16
gdb 79731	2.53044	1.82924	1.47906	2.2549	67.77	-0.2328	-0.0468	0.186	922.7415	0.123838	-437.810415	-437.80285	-437.801906	-437.842462	28.947	
O	 0.1396596754	 1.4658894493	 0.2291098134	-0.42214
C	 0.0228441149	 0.0818316476	 0.0411380675	 0.006009
C	-1.3976533479	-0.541963372	 0.0368594731	-0.083579
C	-2.5316036769	 0.176681208	-0.7081291846	-0.013692
C	-2.1161871525	 0.8612425253	-1.9422945503	-0.247787
N	-2.2934678738	-0.6094509131	-1.9983149177	-0.144839
C	-1.1044541263	-1.2730952325	-1.307395744	-0.10585
C	 0.2413677321	-0.5148504833	-1.3782563664	 0.344627
O	 1.1007791449	-0.3689397365	-2.1984268659	-0.297552
H	 1.0193714908	 1.7283289811	-0.0665636729	 0.299039
H	 0.6528270466	-0.4897825495	 0.7466925051	 0.100882
H	-1.700218717	-1.0798273586	 0.9319468295	 0.087679
H	-3.5326581956	 0.2775700145	-0.3021209338	 0.104408
H	-2.8972198142	 1.370829639	-2.4987385841	 0.127758
H	-1.1363994603	 1.3164009671	-2.0342326293	 0.139718
H	-1.1163109503	-2.3528895863	-1.4495704596	 0.10532
98.3036	162.6835	186.7096	248.2976	267.6121	395.7849	494.4241	558.6893	610.5521	663.6264	715.0344	749.2551	782.1798	843.9888	873.1329	891.3381	958.6264	1017.9905	1022.2653	1040.5559	1068.9848	1103.2858	1116.4661	1143.5634	1167.8972	1184.548	1208.7923	1229.1883	1248.0001	1304.9219	1321.3366	1363.3277	1403.7583	1515.0552	1880.7227	2942.2648	3122.802	3128.7311	3143.8563	3166.2818	3215.7464	3798.1238
OC1C2C3CN3C2C1=O	O[C@H]1[C@H]2[C@H]3CN3[C@H]2C1=O	
InChI=1S/C6H7NO2/c8-5-3-2-1-7(2)4(3)6(5)9/h2-5,8H,1H2	InChI=1S/C6H7NO2/c8-5-3-2-1-7(2)4(3)6(5)9/h2-5,8H,1H2/t2-,3+,4-,5+,7?/m1/s1
