21
gdb 61301	4.08505	0.74549	0.70997	1.0414	85.56	-0.2487	0.0533	0.302	1665.6131	0.179315	-387.036972	-387.026777	-387.025833	-387.072981	37.498	
C	 0.5871863227	 0.4919758083	-0.4622054854	-0.40436
C	-0.3464378057	-0.6327474246	-0.0178028627	 0.139171
C	-0.0431573431	-1.1211839579	 1.4119437637	-0.357288
C	 1.2768286611	-1.7192736525	 1.5531959519	 0.300907
C	 2.3668524949	-2.2168223458	 1.6509665561	-0.458705
O	-1.7101063163	-0.2159568425	 0.0255688938	-0.263675
C	-2.3217325063	-0.0520467664	-1.2156557732	 0.138753
C	-2.808144745	-1.2689980496	-1.9629371293	-0.288884
C	-3.7867036619	-0.3425859419	-1.2678742499	-0.283006
H	 1.6280986992	 0.1632244406	-0.4014992511	 0.134007
H	 0.3877365669	 0.7918001523	-1.494610952	 0.116937
H	 0.4577820351	 1.367055221	 0.1832631378	 0.121133
H	-0.2499812218	-1.4842598718	-0.7072731871	 0.081498
H	-0.1510192403	-0.2720441808	 2.0986655396	 0.135426
H	-0.8166429892	-1.8453902813	 1.6914161001	 0.134604
H	 3.328120601	-2.6568920916	 1.7488586391	 0.195229
H	-1.951741991	 0.7862377155	-1.8043865018	 0.087351
H	-2.7629431793	-1.2698107309	-3.0464509838	 0.113236
H	-2.6334075294	-2.2335564914	-1.4995071433	 0.119246
H	-4.2368222066	-0.7021194997	-0.3498064322	 0.124808
H	-4.4214890451	 0.2993029713	-1.8679917302	 0.113612
43.0511	58.4751	108.0133	123.763	203.6851	233.5525	298.9873	354.0091	370.6343	380.6494	435.7136	491.9352	563.5244	620.5935	646.3141	756.56	816.2982	821.783	850.6479	898.6402	924.2853	971.9015	985.3029	1016.5222	1051.6266	1071.3777	1102.3745	1116.9038	1131.1545	1141.0124	1193.2609	1197.8655	1241.2371	1244.0265	1303.4875	1362.1884	1379.7094	1406.5495	1411.0927	1453.4665	1470.8087	1491.4933	1494.7429	1501.6336	2238.7404	2999.9438	3031.2696	3041.8498	3070.3866	3106.3955	3116.3862	3124.3463	3135.4719	3142.7531	3219.6618	3235.2186	3506.7465
CC(CC#C)OC1CC1	C[C@@H](CC#C)OC1CC1	
InChI=1S/C8H12O/c1-3-4-7(2)9-8-5-6-8/h1,7-8H,4-6H2,2H3	InChI=1S/C8H12O/c1-3-4-7(2)9-8-5-6-8/h1,7-8H,4-6H2,2H3/t7-/m0/s1
