22
gdb 7495	3.8533	1.23133	1.14928	0.9574	78.78	-0.2406	0.0847	0.3253	1188.7532	0.198808	-350.198443	-350.189173	-350.188229	-350.232414	34.549	
C	 0.0544430195	 1.5484752152	-0.1122387094	-0.380295
C	 0.0806552954	 0.0303643085	-0.0261075055	-0.053787
O	-1.2429949996	-0.4401770845	-0.2031050653	-0.29658
C	-1.4585041708	-1.8152540125	 0.0507349818	 0.447147
C	-0.7142056421	-2.7135842095	-0.9370883108	-0.446888
C	-1.3218862216	-2.2813935788	 1.5382544039	-0.265757
C	-2.7054028477	-2.974486625	 1.4067088482	-0.219847
C	-2.9741288564	-2.1284977999	 0.1332151764	-0.263539
H	 1.0629269881	 1.9570524755	 0.0042120077	 0.110685
H	-0.3400730377	 1.8681877039	-1.0810596326	 0.125408
H	-0.5848775573	 1.9668010748	 0.6704157471	 0.12243
H	 0.7522097808	-0.3784784314	-0.7965424585	 0.087878
H	 0.4750234646	-0.2907169845	 0.9513078938	 0.086511
H	 0.3710676186	-2.6493302644	-0.8101861481	 0.114434
H	-0.9989606544	-3.7605391697	-0.7936350229	 0.1159
H	-0.9615452133	-2.4285047925	-1.9648196793	 0.119687
H	-0.4622150303	-2.9029848356	 1.8022527702	 0.090187
H	-1.3634142635	-1.4212415801	 2.2118980199	 0.103615
H	-2.6158342976	-4.0419299729	 1.1885942283	 0.102261
H	-3.4014271901	-2.85302765	 2.2387865374	 0.099726
H	-3.5256770333	-1.212580213	 0.3570270114	 0.108828
H	-3.4309998211	-2.6219380038	-0.7284838936	 0.091995
57.2293	98.7285	143.8709	184.6227	243.7788	255.4984	309.825	331.0541	391.4231	425.6269	463.437	655.1301	718.797	795.3216	821.6646	863.8404	882.7908	903.4307	926.6957	938.5157	983.478	989.344	1046.3116	1095.8696	1137.3146	1170.4719	1187.0544	1193.4048	1205.8706	1222.5018	1249.4035	1275.9637	1288.6257	1299.377	1302.0828	1398.465	1403.0424	1425.0196	1467.538	1480.6456	1483.2184	1489.3083	1498.4077	1500.3002	1506.4288	1528.6618	2971.5669	3000.2184	3034.4949	3042.8692	3054.1356	3060.4428	3067.3006	3103.0527	3104.4645	3108.4874	3115.2101	3116.9775	3119.9318	3128.231
CCOC1(C)CCC1	CCOC1(C)CCC1	
InChI=1S/C7H14O/c1-3-8-7(2)5-4-6-7/h3-6H2,1-2H3	InChI=1S/C7H14O/c1-3-8-7(2)5-4-6-7/h3-6H2,1-2H3
