19
gdb 126770	2.49436	1.3702	0.94633	2.3213	79.25	-0.2019	0.0251	0.227	1276.4786	0.160503	-415.435167	-415.425715	-415.424771	-415.469991	34.176	
C	-0.2296314259	 1.5863330971	-0.1765855114	-0.373129
C	 0.1039005443	 0.1005727905	-0.0318836243	-0.145927
N	 0.8107541113	-0.4251541155	-1.183833531	 0.002025
N	 0.1519945615	-0.553309086	-2.3807028067	-0.341842
C	 1.111227174	-1.0135071057	-3.1704304069	 0.38663
N	 0.9258205615	-1.2461353622	-4.5206954361	-0.585439
N	 2.3223014826	-1.195391627	-2.572238767	-0.36727
C	 2.0953033445	-0.8111735623	-1.3224113877	 0.348984
C	 3.1109507299	-0.8108952695	-0.2282652974	-0.507446
H	 0.6812006895	 2.187039862	-0.2583641123	 0.123307
H	-0.8302809736	 1.7484552132	-1.0743296309	 0.151796
H	-0.7959555754	 1.932419829	 0.6933292303	 0.117624
H	 0.7300452832	-0.0762517131	 0.846627438	 0.118795
H	-0.8139324712	-0.4833050959	 0.0921490681	 0.129672
H	-0.0364229263	-1.4229625345	-4.7702208321	 0.253081
H	 1.5581297731	-1.9432087208	-4.8860025728	 0.254957
H	 3.2962246557	 0.1969487739	 0.158575531	 0.138539
H	 2.8040317598	-1.4392280297	 0.6148830172	 0.137428
H	 4.0465039914	-1.2028129836	-0.628349798	 0.158215
41.7088	109.4548	110.5507	204.2094	213.9043	275.0494	293.5385	305.4179	348.1848	428.7673	520.7641	619.5726	644.2031	651.5174	675.0866	783.26	789.0153	832.4318	974.019	1011.3743	1049.9868	1063.1011	1077.8766	1104.513	1137.8622	1201.757	1289.812	1337.4203	1392.0156	1404.7066	1407.0651	1429.3849	1468.3457	1480.146	1485.753	1488.4773	1507.9168	1515.8315	1557.7063	1590.4052	1647.8559	3038.026	3045.0093	3054.2277	3090.2769	3101.8432	3117.5621	3138.6383	3151.3661	3570.0488	3675.6281
CCN1N=C(N)N=C1C	CCn1nc(N)nc1C	
InChI=1S/C5H10N4/c1-3-9-4(2)7-5(6)8-9/h3H2,1-2H3,(H2,6,8)	InChI=1S/C5H10N4/c1-3-9-4(2)7-5(6)8-9/h3H2,1-2H3,(H2,6,8)
