17
gdb 96644	2.83792	1.10718	0.8334	6.4022	75.66	-0.2498	-0.0365	0.2133	1359.978	0.132366	-455.178684	-455.168497	-455.167553	-455.21491	34.28	
C	 0.1047553536	 1.4039457722	-0.1486245093	-0.33303
N	-0.0497587329	-0.0312985521	-0.1773052127	-0.245926
C	-1.1590918759	-0.6146999947	 0.0036892082	 0.352301
C	-2.5161584819	 0.010894561	 0.2539447236	-0.49957
N	-1.1236040863	-2.0489890576	 0.0146087011	-0.173404
C	-2.2167514207	-2.7883235982	-0.4733434105	 0.162988
O	-2.3355956484	-3.980085037	-0.4313932513	-0.258392
C	 0.067327493	-2.6762041329	 0.4831701327	 0.176177
O	 0.3083596615	-3.8447746901	 0.4004244972	-0.257331
H	 0.3858474768	 1.7437203242	-1.1523195509	 0.144796
H	-0.7743909163	 1.979068979	 0.1689173812	 0.109727
H	 0.9411721813	 1.6555096201	 0.5120134585	 0.141862
H	-3.0848158736	 0.1183363898	-0.6761652608	 0.15982
H	-3.109255556	-0.5947134123	 0.942275045	 0.153854
H	-2.405905185	 1.0077230436	 0.6813961372	 0.151156
H	-2.9777876915	-2.1287480397	-0.926271051	 0.094053
H	 0.7333215922	-1.9284194453	 0.9369470715	 0.12092
48.1301	66.0286	109.854	128.7405	153.3159	182.305	249.2485	278.6877	321.8414	366.4974	417.9199	461.0756	533.0214	578.3704	670.3605	901.4057	927.5892	1013.4629	1027.6056	1044.4964	1062.6016	1086.8209	1127.2596	1151.8674	1273.2297	1290.0984	1399.8761	1432.6668	1441.9632	1468.565	1477.7152	1484.2653	1487.6589	1510.2675	1746.5155	1801.4697	1877.9369	2974.2425	3009.8755	3037.4886	3050.7777	3074.6456	3087.3515	3117.5556	3149.4965
CN=C(C)N(C=O)C=O	CN=C(C)N(C=O)C=O	
InChI=1S/C5H8N2O2/c1-5(6-2)7(3-8)4-9/h3-4H,1-2H3	InChI=1S/C5H8N2O2/c1-5(6-2)7(3-8)4-9/h3-4H,1-2H3
