13
gdb 132212	1.86245	1.82102	0.92075	4.0204	66.07	-0.2086	-0.0047	0.2039	1120.0529	0.088678	-502.025686	-502.018151	-502.017206	-502.058075	28.027	
F	 0.1084622251	 0.0589777818	 0.0019534772	-0.060025
C	-0.0418437838	 1.3753842901	 0.0111050413	 0.417231
C	-1.2229884609	 2.0050752866	 0.0306335283	-0.356122
C	-1.2888374782	 3.4686186675	 0.0393938231	 0.350215
N	-2.4396308744	 4.0491775934	 0.0583172636	-0.559697
C	 0.0202212833	 4.1330046754	 0.0251138347	-0.419846
C	 1.1504776813	 3.4112726248	 0.0057823304	 0.425127
F	 2.3687244518	 3.9322801641	-0.0080478799	-0.058474
N	 1.1636042535	 2.0398865898	-0.0018146139	-0.471757
H	-2.1429652245	 1.437897883	 0.0401455434	 0.13173
H	-2.3230375808	 5.0641770217	 0.0622425862	 0.201006
H	 0.0873019018	 5.2132274922	 0.0300219512	 0.1182
H	 2.0327546956	 1.5317240795	-0.0163037857	 0.282412
96.8664	162.3254	237.3798	244.0264	325.9618	352.4692	498.4129	503.465	567.4272	598.9885	609.2568	646.2862	690.9331	805.637	855.5528	886.8362	939.9721	1024.9142	1035.2549	1143.3697	1186.1521	1248.2751	1275.2507	1383.5656	1414.8086	1530.441	1647.5164	1689.8033	1753.4379	3217.2318	3240.471	3448.0033	3664.8201
FC1=CC(=N)C=C(F)N1	F[C@@H]1C=C([NH])C=C(F)N1	
InChI=1S/C5H4F2N2/c6-4-1-3(8)2-5(7)9-4/h1-2H,(H2,8,9)	InChI=1S/C5H5F2N2/c6-4-1-3(8)2-5(7)9-4/h1-2,4,8-9H/t4-/m0/s1
