17
gdb 18865	3.70418	2.33903	1.93383	0.7592	74.47	-0.2073	-0.0327	0.1746	762.6377	0.142723	-326.607339	-326.600808	-326.599864	-326.637523	26.469	
C	 0.1839172382	 1.4934397155	 0.2563282362	-0.409718
C	 0.0150154901	-0.0003469189	 0.0946773718	 0.069233
N	 0.6413681554	-0.67527327	-1.1497316475	-0.170296
C	 2.0685619668	-1.289719059	-0.9800569503	-0.016893
C	 3.0719818131	-0.9630301045	 0.1430717439	-0.265108
C	 2.0923712113	-0.6082944849	 1.2542294622	-0.117926
C	 0.8543387962	-1.0123945611	 0.8913587263	-0.006264
C	 0.8954708604	-1.9015424511	-0.3536640177	-0.069162
H	 1.2366199974	 1.7872538583	 0.2557152607	 0.119742
H	-0.3214801001	 2.0105738521	-0.5655765972	 0.128816
H	-0.2677135901	 1.8317571507	 1.1949111085	 0.125789
H	-1.0469371046	-0.2577691629	 0.0115385657	 0.092938
H	 2.4181017013	-1.5868620279	-1.9649013772	 0.099555
H	 3.7385825124	-1.8272574307	 0.2800165192	 0.116105
H	 3.7140560109	-0.0951906114	-0.0474890613	 0.115208
H	 2.247627436	 0.3040902194	 1.8225456689	 0.095312
H	 0.4053307154	-2.8501911137	-0.5424881423	 0.092669
170.3543	198.894	275.6725	349.0757	458.2708	516.3744	553.7618	661.9891	697.9485	737.9133	790.5583	839.5946	864.6563	884.4983	900.1007	933.0772	973.0994	999.6698	1044.2342	1058.7176	1069.7886	1084.2588	1143.6037	1146.2222	1201.8313	1229.7747	1247.8981	1271.005	1309.9697	1361.0594	1385.4112	1407.7431	1469.0231	1485.5206	1489.9543	1577.2163	2998.1436	3037.4728	3041.4993	3059.6738	3105.9507	3120.929	3158.4615	3164.7967	3172.5659
CC1N2C3CC=C1C23	C[C@H]1N2[C@H]3C[CH][C]1[C@@H]23	
InChI=1S/C7H9N/c1-4-5-2-3-6-7(5)8(4)6/h2,4,6-7H,3H2,1H3	InChI=1S/C7H9N/c1-4-5-2-3-6-7(5)8(4)6/h2,4,6-7H,3H2,1H3/t4-,6+,7-,8?/m1/s1
