18
gdb 116116	2.57471	1.31156	0.91009	5.0694	68.92	-0.2571	0.0506	0.3077	1249.1254	0.149364	-476.271291	-476.262722	-476.261777	-476.305056	31.598	
O	-0.0052266585	 1.4089920678	 0.0982565731	-0.421961
C	 0.0304378595	 0.0021346787	 0.0324040931	-0.067659
C	-1.3697131801	-0.5952322972	-0.0551429684	 0.112572
C	-1.4080794411	-2.1145010069	-0.0976875617	-0.233597
C	-2.8659134496	-2.5649666877	-0.1072988962	-0.162933
N	-3.5997470902	-1.8265286336	 0.9078613103	-0.361444
C	-3.2300212083	-0.6632152636	 1.5254500549	 0.463545
O	-3.8739571641	-0.1354804312	 2.3968778849	-0.390604
O	-2.0498842811	-0.1128121091	 1.1224774607	-0.273573
H	-0.5916675248	 1.6334258823	 0.8308678103	 0.299503
H	 0.5957287713	-0.2636617379	-0.8671966147	 0.110226
H	 0.5477935969	-0.4370381862	 0.9010409079	 0.094853
H	-1.877971485	-0.1744217054	-0.9344426321	 0.096423
H	-0.8945874678	-2.4838466374	-0.990186251	 0.117632
H	-0.8915751696	-2.5139694282	 0.7822186591	 0.122705
H	-3.3010527811	-2.3962419613	-1.1032318302	 0.114343
H	-2.9422194243	-3.6375380864	 0.1016602782	 0.119008
H	-4.488592392	-2.1759580364	 1.2264991516	 0.260962
80.2405	105.2514	125.1506	173.4217	236.7226	372.7323	434.1396	441.1412	471.267	518.1873	522.9831	559.2817	678.7379	759.1481	810.5533	922.0547	937.7875	957.3028	987.176	1074.9884	1095.9304	1111.5409	1130.5845	1147.095	1218.2113	1245.8449	1251.5074	1303.6122	1317.2831	1374.0326	1391.7985	1398.9812	1416.9867	1442.587	1471.2201	1486.2974	1497.1524	1530.876	1847.9012	2974.6991	2993.5583	3012.1574	3046.1394	3061.5527	3076.2409	3103.1094	3653.2945	3794.7953
OCC1CCNC(=O)O1	OC[C@H]1CCNC(=O)O1	
InChI=1S/C5H9NO3/c7-3-4-1-2-6-5(8)9-4/h4,7H,1-3H2,(H,6,8)	InChI=1S/C5H9NO3/c7-3-4-1-2-6-5(8)9-4/h4,7H,1-3H2,(H,6,8)/t4-/m1/s1
