19
gdb 22300	2.62433	1.26286	0.88142	2.9687	87.18	-0.1853	-0.0063	0.179	1310.9166	0.160322	-419.197249	-419.188397	-419.187453	-419.230525	33.871	
C	 0.0759084462	 1.4851703922	 0.0735968376	-0.485597
C	 0.0388421104	-0.0132450083	-0.0189480492	 0.34119
C	-0.1022674447	-0.6738376613	-1.1968404129	-0.250858
C	-0.0494478406	-2.118135784	-1.2516271652	 0.353682
C	 0.3566122996	-2.8210510569	 0.0249871768	-0.27305
C	-0.2202895203	-2.0831704765	 1.235030756	-0.179762
N	 0.1835998447	-0.6816855122	 1.1809321968	-0.344642
N	-0.2606424087	-2.8707607251	-2.2746605513	-0.244116
O	-0.5852215283	-2.1101509888	-3.4192401838	-0.40397
H	 1.0058592819	 1.8216117346	 0.5474384964	 0.136359
H	 0.0094172323	 1.9384531787	-0.9161863976	 0.141238
H	-0.753961787	 1.8658765334	 0.6830644637	 0.12612
H	-0.2105294591	-0.1178671329	-2.1163201526	 0.099851
H	 0.0234984285	-3.8607603866	 0.0059796175	 0.11849
H	 1.4517210191	-2.8209546197	 0.1028445797	 0.11856
H	-1.3188312951	-2.1752083383	 1.2279229092	 0.105483
H	 0.1483677423	-2.5196518887	 2.1678830981	 0.106258
H	-0.0283483088	-0.1381892367	 2.0040527277	 0.235029
H	-0.6935735125	-2.7962971329	-4.0847754471	 0.299735
107.9236	137.3271	189.0334	208.0148	235.0598	319.1675	358.3103	380.2758	421.7588	469.0269	508.181	551.931	608.3092	629.5444	685.4405	815.8445	831.6452	905.2317	923.2179	974.1192	1014.0655	1040.1602	1060.8385	1077.315	1122.1613	1199.5405	1209.2384	1259.8012	1284.2489	1348.6273	1359.4885	1385.7611	1409.8449	1415.0584	1469.2587	1477.5269	1482.2004	1498.6822	1534.7361	1672.1509	1693.922	2969.5211	3021.0656	3026.8833	3071.2219	3078.9787	3113.1581	3142.0294	3240.6082	3604.8468	3830.7712
CC1=CC(CCN1)=NO	CC1=CC(=NO)CCN1	
InChI=1S/C6H10N2O/c1-5-4-6(8-9)2-3-7-5/h4,7,9H,2-3H2,1H3	InChI=1S/C6H10N2O/c1-5-4-6(8-9)2-3-7-5/h4,7,9H,2-3H2,1H3
