14
gdb 27504	2.09918	1.99471	1.02296	5.6679	70.98	-0.2172	-0.01	0.2073	1077.8989	0.102216	-466.256618	-466.248062	-466.247118	-466.290296	30.845	
N	 0.0417603082	 1.3002434237	-0.0611418183	-0.563482
C	-0.0408774963	-0.0441399839	-0.0295395044	 0.514769
N	-1.1923473687	-0.6466496646	-0.0216972053	-0.41596
C	-1.0916918795	-2.0188297142	-0.0200672459	 0.438268
N	-2.2777071	-2.6611908071	-0.03068992	-0.551579
H	-3.1268946652	-2.1305288832	 0.0337357711	 0.268132
H	-2.2877568454	-3.6637974397	 0.0298806951	 0.273084
N	 0.0043648484	-2.7383702583	-0.015221901	-0.349957
C	 1.1935195561	-2.1011845193	-0.0187248458	 0.419127
N	 2.338455652	-2.6342286679	-0.0141604246	-0.54233
O	 1.1489525179	-0.6368845848	-0.0270384242	-0.264133
H	 0.9329366297	 1.7441229795	 0.0734891866	 0.277183
H	-0.8061144265	 1.8278389108	 0.0514436494	 0.279112
H	 3.0662245193	-1.9231605413	-0.0187969826	 0.217767
57.6247	110.1613	168.7975	187.7331	200.8779	322.6491	360.9657	524.7681	538.0274	545.2853	568.1063	583.024	662.4722	719.8556	738.0031	790.1892	805.0958	810.9792	957.1886	999.3909	1042.768	1161.1288	1188.0693	1270.7782	1444.3935	1475.0287	1562.593	1606.6932	1663.2635	1685.2601	1797.1005	3526.9448	3625.191	3632.1985	3760.8361	3773.9807
NC1=NC(=[NH2+])[N-]C(=N)O1	NC1=N[C@@H](N)N=C([NH])O1	
InChI=1S/C3H4N5O/c4-1-7-2(5)9-3(6)8-1/h(H4-,4,5,6,7,8)/q-1/p+1	InChI=1S/C3H6N5O/c4-1-7-2(5)9-3(6)8-1/h1,5H,4H2,(H2,6,8)/t1-/m0/s1
