16
gdb 27906	1.98635	1.79474	0.94427	1.2308	77.96	-0.1913	0.0228	0.2141	1177.0018	0.126809	-434.146649	-434.138619	-434.137675	-434.178573	32.352	
N	 0.0491009526	 1.3600597454	 0.2193258466	-0.569506
C	-0.0025728571	-0.014493101	 0.0679912148	 0.39558
C	-1.2286246821	-0.6870141581	 0.0343747088	-0.314192
C	-1.1936118961	-2.073776178	-0.0618495673	 0.453791
O	-2.3811496397	-2.731585413	-0.0949396442	-0.440786
C	 0.027591446	-2.7422360736	-0.1211951784	-0.378616
C	 1.1917226354	-1.9647794028	-0.083333351	 0.396377
N	 2.4421039149	-2.5501051851	-0.1974716897	-0.569935
N	 1.18531502	-0.6313409263	 0.0101791362	-0.412966
H	 0.9375238727	 1.7590817462	-0.0446152418	 0.249342
H	-0.7505341127	 1.8777646378	-0.1095414987	 0.247606
H	-2.1750745602	-0.1652628769	 0.0938661618	 0.085774
H	-2.2122310467	-3.677123039	-0.1649897116	 0.296621
H	 0.076463157	-3.8225622002	-0.2132508224	 0.065936
H	 2.5235815806	-3.4993421644	 0.131800364	 0.24514
H	 3.1905593955	-1.9457321311	 0.1082492429	 0.249834
193.2717	203.0521	242.9165	317.7846	329.8913	380.0185	392.503	406.3301	520.0481	526.1134	537.59	548.7186	577.8378	638.2657	659.0844	693.8668	749.8876	781.0144	818.8134	983.6596	1014.1503	1031.8629	1105.8404	1160.8308	1195.7712	1222.3123	1287.2239	1374.4156	1448.659	1499.2649	1521.8773	1626.6033	1631.6375	1648.8156	1661.6354	3168.9436	3209.2636	3574.6801	3578.6087	3687.6187	3692.9815	3818.8484
NC1=CC(O)=CC(N)=N1	Nc1cc(O)cc(N)n1	
InChI=1S/C5H7N3O/c6-4-1-3(9)2-5(7)8-4/h1-2H,(H5,6,7,8,9)	InChI=1S/C5H7N3O/c6-4-1-3(9)2-5(7)8-4/h1-2H,(H5,6,7,8,9)
