16
gdb 98911	3.61198	0.71249	0.59954	2.9169	88.98	-0.2437	-0.0268	0.2169	1764.8908	0.121743	-400.730545	-400.720453	-400.719509	-400.76711	34.806	
C	-0.6352962056	 1.2021237228	-0.5585288677	-0.336131
N	-1.0678791008	-0.1073070684	-0.1114600143	-0.317164
C	-0.3732221009	-0.8317858967	 0.7975016123	 0.44181
O	 0.662101388	-0.4749199107	 1.3260306914	-0.3722
C	-0.9750094207	-2.2103414604	 1.1635145908	-0.537015
C	-2.2120564025	-2.5894819822	 0.5073497784	 0.357696
C	-3.2445759392	-2.8950410394	-0.0480916924	-0.210601
C	-4.4043131293	-3.2376376331	-0.6719482829	 0.285019
C	-5.4331995767	-3.5404722723	-1.2266288325	-0.542271
H	-0.4517968516	 1.2110518113	-1.6384172842	 0.129987
H	-1.38297955	 1.9674749315	-0.3237794718	 0.130002
H	 0.2927932431	 1.437062	-0.0363718955	 0.172081
H	-1.9160384339	-0.503931693	-0.4848657355	 0.259237
H	-0.1899338494	-2.9477079133	 0.9584097921	 0.171721
H	-1.1033729527	-2.2052352419	 2.2523448319	 0.171701
H	-6.3378357478	-3.8107086344	-1.7125349702	 0.196131
34.8083	63.664	78.3413	143.4002	160.335	192.3902	284.8715	348.8392	380.5385	430.3472	499.8091	546.1535	552.8947	597.9083	604.1578	632.6604	656.5568	765.845	871.8136	941.5928	1086.5766	1153.2436	1175.7844	1178.0932	1212.9109	1251.8127	1304.5231	1437.0548	1440.2966	1494.5957	1499.3861	1570.6658	1791.5982	2181.1978	2357.5259	3031.377	3041.2426	3074.9385	3084.8046	3155.0355	3504.499	3625.1216
CNC(=O)CC#CC#C	CNC(=O)CC#CC#C	
InChI=1S/C7H7NO/c1-3-4-5-6-7(9)8-2/h1H,6H2,2H3,(H,8,9)	InChI=1S/C7H7NO/c1-3-4-5-6-7(9)8-2/h1H,6H2,2H3,(H,8,9)
