21
gdb 109619	1.86701	1.37557	1.03247	5.0608	84.71	-0.2412	0.0302	0.2714	1302.9199	0.180144	-383.263353	-383.252821	-383.251877	-383.298761	37.949	
C	-1.1729537434	 2.2071760551	-0.3995663864	-0.37473
C	-0.9057879943	 0.961377253	-1.2415417456	-0.124806
N	-1.6418155423	-0.1787368252	-0.6995761056	-0.116118
C	-1.3638853274	-1.5460872573	-1.1110662711	-0.029288
C	-0.3131869672	-1.9302408031	-2.1304615747	-0.425904
C	-1.0187118474	-1.0796616548	 0.2864639587	 0.11439
C	 0.4191848503	-0.9446214991	 0.7649931505	-0.467498
C	-1.9245624405	-1.4628686804	 1.3575168877	 0.274528
N	-2.6231760311	-1.7899004162	 2.2190035123	-0.347231
H	-0.6783646223	 3.0791251652	-0.8383111892	 0.114979
H	-2.2462651818	 2.4042648681	-0.3379581161	 0.136299
H	-0.7952978246	 2.0826187052	 0.6202784924	 0.122886
H	-1.2787404583	 1.1141449797	-2.2609857994	 0.112743
H	 0.1783243391	 0.797339579	-1.3249193241	 0.086554
H	-2.2716246187	-2.1430058874	-1.1969684605	 0.109288
H	 0.6098217983	-1.3546098603	-2.0493209384	 0.124486
H	-0.0620367705	-2.9905467669	-2.0255784145	 0.135114
H	-0.708309098	-1.7845212072	-3.1414803234	 0.135221
H	 1.1103614827	-0.7272647603	-0.0486306061	 0.129729
H	 0.5036858665	-0.1483436439	 1.5105033149	 0.144099
H	 0.738364961	-1.8779966234	 1.2376857088	 0.145261
77.6316	103.327	143.0673	156.6063	165.5657	178.5757	215.3364	260.4325	303.6993	327.0685	414.2945	452.5861	531.7287	558.6514	574.5848	676.6101	753.3946	797.7063	814.4166	925.8031	959.4261	995.4444	1058.2723	1078.9321	1104.2665	1127.901	1149.7246	1166.4613	1181.0637	1250.942	1306.3183	1356.7407	1379.8653	1403.3389	1413.5609	1420.4099	1428.2687	1477.1526	1487.1379	1490.7849	1495.0276	1498.259	1508.7675	1515.1828	2351.863	2992.7201	3042.6964	3043.8921	3053.6894	3054.9685	3101.1293	3103.5358	3111.08	3114.429	3126.7129	3137.9968	3155.2102
CCN1C(C)C1(C)C#N	CCN1[C@@H](C)[C@]1(C)C#N	
InChI=1S/C7H12N2/c1-4-9-6(2)7(9,3)5-8/h6H,4H2,1-3H3	InChI=1S/C7H12N2/c1-4-9-6(2)7(9,3)5-8/h6H,4H2,1-3H3/t6-,7-,9?/m0/s1
