20
gdb 114793	3.42293	1.19622	1.06643	1.477	78.13	-0.2424	0.0189	0.2613	1208.6464	0.172613	-403.158611	-403.150501	-403.149557	-403.191708	30.982	
C	 0.0473986691	 1.4928975273	-0.175961238	-0.383559
C	 0.0250859595	-0.0279153816	 0.0083273829	-0.185544
C	-1.3881486864	-0.5921939281	 0.0807056333	 0.033386
C	-2.2856251259	-0.5425370222	-1.2026605467	-0.271562
C	-2.6564765013	-2.0294005893	-0.993715002	 0.084799
O	-2.1895206811	-2.9168198088	-2.0354853847	-0.22798
C	-0.9536500547	-3.3015105632	-1.6237543676	 0.110391
N	-0.5118997165	-2.9396516854	-0.4904896667	-0.261562
C	-1.5821898366	-2.1401825513	 0.1275771252	-0.044354
H	 1.0732473155	 1.8689957176	-0.2364643186	 0.114148
H	-0.4687593677	 1.791994698	-1.0950483336	 0.116132
H	-0.4453977333	 2.0032610348	 0.659420859	 0.111609
H	 0.5647380222	-0.5150888682	-0.8116512202	 0.105105
H	 0.5649916724	-0.2988055083	 0.9241252229	 0.101319
H	-1.9187835073	-0.1390240589	 0.9264095212	 0.07039
H	-3.1172011347	 0.1651850587	-1.1901277625	 0.105989
H	-1.7190542577	-0.3986240309	-2.1268666307	 0.111631
H	-3.7007599167	-2.263732183	-0.7887797503	 0.090812
H	-0.422937616	-3.927788003	-2.3327750251	 0.140107
H	-1.8437047528	-2.5637682141	 1.1009955624	 0.078743
77.5798	95.1214	159.2006	225.2059	276.0849	365.7455	393.5647	456.4729	571.3406	679.6615	739.0932	772.5812	794.3705	856.6776	872.6543	910.0226	923.4308	953.6234	965.121	974.7372	1018.9792	1031.3469	1094.5773	1103.93	1120.7111	1136.6293	1177.5128	1220.0138	1244.9309	1271.6151	1276.2125	1285.2478	1313.5353	1320.4078	1341.4747	1359.0189	1391.3069	1411.4064	1473.6124	1486.3974	1500.5782	1506.9588	1684.5158	3027.6902	3030.791	3032.1491	3062.4567	3065.5077	3068.9917	3095.9984	3102.472	3111.1488	3124.8749	3212.9012
CCC1CC2OC=NC12	CC[C@H]1C[C@H]2OC=N[C@@H]12	
InChI=1S/C7H11NO/c1-2-5-3-6-7(5)8-4-9-6/h4-7H,2-3H2,1H3	InChI=1S/C7H11NO/c1-2-5-3-6-7(5)8-4-9-6/h4-7H,2-3H2,1H3/t5-,6+,7-/m0/s1
