19
gdb 32742	3.0752	1.06401	0.82723	1.1551	80.32	-0.186	0.0301	0.2161	1415.3775	0.160107	-419.224377	-419.215168	-419.214224	-419.258974	34.108	
C	-0.0775884982	 1.4916756038	-0.1213443494	-0.393308
C	-0.2408932077	-0.0032573023	-0.3744711133	-0.113766
N	-1.3110510838	-0.5577376095	 0.4691964527	-0.408599
C	-1.6349038485	-1.8949579997	 0.2731132231	 0.275318
C	-2.8231231926	-2.4742085043	-0.0686716698	 0.188531
N	-4.0488224892	-1.8162087002	-0.2346684855	-0.612527
C	-2.5852201573	-3.8889984081	-0.1307346956	-0.244764
C	-1.2733889638	-4.062055648	 0.1795330816	-0.009202
O	-0.6705841267	-2.8811614558	 0.4398346913	-0.180584
H	 0.7037923105	 1.9093099063	-0.7629645149	 0.118251
H	-1.01302245	 2.024207718	-0.3170104169	 0.122698
H	 0.2100843008	 1.6869133066	 0.9185306784	 0.113817
H	-0.5247567375	-0.1837321585	-1.4172588412	 0.107883
H	 0.7187749421	-0.5182000858	-0.2141752145	 0.100535
H	-1.1401958321	-0.3347737591	 1.4461258483	 0.225866
H	-3.907121867	-0.8143004514	-0.29679366	 0.242404
H	-4.5632122706	-2.1394088321	-1.0446612715	 0.239607
H	-3.3011807722	-4.6617285682	-0.3646331727	 0.100952
H	-0.6485187162	-4.9379813117	 0.2496917798	 0.126889
57.2582	73.011	113.9273	238.1461	265.3738	283.0776	296.262	330.5377	363.9949	501.3948	619.1474	648.1459	665.2965	711.1054	741.0972	785.2034	806.5361	814.5331	830.2372	898.1006	925.5512	1037.9674	1060.7932	1077.8427	1136.3619	1152.0001	1166.2936	1197.9127	1286.8925	1307.2664	1322.8427	1378.8028	1409.9446	1461.1141	1479.0262	1494.2765	1498.4188	1521.755	1548.5431	1637.5295	1710.	2986.2703	3032.0696	3058.7076	3099.7621	3118.1035	3247.4907	3273.355	3480.4854	3518.1208	3610.8786
CCNC1=C(N)C=CO1	CCNc1c(N)cco1	
InChI=1S/C6H10N2O/c1-2-8-6-5(7)3-4-9-6/h3-4,8H,2,7H2,1H3	InChI=1S/C6H10N2O/c1-2-8-6-5(7)3-4-9-6/h3-4,8H,2,7H2,1H3
