20
gdb 84871	2.29889	1.52291	1.00037	2.2567	82.2	-0.2305	0.0015	0.232	1235.9159	0.171047	-403.156721	-403.147813	-403.146869	-403.190137	33.719	
C	-1.1212291872	 0.8974158792	 0.1128917486	-0.392918
C	 0.2153989521	 0.1507993993	 0.0715850172	-0.003425
C	 0.7941331104	 0.1378032826	-1.3315908518	-0.132601
C	 1.9545427071	-0.4463293038	-1.6340808435	 0.28285
C	 2.5590821401	-0.4521710145	-3.0093977609	-0.484447
C	 2.7295466819	-1.1167137667	-0.5227740333	-0.172097
O	 3.2250294491	-0.1878497046	 0.4599234602	-0.225539
C	 2.3454777152	 0.5781519528	 1.15477242	 0.137559
N	 1.1000339766	 0.7588232936	 1.0758770477	-0.272714
H	-0.9792990224	 1.9452388069	-0.1708563067	 0.120529
H	-1.8413822012	 0.4439591405	-0.5763571795	 0.104258
H	-1.5356763967	 0.8748870986	 1.1232287333	 0.12057
H	 0.0170574574	-0.8882024464	 0.3805943717	 0.092506
H	 0.2286061224	 0.6530491323	-2.1060488068	 0.086234
H	 3.5377303111	 0.0449124376	-3.0130130823	 0.133353
H	 2.7282152201	-1.4765166744	-3.3664147634	 0.125265
H	 1.9152449342	 0.0559151549	-3.731919268	 0.125554
H	 2.121677836	-1.876340597	-0.0146518492	 0.120215
H	 3.628552828	-1.6078693975	-0.9011944023	 0.116138
H	 2.9097105959	 1.1192318769	 1.9158587788	 0.118711
82.5024	146.8123	178.1636	212.3269	259.1609	274.2016	341.1198	365.8467	380.1236	408.0197	505.0734	570.4094	652.4746	798.2591	805.3532	856.011	871.3803	928.306	954.145	969.2521	987.1987	1052.6045	1068.1304	1086.1552	1106.0292	1141.9789	1161.2778	1216.4148	1286.0109	1305.6698	1330.1003	1365.3894	1405.233	1408.2863	1412.4939	1435.707	1478.6314	1486.9615	1489.3987	1497.309	1500.3854	1738.1778	1745.9821	2961.0615	3013.7149	3021.3533	3037.0212	3060.2873	3105.7501	3107.0316	3115.0915	3126.8302	3127.5086	3140.9117
CC1C=C(C)COC=N1	C[C@H]1C=C(C)COC=N1	
InChI=1S/C7H11NO/c1-6-3-7(2)8-5-9-4-6/h3,5,7H,4H2,1-2H3	InChI=1S/C7H11NO/c1-6-3-7(2)8-5-9-4-6/h3,5,7H,4H2,1-2H3/t7-/m0/s1
