19
gdb 53806	3.33109	1.16763	0.88385	2.6368	80.23	-0.221	-0.0449	0.1761	1319.4127	0.158365	-419.216019	-419.206373	-419.205429	-419.252554	33.499	
C	 0.3799858604	 1.4287258038	 0.0123870319	-0.460305
C	 0.2150075789	-0.0709182933	 0.0551908873	 0.367978
O	 0.1455889537	-0.6947127698	 1.0924459115	-0.313799
C	 0.1365673337	-0.7831601466	-1.287285786	 0.237231
N	 0.2174765027	-0.0559521103	-2.3473910173	-0.539916
N	-0.0021884673	-2.1318749429	-1.238839108	-0.073864
C	-0.2098918791	-3.139742527	-0.187553431	-0.147576
C	-0.3541600282	-4.207576104	-1.3088026866	-0.253363
C	-0.1658598055	-3.0656559925	-2.3479174753	-0.181081
H	 1.286990326	 1.691688684	-0.5385850846	 0.156018
H	-0.448038038	 1.8827581839	-0.5386283679	 0.155678
H	 0.422092611	 1.8123172475	 1.0323190079	 0.128369
H	 0.1557047993	-0.6216564765	-3.1961947836	 0.208979
H	 0.6421446474	-3.2627850606	 0.4854041944	 0.12606
H	-1.1028874244	-2.9701328447	 0.4201226948	 0.124081
H	 0.4338779773	-4.960881294	-1.3220610823	 0.118639
H	-1.3236706703	-4.7043296199	-1.3492347259	 0.118163
H	-1.0397377767	-2.8534365497	-2.9784651723	 0.11351
H	 0.7162476391	-3.1488384874	-2.995596317	 0.115199
17.8572	61.4486	112.0365	126.6751	140.2872	176.3302	302.081	359.6486	410.3104	446.8008	602.6757	637.1689	692.3836	768.1023	835.8422	839.0578	859.5849	908.8269	942.007	972.6424	1011.0938	1047.6251	1137.6142	1141.6955	1162.5838	1199.0691	1205.4828	1227.7904	1265.0743	1271.7384	1295.0776	1342.4342	1382.5319	1451.7984	1459.3954	1467.0179	1494.1874	1509.4883	1532.4991	1661.2641	1794.3227	3004.2935	3041.0782	3057.9655	3058.2807	3094.0889	3099.4065	3124.9462	3148.4124	3160.5664	3453.4733
CC(=O)C(=N)N1CCC1	CC(=O)[C]([NH])N1CCC1	
InChI=1S/C6H10N2O/c1-5(9)6(7)8-3-2-4-8/h7H,2-4H2,1H3	InChI=1S/C6H10N2O/c1-5(9)6(7)8-3-2-4-8/h7H,2-4H2,1H3
