21
gdb 117370	5.51387	0.67205	0.62382	2.3141	81.03	-0.2499	0.0322	0.2821	1836.6739	0.182225	-420.391331	-420.38136	-420.380416	-420.427412	35.567	
C	 2.5263506282	 1.3305305292	 0.268548504	-0.389498
C	 2.4843139627	-0.1818302419	 0.3827362698	-0.028046
O	 2.0970064084	-0.7013187099	-0.8992778072	-0.249351
C	 1.9846972951	-2.040509299	-1.0019945121	 0.400926
N	 2.1941024866	-2.805237867	-0.0115670667	-0.534674
C	 1.6050949996	-2.4101123202	-2.4268351748	-0.325645
C	 1.1813738994	-3.8489653028	-2.5852845112	 0.015937
C	 1.4791281569	-4.6023436732	-3.8261357947	-0.251058
N	 2.1864306268	-4.9306124086	-2.5748752488	-0.313898
H	 3.2485040571	 1.6463707532	-0.489965539	 0.12494
H	 1.5452250186	 1.7290923461	-0.0053754821	 0.125707
H	 2.8204137252	 1.7679017725	 1.2273304489	 0.120174
H	 3.4573384875	-0.6014866931	 0.659484504	 0.116985
H	 1.7649035197	-0.5181891812	 1.1363900879	 0.120309
H	 2.0713465401	-3.7810104251	-0.2741936085	 0.241958
H	 0.8057292509	-1.7340965971	-2.7523810614	 0.131185
H	 2.4635035843	-2.1917371711	-3.0764564188	 0.119511
H	 0.2772957127	-4.1138890595	-2.040082289	 0.105048
H	 0.7925625276	-5.366808004	-4.1777212938	 0.123493
H	 2.0260790722	-4.0899424662	-4.6137185834	 0.113757
H	 3.1203018303	-4.5259676811	-2.5967430029	 0.232239
40.308	80.3947	94.3513	125.4457	147.3463	217.3326	256.3189	320.9711	374.0836	390.4228	455.6531	570.7964	689.7538	795.151	807.0874	830.7261	880.5057	886.6836	920.7673	932.9435	968.2386	994.5565	1041.9423	1062.2848	1122.5469	1131.6711	1137.8662	1152.6	1178.7379	1183.9066	1247.4092	1267.6837	1288.9403	1294.5979	1311.0734	1370.6769	1407.1994	1428.011	1440.9173	1457.3562	1485.6825	1496.5414	1514.1486	1521.3977	1723.5633	3023.4332	3044.3383	3047.3745	3065.7192	3082.8801	3109.4311	3118.9005	3122.2304	3127.0888	3194.822	3487.3236	3517.4543
CCOC(=N)CC1CN1	CCO[C]([NH])C[C@H]1CN1	
InChI=1S/C6H12N2O/c1-2-9-6(7)3-5-4-8-5/h5,7-8H,2-4H2,1H3	InChI=1S/C6H12N2O/c1-2-9-6(7)3-5-4-8-5/h5,7-8H,2-4H2,1H3/t5-/m0/s1
