19
gdb 55031	3.16367	1.08355	0.94972	4.7951	78.09	-0.2298	0.0355	0.2654	1287.3442	0.159973	-419.195286	-419.18665	-419.185706	-419.228995	32.929	
N	 0.6693292206	 0.1193198572	-0.6886023586	-0.539643
C	-0.3351386026	 0.4133815745	 0.1923426632	 0.389386
O	-0.4118177184	 1.474939701	 0.7845937875	-0.376888
C	-1.407291408	-0.6321898951	 0.3616657467	-0.130162
C	-2.0156676431	-1.350512532	-0.8347907322	-0.319662
C	-1.2212430035	-2.12874577	 0.1644812848	 0.043601
N	 0.0629616963	-2.6425150837	-0.2355071379	-0.074586
C	 0.7719131718	-3.4690867911	 0.7403102255	-0.224056
C	 0.1474072501	-4.0840178371	-0.4633321618	-0.222721
H	 1.4361518032	 0.7735336487	-0.7034353388	 0.248355
H	 0.8521961954	-0.8571023093	-0.8916480247	 0.257818
H	-2.0903209003	-0.3449888321	 1.1517746782	 0.11068
H	-3.0920194365	-1.4754589813	-0.8654885698	 0.122973
H	-1.5462204465	-1.1643107782	-1.7939614163	 0.134983
H	-1.7799179897	-2.7575554308	 0.8622606034	 0.085502
H	 1.8464879204	-3.322983718	 0.7913197101	 0.125562
H	 0.2880343932	-3.640071634	 1.6994415781	 0.123557
H	-0.7574662793	-4.6689442586	-0.3141361407	 0.120115
H	 0.7583401669	-4.3932604001	-1.3058625469	 0.125183
60.2602	102.4746	156.712	198.608	276.9858	311.4614	366.7438	443.9173	514.7262	521.6446	611.099	662.4268	723.1568	762.0621	789.9905	822.9163	844.8112	900.4406	917.8541	986.0807	1015.7667	1040.7309	1057.3664	1069.1299	1118.2271	1124.4163	1129.5134	1138.9975	1165.3961	1175.7316	1207.5146	1228.9882	1320.7644	1339.7134	1393.306	1410.4559	1481.762	1493.0758	1520.5038	1620.2324	1787.562	3063.7601	3107.0141	3110.9832	3141.1939	3190.2018	3191.3591	3204.4315	3232.8271	3492.1878	3672.503
NC(=O)C1CC1N1CC1	NC(=O)[C@H]1C[C@H]1N1CC1	
InChI=1S/C6H10N2O/c7-6(9)4-3-5(4)8-1-2-8/h4-5H,1-3H2,(H2,7,9)	InChI=1S/C6H10N2O/c7-6(9)4-3-5(4)8-1-2-8/h4-5H,1-3H2,(H2,7,9)/t4-,5+/m0/s1
