15
gdb 33612	5.19934	1.31158	1.299	5.1013	74.24	-0.2549	-0.0007	0.2542	973.1731	0.114891	-379.595132	-379.588917	-379.587972	-379.625702	25.119	
N	-0.1488054184	-1.1282944269	-0.0986615523	-0.351574
C	-0.0805613015	 0.0249740901	-0.0268307032	 0.12765
C	 0.051020312	 1.4346757939	 0.0846613487	 0.31255
C	-0.7027124918	 2.473532945	 0.8440205311	-0.106265
C	 0.5321564623	 3.3650431976	 1.084611985	-0.067773
C	 0.4406147278	 4.4760796948	 0.0095563477	-0.245101
C	 0.4446606695	 3.2931450582	-0.9703798696	 0.014068
C	 1.2511026793	 2.4200255283	 0.0368492846	-0.145391
N	-0.7896413963	 2.4474469886	-0.6477087347	-0.177814
H	-1.6209111499	 2.3753175183	 1.4081836789	 0.121814
H	 0.8814905575	 3.5256110615	 2.1015027933	 0.091551
H	-0.4205079304	 5.1491964614	 0.0144938967	 0.116566
H	 1.3707893694	 5.0478392485	-0.0589904742	 0.116143
H	 0.629047067	 3.3766562823	-2.0390428908	 0.094947
H	 2.3133630636	 2.1985897583	 0.0178552288	 0.098628
142.9612	156.3707	398.0316	465.3362	497.9555	549.1105	611.1798	716.732	756.3043	801.9017	819.3981	841.0742	864.8544	881.68	918.7409	941.6063	984.8777	1003.1851	1037.1318	1051.2191	1077.4642	1098.0779	1116.2829	1171.9144	1196.8122	1211.4521	1238.32	1250.9924	1271.5044	1281.7827	1389.1626	1482.1106	2346.4555	3059.0525	3119.6922	3145.7991	3152.3983	3175.605	3206.6081
N#CC12C3C4CC(C14)N23	N#C[C@@]12[C@H]3[C@@H]4C[C@@H]([C@H]14)N23	
InChI=1S/C7H6N2/c8-2-7-5-3-1-4(5)9(7)6(3)7/h3-6H,1H2	InChI=1S/C7H6N2/c8-2-7-5-3-1-4(5)9(7)6(3)7/h3-6H,1H2/t3-,4+,5-,6-,7+,9?/m1/s1
