21
gdb 114064	2.76205	1.13855	0.95463	2.0348	78.81	-0.2196	0.0664	0.2859	1326.2222	0.179861	-424.192077	-424.181921	-424.180977	-424.228753	37.345	
C	 0.0272208465	 1.5756034404	-0.0295125727	-0.378124
C	 0.0071504531	 0.0579463783	 0.1817005284	-0.201866
C	-1.379910972	-0.553635491	 0.0054238591	-0.02159
C	-2.0320355827	-0.6070307619	-1.4299800668	-0.297292
C	-2.2310404059	-2.1087379874	-1.2640412912	 0.378499
O	-3.3802161837	-2.7156730836	-1.7374302884	-0.466403
C	-0.8981840399	-2.7917826105	-1.0723210149	-0.422256
C	-1.5586389859	-2.0745841257	 0.0985170681	 0.279822
O	-1.9299020119	-2.7534373779	 1.2486750098	-0.465668
H	 1.0329808964	 1.9845375674	 0.1087582761	 0.110964
H	-0.3032052882	 1.8402752197	-1.0397291365	 0.11974
H	-0.6389055917	 2.0816963098	 0.6781224969	 0.114629
H	 0.7126105058	-0.4173098426	-0.5118263267	 0.093352
H	 0.3705410333	-0.1734524311	 1.1922449257	 0.090264
H	-2.0828344235	-0.0770870987	 0.6980462464	 0.079055
H	-2.9773498889	-0.0642032895	-1.4850147957	 0.112294
H	-1.3918539559	-0.304267545	-2.2650903512	 0.095685
H	-3.5100340557	-3.5378509781	-1.2520303078	 0.288505
H	-0.9733432682	-3.8732196307	-0.9874657716	 0.102428
H	 0.0171566958	-2.4411290583	-1.5463979539	 0.102515
H	-1.1333248268	-3.0590801636	 1.6966319369	 0.285445
9.8967	88.8438	128.7448	154.4071	204.3818	238.4813	290.5269	315.4602	340.3006	383.9556	452.9495	465.017	560.8207	620.7796	691.7145	767.322	775.8358	816.1782	861.006	932.0604	950.1562	963.6315	978.9753	1035.3693	1061.7511	1105.0845	1109.8848	1135.3006	1164.2229	1198.3046	1212.3987	1233.9205	1269.2564	1294.2767	1319.9289	1338.446	1386.2901	1403.3475	1412.2093	1423.7896	1476.8466	1484.5677	1499.4852	1506.6806	1523.9928	3012.0594	3030.1917	3035.794	3049.2131	3052.6818	3087.7645	3097.445	3101.7341	3118.3904	3181.2126	3787.5404	3809.1394
CCC1CC2(O)CC12O	CC[C@H]1C[C@@]2(O)C[C@@]12O	
InChI=1S/C7H12O2/c1-2-5-3-6(8)4-7(5,6)9/h5,8-9H,2-4H2,1H3	InChI=1S/C7H12O2/c1-2-5-3-6(8)4-7(5,6)9/h5,8-9H,2-4H2,1H3/t5-,6+,7+/m0/s1
