16
gdb 34538	3.99374	1.19646	1.01385	4.6712	78.36	-0.2447	-0.0465	0.1982	1141.7461	0.126138	-400.75088	-400.743533	-400.742589	-400.782757	28.408	
N	 0.0379740538	-1.1545784401	 0.0876600002	-0.335339
C	-0.0145316072	 0.0025347484	 0.0397993292	 0.215784
C	-0.0254556282	 1.4240563952	-0.0106422078	 0.102639
C	-1.1700481774	 2.1292241544	 0.0420419727	-0.105343
C	-1.1643323442	 3.5978177495	 0.0017797458	-0.123037
C	-0.2805557792	 4.3547691017	 1.0122230415	-0.33438
C	 0.1631538722	 4.2118634231	-0.4055813874	 0.133949
O	 1.1969666366	 3.374132753	-0.816458098	-0.247603
C	 1.3124834477	 2.1309998675	-0.1423194168	-0.183298
H	-2.1227783459	 1.6120258448	 0.0896170428	 0.123273
H	-2.0844175061	 4.0791115953	-0.3081194571	 0.104579
H	-0.6271494477	 5.3292015312	 1.3376880655	 0.129888
H	 0.1887761194	 3.7620749203	 1.7882489425	 0.135833
H	 0.1432220773	 5.0874183156	-1.0440422043	 0.119578
H	 1.7784381369	 2.2659347015	 0.8462714059	 0.12051
H	 1.999844072	 1.5302611186	-0.7432636647	 0.142968
102.6409	158.7639	214.9433	279.7066	403.034	425.9268	457.3659	551.3693	571.8521	590.0802	673.107	757.2214	795.1538	861.2944	882.6278	907.2694	967.3339	1014.7391	1028.9175	1043.8297	1054.7025	1095.9784	1119.3188	1183.567	1198.8601	1232.859	1274.874	1343.3059	1375.6745	1384.3224	1423.3699	1476.0123	1505.0653	1678.7345	2329.8033	2980.5895	3096.6261	3143.8627	3173.8341	3185.148	3189.9927	3234.3878
N#CC1=CC2CC2OC1	N#CC1=C[C@H]2C[C@H]2OC1	
InChI=1S/C7H7NO/c8-3-5-1-6-2-7(6)9-4-5/h1,6-7H,2,4H2	InChI=1S/C7H7NO/c8-3-5-1-6-2-7(6)9-4-5/h1,6-7H,2,4H2/t6-,7+/m0/s1
