20
gdb 13505	3.03438	1.6282	1.17779	2.26	70.68	-0.241	0.0652	0.3061	1064.0558	0.175479	-386.124	-386.114827	-386.113883	-386.158104	33.366	
C	-0.026494919	 1.5799930737	-0.0624608401	-0.407634
C	 0.0248273724	 0.0525231299	 0.0032397181	 0.119901
O	 0.8181602142	-0.3912091323	 1.1039026058	-0.432689
C	-1.3699921975	-0.5642022658	 0.0532433044	-0.060782
C	-2.2392016086	-0.4812867377	-1.2201476677	-0.089964
O	-2.3280868827	-1.912651452	-1.3184752381	-0.291518
C	-1.5298207728	-2.1031051914	-0.1204414032	 0.141463
C	-0.3172695203	-2.9789301924	-0.3692120119	-0.39524
H	 0.9863194828	 1.9910780588	-0.0809570684	 0.127169
H	-0.5570016197	 1.9257722376	-0.955626236	 0.121913
H	-0.5470025448	 1.9883301762	 0.8132191285	 0.106298
H	 0.5550472976	-0.320141323	-0.8808487792	 0.093254
H	 0.4222512384	-0.0381873843	 1.908788043	 0.275787
H	-1.883286005	-0.1908254985	 0.9470733445	 0.062567
H	-3.222747177	-0.0106549329	-1.0974993347	 0.097826
H	-1.7484686238	-0.0395708735	-2.0989989723	 0.095104
H	-2.1451687893	-2.5487703824	 0.6737066016	 0.070861
H	 0.2871971491	-2.5981555968	-1.197013979	 0.117014
H	 0.3102530454	-3.0249960533	 0.5247346433	 0.130778
H	-0.6432389594	-3.9909094199	-0.6292448786	 0.117892
41.3769	102.2439	157.5423	221.0916	240.295	261.8018	277.4398	344.857	352.3261	413.2801	477.3905	547.6328	759.1191	785.6228	879.5677	893.7513	920.0608	983.8435	1018.8145	1028.2665	1050.4875	1084.0658	1093.0637	1105.4456	1161.727	1165.9439	1197.2757	1255.5854	1262.2538	1296.3248	1331.5029	1363.1911	1387.5826	1402.9776	1403.6007	1408.5711	1417.3952	1478.8676	1492.2254	1495.2502	1501.2103	1526.5115	2992.7999	2999.0232	3024.0637	3028.0847	3041.0053	3045.6399	3053.9321	3094.9115	3115.0184	3119.4008	3130.1998	3794.7435
CC(O)C1COC1C	C[C@@H](O)[C@H]1CO[C@H]1C	
InChI=1S/C6H12O2/c1-4(7)6-3-8-5(6)2/h4-7H,3H2,1-2H3	InChI=1S/C6H12O2/c1-4(7)6-3-8-5(6)2/h4-7H,3H2,1-2H3/t4-,5+,6-/m1/s1
