18
gdb 114784	3.54721	1.44568	1.37905	1.4806	70.61	-0.2375	0.0759	0.3134	1005.5153	0.149054	-439.025678	-439.01837	-439.017426	-439.057495	28.513	
C	-0.0442341709	 1.4403940019	-0.0244963849	-0.243387
O	-0.0847957297	 0.023636074	-0.0609724275	-0.234777
C	 0.6753155817	-0.5293196297	-1.0954271097	 0.207519
O	 2.0801707367	-0.3430170898	-0.9140919463	-0.275994
C	 2.5979707871	-1.5870312661	-0.4565682933	 0.044049
C	 1.8775373487	-2.0637692474	 0.8262924803	-0.16523
N	 0.9011763321	-2.8768949978	 0.0163091523	-0.155974
C	 1.7929697812	-2.6903756906	-1.1860176363	-0.05728
C	 0.4764881696	-2.03642989	-1.1423437652	-0.083149
H	 0.9699324262	 1.807229433	 0.1715972707	 0.127953
H	-0.3991795402	 1.8720780412	-0.9725443378	 0.107342
H	-0.7091319774	 1.7575019013	 0.7813521019	 0.129402
H	 0.4085078094	-0.0461806128	-2.0488597667	 0.075193
H	 3.6855760444	-1.5526207872	-0.4932420114	 0.088082
H	 2.4789800312	-2.7562292853	 1.4206454758	 0.107723
H	 1.4325523599	-1.293679148	 1.4588312903	 0.121558
H	 2.1151424386	-3.4946957555	-1.8357105661	 0.098612
H	-0.3843202387	-2.4354016313	-1.664882906	 0.108357
108.8229	154.6266	183.2446	251.4743	359.9125	439.6532	509.1312	562.7089	663.1779	710.7939	777.7262	817.3554	850.2763	874.6589	912.0256	941.6059	967.0868	990.2524	1014.0824	1034.4962	1050.5225	1070.9797	1121.9393	1142.2569	1180.6016	1185.0637	1192.8706	1222.2439	1232.514	1270.5977	1300.4477	1328.3364	1367.784	1388.0016	1400.1994	1476.0822	1485.0749	1491.5775	1512.8958	2978.4922	2992.8855	3065.7607	3065.9347	3128.5081	3130.9372	3135.6534	3186.9418	3198.7778
COC1OC2CN3C2C13	CO[C@H]1O[C@H]2CN3[C@H]2[C@H]13	
InChI=1S/C6H9NO2/c1-8-6-5-4-3(9-6)2-7(4)5/h3-6H,2H2,1H3	InChI=1S/C6H9NO2/c1-8-6-5-4-3(9-6)2-7(4)5/h3-6H,2H2,1H3/t3-,4+,5+,6-,7?/m0/s1
