21
gdb 58426	2.05168	1.33463	1.21127	1.6881	74.85	-0.2341	0.0686	0.3027	1203.3908	0.178993	-461.340855	-461.330158	-461.329213	-461.375734	39.914	
C	 0.6014434501	 0.075877096	-1.2798461007	-0.417931
C	-0.1093916393	 0.1902534074	 0.0681385955	 0.065972
O	-0.4096001694	 1.5611030613	 0.3760908571	-0.461367
C	-1.4679856098	-0.4843536442	 0.0644330298	 0.413852
O	-2.3806563744	 0.1491768931	-0.7913971842	-0.484723
C	-1.6615825962	-1.9753330088	 0.163543631	-0.11449
C	-0.525721643	-2.9702395499	 0.2676034553	-0.428504
C	-2.0299464601	-1.0707598841	 1.3356451569	-0.012863
O	-1.2120081272	-1.0488466312	 2.4709694099	-0.416975
H	 1.5190210347	 0.6765173511	-1.2875793042	 0.09912
H	 0.8848419751	-0.9603657858	-1.4854926213	 0.123496
H	-0.0552780529	 0.4230771263	-2.0815794263	 0.133843
H	 0.5073615203	-0.2382050694	 0.8663628162	 0.088137
H	 0.3706781015	 2.089603726	 0.1844081422	 0.284225
H	-2.3063797838	 1.0904798731	-0.5821060086	 0.286551
H	-2.5154867946	-2.3173911831	-0.415656718	 0.097267
H	 0.2595758548	-2.6210532018	 0.9423176678	 0.127141
H	-0.8903094202	-3.9287519441	 0.6548003436	 0.113162
H	-0.073089274	-3.1667681386	-0.7098146118	 0.123508
H	-3.0885288438	-0.888167128	 1.5160413862	 0.090888
H	-1.3545097779	-1.8676258354	 2.9580190737	 0.28969
89.6802	130.4083	165.6728	171.8129	222.0966	229.918	246.5167	274.1837	291.5088	300.7166	325.5259	402.5479	456.803	504.3594	538.1057	565.298	616.3495	730.9551	807.2466	884.7329	898.1683	954.7827	1022.011	1026.7269	1051.6252	1082.2431	1113.7036	1125.8927	1143.8992	1161.4546	1213.0504	1237.3389	1271.9815	1305.3273	1353.827	1371.7385	1378.3936	1403.6314	1411.3775	1420.7856	1482.1713	1489.4062	1497.1203	1504.3673	1514.7447	3029.8402	3031.5505	3043.7602	3085.8338	3099.4449	3110.3369	3117.4882	3129.6952	3147.4377	3757.0712	3796.0264	3829.9796
CC(O)C1(O)C(C)C1O	C[C@@H](O)[C@@]1(O)[C@@H](C)[C@H]1O	
InChI=1S/C6H12O3/c1-3-5(8)6(3,9)4(2)7/h3-5,7-9H,1-2H3	InChI=1S/C6H12O3/c1-3-5(8)6(3,9)4(2)7/h3-5,7-9H,1-2H3/t3-,4+,5+,6-/m0/s1
