22
gdb 31504	3.02674	1.0362	0.82668	1.6797	92.84	-0.1817	0.0504	0.2321	1498.4868	0.193411	-367.273576	-367.26305	-367.262106	-367.310066	37.685	
C	 0.2968590809	 1.5310460392	 0.2289755822	-0.363761
C	-0.0961485109	 0.0801283613	-0.1058941326	-0.299627
C	 0.549912389	-0.4545696738	-1.3447440921	 0.318512
C	 0.0310661181	-0.7561253771	-2.5815549897	-0.326247
C	 1.0935090804	-1.2165513289	-3.4208937122	 0.219735
C	 0.9546541694	-1.6497208429	-4.850024666	-0.505908
C	 2.2472107454	-1.1829387647	-2.6632988012	 0.20736
C	 3.6609029201	-1.5446223699	-2.9819820154	-0.509034
N	 1.9000428241	-0.7176119503	-1.41068468	-0.3519
H	 1.3761579812	 1.6263994686	 0.3894219537	 0.106419
H	 0.0254036996	 2.2040929015	-0.5896916627	 0.124726
H	-0.2063372158	 1.8740178519	 1.1388580757	 0.109922
H	 0.1401014557	-0.5627245642	 0.754154764	 0.097869
H	-1.1810363701	 0.0195223722	-0.2389302068	 0.113102
H	-1.0081202659	-0.6600265325	-2.8625855852	 0.079624
H	 0.5771119206	-0.8389570352	-5.4851520519	 0.120261
H	 1.9097343554	-1.9740355191	-5.2731641865	 0.113143
H	 0.2527923661	-2.4861859207	-4.9535445592	 0.120377
H	 4.3413380797	-0.6888003067	-2.8810667022	 0.121776
H	 4.0428691288	-2.3409925035	-2.3296285443	 0.121287
H	 3.7409040764	-1.9026118571	-4.0104894035	 0.135318
H	 2.544874532	-0.6022349181	-0.6478447042	 0.247045
45.2828	46.7948	103.0416	115.9326	192.6774	217.2885	251.3792	273.1443	290.3731	380.5348	445.2745	459.3782	580.9001	626.9883	655.3203	686.8982	767.214	781.1801	797.6816	951.2991	984.0124	993.0648	1033.7987	1054.7875	1064.7186	1070.7044	1083.0401	1165.2622	1176.8085	1244.0156	1284.5744	1316.0325	1355.5753	1405.3868	1407.7773	1424.9384	1444.6064	1472.3587	1479.666	1481.4961	1483.7437	1495.5073	1499.126	1500.2104	1504.7845	1560.9457	1653.8821	3003.3913	3008.9404	3019.8574	3032.8075	3048.7153	3063.3272	3071.924	3101.1085	3102.0222	3112.6464	3123.3861	3230.1067	3670.1088
CCC1=CC(C)=C(C)N1	CCc1cc(C)c(C)[nH]1	
InChI=1S/C8H13N/c1-4-8-5-6(2)7(3)9-8/h5,9H,4H2,1-3H3	InChI=1S/C8H13N/c1-4-8-5-6(2)7(3)9-8/h5,9H,4H2,1-3H3
