15
gdb 54887	2.84537	1.57726	1.03203	2.8025	68.6	-0.2531	-0.0331	0.22	1083.0165	0.114864	-450.179821	-450.172081	-450.171136	-450.212389	28.971	
N	-0.0925678425	 1.3799640014	-0.0697441527	-0.548256
C	 0.087192934	 0.0025539771	 0.0559450563	 0.418969
N	 1.2338630694	-0.510885155	 0.211769428	-0.526198
N	-1.1450866355	-0.7074975517	 0.0453382254	-0.188563
C	-2.4371962085	-0.1702466816	 0.1907494466	 0.078535
N	-3.4040175572	-0.9981021488	 0.1524395582	-0.257727
C	-2.8008453807	-2.3159412368	-0.037279537	-0.288256
C	-1.287460184	-2.1064329896	-0.064854924	 0.405591
O	-0.3980398674	-2.9154263673	-0.1487147657	-0.352593
H	 0.8095232978	 1.8367580935	-0.1167401405	 0.267675
H	-0.6909224113	 1.6652055716	-0.8350268749	 0.254273
H	 1.1736818999	-1.5145253875	 0.3679446257	 0.253213
H	-2.545680769	 0.8955442321	 0.3484334303	 0.159908
H	-3.0805819766	-2.997481765	 0.7728468766	 0.162507
H	-3.1412005485	-2.7748105925	-0.9723186524	 0.160921
77.7336	125.9456	202.6093	228.4333	373.9671	401.7352	461.2236	467.276	533.4415	593.119	642.7309	659.8573	707.4575	793.5676	880.331	898.6053	935.6896	981.033	1001.6495	1032.7315	1114.7586	1165.0282	1185.8252	1204.5216	1259.3202	1293.4483	1365.5653	1417.7316	1435.279	1624.6612	1683.758	1744.03	1847.8365	3056.0591	3092.2757	3225.5221	3529.0799	3537.355	3638.309
NC(=N)N1C=NCC1=O	NC(=N)N1C=NCC1=O	
InChI=1S/C4H6N4O/c5-4(6)8-2-7-1-3(8)9/h2H,1H2,(H3,5,6)	InChI=1S/C4H6N4O/c5-4(6)8-2-7-1-3(8)9/h2H,1H2,(H3,5,6)
