19
gdb 115454	3.34907	1.09363	0.98125	2.3185	72.4	-0.2468	-0.024	0.2228	1265.0518	0.158111	-460.17394	-460.164849	-460.163905	-460.20871	32.306	
C	 0.3477884066	 1.042713572	 0.3692017549	-0.24364
O	-0.0555580473	-0.2987008481	 0.1606145192	-0.24595
C	-1.4143068082	-0.4358816275	-0.154154009	 0.237367
C	-1.7055858446	-1.9201808928	-0.356662965	-0.254661
C	-1.9807337879	-2.3818930662	 1.0829594818	-0.266191
C	-2.7061358823	-1.1414347073	 1.6602778253	 0.028001
O	-2.2467978209	-0.0233140304	 0.9222976096	-0.26004
C	-4.2133859511	-1.3097974667	 1.5155729227	 0.148827
O	-4.8913896789	-0.7743771062	 0.6811944032	-0.23578
H	 1.4208700361	 1.0262590779	 0.5715043722	 0.125289
H	 0.1616433563	 1.6580042102	-0.5242359718	 0.107176
H	-0.1772160469	 1.493363297	 1.2193323733	 0.126548
H	-1.6702253821	 0.2070512012	-1.0077946084	 0.078898
H	-2.5954459808	-2.0362636962	-0.9812129672	 0.124962
H	-0.866691779	-2.4330847254	-0.8273887956	 0.121217
H	-2.5798650342	-3.2939106382	 1.144487509	 0.111481
H	-1.0436351438	-2.5478254698	 1.618395275	 0.129108
H	-2.483697181	-1.002160669	 2.727027658	 0.096851
H	-4.64821316	-2.0250136746	 2.2548607627	 0.070537
54.4458	80.7318	120.9204	160.9335	175.4372	236.8929	304.2785	343.2684	419.1356	525.2458	625.3124	747.6623	764.157	795.6449	860.0871	902.9374	935.1103	959.6233	970.1966	1002.1738	1046.5836	1094.9147	1114.264	1140.2437	1170.8163	1181.1017	1211.0833	1229.1377	1275.1945	1313.5822	1337.9935	1352.3168	1378.0553	1398.7857	1416.6908	1477.0853	1477.9947	1483.8911	1492.7072	1514.232	1845.2078	2844.0731	2990.8312	3015.6875	3018.0133	3065.3395	3070.6074	3076.6467	3118.2365	3124.7988	3142.5777
COC1CCC(O1)C=O	CO[C@H]1CC[C@@H](O1)C=O	
InChI=1S/C6H10O3/c1-8-6-3-2-5(4-7)9-6/h4-6H,2-3H2,1H3	InChI=1S/C6H10O3/c1-8-6-3-2-5(4-7)9-6/h4-6H,2-3H2,1H3/t5-,6-/m1/s1
