12
gdb 129134	2.85222	1.58795	1.02005	3.3674	65.28	-0.2684	-0.1072	0.1612	1044.593	0.077258	-468.777188	-468.769735	-468.768791	-468.810771	25.873	
N	-0.1540052313	 1.2683781044	-0.0896318632	-0.503109
C	-0.0347103483	 0.0056088661	 0.0308928829	 0.30181
N	 1.1950438035	-0.6681652845	 0.1306083002	-0.313613
C	 1.1425913359	-1.9328461886	 0.2460538406	 0.170041
O	 0.0468096067	-2.7208435252	 0.2856995726	-0.209451
N	-1.2161153687	-2.1274538429	 0.1924359906	-0.107431
C	-1.2382203876	-0.8472388048	 0.0732692355	 0.216583
C	-2.6180588637	-0.2196468499	-0.0266864482	 0.120808
O	-3.6357978483	-0.8571298242	 0.0008949233	-0.226063
H	 0.7733978578	 1.6989655643	-0.1013293647	 0.23837
H	 2.0368722075	-2.5461322621	 0.3299621357	 0.167045
H	-2.5879394534	 0.8780889373	-0.1268222954	 0.14501
33.8086	58.5062	212.837	266.4803	367.7862	406.9423	466.93	487.6858	570.6672	649.2495	774.3538	791.7328	910.2619	926.5531	941.5456	984.6367	1006.5503	1038.8405	1145.2868	1188.9379	1368.4928	1397.3054	1426.048	1615.9621	1685.594	1712.4624	1825.3503	3010.0694	3178.6175	3462.8159
N=C1N=CON=C1C=O	[NH][C]1N=CON=C1C=O	
InChI=1S/C4H3N3O2/c5-4-3(1-8)7-9-2-6-4/h1-2,5H	InChI=1S/C4H3N3O2/c5-4-3(1-8)7-9-2-6-4/h1-2,5H
