16
gdb 130057	5.90127	0.91431	0.8049	1.6388	78.48	-0.1987	0.0287	0.2274	1367.2048	0.124934	-396.908119	-396.899542	-396.898598	-396.942069	31.705	
N	 0.4433152947	 1.3270686768	-0.7515475695	-0.588228
C	 0.1647002986	 0.0609663161	-0.2380955157	 0.38341
N	-0.9682813586	-0.5643109534	-0.5497860595	-0.347898
N	-0.9463361403	-1.7012262291	 0.1974703221	 0.032973
C	-2.0112679548	-2.6678673927	-0.0092994502	-0.267848
C	-2.133685526	-3.6223749087	 1.0848769111	 0.280669
C	-2.2449071117	-4.4299218521	 1.9665390324	-0.427863
C	 0.1808383642	-1.809705278	 0.9356150589	 0.003609
C	 0.9331203871	-0.6801356125	 0.6934279937	-0.319745
H	 1.4216446788	 1.4656309705	-0.9644192485	 0.244702
H	-0.1300389689	 1.5371240013	-1.5584420935	 0.248856
H	-2.939698993	-2.0992095092	-0.1272093887	 0.162331
H	-1.849256737	-3.2066148738	-0.9535273178	 0.150298
H	-2.3511442905	-5.1377132759	 2.751438918	 0.207274
H	 0.348856467	-2.6593415739	 1.5772407844	 0.140382
H	 1.8767472803	-0.4141613053	 1.1411743429	 0.097077
29.9414	111.5003	160.4337	253.6673	280.2829	314.9258	329.2794	411.3163	482.6719	601.0726	621.5097	668.4597	682.6033	707.7868	741.5152	765.4434	777.2037	832.4241	965.4551	993.1709	1010.5142	1023.9673	1073.0682	1128.5052	1227.0475	1254.9822	1293.5303	1366.7969	1427.0597	1469.665	1501.0625	1534.4574	1592.9927	1648.3912	2248.4809	3007.2519	3069.8908	3260.1163	3279.367	3503.5795	3545.785	3642.5183
NC1=NN(CC#C)C=C1	Nc1nn(CC#C)cc1	
InChI=1S/C6H7N3/c1-2-4-9-5-3-6(7)8-9/h1,3,5H,4H2,(H2,7,8)	InChI=1S/C6H7N3/c1-2-4-9-5-3-6(7)8-9/h1,3,5H,4H2,(H2,7,8)
