15
gdb 7714	3.37846	1.95563	1.2884	0.6148	64.38	-0.2378	-0.0169	0.2209	898.0369	0.122228	-396.023192	-396.016292	-396.015348	-396.054556	26.062	
N	-0.0821976331	 1.3279280666	-0.1266764279	-0.508497
C	-0.0228567058	 0.0655938725	 0.0106234559	 0.376203
C	-1.292767641	-0.7632051775	 0.1104912625	-0.229084
N	-1.1597684857	-1.9649958171	 0.9260287245	-0.289781
C	-0.0526256969	-2.7945490659	 0.4698200024	-0.28593
C	 1.2713189582	-2.0607954248	 0.2579562228	 0.389105
O	 2.351915022	-2.6056397152	 0.2445487086	-0.345641
N	 1.1543169685	-0.6884521497	 0.0737948406	-0.362378
H	 0.8456486486	 1.7500580527	-0.2120612205	 0.208335
H	-2.0852092162	-0.1209884287	 0.496698768	 0.144378
H	-1.5858762646	-1.0668014471	-0.9040652064	 0.13477
H	-1.012839641	-1.7032945245	 1.8959196703	 0.230903
H	 0.1345963728	-3.6084035859	 1.1735719056	 0.144453
H	-0.3227854666	-3.26078077	-0.488184214	 0.142982
H	 2.0392811707	-0.2049263655	-0.0263727423	 0.25018
96.1004	123.3385	273.571	364.7162	446.6084	458.1798	515.5918	531.4659	597.9868	660.551	694.7288	787.9165	871.2023	886.9884	915.1752	943.3648	992.1167	1091.0796	1132.103	1164.9322	1203.2858	1300.0291	1324.3752	1334.9949	1363.5981	1388.9569	1416.2718	1454.4119	1466.9237	1492.4214	1737.398	1812.8017	3021.1828	3022.8091	3115.63	3130.0666	3437.1147	3516.7666	3565.089
N=C1CNCC(=O)N1	[NH][C]1CNCC(=O)N1	
InChI=1S/C4H7N3O/c5-3-1-6-2-4(8)7-3/h6H,1-2H2,(H2,5,7,8)	InChI=1S/C4H7N3O/c5-3-1-6-2-4(8)7-3/h6H,1-2H2,(H2,5,7,8)
