19
gdb 41669	2.74327	2.02465	1.5968	1.3579	78.18	-0.2239	0.0213	0.2452	909.1913	0.163238	-385.883994	-385.87743	-385.876486	-385.914649	27.684	
C	-0.0559927101	 1.4421307228	-0.0994928167	-0.06191
C	 1.329367028	 2.096415457	 0.0926155645	-0.230906
C	 2.4834778161	 1.1043146222	-0.2439542655	-0.060701
C	 2.8397546975	 0.2289598542	 0.945349256	-0.079953
C	 2.6097076225	-1.0639065703	 0.7174382432	-0.060337
C	 2.0466520087	-1.2832433106	-0.6403008012	-0.135392
C	 0.7437306358	-0.5626869436	-0.9738954648	 0.096691
O	-0.0159729703	 0.0209315854	 0.0342668215	-0.24317
C	 2.0532142209	 0.0853075984	-1.3140011948	-0.13319
H	-0.76774492	 1.7904194814	 0.6528878976	 0.107581
H	-0.4623421878	 1.7015057041	-1.0880494999	 0.089354
H	 1.3960156336	 2.9822086414	-0.5482920863	 0.096707
H	 1.4486294554	 2.4460118394	 1.123181552	 0.101561
H	 3.3527175989	 1.6839372176	-0.5745482983	 0.077421
H	 3.1760794302	 0.6559896994	 1.8841477195	 0.089548
H	 2.7541921323	-1.8681871193	 1.4290081583	 0.095394
H	 2.257439579	-2.1941846025	-1.1894874685	 0.08399
H	 0.1521023661	-0.9893413767	-1.7839410506	 0.083109
H	 2.3470320132	 0.2259846397	-2.347136296	 0.084203
137.6865	231.0724	303.2349	386.4998	452.9572	547.7723	609.8585	656.8008	755.0088	763.8604	782.7607	786.5635	795.5447	844.6147	918.2551	919.418	935.7943	954.9344	997.9863	1019.5421	1028.0906	1048.7992	1069.0522	1084.0398	1100.3519	1119.2132	1137.1037	1197.0529	1234.0977	1261.2531	1296.4914	1306.5589	1309.6953	1341.4273	1361.4422	1384.1914	1393.9367	1421.1552	1492.6449	1510.3513	1674.5234	2992.7805	3029.1792	3043.6135	3075.6178	3097.1316	3099.8853	3168.7272	3179.8332	3183.1604	3211.4559
C1CC2C=CC3C(O1)C23	C1C[C@H]2C=C[C@H]3[C@@H](O1)[C@@H]23	
InChI=1S/C8H10O/c1-2-6-7-5(1)3-4-9-8(6)7/h1-2,5-8H,3-4H2	InChI=1S/C8H10O/c1-2-6-7-5(1)3-4-9-8(6)7/h1-2,5-8H,3-4H2/t5-,6-,7+,8-/m1/s1
