17
gdb 30065	3.0542	1.40591	1.0191	2.7316	74.88	-0.2257	0.0188	0.2445	1142.8812	0.137337	-418.016316	-418.00809	-418.007146	-418.050212	29.366	
C	-0.2809457635	 1.4904346622	-0.0333013822	-0.346179
N	-0.0833234974	 0.053687494	-0.0043877087	-0.055853
C	-0.096170574	-0.7965085791	-1.068235241	 0.00127
N	 0.152661618	-2.0405386112	-0.7228790473	-0.272647
C	 0.3453843312	-1.9963381896	 0.6341963548	-0.164005
C	 0.2093751408	-0.7140355863	 1.1105972716	 0.290566
C	 0.2877474455	-0.1408337245	 2.4646566377	-0.096682
C	 1.3271424548	-0.5662712694	 3.4109186988	-0.159388
O	 1.4272612093	 0.6976127082	 2.7627582248	-0.232273
H	 0.5564855336	 1.9971510282	 0.4523881146	 0.168963
H	-0.3432628711	 1.8173971885	-1.0726744476	 0.144344
H	-1.2077349724	 1.7728805928	 0.4769151749	 0.141721
H	-0.2858000494	-0.4426291905	-2.0716694014	 0.126811
H	 0.5640092546	-2.8873556388	 1.2039438277	 0.109402
H	-0.6380924647	 0.2559139004	 2.884988385	 0.102941
H	 1.1219147202	-0.5317368985	 4.4797702212	 0.116333
H	 2.0550280444	-1.3117400366	 3.0968424271	 0.124677
41.2431	104.6261	146.4382	165.9902	208.4438	311.1691	403.2651	495.7849	610.0237	675.0088	702.4318	737.6054	818.4643	829.8611	862.0093	909.7007	942.2906	1012.4377	1078.9848	1092.7752	1150.2193	1153.2598	1158.7305	1162.4932	1204.0477	1259.7645	1288.8936	1302.7892	1380.979	1393.7724	1439.1883	1453.7945	1482.847	1512.6803	1521.8819	1531.0849	1600.7133	3042.4418	3086.0431	3091.5446	3110.6922	3143.981	3179.1886	3239.8545	3244.3761
CN1C=NC=C1C1CO1	Cn1cncc1[C@H]1CO1	
InChI=1S/C6H8N2O/c1-8-4-7-2-5(8)6-3-9-6/h2,4,6H,3H2,1H3	InChI=1S/C6H8N2O/c1-8-4-7-2-5(8)6-3-9-6/h2,4,6H,3H2,1H3/t6-/m1/s1
