19
gdb 94761	3.70397	1.13478	1.00597	1.631	82.37	-0.2384	0.0452	0.2836	1216.2488	0.159192	-385.857391	-385.84885	-385.847906	-385.890158	33.693	
O	-0.0639353012	 1.4455915023	 0.0230176581	-0.436169
C	-0.0035967603	 0.0260901711	 0.0059337323	 0.125563
C	 0.6753740252	-0.5841216033	 1.2564205525	-0.282769
C	 0.0104804426	-1.9588112627	 1.4591098922	-0.282243
C	-1.402172594	-1.802451432	 0.8799738128	 0.184916
C	-2.1637801131	-0.5523106248	 1.2921963224	-0.320764
C	-1.4036685587	-0.5551201736	-0.0025259128	-0.071778
C	-2.1298228632	-2.9851281366	 0.5288308846	 0.170574
C	-2.7202676215	-3.9952537236	 0.2468226918	-0.396108
H	 0.8352397929	 1.7818389906	-0.0465056422	 0.281707
H	 0.5153652262	-0.3169205932	-0.9033497565	 0.068174
H	 1.7611761723	-0.6576896111	 1.1474282655	 0.095894
H	 0.4811309614	 0.0800447016	 2.1043480118	 0.114399
H	 0.5349061017	-2.7339577078	 0.8907139632	 0.112579
H	 0.0013209015	-2.2763434129	 2.5066402636	 0.107872
H	-3.2434996599	-0.6078266749	 1.2248921966	 0.124919
H	-1.7955142166	 0.0313795092	 2.1286559003	 0.121371
H	-1.9622125538	-0.5436846241	-0.9304503646	 0.0986
H	-3.2480369215	-4.8812409141	-0.0046688617	 0.183264
103.2792	141.844	167.0183	259.9877	268.8022	328.9275	398.2537	448.8267	525.5637	534.6608	563.2133	582.0797	598.5504	643.7118	680.0644	816.6158	844.8679	895.8489	920.0902	963.4928	981.464	987.5526	1040.0916	1045.1996	1069.34	1099.4827	1123.9864	1183.7693	1216.8974	1239.2674	1249.8677	1265.0952	1310.8832	1328.3529	1358.438	1402.5287	1432.235	1481.6259	1495.0485	1511.839	2233.9689	2970.0253	3045.3997	3055.0064	3081.7829	3100.7305	3142.2349	3188.4427	3230.5524	3504.6488	3815.5427
OC1CCC2(CC12)C#C	O[C@H]1CC[C@]2(C[C@@H]12)C#C	
InChI=1S/C8H10O/c1-2-8-4-3-7(9)6(8)5-8/h1,6-7,9H,3-5H2	InChI=1S/C8H10O/c1-2-8-4-3-7(9)6(8)5-8/h1,6-7,9H,3-5H2/t6-,7-,8-/m0/s1
