13
gdb 5276	5.01203	1.62583	1.23697	2.8695	62.38	-0.261	-0.0631	0.1978	907.7086	0.095718	-398.652504	-398.645484	-398.64454	-398.684332	24.542	
C	-0.0263721947	 1.512185769	-0.073483052	-0.489313
C	-0.0246208683	 0.0028089041	 0.0528780102	 0.296407
O	-0.0397654253	-0.5738981451	 1.1215740688	-0.303723
C	-0.003049439	-0.7791452713	-1.1920164277	 0.234371
C	 0.0043658337	-2.1189674928	-1.4458748775	-0.153822
N	 0.0263856098	-2.3327205391	-2.8103273543	-0.25252
C	 0.0312778246	-1.1372304801	-3.3143130644	 0.077907
O	 0.0143784686	-0.1397683748	-2.4113729946	-0.170505
H	 0.860526513	 1.8522467861	-0.6186455062	 0.147719
H	-0.8971597005	 1.8478965898	-0.6465882613	 0.147704
H	-0.0432922324	 1.952001205	 0.9237320192	 0.146051
H	-0.0047462261	-2.9274363193	-0.7333229831	 0.157772
H	 0.0469004766	-0.8528628216	-4.355157847	 0.161953
84.1974	119.9442	178.4515	189.5906	372.9196	491.1162	554.6943	630.5858	661.9363	685.697	860.6433	910.5874	930.9867	940.0316	992.0544	1043.9298	1101.3735	1141.2255	1155.978	1247.1749	1300.9661	1345.1887	1384.9882	1460.5311	1471.0004	1509.9529	1606.7141	1776.8155	3043.1796	3104.8557	3160.4992	3275.3615	3282.1441
CC(=O)C1=CN=CO1	CC(=O)c1cnco1	
InChI=1S/C5H5NO2/c1-4(7)5-2-6-3-8-5/h2-3H,1H3	InChI=1S/C5H5NO2/c1-4(7)5-2-6-3-8-5/h2-3H,1H3
