18
gdb 35643	2.30053	1.48554	1.25728	4.1168	82.48	-0.2506	-0.0025	0.2481	1097.1845	0.149547	-364.832694	-364.824516	-364.823571	-364.866208	30.67	
N	 0.5798834132	-1.1833737512	 0.1896722891	-0.329276
C	 0.3269187552	-0.0578560979	 0.115494717	 0.278954
C	-0.0010258704	 1.3716789201	 0.0047279354	-0.193534
C	-0.9551961758	 1.8132455271	 1.1418074403	-0.270501
C	-0.4308978174	 1.6333211495	 2.5425898691	-0.062642
C	 0.7723437867	 1.9512701858	 3.0149131659	-0.028706
C	 1.947150149	 2.5894706943	 2.3294401461	-0.309116
C	 2.0266598914	 2.7067997553	 0.8342914097	-0.01711
C	 1.2620213831	 2.2040766997	-0.132098221	-0.089943
H	-0.559146502	 1.4774203243	-0.9343342281	 0.127356
H	-1.2065526529	 2.8648406681	 0.9556901353	 0.123729
H	-1.8876735931	 1.250253624	 1.0358451243	 0.119619
H	-1.138574716	 1.1978681151	 3.2435256746	 0.094369
H	 0.9552996067	 1.7550977446	 4.0699717425	 0.093871
H	 2.0778541003	 3.5981181543	 2.7560122628	 0.127564
H	 2.8590558784	 2.0627780435	 2.6540391428	 0.135294
H	 2.8934754521	 3.2800120547	 0.5076687311	 0.098435
H	 1.5633692614	 2.3880272186	-1.1597233666	 0.101635
37.1794	101.6471	169.8487	239.3383	328.3231	363.3754	412.782	427.9966	525.2418	567.1183	666.1661	726.5979	756.5571	805.0086	835.8787	875.4485	911.026	923.7697	958.2642	1010.6058	1019.6218	1041.9567	1078.8293	1091.6616	1237.1571	1244.293	1259.1948	1259.8734	1309.8952	1342.6728	1377.0894	1407.4968	1421.6855	1441.5342	1446.3715	1481.0408	1741.3155	1749.7201	2352.9919	2976.4245	2990.6772	3023.8619	3034.4231	3077.9297	3130.7175	3135.0374	3162.3249	3165.3696
N#CC1CC=CCC=C1	N#C[C@H]1CC=CCC=C1	
InChI=1S/C8H9N/c9-7-8-5-3-1-2-4-6-8/h1,3-4,6,8H,2,5H2	InChI=1S/C8H9N/c9-7-8-5-3-1-2-4-6-8/h1,3-4,6,8H,2,5H2/t8-/m0/s1
