21
gdb 107248	2.85455	1.40767	1.09468	3.114	82.61	-0.1925	0.072	0.2645	1190.1224	0.181581	-383.170002	-383.161029	-383.160085	-383.203362	34.963	
C	 2.6186633025	 1.6014367667	 0.4851790637	-0.397799
C	 1.3450691067	 1.4093685686	-0.3457207214	-0.304989
C	 1.4642313296	 0.4095406804	-1.4624424555	 0.30878
N	 2.1562878007	-0.8946486818	-1.3427660831	-0.355248
C	 2.562437013	 0.0725003492	-2.3990180356	-0.124671
C	 1.5495472497	-0.0232043196	-3.578229697	-0.124502
N	 0.5292011617	-1.0528688302	-3.2458254997	-0.347298
C	 0.4328911434	 0.3080099325	-2.6645577047	 0.291408
C	-0.7748898102	 1.1756018146	-2.8369241772	-0.51209
H	 2.8904925647	 0.693554727	 1.0335888949	 0.123822
H	 3.4670640191	 1.8841886802	-0.1470093516	 0.121212
H	 2.476101858	 2.3945981782	 1.2245813749	 0.119268
H	 0.5207122395	 1.109858588	 0.3164798498	 0.109731
H	 1.0503178468	 2.376729898	-0.7724244522	 0.104282
H	 2.8416474749	-0.789963041	-0.5935978924	 0.221931
H	 3.575939352	 0.4478901477	-2.4619861044	 0.089542
H	 1.7337433624	 0.286750602	-4.5993018277	 0.088258
H	-0.1209905474	-1.0674675526	-4.0338610502	 0.218915
H	-1.5950405613	 0.8575815717	-2.1819937518	 0.129317
H	-0.5555821779	 2.2244152152	-2.6094621836	 0.123381
H	-1.1362304878	 1.1312876953	-3.8703437652	 0.116751
76.1145	142.105	180.133	205.0076	231.824	289.533	315.0277	392.4085	445.3548	468.9086	549.2187	619.1121	672.1225	773.5654	789.6107	824.3787	839.5367	853.9213	893.5486	924.2879	946.0105	952.1241	992.7201	1022.797	1036.2302	1073.581	1087.5514	1109.8333	1128.7672	1158.8319	1214.1757	1258.7419	1286.8123	1300.5199	1343.4107	1371.6963	1403.8664	1407.3342	1422.8078	1441.7106	1482.6818	1486.7875	1498.9168	1500.8625	1508.1707	3009.241	3021.187	3035.5174	3040.1439	3081.8359	3092.1006	3101.9581	3109.2986	3186.1843	3196.5857	3445.337	3462.709
CCC12NC1C1NC21C	CC[C@]12N[C@H]1[C@H]1N[C@@]21C	
InChI=1S/C7H12N2/c1-3-7-5(9-7)4-6(7,2)8-4/h4-5,8-9H,3H2,1-2H3	InChI=1S/C7H12N2/c1-3-7-5(9-7)4-6(7,2)8-4/h4-5,8-9H,3H2,1-2H3/t4-,5+,6-,7+/m1/s1
