19
gdb 88703	3.30794	0.99317	0.8358	3.804	81.44	-0.2529	0.029	0.2819	1397.0693	0.159434	-382.050333	-382.041254	-382.04031	-382.084997	33.338	
C	-0.2149182613	 1.5279272346	-0.0885042976	-0.393329
C	-0.0296453868	 0.0361704397	 0.0542319385	-0.006495
N	 1.3221285227	-0.5018168846	-0.1681576034	-0.344772
C	 0.7150247465	-0.6210101504	 1.1670573215	-0.034728
C	 1.3829301868	 0.1274827509	 2.2745533553	 0.004846
C	 0.8320077247	 0.0849521623	 3.6678442224	-0.299093
C	 2.1427489845	-0.6276634845	 3.3667998355	-0.178901
C	 2.1766356639	-2.0625147592	 3.3587350222	 0.290317
N	 2.1957579704	-3.2197369151	 3.3447603358	-0.348411
H	 0.6546834098	 2.0759327094	 0.2808827429	 0.124309
H	-0.3504612826	 1.7956280209	-1.1416908862	 0.124081
H	-1.0998468682	 1.8662075953	 0.4613438924	 0.118125
H	-0.8592258419	-0.5508290966	-0.3399368183	 0.08633
H	 1.292877713	-1.3916606248	-0.6573290304	 0.237739
H	 0.3506516023	-1.6039139153	 1.4624085624	 0.102755
H	 1.8692291937	 1.0463609038	 1.9678359537	 0.111006
H	 0.8859325585	 0.9733050095	 4.2861034699	 0.131017
H	-0.0324270189	-0.5437395566	 3.8503264079	 0.139625
H	 3.053710593	-0.1673282992	 3.7330406955	 0.135581
38.5921	93.9152	146.0902	184.897	199.2066	248.7057	327.1809	389.2825	435.382	503.1586	566.5677	631.6596	769.2286	782.8664	807.1373	844.6349	863.2376	934.765	954.9888	992.4172	1005.485	1020.5796	1053.8331	1081.5909	1109.004	1119.6078	1139.5871	1164.876	1205.2504	1232.8178	1263.2456	1281.6584	1331.5403	1375.926	1404.6504	1436.2726	1475.312	1486.3486	1492.9035	1509.9863	2349.7629	3037.381	3097.8321	3099.7516	3119.5352	3129.0021	3143.0881	3172.0671	3183.0572	3233.6186	3514.0512
CC1NC1C1CC1C#N	C[C@H]1N[C@H]1[C@H]1C[C@H]1C#N	
InChI=1S/C7H10N2/c1-4-7(9-4)6-2-5(6)3-8/h4-7,9H,2H2,1H3	InChI=1S/C7H10N2/c1-4-7(9-4)6-2-5(6)3-8/h4-7,9H,2H2,1H3/t4-,5+,6+,7-/m1/s1
