17
gdb 113617	3.55946	0.66803	0.59222	3.6416	84.3	-0.2608	-0.0573	0.2035	1806.0516	0.133637	-421.78331	-421.773497	-421.772553	-421.819591	33.544	
O	-0.173646619	 1.4068968241	-0.5815905293	-0.418536
C	-0.0363127537	 0.1549179327	 0.0743287523	-0.105106
C	-1.388045345	-0.5090345303	 0.0622419273	 0.018014
C	-1.8430306957	-1.2799110954	-1.1312282353	-0.273748
C	-1.5131090652	-2.0314356555	 0.1597803801	-0.217159
C	-0.3599232675	-2.8673900714	 0.2257365754	 0.140882
C	 0.5998441854	-3.6019934809	 0.303422206	-0.001457
C	 1.7596120262	-4.4452769322	 0.3634980497	 0.016715
O	 1.8293378375	-5.4842301742	 0.982397288	-0.236276
H	 0.6607022448	 1.8787990374	-0.5019683368	 0.289912
H	 0.6969042244	-0.4900877427	-0.4322592327	 0.095334
H	 0.3032911181	 0.2825416261	 1.1139878254	 0.097266
H	-2.1518248918	 0.034848263	 0.6097893974	 0.108781
H	-2.8867063108	-1.2427058486	-1.4202207197	 0.130204
H	-1.1444596325	-1.3959795813	-1.951716258	 0.136386
H	-2.3642633658	-2.3902948732	 0.7302219006	 0.127005
H	 2.6236523905	-4.0641813376	-0.2199429903	 0.091784
47.6285	67.1668	91.9645	116.6589	161.3442	235.6864	244.1079	258.1672	374.4638	418.2132	508.1371	571.5572	633.8629	768.5589	803.8344	864.4796	905.306	936.749	971.1849	1019.4361	1067.0253	1077.9288	1080.6177	1124.2966	1169.4808	1185.8811	1236.8513	1256.8594	1282.3095	1374.5997	1404.733	1423.8567	1472.7507	1488.5091	1522.1736	1760.0152	2309.4768	2905.8105	2978.6629	3012.6932	3145.8148	3152.5037	3162.6511	3237.5978	3828.2514
OCC1CC1C#CC=O	OC[C@H]1C[C@H]1C#CC=O	
InChI=1S/C7H8O2/c8-3-1-2-6-4-7(6)5-9/h3,6-7,9H,4-5H2	InChI=1S/C7H8O2/c8-3-1-2-6-4-7(6)5-9/h3,6-7,9H,4-5H2/t6-,7-/m1/s1
