21
gdb 75349	3.14766	1.27147	0.98933	2.0149	83.87	-0.2338	0.0204	0.2542	1243.1951	0.18377	-387.088773	-387.080428	-387.079484	-387.121435	32.96	
C	 0.3232811878	 1.5669510157	 0.0372090394	-0.459824
C	-0.0054851782	 0.0938997051	-0.0287065397	 0.317698
C	 0.0189115251	-0.5423833088	-1.2068222469	-0.152435
C	-0.2889050035	-1.9951362926	-1.5159519016	-0.300962
C	-1.5465100686	-2.5126751799	-0.8361584232	 0.062456
O	-1.4525244546	-3.7512975858	-0.1173330791	-0.267454
C	-1.6268741367	-2.5389970346	 0.625145439	 0.073301
C	-0.4631647668	-2.0211431685	 1.4404505451	-0.259124
C	-0.3409000268	-0.4936089686	 1.3312429529	-0.27835
H	 1.1947895104	 1.7504547132	 0.6791717819	 0.1204
H	 0.5345245123	 1.9827716543	-0.9510077047	 0.119104
H	-0.506786055	 2.1375376423	 0.4747170299	 0.119879
H	 0.3046186438	 0.0525839101	-2.0721910082	 0.076221
H	-0.3898917282	-2.1117315087	-2.5998564525	 0.102435
H	 0.5448443506	-2.64524704	-1.226012118	 0.126708
H	-2.471693752	-2.4000815938	-1.4015707153	 0.090105
H	-2.6097535902	-2.4406950311	 1.0893551422	 0.085379
H	-0.5873615768	-2.2997024246	 2.4930595103	 0.098497
H	 0.4568997176	-2.5013439982	 1.0964444621	 0.115387
H	 0.4245461797	-0.150111612	 2.0410362871	 0.103996
H	-1.2731430299	-0.0263152834	 1.6867945093	 0.106583
88.6319	175.808	207.4786	268.6702	294.063	315.8452	341.0916	430.8371	446.4906	463.8766	592.6635	662.4508	727.8846	792.771	807.5701	847.8443	911.7764	922.2088	953.0875	1004.6095	1034.8378	1039.2177	1050.4801	1075.1114	1085.9315	1128.1984	1151.6219	1160.9736	1209.1108	1215.3249	1262.7523	1298.6831	1339.2366	1350.627	1362.232	1397.9197	1405.6111	1416.3414	1469.8513	1479.6629	1480.5289	1490.9986	1496.9699	1504.5098	1728.7157	2985.8246	3012.1818	3019.6673	3035.768	3045.6459	3056.5533	3068.7448	3085.9459	3101.0018	3111.69	3113.4523	3137.9191
CC1=CCC2OC2CC1	CC1=CC[C@H]2O[C@H]2CC1	
InChI=1S/C8H12O/c1-6-2-4-7-8(9-7)5-3-6/h2,7-8H,3-5H2,1H3	InChI=1S/C8H12O/c1-6-2-4-7-8(9-7)5-3-6/h2,7-8H,3-5H2,1H3/t7-,8+/m1/s1
