16
gdb 42834	2.64123	1.8406	1.65942	3.1143	67.6	-0.2458	-0.0094	0.2364	881.4423	0.126596	-437.857121	-437.850534	-437.849589	-437.887959	26.571	
O	 0.0872229001	 0.0106821209	-0.1628169587	-0.315937
C	 0.0235441544	 1.180860356	 0.058199136	 0.447116
C	-1.101179761	 2.23950419	 0.0472763706	-0.140871
C	-1.3733445312	 2.8237873454	 1.4401095325	-0.225116
C	-0.0667367713	 3.1507353064	 2.1433889304	 0.039928
O	 0.781015537	 2.0418680409	 2.4673669859	-0.249982
C	 1.1876722473	 2.9247362243	 1.4095796826	 0.085497
C	 1.0146643344	 2.3688359689	 0.0047364604	-0.196841
N	-0.1060686318	 3.1460795005	-0.6492636798	-0.316897
H	-2.0175460557	 2.0160869801	-0.5032441145	 0.09417
H	-1.9532596796	 3.7458939177	 1.3237856853	 0.119764
H	-1.9659149837	 2.126230611	 2.0427328599	 0.126311
H	-0.1037028456	 3.9203489141	 2.912455719	 0.102869
H	 2.0716282818	 3.5207323326	 1.6236226426	 0.103672
H	 1.9414709184	 2.2757591038	-0.5627210837	 0.091619
H	-0.1093816035	 2.9188758474	-1.6424077484	 0.234699
138.1998	203.6654	314.9608	386.9304	435.9133	479.0228	519.0183	565.1681	713.4509	771.8413	801.9277	828.7287	857.4214	869.8369	890.7397	950.2588	976.2826	994.8639	1049.5533	1062.5327	1071.8652	1091.0911	1140.7938	1145.0426	1200.1405	1216.0706	1272.441	1279.8262	1331.1185	1345.6023	1374.7782	1382.0319	1452.8384	1466.5652	1898.957	3042.1399	3087.4722	3097.5026	3111.7581	3125.5916	3144.6888	3480.5914
O=C1C2CC3OC3C1N2	O=C1[C@H]2C[C@H]3O[C@H]3[C@@H]1N2	
InChI=1S/C6H7NO2/c8-5-2-1-3-6(9-3)4(5)7-2/h2-4,6-7H,1H2	InChI=1S/C6H7NO2/c8-5-2-1-3-6(9-3)4(5)7-2/h2-4,6-7H,1H2/t2-,3-,4-,6-/m1/s1
