17
gdb 46996	2.73796	1.80082	1.41557	2.12	66.74	-0.2375	-0.0276	0.2099	942.7454	0.137924	-458.989255	-458.982047	-458.981103	-459.021515	27.625	
O	-0.0123027219	 0.0256042467	-0.521446698	-0.305388
C	-0.0443496967	 1.1332128951	-0.049270846	 0.36837
C	-1.2998614844	 1.7721549865	 0.550584248	-0.174361
O	-1.3120341581	 3.1858711888	 0.4104896129	-0.28744
C	-0.0583219508	 3.8368065052	 0.6382379377	 0.197132
C	 0.5293818472	 4.278595189	-0.710149207	-0.231399
C	 1.273919733	 3.0016110137	-1.1794765194	-0.253994
C	 1.1610892073	 2.0662664071	 0.0569513291	-0.024285
O	 0.8888963614	 2.9407064232	 1.1625552979	-0.245239
H	-2.1871260631	 1.3912698845	 0.0401409405	 0.138762
H	-1.3565964833	 1.4658238697	 1.6068809778	 0.12942
H	-0.2160284573	 4.6365630995	 1.3661313666	 0.092957
H	-0.2576732396	 4.6012522575	-1.3925400839	 0.121794
H	 1.2247488881	 5.1080592119	-0.5590529364	 0.111812
H	 0.8274437812	 2.5464467122	-2.0661800247	 0.128999
H	 2.3221991952	 3.2050822962	-1.4045673992	 0.121818
H	 2.0654396717	 1.4952427733	 0.2701130142	 0.111043
55.4162	118.923	208.2856	364.3081	422.7584	438.8625	481.2213	577.2296	622.7109	713.159	768.5874	813.9433	824.2758	898.8721	907.258	940.1193	975.4977	1014.2806	1030.0689	1045.9726	1057.8762	1125.9565	1164.6617	1211.6657	1227.2119	1255.0849	1258.0467	1277.6237	1309.5635	1322.4671	1348.7407	1364.2112	1382.3733	1472.0122	1479.1615	1504.8105	1842.0732	2987.4769	3071.0221	3079.452	3090.8263	3111.5443	3114.0432	3123.0117	3139.1193
O=C1COC2CCC1O2	O=C1CO[C@@H]2CC[C@H]1O2	
InChI=1S/C6H8O3/c7-4-3-8-6-2-1-5(4)9-6/h5-6H,1-3H2	InChI=1S/C6H8O3/c7-4-3-8-6-2-1-5(4)9-6/h5-6H,1-3H2/t5-,6+/m1/s1
