16
gdb 18171	3.77155	1.60865	1.43445	2.0997	59.79	-0.242	0.0481	0.2901	902.2791	0.130075	-420.813476	-420.805961	-420.805017	-420.845322	28.405	
O	 0.0434136391	 1.4023712612	-0.2010932508	-0.418239
C	 0.1096300872	 0.0371976077	 0.1758817895	-0.098583
C	-1.2533313899	-0.617799145	 0.0556484922	 0.116212
O	-1.7571617763	-0.640681132	-1.3266603229	-0.333761
C	-2.1446676839	-2.0159735962	-1.170188424	 0.021727
C	-0.9230913051	-2.8491055953	-1.0451520685	 0.12852
O	 0.2546406398	-2.5401523898	-1.720896053	-0.428745
C	-1.4459987761	-2.1244183407	 0.1879405502	-0.218558
H	-0.2942676299	 1.4273531477	-1.1034931179	 0.292123
H	 0.8544830428	-0.5195067625	-0.4063783758	 0.108358
H	 0.4231448836	 0.0150503782	 1.2258507878	 0.114135
H	-1.9775810664	-0.0594810057	 0.6614682741	 0.098489
H	-3.1229987177	-2.3040622467	-1.5384802609	 0.108907
H	-1.097131504	-3.9212347861	-1.0027376354	 0.113951
H	 0.0832901552	-1.7137860918	-2.1913981485	 0.291035
H	-1.7406992184	-2.6414451229	 1.0914078138	 0.104429
90.2667	146.547	203.0449	252.9461	360.8965	394.1763	421.9312	468.6158	559.0168	653.7072	728.5632	784.1068	828.253	852.3841	932.9938	985.8407	1018.4417	1023.6466	1051.3595	1056.0728	1070.7722	1091.2596	1131.6872	1192.1628	1208.9464	1253.4464	1277.6497	1316.543	1342.1549	1365.4756	1400.585	1431.2761	1451.7513	1506.1953	3027.1425	3037.2201	3079.573	3152.2014	3174.4736	3203.6478	3765.8401	3803.6882
OCC1OC2C(O)C12	OC[C@H]1O[C@H]2[C@@H](O)[C@@H]12	
InChI=1S/C5H8O3/c6-1-2-3-4(7)5(3)8-2/h2-7H,1H2	InChI=1S/C5H8O3/c6-1-2-3-4(7)5(3)8-2/h2-7H,1H2/t2-,3-,4+,5-/m1/s1
