22
gdb 99020	3.22952	0.90676	0.84951	1.9822	79.21	-0.242	0.018	0.26	1503.8521	0.190904	-441.5292	-441.517918	-441.516973	-441.566103	40.435	
C	-0.0532909336	 1.5667156254	 0.1376332864	-0.41741
C	 0.0372782723	 0.039240825	 0.0685711242	 0.368302
C	 0.6585294033	-0.561799507	 1.3330670585	-0.417384
C	-1.336794488	-0.5740287361	-0.2052451012	-0.398469
O	 0.8147986185	-0.3649725021	-1.1139324354	-0.291042
C	 2.1012833485	-0.0205354884	-1.2676357255	 0.419416
O	 2.7621581626	 0.6335216017	-0.4961694985	-0.372639
C	 2.6423957439	-0.5785398957	-2.5866441137	-0.264206
N	 4.034534069	-0.2726238092	-2.8631543694	-0.486373
H	 0.9239664879	 2.0126669567	 0.3220176001	 0.150542
H	-0.4559207681	 1.9667731575	-0.798058311	 0.115553
H	-0.7303497369	 1.8558730389	 0.9476022541	 0.114773
H	 0.0102066023	-0.3572162203	 2.190911195	 0.11476
H	 0.7522922945	-1.647460115	 1.2319751552	 0.115538
H	 1.6432964271	-0.13799965	 1.529375495	 0.150547
H	-1.7584237888	-0.1765145102	-1.1325142922	 0.121114
H	-1.2619745209	-1.6608541538	-0.2991999964	 0.121114
H	-2.0222261785	-0.3427676768	 0.6150392395	 0.117273
H	 2.4923687962	-1.6643888301	-2.5794993271	 0.135118
H	 2.0083854604	-0.1997298935	-3.3967965049	 0.135175
H	 4.1591364695	 0.7360707146	-2.8413863508	 0.23422
H	 4.604686719	-0.6149753717	-2.0942874918	 0.23408
32.8475	71.3751	109.0794	148.4334	194.3215	200.8411	246.2235	263.7938	274.8709	314.3576	336.9281	345.2891	423.0007	450.882	488.1479	583.6089	704.2877	752.7743	858.8613	904.8044	919.5477	925.5883	927.2849	956.4778	965.9794	1051.5333	1059.8216	1153.2337	1177.0052	1190.8056	1248.8315	1266.932	1281.1935	1374.183	1388.9941	1395.1634	1399.6203	1425.3532	1455.8406	1467.9759	1488.0878	1488.6893	1494.5435	1503.1866	1525.736	1678.9678	1801.8088	3042.4254	3042.9487	3043.1996	3050.2055	3079.0236	3106.9041	3109.3066	3122.0101	3123.7856	3153.8099	3156.7311	3491.7674	3558.0352
CC(C)(C)OC(=O)CN	CC(C)(C)OC(=O)CN	
InChI=1S/C6H13NO2/c1-6(2,3)9-5(8)4-7/h4,7H2,1-3H3	InChI=1S/C6H13NO2/c1-6(2,3)9-5(8)4-7/h4,7H2,1-3H3
