21
gdb 87243	4.3739	0.67344	0.64523	3.6151	80.62	-0.2478	-0.0195	0.2283	1746.9547	0.179179	-424.220598	-424.210162	-424.209218	-424.256848	37.478	
C	 0.0161478955	 1.7040771707	 0.2927579348	-0.460077
C	-0.079570438	 0.1984819474	 0.1329894546	 0.338532
C	-1.4398545021	-0.3353332962	-0.2918389237	-0.277942
C	-1.8638650771	 0.1110539169	-1.7054229655	-0.271028
C	-3.1195492533	-0.5948444944	-2.159664936	 0.159924
O	-4.133941134	-0.0513574604	-2.5127070291	-0.236681
C	 1.1485404532	-0.5422354279	-0.376556945	-0.366632
C	 0.7239048383	-0.665225864	 1.0688999764	 0.058666
O	 1.462929141	-0.0270139608	 2.0690165001	-0.421932
H	 0.9726280404	 1.9855862156	 0.7357778874	 0.133043
H	-0.0831868443	 2.2155493128	-0.6702917139	 0.115367
H	-0.776636487	 2.0749223846	 0.9526210089	 0.117618
H	-1.4253461113	-1.4325845423	-0.2574774341	 0.095888
H	-2.2003020834	-0.012954925	 0.431380693	 0.113942
H	-2.0321326172	 1.1891865675	-1.7627754671	 0.125496
H	-1.062325903	-0.1501315744	-2.4119861818	 0.119252
H	-3.0465790043	-1.7093219917	-2.1404964802	 0.066109
H	 1.0183525756	-1.3978632565	-1.032422782	 0.105285
H	 2.0358159356	 0.0502194519	-0.5751081631	 0.113041
H	 0.2720961061	-1.6088837532	 1.3781008271	 0.082867
H	 2.3026453092	-0.4892002404	 2.1588655092	 0.289262
50.3376	64.5905	98.2296	132.0454	187.7893	245.7051	268.8887	275.7351	301.4114	343.3518	390.1327	469.8345	521.4982	571.8424	706.7332	772.0437	818.9791	850.9949	899.7244	933.2742	973.3923	997.4979	1015.1212	1036.1826	1071.0095	1086.471	1118.3596	1122.2876	1182.0935	1202.6354	1259.2352	1271.9838	1298.4656	1307.409	1358.6227	1381.218	1415.6401	1425.8261	1430.1888	1463.2283	1484.1463	1490.0729	1499.7678	1506.5872	1836.9512	2839.7594	3009.6069	3016.3333	3033.2204	3051.9505	3085.2851	3090.0908	3109.3003	3121.4825	3136.9441	3210.1939	3808.7655
CC1(CCC=O)CC1O	C[C@@]1(CCC=O)C[C@H]1O	
InChI=1S/C7H12O2/c1-7(3-2-4-8)5-6(7)9/h4,6,9H,2-3,5H2,1H3	InChI=1S/C7H12O2/c1-7(3-2-4-8)5-6(7)9/h4,6,9H,2-3,5H2,1H3/t6-,7-/m1/s1
