19
gdb 86270	1.78119	1.64961	1.14655	5.0192	76.03	-0.2549	0.0176	0.2725	1164.0517	0.158394	-419.202768	-419.193058	-419.192113	-419.236822	36.216	
C	-0.8324861119	 1.2187281928	-0.0322785989	-0.409098
C	 0.0712004374	 0.000115415	-0.1235587811	 0.013911
C	 1.4298680097	 0.0880584388	-0.8728515204	-0.311355
C	 2.0391207635	-0.8653216845	 0.1845842434	 0.131155
O	 3.3449135205	-0.683270802	 0.6411072282	-0.419776
C	 0.8444456536	-0.4866461475	 1.1579941896	 0.060542
N	 1.122038335	 0.5895431685	 2.101392748	-0.547043
C	 0.246231148	-1.6093731374	 1.8772688168	 0.269741
N	-0.2115323114	-2.5304455165	 2.4055439342	-0.342336
H	-0.3068325118	 2.0978068607	 0.3526165173	 0.11254
H	-1.2181373761	 1.4736862104	-1.0248861604	 0.124571
H	-1.6862234513	 1.0294889887	 0.6249192729	 0.140019
H	-0.4998569969	-0.8492505297	-0.5086595411	 0.104442
H	 1.4632817646	-0.2279310358	-1.9168511566	 0.116212
H	 1.8652471666	 1.0922939903	-0.8041773297	 0.09257
H	 1.9629653381	-1.9104462385	-0.1234838382	 0.115652
H	 3.4466814617	 0.2387352248	 0.90258885	 0.27149
H	 1.8473115913	 0.3065669975	 2.7540734834	 0.246541
H	 1.4358800994	 1.4277882246	 1.6240919226	 0.230224
102.264	123.1689	171.2546	186.1209	221.7899	237.0763	258.8382	310.5937	342.4842	395.8931	467.2962	506.8646	540.7046	584.2298	596.312	716.384	801.5779	844.681	899.7896	914.1794	947.353	1013.1302	1038.3144	1078.3181	1107.1006	1161.9152	1168.3001	1194.2525	1234.8274	1251.6462	1281.6783	1320.4702	1332.3649	1383.5694	1415.8805	1438.6493	1488.7362	1490.9304	1494.6365	1648.8308	2351.0198	3037.9494	3040.7715	3069.6725	3094.6355	3105.17	3114.0757	3120.8489	3496.0863	3587.538	3796.5764
CC1CC(O)C1(N)C#N	C[C@H]1C[C@@H](O)[C@]1(N)C#N	
InChI=1S/C6H10N2O/c1-4-2-5(9)6(4,8)3-7/h4-5,9H,2,8H2,1H3	InChI=1S/C6H10N2O/c1-4-2-5(9)6(4,8)3-7/h4-5,9H,2,8H2,1H3/t4-,5+,6-/m0/s1
