13
gdb 5428	3.51619	1.91028	1.24056	7.6407	64.96	-0.2176	-0.0244	0.1932	893.9549	0.097148	-394.824507	-394.817438	-394.816494	-394.855749	25.888	
N	 0.0936649884	 1.3856802127	 0.1587139759	-0.603652
C	-0.0052765518	 0.0075178102	 0.0405642713	 0.272829
C	-1.0824411544	-0.8742745393	 0.0131075805	 0.14651
C	-2.484753935	-0.5060657415	-0.0068177282	 0.075355
O	-3.4320526037	-1.2592742484	-0.0256958763	-0.281849
N	-0.6138391006	-2.1838314953	-0.0169504467	-0.283836
C	 0.6795294678	-2.0969767752	-0.0170708868	 0.012066
N	 1.110731494	-0.7819292436	 0.0172996937	-0.294819
H	 0.729477579	 1.8183996079	-0.5005756188	 0.257522
H	-0.8053529534	 1.8462799776	 0.1272854688	 0.26737
H	-2.6484016082	 0.6022698633	-0.0100699909	 0.025376
H	 1.3798964461	-2.9184885645	-0.0499117382	 0.138329
H	 2.0609585318	-0.4587301237	 0.1012705956	 0.268799
143.5694	189.7472	215.4994	240.8046	334.9734	352.2661	504.9834	554.4038	644.9976	669.2578	698.9902	741.995	810.051	827.2273	946.4115	1015.8758	1060.3448	1088.4811	1174.0542	1295.4337	1336.9973	1375.7893	1437.8744	1499.2184	1566.4982	1602.2443	1661.4082	1796.2928	2785.7153	3250.0084	3535.0273	3635.9939	3650.4196
NC1=C(C=O)N=CN1	Nc1c(C=O)nc[nH]1	
InChI=1S/C4H5N3O/c5-4-3(1-8)6-2-7-4/h1-2H,5H2,(H,6,7)	InChI=1S/C4H5N3O/c5-4-3(1-8)6-2-7-4/h1-2H,5H2,(H,6,7)
