17
gdb 29446	3.09707	1.65446	1.09292	3.4279	81.13	-0.1892	0.0096	0.1987	1076.6522	0.1387	-380.920427	-380.912995	-380.912051	-380.952116	28.973	
C	-0.0188041035	 1.5101397108	 0.0562252941	-0.499927
C	-0.0066495895	 0.0164694701	 0.0218125282	 0.224221
C	-0.0259765901	-0.7938484151	-1.0595305981	-0.194154
C	-0.0034685363	-2.2756882241	-0.6779676553	-0.418158
C	 0.0318747434	-2.1585159991	 0.8103216455	 0.290376
C	 0.0300294553	-0.8485739202	 1.2078145837	 0.230453
N	 0.0623793864	-0.729544578	 2.5748109471	-0.35267
C	 0.0838800422	-1.9773201986	 2.9988071782	-0.020595
N	 0.0665469651	-2.8921312988	 1.9654535552	-0.378402
H	 0.8700268875	 1.8963250031	 0.5686142081	 0.135242
H	-0.0503592615	 1.9346687906	-0.9505741784	 0.117674
H	-0.8844533866	 1.8809037598	 0.6173097172	 0.135274
H	-0.0542415951	-0.4694753513	-2.0919200929	 0.088553
H	-0.8889006363	-2.8030133015	-1.0574737866	 0.126788
H	 0.8716380365	-2.7873165058	-1.100487409	 0.126797
H	 0.1119612995	-2.2947373109	 4.0306447118	 0.124485
H	 0.0776722331	-3.893101841	 2.0655929411	 0.264044
146.9987	181.4808	197.45	231.5861	291.1092	483.2949	494.9508	537.5818	583.8491	652.562	656.9069	732.2215	761.5185	766.7039	778.5049	931.1348	936.8854	958.187	1013.6015	1065.8162	1071.7818	1100.0942	1129.1144	1160.6865	1233.3534	1257.8574	1289.8928	1371.4672	1408.8549	1423.6877	1443.4199	1457.2274	1475.5839	1487.9578	1514.6838	1571.2895	1658.6536	3021.1271	3028.9112	3048.1492	3079.2388	3115.7802	3214.0716	3250.5704	3666.2956
CC1=CCC2=C1N=CN2	CC1=CCc2c1nc[nH]2	
InChI=1S/C7H8N2/c1-5-2-3-6-7(5)9-4-8-6/h2,4H,3H2,1H3,(H,8,9)	InChI=1S/C7H8N2/c1-5-2-3-6-7(5)9-4-8-6/h2,4H,3H2,1H3,(H,8,9)
