21
gdb 116225	2.43596	1.3779	1.05538	0.8819	78.18	-0.2324	0.0762	0.3086	1213.6801	0.182779	-424.210296	-424.201223	-424.200279	-424.24474	34.094	
O	 0.0175339158	 1.4449314833	-0.4740967081	-0.423649
C	 0.096961598	 0.0265308237	-0.4261092838	-0.086271
C	-1.2064266854	-0.5038991438	 0.1713747194	-0.062754
C	-2.4349628733	-0.1382701951	-0.7038965674	-0.246856
C	-2.7744609956	-1.4588891861	-1.442590029	-0.0873
O	-1.7204416654	-2.3754771524	-1.1426577282	-0.288041
C	-1.249110497	-2.0240883779	 0.1348862707	 0.447158
C	-0.2686572296	-2.953413591	 0.764645092	-0.345402
C	-1.6869849096	-2.8655708108	 1.308242054	-0.341606
H	 0.8030356438	 1.7746299505	-0.9197214868	 0.286578
H	 0.2347071088	-0.4034009733	-1.4300363343	 0.096485
H	 0.9466478054	-0.298820607	 0.1933298996	 0.085661
H	-1.3058006201	-0.1145829358	 1.188275191	 0.079347
H	-3.2757099299	 0.1922250408	-0.089845416	 0.102989
H	-2.1879160185	 0.6773979709	-1.3855954884	 0.120956
H	-3.7362841906	-1.8644962298	-1.0973169953	 0.091753
H	-2.8183989962	-1.3558786711	-2.5299874092	 0.105368
H	-0.0042998691	-3.8411936517	 0.2013553741	 0.125054
H	 0.538502042	-2.5353762101	 1.3567505948	 0.113335
H	-1.8418208054	-2.3895769393	 2.2709962008	 0.109376
H	-2.3478658981	-3.6978710241	 1.0935855502	 0.117818
39.5934	109.8664	138.54	175.8357	254.0721	277.1438	291.7106	337.087	449.938	515.8519	564.637	694.2057	771.3881	811.0643	826.1747	859.122	888.9543	914.0705	953.4717	965.2276	979.5051	1010.6547	1040.656	1065.2495	1070.3284	1078.0578	1082.9789	1148.6406	1189.4872	1194.4134	1221.7617	1242.126	1258.2466	1270.4985	1277.853	1308.2482	1346.6455	1383.1721	1392.5745	1449.6705	1455.0897	1496.8514	1501.259	1521.7104	1527.2582	2975.5089	2996.8299	3008.6561	3068.6675	3080.1332	3086.3444	3124.4272	3129.0252	3134.9399	3214.7527	3228.7953	3831.5776
OCC1CCOC11CC1	OC[C@H]1CCOC21CC2	
InChI=1S/C7H12O2/c8-5-6-1-4-9-7(6)2-3-7/h6,8H,1-5H2	InChI=1S/C7H12O2/c8-5-6-1-4-9-7(6)2-3-7/h6,8H,1-5H2/t6-/m1/s1
