16
gdb 51057	4.64189	1.07754	1.02651	2.8097	71.72	-0.2213	-0.029	0.1922	1157.9149	0.122855	-400.625326	-400.617887	-400.616943	-400.658321	27.761	
O	-0.1723172597	-0.0587548747	 0.0313858376	-0.234395
C	 0.0059589434	 1.1298024544	-0.0083755581	 0.165482
C	 1.3573308793	 1.7917693892	-0.2285835602	-0.429264
C	 1.3124847448	 2.8318968176	-1.3022120523	 0.336523
C	 2.2460571368	 4.0284108394	-1.5571730317	-0.185275
C	 1.9216868273	 3.9326226681	-3.0679607443	-0.043954
C	 1.0161842879	 2.7797369338	-2.8297281832	-0.121051
N	 0.4565433219	 4.1788696471	-2.816468163	-0.173636
C	 0.7730743125	 4.2452250188	-1.3237427691	-0.066764
H	-0.8368780374	 1.8474498877	 0.1174013151	 0.082663
H	 1.6394285026	 2.2762510972	 0.7184391516	 0.128113
H	 2.0968266448	 1.0110105653	-0.4359830496	 0.129255
H	 3.1126535715	 4.3412867609	-0.9921590354	 0.100797
H	 2.4241284531	 4.2835838634	-3.9610445153	 0.102415
H	 0.6335966573	 2.0094591133	-3.4891657793	 0.105082
H	 0.2239558439	 4.8357197986	-0.6005568727	 0.104009
51.5069	78.8004	148.8646	268.8465	343.929	448.2794	629.3802	660.1519	749.7968	772.2475	777.4845	809.2544	860.3786	868.6878	876.3635	888.5188	924.3323	967.9226	981.3574	1004.0056	1013.7679	1058.19	1071.0461	1127.2563	1131.71	1192.0704	1209.4992	1241.8817	1295.3318	1298.4265	1318.3367	1420.0691	1423.4363	1445.4708	1837.8417	2873.4883	3006.8185	3078.9731	3176.98	3184.8562	3191.6536	3219.6987
O=CCC12C3C4C1N4C23	O=CC[C@@]12[C@H]3[C@H]4[C@@H]1N4[C@@H]23	
InChI=1S/C7H7NO/c9-2-1-7-3-4-6(7)8(4)5(3)7/h2-6H,1H2	InChI=1S/C7H7NO/c9-2-1-7-3-4-6(7)8(4)5(3)7/h2-6H,1H2/t3-,4-,5+,6-,7-,8?/m0/s1
