18
gdb 74669	3.4088	1.67025	1.32792	1.8435	83.46	-0.1959	-0.0272	0.1687	992.1466	0.148385	-364.728103	-364.720857	-364.719913	-364.75938	29.288	
C	 0.0251768012	 1.497136408	 0.1895184653	-0.495121
C	-0.1876155413	 0.0310894591	 0.0441119807	 0.253279
C	 0.0885918917	-0.7781135561	-0.9975953559	-0.182197
C	-0.3026280334	-2.219699513	-0.7281005777	-0.046372
C	-1.0754670727	-2.2015705609	 0.519649672	-0.094856
N	 0.0094490444	-3.1632389362	 0.4928871924	-0.14226
C	 0.906196936	-2.7834451836	 1.6106013018	-0.176254
C	 0.5614175996	-1.3339460287	 1.9395590155	-0.103064
C	-0.4653454924	-0.9549999099	 1.1599862021	-0.019019
H	 0.7602609077	 1.7122990012	 0.9762355696	 0.131594
H	 0.3822025725	 1.9443185415	-0.7420185845	 0.127791
H	-0.9023961302	 2.0018482748	 0.4845690973	 0.135758
H	 0.4843754633	-0.4537432144	-1.9534294203	 0.09617
H	-0.5716719966	-2.847509727	-1.5695823158	 0.100406
H	-2.1116463146	-2.5012086927	 0.6663215024	 0.084768
H	 0.771394158	-3.5244590242	 2.4123498198	 0.112879
H	 1.9621552137	-2.8270876948	 1.3123524319	 0.118962
H	 1.310594423	-0.654797643	 2.3353026634	 0.097538
139.4676	187.3922	242.7814	269.8471	352.2004	439.8855	525.1259	562.7559	584.3613	693.7902	758.6147	764.437	807.9366	831.4667	841.5454	876.921	901.54	930.9631	960.8519	1014.1626	1018.2209	1022.0139	1058.5793	1069.9536	1133.2782	1199.0756	1210.0838	1225.7511	1263.4538	1282.5987	1300.0579	1324.5436	1347.0547	1413.1971	1474.3288	1477.7849	1483.04	1604.6753	1645.7679	2992.6979	3018.1941	3037.9995	3066.8865	3113.5398	3115.5405	3171.5726	3180.2343	3197.2993
CC1=CC2C3N2CC=C13	CC1=C[C@@H]2[C@H]3N2C[CH][C]13	
InChI=1S/C8H9N/c1-5-4-7-8-6(5)2-3-9(7)8/h2,4,7-8H,3H2,1H3	InChI=1S/C8H9N/c1-5-4-7-8-6(5)2-3-9(7)8/h2,4,7-8H,3H2,1H3/t7-,8+,9?/m1/s1
