19
gdb 30779	3.1209	1.23454	0.9403	0.2767	80.09	-0.174	0.06	0.234	1279.644	0.15957	-419.225607	-419.216009	-419.215064	-419.260443	34.695	
C	 0.4262734368	 1.0819003458	-0.4717998395	-0.315495
N	-0.2877547981	-0.0099293523	 0.197316684	-0.40393
C	 0.4219132628	-0.6348811941	 1.2624967284	 0.083881
C	 0.7721986249	-1.9636947806	 1.1915889462	 0.359873
O	 0.5383493522	-2.8562462397	 0.203513917	-0.450542
N	 1.4282218915	-2.3314761259	 2.3274050048	-0.053627
C	 2.0018561163	-3.6354234749	 2.5806628772	-0.338397
C	 1.5182836189	-1.2155215319	 3.1506464908	-0.11432
C	 0.9069364525	-0.1593902117	 2.5251078725	-0.250848
H	 1.3468024978	 0.690213237	-0.9145749909	 0.125522
H	-0.1974307341	 1.4843117611	-1.2769363409	 0.109467
H	 0.7042811144	 1.9108459412	 0.1978645311	 0.104139
H	-1.1945094022	 0.3234122025	 0.508703604	 0.224349
H	 0.0246449317	-2.3554102894	-0.449139183	 0.298983
H	 3.0377474819	-3.7023619058	 2.2272936856	 0.134703
H	 1.9835092604	-3.8379574864	 3.6541982644	 0.134953
H	 1.4118881341	-4.3970371656	 2.0674900915	 0.154422
H	 2.008497937	-1.2917981926	 4.1074551669	 0.108969
H	 0.803151951	 0.8372763433	 2.9271662499	 0.087898
67.2068	72.0381	116.2062	174.0527	189.9222	263.6054	279.7216	285.0752	390.0582	512.2246	537.8056	577.6253	622.1487	624.3574	703.6005	727.2014	767.62	782.9831	824.2077	993.4807	1028.9938	1100.9129	1105.6771	1147.1096	1151.5867	1173.0075	1204.8631	1255.5459	1307.4187	1375.6142	1393.7514	1450.403	1453.4899	1466.1045	1489.262	1490.2059	1510.4393	1516.6232	1529.7323	1585.8898	1649.1893	2979.475	3028.8289	3064.1384	3099.9567	3106.7792	3140.7408	3238.8607	3267.6516	3500.7571	3719.1638
CNC1=C(O)N(C)C=C1	CNc1c(O)n(C)cc1	
InChI=1S/C6H10N2O/c1-7-5-3-4-8(2)6(5)9/h3-4,7,9H,1-2H3	InChI=1S/C6H10N2O/c1-7-5-3-4-8(2)6(5)9/h3-4,7,9H,1-2H3
