23
gdb 103756	3.14686	1.00619	0.88922	1.8322	82.81	-0.2422	0.0712	0.3135	1447.0744	0.202002	-425.418053	-425.406989	-425.406045	-425.453744	41.358	
C	 0.3292426587	 1.4883315331	 0.2300505898	-0.396828
C	-0.1706879136	 0.0835851799	-0.1267570867	-0.21429
C	 0.5603564575	-0.5181025797	-1.3119005644	 0.351146
O	 0.374452197	 0.1791254465	-2.5201386926	-0.471894
C	 1.9106333752	-1.1931110179	-1.1074015409	-0.423383
C	 0.6742162038	-2.0072619521	-1.4667542537	 0.351145
O	 0.0760959952	-2.746664555	-0.4294196779	-0.471894
C	 0.5668463141	-2.6540493443	-2.8346568362	-0.21429
C	 1.3107492303	-3.9918922911	-2.9203256875	-0.396828
H	 1.3945398957	 1.4789308353	 0.486591369	 0.113658
H	 0.1878771564	 2.1865478626	-0.6027210274	 0.107296
H	-0.2177079658	 1.8932770351	 1.0865019911	 0.116046
H	-0.0675978847	-0.5868223716	 0.7294718103	 0.112342
H	-1.2395346353	 0.1233192458	-0.3693847085	 0.104425
H	 0.8945626686	 0.988203218	-2.4741835018	 0.282913
H	 2.6642794652	-1.0529617453	-1.8755894126	 0.106877
H	 2.2874710373	-1.2724487178	-0.0927904175	 0.106877
H	 0.6482345996	-3.4969784283	-0.2372739281	 0.282913
H	-0.4960428711	-2.8084464067	-3.0567117599	 0.104425
H	 0.9467554303	-1.9576640745	-3.5856018157	 0.112342
H	 2.3793109455	-3.8677142601	-2.7117218039	 0.113657
H	 0.9088219058	-4.7193281846	-2.2059798989	 0.107297
H	 1.2132328543	-4.4315056572	-3.9172587158	 0.116046
68.0655	80.2041	133.4198	165.166	232.744	235.4795	251.2789	275.5556	303.1164	308.7819	321.5096	395.127	420.7863	441.612	464.5065	636.8335	703.762	730.5104	784.6209	787.4712	895.3973	901.3602	929.284	973.2682	997.291	1007.8278	1029.4177	1060.4504	1085.9004	1099.4748	1161.4112	1193.5027	1247.0593	1291.9878	1297.7817	1310.1785	1329.808	1359.2916	1372.4888	1404.1484	1404.6718	1408.6188	1478.7948	1478.8382	1488.3864	1501.005	1503.1154	1510.5112	1511.281	3028.174	3028.4523	3039.4013	3040.3565	3085.0164	3085.1653	3105.5099	3105.6775	3112.5643	3113.295	3121.469	3215.1458	3807.327	3807.9993
CCC1(O)CC1(O)CC	CC[C@@]1(O)C[C@]1(O)CC	
InChI=1S/C7H14O2/c1-3-6(8)5-7(6,9)4-2/h8-9H,3-5H2,1-2H3	InChI=1S/C7H14O2/c1-3-6(8)5-7(6,9)4-2/h8-9H,3-5H2,1-2H3/t6-,7-/m1/s1
