23
gdb 120880	4.67071	0.78997	0.74463	0.79	87.52	-0.2435	0.0898	0.3333	1642.08	0.204706	-388.255764	-388.245946	-388.245002	-388.29071	36.475	
C	 0.0252686734	 1.380476592	 0.035194821	-0.22274
O	-0.0254400163	-0.021644197	 0.1186780853	-0.232528
C	-1.3185100318	-0.5432878819	-0.1137398971	-0.071166
C	-1.2522585467	-2.0525865488	 0.0235164274	 0.012318
C	-0.9911776437	-2.6772850086	 1.4347546382	-0.301344
C	-2.2657740001	-3.5269987264	 1.282026465	 0.375344
C	-2.3865447669	-4.9648187151	 1.6974192382	-0.4966
C	-3.444842009	-2.6100790878	 1.124955408	-0.32655
C	-2.5548430752	-2.8571648837	-0.0693571199	-0.127572
H	 1.0568341433	 1.6853349712	 0.2295222039	 0.124143
H	-0.2695584104	 1.7433472141	-0.9628862265	 0.100522
H	-0.6321036581	 1.860650126	 0.7782509237	 0.100347
H	-2.0367318079	-0.1116005734	 0.6038155243	 0.080283
H	-1.669744718	-0.2672963546	-1.1242288265	 0.080519
H	-0.5124762804	-2.4266412044	-0.6902321363	 0.079767
H	-0.0736670676	-3.2694774437	 1.4642581276	 0.100867
H	-0.979653608	-1.9799709133	 2.2792178233	 0.092986
H	-2.408733721	-5.0624326927	 2.7901125325	 0.118061
H	-3.3064891921	-5.4147268873	 1.3090495478	 0.114595
H	-1.5418521278	-5.5600377834	 1.3311153885	 0.114135
H	-4.410662756	-3.1044663996	 1.0749093094	 0.105299
H	-3.4750194756	-1.642856535	 1.6215722866	 0.101221
H	-2.9489743542	-3.3000408766	-0.9776127846	 0.078094
67.9144	94.1213	107.5206	167.9341	209.3603	231.716	284.7813	291.9434	370.2112	387.4557	452.767	508.349	614.1936	713.5222	802.719	856.661	894.0478	904.1961	952.1657	972.2703	978.5033	995.6502	1019.912	1064.8433	1075.0965	1089.4471	1108.2041	1141.3785	1156.6405	1173.845	1194.7035	1222.0051	1238.3983	1248.117	1266.6836	1277.5899	1296.8356	1361.7645	1392.8024	1420.2854	1430.9191	1480.8704	1482.3575	1484.5101	1486.2139	1498.0954	1501.9084	1509.4586	1525.6669	2941.5124	2965.0621	2973.7482	3005.5892	3016.2198	3045.0988	3063.3679	3073.1504	3091.1727	3104.6525	3105.0602	3108.7539	3165.1381	3190.502
COCC1CC2(C)CC12	COC[C@H]1C[C@@]2(C)C[C@@H]12	
InChI=1S/C8H14O/c1-8-3-6(5-9-2)7(8)4-8/h6-7H,3-5H2,1-2H3	InChI=1S/C8H14O/c1-8-3-6(5-9-2)7(8)4-8/h6-7H,3-5H2,1-2H3/t6-,7+,8+/m1/s1
