19
gdb 93424	3.01898	1.26247	0.94974	5.1167	79.07	-0.2587	-0.038	0.2207	1245.9897	0.160248	-423.07095	-423.062547	-423.061602	-423.104095	31.859	
C	-0.096260284	 1.5825969977	-0.1377243685	-0.408767
C	 0.0117932672	 0.0555242696	-0.0379798262	-0.000537
C	 1.0728477894	-0.4875162251	-1.0019933767	-0.082695
O	 0.7678293796	-1.7919553392	-1.4986219594	-0.227812
C	 0.7490120384	-2.8900035894	-0.7057967293	 0.383465
O	 0.592648476	-3.9666282825	-1.226477116	-0.335306
C	 0.9210607074	-2.7928848351	 0.7685655036	-0.174891
C	 0.7147651069	-1.7921194388	 1.6315817057	-0.059871
C	 0.309201685	-0.3685416232	 1.4045440031	-0.260516
H	 0.8665983607	 2.0614208135	 0.0769297116	 0.119614
H	-0.4102093482	 1.8934699603	-1.1386159404	 0.123663
H	-0.8249356956	 1.9721923276	 0.5800551442	 0.121304
H	-0.9431265894	-0.3842796919	-0.3513433565	 0.100236
H	 1.120652506	 0.1271736835	-1.9041006297	 0.120593
H	 2.0678202047	-0.4821633768	-0.5376780342	 0.112387
H	 1.182736584	-3.7668392482	 1.1701559512	 0.120938
H	 0.864478945	-2.0364570031	 2.6829288849	 0.108479
H	 1.1141206392	 0.2670660459	 1.807990578	 0.118098
H	-0.5581813623	-0.1503517947	 2.0433637445	 0.121617
78.9377	110.477	215.5171	233.6679	310.7533	325.7925	335.4259	377.8379	429.0459	507.4043	603.3131	640.3244	747.0139	818.9226	831.9609	860.0559	898.704	918.4524	963.3333	1008.4621	1034.861	1092.6787	1110.4447	1117.5038	1168.7967	1218.6533	1236.6287	1286.501	1305.7847	1326.503	1369.3195	1398.2215	1410.23	1423.1221	1431.0013	1461.3692	1496.9837	1499.4445	1505.1952	1707.7743	1803.31	2985.0082	3020.027	3022.9257	3029.746	3042.1021	3096.2929	3098.2549	3110.6617	3130.7957	3184.983
CC1COC(=O)C=CC1	C[C@H]1COC(=O)C=CC1	
InChI=1S/C7H10O2/c1-6-3-2-4-7(8)9-5-6/h2,4,6H,3,5H2,1H3	InChI=1S/C7H10O2/c1-6-3-2-4-7(8)9-5-6/h2,4,6H,3,5H2,1H3/t6-/m1/s1
