16
gdb 66081	2.75992	1.22274	1.07707	2.3322	70.21	-0.2621	-0.0374	0.2247	1147.477	0.122122	-437.888999	-437.880026	-437.879082	-437.923258	32.014	
O	-0.1447450218	 1.4284348732	-0.0872249058	-0.451557
C	 0.0379486579	 0.0285743677	-0.0384270957	 0.241214
C	 0.0747892108	-0.5584984778	 1.4095593457	-0.269877
C	-1.4403674755	-0.8790596934	 1.3045521619	-0.243272
C	-1.3607144827	-0.6580965115	-0.223216427	-0.119512
C	-2.4225975221	 0.1872154528	-0.8898292418	 0.154981
O	-3.450562984	 0.5049989588	-0.3521388979	-0.236962
C	 1.1162135357	-0.3935574333	-0.9407937028	 0.23125
N	 1.9792873431	-0.7246993796	-1.6352575547	-0.331577
H	 0.6672783997	 1.8593077972	 0.2041802609	 0.297768
H	 0.7011891197	-1.4504146697	 1.474700366	 0.129408
H	 0.3880448309	 0.1598697524	 2.1702965801	 0.11871
H	-1.7516788572	-1.869178754	 1.6371037408	 0.118693
H	-2.0782279267	-0.129147159	 1.7739341467	 0.14171
H	-1.2514046273	-1.5879994322	-0.7914956207	 0.122057
H	-2.1942177407	 0.4890024383	-1.9343560956	 0.096964
60.3586	87.0049	138.2231	185.2952	217.0532	256.2871	303.9348	379.5787	420.5359	525.1374	555.6046	610.3285	642.9728	761.8298	776.3386	911.2678	920.6606	953.6645	962.8917	989.8243	1065.3764	1122.6161	1133.6215	1161.773	1216.4712	1243.4767	1264.4668	1285.8862	1325.6241	1352.6761	1419.0522	1466.071	1493.731	1830.7339	2347.4309	2906.19	3063.1765	3071.8907	3094.71	3128.5936	3152.4589	3800.5232
OC1(CCC1C=O)C#N	O[C@]1(CC[C@H]1C=O)C#N	
InChI=1S/C6H7NO2/c7-4-6(9)2-1-5(6)3-8/h3,5,9H,1-2H2	InChI=1S/C6H7NO2/c7-4-6(9)2-1-5(6)3-8/h3,5,9H,1-2H2/t5-,6+/m0/s1
