19
gdb 62889	3.21129	1.50804	1.19162	2.6853	75.87	-0.2497	0.0711	0.3207	1068.672	0.157862	-422.944739	-422.936534	-422.93559	-422.976785	32.958	
C	-0.1174597755	 1.5770919815	-0.0320683654	-0.48549
C	-0.002780653	 0.0587487021	-0.0083905402	 0.45898
O	-1.2920471631	-0.5088859163	-0.1552041254	-0.484221
C	 1.1704379774	-0.6554400575	-0.7846159285	-0.229151
C	 2.1221535285	-0.186887714	 0.3647574469	-0.25948
C	 0.825320764	-0.6612876712	 1.100884444	-0.196767
C	 0.8805039753	-1.8574407948	 0.1307119527	 0.572517
C	 0.2515970431	-3.1541290923	 0.0131133404	-0.303022
O	 1.6743306387	-3.0097808981	 0.2731388333	-0.318536
H	 0.8305324939	 2.0962264515	 0.1093551055	 0.127541
H	-0.5250923049	 1.9043056827	-0.9974098712	 0.109538
H	-0.8110309147	 1.9037986886	 0.7487306017	 0.130643
H	-1.7358013583	-0.0583529188	-0.8808797491	 0.276952
H	 1.3650375716	-0.6546386356	-1.8577705109	 0.072685
H	 2.9993131513	-0.8132641255	 0.5252322775	 0.123541
H	 2.3763234764	 0.8706525871	 0.4163580502	 0.093959
H	 0.6243088403	-0.6695355976	 2.1721126174	 0.078869
H	-0.3305340432	-3.5566778344	 0.8401885044	 0.118126
H	 0.0013648423	-3.5551069974	-0.9678041033	 0.113315
168.2329	182.0357	206.1941	254.0999	274.9652	361.728	369.7037	403.8707	445.5827	492.5439	582.6017	652.5198	701.3685	755.3589	799.9384	877.0912	879.3165	893.3511	953.7734	989.6719	1000.8799	1052.0445	1063.1833	1082.7523	1100.9115	1108.6506	1123.1083	1137.8962	1158.7909	1171.9719	1203.841	1215.3986	1222.8982	1244.7481	1379.217	1411.5373	1462.1058	1491.9912	1494.8363	1527.9883	1569.259	3027.0157	3087.8384	3091.4375	3095.2621	3110.978	3121.6925	3141.6694	3162.5224	3172.976	3813.9764
CC1(O)C2CC1C21CO1	C[C@@]1(O)[C@H]2C[C@@H]1[C@]12CO1	
InChI=1S/C7H10O2/c1-6(8)4-2-5(6)7(4)3-9-7/h4-5,8H,2-3H2,1H3	InChI=1S/C7H10O2/c1-6(8)4-2-5(6)7(4)3-9-7/h4-5,8H,2-3H2,1H3/t4-,5+,6-,7-
