17
gdb 55674	2.27009	1.29991	0.92152	2.1636	74.32	-0.2334	-0.024	0.2094	1256.8926	0.137212	-451.365408	-451.356199	-451.355255	-451.400234	33.044	
N	 0.0268811438	 0.2266493268	 1.18085805	-0.504792
C	-0.2669345702	 0.0371046494	-0.1297388922	 0.377705
O	 0.2574747509	 0.6301573825	-1.0531002488	-0.360481
C	-1.3625156195	-1.020462752	-0.371021575	-0.281142
N	-0.8659592218	-2.3906829854	-0.2403461976	-0.041605
C	-0.8595948794	-3.0078346657	 0.9932034824	 0.103395
N	-1.172715877	-2.3746753786	 2.0588987224	-0.49381
C	-0.3752583748	-3.0507083036	-1.3660329734	 0.097978
N	 0.1189633354	-4.2194051483	-1.314096627	-0.468073
H	 0.8087993375	 0.81932905	 1.4095414847	 0.256097
H	-0.3505654455	-0.4134402885	 1.8709666563	 0.27952
H	-2.1843606634	-0.8956884297	 0.3375859376	 0.148255
H	-1.7281721812	-0.8750825707	-1.3878456907	 0.136427
H	-0.5656387288	-4.0551386001	 0.9252269806	 0.156456
H	-1.1440080155	-2.9997517115	 2.8606952294	 0.235222
H	-0.473239313	-2.4359836418	-2.2654282544	 0.122503
H	 0.3990256324	-4.5275479226	-2.2417481242	 0.236343
50.1137	67.3271	136.2635	194.8407	223.4508	271.965	303.1706	341.9399	443.4798	462.0466	532.5476	568.0858	646.0353	707.7178	765.9967	801.5997	822.9959	878.6623	888.8038	966.7816	1051.6924	1075.3253	1121.7038	1163.0114	1171.6079	1237.2354	1345.588	1350.7108	1380.826	1392.1955	1427.6248	1438.55	1474.1517	1627.0359	1689.7232	1727.5204	1807.5616	3077.7113	3086.023	3143.6024	3144.7894	3494.246	3518.8323	3525.5372	3682.2617
NC(=O)CN(C=N)C=N	NC(=O)CN(C=N)C=N	
InChI=1S/C4H8N4O/c5-2-8(3-6)1-4(7)9/h2-3,5-6H,1H2,(H2,7,9)	InChI=1S/C4H8N4O/c5-2-8(3-6)1-4(7)9/h2-3,5-6H,1H2,(H2,7,9)
