16
gdb 15554	3.1811	1.92161	1.30454	4.5108	70.69	-0.2281	-0.0039	0.2242	929.4873	0.131012	-342.789437	-342.781822	-342.780878	-342.821507	27.736	
C	-0.0448347923	 1.476543559	 0.0236565964	-0.333929
N	-0.0530013051	 0.0360002799	 0.1624205743	-0.056042
C	-1.3594907306	-0.6232145047	 0.099596028	-0.205838
C	-1.1610715199	-1.861281153	 0.9274790393	-0.078654
C	-0.0154602652	-1.8075855232	 1.5956294821	-0.073445
C	 0.6955001292	-0.5023551954	 1.2972713259	-0.149446
C	 2.1265659737	-0.6715081325	 0.9721649386	 0.291421
N	 3.2515772896	-0.7927755214	 0.738536858	-0.329335
H	 0.9865632689	 1.8389656022	-0.0236616295	 0.139474
H	-0.5377169885	 1.757947509	-0.9116426133	 0.129118
H	-0.558320552	 1.9999937029	 0.852279691	 0.097258
H	-2.1703180614	 0.0000895452	 0.5244654495	 0.097462
H	-1.641730207	-0.8398295154	-0.9401015482	 0.119585
H	-1.8883409559	-2.6619318016	 0.9721514875	 0.116648
H	 0.3886388373	-2.5393754809	 2.2815577082	 0.126685
H	 0.6574507291	 0.1572067999	 2.1881175224	 0.109039
80.3843	146.7995	185.4118	224.3691	317.1286	334.9266	400.7771	516.2415	547.9389	625.3491	718.7883	796.1359	870.0664	935.4584	962.7785	964.4314	1034.7578	1048.3259	1070.5809	1132.369	1149.8752	1197.6497	1212.0502	1245.5286	1299.1093	1348.9203	1351.39	1386.0715	1462.4197	1491.7862	1502.6326	1518.2376	1694.9309	2357.521	2886.3769	2912.3307	2931.3199	3012.8756	3067.8532	3110.7981	3213.6353	3241.2226
CN1CC=CC1C#N	CN1CC=C[C@H]1C#N	
InChI=1S/C6H8N2/c1-8-4-2-3-6(8)5-7/h2-3,6H,4H2,1H3	InChI=1S/C6H8N2/c1-8-4-2-3-6(8)5-7/h2-3,6H,4H2,1H3/t6-/m0/s1
