21
gdb 108914	3.87444	1.07706	1.017	1.781	84.26	-0.2216	0.0103	0.2319	1300.6942	0.181658	-387.059631	-387.05076	-387.049816	-387.093182	34.293	
C	-0.3236466508	 1.4847475872	-0.0958883409	-0.374907
C	 0.1235098275	 0.0153955842	 0.0150837211	-0.319067
C	 0.8218856147	-0.4786445078	-1.2056702465	 0.388695
C	 2.063833663	-0.9153737427	-1.4319173715	-0.281797
C	 2.0295139599	-1.2471284865	-2.9404167082	 0.385516
C	 3.1739862797	-1.96036231	-3.6024525552	-0.507805
C	 1.323713235	 0.0299825323	-3.507501145	-0.254161
C	 0.2163816816	-0.6109415378	-2.6269877839	-0.039448
O	 0.7167358799	-1.9197908582	-3.0457018344	-0.317815
H	 0.5371392957	 2.1450699532	-0.2395342792	 0.1213
H	-1.002143714	 1.6317265864	-0.942675384	 0.12016
H	-0.8488081403	 1.800256749	 0.8106818694	 0.116062
H	 0.7800238755	-0.1051810596	 0.8841615637	 0.106077
H	-0.7618248409	-0.6080053625	 0.2047725957	 0.110522
H	 2.9035066382	-1.0320623964	-0.7608685919	 0.100631
H	 3.3498782849	-2.9290162544	-3.1238901946	 0.132239
H	 2.9642624429	-2.1322428756	-4.6614839989	 0.127448
H	 4.0905117519	-1.3670152078	-3.5207670497	 0.121738
H	 1.7160522847	 1.0122620751	-3.2347592378	 0.091744
H	 1.1118065112	-0.0487055753	-4.5773786228	 0.099355
H	-0.8524103601	-0.4625967726	-2.7818723652	 0.073513
64.4902	114.5513	183.2449	194.5108	262.9553	268.7176	324.1682	392.9119	495.6973	534.2827	610.4358	651.3717	661.6089	771.7014	777.7038	804.6513	831.152	857.3191	877.1075	925.9819	947.6386	978.2594	1033.0521	1050.6	1073.5245	1092.5327	1109.6914	1132.7868	1178.4394	1210.8777	1230.8074	1247.3009	1274.1108	1318.7748	1334.0721	1352.2899	1406.96	1415.4183	1478.3483	1478.9299	1486.3074	1493.7266	1498.2325	1506.0162	1687.8282	3006.7212	3035.6791	3039.4895	3054.6598	3059.3701	3106.0698	3108.7776	3111.2514	3119.4087	3122.1188	3127.1776	3226.7632
CCC1=CC2(C)CC1O2	CCC1=C[C@]2(C)C[C@H]1O2	
InChI=1S/C8H12O/c1-3-6-4-8(2)5-7(6)9-8/h4,7H,3,5H2,1-2H3	InChI=1S/C8H12O/c1-3-6-4-8(2)5-7(6)9-8/h4,7H,3,5H2,1-2H3/t7-,8-/m1/s1
