16
gdb 127422	2.41814	1.43592	0.91122	3.5802	76.12	-0.252	-0.0552	0.1968	1239.4422	0.123921	-434.091671	-434.082698	-434.081754	-434.126697	30.416	
C	-0.0399002322	 1.4235936506	-0.0085607337	-0.313135
N	-0.0087697259	-0.0265885254	 0.0054267588	 0.16214
N	 0.0082559644	-0.7356852444	-1.1276309683	-0.299774
C	 0.0359979324	-2.0022743592	-0.7117851856	 0.2654
C	 0.0622401907	-3.1422745757	-1.677655925	-0.506001
C	 0.0342704126	-1.9957371561	 0.7041662848	 0.135041
C	 0.0585264908	-3.1366984303	 1.6247815992	 0.084999
O	 0.0555469629	-3.0680584297	 2.8307621242	-0.261917
N	 0.0052629879	-0.7168417035	 1.121490904	-0.266066
H	 0.8458662678	 1.8070156032	-0.5199583458	 0.159553
H	-0.9340674113	 1.7681578743	-0.5326916815	 0.159646
H	-0.0544432725	 1.7594682373	 1.0266581821	 0.172995
H	 0.9572216454	-3.7586348709	-1.5455240912	 0.143865
H	-0.8067751641	-3.7956071433	-1.5497705836	 0.143898
H	 0.0566001978	-2.7581692047	-2.6993305021	 0.15111
H	 0.0811050234	-4.1205369221	 1.1046936136	 0.068244
34.606	94.4263	126.1077	165.1755	173.2677	239.6384	263.7735	355.6211	405.5921	540.4019	635.9599	687.592	701.9401	726.8065	887.0681	1015.823	1031.3998	1033.4838	1071.0554	1084.8533	1150.3788	1213.4686	1328.4541	1358.5712	1407.6573	1413.4381	1446.0325	1450.4126	1476.5784	1478.2023	1485.2155	1502.5115	1521.926	1537.2747	1804.8987	2878.2717	3044.5599	3064.4879	3099.5705	3134.7205	3139.5459	3184.2878
CN1N=C(C)C(C=O)=N1	Cn1nc(C)c(C=O)n1	
InChI=1S/C5H7N3O/c1-4-5(3-9)7-8(2)6-4/h3H,1-2H3	InChI=1S/C5H7N3O/c1-4-5(3-9)7-8(2)6-4/h3H,1-2H3
