17
gdb 10937	4.36671	1.45146	1.33659	1.8866	74.95	-0.2357	0.0354	0.2711	980.5232	0.140963	-326.649777	-326.64199	-326.641046	-326.681558	29.987	
C	 0.039900142	 1.5299519325	 0.0529973075	-0.490776
C	-0.0385302607	 0.0353655199	-0.0354739198	 0.367778
C	-0.8813948519	-0.7993843299	 0.843122691	-0.278661
N	 0.5875870686	-0.8881250668	 1.0042681076	-0.165905
C	 1.037059964	-1.7949196606	-0.130788597	-0.138156
C	 0.4944044487	-0.7962741961	-1.2017561822	-0.32408
C	 2.4695562933	-2.0121363425	-0.1433946425	 0.317367
C	 3.6574316758	-2.1922524234	-0.1789715648	-0.421119
H	 1.0331764967	 1.8905274189	-0.2346262374	 0.126569
H	-0.6955570572	 1.9972621881	-0.6127308395	 0.121694
H	-0.1626002379	 1.8689174701	 1.0730450399	 0.130262
H	-1.364243203	-0.3151619018	 1.6865711072	 0.120041
H	-1.4220077153	-1.65705696	 0.4453209169	 0.107719
H	 0.5179679265	-2.7603915885	-0.1026669659	 0.103188
H	-0.2357536669	-1.1763289024	-1.9218472496	 0.104343
H	 1.3069188251	-0.3046912085	-1.7386242734	 0.124182
H	 4.7066139222	-2.3546560989	-0.1981589079	 0.195554
96.5135	161.9434	192.8101	262.2238	324.741	369.0124	451.9327	484.5541	515.8612	612.2406	624.2528	651.8737	729.7212	780.9451	839.4943	880.5189	937.5268	955.1185	1007.0632	1030.012	1066.8372	1094.9797	1122.4961	1133.7156	1155.7357	1228.2502	1242.4539	1315.4012	1354.7535	1378.4879	1422.0478	1481.6328	1486.3372	1493.0668	1511.6205	2239.0233	3028.0597	3030.9343	3060.187	3090.7162	3093.8603	3112.7716	3128.385	3190.7848	3504.9193
CC12CN1C(C2)C#C	C[C@]12CN1[C@@H](C2)C#C	
InChI=1S/C7H9N/c1-3-6-4-7(2)5-8(6)7/h1,6H,4-5H2,2H3	InChI=1S/C7H9N/c1-3-6-4-7(2)5-8(6)7/h1,6H,4-5H2,2H3/t6-,7+,8?/m1/s1
