14
gdb 46017	4.90869	1.03531	0.87355	3.1958	70.19	-0.2564	-0.0528	0.2036	1220.6689	0.101627	-432.898369	-432.890332	-432.889388	-432.932068	28.509	
O	-0.0173994929	 0.0437569511	-0.5228711737	-0.290966
C	-0.0144805736	 1.1369440781	-0.0180071042	 0.371924
C	-1.3221917942	 1.7927240958	 0.4246255793	-0.274197
N	-1.1361183803	 3.1776312586	 0.832071113	-0.361777
C	 0.0691133113	 3.552576408	 1.3870501906	 0.281663
N	 1.2088855409	 3.0126076697	 1.1915139138	-0.292191
C	 1.2667486874	 1.9255528182	 0.2304961707	-0.276532
C	-0.0070788129	 4.7113864064	 2.25648419	 0.263915
N	-0.114548201	 5.6370764824	 2.9397674493	-0.312927
H	-2.0362643297	 1.7322092685	-0.4020805619	 0.157047
H	-1.71790022	 1.1736120503	 1.2441922636	 0.152525
H	-1.95426345	 3.662009873	 1.1699834447	 0.267935
H	 2.0558522775	 1.2207784576	 0.5095084569	 0.155004
H	 1.5691223076	 2.3389443322	-0.7455700521	 0.158578
35.8069	103.7174	156.6194	163.3394	384.5534	417.4995	440.396	452.8694	493.8324	538.954	611.2328	671.5301	723.995	739.6808	814.8101	948.0365	1024.8122	1063.6519	1133.4406	1180.6922	1218.0131	1256.6207	1270.1715	1299.0171	1350.9858	1435.4821	1467.0384	1531.9782	1715.03	1834.0487	2361.1412	2991.0167	2997.1366	3084.5749	3085.3213	3612.1673
O=C1CNC(=NC1)C#N	O=C1CNC(=NC1)C#N	
InChI=1S/C5H5N3O/c6-1-5-7-2-4(9)3-8-5/h2-3H2,(H,7,8)	InChI=1S/C5H5N3O/c6-1-5-7-2-4(9)3-8-5/h2-3H2,(H,7,8)
