18
gdb 87317	2.08672	1.30121	0.93595	4.4861	77.61	-0.2641	-0.0383	0.2258	1282.2844	0.145489	-401.967275	-401.957704	-401.95676	-402.002387	33.987	
C	 0.0020180078	 1.3770398195	-0.1315308206	-0.42409
C	 0.2181442503	-0.1120123693	 0.0128874283	-0.032476
C	 1.5779981638	-0.7177917152	 0.0592076258	-0.306633
C	 0.7143266114	-0.7579064728	 1.3167780078	 0.226886
C	 1.0830656395	 0.093335822	 2.5263403375	-0.456871
C	 2.1927982954	-0.4746889861	 3.2964847764	 0.270455
N	 3.0673298091	-0.9350638104	 3.8950640421	-0.299856
C	 0.0994054262	-2.0800407924	 1.6309729992	 0.103788
O	-0.237311683	-2.8851784704	 0.7967521225	-0.266009
H	 0.8233913325	 1.9637665439	 0.2900939461	 0.121389
H	-0.0624721063	 1.6368519743	-1.1933253482	 0.136891
H	-0.9295297007	 1.7004385009	 0.3447390586	 0.128593
H	-0.533732648	-0.7295539096	-0.4709333417	 0.123095
H	 1.7398740438	-1.6703112777	-0.432172057	 0.146584
H	 2.4362885574	-0.0536679796	 0.0879830393	 0.126206
H	 1.3647623218	 1.1039230621	 2.2199135903	 0.157205
H	 0.2209915495	 0.2035989361	 3.196049081	 0.157573
H	-0.0432760704	-2.2861979055	 2.7152696026	 0.087269
42.3459	102.0481	119.6554	179.1155	208.1819	221.3143	267.791	328.0117	378.914	408.3905	427.8816	517.3715	654.2149	740.0007	766.9446	883.6173	886.8859	919.0226	946.1955	967.0202	1021.7191	1062.7932	1084.7901	1103.1554	1136.6988	1194.0836	1206.2602	1283.9126	1307.5546	1341.0935	1402.5461	1426.8799	1437.0006	1457.5239	1476.2699	1493.8603	1504.5109	1810.2943	2362.1891	2884.0974	3036.1797	3041.0041	3098.8593	3099.8048	3108.6627	3132.2245	3154.9661	3228.5748
CC1CC1(CC#N)C=O	C[C@H]1C[C@]1(CC#N)C=O	
InChI=1S/C7H9NO/c1-6-4-7(6,5-9)2-3-8/h5-6H,2,4H2,1H3	InChI=1S/C7H9NO/c1-6-4-7(6,5-9)2-3-8/h5-6H,2,4H2,1H3/t6-,7+/m0/s1
