19
gdb 74075	2.67163	1.49911	1.10904	3.9481	83.27	-0.2315	-0.0425	0.189	1150.4977	0.158718	-385.928441	-385.919755	-385.918811	-385.961418	33.043	
C	 0.0138885242	 1.4931408185	 0.0792433168	-0.492714
C	-0.0091460372	 0.0034975136	-0.0159322411	 0.331473
C	 0.0206128747	-0.7503731082	-1.1306185474	-0.314933
C	-0.0335969813	-2.1914154791	-0.7885077814	 0.352534
O	-0.1004570977	-3.1335400491	-1.5467634771	-0.348997
C	-0.0285598404	-2.2869882826	 0.7328736147	 0.214647
C	-0.7817824134	-3.4255734119	 1.3719419555	-0.48113
C	 1.2266205497	-1.7172422145	 1.3736799701	-0.313634
C	-0.0165877704	-0.8594159577	 1.2112685771	-0.182947
H	 0.8785795452	 1.8298920446	 0.664404549	 0.140571
H	 0.0528662543	 1.9645880181	-0.9053318546	 0.134457
H	-0.8766565351	 1.8610074498	 0.604034803	 0.138304
H	 0.0860349592	-0.3936542027	-2.1505443968	 0.108373
H	-0.4141734992	-4.3799207743	 0.9831978278	 0.142793
H	-0.6622600383	-3.4245687412	 2.4594251703	 0.110321
H	-1.8517668573	-3.3684476634	 1.1462865769	 0.124965
H	 1.4633506963	-2.0818013614	 2.3691121382	 0.118303
H	 2.0872238754	-1.4868017003	 0.75435328	 0.123316
H	-0.5549991489	-0.5385786483	 2.0965105489	 0.094301
133.8874	144.3449	161.4476	180.7202	242.7305	277.5685	302.0242	371.7848	482.9778	533.592	567.353	625.5762	697.9125	760.6491	813.3431	852.1054	857.8711	893.2739	957.5609	975.9803	1012.7393	1036.6078	1054.8362	1059.4862	1092.4709	1116.008	1130.2643	1163.4017	1234.7653	1296.8634	1336.9802	1393.3496	1410.3444	1415.5302	1475.8805	1480.3433	1483.0507	1484.6329	1499.9339	1663.3224	1803.6368	3023.7909	3036.2816	3072.3308	3101.7262	3113.2763	3120.2103	3124.1395	3170.8639	3211.737	3217.8398
CC1=CC(=O)C2(C)CC12	CC1=CC(=O)[C@@]2(C)C[C@@H]12	
InChI=1S/C8H10O/c1-5-3-7(9)8(2)4-6(5)8/h3,6H,4H2,1-2H3	InChI=1S/C8H10O/c1-5-3-7(9)8(2)4-6(5)8/h3,6H,4H2,1-2H3/t6-,8-/m0/s1
