18
gdb 100224	2.62464	1.149	0.98439	6.0519	76.34	-0.2592	0.0095	0.2687	1264.012	0.145939	-398.143411	-398.13326	-398.132316	-398.178557	35.955	
C	-0.1765843957	 1.4343986259	 0.1004010399	-0.343145
N	 0.0297371958	-0.0073147197	-0.0386574434	-0.302776
C	 0.7493813194	-0.4586324815	-1.2366916475	 0.073028
C	 2.2122578783	 0.0292174597	-1.3433777368	-0.422213
C	 0.6843429755	-2.0166986456	-1.193699412	-0.359607
C	 1.3499336042	-2.6755387246	-2.3125513013	 0.276233
N	 1.8887976974	-3.1958510131	-3.1919149479	-0.303095
C	 0.0001265631	 0.0068535608	-2.4231337215	 0.322899
N	-0.5713562951	 0.3809932495	-3.3543413401	-0.333429
H	 0.7462644357	 2.0330845428	 0.135836071	 0.110087
H	-0.7871906269	 1.7963942298	-0.7310635034	 0.159399
H	-0.7323982985	 1.6115362249	 1.0246127859	 0.13409
H	 0.5250389241	-0.3613092252	 0.7740641148	 0.225537
H	 2.7734204072	-0.3160484267	-0.4686043392	 0.121133
H	 2.6954156473	-0.3604946185	-2.2424934612	 0.164793
H	 2.2554006473	 1.1193899795	-1.3780396171	 0.144637
H	 1.1590339906	-2.3491045734	-0.2630381886	 0.151944
H	-0.3642772496	-2.3222739844	-1.1515411417	 0.180485
71.1691	88.408	123.8951	167.6709	191.5841	218.5083	254.1923	282.1341	340.3824	389.8738	395.3778	415.8652	488.4244	577.5767	634.743	703.3373	752.6794	880.1403	908.0188	961.5453	975.3681	1069.1925	1108.2102	1131.6923	1164.2474	1189.7149	1221.3948	1286.3578	1331.1896	1408.0429	1458.521	1460.6033	1475.9895	1484.7123	1496.235	1510.5865	1523.5627	2363.3481	2367.172	2989.0483	3045.1941	3050.1836	3086.6459	3109.8582	3123.3239	3126.4147	3142.4057	3515.2321
CNC(C)(CC#N)C#N	CN[C@@](C)(CC#N)C#N	
InChI=1S/C6H9N3/c1-6(5-8,9-2)3-4-7/h9H,3H2,1-2H3	InChI=1S/C6H9N3/c1-6(5-8,9-2)3-4-7/h9H,3H2,1-2H3/t6-/m0/s1
