18
gdb 83032	2.74266	1.3489	1.14131	5.6053	82.24	-0.2016	-0.0263	0.1753	1130.6657	0.148004	-401.961976	-401.953476	-401.952532	-401.995174	31.637	
C	-0.0967978503	 1.5647547785	-0.1054536885	-0.418024
C	 0.0351716101	 0.0652684606	 0.0092948177	-0.028183
C	 1.3312927753	-0.6853685386	-0.2000318235	-0.038231
N	 2.5742252864	 0.0248502342	-0.0254171337	-0.258382
C	 2.6891469081	 0.4999415398	 1.2433412072	-0.104048
C	 1.6484445439	 0.1054331652	 2.0329850493	 0.179651
C	 1.5558019197	 0.3079235457	 3.4545638634	 0.051253
O	 0.6532520284	-0.0985303045	 4.1651248408	-0.313096
C	 0.6757368986	-0.6515299522	 1.1898541838	-0.17424
H	 0.7503699853	 2.086867959	 0.3447074975	 0.121509
H	-0.1668349118	 1.8737217582	-1.1543821671	 0.111923
H	-1.0014387745	 1.9082052248	 0.4068715054	 0.128997
H	-0.8144210259	-0.484366643	-0.3882322827	 0.093534
H	 1.3749563352	-1.5587953469	-0.8418385115	 0.101865
H	 3.1530348526	 0.3225609251	-0.7911595476	 0.258597
H	 3.5421524981	 1.1066709807	 1.5213644262	 0.136813
H	 2.4071888287	 0.8847726946	 3.8877634561	 0.040936
H	 0.165104692	-1.503509741	 1.6219215472	 0.109126
91.8393	126.2698	176.449	194.3151	224.7336	239.55	338.8634	472.1056	494.2644	537.5591	666.8681	696.2544	701.7016	781.5896	823.5251	877.3852	898.0491	936.6669	986.0186	1009.1051	1027.9765	1066.5394	1089.2408	1118.5669	1124.6526	1155.0207	1223.235	1268.2312	1292.3862	1355.8897	1394.0343	1405.459	1423.2969	1430.124	1471.3917	1492.6039	1498.9869	1626.8129	1758.2195	2842.1632	3035.7235	3094.0711	3120.12	3141.019	3160.5008	3186.9123	3217.651	3672.4231
CC1C2NC=C(C=O)C12	C[C@H]1[C@H]2NC=C(C=O)[C@@H]12	
InChI=1S/C7H9NO/c1-4-6-5(3-9)2-8-7(4)6/h2-4,6-8H,1H3	InChI=1S/C7H9NO/c1-4-6-5(3-9)2-8-7(4)6/h2-4,6-8H,1H3/t4-,6-,7-/m1/s1
