20
gdb 62569	2.31463	1.59781	1.21882	4.1944	80.04	-0.2389	-0.004	0.2349	1119.8626	0.168462	-403.148547	-403.139151	-403.138207	-403.182004	35.782	
C	 0.0085957845	 1.5223372945	-0.0147427704	-0.468107
C	-0.0002459714	 0.008142128	 0.103051445	 0.266152
C	-1.2066015185	-0.6092525059	-0.5811464594	-0.45002
N	 1.2529952192	-0.7917687603	-0.1982800093	-0.255626
C	 2.3725750765	-0.0386645658	 0.3230774928	 0.407555
O	 3.3631585766	 0.314868503	-0.2387098448	-0.305183
C	 1.8673343313	-0.011889392	 1.7715138872	-0.44654
C	 0.6281770098	-0.7315813097	 1.2234846748	 0.299622
C	 0.0682589107	-1.942334409	 1.9140605186	-0.489947
H	 0.8388812292	 2.0030349334	 0.5035362359	 0.133421
H	 0.0628131774	 1.8112137203	-1.0693823142	 0.138815
H	-0.9231663439	 1.9276348518	 0.3940517152	 0.124515
H	-1.292312556	-0.2179284173	-1.5994836469	 0.130049
H	-1.1228917283	-1.6938930763	-0.6506573869	 0.136871
H	-2.1264112036	-0.3547825486	-0.0428865816	 0.118715
H	 2.4770570501	-0.6567502062	 2.4112163069	 0.137835
H	 1.750302193	 0.9583027434	 2.2593430456	 0.129847
H	-0.395236927	-1.6477872169	 2.8631009567	 0.128502
H	-0.6873340498	-2.4552619216	 1.3177280984	 0.132264
H	 0.8649236603	-2.6582605449	 2.1419350463	 0.131259
114.3884	163.2275	167.2186	188.7796	194.6752	266.7229	307.1704	338.3051	375.9935	448.0231	460.9544	525.3446	564.8865	613.8827	626.578	679.2664	816.0565	857.2464	941.3642	957.7891	967.3215	1008.7355	1016.6002	1058.1294	1074.1799	1104.9289	1148.4303	1190.7618	1208.5405	1228.7916	1295.4623	1406.294	1414.9916	1423.6458	1429.0702	1459.9365	1476.2749	1482.0713	1489.257	1494.943	1508.1653	1516.098	1907.5996	3035.2144	3039.2125	3044.6208	3066.1155	3092.2885	3100.2941	3105.4031	3117.6771	3137.2293	3140.8667	3149.3826
CC1(C)N2C(=O)CC12C	CC1(C)N2C(=O)C[C@@]12C	
InChI=1S/C7H11NO/c1-6(2)7(3)4-5(9)8(6)7/h4H2,1-3H3	InChI=1S/C7H11NO/c1-6(2)7(3)4-5(9)8(6)7/h4H2,1-3H3/t7-,8?/m0/s1
