16
gdb 11941	3.04031	2.03727	1.56092	2.7578	66.79	-0.2445	-0.0348	0.2097	857.5365	0.128659	-383.712234	-383.704527	-383.703583	-383.744129	28.37	
C	-0.0285904569	 1.4920282349	 0.2498701811	-0.493466
C	-0.0027036717	 0.0086820254	 0.0380555905	 0.217348
C	-0.9090840958	-0.9576656078	 0.7413659221	-0.368578
C	 0.5784062381	-1.1059398852	 0.9366445414	 0.315151
O	 1.1727445603	-1.7869395543	-0.1656801986	-0.322311
C	 0.7414950147	-0.7362150081	-1.0728454452	-0.131144
C	 1.2889050134	-0.9740026368	 2.2126300294	 0.071052
O	 0.8422188003	-0.3806067687	 3.1694790853	-0.278315
H	 0.9247186934	 1.9522498586	-0.0299316695	 0.124967
H	-0.8193034412	 1.9618895492	-0.3467224034	 0.129552
H	-0.2190388151	 1.7236924785	 1.3019745003	 0.151277
H	-1.43312418	-0.5507931808	 1.5998747225	 0.145383
H	-1.4192752663	-1.7484899155	 0.1981703709	 0.123423
H	 0.1475177728	-1.1267603502	-1.9071593333	 0.112137
H	 1.6064128986	-0.1835210931	-1.4571750884	 0.114463
H	 2.2966427954	-1.4425556861	 2.2205120049	 0.089062
102.851	161.6761	192.7888	209.4399	285.1766	329.3193	424.5349	429.5885	526.6495	645.998	724.4743	759.817	817.9434	929.5226	961.3391	971.4782	995.7835	1032.4572	1046.941	1069.7391	1107.9462	1148.7809	1159.3406	1240.9914	1286.2086	1339.9818	1390.3479	1414.4155	1425.5883	1476.3159	1487.8602	1496.2588	1516.1017	1788.5583	2904.4834	3024.4975	3029.4268	3077.1745	3090.4933	3111.9466	3118.7086	3221.8602
CC12CC1(OC2)C=O	C[C@]12C[C@]1(OC2)C=O	
InChI=1S/C6H8O2/c1-5-2-6(5,3-7)8-4-5/h3H,2,4H2,1H3	InChI=1S/C6H8O2/c1-5-2-6(5,3-7)8-4-5/h3H,2,4H2,1H3/t5-,6+/m1/s1
