18
gdb 79367	3.07998	1.4663	1.13935	1.6578	84.26	-0.2318	0.0233	0.2551	1106.3199	0.146649	-364.684054	-364.676141	-364.675197	-364.716122	31.456	
C	-0.1649288029	 1.5682796387	 0.0415486705	-0.423979
C	-0.0263934611	 0.0634718425	-0.0625154809	 0.06
C	 0.9014943784	-0.5833833782	-1.0901209354	-0.120112
C	 2.130805488	-0.2754302998	-0.1850952455	-0.040769
C	 2.6236066099	-1.7212828458	-0.1575803925	-0.308117
C	 1.0900263306	-1.8064507083	-0.12181743	 0.270919
C	 0.24372575	-2.951188574	 0.0212911795	 0.114069
C	-0.4577114352	-3.9230620801	 0.1258244472	-0.368665
N	 1.0161178308	-0.5809643782	 0.8607174617	-0.197717
H	 0.7912125841	 2.0833132733	-0.0911288335	 0.116306
H	-0.8564105022	 1.9420241172	-0.7213324462	 0.119604
H	-0.5648819911	 1.8451399639	 1.022419159	 0.130623
H	-1.0002622619	-0.4262433076	 0.054685785	 0.08203
H	 0.8550666886	-0.6167471878	-2.1843009673	 0.069426
H	 2.7074438746	 0.6458202354	-0.1252917648	 0.090494
H	 3.1100280709	-2.1000827713	-1.0594177883	 0.104883
H	 3.1364185765	-2.0423110781	 0.752397017	 0.116619
H	-1.0770341482	-4.7802211818	 0.2241494545	 0.184388
119.4973	160.0197	207.2635	252.8093	273.442	408.3527	430.8101	524.3779	534.7188	607.6839	631.2171	657.0226	702.022	741.0452	830.5546	853.975	854.8092	877.8832	942.9043	1006.5868	1022.5585	1039.7337	1046.8715	1091.0206	1103.2108	1130.3847	1160.0606	1167.661	1215.7092	1240.1135	1268.0573	1281.2766	1296.2566	1401.7045	1417.9658	1491.7219	1493.9703	1494.8372	2231.1903	3035.6534	3038.3583	3046.3827	3062.2606	3101.7916	3110.9173	3130.0769	3134.9001	3499.8687
CC1C2C3CC2(C#C)N13	C[C@H]1[C@H]2[C@@H]3C[C@@]2(C#C)N13	
InChI=1S/C8H9N/c1-3-8-4-6-7(8)5(2)9(6)8/h1,5-7H,4H2,2H3	InChI=1S/C8H9N/c1-3-8-4-6-7(8)5(2)9(6)8/h1,5-7H,4H2,2H3/t5-,6-,7-,8+/m0/s1
