22
gdb 123126	5.79965	0.45151	0.43048	29.5564	196.62	-0.1045	-0.0799	0.0246	2471.8834	0.192844	-441.395258	-441.384278	-441.383334	-441.434027	37.707	
N	-0.0895833406	 1.0591232036	-0.1575736931	-0.402951
H	-0.2129309922	 0.0622256483	-0.37474354	 0.31706
H	 0.9149080586	 1.2519769981	-0.0845959936	 0.327373
H	-0.4449310963	 1.6078036199	-0.9479061331	 0.330843
C	-0.8047880586	 1.4904516981	 1.137318316	-0.213606
C	-0.5902582934	 2.9674529834	 1.3866743119	-0.194644
C	-1.3620376203	 3.4565674248	 2.6294913955	-0.194414
C	-1.2223892162	 4.9715979683	 2.7939478106	-0.145858
C	-2.1137686007	 5.5968033937	 3.8612002882	-0.335619
C	-2.4708699028	 7.1104437876	 3.4965371853	 0.341714
O	-2.4311356525	 7.375182238	 2.2747411033	-0.48268
O	-2.7703125355	 7.8094218066	 4.4767723146	-0.470691
H	-1.8566108675	 1.237817081	 0.9851929947	 0.178004
H	-0.3931580154	 0.8554073632	 1.9250012605	 0.173841
H	 0.4811258315	 3.1744419401	 1.5120252508	 0.11774
H	-0.934089948	 3.5457876764	 0.5186239183	 0.130502
H	-2.4233184664	 3.2002834253	 2.5080569099	 0.102509
H	-1.0056716164	 2.9143073097	 3.5163478383	 0.093783
H	-0.166441493	 5.2168225965	 2.9776582269	 0.067913
H	-1.5086705626	 5.4823486815	 1.8632799412	 0.119301
H	-3.0728442154	 5.0594422106	 3.9076356549	 0.06667
H	-1.6778131362	 5.5551387554	 4.8637636288	 0.073208
22.1863	50.9544	58.9293	92.4093	129.0834	149.4986	222.2104	229.408	256.9239	355.3288	435.6719	483.4571	602.9084	673.7731	744.0858	767.134	798.2613	820.768	838.5762	901.2757	924.1357	981.5948	1009.5808	1021.4182	1052.	1090.7199	1131.9418	1202.6895	1220.1119	1262.7163	1272.4343	1284.0635	1319.2047	1321.8528	1328.8346	1343.9011	1359.8803	1382.0305	1457.863	1465.7245	1478.3793	1483.5939	1496.3049	1508.6108	1626.5613	1646.8839	1738.9756	2988.4756	2996.3492	3005.8435	3014.7037	3026.1575	3044.645	3065.2501	3081.2326	3084.635	3146.4192	3295.9254	3411.3493	3442.8624
[NH3+]CCCCCC([O-])=O	[NH3]CCCCCC(=O)[O]	
InChI=1S/C6H13NO2/c7-5-3-1-2-4-6(8)9/h1-5,7H2,(H,8,9)	InChI=1S/C6H13NO2/c7-5-3-1-2-4-6(8)9/h1-5H2,7H3
