20
gdb 47645	2.24543	1.71207	1.14148	2.5966	81.2	-0.2531	-0.006	0.2472	1116.4622	0.17328	-403.153859	-403.145636	-403.144692	-403.186767	31.992	
N	 0.0433001265	 1.3600830589	 0.1336965265	-0.468144
C	 0.0280627738	 0.0969957755	 0.0502395481	 0.347602
C	-1.2840165207	-0.6605244734	-0.0045388415	-0.245676
C	-1.9306032876	-0.7167589175	-1.4027805943	-0.187801
C	-0.9981369101	-1.2576609893	-2.5134216118	-0.261012
C	-0.3172092388	-2.5350511122	-2.1076730798	-0.030106
C	 0.821208203	-2.5906423448	-1.4131871941	-0.072946
C	 1.6409966175	-1.3821887703	-1.029296838	-0.135705
O	 1.1900311299	-0.6433735021	 0.1269213444	-0.262016
H	 1.0109500419	 1.6898056419	 0.1680282414	 0.21724
H	-1.1213921562	-1.6704719912	 0.3764815475	 0.115153
H	-1.9763693633	-0.1496917895	 0.6695566215	 0.126345
H	-2.8292338877	-1.3412286594	-1.3360169864	 0.09975
H	-2.2585200677	 0.2887650097	-1.6858954923	 0.120419
H	-1.5801157399	-1.4055055237	-3.4289245085	 0.102379
H	-0.2509716368	-0.4875952407	-2.7387831412	 0.112832
H	-0.8400294258	-3.4630788588	-2.3318355551	 0.093963
H	 1.2053084694	-3.555364125	-1.0927076474	 0.094612
H	 2.6526385386	-1.6898986124	-0.7571171585	 0.119569
H	 1.7244063339	-0.6847490557	-1.8728416806	 0.113541
63.8046	144.6627	206.2502	235.2552	294.5469	299.9024	426.8761	480.0814	499.1394	544.9088	613.443	681.4201	750.3622	791.7561	830.1875	856.4047	903.7527	947.3984	961.8384	996.2267	1001.128	1009.0908	1051.6596	1072.0531	1093.1919	1113.2085	1190.3201	1202.8835	1268.3231	1286.7607	1292.5718	1304.4132	1340.1025	1368.3239	1380.3156	1407.1279	1425.8016	1475.1754	1485.2016	1493.9427	1510.0992	1711.8775	1734.032	3020.0292	3033.4805	3035.0577	3071.996	3074.9635	3085.9964	3105.299	3124.7822	3140.5686	3169.1215	3453.901
N=C1CCCC=CCO1	[NH][C]1CCCC=CCO1	
InChI=1S/C7H11NO/c8-7-5-3-1-2-4-6-9-7/h2,4,8H,1,3,5-6H2/b4-2-,8-7?	InChI=1S/C7H11NO/c8-7-5-3-1-2-4-6-9-7/h2,4,8H,1,3,5-6H2/b4-2-,8-7?
