18
gdb 41069	3.99716	1.86222	1.6516	1.5997	77.71	-0.2097	0.0689	0.2786	859.0836	0.150098	-364.672801	-364.666907	-364.665963	-364.70256	26.17	
C	-0.0242504052	 1.4522430016	 0.2747407572	-0.263142
C	 1.4635029778	 1.6017922985	-0.2304586262	-0.360873
C	 1.2600459225	 0.2331800507	-0.8871117431	 0.365486
C	 1.8251849726	-1.0838216594	-1.4392264418	-0.238165
C	 0.9805498156	-1.0623788844	-2.6983196053	-0.107459
C	 0.4403556654	-1.8145723275	-1.5239709321	-0.029475
N	-0.598501088	-0.7800954565	-1.1329013073	-0.176864
C	 0.0791843182	-0.0954499842	 0.024244651	 0.023695
C	 0.2220578037	 0.1242164414	-2.0754091164	-0.060243
H	-0.2081740929	 1.7415862052	 1.3103895649	 0.105383
H	-0.7517842232	 1.9580688644	-0.3627830936	 0.117349
H	 1.7096171233	 2.4506978794	-0.8739836221	 0.101287
H	 2.1689511029	 1.5739520855	 0.6058150675	 0.107981
H	 2.7373345141	-1.6243493959	-1.2264931901	 0.089229
H	 1.1769385176	-1.3576119454	-3.7204692756	 0.093084
H	 0.3107808265	-2.8754685152	-1.3548414233	 0.093188
H	 0.1814433798	-0.7005307151	 0.9289760196	 0.066327
H	-0.2615180606	 0.9545930969	-2.5850922532	 0.073211
253.0137	275.386	356.8426	542.8364	557.8404	686.2161	691.1448	740.1762	776.6076	800.8317	802.7266	842.9732	853.867	858.4553	889.8219	898.1404	905.0644	923.5979	987.69	1011.524	1025.3769	1047.5747	1059.8351	1080.6702	1106.809	1111.8941	1140.6785	1180.2007	1187.8327	1194.2525	1219.3191	1235.6949	1245.4304	1261.4303	1306.0137	1326.1091	1352.4004	1473.1816	1490.708	3049.4243	3073.6663	3079.849	3100.4876	3133.5105	3139.4666	3192.7375	3201.1211	3214.894
C1CC23C4C5C4N(C12)C35	C1C[C@@]23[C@@H]4[C@H]5[C@@H]4N([C@H]12)[C@@H]35	
InChI=1S/C8H9N/c1-2-8-3(1)9-6-4(5(6)8)7(8)9/h3-7H,1-2H2	InChI=1S/C8H9N/c1-2-8-3(1)9-6-4(5(6)8)7(8)9/h3-7H,1-2H2/t3-,4+,5-,6+,7-,8+/m1/s1
