19
gdb 92383	2.17442	1.58275	1.25265	1.4866	81.82	-0.2464	0.0303	0.2767	1106.7608	0.158145	-385.824913	-385.816275	-385.815331	-385.858252	33.194	
C	-0.5898884886	 1.3557750573	 0.0410302035	-0.42032
C	 0.0526366645	-0.0181059006	-0.069733752	-0.026946
C	 1.3609910186	-0.1728501099	-0.9119764326	-0.258131
C	 2.0784111968	-0.786236488	 0.306088203	 0.068231
O	 2.7764460569	 0.197658049	 1.0882952163	-0.285884
C	 1.6651994983	 0.3522128676	 1.9952575058	-0.125912
C	 0.7835612245	-0.6306979373	 1.185385558	 0.110326
C	 0.1156370841	-1.6838414493	 1.8977813423	 0.190152
C	-0.4561483084	-2.5645054437	 2.4863739506	-0.414378
H	 0.1356652726	 2.1279322752	 0.3160318906	 0.123951
H	-1.0257625491	 1.6481022616	-0.9204006854	 0.12116
H	-1.3927333446	 1.3610584621	 0.7862872351	 0.123332
H	-0.6971782357	-0.7402221909	-0.4027971738	 0.087078
H	 1.2610931133	-0.8430654909	-1.7692518596	 0.105067
H	 1.8244225876	 0.7608348144	-1.2400276232	 0.111466
H	 2.6406975313	-1.7160425707	 0.1928248725	 0.084536
H	 1.9092327752	-0.0165653423	 2.9980283376	 0.111943
H	 1.318516079	 1.3892172389	 2.0659355611	 0.104503
H	-0.9546056662	-3.3435269125	 3.0079966201	 0.189826
59.0344	128.7177	160.5044	223.3207	285.3763	319.953	371.116	437.8422	501.2075	521.4556	581.3699	618.0143	624.0669	636.2455	771.9291	842.5308	874.0755	906.627	943.521	968.3772	1009.9598	1019.9299	1061.9524	1111.2499	1116.1716	1137.3404	1164.9265	1178.2547	1198.1388	1233.0728	1268.3356	1289.0214	1326.9802	1350.1982	1381.0439	1410.5272	1470.1026	1492.747	1498.5231	1528.4847	2228.3811	3024.439	3031.2761	3061.0923	3067.9465	3072.5605	3085.3412	3096.5658	3104.8361	3121.4487	3501.5845
CC1CC2OCC12C#C	C[C@H]1C[C@H]2OC[C@@]12C#C	
InChI=1S/C8H10O/c1-3-8-5-9-7(8)4-6(8)2/h1,6-7H,4-5H2,2H3	InChI=1S/C8H10O/c1-3-8-5-9-7(8)4-6(8)2/h1,6-7H,4-5H2,2H3/t6-,7+,8-/m0/s1
