19
gdb 104645	2.39116	1.2616	1.00223	2.9172	71.95	-0.2411	-0.0308	0.2103	1252.7274	0.156138	-460.151599	-460.141751	-460.140807	-460.187056	35.041	
C	 0.3314617812	 1.5104597739	-0.3448898267	-0.399434
C	-0.0298251728	 0.0468621052	-0.217153037	 0.163897
C	 0.646281874	-0.969489977	-1.164674398	-0.370099
C	 1.155668329	-1.6303831266	 0.128639854	 0.294469
C	 2.6579660143	-1.7646004109	 0.3549635463	-0.135272
O	 3.1972520631	-2.8813042152	-0.3293982157	-0.407694
O	 0.5948416035	-0.5726879227	 0.9498738162	-0.342493
C	 0.44230096	-2.9294306393	 0.4968590814	 0.137986
O	-0.2647900847	-3.5602754048	-0.2435828623	-0.250153
H	 1.416006497	 1.6407165396	-0.4117172284	 0.119189
H	-0.1280844667	 1.9365173008	-1.243491207	 0.122208
H	-0.0300781548	 2.0711989958	 0.522560387	 0.13245
H	-1.1186521421	-0.0760893995	-0.1623453298	 0.090066
H	-0.0167414791	-1.5942306426	-1.7625015892	 0.137464
H	 1.4305049084	-0.5388036129	-1.7926532771	 0.10011
H	 3.1527776631	-0.8203917031	 0.0844145944	 0.098333
H	 2.8419539625	-1.9373216444	 1.4212210232	 0.126168
H	 3.0690292109	-2.7489918511	-1.2747863661	 0.293252
H	 0.5951597032	-3.225692515	 1.5585333447	 0.089555
52.844	69.7647	95.959	183.2245	204.0337	233.928	272.6776	314.7327	356.2606	369.7362	416.1774	490.6899	569.9638	686.8503	782.269	888.8007	903.2758	908.0453	916.7997	986.8602	1001.1082	1047.8701	1073.0827	1093.7089	1115.3766	1145.4428	1196.4993	1229.9731	1261.7167	1293.7185	1320.9628	1364.1246	1388.4151	1400.6451	1411.3722	1416.5167	1481.2269	1486.5905	1493.438	1502.6243	1834.9666	2890.7497	2999.6458	3025.9308	3034.4111	3069.8426	3075.5804	3107.8441	3114.3824	3145.6435	3810.491
CC1CC(CO)(O1)C=O	C[C@H]1C[C@@](CO)(O1)C=O	
InChI=1S/C6H10O3/c1-5-2-6(3-7,4-8)9-5/h3,5,8H,2,4H2,1H3	InChI=1S/C6H10O3/c1-5-2-6(3-7,4-8)9-5/h3,5,8H,2,4H2,1H3/t5-,6+/m0/s1
