21
gdb 64011	2.51024	1.40709	1.13558	3.6465	84.76	-0.2343	-0.0466	0.1877	1175.5548	0.182243	-387.140616	-387.131715	-387.130771	-387.173627	34.937	
C	 0.0331841785	 1.5419198611	 0.0127686535	-0.419391
C	-0.0581250884	 0.0086455879	-0.0100016614	 0.235587
C	-1.5427062859	-0.404748903	-0.0486352591	-0.412978
C	 0.6773821435	-0.5363316018	-1.2576545929	-0.270547
C	 0.9675953418	-2.0097688342	-1.199130043	-0.054438
C	 0.9884564897	-2.7190972965	-0.0639679326	-0.140433
C	 0.737544667	-2.0924641893	 1.2508195014	 0.362802
O	 0.6732783363	-2.7462566423	 2.2731531924	-0.33339
C	 0.618431104	-0.5721486115	 1.2513905929	-0.32526
H	 1.0740787007	 1.8793937036	 0.0643263357	 0.109792
H	-0.4167944965	 1.9756459803	-0.8874209841	 0.111193
H	-0.4955374922	 1.9525522354	 0.879668671	 0.116073
H	-2.0442551185	 0.0336277355	-0.9181671924	 0.110496
H	-1.6649068597	-1.490205911	-0.1031939334	 0.125291
H	-2.0636489619	-0.0547965682	 0.848597143	 0.117851
H	 0.0982877104	-0.3116647445	-2.1624349837	 0.108875
H	 1.6319585329	-0.0023410179	-1.3864305071	 0.115254
H	 1.1769748535	-2.5051463125	-2.1453185125	 0.106661
H	 1.1869397031	-3.7862013549	-0.0528933015	 0.105169
H	 1.643249673	-0.1784950827	 1.3248667696	 0.114965
H	 0.0974403588	-0.2706134836	 2.1649608443	 0.116429
92.8986	149.8083	224.8461	246.6658	285.2368	305.4132	324.8994	363.8173	392.6107	468.2658	481.8563	498.1441	591.9856	674.5408	752.5833	800.9166	861.8214	902.131	924.0335	938.0998	948.6417	987.2086	1014.4623	1024.8256	1038.6269	1121.7148	1147.5012	1183.0139	1204.577	1254.1161	1283.7286	1303.302	1318.8282	1368.4195	1401.2903	1406.3837	1423.4784	1453.5305	1465.2626	1485.2322	1492.3438	1504.7097	1510.3766	1683.6466	1777.098	2988.503	3006.2076	3023.0436	3033.2834	3040.3646	3087.4725	3091.3541	3095.2702	3100.1616	3111.9243	3145.9663	3188.9907
CC1(C)CC=CC(=O)C1	CC1(C)CC=CC(=O)C1	
InChI=1S/C8H12O/c1-8(2)5-3-4-7(9)6-8/h3-4H,5-6H2,1-2H3	InChI=1S/C8H12O/c1-8(2)5-3-4-7(9)6-8/h3-4H,5-6H2,1-2H3
