15
gdb 17049	5.57758	1.36671	1.30905	1.9953	63.01	-0.2486	-0.0056	0.2431	950.1554	0.118382	-399.718553	-399.711298	-399.710354	-399.750386	26.363	
C	 0.1801121728	 1.2836850323	 0.1782077557	-0.244589
O	-0.3160085899	 0.0339851953	-0.2575939781	-0.241578
C	 0.4401279476	-0.5341948565	-1.2680366558	 0.211348
C	 1.7656851746	-1.3002655043	-0.9003905054	-0.210731
N	 0.8616393938	-2.3449965751	-0.2451525302	-0.299067
C	 0.1269114151	-2.0243121567	-1.5498199921	-0.204694
C	 1.5316015014	-2.1115921537	-2.1908941133	 0.422356
O	 2.1277105325	-2.6931634225	-3.0443180287	-0.323708
H	 1.1689321188	 1.1878931664	 0.6486682185	 0.114035
H	 0.2565265429	 2.0011624529	-0.6532559305	 0.109074
H	-0.5272326504	 1.6685773084	 0.9153513348	 0.136503
H	 0.5147714123	 0.121431674	-2.1466030621	 0.083993
H	 2.6776382517	-0.9425128833	-0.4277879083	 0.103017
H	 1.2904164686	-3.2739830641	-0.2893141303	 0.2355
H	-0.8247907517	-2.4821499231	-1.8091136641	 0.108543
82.2116	146.9705	168.1903	226.5668	338.6826	394.802	505.3057	553.3334	691.3062	742.204	789.7187	809.8391	867.6764	950.059	992.7695	1028.6766	1048.9797	1112.9291	1127.6407	1145.0275	1176.4738	1180.3017	1188.1242	1216.0727	1235.6915	1274.644	1285.1307	1417.2337	1483.6899	1489.4443	1506.7255	1905.2153	2982.1862	3015.654	3036.1513	3127.4108	3151.7293	3157.8448	3411.0011
COC1C2NC1C2=O	CO[C@H]1[C@H]2N[C@@H]1C2=O	
InChI=1S/C5H7NO2/c1-8-5-2-4(7)3(5)6-2/h2-3,5-6H,1H3	InChI=1S/C5H7NO2/c1-8-5-2-4(7)3(5)6-2/h2-3,5-6H,1H3/t2-,3+,5-
