17
gdb 31580	3.35114	1.15984	0.87139	1.5595	72.58	-0.1665	0.0644	0.2309	1299.137	0.13708	-451.349492	-451.33999	-451.339046	-451.38362	34.317	
C	-0.0194235857	 1.3706614148	 0.1103007509	-0.232954
O	-0.0305536226	-0.0542545174	 0.0367398291	-0.273254
C	-1.2518612816	-0.6070279916	 0.0328169429	 0.483805
N	-2.4070029973	 0.0148166213	 0.0811542573	-0.419311
C	-3.3498898837	-0.9953042608	 0.0453249092	 0.236875
N	-4.7132740088	-0.687069544	 0.1516912552	-0.60035
C	-2.7571248393	-2.2284458557	-0.0264891211	 0.167897
N	-3.2151703134	-3.5579775373	-0.0557630742	-0.620053
N	-1.3746628147	-1.947019895	-0.034682221	-0.361125
H	 1.0323541468	 1.6593694937	 0.1116879975	 0.126785
H	-0.5338710786	 1.8090987464	-0.750193013	 0.134894
H	-0.5117190049	 1.7171885431	 1.0238410021	 0.138149
H	-5.2969132404	-1.3024610487	-0.4010831344	 0.231165
H	-4.8782445719	 0.2744053413	-0.1190865717	 0.24562
H	-3.821683073	-3.7808640942	 0.7256124979	 0.243555
H	-3.6983780502	-3.8034088851	-0.9136698398	 0.235308
H	-0.6352616509	-2.627367141	-0.063944087	 0.262995
83.8551	143.7801	151.0886	198.448	214.3854	237.2369	261.721	279.2553	330.9009	398.1774	462.7973	551.2734	654.9443	665.9357	672.7366	725.3585	734.3552	795.6349	834.1751	1017.4622	1075.5098	1112.4749	1182.7104	1187.7368	1211.3161	1224.1311	1247.4544	1345.5464	1440.118	1465.1398	1476.5252	1501.6887	1520.9032	1609.5769	1634.3339	1657.1223	1683.2913	3039.2389	3108.4302	3148.061	3492.207	3528.6946	3559.0072	3625.1765	3681.1716
COC1=NC(N)=C(N)N1	COc1nc(N)c(N)[nH]1	
InChI=1S/C4H8N4O/c1-9-4-7-2(5)3(6)8-4/h5-6H2,1H3,(H,7,8)	InChI=1S/C4H8N4O/c1-9-4-7-2(5)3(6)8-4/h5-6H2,1H3,(H,7,8)
