21
gdb 113321	2.51587	1.0536	0.8441	1.7074	86.53	-0.2565	0.0288	0.2853	1474.617	0.178857	-387.048087	-387.037503	-387.036559	-387.084002	38.433	
C	 0.4593314037	 1.4012724972	 0.2368501295	-0.376267
C	-0.2957209931	 0.1297475965	-0.1737854303	-0.224955
C	 0.3479699961	-0.528293396	-1.3705811791	 0.033542
O	 1.5668287481	-1.2463786301	-1.1643616133	-0.288797
C	 0.4180453747	-1.9893338017	-1.6311424277	 0.169322
C	-0.1222552103	-3.0420513343	-0.6762206728	-0.268047
C	 0.8065838097	-4.2570744168	-0.5676478669	-0.38138
C	 0.4952154487	-2.4117892901	-3.015219663	 0.307677
C	 0.5325427517	-2.7776213715	-4.1600184142	-0.436002
H	 1.4945232122	 1.1651611212	 0.5004543299	 0.135879
H	 0.4788140564	 2.1321106332	-0.5786760706	 0.118547
H	-0.0139416013	 1.8758026129	 1.1012168282	 0.11532
H	-0.329981052	-0.5646493774	 0.6696828903	 0.108205
H	-1.3336984724	 0.3763996966	-0.431638504	 0.105765
H	 0.3712085618	 0.1039267342	-2.2618487594	 0.091877
H	-0.2579150222	-2.5937580378	 0.3106687158	 0.107318
H	-1.1122229983	-3.3524374018	-1.0308545958	 0.108763
H	 0.3984377143	-4.9943506439	 0.1295562052	 0.112102
H	 0.9360112924	-4.741771414	-1.5396281379	 0.130955
H	 1.7933736608	-3.9530385615	-0.2064244195	 0.13287
H	 0.574882079	-3.0940955949	-5.1729622246	 0.197307
57.7963	75.6011	128.7825	134.6751	168.6426	207.8677	235.3121	254.9887	312.8869	379.7781	411.1351	490.9841	556.6046	614.3577	635.7581	659.5066	667.3435	752.2798	786.2079	835.2563	928.5782	937.623	973.9038	1018.914	1040.3158	1092.482	1099.5378	1147.7266	1160.3909	1234.145	1286.5589	1303.2857	1324.9846	1348.2657	1372.6162	1407.7041	1408.7459	1466.3219	1467.4972	1480.1295	1496.7938	1498.4945	1507.5937	1509.8395	2233.4342	3032.5101	3037.8624	3043.5145	3044.2316	3075.7711	3090.1236	3100.3826	3112.5043	3116.3298	3118.1306	3124.6411	3501.6067
CCC1OC1(CC)C#C	CC[C@H]1O[C@]1(CC)C#C	
InChI=1S/C8H12O/c1-4-7-8(5-2,6-3)9-7/h2,7H,4,6H2,1,3H3	InChI=1S/C8H12O/c1-4-7-8(5-2,6-3)9-7/h2,7H,4,6H2,1,3H3/t7-,8+/m1/s1
