16
gdb 9704	3.81693	1.58298	1.5701	2.3298	65.85	-0.2494	-0.0349	0.2145	881.9387	0.12985	-383.761467	-383.753992	-383.753048	-383.793575	28.065	
O	 0.1773796578	 1.543854129	-0.1946387183	-0.48174
C	-0.0166263954	 0.1822456872	 0.07705794	 0.342125
C	 0.5309964883	-0.2398721118	 1.4824708482	-0.326196
C	-0.5416842347	-1.1370791522	 2.0406501498	-0.059967
C	-1.6484138158	-1.1271510829	 1.2995673753	-0.059992
C	-1.5296504896	-0.2212931109	 0.1026825241	-0.326146
C	 0.686582689	-0.6421915824	-0.9837965144	 0.113026
O	 1.3006624536	-0.1372673022	-1.8924645726	-0.279044
H	 0.7183373598	 1.5786074761	-1.000080055	 0.290478
H	 1.5133286281	-0.7263869342	 1.4246290834	 0.10739
H	 0.6702837645	 0.6694422729	 2.07919751	 0.134181
H	-0.4124156845	-1.6899858078	 2.9643759652	 0.099502
H	-2.5585385777	-1.6707725469	 1.5272338009	 0.099506
H	-2.1231394554	 0.6945851389	 0.2089571433	 0.134188
H	-1.8564650797	-0.6958069362	-0.8316943712	 0.107375
H	 0.6020169217	-1.7427419167	-0.8738145888	 0.105312
54.0984	111.8975	294.7403	295.1013	369.4974	385.5305	402.2487	490.5215	501.4275	673.6947	747.3302	772.5399	832.6131	879.2225	928.2008	964.7083	981.1223	986.3432	1007.738	1062.9245	1113.6591	1123.2546	1144.8339	1154.206	1271.9254	1291.8519	1330.992	1367.1218	1384.3293	1437.8024	1479.2157	1487.9794	1690.959	1812.22	2931.0594	3020.9804	3023.2552	3058.0852	3058.7205	3184.2451	3208.7714	3680.6923
OC1(CC=CC1)C=O	O[C@]1(CC=CC1)C=O	
InChI=1S/C6H8O2/c7-5-6(8)3-1-2-4-6/h1-2,5,8H,3-4H2	InChI=1S/C6H8O2/c7-5-6(8)3-1-2-4-6/h1-2,5,8H,3-4H2
