13
gdb 130629	5.0847	1.29401	1.03813	0.9859	65.47	-0.2292	-0.0202	0.209	1036.9035	0.091237	-452.767904	-452.761299	-452.760355	-452.799044	25.241	
O	 0.0362113254	 0.0029005625	 0.0039000698	-0.333901
C	-0.0282808863	 1.2016608408	 0.0094325811	 0.426094
C	-1.3066787939	 2.0956650865	 0.0326669659	-0.507603
C	-0.727936352	 3.478434059	 0.0314626253	 0.109517
C	 0.6260975077	 3.3655933982	 0.0118697208	 0.528998
N	 1.0834421278	 2.0691520074	-0.0010164481	-0.455181
O	 1.2641692631	 4.51557658	 0.0089644952	-0.239652
N	 0.2437857113	 5.5352440552	 0.0283178724	-0.161802
C	-0.9009840364	 4.879920838	 0.0410278018	-0.107034
H	-1.9186406858	 1.8473786528	-0.8408571592	 0.158537
H	-1.8932684553	 1.8382714064	 0.9208450118	 0.15863
H	 2.0382127847	 1.7503795542	-0.015818148	 0.283229
H	-1.8089532104	 5.467316399	 0.0568171712	 0.140167
102.8266	218.432	281.4622	349.8344	416.8301	540.3482	544.0733	565.5364	612.2923	724.3055	734.5476	788.9757	821.3319	839.7497	910.8093	962.8786	969.9014	1109.5445	1158.7318	1193.0507	1228.8835	1245.7241	1275.0871	1417.0132	1446.526	1457.2488	1566.782	1650.6652	1863.9496	3054.7307	3090.0059	3239.0465	3667.2153
O=C1CC2=C(N1)ON=C2	O=C1Cc2c(N1)onc2	
InChI=1S/C5H4N2O2/c8-4-1-3-2-6-9-5(3)7-4/h2H,1H2,(H,7,8)	InChI=1S/C5H4N2O2/c8-4-1-3-2-6-9-5(3)7-4/h2H,1H2,(H,7,8)
