22
gdb 22455	1.97136	1.16142	0.8543	1.1247	82.11	-0.2401	0.0177	0.2578	1477.1279	0.190401	-441.441247	-441.429985	-441.42904	-441.477878	40.084	
C	 0.0789344887	 1.5100162678	 0.2728230777	-0.38064
C	-0.1369469048	 0.0106795571	 0.4744703712	-0.238693
C	-1.4965836535	-0.5002300919	 0.0696551727	 0.327273
N	-2.3455777808	 0.3479851756	-0.3676226118	-0.184946
O	-3.5709241535	-0.2564756644	-0.7219425612	-0.40671
C	-1.7860496549	-1.9880145626	 0.1746689035	 0.064467
C	-1.6644417638	-2.6614501143	-1.2017055667	-0.405672
O	-0.8811194044	-2.5358522779	 1.1232413626	-0.256502
C	-1.2813062003	-3.7740991962	 1.6619735276	-0.236383
H	 1.0880877713	 1.7895116519	 0.5899102697	 0.103087
H	-0.0451597943	 1.7928079615	-0.7758261481	 0.123235
H	-0.6395542167	 2.0944837051	 0.8531293537	 0.125929
H	 0.6184927184	-0.563162237	-0.079898967	 0.114945
H	 0.0238861389	-0.2687005101	 1.5219482463	 0.128647
H	-4.096254613	 0.5039469741	-0.9905881617	 0.305305
H	-2.8176750108	-2.1057152851	 0.5367478282	 0.094596
H	-0.6466279209	-2.5551846496	-1.5888331353	 0.121223
H	-1.8997136025	-3.7278468972	-1.1391870176	 0.114719
H	-2.3640782511	-2.197596056	-1.900108173	 0.143004
H	-1.2930302933	-4.5793552265	 0.9134198807	 0.108875
H	-0.5567708157	-4.0347552353	 2.4375421135	 0.127429
H	-2.2820059827	-3.7126179891	 2.1173259149	 0.106813
68.0816	68.7316	91.1312	162.7267	189.8503	209.8736	217.6643	233.2461	269.3199	308.6382	316.4871	360.7889	407.736	438.6283	564.4105	604.2033	627.8233	758.9303	791.7208	884.2447	959.3675	981.9846	1025.5987	1060.5823	1094.4098	1107.5091	1121.8857	1150.819	1183.6455	1217.7573	1239.3296	1278.3225	1342.1585	1363.5965	1377.7015	1392.183	1403.985	1415.9008	1465.2889	1478.5191	1486.3447	1491.4338	1492.3138	1501.7795	1505.4318	1512.6164	1730.9324	2979.7417	3002.2464	3022.8564	3030.0983	3045.9571	3047.1164	3061.7257	3111.6367	3115.0243	3116.2088	3124.3263	3137.9226	3825.8499
CCC(=NO)C(C)OC	CCC(=NO)[C@@H](C)OC	
InChI=1S/C6H13NO2/c1-4-6(7-8)5(2)9-3/h5,8H,4H2,1-3H3	InChI=1S/C6H13NO2/c1-4-6(7-8)5(2)9-3/h5,8H,4H2,1-3H3/t5-/m1/s1
