16
gdb 132520	3.08078	1.30154	0.92017	0.4951	76.07	-0.2169	0.0007	0.2176	1199.2244	0.12389	-445.928736	-445.92064	-445.919696	-445.961426	30.794	
C	-0.0705790199	 1.5332403727	 0.0453367497	-0.497857
C	-0.0147153532	 0.029554283	-0.013995472	 0.137859
C	-0.0479529901	-0.691130645	-1.2105257247	-0.165958
C	 0.0047208549	-2.0796578195	-1.2445590593	-0.199674
C	 0.0941115697	-2.7946839745	-0.0502965858	 0.411706
O	 0.1435788675	-4.1543562554	-0.124603545	-0.442698
C	 0.1297438847	-2.1100521544	 1.1654304594	-0.414974
C	 0.0748033693	-0.7250227552	 1.1526264318	 0.260445
F	 0.1099610532	-0.0799930284	 2.3287024724	-0.080239
H	 0.8188307846	 1.9510684542	 0.5295443855	 0.135121
H	-0.1393527212	 1.957114227	-0.9595461844	 0.121664
H	-0.9350460351	 1.8823043386	 0.6205980306	 0.135122
H	-0.1174791373	-0.1426820188	-2.1450757377	 0.099058
H	-0.0221333779	-2.6229145071	-2.181424716	 0.104306
H	 0.2034740817	-4.5185134267	 0.7643698741	 0.298612
H	 0.1989389389	-2.6301718406	 2.1153917312	 0.097507
82.8556	142.8386	236.4197	269.5272	329.3539	332.1771	355.4825	454.8499	467.1203	509.9553	572.4547	641.0296	713.1648	746.0053	774.1305	827.7649	840.0597	939.3464	971.1808	1014.2699	1062.956	1133.5568	1187.8358	1193.0416	1222.8238	1301.4731	1343.9356	1364.8664	1416.2688	1469.6481	1480.7042	1503.2239	1548.4042	1636.9475	1669.1701	3033.7196	3085.3061	3118.1632	3173.437	3181.3315	3207.5335	3826.9846
CC1=CC=C(O)C=C1F	Cc1ccc(O)cc1F	
InChI=1S/C7H7FO/c1-5-2-3-6(9)4-7(5)8/h2-4,9H,1H3	InChI=1S/C7H7FO/c1-5-2-3-6(9)4-7(5)8/h2-4,9H,1H3
