23
gdb 106372	3.25928	1.1448	1.05445	1.3428	85.14	-0.2557	0.0829	0.3386	1271.8694	0.206957	-388.2886	-388.279752	-388.278808	-388.321811	35.249	
C	 0.0619288758	 1.5273614799	 0.1735214303	-0.384342
C	-0.0584407911	 0.0141511001	-0.0479486033	-0.290776
C	 0.669306904	-0.4976494282	-1.2758545889	 0.372682
C	 2.2265248594	-0.4292331076	-1.4220581849	-0.269825
C	 1.9871466109	-1.5522182128	-2.4679335434	-0.029194
C	 0.8275049893	-2.0265846609	-1.5507259936	-0.271948
C	 1.23082929	-0.7954098909	-3.5674359569	 0.141529
O	 0.6126829072	-1.7242402709	-4.4441104662	-0.445354
C	 0.2328153593	 0.011891108	-2.6701002152	-0.297858
H	 1.1101424987	 1.8323175442	 0.2642478734	 0.117364
H	-0.3776959774	 2.0935356753	-0.6538121651	 0.116694
H	-0.4520803655	 1.8307210861	 1.0907486463	 0.111362
H	 0.3303045506	-0.5101964515	 0.8348083863	 0.090593
H	-1.1196331345	-0.261803702	-0.1208142294	 0.093048
H	 2.6770752038	 0.509311376	-1.7622741475	 0.083868
H	 2.7468331386	-0.7927074789	-0.5320047384	 0.093585
H	 2.7809628298	-2.2212961822	-2.7990803451	 0.062051
H	 1.1860626218	-2.5663592449	-0.6703814795	 0.087757
H	-0.0025975171	-2.5612179815	-2.0179915151	 0.10063
H	 1.9024948465	-0.1311863236	-4.1305499326	 0.057375
H	 0.0872529784	-1.229273148	-5.0800809009	 0.279669
H	-0.8029347932	-0.2555493998	-2.9051933908	 0.090246
H	 0.3458693147	 1.0945549041	-2.7801665897	 0.090845
81.843	140.1246	193.9467	205.4298	270.4646	290.9627	355.3251	410.5639	441.8706	485.9223	515.1173	606.181	687.0168	779.3137	821.2968	843.9037	854.9631	898.2496	918.8015	956.2553	964.3885	978.3795	996.4549	1017.9177	1044.4909	1066.4959	1083.2912	1109.7048	1140.8458	1145.1082	1181.7839	1210.9716	1228.4707	1241.2954	1241.7298	1257.7221	1302.8479	1318.039	1331.3104	1352.8881	1379.5706	1410.9013	1423.9172	1481.8928	1483.1785	1485.466	1499.3199	1507.6623	1523.6437	2987.5683	3008.6721	3033.8878	3038.2679	3040.5483	3042.9779	3060.646	3090.1455	3100.8717	3104.0265	3105.706	3119.6233	3121.851	3821.5806
CCC12CC(C1)C(O)C2	CC[C@@]12C[C@@H](C1)[C@@H](O)C2	
InChI=1S/C8H14O/c1-2-8-3-6(4-8)7(9)5-8/h6-7,9H,2-5H2,1H3	InChI=1S/C8H14O/c1-2-8-3-6(4-8)7(9)5-8/h6-7,9H,2-5H2,1H3/t6-,7-,8+/m0/s1
