13
gdb 11143	5.27912	1.36772	1.17964	2.9462	64.83	-0.2618	-0.07	0.1918	953.6675	0.096479	-361.509419	-361.502624	-361.50168	-361.540982	24.636	
O	 0.0029405314	-0.0350653162	 0.2067281061	-0.310845
C	 0.0063918559	 1.1637716559	 0.0809528238	 0.383199
C	-1.2419815986	 2.0568850831	-0.0329582807	-0.349524
C	-0.7001749886	 3.5095392347	-0.0213940846	-0.194504
C	 0.8140414256	 3.3359929129	-0.0632435764	-0.044872
C	 1.1893705065	 2.0579178626	 0.0066462741	-0.176894
C	-1.1910357759	 4.3399852913	-1.1230645751	 0.266895
N	-1.5721227314	 4.9972677575	-1.9937522669	-0.313355
H	-1.7622604359	 1.8242074361	-0.965606397	 0.163757
H	-1.9342164492	 1.8547485032	 0.7867378372	 0.149153
H	-0.9776086018	 4.0199303071	 0.9102991071	 0.149079
H	 1.4683502085	 4.197157212	-0.1284797961	 0.143743
H	 2.2029529534	 1.6793752099	 0.0232583987	 0.134166
61.4428	154.0287	211.7346	323.67	441.0407	490.4175	530.7014	571.2231	665.926	734.7191	804.8648	826.7888	844.2528	966.5404	1004.2018	1031.085	1039.6479	1119.9102	1166.7971	1184.4349	1237.9737	1275.9364	1318.3818	1357.9065	1455.3189	1657.2862	1828.9477	2359.9853	3026.7755	3081.9192	3129.9254	3208.6218	3236.7703
O=C1CC(C=C1)C#N	O=C1C[C@@H](C=C1)C#N	
InChI=1S/C6H5NO/c7-4-5-1-2-6(8)3-5/h1-2,5H,3H2	InChI=1S/C6H5NO/c7-4-5-1-2-6(8)3-5/h1-2,5H,3H2/t5-/m1/s1
