21
gdb 71727	2.48864	2.00718	1.46004	0.1435	85.08	-0.2102	0.0921	0.3024	997.9591	0.183315	-349.925172	-349.917345	-349.916401	-349.956741	32.344	
C	 0.0606904215	 1.4591727156	 0.0028412546	-0.497192
C	 0.0637069181	-0.0477793597	-0.0417933436	 0.269376
C	 0.1997849167	-0.7831111351	-1.3668003274	-0.283753
C	 0.1068515554	-2.210299845	-0.8698763088	-0.076211
C	-0.7989698826	-2.2931010045	 0.3457888596	-0.083614
C	 0.7061597089	-2.3247128591	 0.5171255606	-0.143656
C	 0.67691491	-0.8763069732	 1.0835310076	 0.314942
C	 1.5438755656	-0.3835666188	 2.2017671113	-0.51926
C	-0.8327421696	-0.8496493942	 0.8973218891	-0.180103
H	 1.0071442493	 1.8735504115	-0.3638227158	 0.115663
H	-0.7430594599	 1.86696246	-0.6209697317	 0.116982
H	-0.0929819836	 1.8353549946	 1.0189641121	 0.115869
H	-0.6084668747	-0.5266177194	-2.0627858174	 0.092281
H	 1.1570688466	-0.5717461354	-1.8592250858	 0.091913
H	 0.1663054032	-3.057986722	-1.5425898975	 0.079657
H	-1.5297171773	-3.0722085194	 0.5142943358	 0.081158
H	 1.3503649393	-3.1284570925	 0.8489797946	 0.079011
H	 2.601222627	-0.3652410698	 1.9082134436	 0.11586
H	 1.2691061091	 0.6298866193	 2.5098076565	 0.117877
H	 1.4593318576	-1.0292549286	 3.0838545781	 0.118364
H	-1.5966507003	-0.4066349342	 1.5235912543	 0.074836
183.6167	188.1488	209.8775	242.3194	299.0501	328.7587	411.6803	529.6164	586.6805	613.0161	714.2789	725.9746	744.303	775.4651	830.5043	864.0245	897.7382	917.2099	921.2981	952.5559	962.7304	980.4167	1002.0581	1025.0814	1040.9269	1065.966	1108.1077	1113.1429	1148.7186	1181.9362	1199.5566	1208.3027	1232.2849	1268.3118	1288.3948	1348.4058	1368.7218	1410.418	1421.8577	1438.2326	1482.6114	1490.7646	1491.9796	1497.3548	1508.1723	3016.0167	3021.4846	3025.75	3062.7566	3069.5971	3080.0818	3094.7989	3101.4152	3182.7788	3187.9008	3194.0718	3208.763
CC12CC3C4C3C1(C)C24	C[C@@]12C[C@@H]3[C@H]4[C@@H]3[C@]1(C)[C@@H]24	
InChI=1S/C9H12/c1-8-3-4-5-6(4)9(8,2)7(5)8/h4-7H,3H2,1-2H3	InChI=1S/C9H12/c1-8-3-4-5-6(4)9(8,2)7(5)8/h4-7H,3H2,1-2H3/t4-,5+,6-,7-,8+,9-/m1/s1
