14
gdb 49748	3.63067	1.32382	0.9701	2.0882	75.91	-0.243	-0.0928	0.1502	1122.3097	0.10279	-432.908807	-432.901323	-432.900379	-432.940995	27.662	
N	-0.0280623326	 1.3169884392	 0.0064542529	-0.462213
C	 0.002418065	 0.0483259567	 0.0022680155	 0.095829
N	-1.1745595115	-0.6907547345	 0.0088583879	-0.10106
C	-2.4637006154	-0.1618606452	 0.0202138333	 0.021358
C	-3.4268710397	-1.1119162611	 0.0246909838	-0.302314
C	-2.7664242234	-2.4138762481	 0.0156249823	 0.336944
O	-3.1969819808	-3.5454706178	 0.0156668961	-0.328448
C	-1.2605461564	-2.0915133848	 0.0053795927	 0.283918
N	-0.2736529548	-2.8798160642	-0.0043917244	-0.508188
H	 0.9163700787	 1.6957873703	 0.0006251836	 0.240662
H	 0.8796718328	-0.6014365282	-0.0062320133	 0.146713
H	-2.5519194337	 0.9149898425	 0.0241480025	 0.18324
H	-4.491815498	-0.9441837189	 0.033328374	 0.138444
H	-0.6336023703	-3.8394531561	-0.004585137	 0.255114
91.8495	169.1776	209.3667	246.398	304.6098	339.9698	424.9969	552.6312	567.0251	672.3275	749.5207	754.3972	814.234	817.0151	837.1339	932.6956	938.7605	991.1845	1069.7978	1074.3667	1136.0808	1159.2454	1230.8626	1321.9295	1354.4531	1406.9917	1448.4477	1610.5713	1718.67	1757.0699	1809.882	3122.3966	3255.2222	3273.8203	3437.0781	3519.5447
N=CN1C=CC(=O)C1=N	[NH][CH]N1C=CC(=O)[C]1[NH]	
InChI=1S/C5H5N3O/c6-3-8-2-1-4(9)5(8)7/h1-3,6-7H	InChI=1S/C5H5N3O/c6-3-8-2-1-4(9)5(8)7/h1-3,6-7H
