14
gdb 18924	3.57207	2.68491	2.06773	3.1577	60.26	-0.2172	-0.0202	0.197	674.5906	0.110434	-378.65613	-378.650724	-378.64978	-378.685481	22.151	
O	 0.004647808	 0.0977267412	-0.014198578	-0.333995
C	-0.0188516066	 1.2935836361	 0.0149621136	 0.497132
C	-1.1799311178	 2.3052464444	-0.0317210961	-0.174655
N	-0.8962748671	 2.9198812966	 1.3233945685	-0.339137
C	 0.2685133221	 3.5316627621	 0.6235766252	 0.001547
C	-0.3753281115	 3.4639726995	-0.779402554	-0.023005
N	 0.8906716782	 2.9449709508	-1.3450573444	-0.319156
C	 1.1071249795	 2.3396231363	 0.0150283775	-0.132959
H	-2.1845655406	 1.962354847	-0.2631880346	 0.092176
H	-1.5799348162	 3.6568448244	 1.4936045493	 0.226356
H	 0.7902380508	 4.3808124966	 1.0591086227	 0.09553
H	-0.9102920694	 4.2580643703	-1.3005822914	 0.088623
H	 0.7945023094	 2.255638372	-2.0926979824	 0.224975
H	 2.1157832314	 2.0615992327	 0.3089390343	 0.096569
169.8697	397.8233	421.4819	486.3223	595.7392	727.0561	765.6487	787.4075	802.2631	811.6823	838.2252	867.8812	916.0944	950.4378	961.9097	1010.6845	1028.2627	1062.4174	1106.2296	1126.3186	1152.3643	1160.1996	1196.4012	1206.8295	1241.7496	1288.2398	1324.2055	1334.183	1349.2978	1896.6366	3113.7384	3147.6745	3161.9844	3166.1145	3436.4645	3465.0234
O=C1C2NC3C2NC13	O=C1[C@H]2N[C@@H]3[C@H]2N[C@H]13	
InChI=1S/C5H6N2O/c8-5-3-1-2(7-3)4(5)6-1/h1-4,6-7H	InChI=1S/C5H6N2O/c8-5-3-1-2(7-3)4(5)6-1/h1-4,6-7H/t1-,2-,3+,4+/m1/s1
