16
gdb 51941	5.32375	0.48344	0.46504	3.8591	77.39	-0.2526	-0.0351	0.2175	2233.8962	0.121466	-437.88584	-437.875666	-437.874722	-437.924974	33.11	
O	-0.3087751596	 0.0985871439	 0.071294861	-0.226952
C	 0.3609493182	 0.8107874647	-0.6243381583	 0.171294
C	 1.2056917451	 1.9685502015	-0.0814775305	-0.414928
C	 1.2091114205	 3.1181538024	-0.9733652289	 0.035352
C	 1.1677497367	 4.0353518118	-1.7524280952	 0.078051
C	 1.1375316183	 5.1745266422	-2.6648561447	-0.293642
N	 2.4666636078	 5.5724724648	-3.1144738688	-0.268917
C	 2.7826652792	 5.6742380239	-4.4343565939	 0.16184
O	 2.0073005816	 5.5088670715	-5.3511881821	-0.317601
H	 0.4303540618	 0.6708997221	-1.7244406586	 0.099789
H	 0.8432626982	 2.2155391777	 0.9216284529	 0.156999
H	 2.2295004098	 1.5808995483	 0.0354858355	 0.158081
H	 0.5752713337	 4.936757399	-3.5736278009	 0.179883
H	 0.6275562039	 6.0203407081	-2.1845805852	 0.143183
H	 3.1951138067	 5.680443986	-2.4270877608	 0.254815
H	 3.8480804483	 5.9383621219	-4.5803455516	 0.082752
12.4857	26.2789	50.4809	102.4734	122.5099	223.128	253.1701	283.7434	338.2489	448.2799	484.7279	522.8785	536.0947	710.9327	758.5779	844.906	966.7264	1028.1318	1031.9908	1041.6068	1043.6802	1163.438	1202.9954	1211.1386	1261.2091	1290.1738	1374.7401	1413.814	1426.0275	1439.6799	1481.0392	1521.0661	1805.9281	1842.6135	2369.113	2907.8376	2946.4667	3003.5543	3016.3606	3081.3117	3086.1453	3641.7763
O=CCC#CCNC=O	O=CCC#CCNC=O	
InChI=1S/C6H7NO2/c8-5-3-1-2-4-7-6-9/h5-6H,3-4H2,(H,7,9)	InChI=1S/C6H7NO2/c8-5-3-1-2-4-7-6-9/h5-6H,3-4H2,(H,7,9)
