19
gdb 95387	2.60073	1.65502	1.17149	2.3413	69.44	-0.2418	0.0563	0.2981	1058.8666	0.1617	-460.16121	-460.153428	-460.152484	-460.193735	29.987	
O	 0.1803762497	 1.3031038292	-0.4242716485	-0.42836
C	 0.0329146165	-0.0246384757	 0.0457484808	 0.08868
C	 0.3614582787	-0.2177662508	 1.5387261298	-0.126361
O	-0.3421087821	-1.3862195925	 1.9231271663	-0.262252
C	-1.5734303773	-1.4276208579	 1.1953940988	 0.086301
C	-2.7764539119	-0.8533815363	 1.9834140291	-0.102115
O	-3.4666351922	 0.0031743879	 1.0911030324	-0.246552
C	-2.4735894978	 0.6369665057	 0.2943877158	-0.095862
C	-1.4377807433	-0.4647373045	-0.0149268215	-0.073958
H	 1.1175905339	 1.5196738242	-0.433257776	 0.28981
H	 0.6438388214	-0.7182887341	-0.5494374423	 0.078475
H	 1.4240047106	-0.3806302213	 1.7443039906	 0.102884
H	 0.0316132226	 0.6726210647	 2.0982741572	 0.096355
H	-1.7359429531	-2.469808046	 0.9106564581	 0.087436
H	-3.4790300949	-1.6149264001	 2.3307038863	 0.108435
H	-2.3899193939	-0.3066300914	 2.8591285414	 0.095645
H	-2.9614145132	 1.0385117298	-0.5956594486	 0.114154
H	-2.0087212107	 1.4730115579	 0.8361337529	 0.104049
H	-1.678146113	-0.9567926688	-0.9581724527	 0.083235
71.8485	168.3468	207.4874	250.472	259.955	367.7436	421.4867	509.2456	592.9055	600.9981	647.2865	721.967	834.0339	880.3971	942.8282	962.2846	985.5703	1007.8767	1019.9611	1061.1737	1078.3207	1081.2271	1125.3244	1139.1266	1143.4525	1212.4958	1231.6066	1244.9696	1251.7496	1280.2505	1293.6395	1324.5633	1330.5729	1352.1394	1370.1257	1383.5703	1395.9697	1433.1623	1506.5614	1512.8911	1526.8366	2972.7908	2977.1323	2997.9326	3009.2469	3073.4387	3078.8827	3094.9973	3100.2743	3115.1043	3825.7225
OC1COC2COCC12	O[C@H]1CO[C@H]2COC[C@@H]12	
InChI=1S/C6H10O3/c7-5-2-9-6-3-8-1-4(5)6/h4-7H,1-3H2	InChI=1S/C6H10O3/c7-5-2-9-6-3-8-1-4(5)6/h4-7H,1-3H2/t4-,5-,6-/m0/s1
