14
gdb 133052	5.13492	1.04641	0.87405	1.4192	67.75	-0.2466	-0.0498	0.1967	1220.4456	0.101448	-478.017535	-478.010104	-478.00916	-478.049787	27.123	
C	-0.0220454043	 1.3900769943	 0.0230730569	-0.226597
O	 0.0216152295	-0.0351940625	-0.0348114243	-0.240484
C	 0.6242316109	-0.5906230952	-1.0912590049	 0.477354
N	 1.1500364175	 0.1988639232	-2.0284104847	-0.333625
C	 1.7390286062	-0.4136966139	-3.0577300553	-0.102618
C	 1.7934552265	-1.7929111516	-3.1343398523	 0.20755
F	 2.3818099525	-2.4062827127	-4.162716863	-0.071638
C	 1.2140271522	-2.5237332331	-2.1027374343	-0.092327
N	 0.6252724518	-1.9287916619	-1.0736516315	-0.29268
H	 0.9854444752	 1.8151126793	 0.0406960883	 0.136094
H	-0.5594621151	 1.80331795	-0.835067726	 0.1361
H	-0.5485674097	 1.6249686048	 0.9487684023	 0.134288
H	 2.1760860018	 0.205956046	-3.836667588	 0.133289
H	 1.2324607651	-3.6109803367	-2.1198960432	 0.135294
94.4346	153.9659	196.9815	231.8617	377.9054	395.835	440.0303	469.5849	540.8017	571.9948	655.5033	772.851	823.9756	877.6345	961.7695	985.7341	1041.9886	1081.6125	1179.3161	1199.4177	1256.8993	1287.0369	1291.2971	1378.7686	1422.6249	1450.7079	1481.3986	1495.849	1520.4468	1595.6108	1654.927	3043.6487	3115.2831	3151.0149	3163.8647	3167.8859
COC1=NC=C(F)C=N1	COc1ncc(F)cn1	
InChI=1S/C5H5FN2O/c1-9-5-7-2-4(6)3-8-5/h2-3H,1H3	InChI=1S/C5H5FN2O/c1-9-5-7-2-4(6)3-8-5/h2-3H,1H3
