17
gdb 46363	3.25834	1.26667	1.15794	2.4957	68.6	-0.2517	-0.0301	0.2215	1105.8477	0.135046	-458.932893	-458.92474	-458.923796	-458.96668	29.208	
O	-0.1830943061	 0.0667754129	-0.2265050335	-0.274165
C	-0.0141192459	 1.221389405	 0.0086110494	 0.36955
C	-0.839772955	 2.3779062243	 0.5784825526	-0.18625
O	 0.2495872304	 3.2819680415	 0.2891773099	-0.291915
C	 1.1366507995	 2.2347805181	-0.1719167043	-0.034325
C	 2.3292654616	 2.0350436539	 0.7415172906	 0.124806
C	 3.0805073598	 3.3144361827	 1.1797516613	-0.292248
C	 2.5697691758	 2.9557725509	 2.5888944143	-0.055881
O	 1.911056	 1.765523384	 2.0970338513	-0.296291
H	-1.758566228	 2.6264031319	 0.0341034581	 0.130957
H	-1.0463699674	 2.2944755169	 1.6519752969	 0.143105
H	 1.4619004518	 2.3902964172	-1.2100827939	 0.106193
H	 2.9545137064	 1.2254004663	 0.3418034346	 0.092728
H	 4.162154776	 3.2830901389	 1.0460719423	 0.114822
H	 2.6807616243	 4.2398370408	 0.7652937259	 0.130061
H	 3.3398264594	 2.7123724594	 3.32968812	 0.10599
H	 1.8553151774	 3.6618454353	 3.0252709544	 0.112863
64.3474	83.7337	122.2591	135.9218	257.8737	304.9699	425.905	539.8068	629.5681	712.0283	740.0619	802.5346	830.0784	881.892	926.6005	944.1551	982.4998	1006.2771	1025.9592	1041.183	1075.1156	1098.8479	1118.3391	1143.2178	1166.7421	1211.7609	1225.7651	1262.0286	1265.8224	1296.6652	1318.5374	1360.7661	1370.8539	1471.9798	1482.9356	1525.4918	1929.9462	3013.5447	3023.574	3028.6854	3031.6454	3074.9998	3080.6554	3091.6491	3151.2029
O=C1COC1C1CCO1	O=C1CO[C@H]1[C@H]1CCO1	
InChI=1S/C6H8O3/c7-4-3-9-6(4)5-1-2-8-5/h5-6H,1-3H2	InChI=1S/C6H8O3/c7-4-3-9-6(4)5-1-2-8-5/h5-6H,1-3H2/t5-,6-/m1/s1
