23
gdb 112914	2.2449	1.30018	0.93251	2.1162	82.92	-0.2411	0.0819	0.3229	1369.8412	0.204564	-425.434537	-425.424482	-425.423538	-425.469828	37.102	
C	-0.0597658033	 1.4454729655	-0.2211722794	-0.234861
O	 0.0371727652	 0.0786259445	 0.0990382618	-0.23794
C	-1.2029409212	-0.6030605884	 0.0708000781	 0.110376
C	-1.686142539	-0.9159639692	-1.370394379	-0.270448
C	-1.7677004872	-2.4573742578	-1.416701573	 0.15994
C	-1.3808827357	-3.0931089783	-2.7402101412	-0.410207
O	-0.8690278473	-2.8957710573	-0.4065500305	-0.267418
C	-1.037766418	-2.0128318332	 0.6953776416	 0.107275
C	 0.1126302843	-2.1857250383	 1.6694650316	-0.402315
H	 0.9391622253	 1.8756218099	-0.1139191679	 0.127252
H	-0.403938757	 1.6123850514	-1.2533013757	 0.105035
H	-0.7494734517	 1.9725267649	 0.4577731478	 0.10234
H	-1.9445423828	-0.0180317873	 0.6356331784	 0.058128
H	-2.6374466942	-0.4420210673	-1.6243085116	 0.097128
H	-0.9268857867	-0.5602769401	-2.0736462545	 0.111322
H	-2.7921658214	-2.7710031465	-1.1451981403	 0.057575
H	-0.3632372301	-2.8011832187	-3.0176106856	 0.124254
H	-1.4194334776	-4.1837520882	-2.6695672083	 0.124629
H	-2.0646670625	-2.7752088162	-3.5335266309	 0.113204
H	-1.9910636953	-2.2544390291	 1.199888836	 0.057211
H	 1.0594282229	-1.9377029585	 1.1880116012	 0.137854
H	-0.0169605958	-1.5287199487	 2.534234989	 0.112624
H	 0.1482076192	-3.220644293	 2.0201336125	 0.117044
42.7822	110.367	132.9526	193.4739	209.4324	225.8555	228.2015	273.1571	337.6599	389.753	454.5855	471.8204	523.7961	589.897	703.7182	820.8924	857.5438	888.0534	921.4631	948.5851	975.2224	985.3037	1057.208	1110.1022	1121.7538	1135.9762	1140.7902	1158.7469	1185.3514	1202.9629	1218.5667	1237.0083	1275.624	1306.0263	1345.2896	1372.5794	1384.5304	1393.4053	1401.0557	1410.4356	1426.8284	1476.3637	1481.2044	1483.3097	1484.3984	1490.2895	1494.9498	1500.5037	1511.4978	2926.8848	2933.5795	2969.2542	2985.197	3016.3371	3039.7031	3053.6094	3055.9063	3107.7343	3111.6906	3113.6073	3118.2118	3121.2763	3148.8008
COC1CC(C)OC1C	CO[C@H]1C[C@@H](C)O[C@H]1C	
InChI=1S/C7H14O2/c1-5-4-7(8-3)6(2)9-5/h5-7H,4H2,1-3H3	InChI=1S/C7H14O2/c1-5-4-7(8-3)6(2)9-5/h5-7H,4H2,1-3H3/t5-,6+,7+/m1/s1
