17
gdb 35742	3.06136	1.26313	1.13564	4.3418	71.88	-0.2538	0.0249	0.2787	1115.0004	0.137328	-417.995935	-417.987959	-417.987014	-418.029305	29.826	
N	 0.6567802938	-1.0887130086	 0.1061428699	-0.322793
C	 0.3087868498	 0.0141057621	 0.1078500224	 0.26391
C	-0.0797807583	 1.4425311434	 0.0672346334	-0.145187
C	-0.7468977786	 1.9017759026	 1.3826561006	-0.291886
C	 0.4376548763	 2.3449622358	 2.2423060364	 0.453678
C	 0.2857421538	 3.0838143283	 3.4980390753	-0.248736
O	 0.6430277397	 1.6966577296	 3.4940837812	-0.264278
C	 1.6518307353	 2.455431817	 1.317130542	-0.260278
N	 1.0648010214	 2.3537913468	-0.0262981476	-0.297729
H	-0.7400346966	 1.5779503096	-0.794857084	 0.12727
H	-1.4009328039	 2.7486327264	 1.1594804377	 0.125952
H	-1.3280609813	 1.1216856351	 1.8753988584	 0.141941
H	 1.0689348897	 3.7683161292	 3.8219298734	 0.118339
H	-0.7108385773	 3.3093211188	 3.8774247484	 0.116804
H	 2.1885986152	 3.4026137899	 1.4228219988	 0.11662
H	 2.3435328717	 1.6360595815	 1.5648314392	 0.12757
H	 1.7370504894	 2.0602241325	-0.7255363154	 0.238803
36.1371	111.34	182.4748	282.0555	319.9721	370.1976	406.9916	441.8915	503.7675	589.0334	683.4813	764.1571	814.0847	834.6521	840.3391	918.8336	950.6887	966.3525	987.9929	1019.916	1094.2515	1114.8132	1127.7363	1163.4465	1196.8745	1216.9862	1231.3767	1235.7158	1299.1149	1344.0386	1356.9517	1421.7163	1453.0497	1470.7818	1512.413	1534.0219	2342.937	2992.8327	3062.6008	3074.9794	3076.2057	3077.9887	3140.0246	3162.7083	3552.0465
N#CC1CC2(CO2)CN1	N#C[C@H]1C[C@]2(CO2)CN1	
InChI=1S/C6H8N2O/c7-2-5-1-6(3-8-5)4-9-6/h5,8H,1,3-4H2	InChI=1S/C6H8N2O/c7-2-5-1-6(3-8-5)4-9-6/h5,8H,1,3-4H2/t5-,6-/m1/s1
