17
gdb 39428	2.48734	1.98775	1.32592	2.2673	67.19	-0.2529	0.0502	0.3031	956.5102	0.13732	-458.906464	-458.899405	-458.898461	-458.937832	27.793	
C	 0.0260369012	 1.4441057646	 0.0923917671	-0.136534
O	 1.3170879453	 1.9444336382	-0.2467123742	-0.252611
C	 2.2285849956	 2.0870454718	 0.8178672919	-0.111933
C	 2.4324495612	 0.9292946583	 1.7822057646	 0.036208
O	 1.3315750524	 0.5655719244	 2.6179251424	-0.234998
C	 1.8348535513	-0.4222099969	 1.7218962778	 0.004373
C	 0.9184382638	-0.9185822749	 0.6371627965	 0.047003
O	-0.4861986016	-0.9119815526	 0.9126230393	-0.244924
C	 0.0089268951	-0.058734352	-0.1245016196	 0.038172
H	-0.2476653392	 1.6735949649	 1.1261175179	 0.135226
H	-0.6814939706	 1.9358453694	-0.5825286618	 0.1075
H	 3.1927702579	 2.3091929051	 0.3470463544	 0.117688
H	 1.9614945486	 2.9585736913	 1.4408296457	 0.107874
H	 3.3766258748	 1.0224736314	 2.3263863773	 0.097036
H	 2.3823171475	-1.2236958414	 2.222319871	 0.099464
H	 1.2772211293	-1.8325226471	 0.1617068032	 0.093915
H	-0.2581032625	-0.3857220643	-1.1299909136	 0.09654
129.5359	212.1411	252.8791	318.3287	344.6914	378.3391	447.7307	521.5448	673.095	735.5935	766.1723	809.0221	819.7386	855.7827	919.1846	952.5466	987.1667	1017.8177	1027.8565	1078.0117	1108.1607	1128.1224	1140.6267	1170.7295	1188.6476	1276.8287	1285.7506	1312.5455	1330.1367	1371.4339	1399.5418	1408.7125	1414.5093	1475.9449	1482.7238	1491.7803	1500.1767	2958.8413	3048.3977	3061.5659	3073.7365	3084.5987	3095.524	3104.5198	3115.9549
C1OCC2OC2C2OC12	C1OC[C@H]2O[C@H]2[C@H]2O[C@@H]12	
InChI=1S/C6H8O3/c1-3-5(8-3)6-4(9-6)2-7-1/h3-6H,1-2H2	InChI=1S/C6H8O3/c1-3-5(8-3)6-4(9-6)2-7-1/h3-6H,1-2H2/t3-,4+,5-,6+
