18
gdb 57440	2.67689	1.21985	1.05759	4.5428	72.68	-0.2799	-0.0047	0.2752	1196.3746	0.144314	-439.071333	-439.061577	-439.060633	-439.106129	35.71	
C	 0.1918638002	 1.5709560685	-0.100919834	-0.431242
C	-0.1098269481	 0.0721969578	 0.0472686029	 0.294059
C	 0.5222954753	-0.4812090802	 1.3216626749	-0.422022
O	-1.517542102	-0.1499794962	 0.1606933753	-0.447666
C	 0.3541219507	-0.619668941	-1.2374958473	 0.059991
O	 1.736948782	-0.9087537191	-1.4275445857	-0.234635
C	 0.8217830558	-2.0100689654	-1.4241068648	-0.106044
C	 0.9557336904	-3.0016081669	-0.3801575189	 0.309503
N	 1.0611311441	-3.8548012665	 0.3923132091	-0.329523
H	 1.269371646	 1.7487518995	-0.1662042009	 0.140707
H	-0.269408379	 1.9802262258	-1.0084817809	 0.106058
H	-0.202629205	 2.1143552395	 0.7617855732	 0.131123
H	 0.2790678996	 0.1770092161	 2.1594719637	 0.119007
H	 0.1338111354	-1.4745130957	 1.5472558438	 0.155956
H	 1.6085393397	-0.5384983153	 1.2223495088	 0.135181
H	-1.9691218958	 0.4204947194	-0.470838838	 0.281168
H	-0.1226156159	-0.1956768831	-2.1269401294	 0.095833
H	 0.6592262465	-2.4618618972	-2.4026271419	 0.142545
32.9012	130.5267	177.934	229.8974	238.6576	259.0481	268.1313	289.2044	332.7536	364.3596	425.2382	465.9766	510.0349	577.0597	646.1126	726.2248	829.6403	870.132	934.1965	944.4805	984.8016	1003.3182	1015.0726	1089.5981	1133.3581	1158.8816	1212.1627	1235.4364	1293.942	1366.6363	1392.4747	1403.8001	1418.591	1457.6438	1481.9549	1489.1693	1500.4699	1513.6758	2360.8011	3025.1075	3058.9988	3062.6837	3097.3426	3115.9615	3124.4289	3133.9563	3158.7931	3805.0973
CC(C)(O)C1OC1C#N	CC(C)(O)[C@H]1O[C@H]1C#N	
InChI=1S/C6H9NO2/c1-6(2,8)5-4(3-7)9-5/h4-5,8H,1-2H3	InChI=1S/C6H9NO2/c1-6(2,8)5-4(3-7)9-5/h4-5,8H,1-2H3/t4-,5-/m0/s1
