21
gdb 111610	2.70221	1.54471	1.30714	2.4137	81.8	-0.2016	0.0697	0.2713	1084.0654	0.18452	-383.214019	-383.20597	-383.205026	-383.246549	32.056	
C	-1.6827850401	 0.1591126274	-0.3800362722	-0.368998
C	-0.2003033968	 0.219109945	-0.0262196452	-0.111923
N	 0.5878665245	-0.5319416482	-1.0013164028	-0.085944
C	 1.8496007956	-1.1896355911	-0.7554459012	-0.047534
C	 2.249653524	-1.7069618942	 0.6372757339	-0.251443
C	 1.2981844615	-2.8593371887	 0.9655875444	-0.035116
N	-0.1110140807	-2.4727105427	 1.1724678561	-0.329635
C	 0.3177580207	-2.997516398	-0.1443865676	-0.051039
C	 0.6364490332	-1.9671696071	-1.2134870878	-0.038238
H	-1.8484605466	 0.4657399651	-1.4174794695	 0.115319
H	-2.0658843707	-0.8577623899	-0.2539119336	 0.119946
H	-2.2592288069	 0.8210136465	 0.2736515123	 0.105787
H	 0.1517111136	 1.2569199326	-0.097679842	 0.086171
H	-0.0593691604	-0.1166350412	 1.0045827102	 0.112481
H	 2.6625341384	-0.9050631132	-1.4225350807	 0.082247
H	 3.2754957677	-2.0871371196	 0.5854979787	 0.103573
H	 2.2328747644	-0.9269587664	 1.4062539228	 0.114749
H	 1.6766681869	-3.7161188827	 1.5151044524	 0.086421
H	-0.5858459264	-3.2115614252	 1.6860218813	 0.229605
H	-0.0570057673	-3.9631076929	-0.4678282729	 0.081276
H	 0.4936643054	-2.2890852955	-2.2430804668	 0.082294
78.1579	135.9295	213.929	247.6072	285.2637	337.1912	399.8524	503.4654	576.7747	674.0824	705.0002	742.8585	762.7494	811.753	839.8191	857.861	884.7473	893.2087	927.1624	955.2029	988.5811	1036.0908	1039.8132	1072.2486	1074.7501	1115.9414	1133.6667	1139.6025	1168.9573	1171.1929	1210.4646	1235.6958	1306.3431	1309.2503	1319.9757	1340.6635	1370.3431	1385.7812	1400.6776	1418.9013	1428.2252	1473.7233	1488.9672	1498.235	1509.6259	3014.0262	3038.9657	3044.9006	3081.5172	3084.7253	3104.1135	3111.3178	3116.4363	3121.4543	3148.6373	3166.7305	3491.6495
CCN1C2CC3NC3C12	CCN1[C@H]2C[C@H]3N[C@H]3[C@@H]12	
InChI=1S/C7H12N2/c1-2-9-5-3-4-6(8-4)7(5)9/h4-8H,2-3H2,1H3	InChI=1S/C7H12N2/c1-2-9-5-3-4-6(8-4)7(5)9/h4-8H,2-3H2,1H3/t4-,5+,6-,7+,9?/m1/s1
