19
gdb 72503	2.63346	1.76404	1.47654	2.2081	69.38	-0.2535	0.0633	0.3168	956.382	0.161755	-460.175809	-460.168491	-460.167546	-460.206999	30.18	
O	-0.0446698213	 1.3906910449	-0.0394484956	-0.487778
C	 0.023692045	-0.0180516974	 0.0142683275	 0.358688
C	 0.5703706751	-0.568112524	 1.3525317684	-0.127884
O	-0.0209661698	-1.8657916976	 1.5000883882	-0.264629
C	-0.9641939048	-2.0564109573	 0.4526302469	 0.197772
C	-1.3747475158	-0.6412071531	 0.0437102842	-0.268035
O	-0.394728426	-2.7384131853	-0.6467657161	-0.257848
C	 0.8365890201	-2.1617645166	-1.0703397774	-0.077453
C	 0.774959597	-0.6253157646	-1.1859678838	-0.287371
H	 0.8456565422	 1.7324107127	-0.1764021068	 0.277073
H	 1.6627359548	-0.6673796218	 1.3726006699	 0.094689
H	 0.2582544043	 0.0886987735	 2.1741693676	 0.106692
H	-1.7638487123	-2.7010095947	 0.8204348294	 0.091477
H	-1.9925160429	-0.1660514069	 0.8112459619	 0.111658
H	-1.8913564827	-0.6152845455	-0.9164490913	 0.111132
H	 1.631038504	-2.4464206188	-0.367811093	 0.109457
H	 1.0670338348	-2.6166359828	-2.0369423653	 0.110846
H	 0.2574246874	-0.3213061892	-2.1018712504	 0.113562
H	 1.7998399711	-0.2337002657	-1.2382477342	 0.087952
200.2665	248.8845	267.41	288.1249	334.0105	418.4402	427.8833	463.7618	512.033	568.667	629.2336	766.7489	785.5028	846.6321	888.8445	914.4023	941.356	964.7296	993.559	1021.224	1024.4712	1036.3245	1102.8858	1127.4584	1141.5422	1189.0841	1200.1591	1221.3738	1262.5643	1279.8467	1298.3562	1315.4486	1339.1473	1365.0006	1383.0041	1412.3302	1417.6744	1476.9632	1494.7476	1505.824	1526.675	3013.2155	3014.2964	3022.3392	3058.3038	3068.4107	3076.4754	3098.1249	3111.3002	3134.7155	3802.4554
OC12COC(C1)OCC2	O[C@@]12CO[C@@H](C1)OCC2	
InChI=1S/C6H10O3/c7-6-1-2-8-5(3-6)9-4-6/h5,7H,1-4H2	InChI=1S/C6H10O3/c7-6-1-2-8-5(3-6)9-4-6/h5,7H,1-4H2/t5-,6+/m0/s1
