24
gdb 101159	2.28146	1.20175	0.96538	3.0264	86.16	-0.2268	0.0705	0.2973	1370.3006	0.215507	-405.522144	-405.511345	-405.510401	-405.557629	40.132	
C	 3.2823338149	 0.8853020256	-0.4511992628	-0.385255
C	 1.8733956037	 0.2872631801	-0.4987476697	 0.029175
C	 1.7746362795	-0.8111640706	-1.5733455386	-0.049038
O	 2.6245840454	-1.9001828303	-1.278846959	-0.424488
N	 1.577486912	-0.3741272611	 0.7767010244	-0.116899
C	 1.2355807809	 0.3587426292	 1.9989011324	-0.007416
C	 1.1390501091	 1.8684747935	 2.0821048928	-0.417739
C	 0.2088724951	-0.4794930155	 1.3017605465	-0.002703
C	-1.0094758699	 0.1059448995	 0.6182742705	-0.41729
H	 4.0183998856	 0.0946894012	-0.2880585457	 0.133007
H	 3.513915082	 1.3793250298	-1.4001040884	 0.111805
H	 3.3794227554	 1.6244561648	 0.347662737	 0.111031
H	 1.1540849081	 1.0787033066	-0.7587062785	 0.054842
H	 0.724901744	-1.1376587872	-1.6613030842	 0.078261
H	 2.0772069078	-0.4098047181	-2.5470720677	 0.097813
H	 2.5261173584	-2.0319778731	-0.3246534345	 0.283327
H	 1.6993187713	-0.0759389904	 2.8850762759	 0.086927
H	 0.7404528243	 2.3276637117	 1.1756500545	 0.122611
H	 0.4849821168	 2.1515341205	 2.9143893776	 0.122662
H	 2.1214978141	 2.3108068596	 2.2753591074	 0.128079
H	 0.0085527384	-1.461540384	 1.7310611998	 0.087037
H	-0.857218258	 1.1201474675	 0.2459102886	 0.122493
H	-1.32158625	-0.5181042964	-0.2259536448	 0.12839
H	-1.8439083291	 0.1374783171	 1.3272692364	 0.123369
65.8575	121.0561	155.8816	168.1284	189.6745	194.3108	203.1271	243.3075	279.9952	318.5322	345.2922	474.6023	504.3997	524.1605	567.3096	623.4039	734.2335	785.2502	804.9066	874.2493	936.6861	959.6186	989.2184	1013.3175	1026.0856	1060.6447	1084.6919	1117.4809	1138.7121	1150.4156	1163.5815	1181.4419	1198.989	1239.0393	1324.4814	1340.4613	1360.2723	1381.3796	1384.5903	1409.5424	1414.704	1419.543	1438.5314	1448.0859	1483.2884	1488.2051	1491.8764	1499.0007	1499.6951	1511.733	1514.6802	2960.8985	2983.8388	3037.655	3041.0879	3047.6	3063.3072	3085.2046	3093.507	3094.847	3096.4703	3116.7152	3127.4893	3134.6369	3139.666	3725.8613
CC(CO)N1C(C)C1C	C[C@@H](CO)N1[C@@H](C)[C@H]1C	
InChI=1S/C7H15NO/c1-5(4-9)8-6(2)7(8)3/h5-7,9H,4H2,1-3H3	InChI=1S/C7H15NO/c1-5(4-9)8-6(2)7(8)3/h5-7,9H,4H2,1-3H3/t5-,6-,7+,8?/m0/s1
