16
gdb 25916	4.265	1.08482	0.87063	2.5025	75.61	-0.1895	-0.0043	0.1852	1266.6797	0.126356	-434.133381	-434.125064	-434.12412	-434.166248	31.86	
N	-0.0445822107	 1.3705263483	 0.0124664985	-0.566144
C	 0.0476034904	 0.0007779766	-0.1064083489	 0.475074
O	 1.0905434654	-0.5911880771	-0.2731640735	-0.371023
N	-1.1871551857	-0.6699039226	-0.056558462	-0.085451
C	-2.4642407729	-0.1373984839	-0.0992613294	-0.076258
C	-3.3596364559	-1.1657468128	-0.0190446285	-0.229386
C	-2.6122920791	-2.3888235444	 0.0749968009	 0.220258
N	-3.1764628514	-3.6603870878	 0.2561289715	-0.602557
C	-1.2832490121	-2.0579881956	 0.03987292	-0.14475
H	 0.8534629036	 1.8159654763	 0.1201587815	 0.268335
H	-0.7864182637	 1.7588369915	 0.5726227248	 0.261206
H	-2.6270487144	 0.916777301	-0.2463285144	 0.127807
H	-4.4355558297	-1.073031062	-0.0294483309	 0.09828
H	-4.0359552115	-3.7829349596	-0.263664676	 0.242524
H	-2.538223622	-4.410099392	 0.0234356299	 0.243644
H	-0.3858987704	-2.6493826459	 0.0851554265	 0.138442
83.8707	128.0603	191.8979	222.0253	319.0967	369.0536	421.0296	434.259	528.9217	547.3499	603.9877	637.1342	642.3294	674.9021	718.1549	738.6155	769.8438	787.4372	819.3789	981.1938	988.0775	1092.6403	1099.7029	1120.4022	1149.6974	1284.9943	1313.2511	1379.8593	1404.4177	1461.0338	1531.465	1619.9704	1639.3286	1666.0693	1816.1256	3241.4438	3280.9346	3295.8211	3536.9364	3590.2575	3626.505	3706.4185
NC(=O)N1C=CC(N)=C1	NC(=O)n1ccc(N)c1	
InChI=1S/C5H7N3O/c6-4-1-2-8(3-4)5(7)9/h1-3H,6H2,(H2,7,9)	InChI=1S/C5H7N3O/c6-4-1-2-8(3-4)5(7)9/h1-3H,6H2,(H2,7,9)
