19
gdb 41566	2.93762	1.74536	1.60939	1.7325	78.12	-0.2296	0.0255	0.255	929.4609	0.162326	-385.860929	-385.854253	-385.853309	-385.891891	27.591	
C	 0.4698175225	 1.6239991979	-0.0330219777	-0.088803
O	 1.5731682445	 1.2635198726	 0.8337970725	-0.282335
C	 1.2072061211	-0.1247131578	 0.7837664454	 0.114112
C	-0.0114473869	 0.1602324902	-0.1338954684	-0.098268
C	 0.5993396105	-0.7386808301	-1.2524998106	-0.024423
C	 1.0562585335	-0.1141687642	-2.5876373125	-0.287926
C	 2.517601847	 0.1958779427	-2.3385043582	-0.06841
C	 2.9584212318	-0.2468181024	-1.1594435049	-0.047699
C	 1.8831852733	-0.9398438857	-0.372909657	-0.099401
H	-0.2296925162	 2.2953995857	 0.4802110536	 0.10049
H	 0.8122435731	 2.1035823688	-0.9570817777	 0.105978
H	 1.1657579404	-0.5848121673	 1.7748343632	 0.069903
H	-1.0463376288	-0.0309489577	 0.1484335219	 0.07333
H	 0.0009077971	-1.6403232092	-1.394269127	 0.070537
H	 0.9338516129	-0.8089311204	-3.429122502	 0.103744
H	 0.4787423784	 0.7815897702	-2.851893334	 0.102956
H	 3.1268365475	 0.7207193882	-3.0673524965	 0.09073
H	 3.9701847947	-0.1236618572	-0.7901351675	 0.096561
H	 2.1412195337	-1.9659216844	-0.0900186026	 0.068922
118.0237	187.5086	265.0948	373.2128	446.5021	530.773	645.6546	700.6707	733.8856	763.5436	778.3775	830.0602	868.0471	892.3259	918.0108	930.6259	954.4111	977.5653	990.4104	1012.0955	1038.5716	1042.0219	1080.6369	1091.7893	1128.375	1146.9131	1167.7682	1175.0453	1200.9903	1225.8307	1257.9077	1270.3708	1292.2759	1304.9783	1326.6056	1334.1387	1361.543	1385.1609	1487.9852	1516.4395	1674.8082	3012.9505	3016.8854	3036.3937	3043.8952	3062.0071	3069.6428	3087.4202	3112.5401	3178.3803	3205.8529
C1OC2C1C1CC=CC21	C1O[C@H]2[C@@H]1[C@H]1CC=C[C@@H]21	
InChI=1S/C8H10O/c1-2-5-6(3-1)8-7(5)4-9-8/h1,3,5-8H,2,4H2	InChI=1S/C8H10O/c1-2-5-6(3-1)8-7(5)4-9-8/h1,3,5-8H,2,4H2/t5-,6+,7-,8+/m0/s1
