16
gdb 28042	3.92509	0.95151	0.86292	1.5104	77.61	-0.1887	0.0284	0.2171	1335.2364	0.1234	-400.732351	-400.72361	-400.722666	-400.766756	32.37	
O	 0.1456982077	 1.3889042212	-0.1103268027	-0.447202
C	 0.0914947145	 0.0272474258	-0.0274385368	 0.305305
C	 0.0985170889	-0.8096674136	-1.1191200081	-0.184853
N	 0.0073859286	-2.1049830876	-0.6437687648	 0.037852
C	 0.0738129496	-3.2980317254	-1.4679642716	-0.335683
C	 1.4298717808	-3.6634207785	-1.8817309694	 0.330794
C	 2.5392486709	-3.9668818169	-2.2272332031	-0.451392
C	-0.0398503244	-2.0871500511	 0.7222348805	-0.069866
C	 0.0037328804	-0.7759100304	 1.1435709026	-0.31366
H	 0.1483338221	 1.7460948306	 0.7819971309	 0.295377
H	 0.1637952068	-0.5962039357	-2.1723385823	 0.120635
H	-0.3773796233	-4.1210007375	-0.9033517536	 0.147594
H	-0.5539903731	-3.1470926699	-2.3542913429	 0.149294
H	 3.523140832	-4.2300169797	-2.528436748	 0.205644
H	-0.1000276539	-3.0059074492	 1.2837453038	 0.119876
H	-0.0405382378	-0.4319446221	 2.1663506855	 0.090284
28.9587	72.0637	211.9404	216.7044	277.4503	320.0648	329.1529	440.4	458.1927	604.1492	613.5897	625.0023	659.1787	665.7663	670.9157	740.8207	757.8981	768.0994	942.972	969.103	1003.6172	1013.4595	1089.3487	1167.4174	1212.3053	1221.5322	1309.1543	1370.4277	1382.7935	1438.8566	1455.9602	1464.7929	1538.9815	1645.2389	2242.551	3034.4277	3075.2484	3235.4729	3263.1784	3278.3989	3504.9613	3845.7183
OC1=CN(CC#C)C=C1	Oc1cn(CC#C)cc1	
InChI=1S/C7H7NO/c1-2-4-8-5-3-7(9)6-8/h1,3,5-6,9H,4H2	InChI=1S/C7H7NO/c1-2-4-8-5-3-7(9)6-8/h1,3,5-6,9H,4H2
