21
gdb 82929	2.12522	1.76992	1.4845	1.4276	81.31	-0.2306	0.0732	0.3039	1044.1163	0.183455	-387.065821	-387.057509	-387.056565	-387.097972	33.648	
C	-0.0494989244	 1.4974219224	-0.0110999418	-0.483743
C	 0.0286788011	-0.0144496677	-0.0209983697	 0.313646
C	-0.5905326283	-0.7609286236	 1.1367842815	 0.035502
O	-1.4049141975	-1.8871631875	 0.9635413381	-0.411358
C	 0.9087247874	-0.7977573216	 0.9611752026	-0.144842
C	 1.553086133	-1.9649610715	 0.2022227126	-0.253078
C	 1.1724546398	-1.8125244714	-1.2773788297	-0.031198
C	-0.2489656938	-2.0551055066	-1.7163911358	-0.306565
C	 0.2088852325	-0.6495083226	-1.3930885224	-0.090375
H	 0.8080938038	 1.9385328212	-0.5325036493	 0.116104
H	-0.960093367	 1.8509071669	-0.5089285499	 0.121286
H	-0.0550417319	 1.8915752453	 1.0098478681	 0.110909
H	-0.9393537225	-0.1098308623	 1.9414797998	 0.078283
H	-1.2185247048	-2.4942964104	 1.6882196895	 0.286963
H	 1.5109581042	-0.2907529594	 1.7101540304	 0.075485
H	 2.6401475652	-1.9038021332	 0.3123231671	 0.101235
H	 1.2530567544	-2.940139	 0.606570226	 0.091485
H	 1.9585695987	-1.9593347849	-2.0107853877	 0.077217
H	-0.3939565423	-2.2771467661	-2.7693966065	 0.096482
H	-0.938172749	-2.5465166223	-1.0473267262	 0.141487
H	 0.2861326114	 0.0557533753	-2.2139192468	 0.075074
145.7825	204.0981	228.6292	234.4522	267.5928	295.398	311.652	391.1199	531.5893	551.8529	632.4183	664.1403	695.0463	786.4549	800.4266	807.8951	833.7697	898.8221	927.1043	968.821	1004.2837	1023.3638	1050.2923	1065.8231	1083.3044	1090.0792	1106.5673	1110.0098	1124.2987	1166.0888	1204.9972	1225.014	1229.8994	1280.7062	1297.6828	1314.5525	1350.5808	1372.3745	1387.55	1415.112	1466.5202	1477.3154	1490.7144	1493.0787	1501.7763	3021.3902	3023.5147	3066.8626	3073.7604	3081.4468	3098.6856	3137.005	3139.8332	3152.1262	3163.5597	3264.8996	3795.2814
CC12C(O)C1CC1CC21	C[C@]12[C@@H](O)[C@H]1C[C@H]1C[C@@H]21	
InChI=1S/C8H12O/c1-8-5-2-4(5)3-6(8)7(8)9/h4-7,9H,2-3H2,1H3	InChI=1S/C8H12O/c1-8-5-2-4(5)3-6(8)7(8)9/h4-7,9H,2-3H2,1H3/t4-,5-,6-,7+,8-/m1/s1
