17
gdb 93083	2.24735	1.58846	0.9706	2.041	71.76	-0.2438	-0.0244	0.2194	1160.2135	0.137755	-455.181531	-455.173289	-455.172345	-455.214849	30.718	
O	-0.1126736541	 1.4288035144	 0.0328369311	-0.425358
C	 0.0104786681	 0.0130513368	-0.0301488014	 0.071839
C	 0.9203389247	-0.4720073599	 1.10606487	-0.174802
N	 1.223259685	-1.8802309069	 1.2260546163	-0.237828
C	 0.542535417	-2.8327526659	 0.7513585413	 0.101973
N	-0.6456869744	-2.8964874827	 0.0133977604	-0.330238
C	-1.605481246	-1.9590460799	-0.3588463283	 0.38576
O	-2.5661116603	-2.3290340104	-0.9995203246	-0.341233
C	-1.4157459792	-0.5242019689	 0.0763356668	-0.303738
H	 0.7689802028	 1.8103573439	-0.0342874918	 0.287333
H	 0.4401607349	-0.2911412334	-0.9987441843	 0.081974
H	 1.8839103397	 0.049873133	 1.0170827961	 0.10013
H	 0.487217623	-0.124884699	 2.0551915586	 0.125034
H	 0.9178237325	-3.8441423275	 0.9243564268	 0.118577
H	-0.9082898143	-3.8244820635	-0.2929549079	 0.257312
H	-1.765636108	-0.424300854	 1.1120969367	 0.134679
H	-2.0787086713	 0.076790684	-0.547593316	 0.148586
60.9564	112.1937	165.6489	284.5073	298.2928	351.7238	375.6157	437.5421	472.5849	510.2358	564.1309	615.1101	714.2773	811.3065	865.4135	893.416	921.8955	959.8477	978.7035	1069.1709	1080.325	1087.8662	1142.1825	1190.4989	1252.8243	1285.6856	1303.0919	1332.8855	1353.769	1392.9095	1442.0925	1459.5918	1465.0682	1483.211	1495.8951	1775.4188	1800.7077	2966.7507	2999.351	3028.5916	3040.1395	3099.4243	3129.6801	3585.0416	3811.957
OC1CN=CNC(=O)C1	O[C@H]1CN=CNC(=O)C1	
InChI=1S/C5H8N2O2/c8-4-1-5(9)7-3-6-2-4/h3-4,8H,1-2H2,(H,6,7,9)	InChI=1S/C5H8N2O2/c8-4-1-5(9)7-3-6-2-4/h3-4,8H,1-2H2,(H,6,7,9)/t4-/m1/s1
