18
gdb 15163	7.95087	0.67791	0.65162	1.4309	77.68	-0.2406	0.0342	0.2749	1714.3492	0.152329	-347.751345	-347.742038	-347.741094	-347.788621	32.075	
O	-0.0521464221	 1.415956142	 0.1513106369	-0.409473
C	-0.0530095193	-0.00791185	 0.1711045657	-0.214032
C	-1.4136540925	-0.5011812505	 0.0017027203	 0.102173
C	-2.5325138882	-0.9233755021	-0.1350385065	 0.069519
C	-3.883049819	-1.4537042745	-0.3056362088	-0.37596
C	-3.9508915573	-2.9679338979	-0.1616674698	 0.045379
C	-4.0884718432	-3.5931077625	 1.2001532912	-0.246728
C	-5.2480345524	-3.6242379926	 0.2325586926	-0.278311
H	 0.8600073926	 1.7019506709	 0.2651658385	 0.287777
H	 0.582103991	-0.4153270498	-0.6328578425	 0.112573
H	 0.3548351644	-0.3908938236	 1.1211574652	 0.113089
H	-4.5535906097	-0.992797449	 0.4321222664	 0.123913
H	-4.270381928	-1.1599921739	-1.2906382625	 0.128819
H	-3.3337749397	-3.504162281	-0.8764658569	 0.091597
H	-3.5582535054	-4.5171884916	 1.4012530553	 0.11182
H	-4.1600178038	-2.9287874304	 2.0552116954	 0.114724
H	-6.0989174156	-2.9832220486	 0.4407266904	 0.110877
H	-5.5103294917	-4.5684979648	-0.231557351	 0.112245
4.3356	60.5437	82.1939	169.7096	197.1826	237.8089	310.3491	345.0727	379.5155	497.0621	540.2125	761.8236	781.6394	804.5705	843.1403	895.3523	953.6818	999.4345	1029.5107	1045.5082	1058.7723	1079.6284	1135.7658	1143.1113	1151.7645	1197.711	1227.3185	1245.8782	1256.2218	1262.4164	1322.9957	1407.0981	1459.7426	1467.6374	1475.9287	1505.5717	1508.1106	2374.0543	2959.2327	2975.9257	3009.7347	3039.5223	3129.2468	3134.6081	3152.1409	3207.2731	3222.713	3816.0076
OCC#CCC1CC1	OCC#CCC1CC1	
InChI=1S/C7H10O/c8-6-2-1-3-7-4-5-7/h7-8H,3-6H2	InChI=1S/C7H10O/c8-6-2-1-3-7-4-5-7/h7-8H,3-6H2
