19
gdb 87044	2.47889	1.37831	1.12099	2.8272	81.35	-0.2564	0.0235	0.2798	1179.704	0.158368	-382.04286	-382.033755	-382.03281	-382.076707	33.807	
C	-0.2733550003	 1.5278389765	 0.3129615016	-0.418864
C	-0.064511576	 0.0475470279	 0.0941873876	-0.034651
C	 1.1950285695	-0.4849115239	-0.5236523455	-0.323734
C	 0.9055100878	-0.7676117293	 0.9433510798	 0.220136
C	 1.7032818442	-0.0726762256	 1.9309425911	 0.237788
N	 2.333921697	 0.4342973929	 2.7594837332	-0.371303
N	 0.4882737743	-2.1144963021	 1.2456786352	-0.127253
C	 1.3965770347	-2.9985418945	 1.9748081449	-0.238787
C	 0.1644926724	-2.4707697381	 2.6260719448	-0.240418
H	 0.6575491133	 2.0297090566	 0.5917166974	 0.137677
H	-0.6471148053	 1.9978806522	-0.6026228882	 0.125792
H	-1.0024902276	 1.7116353869	 1.108508385	 0.129636
H	-0.9602043323	-0.5226822085	-0.1325432127	 0.112446
H	 1.1321939994	-1.34719556	-1.1764706592	 0.135209
H	 1.9923934416	 0.2151481101	-0.7471270748	 0.132995
H	 1.4368561225	-4.0202854763	 1.6097172594	 0.123045
H	 2.3442339131	-2.5908912767	 2.3187396073	 0.138454
H	 0.3046669609	-1.7173248211	 3.3976446632	 0.138907
H	-0.7124080793	-3.099584747	 2.7466073899	 0.122924
73.9443	136.3022	150.8644	178.0997	187.7582	237.6374	339.7356	365.2973	383.0364	475.0649	579.4217	615.0672	620.628	798.5507	812.3215	838.7823	887.4949	905.4084	920.0377	973.4206	1016.1398	1054.4433	1072.9975	1088.6372	1119.3948	1127.2596	1129.8174	1178.597	1179.2706	1191.9376	1213.4322	1292.4167	1332.9685	1396.5869	1422.4419	1473.3615	1490.4789	1490.8784	1500.4503	1516.9259	2330.963	3037.5432	3102.1475	3108.9619	3111.6681	3112.9026	3142.7451	3163.9097	3192.6783	3206.2323	3238.2701
CC1CC1(C#N)N1CC1	C[C@H]1C[C@]1(C#N)N1CC1	
InChI=1S/C7H10N2/c1-6-4-7(6,5-8)9-2-3-9/h6H,2-4H2,1H3	InChI=1S/C7H10N2/c1-6-4-7(6,5-8)9-2-3-9/h6H,2-4H2,1H3/t6-,7+/m0/s1
