17
gdb 46270	3.00909	1.59845	1.29856	2.9701	72.59	-0.2399	0.019	0.2589	996.6291	0.137357	-417.976963	-417.969415	-417.96847	-418.009016	29.024	
O	-0.0588902744	-0.010302145	-0.098943898	-0.371909
C	-0.0363976019	 1.1925467078	-0.045559176	 0.411561
N	-1.0111006644	 2.1551737194	-0.0266344543	-0.343455
C	-0.0967822296	 3.3040416839	 0.0146523241	-0.22991
C	 1.0688375176	 2.2805826381	 0.0245652451	 0.197386
C	 2.1841917328	 2.2859154039	 1.0948083482	-0.332825
C	 3.1695279787	 2.2615463086	-0.0706647233	-0.017766
C	 2.8809362725	 1.1536760789	-0.9991671378	-0.24309
N	 2.0561886553	 2.3826799966	-1.1026867318	-0.173685
H	-2.0162855549	 2.0914436717	-0.0870315783	 0.253293
H	-0.1156548545	 3.9304691408	-0.8814914479	 0.128423
H	-0.1911034927	 3.9206283374	 0.9144783592	 0.111045
H	 2.2036709147	 3.2214526537	 1.6579595771	 0.11608
H	 2.2204818099	 1.4445615098	 1.7922506517	 0.121961
H	 4.0693360491	 2.8632883195	-0.1433841632	 0.09741
H	 3.5428872146	 1.0341110002	-1.8510237911	 0.122498
H	 2.4085918973	 0.2415819848	-0.6468215737	 0.152982
105.8522	152.8552	166.0559	263.5131	314.3889	429.871	451.7608	471.7949	619.7809	711.9863	764.3115	768.5108	785.8017	825.2137	878.4321	916.0049	943.8236	987.1716	1005.393	1058.4459	1087.735	1112.8819	1133.1615	1155.4587	1166.1164	1177.0936	1190.5887	1222.4611	1252.1381	1283.3379	1300.3405	1368.268	1392.4606	1480.9479	1508.5293	1519.3082	1880.2324	3042.2741	3060.0455	3099.6454	3115.4955	3124.2509	3167.9968	3216.7587	3614.4561
O=C1NCC11CC2CN12	O=C1NC[C@]21C[C@H]1CN21	
InChI=1S/C6H8N2O/c9-5-6(3-7-5)1-4-2-8(4)6/h4H,1-3H2,(H,7,9)	InChI=1S/C6H8N2O/c9-5-6(3-7-5)1-4-2-8(4)6/h4H,1-3H2,(H,7,9)/t4-,6-,8?/m0/s1
