15
gdb 50017	3.13823	1.31535	1.07607	2.8316	68.88	-0.2611	-0.0191	0.2421	1102.6212	0.112633	-453.931389	-453.923501	-453.922557	-453.964318	28.505	
N	-0.2483881137	 0.9754172741	 0.6214117941	-0.407053
C	-0.144085373	-0.1594869773	 0.0704538887	 0.057723
N	-1.2037849002	-0.7117744904	-0.6654006443	-0.102878
C	-2.5717210976	-0.559543559	-0.2207494602	-0.285666
C	-1.8985633141	-1.895041286	-0.228973946	 0.116608
C	-2.1448207686	-3.1933651609	-0.9875947029	-0.152952
O	-1.8786407778	-3.9334998339	 0.2515173189	-0.249769
C	-1.597546214	-2.786069031	 0.9602897355	 0.430349
O	-1.2362414286	-2.6822249126	 2.0865306599	-0.329538
H	 0.6356433488	 1.2475448182	 1.0488877962	 0.236089
H	 0.750116049	-0.7910437166	 0.043761076	 0.11203
H	-2.7273563803	-0.0832605205	 0.7436336474	 0.162411
H	-3.3006251031	-0.3325133456	-0.993217926	 0.136923
H	-3.1620170631	-3.3758413381	-1.3386972866	 0.136053
H	-1.4097203037	-3.4387483107	-1.7563868808	 0.139671
86.1376	115.9828	162.6649	195.7899	273.9144	340.4652	357.3082	487.2221	589.1041	679.5638	754.7338	775.1909	815.1856	851.8111	888.3719	946.442	962.0247	1059.5205	1067.0946	1076.6096	1099.7439	1125.4679	1145.0055	1163.5602	1186.9151	1266.9063	1323.9109	1404.9042	1450.3205	1507.4807	1511.4175	1713.1399	1939.3866	3070.9778	3076.8223	3115.841	3141.1611	3211.3604	3500.8149
N=CN1CC11COC1=O	[NH][CH]N1C[C@]21COC2=O	
InChI=1S/C5H6N2O2/c6-3-7-1-5(7)2-9-4(5)8/h3,6H,1-2H2	InChI=1S/C5H6N2O2/c6-3-7-1-5(7)2-9-4(5)8/h3,6H,1-2H2/t5-,7?/m0/s1
