18
gdb 84751	2.51315	1.55221	1.1913	2.3214	72.39	-0.2747	-0.0265	0.2482	1086.3796	0.147662	-439.139061	-439.130515	-439.129571	-439.17217	31.87	
C	-0.1573495905	 1.568543267	-0.0479765937	-0.405038
C	 0.090194658	 0.0608897668	-0.0648379009	 0.031339
N	 0.8457576164	-0.3057922008	-1.2669640226	-0.244071
C	 1.4556752041	-1.4047127687	-1.2415324034	 0.127011
O	 1.4927209668	-2.3272195031	-0.2167569651	-0.218799
C	 1.0399747781	-1.9602281985	 1.0420330349	 0.430391
O	 0.9448699191	-2.8026700447	 1.8820755098	-0.308187
C	 0.7729826139	-0.4775396549	 1.2137535269	-0.143901
C	 2.0964436762	 0.2288914835	 1.5759383517	-0.412959
H	 0.7833842975	 2.124950171	-0.0449254203	 0.128839
H	-0.7116114464	 1.85882872	-0.9438024488	 0.132112
H	-0.7392953507	 1.8594278731	 0.8323739698	 0.114573
H	-0.8885402714	-0.4365180881	-0.1474895242	 0.102759
H	 2.0278404505	-1.7747540997	-2.0879702131	 0.142663
H	 0.0877321769	-0.3921165398	 2.0614989342	 0.112175
H	 2.804032702	 0.2167612617	 0.7421135325	 0.137741
H	 1.9100431119	 1.2705007011	 1.8468743892	 0.132474
H	 2.5643334576	-0.2639818959	 2.4320607329	 0.140879
89.9998	121.9855	211.213	222.5039	238.2815	281.7323	301.1176	410.9048	437.1453	502.9874	561.424	661.7198	735.8836	743.0261	819.8766	874.8347	903.092	954.5685	978.8381	1010.3065	1030.2231	1101.0566	1111.5844	1133.8667	1164.763	1206.9214	1295.8072	1312.5366	1354.9733	1368.953	1401.3133	1405.063	1414.2705	1486.0432	1493.4545	1500.1273	1509.2661	1739.7197	1882.1393	2985.4333	3044.947	3051.1687	3076.9791	3118.7257	3125.2849	3125.9956	3131.2853	3182.8873
CC1N=COC(=O)C1C	C[C@H]1N=COC(=O)[C@H]1C	
InChI=1S/C6H9NO2/c1-4-5(2)7-3-9-6(4)8/h3-5H,1-2H3	InChI=1S/C6H9NO2/c1-4-5(2)7-3-9-6(4)8/h3-5H,1-2H3/t4-,5+/m0/s1
