17
gdb 125302	3.0192	1.80998	1.1476	2.3595	81.82	-0.2129	-0.0073	0.2056	1036.8088	0.138675	-380.912061	-380.904814	-380.90387	-380.943609	28.251	
C	-0.0213694198	 1.488479943	 0.1484194628	-0.489706
C	-0.009471262	 0.0108004932	-0.017191061	 0.365516
C	-0.0264948333	-0.7799078676	-1.1015681658	-0.210861
C	-0.0011061299	-2.2482849199	-0.6986307863	-0.416808
C	 0.033121221	-2.1489082098	 0.7999735267	 0.398379
C	 0.0685728615	-2.8262611204	 2.0008274437	-0.39051
C	 0.0802432281	-1.7952593608	 2.975642307	 0.012314
N	 0.0545622287	-0.5713110012	 2.4371597795	-0.301485
N	 0.026398098	-0.8258659857	 1.1205098177	 0.001751
H	 0.8679618368	 1.8247292003	 0.691794534	 0.151023
H	-0.0513960299	 1.9815673057	-0.8248842752	 0.131719
H	-0.8890980024	 1.8055168818	 0.7364029642	 0.151073
H	-0.0543287262	-0.4353248204	-2.1244876844	 0.106971
H	-0.8829191922	-2.7900269315	-1.0634015379	 0.13872
H	 0.874079088	-2.7709766457	-1.1048160473	 0.138717
H	 0.0839807456	-3.8906521961	 2.168167631	 0.103326
H	 0.106551878	-1.901270725	 4.0505663213	 0.109859
145.6964	169.6468	212.1071	242.9986	280.0938	508.6634	533.159	601.9718	650.429	680.9008	688.3358	742.1966	761.8028	790.0024	879.0586	945.4466	948.7079	952.6849	1013.4315	1050.4927	1070.566	1100.5458	1141.6953	1162.372	1205.7521	1266.1946	1276.573	1339.4184	1396.6816	1409.1795	1424.8791	1448.9338	1462.9256	1470.0718	1486.7634	1583.8442	1704.6203	3029.3311	3042.5116	3053.9181	3096.9805	3138.7044	3241.7846	3247.8054	3271.5307
CC1=CCC2=CC=NN12	CC1=CCc2ccnn12	
InChI=1S/C7H8N2/c1-6-2-3-7-4-5-8-9(6)7/h2,4-5H,3H2,1H3	InChI=1S/C7H8N2/c1-6-2-3-7-4-5-8-9(6)7/h2,4-5H,3H2,1H3
