16
gdb 16796	3.60026	1.93849	1.38161	4.1579	72.13	-0.2328	-0.0433	0.1895	896.6851	0.131216	-346.633943	-346.626942	-346.625998	-346.664978	26.937	
C	-0.0131604267	 1.4792259035	 0.0752651612	-0.493999
C	-0.0130230705	-0.0108771173	-0.0142544449	 0.337434
C	 0.0233369567	-0.7697230895	-1.1246732429	-0.319563
C	-0.006977234	-2.2145871871	-0.7814669211	 0.408877
O	-0.0711414351	-3.1524436691	-1.5434291976	-0.344122
C	 0.0299332343	-2.2906435193	 0.7338145909	-0.157328
C	 1.2574648182	-1.6890327819	 1.3964087427	-0.279244
C	-0.0026005136	-0.8671568293	 1.2192103792	-0.132355
H	 0.846895103	 1.8323976077	 0.6576016922	 0.140498
H	 0.0167876102	 1.9472412105	-0.9112005561	 0.13491
H	-0.9086941441	 1.8354216037	 0.5996180943	 0.13861
H	 0.0813309199	-0.4162576694	-2.1462374388	 0.107432
H	-0.4849738748	-3.102997313	 1.2296371022	 0.109912
H	 1.4942502209	-2.0486185083	 2.3927062272	 0.123299
H	 2.116930863	-1.4453630486	 0.7807402085	 0.127644
H	-0.5626150674	-0.5602781427	 2.0952225329	 0.097993
143.7533	179.4154	201.5197	279.9485	329.0953	458.5324	554.0883	567.8271	632.0871	752.5437	784.2421	818.5691	844.4862	875.042	921.1682	951.8825	986.5096	1015.8679	1053.322	1064.6856	1083.6802	1095.4241	1157.1959	1179.012	1193.9559	1293.684	1321.3925	1367.263	1410.7636	1476.039	1479.9548	1481.6476	1665.1968	1809.9368	3023.7216	3072.0554	3124.6507	3126.6758	3177.0564	3205.0205	3218.8126	3219.6027
CC1=CC(=O)C2CC12	CC1=CC(=O)[C@H]2C[C@@H]12	
InChI=1S/C7H8O/c1-4-2-7(8)6-3-5(4)6/h2,5-6H,3H2,1H3	InChI=1S/C7H8O/c1-4-2-7(8)6-3-5(4)6/h2,5-6H,3H2,1H3/t5-,6-/m0/s1
