20
gdb 17269	5.35076	0.97792	0.91174	1.6974	75.9	-0.2581	0.0933	0.3513	1324.7357	0.17622	-348.97084	-348.962165	-348.961221	-349.00478	31.675	
C	 0.057515673	 1.5247966817	-0.3186241027	-0.403947
C	-0.0363095511	 0.0666360238	 0.0766349012	-0.00754
C	 1.169701439	-0.8407198028	 0.0152555253	-0.294726
C	 0.5578966064	-0.4849533399	 1.352566073	 0.021175
C	 1.3116227146	 0.3659322574	 2.3570991151	-0.256928
C	 2.2161760523	-0.4748151081	 3.2283785005	 0.112064
C	 2.4443529326	-0.1787237465	 4.6472341138	-0.182633
O	 1.5756289719	-1.2426492006	 4.2537056887	-0.238729
H	 1.0271283104	 1.9606916669	-0.0606941692	 0.113729
H	-0.0712664979	 1.6400915921	-1.4005397155	 0.116681
H	-0.7171028372	 2.1245388694	 0.1727729847	 0.116229
H	-0.9762410935	-0.3970577369	-0.2132553919	 0.082926
H	 1.0560934489	-1.8498161964	-0.3655761946	 0.109648
H	 2.1213279413	-0.3796425153	-0.2353608266	 0.103202
H	-0.0196650729	-1.273725599	 1.8275495451	 0.09681
H	 1.9213953299	 1.120265384	 1.8457588585	 0.097077
H	 0.6074967173	 0.9046957175	 3.0032859166	 0.101825
H	 2.9931198713	-1.0252661775	 2.6942982863	 0.091244
H	 3.3736595862	-0.4847474079	 5.1262528575	 0.111675
H	 1.9528187175	 0.6817069082	 5.1006351441	 0.110216
56.5278	74.652	127.5812	187.5803	207.0065	303.5571	357.348	421.9096	447.5188	514.2868	759.6428	789.3044	823.4734	855.9301	869.9299	883.7616	934.6083	959.3736	972.9881	1036.1773	1064.9696	1091.3853	1109.1574	1120.8182	1154.3971	1158.1555	1161.844	1181.842	1200.4165	1243.9399	1264.1885	1294.0403	1311.0655	1389.7301	1414.9623	1428.0661	1446.4654	1465.169	1492.6524	1493.5311	1505.3655	1531.5552	3023.7458	3029.9049	3065.0529	3078.7068	3086.1238	3095.9331	3100.7534	3120.4564	3130.2377	3144.5524	3163.7757	3205.5635
CC1CC1CC1CO1	C[C@H]1C[C@H]1C[C@H]1CO1	
InChI=1S/C7H12O/c1-5-2-6(5)3-7-4-8-7/h5-7H,2-4H2,1H3	InChI=1S/C7H12O/c1-5-2-6(5)3-7-4-8-7/h5-7H,2-4H2,1H3/t5-,6-,7-/m0/s1
