16
gdb 43203	2.71846	1.6858	1.23545	4.3313	69.85	-0.2475	-0.0262	0.2213	1007.9907	0.124649	-437.841627	-437.834237	-437.833292	-437.873739	27.82	
O	 0.039896107	 0.0438280413	 0.2902888147	-0.321443
C	 0.0526446915	 1.2212536338	 0.0843415662	 0.320836
N	-1.0000356523	 2.1726672852	-0.0254359497	-0.147509
C	-1.6962651073	 2.6111418329	 1.2298492661	-0.185047
C	-0.6547743724	 3.7584702802	 1.4079252344	-0.253962
C	-0.04326322	 3.3331921325	 0.0399666808	-0.084162
C	 1.1152972161	 2.3305564684	 0.0161870043	 0.305682
C	 2.4483100578	 2.3452939485	 0.6301933223	-0.253061
O	 2.2698146054	 2.3784659294	-0.7873385877	-0.256483
H	-2.713569666	 2.95176773	 1.02598391	 0.127059
H	-1.7249557626	 1.8340177469	 1.9976189086	 0.133771
H	-1.0694171322	 4.7671645496	 1.4364446993	 0.120199
H	 0.0183845716	 3.6282421422	 2.2588075112	 0.117528
H	-0.0785906701	 4.0531118473	-0.7793770432	 0.105986
H	 2.8151846509	 3.2671070374	 1.0791978571	 0.127513
H	 2.8551644725	 1.4178075843	 1.0285747554	 0.143093
89.2403	179.9354	197.9268	230.8475	252.8639	388.4587	494.7954	579.1543	719.7462	735.7369	744.1492	813.4543	851.9725	896.3439	905.344	943.7926	948.5429	994.5855	1008.0927	1081.1172	1110.8008	1131.1263	1159.9835	1166.6698	1179.5168	1213.8244	1230.2705	1257.5951	1300.1517	1317.0692	1424.8054	1480.8592	1510.5802	1521.579	1889.2176	3067.1438	3072.5111	3087.816	3100.426	3116.199	3136.1085	3184.3354
O=C1N2CCC2C11CO1	O=C1N2CC[C@H]2[C@]21CO2	
InChI=1S/C6H7NO2/c8-5-6(3-9-6)4-1-2-7(4)5/h4H,1-3H2	InChI=1S/C6H7NO2/c8-5-6(3-9-6)4-1-2-7(4)5/h4H,1-3H2/t4-,6-/m0/s1
