14
gdb 46028	2.48039	1.45506	1.196	3.1387	68.49	-0.2247	-0.098	0.1267	1049.6498	0.09967	-436.656984	-436.648822	-436.647877	-436.690259	29.788	
O	 0.0162082396	 0.1262385302	 0.2827938048	-0.270325
C	 0.0137602219	 1.3217609422	 0.1857094252	 0.316573
C	-1.1032588385	 2.3173243648	 0.4710398342	-0.297318
N	-0.7352156081	 3.5446802907	-0.2651472366	-0.291297
C	 0.7435159226	 3.6456292144	-0.2028432675	-0.322182
C	 1.1940419557	 4.220444599	 1.060330564	 0.36506
C	 1.5820585395	 4.6332965978	 2.1200965488	-0.440651
C	 1.2179353182	 2.1765136031	-0.3190085028	 0.31696
O	 2.2523770111	 1.7536949112	-0.7465841496	-0.269996
H	-2.0762537355	 1.9341256006	 0.1587254625	 0.147319
H	-1.1529048119	 2.5330562376	 1.5458221024	 0.156465
H	-1.0028442189	 3.4423117472	-1.2399189494	 0.23825
H	 1.1227686351	 4.228267111	-1.0469949916	 0.138659
H	 1.9251199293	 5.0208424701	 3.0479641557	 0.212482
57.5748	113.3509	140.9279	235.613	302.9951	344.3984	424.967	461.7151	537.6929	624.6934	637.7671	660.4669	668.6016	676.4759	757.7951	805.3266	892.5573	963.2692	1011.2487	1042.7304	1082.6728	1141.3383	1184.7268	1223.6423	1301.6924	1338.365	1453.0912	1456.8753	1851.3692	1867.4846	2234.8838	3036.304	3079.2082	3124.8521	3500.6014	3512.8366
O=C1CNC(C#C)C1=O	O=C1CN[C@@H](C#C)C1=O	
InChI=1S/C6H5NO2/c1-2-4-6(9)5(8)3-7-4/h1,4,7H,3H2	InChI=1S/C6H5NO2/c1-2-4-6(9)5(8)3-7-4/h1,4,7H,3H2/t4-/m0/s1
