19
gdb 6920	4.73267	1.03575	0.97527	3.0664	73.29	-0.2372	-0.0217	0.2155	1249.2025	0.162061	-365.045767	-365.036473	-365.035529	-365.080175	33.157	
C	-0.0213257163	 1.563955904	-0.2280743907	-0.454367
C	-0.0034918364	 0.0564417155	-0.0528233377	 0.339374
C	-1.285012614	-0.6338566671	-0.4783787009	-0.435418
C	 1.2950727315	-0.6723258224	-0.178250865	-0.295643
N	 0.633307309	-0.5546109923	 1.1218487927	-0.12276
C	 1.2641012693	 0.2592552446	 2.1444058572	-0.23186
C	 2.001688628	-0.6346748281	 3.1318957764	 0.158816
O	 2.9508702816	-0.2830988522	 3.7817175404	-0.24025
H	 0.9297574608	 2.0309429702	 0.0360927714	 0.1211
H	-0.2346925947	 1.815612669	-1.2722241904	 0.124899
H	-0.8083009306	 2.0199272799	 0.3841211267	 0.121476
H	-1.4807167782	-0.4704329693	-1.5440751278	 0.114868
H	-1.2226191245	-1.7087583594	-0.2942660863	 0.125769
H	-2.1415925084	-0.2433353552	 0.0830406497	 0.116583
H	 1.3348118889	-1.672020688	-0.6040946959	 0.113926
H	 2.1901242313	-0.0736565112	-0.3457380571	 0.109555
H	 1.9673770681	 1.0253938979	 1.7861222693	 0.114428
H	 0.4811424803	 0.7780321402	 2.7178338538	 0.131196
H	 1.5698239144	-1.6566359661	 3.2140342938	 0.088309
52.4128	77.5044	138.2962	187.0319	200.879	239.7594	295.7608	362.1816	384.1731	431.4604	495.6281	530.133	697.0682	737.1268	813.2894	899.7798	918.9454	960.4317	1012.9948	1024.4073	1056.9086	1068.4871	1120.8394	1141.3467	1143.0115	1210.2792	1251.5835	1287.0685	1331.3899	1386.679	1400.3616	1411.5502	1422.1255	1453.8046	1479.3625	1486.6051	1498.9159	1505.2881	1516.799	1838.4849	2895.7628	2987.3466	3028.4984	3032.0457	3034.5162	3084.9467	3088.705	3093.1643	3124.2775	3125.7184	3171.591
CC1(C)CN1CC=O	CC1(C)CN1CC=O	
InChI=1S/C6H11NO/c1-6(2)5-7(6)3-4-8/h4H,3,5H2,1-2H3	InChI=1S/C6H11NO/c1-6(2)5-7(6)3-4-8/h4H,3,5H2,1-2H3
