18
gdb 45146	2.81315	1.54623	1.17638	4.2598	76.63	-0.2303	-0.0179	0.2124	1070.0758	0.147868	-401.909221	-401.901556	-401.900612	-401.941879	29.923	
O	 0.3164552132	 0.1375525005	-0.6530177439	-0.294794
C	 0.1648487363	 1.2166717971	-0.1624533641	 0.428858
C	-1.0295524032	 1.9130944989	 0.5256920458	-0.361915
C	-0.1779866273	 3.2094953581	 0.6255517457	-0.0213
C	 0.6365271227	 3.3436273566	 1.9403243284	-0.327311
C	 1.7962797252	 2.5866067118	 1.2717090307	 0.3594
C	 3.2432830762	 2.8170351429	 1.4783555504	-0.305842
N	 2.6230265417	 1.5263613164	 1.8324962893	-0.3454
C	 1.0402550871	 2.4728827998	-0.0683175141	-0.243113
H	-1.8854312873	 1.9901876622	-0.153133207	 0.133867
H	-1.376182893	 1.4691139282	 1.4639138553	 0.124293
H	-0.6191523955	 4.1150866538	 0.214299677	 0.080528
H	 0.8867048547	 4.3741854021	 2.207368847	 0.11076
H	 0.188106613	 2.8591812985	 2.8145563746	 0.102258
H	 3.9295579489	 2.775604937	 0.6364577883	 0.124491
H	 3.5382823164	 3.4980988269	 2.2737788443	 0.112625
H	 2.4807793358	 1.4635119947	 2.8379545418	 0.232437
H	 1.5619949547	 2.8001106446	-0.9686671494	 0.090157
53.0074	103.6632	244.7215	324.8751	356.6083	389.977	439.0958	486.6973	553.2051	659.1811	771.3704	793.791	820.6439	839.5318	878.7012	900.8893	919.2761	953.9072	974.7187	1005.2426	1023.3562	1049.4498	1057.7461	1104.4196	1122.3428	1138.239	1167.8482	1197.8192	1218.8722	1229.4001	1259.2015	1266.814	1274.6636	1309.0426	1397.7281	1434.475	1481.64	1510.5582	1891.3957	3039.4915	3050.1237	3091.4708	3098.5412	3100.9334	3108.0809	3133.9974	3184.8069	3494.7965
O=C1CC2CC3(CN3)C12	O=C1C[C@H]2C[C@]3(CN3)[C@@H]12	
InChI=1S/C7H9NO/c9-5-1-4-2-7(3-8-7)6(4)5/h4,6,8H,1-3H2	InChI=1S/C7H9NO/c9-5-1-4-2-7(3-8-7)6(4)5/h4,6,8H,1-3H2/t4-,6+,7-/m0/s1
