15
gdb 5911	4.1127	1.2814	1.21736	2.9417	67.19	-0.2802	0.0091	0.2893	1018.0548	0.115338	-362.639964	-362.630947	-362.630003	-362.673227	32.506	
C	 0.0997077461	 1.5841049267	-0.0158401822	-0.397795
C	 0.0102443273	 0.0557329022	-0.0014879812	 0.190033
O	 0.7108562333	-0.3733786087	 1.1506746087	-0.428392
C	-1.4672507585	-0.4451559269	 0.0056153262	-0.391739
C	-2.2138857655	 0.0030368181	 1.1714644539	 0.31574
C	-2.8368645788	 0.3715543562	 2.1301515224	-0.435295
C	 0.6592070477	-0.4995999527	-1.2171898226	 0.25573
N	 1.1563273648	-0.9635150712	-2.1516436673	-0.333039
H	 1.1469135259	 1.8913852517	 0.0008120451	 0.146976
H	-0.3779764333	 1.9920848357	-0.9095613365	 0.13368
H	-0.4024964384	 1.9722729582	 0.8723762651	 0.151645
H	 0.6719087762	-1.3354571908	 1.2022492251	 0.294552
H	-1.9563365837	-0.1081910059	-0.9161135727	 0.152903
H	-1.4604903531	-1.5419072231	-0.0375962137	 0.140325
H	-3.3892728702	 0.6936375906	 2.9782193696	 0.204676
73.9454	121.13	183.7758	188.8351	238.7489	311.7607	331.0455	347.4528	368.4616	403.0702	497.5642	581.1003	591.5393	627.9398	658.4503	759.5832	877.202	925.1315	969.9898	989.3543	1079.7295	1161.9657	1170.8707	1250.6746	1336.9007	1379.5985	1413.0649	1463.6927	1482.7264	1494.7697	2243.1963	2351.2593	3026.136	3061.3101	3064.8101	3144.3334	3151.0151	3504.4543	3801.0304
CC(O)(CC#C)C#N	C[C@@](O)(CC#C)C#N	
InChI=1S/C6H7NO/c1-3-4-6(2,8)5-7/h1,8H,4H2,2H3	InChI=1S/C6H7NO/c1-3-4-6(2,8)5-7/h1,8H,4H2,2H3/t6-/m1/s1
