19
gdb 69482	4.22409	0.86009	0.8078	2.0733	76.39	-0.2465	-0.0207	0.2259	1428.8556	0.157392	-422.999362	-422.990361	-422.989416	-423.033944	33.346	
O	-0.0220532921	 1.4128054535	-0.0673224	-0.463043
C	-0.0044357267	 0.031065728	-0.0149349146	 0.41219
C	-0.2701663243	-0.8331299752	-1.2117986398	-0.34334
C	-1.2085448604	-0.8993657562	-0.0212917072	-0.134387
C	-0.5968512711	-1.7216898171	 1.1224385292	 0.011904
C	-0.3869630321	-3.2272789865	 0.9098887293	-0.29204
C	 0.2982201918	-3.8562218215	 2.1005839056	 0.16467
O	 1.378763524	-4.3875326485	 2.0767502841	-0.240675
C	 0.6592097393	-0.7773996677	 1.1085169068	-0.324036
H	 0.7304235302	 1.7063755606	-0.5928146928	 0.286572
H	-0.6856147299	-0.2971779017	-2.0594060219	 0.116005
H	 0.3806136881	-1.6631560519	-1.4772816299	 0.107708
H	-2.2603156	-0.6627453184	-0.1279165945	 0.093787
H	-1.1665974717	-1.5657326811	 2.0442894406	 0.084071
H	-1.3685033724	-3.7077338446	 0.7897618122	 0.11536
H	 0.2105166194	-3.4321325289	 0.0176468183	 0.118039
H	-0.2775702326	-3.778116562	 3.0539595938	 0.069339
H	 1.6228410695	-1.2420939767	 0.874282759	 0.104256
H	 0.7541780809	-0.2024117744	 2.0317475418	 0.11362
44.2656	74.5581	136.7169	179.6405	252.4864	300.4978	367.4738	400.0132	412.7185	476.3414	540.8465	613.1712	696.8012	790.2891	838.2666	879.9077	903.9489	920.346	955.1091	970.2147	1016.2652	1029.5236	1065.9494	1076.1412	1086.3552	1104.4377	1158.7173	1217.2468	1226.7217	1230.9927	1255.1972	1271.4384	1310.2719	1322.769	1373.5049	1410.011	1429.3639	1463.5981	1478.7891	1505.8862	1833.0431	2845.4737	3016.193	3047.1126	3048.5621	3103.094	3109.0446	3117.5021	3184.4779	3202.8044	3792.9025
OC12CC1C(CC=O)C2	O[C@]12C[C@H]1[C@@H](CC=O)C2	
InChI=1S/C7H10O2/c8-2-1-5-3-7(9)4-6(5)7/h2,5-6,9H,1,3-4H2	InChI=1S/C7H10O2/c8-2-1-5-3-7(9)4-6(5)7/h2,5-6,9H,1,3-4H2/t5-,6-,7+/m0/s1
