18
gdb 95443	2.58425	1.41554	0.95249	3.156	75.52	-0.2385	-0.0264	0.2122	1207.5535	0.148968	-439.138128	-439.12956	-439.128616	-439.171525	32.608	
N	 0.0086236039	 1.2686945215	-0.0779306026	-0.548269
C	 0.0792582649	-0.0854951873	 0.0889501107	 0.302891
O	 1.1310196675	-0.7027105022	 0.1063633447	-0.369323
C	-1.2484958611	-0.7600583771	 0.2241719358	 0.194222
C	-1.3822145356	-2.0713382728	 0.4429654577	-0.133002
C	-2.8194366118	-2.5152264559	 0.4627009892	-0.270033
C	-3.6035248115	-1.1809934533	 0.5092705721	-0.235247
C	-2.6029419032	-0.0903921456	 0.0517196192	 0.0015
O	-2.7479929658	 1.1532696116	 0.7484069522	-0.428341
H	 0.8787452003	 1.7759804515	-0.0822357033	 0.253749
H	-0.8532252722	 1.7525513925	 0.1332276857	 0.266908
H	-0.5396497538	-2.7447690585	 0.5491901741	 0.12819
H	-3.0500321305	-3.086875578	-0.4467592204	 0.123073
H	-3.0483493917	-3.1806503594	 1.3026259709	 0.114273
H	-4.5166299371	-1.1910222555	-0.0895424673	 0.111508
H	-3.8998434579	-0.9571645399	 1.5407756123	 0.101314
H	-2.7630707608	 0.188036748	-0.9969793578	 0.106455
H	-2.6176285937	 0.9737345505	 1.6875278267	 0.28013
80.3573	91.0806	188.2763	212.4042	292.5941	353.2246	376.868	406.9739	474.186	499.4546	585.3076	608.314	669.6358	695.1746	771.9931	814.699	835.8051	921.5411	933.626	944.3105	1013.1694	1043.8862	1069.2489	1121.6246	1129.2242	1157.0698	1231.9016	1253.4931	1266.9448	1311.0583	1328.655	1342.8784	1366.5821	1428.1187	1478.5432	1495.0462	1619.0908	1695.6259	1777.9582	3018.4626	3034.9641	3041.9407	3060.8723	3109.6686	3211.9228	3543.3789	3698.8049	3783.5529
NC(=O)C1=CCCC1O	NC(=O)C1=CCC[C@H]1O	
InChI=1S/C6H9NO2/c7-6(9)4-2-1-3-5(4)8/h2,5,8H,1,3H2,(H2,7,9)	InChI=1S/C6H9NO2/c7-6(9)4-2-1-3-5(4)8/h2,5,8H,1,3H2,(H2,7,9)/t5-/m1/s1
