20
gdb 60084	2.37284	1.18389	1.00187	5.2489	80.87	-0.2288	0.0246	0.2534	1302.0777	0.170147	-399.294577	-399.284841	-399.283896	-399.329284	35.484	
C	-0.1407251123	 1.5291839355	 0.1820120027	-0.336377
N	-0.0225197266	 0.0861247618	 0.037862607	-0.037561
C	 0.7437963015	-0.5086801925	 1.1212944079	-0.319404
C	-1.2918113845	-0.5832860821	-0.1613561212	-0.216326
C	-1.9591036262	-0.2261912957	-1.4837331967	 0.114263
C	-3.4346750938	-0.424908842	-1.6171420608	-0.266262
N	-2.8818660612	 0.9285270921	-1.5769362229	-0.320067
C	-1.1307827196	-0.4246666932	-2.657827125	 0.305473
N	-0.4837229817	-0.62031738	-3.5950359346	-0.340541
H	 0.8564058099	 1.9647777865	 0.2895288995	 0.12915
H	-0.5998311678	 1.9675475762	-0.7071689832	 0.147165
H	-0.7371713406	 1.8266029617	 1.0678920469	 0.085258
H	 0.2632720671	-0.39495704	 2.1121726634	 0.092863
H	 0.8873417885	-1.5770210617	 0.933690074	 0.125006
H	 1.7299712496	-0.0381453741	 1.1715416477	 0.126975
H	-1.108188749	-1.6636204103	-0.1474275912	 0.123646
H	-2.0248841826	-0.372692015	 0.6472552561	 0.072504
H	-3.8465353784	-0.7257161866	-2.5747107278	 0.14642
H	-3.9550343765	-0.8129039796	-0.7450156547	 0.126198
H	-2.9982155958	 1.3293623692	-0.6485028171	 0.241615
69.0799	85.624	139.1506	200.2892	235.1886	251.5251	264.1188	323.8511	345.6953	356.6159	409.9947	471.7067	575.2011	591.3496	724.5395	835.9058	858.2584	905.3653	945.7464	984.3701	1027.3901	1070.1559	1074.6536	1088.2044	1125.352	1144.585	1172.0687	1217.8112	1253.338	1294.7411	1311.1065	1315.3948	1378.2276	1403.4748	1447.2748	1469.2795	1483.4793	1489.3225	1500.2285	1503.6116	1506.9757	1514.1234	2362.3726	2868.364	2907.6863	2926.6044	3057.2853	3066.1521	3079.5741	3111.4758	3114.7573	3125.2452	3210.1443	3491.906
CN(C)CC1(CN1)C#N	CN(C)C[C@]1(CN1)C#N	
InChI=1S/C6H11N3/c1-9(2)5-6(3-7)4-8-6/h8H,4-5H2,1-2H3	InChI=1S/C6H11N3/c1-9(2)5-6(3-7)4-8-6/h8H,4-5H2,1-2H3/t6-/m1/s1
