13
gdb 7031	6.86293	1.07405	0.94138	7.5775	60.5	-0.2519	-0.0299	0.2221	1145.8925	0.094952	-431.962017	-431.953702	-431.952758	-431.99594	27.706	
N	 0.4564685517	 1.1739629159	-0.2437891749	-0.390775
C	 0.1049615809	 0.000237114	 0.0683537231	 0.088459
N	-1.215722215	-0.4509165933	 0.0636578016	-0.378737
C	-2.3798887705	 0.3235003953	-0.0424902232	 0.532539
O	-2.4350300738	 1.5156012978	 0.0131185502	-0.293031
N	-3.5025203813	-0.5234551975	-0.2298832166	-0.396008
C	-4.839732748	-0.1630023985	-0.1017422981	 0.171962
O	-5.2652350064	 0.877974549	 0.3122676514	-0.25085
H	 1.468620045	 1.2623604388	-0.1721818006	 0.233582
H	 0.7792815389	-0.8150329844	 0.3607122277	 0.097296
H	-1.3354795796	-1.4228123943	 0.299493292	 0.25064
H	-3.3364382294	-1.4521398674	-0.5887538024	 0.250893
H	-5.4873418025	-1.0032159753	-0.4275641903	 0.08403
51.5763	61.025	145.1945	170.7117	224.8694	248.4493	351.4657	490.3451	492.2391	551.4165	692.7594	742.3701	818.5028	868.9778	976.2729	1027.948	1042.858	1060.6603	1146.8512	1174.9568	1257.2462	1430.3119	1447.051	1496.8923	1532.9565	1743.6684	1831.379	1897.5073	2918.9702	3031.7108	3504.5481	3608.2969	3638.9464
N=CNC(=O)NC=O	N=CNC(=O)NC=O	
InChI=1S/C3H5N3O2/c4-1-5-3(8)6-2-7/h1-2H,(H3,4,5,6,7,8)	InChI=1S/C3H5N3O2/c4-1-5-3(8)6-2-7/h1-2H,(H3,4,5,6,7,8)
