23
gdb 98833	3.02462	1.00108	0.92232	2.4782	86.04	-0.2369	-0.0094	0.2275	1434.5316	0.204112	-388.311883	-388.301547	-388.300602	-388.348196	37.448	
C	 0.2997113064	 1.4322179177	 0.4995601314	-0.378
C	 0.3281405807	-0.0470065373	 0.1255796566	-0.282136
C	 0.4180307912	-0.3038507768	-1.3729478842	 0.375847
O	 0.3569861496	 0.5990707572	-2.1805530872	-0.317885
C	 0.6239221614	-1.7424801976	-1.7977889335	-0.082483
C	 0.3252256694	-2.1172357091	-3.2693268079	-0.236434
C	 1.6450896587	-2.9285617301	-3.3200256285	-0.222821
C	 2.1214255007	-2.2165084963	-2.020071679	 0.012167
C	 3.1450691107	-1.1096446433	-2.2544205427	-0.400549
H	 1.2127914661	 1.9361654008	 0.1712435785	 0.127764
H	-0.5393494446	 1.9376030425	 0.0153576961	 0.13356
H	 0.2058021275	 1.5583254834	 1.5818530131	 0.10776
H	 1.1640835823	-0.5708927607	 0.6103781483	 0.118788
H	-0.5723628516	-0.5639593548	 0.4883361369	 0.121679
H	 0.1329465992	-2.4135016427	-1.0862916599	 0.07045
H	-0.6048059592	-2.6579177763	-3.4577265984	 0.096688
H	 0.3486721204	-1.22444817	-3.8975871204	 0.126935
H	 1.4856591562	-3.9999968706	-3.1710654717	 0.097775
H	 2.2778494242	-2.7938196592	-4.201649603	 0.09759
H	 2.4813321991	-2.8879929339	-1.2351380467	 0.070216
H	 2.7995059689	-0.3925127224	-3.0049796932	 0.139185
H	 3.3576556839	-0.5501930286	-1.3365699192	 0.111561
H	 4.0885119389	-1.5416047718	-2.6055582453	 0.112342
38.4342	63.4983	80.8052	147.5651	192.2124	198.5668	251.8438	299.2231	336.077	347.5754	398.566	549.7678	634.1176	682.6809	757.4635	774.4435	815.0303	881.1598	891.5517	925.4639	953.7484	966.6341	1006.4407	1013.7915	1041.9518	1082.7947	1100.2987	1129.7824	1150.2073	1156.4825	1221.5703	1238.8496	1259.9889	1274.3978	1279.3437	1284.8046	1348.1848	1358.9641	1387.855	1411.9387	1412.7892	1449.1703	1482.6786	1491.92	1493.7538	1496.4221	1497.665	1501.5633	1792.1962	3010.2098	3029.2175	3036.3221	3047.008	3050.3002	3053.0948	3063.5275	3072.5152	3090.9764	3099.9043	3111.743	3119.7237	3127.8174	3130.4177
CCC(=O)C1CCC1C	CCC(=O)[C@H]1CC[C@H]1C	
InChI=1S/C8H14O/c1-3-8(9)7-5-4-6(7)2/h6-7H,3-5H2,1-2H3	InChI=1S/C8H14O/c1-3-8(9)7-5-4-6(7)2/h6-7H,3-5H2,1-2H3/t6-,7+/m1/s1
