21
gdb 58973	3.49824	0.91941	0.87428	4.2309	87.54	-0.2294	-0.0355	0.1939	1441.916	0.182018	-387.145158	-387.135623	-387.134679	-387.180347	35.076	
C	-0.0207255608	 1.5508388182	 0.0223355332	-0.392146
C	-0.0216020552	 0.0105625853	-0.0361751713	-0.073824
C	-1.4603561924	-0.5393881281	 0.0221837299	-0.392145
C	 0.7168257791	-0.4979349922	-1.2463142534	 0.366261
C	 1.8229330151	-1.2597198664	-1.231556496	-0.325859
C	 2.2836214674	-1.5769064436	-2.5964190562	 0.3972
O	 3.245518725	-2.2390441973	-2.9141665903	-0.340379
C	 1.298954892	-0.8992092365	-3.5644582561	-0.335788
C	 0.2693009483	-0.1895268355	-2.6657132869	-0.322388
H	 0.9975607441	 1.9497562414	-0.0067583857	 0.123359
H	-0.5793639324	 1.9835906787	-0.8140426321	 0.120461
H	-0.4936434329	 1.8930669054	 0.9481078626	 0.119519
H	 0.513495108	-0.3580500232	 0.8473668302	 0.085315
H	-2.0637812083	-0.1716599274	-0.8141968479	 0.120461
H	-1.4700328815	-1.6329804419	-0.0070159687	 0.123357
H	-1.9487609935	-0.2196468321	 0.9479548221	 0.119519
H	 2.3408979186	-1.6164469174	-0.3493715102	 0.104148
H	 1.8466539316	-0.2112996955	-4.2150475247	 0.131446
H	 0.8510052756	-1.6568375808	-4.2139440153	 0.131463
H	-0.7522584923	-0.5475666651	-2.8382434059	 0.119996
H	 0.2405319247	 0.892592224	-2.8382158874	 0.120021
33.9014	85.9654	119.235	196.8138	223.1656	252.4432	259.1501	293.6305	428.9647	509.9571	545.8212	570.0326	588.37	632.9447	833.3122	834.6509	844.0078	903.6535	905.1983	931.8424	966.0227	995.237	1011.8898	1039.6161	1109.0318	1155.1159	1159.7058	1181.0509	1205.1622	1236.2842	1258.5187	1298.9112	1336.5745	1342.3563	1373.9997	1394.4827	1418.4742	1452.1053	1482.1613	1487.7571	1491.155	1502.0631	1511.8693	1669.1897	1809.842	3029.6362	3033.5078	3034.7399	3039.6339	3062.5179	3066.2277	3102.3137	3106.6719	3108.3383	3110.6072	3112.4864	3208.2931
CC(C)C1=CC(=O)CC1	CC(C)C1=CC(=O)CC1	
InChI=1S/C8H12O/c1-6(2)7-3-4-8(9)5-7/h5-6H,3-4H2,1-2H3	InChI=1S/C8H12O/c1-6(2)7-3-4-8(9)5-7/h5-6H,3-4H2,1-2H3
