25
gdb 119262	1.76671	1.01388	0.72373	1.3356	89.27	-0.2604	0.0784	0.3387	1693.957	0.227399	-389.4808	-389.469727	-389.468783	-389.517758	40.488	
C	-0.1700546054	 1.5124810666	 2.3940309212	-0.379788
C	-0.19285085	-0.0141500519	 2.2765755241	-0.165301
C	 0.9500776634	-0.5596763481	 1.4087298159	-0.257962
C	 1.0151923322	-2.0811154756	 1.3279020445	 0.385016
C	-0.1818772072	-2.7945147238	 0.7152801078	-0.258995
C	-0.4289712153	-2.4526311833	-0.7512929024	-0.074436
O	-1.5061132169	-3.2627196138	-1.2021057072	-0.420589
C	 2.3740475325	-2.7015636859	 1.0893632763	-0.316978
C	 1.7320405425	-2.7912180128	 2.4533000436	-0.311841
H	-0.2598375446	 1.9873327345	 1.41036082	 0.111861
H	-0.9935006896	 1.8783757163	 3.0153264342	 0.11079
H	 0.7667142919	 1.8617469676	 2.8428931423	 0.112106
H	-0.1301712837	-0.4635118483	 3.275837747	 0.09839
H	-1.1581531122	-0.3294427882	 1.8621391106	 0.100036
H	 0.872344788	-0.1324321866	 0.3992927043	 0.091692
H	 1.9035482537	-0.1924716367	 1.810844012	 0.087149
H	-0.0330109315	-3.8785504799	 0.7809422263	 0.100497
H	-1.0954902314	-2.5773643657	 1.2813920007	 0.10533
H	-0.6692892269	-1.3835528068	-0.8613051967	 0.084511
H	 0.4864591389	-2.6424235123	-1.3345674253	 0.086427
H	-1.6841812711	-3.0412906818	-2.1205929207	 0.283987
H	 2.4258396566	-3.6064087994	 0.4923702704	 0.108027
H	 3.2280964851	-2.0432678773	 0.9676992726	 0.105595
H	 2.150566266	-2.1871575766	 3.2519546463	 0.105994
H	 1.3547491052	-3.7547350302	 2.7793741819	 0.108482
50.9437	69.8784	87.8568	127.5953	172.4469	181.6341	243.6051	265.6263	306.7534	317.494	350.3102	403.6336	429.8498	521.2181	739.5574	759.6812	786.5311	801.3053	865.1442	887.8251	914.3854	940.5147	959.6233	972.1144	1030.1331	1046.9007	1052.4748	1069.135	1079.3611	1089.5143	1119.0127	1131.5756	1187.208	1220.0105	1244.9046	1251.5845	1296.017	1304.2475	1313.3972	1332.8906	1344.8607	1377.1696	1402.855	1413.6951	1459.9936	1467.7065	1484.5784	1491.5163	1493.7622	1500.5989	1505.8023	1510.4033	1529.1169	2967.5205	2993.3626	3007.5364	3024.1533	3028.0369	3031.5124	3035.7534	3059.52	3072.7873	3094.482	3100.5865	3122.7726	3127.5328	3199.7859	3214.2746	3830.8828
CCCC1(CCO)CC1	CCCC1(CCO)CC1	
InChI=1S/C8H16O/c1-2-3-8(4-5-8)6-7-9/h9H,2-7H2,1H3	InChI=1S/C8H16O/c1-2-3-8(4-5-8)6-7-9/h9H,2-7H2,1H3
