23
gdb 110128	1.72629	1.2132	0.83042	3.4698	87.97	-0.2405	-0.0158	0.2247	1511.3786	0.203731	-388.29865	-388.287996	-388.287052	-388.33502	38.305	
C	 0.8878778641	 0.897112341	 0.8539767794	-0.377961
C	-0.0995488437	 0.2012704749	-0.0911854323	-0.203175
C	 0.6077640805	-0.4715316423	-1.2544088566	-0.041592
C	 1.1157278676	-1.8786305051	-1.2288163922	-0.014402
C	 0.9773160015	-2.8210594041	-0.0466438155	-0.208553
C	 0.9606791209	-4.2962473668	-0.4645907112	-0.377514
C	-0.0597624175	-1.520992197	-2.1539436653	-0.149811
C	-1.4293262888	-2.0090360184	-1.8928458086	 0.163574
O	-2.2140710293	-2.3037536343	-2.7646249345	-0.279831
H	 1.5828553572	 0.1788711628	 1.300806284	 0.121267
H	 1.4837932395	 1.6458667998	 0.3205526953	 0.117643
H	 0.3616621069	 1.407276893	 1.6663907384	 0.116071
H	-0.6984196008	-0.5171799532	 0.4762543664	 0.101765
H	-0.8089722476	 0.9387493265	-0.4868532086	 0.10795
H	 1.2243795779	 0.2242940789	-1.8201845623	 0.094729
H	 2.0369463573	-2.0440780004	-1.7838953799	 0.094821
H	 1.8229879524	-2.6442180574	 0.6306180787	 0.10362
H	 0.0781735163	-2.5972336121	 0.5352193581	 0.102331
H	 0.101846904	-4.5166379998	-1.1068079037	 0.130149
H	 1.8658013068	-4.5582132696	-1.0231723434	 0.117426
H	 0.9057677799	-4.9525373717	 0.4091875038	 0.1151
H	 0.1562817433	-1.4599299124	-3.2156558955	 0.101759
H	-1.7206902783	-2.0993257421	-0.8237025647	 0.064634
61.5474	67.2484	92.4288	139.5232	187.1226	196.4232	229.9716	256.5489	276.016	322.8295	419.224	448.85	533.8498	560.1758	731.4365	770.9	813.9418	817.2237	887.6417	930.9536	972.848	983.0684	1014.3033	1047.0882	1058.8746	1060.2183	1100.7582	1118.8851	1151.8351	1189.9516	1197.6919	1260.239	1287.4191	1290.9445	1332.3646	1336.614	1356.5239	1404.3454	1411.0416	1416.9495	1435.5656	1465.2475	1488.3488	1489.4116	1497.5189	1498.1865	1505.6665	1509.243	1802.428	2885.1402	3025.1398	3032.4335	3033.9686	3034.5272	3068.6132	3078.4972	3102.5753	3104.812	3108.7733	3108.9942	3119.083	3129.7936	3167.6384
CCC1C(CC)C1C=O	CC[C@H]1[C@@H](CC)[C@H]1C=O	
InChI=1S/C8H14O/c1-3-6-7(4-2)8(6)5-9/h5-8H,3-4H2,1-2H3	InChI=1S/C8H14O/c1-3-6-7(4-2)8(6)5-9/h5-8H,3-4H2,1-2H3/t6-,7+,8-
