18
gdb 33650	2.88911	1.52686	1.50795	1.7618	82.84	-0.212	0.0231	0.2351	988.583	0.148867	-364.716637	-364.709431	-364.708487	-364.747937	29.567	
C	-0.0284069309	-1.1874454278	-0.1128718676	-0.339732
C	-0.0165141231	 0.0149019674	-0.0555573673	 0.048246
C	 0.0127497913	 1.4369738796	 0.0385217784	 0.309275
C	-0.6190677961	 2.3359363436	 1.1691082689	-0.106095
C	 0.7664098958	 2.9999107852	 1.3731996805	-0.23375
C	 1.2831091937	 2.3705494107	 0.0545359544	-0.106077
C	 0.6851064868	 3.0339422456	-1.1981552986	-0.174578
N	-0.6351069724	 2.3323489878	-1.0393107916	-0.191606
C	-1.4373018245	 2.9955252909	 0.0456544371	-0.174556
H	-0.0437806552	-2.2474767956	-0.1722075318	 0.183318
H	-1.1399624449	 1.9447427574	 2.0428894436	 0.079595
H	 0.7967404151	 4.0908781449	 1.4588617591	 0.094819
H	 1.2796411341	 2.5650795945	 2.2354806562	 0.110416
H	 2.310201627	 2.0074675815	 0.0211985781	 0.079594
H	 0.6210853512	 4.1276035249	-1.2150306571	 0.097745
H	 1.1635583227	 2.6962428534	-2.1228228017	 0.112827
H	-2.4684746985	 2.6307619386	 0.0055389198	 0.112814
H	-1.4500288721	 4.0901237374	-0.0010115705	 0.097745
140.0788	143.1518	305.5652	326.2575	413.5958	480.1556	491.9498	551.3487	598.5702	614.5276	649.5632	671.8944	815.7674	833.8355	841.5056	920.6054	938.485	943.371	960.7021	988.7731	1029.8785	1032.6435	1045.2324	1115.4822	1117.8873	1165.3049	1166.6968	1213.4062	1215.6686	1257.4323	1277.4949	1295.251	1316.338	1321.0108	1334.642	1482.1303	1491.9938	1509.9646	2227.229	3031.7277	3036.7601	3045.24	3082.4206	3085.1209	3096.5721	3108.2823	3111.9731	3501.3794
C#CC12C3CC1CN2C3	C#C[C@@]12[C@H]3C[C@@H]1CN2C3	
InChI=1S/C8H9N/c1-2-8-6-3-7(8)5-9(8)4-6/h1,6-7H,3-5H2	InChI=1S/C8H9N/c1-2-8-6-3-7(8)5-9(8)4-6/h1,6-7H,3-5H2/t6-,7+,8+
