21
gdb 30690	3.0235	1.19049	0.9416	1.2242	86.37	-0.1608	0.0543	0.2151	1309.6043	0.183244	-383.291945	-383.282419	-383.281475	-383.326429	35.721	
C	 0.1423201123	 1.5619702076	 0.1288613945	-0.381303
C	-0.0025951841	 0.0341747873	 0.0375625966	-0.154529
N	 0.6367943549	-0.7205290006	 1.1038752813	-0.1486
C	-0.0200008802	-0.6947194476	 2.3947480764	-0.332708
C	 2.0334845277	-0.7912676595	 1.1005536111	 0.341986
C	 2.8818636755	-0.5471936043	 0.031430887	-0.199124
N	 4.1715118765	-0.8035335648	 0.4543027176	-0.245576
C	 4.1654973072	-1.1873821429	 1.7615484375	-0.071221
C	 2.8600608751	-1.1876296911	 2.1997314525	-0.265109
H	 1.1964838197	 1.8520782776	 0.143128733	 0.128251
H	-0.3367828097	 2.0457720005	-0.7290177233	 0.107599
H	-0.3287213113	 1.9495798079	 1.037944451	 0.115706
H	-1.0656368785	-0.2341366349	 0.0349555036	 0.094874
H	 0.4010342832	-0.3210253827	-0.9178969616	 0.105068
H	 0.2523550491	-1.5813584309	 2.9762554941	 0.125665
H	 0.22061793	 0.192942431	 3.0046425003	 0.103247
H	-1.1030344644	-0.7206868062	 2.2438346087	 0.11345
H	 2.6860691703	-0.2225130067	-0.9755741856	 0.106225
H	 4.9902639405	-0.6980922516	-0.1163580199	 0.256789
H	 5.0796301329	-1.4276694971	 2.2800599806	 0.112829
H	 2.5352056833	-1.4427651909	 3.1951010144	 0.08648
55.0005	101.6534	135.3132	180.4546	209.0137	270.2709	295.2069	388.0098	394.3211	430.1271	510.2004	597.7675	601.6816	625.6519	679.102	732.3936	791.1469	794.22	867.6626	901.0233	950.0683	1015.3067	1081.6352	1089.993	1103.1851	1104.8663	1149.272	1172.9186	1213.653	1231.3009	1296.5448	1326.6809	1383.6156	1387.1703	1399.2305	1410.8948	1460.7854	1484.1374	1484.4864	1488.1857	1494.3556	1510.204	1514.5836	1533.7553	1621.6078	2954.307	3026.1318	3036.0704	3058.2798	3060.2942	3102.3249	3103.8365	3119.9447	3254.6973	3273.203	3278.8534	3698.3293
CCN(C)C1=CNC=C1	CCN(C)c1c[nH]cc1	
InChI=1S/C7H12N2/c1-3-9(2)7-4-5-8-6-7/h4-6,8H,3H2,1-2H3	InChI=1S/C7H12N2/c1-3-9(2)7-4-5-8-6-7/h4-6,8H,3H2,1-2H3
