19
gdb 36397	5.10143	0.83218	0.77399	1.8074	83.1	-0.2199	0.0392	0.2591	1483.2124	0.158214	-381.970575	-381.961725	-381.96078	-382.004518	33.319	
C	-0.0189026391	-1.2213216706	-0.0231349897	-0.43145
C	-0.0215899256	-0.0199182321	-0.0188970087	 0.308174
C	-0.0244604434	 1.4402467163	 0.0164113708	-0.313556
N	 1.3209044483	 1.9871478614	 0.048333896	-0.076875
C	 2.1430085956	 1.7466786551	 1.2568198155	-0.247206
C	 2.583195046	 3.2120327352	 1.1890399167	 0.339964
C	 3.1861511556	 4.065465251	 2.227244253	-0.308927
N	 3.9380163822	 3.7106345857	 1.0024773632	-0.352782
C	 1.4556004948	 3.4576197188	 0.186410133	-0.226147
H	-0.0174728389	-2.2830014092	-0.0399078383	 0.197307
H	-0.5283773995	 1.8270133108	-0.8788625289	 0.136117
H	-0.6310278764	 1.774178895	 0.8840496283	 0.103084
H	 1.5504279343	 1.5178528257	 2.1575468753	 0.09454
H	 2.9131923244	 0.9763868056	 1.1358097182	 0.110132
H	 2.9126441221	 5.1146636844	 2.3054737158	 0.120052
H	 3.4663945776	 3.6010478526	 3.1702188825	 0.112401
H	 4.6150083543	 2.978272242	 1.2050305383	 0.231379
H	 1.7201304212	 3.9818780955	-0.7371756704	 0.117306
H	 0.5753934467	 3.9394658267	 0.6434510494	 0.086488
62.9664	77.673	137.7247	257.556	292.3198	302.962	344.0049	395.1321	397.0848	446.5303	586.5012	612.511	660.6958	766.0227	825.2323	868.7694	911.1333	930.6801	958.037	971.4956	986.353	1002.7843	1048.4426	1094.5296	1107.3594	1127.2326	1138.2733	1178.7907	1201.7887	1255.7169	1264.4844	1272.0167	1300.1223	1322.7121	1388.0817	1440.9067	1478.1268	1493.8829	1515.9156	1523.6684	2242.4257	2883.4935	2964.3616	2973.836	3034.402	3052.2084	3072.009	3099.4031	3182.5395	3490.5488	3506.3155
C#CCN1CC2(CN2)C1	C#CCN1CC2(CN2)C1	
InChI=1S/C7H10N2/c1-2-3-9-5-7(6-9)4-8-7/h1,8H,3-6H2	InChI=1S/C7H10N2/c1-2-3-9-5-7(6-9)4-8-7/h1,8H,3-6H2
