17
gdb 124623	4.26484	0.90646	0.89146	1.1606	73.33	-0.2468	-0.0156	0.2312	1376.406	0.134471	-455.130543	-455.121759	-455.120814	-455.166035	31.377	
C	-0.0382211065	 1.5615208484	-0.0505732135	-0.367598
C	-0.0254306279	 0.0300278543	-0.0056712046	 0.036141
C	-1.4448314379	-0.5466619696	-0.0425515326	-0.367808
N	 0.7093173178	-0.4633327084	-1.1751446846	-0.361802
C	 1.7187549084	-1.175092301	-1.0287513281	 0.542182
O	 2.4543772485	-1.6724164636	-2.0955007216	-0.196253
C	 3.4485472004	-2.3799539464	-1.5297821924	 0.10484
N	 3.4612871382	-2.4123886937	-0.2541615747	-0.111845
O	 2.3334107994	-1.6278394699	 0.1140575284	-0.257297
H	 0.9785807868	 1.9629157787	-0.0114722961	 0.115232
H	-0.5061107551	 1.9104572836	-0.9763607941	 0.124607
H	-0.5996669152	 1.9645424007	 0.7982702491	 0.110961
H	 0.4565587533	-0.2881863473	 0.9290331467	 0.091426
H	-1.947801167	-0.2587434496	-0.9709256327	 0.124826
H	-1.4256594363	-1.6392027608	 0.0088229766	 0.115303
H	-2.0313463177	-0.1734129985	 0.8029788046	 0.111346
H	 4.1637012207	-2.8702224268	-2.1716288004	 0.18574
10.1955	112.0234	143.943	194.4429	226.5234	260.0607	310.9289	439.5241	465.2243	497.5278	593.5628	714.4327	721.3425	846.5603	883.1075	888.2784	898.3561	932.4151	943.3941	953.8845	1019.3578	1104.1818	1137.206	1158.5565	1198.0526	1209.7385	1297.6717	1359.8679	1386.6815	1395.3612	1415.6033	1481.4992	1486.967	1494.685	1510.1077	1674.1154	1842.1422	3006.9464	3035.003	3039.3181	3108.7711	3112.6194	3113.1817	3117.7714	3284.9972
CC(C)N=C1OC=NO1	CC(C)N=c1ocno1	
InChI=1S/C5H8N2O2/c1-4(2)7-5-8-3-6-9-5/h3-4H,1-2H3	InChI=1S/C5H8N2O2/c1-4(2)7-5-8-3-6-9-5/h3-4H,1-2H3
