22
gdb 87000	5.46283	0.64376	0.61155	3.7849	85.14	-0.2486	0.0341	0.2827	1859.7863	0.194211	-404.372503	-404.362616	-404.361672	-404.408986	35.797	
C	-0.342521581	 1.414625742	 0.0005395165	-0.407557
C	 0.0351541458	-0.0575594875	-0.0337989862	 0.063347
C	 1.2839233389	-0.5021342172	-0.8475170492	-0.254839
C	 1.6141861203	-1.5192520867	 0.2785861647	 0.045708
C	 3.0750657788	-1.7178810547	 0.6606592339	-0.191394
N	 3.2443463741	-2.5825637476	 1.8196750815	-0.273213
C	 3.8390834143	-3.8040091196	 1.7622038203	 0.154826
O	 4.3270427441	-4.3044460826	 0.7708817483	-0.322922
C	 0.6858385295	-0.7022946979	 1.2234710943	-0.254838
H	 0.5106547976	 2.0322821881	 0.3041014164	 0.109447
H	-0.6723517657	 1.7642319881	-0.9842699282	 0.116085
H	-1.1575998318	 1.600928371	 0.7090051935	 0.114206
H	-0.8304435158	-0.6554967286	-0.3410082788	 0.0743
H	 1.1333772518	-0.8883893483	-1.8584213323	 0.100806
H	 2.0318342005	 0.2989197551	-0.8895903456	 0.094848
H	 1.1662689486	-2.4940405835	 0.0587552594	 0.083051
H	 3.62840103	-2.1923125942	-0.1537875998	 0.148189
H	 3.5418242094	-0.7434751152	 0.8601625141	 0.099311
H	 2.8524889467	-2.290485411	 2.7009906817	 0.247134
H	 3.8349669053	-4.3057857573	 2.7509098064	 0.070402
H	 1.2556817596	 0.0430048675	 1.7928785675	 0.088479
H	 0.0379848689	-1.2482103196	 1.9145905218	 0.094626
22.7555	56.2986	84.2823	159.607	225.4733	247.5837	278.1918	317.5283	383.5775	412.8889	439.9223	540.123	607.6011	742.1145	792.6858	812.2035	895.2222	899.6277	934.7335	951.9514	969.6229	993.9086	1031.7298	1073.7629	1089.4879	1138.8274	1146.8467	1174.226	1213.6697	1233.5914	1234.3968	1262.5044	1269.241	1291.312	1308.3282	1354.493	1375.1962	1404.6966	1413.0316	1432.1818	1476.1302	1483.5347	1494.8042	1496.3466	1505.6559	1533.7095	1806.9534	2929.2209	3010.7245	3021.3634	3025.3834	3033.6283	3040.8405	3055.0116	3088.5903	3090.4085	3093.4031	3103.9605	3110.6769	3633.0183
CC1CC(CNC=O)C1	C[C@H]1C[C@@H](CNC=O)C1	
InChI=1S/C7H13NO/c1-6-2-7(3-6)4-8-5-9/h5-7H,2-4H2,1H3,(H,8,9)	InChI=1S/C7H13NO/c1-6-2-7(3-6)4-8-5-9/h5-7H,2-4H2,1H3,(H,8,9)/t6-,7+
