13
gdb 130689	3.13014	1.28098	1.01806	5.0171	63.82	-0.2434	-0.006	0.2373	1106.229	0.091154	-448.972183	-448.964532	-448.963588	-449.005466	26.973	
O	-0.040728368	-0.0608566744	 0.2728993927	-0.421637
C	-0.0365665998	 1.137162912	 0.0974273018	 0.496164
N	-1.1068423023	 2.0311316977	 0.0071562027	-0.369211
C	-0.6103564149	 3.2939205896	-0.1909295034	 0.07499
N	 0.6834827028	 3.3125885895	-0.2350110475	-0.232327
N	 1.0433390917	 1.9935357595	-0.0549282528	-0.068284
C	 2.4191849655	 1.5721844424	-0.0739784912	-0.288128
C	 3.0284009069	 1.643047633	-1.4111292224	 0.279643
N	 3.5191660455	 1.6974846532	-2.4546131151	-0.294698
H	-2.0689693137	 1.7476249526	 0.0752406864	 0.288244
H	-1.2301282922	 4.1703129585	-0.2947455968	 0.16522
H	 3.0083442381	 2.1811160311	 0.6188380037	 0.174237
H	 2.4283151105	 0.5345306353	 0.2743079221	 0.195788
47.8789	78.0221	225.5064	256.2678	268.8936	370.4089	452.8499	491.8201	570.4593	654.5416	721.5325	746.2354	814.0611	845.5622	925.3121	936.0431	951.8058	1100.0737	1123.263	1165.4673	1301.2392	1335.9964	1385.3608	1404.4866	1423.3329	1449.2004	1616.772	1847.4618	2370.6357	3059.4374	3110.7271	3273.6784	3687.578
O=C1NC=NN1CC#N	O=c1[nH]cnn1CC#N	
InChI=1S/C4H4N4O/c5-1-2-8-4(9)6-3-7-8/h3H,2H2,(H,6,7,9)	InChI=1S/C4H4N4O/c5-1-2-8-4(9)6-3-7-8/h3H,2H2,(H,6,7,9)
