18
gdb 108170	2.74514	1.45416	1.26768	1.2519	71.24	-0.2396	0.0136	0.2531	1075.1331	0.147185	-439.078302	-439.069634	-439.06869	-439.111797	31.931	
C	 0.200264513	 1.5349862626	 0.1633426991	-0.376602
C	-0.1469793336	 0.0628255001	-0.09346624	-0.280343
C	 0.5935940567	-0.5197522431	-1.2628539638	 0.387109
O	 0.2772584	 0.0928691278	-2.5123507764	-0.234191
C	 0.3694756151	-0.8831839456	-3.4428360203	 0.105426
N	 0.6297263839	-2.0731559975	-3.0683742736	-0.277354
C	 0.83556874	-1.9894625299	-1.6411468867	-0.169549
C	 1.9862522992	-1.0962690146	-1.2035615674	 0.033231
O	 2.9514214792	-0.6665343263	-2.1047107731	-0.42169
H	 1.2690073756	 1.6564299653	 0.3661005253	 0.125356
H	-0.0470898601	 2.1485860364	-0.7071599312	 0.135736
H	-0.3559761484	 1.9213561806	 1.0223700422	 0.112918
H	 0.0936733915	-0.540660133	 0.7896085112	 0.106079
H	-1.2250499712	-0.0476037116	-0.262771145	 0.11104
H	 0.1919091467	-0.5607765435	-4.4613437731	 0.145159
H	 0.5506964122	-2.8515250109	-1.0488075285	 0.10031
H	 2.3513510305	-1.2888360617	-0.1949394158	 0.099435
H	 3.1650524198	-1.4036674053	-2.6883388329	 0.297931
78.2949	113.7135	146.7812	207.0052	221.8055	260.9121	320.1114	352.6031	496.6279	563.5983	639.3968	734.0999	736.0002	777.1757	802.5989	896.2412	921.0482	944.5249	968.3536	996.7958	1036.3252	1046.1802	1101.8482	1110.468	1146.962	1174.77	1220.5415	1239.1793	1292.9464	1330.373	1335.9785	1347.7239	1368.5936	1410.6613	1446.3151	1475.02	1497.7855	1508.1195	1658.3604	3030.7217	3042.4867	3067.2809	3106.7462	3112.1188	3122.279	3174.1599	3232.3907	3792.6762
CCC12OC=NC1C2O	CC[C@]12OC=N[C@H]1[C@H]2O	
InChI=1S/C6H9NO2/c1-2-6-4(5(6)8)7-3-9-6/h3-5,8H,2H2,1H3	InChI=1S/C6H9NO2/c1-2-6-4(5(6)8)7-3-9-6/h3-5,8H,2H2,1H3/t4-,5+,6-/m0/s1
