17
gdb 81404	4.32964	1.14893	1.09855	1.1738	73.82	-0.2407	0.0301	0.2707	1123.2456	0.135621	-421.754789	-421.747008	-421.746063	-421.786768	30.89	
O	 0.0044959418	 1.3894615233	-0.1435806238	-0.440744
C	 0.0327051358	-0.0113039131	-0.0219436136	 0.120032
C	 0.0602489959	-0.6037900361	 1.421425922	 0.057834
C	-1.421430903	-0.1844868708	 1.5435172821	-0.249369
C	-1.4084808592	-0.6033817238	 0.0393603363	-0.083638
C	-1.0544100629	-2.0991045249	 0.1645101394	-0.09878
O	 0.0112367311	-2.0158154774	 1.1591608739	-0.284789
C	-2.1406508104	-2.9633087297	 0.6082137707	 0.340218
C	-3.0447624143	-3.677768059	 0.949297926	-0.429142
H	 0.8883268048	 1.7228162194	 0.0417465868	 0.288596
H	 0.7317979715	-0.4761967235	-0.7306652716	 0.071069
H	 0.8317555203	-0.3947201882	 2.1619276718	 0.078518
H	-2.0500558058	-0.7519285468	 2.2309231117	 0.113488
H	-1.5501674568	 0.8892912225	 1.6621301615	 0.121814
H	-2.1842355218	-0.327913201	-0.6722443335	 0.090416
H	-0.6320568592	-2.4966795749	-0.7668924511	 0.10646
H	-3.8389195078	-4.3123743659	 1.2569755213	 0.198016
120.7684	137.4726	271.3804	305.0279	320.1348	332.7929	441.97	462.8853	543.7417	563.7685	627.8218	662.3993	696.6085	829.2198	849.8962	885.4174	915.6212	929.4601	962.7248	971.0892	1021.5672	1031.1716	1077.537	1082.6639	1127.823	1140.3553	1189.3855	1233.5884	1241.1893	1253.501	1274.431	1302.4422	1323.8717	1366.9541	1419.2244	1481.5792	2237.9681	3011.0002	3024.5343	3094.9194	3128.7198	3145.0507	3173.1436	3502.5131	3815.4699
OC1C2CC1C(O2)C#C	O[C@H]1[C@H]2C[C@@H]1[C@@H](O2)C#C	
InChI=1S/C7H8O2/c1-2-5-4-3-6(9-5)7(4)8/h1,4-8H,3H2	InChI=1S/C7H8O2/c1-2-5-4-3-6(9-5)7(4)8/h1,4-8H,3H2/t4-,5+,6-,7-/m1/s1
