21
gdb 20122	3.40142	1.51033	1.13872	0.8995	78.98	-0.2296	0.0851	0.3146	1108.337	0.188304	-329.083666	-329.075087	-329.074143	-329.116712	32.51	
C	-0.0790803062	 1.5193256195	 0.2383343775	-0.387561
C	 0.0093806075	 0.0208042417	-0.0632973175	 0.031557
C	 0.7703923169	-0.2408985576	-1.3477918046	 0.05415
C	 0.4968433992	-1.4592518268	-2.1924647165	-0.275885
C	 0.0885108717	-0.0921048743	-2.6832825863	-0.27584
N	 0.6924423035	-0.6455108338	 1.0493816589	-0.056659
C	-0.1143519844	-0.9650014512	 2.2206526002	-0.225581
C	 0.3536976432	-2.0395027423	 1.3013752058	-0.217931
H	 0.9236293625	 1.9397118624	 0.3638256091	 0.12246
H	-0.5775652027	 2.0473171554	-0.5793648853	 0.114163
H	-0.6397437501	 1.7030018095	 1.1600604193	 0.110362
H	-1.0185725961	-0.3759150989	-0.1838109978	 0.044246
H	 1.8074298106	 0.080530098	-1.2989088502	 0.087661
H	 1.3351846988	-1.9530330595	-2.6711455098	 0.110999
H	-0.2924336148	-2.1342975634	-1.8784863461	 0.10693
H	-0.9715096148	 0.1426813434	-2.6899962182	 0.107949
H	 0.6437973249	 0.3549954212	-3.5002383345	 0.110464
H	 0.3613381237	-0.8094078326	 3.1849349577	 0.113493
H	-1.176217058	-0.7218657832	 2.1931098257	 0.105696
H	-0.3986425916	-2.5074139261	 0.6688096125	 0.106112
H	 1.1797673762	-2.6885196314	 1.5781839203	 0.113214
84.6975	102.7217	166.9371	222.8984	244.2566	249.2176	349.5504	415.0116	424.2361	523.2615	737.2536	776.257	827.2299	828.8481	835.4825	906.4526	935.4434	951.4887	978.0565	1002.885	1026.3178	1058.1344	1079.0845	1091.5118	1112.7844	1115.7704	1125.2995	1138.5205	1171.0354	1192.3054	1198.4942	1223.11	1228.6079	1316.4056	1318.6267	1355.2026	1405.0643	1425.127	1470.3534	1488.5291	1490.6956	1498.0289	1507.2257	1520.1938	2895.3601	3039.2086	3088.8107	3097.1715	3109.1148	3117.8508	3127.286	3133.0114	3145.1665	3172.1108	3187.0185	3204.8991	3220.3544
CC(C1CC1)N1CC1	C[C@@H](C1CC1)N1CC1	
InChI=1S/C7H13N/c1-6(7-2-3-7)8-4-5-8/h6-7H,2-5H2,1H3	InChI=1S/C7H13N/c1-6(7-2-3-7)8-4-5-8/h6-7H,2-5H2,1H3/t6-/m0/s1
