21
gdb 57444	2.59783	1.17618	1.07878	3.3194	79.71	-0.2581	-0.0378	0.2203	1256.7593	0.178465	-424.215802	-424.205585	-424.204641	-424.251012	37.534	
C	 0.6733634345	 2.0751086578	-0.3648889218	-0.420455
C	-0.0833182485	 0.7391942042	-0.3301101915	 0.206044
C	-0.2261151491	 0.243494765	 1.1216474753	-0.405473
C	-1.4842387397	 0.9365982274	-0.9508713457	-0.403922
C	 0.5795388324	-0.3738410205	-1.1369540592	 0.082764
O	 1.0971879204	-0.1056307168	-2.4344681198	-0.239404
C	 2.0134188899	-0.5993404471	-1.4686222062	-0.05695
C	 3.1875235937	 0.2420744174	-1.0749730479	 0.13331
O	 3.4691856573	 1.319326724	-1.5294796185	-0.239049
H	 1.5929087333	 2.0421943314	 0.2237351794	 0.116205
H	 0.940661949	 2.3525381606	-1.3862824172	 0.146558
H	 0.0410262398	 2.8621294985	 0.0583765923	 0.104833
H	-0.7710878526	 0.9782904933	 1.7226529534	 0.119874
H	-0.7780431838	-0.7017928941	 1.1731759046	 0.111547
H	 0.753010906	 0.0895515848	 1.587627148	 0.111804
H	-1.4049306912	 1.2868398964	-1.9843927628	 0.13297
H	-2.0592273018	 0.0039374326	-0.9517284773	 0.109031
H	-2.0507702376	 1.6792993585	-0.3804770857	 0.11415
H	-0.0020177897	-1.3007620092	-1.096237832	 0.092146
H	 2.3034464092	-1.6479205711	-1.5979770963	 0.107568
H	 3.8371167385	-0.2624623529	-0.3220840606	 0.076447
37.0416	118.6898	157.5634	200.5642	225.505	255.2243	266.3846	270.5575	293.1956	332.326	365.8504	392.4395	518.2333	553.545	697.4626	753.6101	781.0756	851.4038	933.3485	942.5553	951.585	961.8488	980.81	1002.924	1042.2354	1063.9554	1120.8454	1155.7337	1228.5627	1238.1591	1261.4102	1323.3055	1394.9966	1397.8478	1402.7904	1423.5595	1427.9208	1462.9791	1480.0401	1485.7579	1486.0783	1504.136	1507.7291	1520.4771	1833.337	2860.1058	3025.9435	3030.4263	3044.0259	3048.3743	3059.5482	3093.6869	3098.7268	3102.6834	3111.7383	3114.8316	3141.2655
CC(C)(C)C1OC1C=O	CC(C)(C)[C@H]1O[C@H]1C=O	
InChI=1S/C7H12O2/c1-7(2,3)6-5(4-8)9-6/h4-6H,1-3H3	InChI=1S/C7H12O2/c1-7(2,3)6-5(4-8)9-6/h4-6H,1-3H3/t5-,6-/m0/s1
