15
gdb 17599	3.92086	1.63625	1.19988	1.3069	64.	-0.2403	-0.0671	0.1732	978.7413	0.116682	-399.810511	-399.802101	-399.801156	-399.844284	28.769	
C	-0.0284875354	 1.3809591027	-0.2406134536	-0.469078
C	 0.0644992791	-0.1225932974	-0.3040190906	 0.302163
O	 1.1028391403	-0.738884673	-0.3328846584	-0.282075
C	-1.2981574562	-0.8577639561	-0.2896165656	 0.268877
O	-2.3268078626	-0.261673637	-0.0446332594	-0.331347
N	-1.2345124459	-2.1808033151	-0.648905207	-0.057452
C	-0.5028125591	-3.2541127663	-0.0167644521	-0.209044
C	-2.0062353905	-3.2515381339	-0.0665941121	-0.22921
H	 0.9728126067	 1.8110329622	-0.2137694382	 0.138355
H	-0.5808834862	 1.7554630337	-1.1091284473	 0.155545
H	-0.6062967813	 1.6830989474	 0.6375386264	 0.160926
H	 0.0616862379	-3.8985133066	-0.6838679789	 0.136562
H	-0.0219184667	-3.0437374218	 0.9334728398	 0.14147
H	-2.5548744801	-3.0221069624	 0.843037805	 0.140243
H	-2.5210903298	-3.9009848965	-0.768297918	 0.134064
44.3748	108.9638	111.1008	171.0174	187.4116	286.4831	369.5317	417.1495	499.5148	606.7819	677.5363	727.7917	802.0326	877.9819	972.3365	988.7244	1034.1909	1048.8251	1104.2443	1133.9253	1136.6319	1169.6867	1171.9328	1251.3855	1381.8832	1435.19	1451.5354	1459.6151	1496.1038	1525.3859	1771.329	1812.1635	3049.89	3113.1567	3116.3612	3123.8969	3162.7856	3201.9446	3216.5767
CC(=O)C(=O)N1CC1	CC(=O)C(=O)N1CC1	
InChI=1S/C5H7NO2/c1-4(7)5(8)6-2-3-6/h2-3H2,1H3	InChI=1S/C5H7NO2/c1-4(7)5(8)6-2-3-6/h2-3H2,1H3
