13
gdb 23880	3.44931	1.49454	1.2871	3.6707	49.62	-0.2527	0.0029	0.2556	940.4824	0.090891	-526.287383	-526.279059	-526.278115	-526.320888	29.186	
C	 0.0400307925	 1.43880251	-0.073459258	-0.3442
N	 0.0361471391	-0.0129512502	-0.0786510199	-0.263323
C	-1.0838097379	-0.6004388502	 0.0240220198	 0.204734
N	-2.3456392493	-0.0585879846	 0.0975268723	-0.558888
C	-1.0924208656	-2.1283115778	-0.0430804382	 0.270549
F	 0.0576881586	-2.6548704979	 0.3421812056	-0.041636
F	-2.0689559276	-2.6261992339	 0.7512266112	-0.097833
F	-1.3547176771	-2.5498132383	-1.2879721444	-0.069917
H	 1.0707845991	 1.7989665351	-0.0919598122	 0.135081
H	-0.4774448446	 1.8530774365	-0.9517214186	 0.123737
H	-0.4422514339	 1.8596929685	 0.8243802148	 0.108304
H	-2.4208161357	 0.9237014316	 0.3051272824	 0.264608
H	-3.0765281576	-0.6378917987	 0.4781223753	 0.268784
37.1073	129.8893	167.0741	209.1944	308.7125	335.5752	381.3424	403.5544	427.5352	469.1816	537.1454	584.5155	691.0842	745.3802	806.1622	985.236	1101.5484	1107.8978	1161.5236	1188.3544	1206.6431	1261.9175	1400.5182	1438.2052	1491.1044	1507.6022	1638.106	1768.0088	2964.8455	3020.1638	3110.676	3599.0494	3711.6533
CN=C(N)C(F)(F)F	CN=C(N)C(F)(F)F	
InChI=1S/C3H5F3N2/c1-8-2(7)3(4,5)6/h1H3,(H2,7,8)	InChI=1S/C3H5F3N2/c1-8-2(7)3(4,5)6/h1H3,(H2,7,8)
