20
gdb 28865	2.23791	1.75964	0.99831	1.5425	91.41	-0.1947	0.0126	0.2073	1203.1472	0.172278	-366.093244	-366.084344	-366.0834	-366.126175	34.839	
C	-0.0928804739	 1.5252599469	 0.0636635266	-0.501858
C	-0.0304108477	 0.0149595514	 0.0088723594	 0.251447
C	 0.0361880091	-0.668418344	-1.2164619898	 0.164917
C	 0.068821938	 0.0517183094	-2.543157023	-0.523003
C	 0.0841969019	-2.0773653124	-1.2179425704	 0.245855
N	 0.2020097001	-2.7730731377	-2.4287439976	-0.589054
C	 0.0769167433	-2.7808610321	-0.0081044469	-0.197111
C	 0.0211646832	-2.0955652532	 1.1961628556	-0.104803
C	-0.036792316	-0.7063470361	 1.2059764799	-0.221967
H	 0.7973385593	 1.989941308	-0.3762716392	 0.128276
H	-0.96003809	 1.9219237244	-0.4765674858	 0.125384
H	-0.1639054124	 1.8692396924	 1.0985002241	 0.11924
H	 0.9030708322	-0.301675102	-3.1611709474	 0.134749
H	-0.8501174474	-0.1163235977	-3.1244052966	 0.117804
H	 0.1753798955	 1.1302220767	-2.4268501161	 0.124353
H	-0.2610993454	-2.3421596229	-3.2156613671	 0.243665
H	-0.0405025092	-3.7512975982	-2.3614273287	 0.241343
H	 0.1162255806	-3.8665464664	-0.0228809275	 0.074856
H	 0.0155683388	-2.6477322014	 2.13047834	 0.087562
H	-0.0861470902	-0.1716285151	 2.1488887005	 0.078345
115.6711	155.9367	176.7695	229.8245	269.3307	317.3223	324.5692	356.1845	477.8062	493.8683	506.5063	545.3909	569.2985	648.9887	679.1806	738.8421	792.7	822.8299	861.6705	912.8489	935.9722	1009.7021	1042.1199	1062.0757	1066.7757	1115.5039	1144.6028	1192.6362	1214.1776	1285.9192	1325.3511	1348.8934	1408.3556	1416.5742	1478.9156	1480.7976	1488.0295	1499.5044	1517.1278	1520.0528	1630.2565	1636.2913	1660.8706	2998.8298	3026.1696	3056.0085	3076.5602	3112.6829	3142.0801	3157.2433	3171.0807	3189.0173	3559.8344	3655.7609
CC1=C(C)C(N)=CC=C1	Cc1c(C)c(N)ccc1	
InChI=1S/C8H11N/c1-6-4-3-5-8(9)7(6)2/h3-5H,9H2,1-2H3	InChI=1S/C8H11N/c1-6-4-3-5-8(9)7(6)2/h3-5H,9H2,1-2H3
