14
gdb 129221	3.52168	1.38625	0.99585	2.1148	80.89	-0.2536	-0.0813	0.1723	1100.2345	0.102979	-429.000213	-428.992758	-428.991814	-429.034404	27.458	
N	-0.033125058	 0.7983729681	 1.3591446996	-0.498226
C	-0.0030638466	 0.0941327061	 0.2918564637	 0.393077
N	 1.2181130924	-0.2507051682	-0.3306116648	-0.31418
N	 1.6438138169	-1.0230053992	-1.3673987439	-0.059954
N	 0.9344414242	-1.6067517747	-2.2104446268	-0.255042
C	-0.4934669997	-1.6210355491	-2.3308370293	 0.334243
N	-0.9668088557	-2.1984494906	-3.370418213	-0.440663
C	-1.4681917171	-1.0703394621	-1.3844501333	-0.078514
C	-1.2683974144	-0.3504993854	-0.2779564443	-0.079843
H	 0.9000286612	 1.0645697234	 1.6805143261	 0.218898
H	 2.0349026194	 0.0868051286	 0.1595113233	 0.265965
H	-0.1827951391	-2.5429328335	-3.9327241208	 0.238488
H	-2.486834352	-1.3030862327	-1.6770598242	 0.136499
H	-2.1180363515	-0.0167932406	 0.3058727577	 0.139251
9.266	84.3744	287.7082	377.9723	381.8051	404.9074	409.1178	528.9299	596.1064	652.1966	679.7601	759.0281	777.1354	857.906	866.572	887.0667	908.8321	972.4761	1040.9744	1042.7503	1102.0516	1139.7368	1232.1289	1333.8106	1386.8289	1409.9453	1473.829	1631.0708	1650.1526	1683.713	1735.228	3190.4483	3215.063	3440.9683	3453.5264	3599.3608
N=C1NN=NC(=N)C=C1	[NH]C1=C[CH]C(=N[N]N1)[NH]	
InChI=1S/C4H5N5/c5-3-1-2-4(6)8-9-7-3/h1-2H,(H3,5,6,7,8)	InChI=1S/C4H5N5/c5-3-1-2-4(6)8-9-7-3/h1-2H,(H3,5,6,7,8)
