16
gdb 108962	3.44911	1.20886	1.171	2.7149	64.82	-0.2506	0.0096	0.2602	1096.9097	0.12396	-475.002343	-474.994055	-474.993111	-475.035585	30.25	
O	 0.169229449	 1.2751917908	-0.1198506064	-0.421706
C	 0.0351285565	-0.1220545871	-0.1153151599	-0.13448
C	-1.4001242509	-0.5311709408	-0.0106258908	 0.39953
N	-2.3805227526	 0.2870797457	-0.0079660086	-0.348055
C	-3.5777246153	-0.5132037788	 0.0319159827	-0.109135
C	-3.7658044369	-1.461340709	-1.1442285617	 0.067521
O	-3.0152129579	-1.3317695778	-2.3036754773	-0.413321
C	-3.0812679372	-1.9632080517	 0.0957586939	 0.008218
O	-1.6685143811	-1.8532468222	 0.1049229278	-0.230024
H	-0.7290153228	 1.6342976279	-0.0970819528	 0.29779
H	 0.4542104626	-0.563706146	-1.0329061408	 0.128261
H	 0.588231879	-0.565632833	 0.7262571673	 0.123676
H	-4.4329241833	-0.1077524129	 0.5589288769	 0.107442
H	-4.7844637092	-1.8257700979	-1.2760142434	 0.104486
H	-3.112026622	-0.4290097119	-2.6271136847	 0.298921
H	-3.449917758	-2.7808441652	 0.700672608	 0.120877
69.5066	126.5775	172.8168	213.1638	236.9003	290.2184	296.6872	446.7407	559.2139	600.2317	681.4148	688.0682	769.333	781.8556	836.5014	945.1332	967.36	1030.174	1037.1751	1049.284	1080.6649	1104.5666	1122.012	1128.3426	1215.7154	1241.1967	1244.9327	1310.1158	1319.8643	1338.2353	1363.1442	1427.8603	1482.2192	1506.0559	1697.7108	2990.4984	3010.8325	3106.8644	3183.7238	3205.4874	3734.5108	3799.4471
OCC1=NC2C(O)C2O1	OCC1=N[C@H]2[C@@H](O)[C@H]2O1	
InChI=1S/C5H7NO3/c7-1-2-6-3-4(8)5(3)9-2/h3-5,7-8H,1H2	InChI=1S/C5H7NO3/c7-1-2-6-3-4(8)5(3)9-2/h3-5,7-8H,1H2/t3-,4+,5-/m0/s1
