23
gdb 113354	2.09225	1.11026	0.83241	2.841	88.05	-0.2453	-0.0192	0.2261	1511.5166	0.203318	-388.304257	-388.293588	-388.292644	-388.340306	38.602	
C	-0.2831979472	 1.4732094951	 0.3550208743	-0.375556
C	 0.2464009309	 0.0789515255	-0.0069373041	-0.210985
C	 0.8225329591	-0.630166611	 1.2004599129	-0.017211
C	-0.0092945063	-1.4852123446	 2.094383749	-0.316051
C	 1.0684376934	-2.150994914	 1.244384318	 0.225687
C	 0.6946770028	-3.0738472429	 0.0961280073	-0.287505
C	 0.2002194292	-4.4483053258	 0.5677012792	-0.37716
C	 2.3129603457	-2.5177104945	 1.9753314198	 0.097241
O	 2.7005358574	-1.9939070889	 2.9942370941	-0.277569
H	 0.5128747745	 2.1034918141	 0.7653078847	 0.120522
H	-0.6911289886	 1.9795341325	-0.5250958946	 0.112912
H	-1.0758327775	 1.4091692595	 1.1074746593	 0.121612
H	-0.5666796962	-0.5109011955	-0.4438838196	 0.098932
H	 1.0154556328	 0.1709646767	-0.7845560743	 0.102053
H	 1.6058106265	-0.0752837854	 1.7118192756	 0.106928
H	 0.1738285511	-1.4506269639	 3.1626065021	 0.133963
H	-1.0370633153	-1.6787265585	 1.8008891558	 0.111487
H	-0.0758741466	-2.6083597168	-0.5246420304	 0.103486
H	 1.5679460183	-3.2035128947	-0.5576248255	 0.10156
H	 0.9599325075	-4.9662724217	 1.1629859924	 0.120264
H	-0.6942118822	-4.3499088282	 1.19120586	 0.121549
H	-0.0484001139	-5.0900026892	-0.2831549179	 0.114927
H	 2.9089925247	-3.3277113078	 1.494915412	 0.068917
62.7438	87.1875	110.8164	138.0309	174.0417	210.1722	228.0492	253.3326	288.1204	304.3069	356.9375	435.2854	554.6728	602.8855	726.3692	765.8515	780.5542	799.6735	872.7492	924.8321	943.9498	972.7165	999.4468	1028.779	1046.6705	1074.7937	1081.5076	1100.1372	1132.545	1144.8972	1203.8395	1247.1632	1291.5793	1297.8971	1323.7098	1348.9326	1368.0158	1406.5069	1413.3534	1423.8617	1433.7244	1473.9577	1481.9053	1491.6131	1496.9009	1498.5847	1505.7008	1508.3409	1802.2125	2861.4607	3018.8978	3024.6377	3034.413	3034.8265	3061.1189	3080.8593	3104.0633	3106.0393	3108.1147	3108.5654	3124.2471	3140.0401	3219.2744
CCC1CC1(CC)C=O	CC[C@H]1C[C@]1(CC)C=O	
InChI=1S/C8H14O/c1-3-7-5-8(7,4-2)6-9/h6-7H,3-5H2,1-2H3	InChI=1S/C8H14O/c1-3-7-5-8(7,4-2)6-9/h6-7H,3-5H2,1-2H3/t7-,8+/m0/s1
