22
gdb 101767	4.12677	0.61053	0.54921	2.3007	79.57	-0.2444	0.0344	0.2788	1986.7509	0.19174	-441.522955	-441.511415	-441.510471	-441.56135	40.16	
C	 0.1541518263	 1.5671003163	-0.0724927082	-0.390322
C	 0.0205698745	 0.0423551821	 0.043239002	 0.028704
C	 0.715411894	-0.4662744598	 1.3078934185	-0.080191
O	 2.0947754287	-0.131682973	 1.2331725751	-0.425321
C	-1.4377065271	-0.4407403916	 0.0246214987	-0.176585
C	-2.1807670712	-0.1497229334	-1.2818711322	-0.326416
C	-3.5156840214	-0.8916204357	-1.3624458973	 0.411229
N	-4.4511438426	-0.299808689	-2.1642397461	-0.522699
O	-3.7356702766	-1.9315943593	-0.7723469002	-0.35807
H	 1.2005013461	 1.8643609071	 0.0249641823	 0.134645
H	-0.2165831175	 1.9369968931	-1.0331352632	 0.103915
H	-0.4153816135	 2.0676258515	 0.7209332116	 0.10448
H	 0.5474726147	-0.4156360121	-0.8064714051	 0.078349
H	 0.24420901	-0.0094155895	 2.1946895385	 0.081488
H	 0.5787486316	-1.5561914732	 1.3883161704	 0.086391
H	 2.5146003328	-0.4015165272	 2.0546459688	 0.286087
H	-1.4793747497	-1.521986435	 0.1904789236	 0.123186
H	-1.9866565144	 0.0153858514	 0.8595254937	 0.09667
H	-2.3419208784	 0.9241673361	-1.4254470166	 0.103982
H	-1.5753426854	-0.4873187786	-2.1353599026	 0.125966
H	-4.2435517996	 0.5116494388	-2.7189934471	 0.2559
H	-5.3080805211	-0.7985041488	-2.3402160946	 0.258614
23.6046	58.6992	91.0634	104.2606	136.9699	164.0814	230.7143	242.4959	246.8812	271.2777	328.6204	414.7422	464.3062	508.6792	522.3144	619.2258	666.0962	780.575	839.2498	871.138	925.3525	946.2411	968.5457	1046.1373	1079.1192	1085.5242	1106.9526	1135.5878	1171.2856	1205.6861	1238.5388	1268.5861	1273.2264	1314.9687	1321.7061	1370.1365	1381.9234	1402.9692	1411.1427	1458.9626	1465.1816	1491.5698	1495.2046	1508.0457	1520.6373	1616.7098	1797.79	2956.0896	2988.4714	3006.8309	3013.33	3025.2476	3029.9465	3065.1274	3088.8253	3095.0515	3128.1047	3600.8459	3737.7996	3835.7474
CC(CO)CCC(N)=O	C[C@@H](CO)CCC(=O)N	
InChI=1S/C6H13NO2/c1-5(4-8)2-3-6(7)9/h5,8H,2-4H2,1H3,(H2,7,9)	InChI=1S/C6H13NO2/c1-5(4-8)2-3-6(7)9/h5,8H,2-4H2,1H3,(H2,7,9)/t5-/m1/s1
