23
gdb 70249	2.80054	1.34551	1.20437	1.4318	85.01	-0.2286	0.0807	0.3093	1191.7916	0.204343	-388.29838	-388.288972	-388.288028	-388.331808	37.256	
C	-0.1932278107	 1.5107223531	 0.1178575601	-0.486225
C	-0.0104704166	 0.0157824409	 0.0049262722	 0.337064
C	-0.8599436676	-0.9178394212	 0.8524044927	-0.355036
C	 0.6271576302	-0.8232459782	 1.0781782255	 0.055051
O	 1.4023884445	-1.8367322471	 0.500070407	-0.299062
C	 1.6923814806	-1.4875685435	-0.8759635273	 0.400253
C	 3.0224355028	-0.7237038077	-0.9153178865	-0.4136
C	 1.7780629087	-2.7926065008	-1.6600147626	-0.427144
C	 0.5069561445	-0.5794191621	-1.3086123192	-0.350605
H	 0.7176419287	 2.0482242313	-0.1710021402	 0.115463
H	-1.0054463358	 1.8626000787	-0.5292520024	 0.118554
H	-0.442245045	 1.8028926413	 1.1431338332	 0.115269
H	-1.5171217655	-0.4613900785	 1.5866727841	 0.103732
H	-1.233563979	-1.835150304	 0.4088099059	 0.109631
H	 1.0291043873	-0.4080345766	 1.9984081052	 0.087675
H	 3.8174037608	-1.3302958516	-0.4721589296	 0.119872
H	 3.306239416	-0.4756973638	-1.9435661267	 0.108694
H	 2.9489795982	 0.2094081681	-0.3475974357	 0.11548
H	 0.8402296406	-3.3489844433	-1.5778101703	 0.116018
H	 1.9753079021	-2.5949795956	-2.7184839042	 0.111971
H	 2.5850488854	-3.4218425192	-1.2728840341	 0.121244
H	-0.2638877549	-1.1616378043	-1.8248831819	 0.096919
H	 0.8396585746	 0.2039481141	-1.9961750752	 0.098783
74.0211	175.3477	208.324	220.6002	256.728	284.9859	315.0255	330.0788	366.591	411.4104	424.2873	483.1611	562.5576	634.451	747.4692	782.476	838.4497	866.9015	900.301	908.261	935.2806	956.1445	978.159	986.8902	1020.2495	1025.7965	1043.3817	1079.6752	1105.4486	1139.4629	1153.9872	1195.1281	1241.1511	1264.8818	1295.3541	1301.4369	1320.8623	1396.1629	1398.5152	1414.1393	1419.9729	1475.0898	1475.619	1483.5063	1489.5916	1494.6839	1499.331	1500.8413	1506.8701	3019.7671	3032.1508	3037.1552	3042.8803	3078.6836	3085.3989	3095.7499	3103.0997	3109.8736	3115.5644	3117.1958	3118.3843	3141.0208	3210.2158
CC12CC1OC(C)(C)C2	C[C@]12C[C@H]1OC(C)(C)C2	
InChI=1S/C8H14O/c1-7(2)5-8(3)4-6(8)9-7/h6H,4-5H2,1-3H3	InChI=1S/C8H14O/c1-7(2)5-8(3)4-6(8)9-7/h6H,4-5H2,1-3H3/t6-,8-/m1/s1
