17
gdb 34378	2.62943	1.66801	1.32327	3.0029	78.78	-0.2258	0.0177	0.2434	1007.2735	0.136884	-380.83424	-380.826442	-380.825498	-380.86666	30.493	
C	 0.11311057	-1.1727038777	-0.2592685098	-0.436988
C	 0.0380532035	 0.0136952721	-0.0783785799	 0.267979
C	-0.0083508579	 1.4510525811	 0.1090236675	 0.149943
C	-0.4456416969	 2.289307076	-1.1436585946	-0.260814
C	 0.9606253853	 2.9553651633	-1.2035223866	-0.213237
C	 1.372286884	 2.2409564267	 0.1072776495	-0.068362
N	 1.2458112106	 3.0457640744	 1.3218200878	-0.298654
C	 0.0743778543	 2.6581457235	 1.9536228252	 0.04922
N	-0.6972522315	 1.831974295	 1.3574283099	-0.280999
H	 0.1639346486	-2.2228694298	-0.407779909	 0.191749
H	-0.7215525502	 1.6929899992	-2.0144702019	 0.112836
H	-1.2657239903	 2.9664640154	-0.8991147932	 0.117104
H	 1.5544433691	 2.6368000123	-2.0638874196	 0.107602
H	 0.9784120884	 4.045581352	-1.1459419224	 0.104973
H	 2.3015828507	 1.6680890823	 0.0868542906	 0.086853
H	 2.0629586605	 3.2285666461	 1.8853346577	 0.244712
H	-0.169312108	 3.1024218481	 2.9151580787	 0.126083
60.7703	151.9726	172.7506	297.3775	375.7159	434.8736	488.8795	512.5832	562.5443	600.0408	612.776	643.1151	678.0855	745.4235	827.2342	837.2821	888.9576	949.0045	953.0663	955.1247	1029.3953	1049.1432	1090.342	1112.3996	1128.1436	1158.0551	1217.2755	1249.1829	1276.1094	1285.7877	1317.3205	1349.9284	1432.2128	1470.3122	1486.8549	1671.5579	2234.3747	3064.8653	3079.8238	3087.4532	3117.9527	3142.8428	3179.2844	3502.1826	3604.5584
C#CC12CCC1NC=N2	C#C[C@]12CC[C@H]1NC=N2	
InChI=1S/C7H8N2/c1-2-7-4-3-6(7)8-5-9-7/h1,5-6H,3-4H2,(H,8,9)	InChI=1S/C7H8N2/c1-2-7-4-3-6(7)8-5-9-7/h1,5-6H,3-4H2,(H,8,9)/t6-,7+/m1/s1
