20
gdb 10399	2.82985	1.69966	1.38803	3.1162	70.71	-0.247	0.0572	0.3042	991.6083	0.177078	-386.122025	-386.113358	-386.112413	-386.154982	32.671	
O	-0.0546920875	 1.5659779733	 0.1638969506	-0.427624
C	 0.0748195696	 0.1444465903	 0.2749430088	-0.152698
C	-1.2729253619	-0.5008253991	-0.0082454953	 0.311678
C	-2.3454554293	-0.0185358346	 0.9816193437	-0.100082
O	-2.7504424999	 1.3183321238	 0.7729684246	-0.431437
C	-1.7768490099	-0.4568381369	-1.4833395627	-0.245417
C	-2.0824876598	-1.9773954397	-1.4026659661	-0.209645
C	-1.2357857176	-2.057427801	-0.1018127452	-0.279
H	 0.7659008579	 1.9765901592	 0.4509243014	 0.294349
H	 0.8247758782	-0.2247320294	-0.4410566978	 0.087709
H	 0.4107368707	-0.1354657922	 1.2865421786	 0.090489
H	-3.2468786068	-0.6334314152	 0.8747982432	 0.096393
H	-1.9720986832	-0.1762184589	 2.0102433865	 0.072461
H	-1.9369311285	 1.833259268	 0.6852400685	 0.289213
H	-2.6109320976	 0.2204315472	-1.6743344803	 0.116523
H	-0.9721784637	-0.2266354808	-2.1874819077	 0.092788
H	-3.1407813388	-2.1852191881	-1.2261635632	 0.107153
H	-1.7518732596	-2.5954403772	-2.2402669363	 0.096481
H	-0.2257400634	-2.4380397948	-0.2842697964	 0.093482
H	-1.658548249	-2.6063972538	 0.7449724752	 0.097186
89.1337	121.8769	157.3752	237.909	247.3533	270.4125	335.1959	376.1977	432.3698	481.7141	559.078	669.685	734.368	792.552	855.2866	903.8365	942.8811	946.0303	975.9864	978.9927	1035.6492	1064.0015	1074.306	1108.033	1169.6212	1199.4636	1207.944	1234.0084	1243.3287	1254.588	1264.6033	1278.4408	1324.6626	1338.8587	1377.3132	1452.533	1468.6802	1477.241	1485.4132	1502.3521	1505.3345	1522.0069	2933.2678	2968.0916	3004.7409	3042.455	3050.2484	3060.6153	3065.9516	3088.0439	3110.8578	3126.445	3746.5657	3834.224
OCC1(CO)CCC1	OCC1(CO)CCC1	
InChI=1S/C6H12O2/c7-4-6(5-8)2-1-3-6/h7-8H,1-5H2	InChI=1S/C6H12O2/c7-4-6(5-8)2-1-3-6/h7-8H,1-5H2
