14
gdb 48095	3.78692	1.04777	0.90016	1.8478	64.7	-0.2631	-0.1136	0.1495	1233.9396	0.098706	-473.827259	-473.81887	-473.817926	-473.861828	28.947	
N	 0.0681809363	 0.8830009397	 0.8325608934	-0.528111
C	-0.0321688287	-0.1768913573	 0.1788234855	 0.445853
C	-1.1148587123	-1.2222873186	-0.0003478185	-0.373649
C	-0.0734097094	-1.8723048777	-0.9537165054	 0.020906
O	 0.8636371336	-0.8040272152	-0.6738018618	-0.241602
C	 0.4471886483	-3.2283501326	-0.5281930244	 0.269475
O	 1.4444918622	-3.4093927729	 0.1232710854	-0.255017
C	-0.4097181662	-4.4280149619	-0.9516718761	 0.07817
O	-1.4323926981	-4.3096106231	-1.5747380536	-0.212982
H	 0.9765134517	 1.3288025839	 0.6953757544	 0.237615
H	-1.357209135	-1.7867436235	 0.9016272216	 0.149422
H	-2.0317689847	-0.8733530318	-0.4746122983	 0.157024
H	-0.3689437412	-1.8861398637	-2.0057643873	 0.130657
H	 0.0034742535	-5.4024736652	-0.619018825	 0.122238
34.5368	76.5208	127.7324	155.7592	229.2319	283.1958	445.471	493.8823	510.8605	552.8448	625.9397	745.491	767.2433	865.9489	927.087	963.3506	981.2993	1003.9446	1034.2241	1045.6586	1117.3462	1178.6591	1203.6288	1228.5639	1286.4921	1359.7211	1376.6049	1463.6748	1817.6557	1820.3275	1841.3161	2937.8174	3088.7725	3095.0364	3155.8005	3485.4833
N=C1CC(O1)C(=O)C=O	[NH][C]1C[C@@H](O1)C(=O)C=O	
InChI=1S/C5H5NO3/c6-5-1-4(9-5)3(8)2-7/h2,4,6H,1H2	InChI=1S/C5H5NO3/c6-5-1-4(9-5)3(8)2-7/h2,4,6H,1H2/t4-/m1/s1
