18
gdb 73891	2.23195	1.65169	1.02818	5.3088	82.95	-0.2058	-0.0307	0.1751	1153.3416	0.148591	-401.97021	-401.962046	-401.961102	-402.00273	31.782	
N	 0.0903355856	 1.3385702649	-0.1972837126	-0.577904
C	-0.003227384	-0.0145782751	-0.0465378971	 0.256378
C	-1.1180893894	-0.8063855582	-0.0185166096	 0.158612
C	-2.4853404932	-0.3504384828	 0.0108917799	 0.041828
O	-3.4675525485	-1.07021223	 0.0394048989	-0.300759
C	-0.7354690181	-2.2519135661	-0.0091402302	-0.12072
C	 0.016885234	-2.7481967697	-1.2239933975	-0.280398
C	 0.7817268347	-2.2811491071	-0.0099769617	-0.050468
C	 1.2705743763	-0.8371799254	 0.0226589855	-0.318831
H	 0.9366833281	 1.786224492	 0.1160640044	 0.260106
H	-0.7422626209	 1.8968322604	-0.0960449012	 0.264675
H	-2.6149202842	 0.7606002855	 0.0292426391	 0.020356
H	-1.3368896672	-2.9468558763	 0.5635672838	 0.100908
H	 0.017436948	-3.8159569362	-1.4174034246	 0.111331
H	 0.011067309	-2.1277861644	-2.1152885479	 0.108212
H	 1.3278375455	-3.0175647425	 0.5665246232	 0.088041
H	 1.9491313679	-0.5865204749	-0.8025488891	 0.1235
H	 1.8109923465	-0.6122856241	 0.9532374567	 0.11513
112.1446	162.2751	178.6666	235.0608	318.3371	354.4416	394.2118	437.814	481.9687	531.8248	598.6464	620.4867	691.9125	748.82	811.878	836.1721	891.6179	937.2823	992.3106	993.6216	1016.311	1050.0558	1065.1578	1092.2323	1103.2452	1186.4819	1191.86	1207.2725	1242.1597	1288.3295	1335.2886	1380.2922	1421.7119	1460.9012	1468.9399	1482.5955	1626.2598	1678.269	1756.0592	2800.1696	3008.0439	3046.8306	3120.0271	3181.7081	3191.2288	3210.3073	3586.6922	3696.0694
NC1=C(C=O)C2CC2C1	NC1=C(C=O)[C@H]2C[C@H]2C1	
InChI=1S/C7H9NO/c8-7-2-4-1-5(4)6(7)3-9/h3-5H,1-2,8H2	InChI=1S/C7H9NO/c8-7-2-4-1-5(4)6(7)3-9/h3-5H,1-2,8H2/t4-,5-/m0/s1
