13
gdb 21529	3.52148	1.92077	1.30015	3.5621	57.17	-0.2224	-0.0355	0.1868	870.8778	0.095868	-431.884407	-431.877105	-431.876161	-431.91617	26.489	
N	-0.0754745993	 1.3670668087	-0.1374177013	-0.59957
C	-0.084266288	-0.0137249472	-0.0500298436	 0.21177
C	-1.1269171527	-0.8900485746	 0.0574839528	 0.298134
C	-2.604638099	-0.683755274	 0.0196404239	-0.188657
O	-2.957474371	 0.3281065143	-0.9204530243	-0.406661
O	-0.6051895945	-2.1249795915	 0.1813779532	-0.209322
N	 0.7923612258	-1.9883838626	 0.1497741958	-0.019466
N	 1.067915796	-0.7587494241	 0.0124825807	-0.176733
H	 0.7570914882	 1.7314147492	-0.5794767801	 0.260437
H	-0.9252857436	 1.7342119082	-0.5448419533	 0.260622
H	-3.1072836484	-1.6381358337	-0.1849329623	 0.130676
H	-2.9740883429	-0.3190203628	 0.9846627946	 0.145477
H	-2.7433447706	-0.0043475399	-1.7993138261	 0.293294
78.9972	159.9077	218.0876	315.7902	324.6148	380.4771	419.3945	442.4018	643.6311	670.4864	722.792	726.6878	769.0865	788.3327	965.3469	1015.4744	1048.8751	1086.0038	1178.6867	1261.922	1278.1801	1368.0394	1406.5518	1426.2449	1469.8034	1494.6186	1626.4767	1691.984	3023.1937	3068.9329	3550.3484	3654.7911	3804.8525
NC1=C(CO)ON=N1	Nc1c(CO)onn1	
InChI=1S/C3H5N3O2/c4-3-2(1-7)8-6-5-3/h7H,1,4H2	InChI=1S/C3H5N3O2/c4-3-2(1-7)8-6-5-3/h7H,1,4H2
