19
gdb 14745	14.97429	0.55321	0.54069	4.1507	74.06	-0.2466	0.0263	0.2728	2017.9244	0.162748	-402.184741	-402.174509	-402.173565	-402.221753	33.736	
C	-0.0063386745	 1.3726850799	-0.0402885025	-0.314284
N	 0.0445451911	-0.068509603	-0.1611629725	-0.204164
C	-1.0344502254	-0.6986027236	-0.021316537	 0.134446
O	-1.067180141	-2.0421434587	-0.120017904	-0.20459
C	-2.3480999601	-2.6486405766	 0.057136342	-0.077849
C	-2.1738273242	-4.1515433345	-0.0904074355	-0.182905
C	-3.4857163376	-4.907484922	 0.0809583575	-0.073127
O	-3.2050006842	-6.2880273984	-0.0758740402	-0.417211
H	 0.6634491112	 1.6990198688	 0.7637171075	 0.127305
H	 0.3609610031	 1.8333133301	-0.9646477118	 0.127306
H	-1.0134822287	 1.7716564115	 0.1669970258	 0.093236
H	-2.0113840761	-0.2316217299	 0.1859358585	 0.068628
H	-2.7460874631	-2.3970587329	 1.0508317511	 0.105502
H	-3.0516902606	-2.2612149262	-0.6938466841	 0.1055
H	-1.7559088433	-4.3738780575	-1.0775041515	 0.125466
H	-1.4524681745	-4.5083799825	 0.651723588	 0.125483
H	-3.9130406785	-4.6968713241	 1.0755599598	 0.086754
H	-4.2188338126	-4.5611166026	-0.6665399477	 0.08675
H	-4.0262190508	-6.7770152677	 0.0291739066	 0.287753
19.2875	63.6186	90.2851	110.3196	129.8887	207.1586	224.9632	266.7408	309.5676	311.885	388.956	521.4149	612.8299	777.8871	887.879	982.765	1013.6013	1028.7192	1067.3828	1075.6508	1112.8809	1141.048	1156.9608	1174.983	1230.0799	1238.6285	1259.6236	1307.7133	1309.9881	1321.0225	1396.5169	1437.147	1451.0876	1469.7668	1480.2511	1499.1587	1505.2953	1519.6594	1533.561	1782.2789	2955.7019	2961.7477	2976.0842	2980.1275	2994.4693	3027.0428	3055.8063	3057.2142	3075.338	3104.8857	3831.4333
CN=COCCCO	CN=COCCCO	
InChI=1S/C5H11NO2/c1-6-5-8-4-2-3-7/h5,7H,2-4H2,1H3	InChI=1S/C5H11NO2/c1-6-5-8-4-2-3-7/h5,7H,2-4H2,1H3
