16
gdb 45418	2.69259	1.79531	1.77076	5.1897	68.02	-0.2402	-0.0248	0.2153	870.1852	0.127965	-437.913776	-437.907275	-437.906331	-437.944466	26.495	
O	-0.0131338227	-0.0214011031	-0.0177512899	-0.346796
C	 0.0114825699	 1.1746213438	 0.0165046844	 0.484079
O	-1.1259306039	 1.9163838498	 0.0818231949	-0.24115
C	-0.8708208748	 3.3519583367	 0.0507081738	 0.043271
C	-0.0430656156	 3.647399202	 1.322505822	-0.169784
N	 1.2074773354	 2.8688663963	 1.2498782623	-0.293695
C	 1.2504132805	 2.0719312782	-0.0139431618	-0.200122
C	 1.0929623539	 2.9938168412	-1.2101653417	-0.093891
C	-0.0409635333	 3.6953771466	-1.1587476062	-0.071415
H	-1.8522866219	 3.8220469918	 0.0747665128	 0.098835
H	 0.1482736029	 4.7217419248	 1.4086464003	 0.108927
H	-0.6305852659	 3.3317158555	 2.1924349972	 0.125686
H	 2.0016159417	 3.4990930601	 1.2368025375	 0.228639
H	 2.1462170999	 1.4549599416	-0.0278312233	 0.100863
H	 1.851183371	 3.0726302188	-1.9805414992	 0.114579
H	-0.3479080369	 4.4602260959	-1.8611452032	 0.111975
140.378	223.0083	362.8407	400.9471	426.626	460.2297	585.3352	624.7119	655.9447	720.8118	742.2455	816.3851	831.7338	865.1804	920.5448	955.8833	960.9545	982.1814	989.3789	1030.2429	1063.5722	1067.1532	1138.5887	1173.379	1224.5724	1265.8587	1280.1289	1312.2242	1357.9457	1373.9218	1387.93	1452.942	1501.107	1667.389	1876.267	3032.3091	3079.0684	3136.1764	3144.4894	3192.2224	3217.1301	3530.3725
O=C1OC2CNC1C=C2	O=C1O[C@H]2CN[C@@H]1C=C2	
InChI=1S/C6H7NO2/c8-6-5-2-1-4(9-6)3-7-5/h1-2,4-5,7H,3H2	InChI=1S/C6H7NO2/c8-6-5-2-1-4(9-6)3-7-5/h1-2,4-5,7H,3H2/t4-,5-/m1/s1
