13
gdb 123508	4.07279	1.85924	1.27651	2.9972	76.26	-0.2394	-0.0817	0.1577	886.0908	0.093874	-411.828258	-411.82265	-411.821706	-411.858152	22.528	
C	 0.0313527457	 1.2977993949	 0.009139713	-0.068641
C	 1.3268855536	 1.7858317348	-0.0007129807	-0.114167
N	 2.1132481808	 0.6750055119	-0.0144147751	 0.015356
N	 3.4483385	 0.6062753198	-0.0277108585	-0.203287
C	 3.907984665	-0.6238086414	-0.0389145834	 0.0132
C	 3.0681947132	-1.7694005882	-0.0370545796	-0.045942
N	 1.7555805876	-1.6874583868	-0.0239180477	-0.297799
C	 1.2456450868	-0.4514375039	-0.0122107594	 0.487057
N	-0.0179024369	-0.0612431861	 0.0021498637	-0.333338
H	-0.8746501616	 1.8862886345	 0.0211361093	 0.12858
H	 1.7456806791	 2.7774562113	 0.0006802608	 0.150975
H	 4.9880036264	-0.718656851	-0.0498854745	 0.138066
H	 3.5098111703	-2.7618759498	-0.0467819778	 0.129941
232.4483	241.3759	444.6971	484.1385	587.8437	606.8637	648.6581	651.5865	747.5938	770.8063	802.4003	880.7372	888.2807	903.6826	945.7989	968.178	1052.6997	1082.6865	1163.2045	1200.9366	1265.019	1303.3073	1383.9313	1402.005	1452.8726	1474.4142	1516.9556	1567.8062	1626.0016	3170.7112	3203.3236	3244.023	3291.0321
C1=CN2N=CC=NC2=N1	c1cn2nccnc2n1	
InChI=1S/C5H4N4/c1-2-8-9-4-3-7-5(9)6-1/h1-4H	InChI=1S/C5H4N4/c1-2-8-9-4-3-7-5(9)6-1/h1-4H
