13
gdb 20621	3.43827	1.98359	1.26779	3.3156	70.44	-0.2435	-0.0425	0.201	897.2933	0.094632	-361.431673	-361.424366	-361.423422	-361.46347	26.31	
C	-0.0078358263	 1.5328238737	 0.0752780708	-0.521156
C	 0.0146500286	 0.0402537242	 0.0304823467	 0.0508
C	 0.0031389132	-0.7794089324	-1.0674417997	 0.248218
O	 0.0323253418	-2.0798621288	-0.6794301759	-0.214121
N	 0.0640016993	-2.1341504285	 0.7007501788	-0.125914
C	 0.0536729807	-0.8881660328	 1.1065441498	-0.040428
C	-0.0324285965	-0.4982938857	-2.4458046433	 0.239563
C	-0.0634817158	-0.2351047192	-3.6201113411	-0.403431
H	 0.883521639	 1.9314592516	 0.5717548556	 0.141142
H	-0.0452910688	 1.947704497	-0.9346910499	 0.14411
H	-0.8793372954	 1.903146525	 0.6258540411	 0.140994
H	 0.0741271027	-0.6819758988	 2.1680926555	 0.134281
H	-0.0915982724	-0.0105757053	-4.6580574983	 0.205941
88.17	138.4546	165.0695	268.2544	305.764	446.2443	517.5463	589.3771	602.958	646.0545	688.2936	692.0098	726.1498	905.5705	952.8618	959.4021	1008.0518	1067.0228	1160.3866	1208.8444	1238.5387	1399.3371	1426.8775	1482.445	1485.448	1501.1178	1644.9859	2235.9465	3036.1454	3088.9862	3124.7428	3237.7997	3499.6352
CC1=C(ON=C1)C#C	Cc1c(onc1)C#C	
InChI=1S/C6H5NO/c1-3-6-5(2)4-7-8-6/h1,4H,2H3	InChI=1S/C6H5NO/c1-3-6-5(2)4-7-8-6/h1,4H,2H3
