21
gdb 60814	2.91888	1.02854	0.82128	2.2645	79.97	-0.2626	-0.0379	0.2246	1425.9582	0.180067	-424.221444	-424.211481	-424.210537	-424.256972	36.578	
C	-0.187860549	 1.3780193394	 0.0856129364	-0.415636
C	 0.018308461	-0.1420429164	-0.0230974642	-0.020573
C	 0.7539435981	-0.551372718	-1.3309821171	 0.048113
O	 0.9123556089	-1.9411904201	-1.4148260169	-0.431524
C	 0.0521370117	-0.0485369229	-2.5784016426	 0.128589
O	-0.3292232734	-0.8091887369	-3.4374102421	-0.266577
C	 0.7818174345	-0.6553258913	 1.1850893159	 0.050852
C	 0.0504080488	-0.9413837707	 2.4761285166	-0.28901
C	 0.635718915	-2.0712889637	 1.6675895504	-0.25271
H	 0.7632596678	 1.9148604537	-0.0139892543	 0.116798
H	-0.875278036	 1.7697690232	-0.6696732223	 0.113808
H	-0.600602917	 1.6248395939	 1.0675709132	 0.129345
H	-0.961658632	-0.6376123436	-0.0452611049	 0.080379
H	 1.7426902474	-0.0519581912	-1.3185175453	 0.087898
H	 0.5059692943	-2.1967290479	-2.2585699416	 0.292182
H	-0.0819180309	 1.0449017599	-2.6794346052	 0.103737
H	 1.7715229259	-0.2138478884	 1.2905436419	 0.076436
H	 0.5267612998	-0.6674797328	 3.4110793428	 0.109606
H	-1.0295485828	-0.8284559388	 2.4819444246	 0.107869
H	-0.0414266191	-2.7151653993	 1.1196358192	 0.119958
H	 1.5169912471	-2.5769213582	 2.0459313456	 0.11046
42.5228	82.8187	103.0356	170.6732	204.5245	251.5887	296.5776	325.158	357.2064	372.8097	438.2358	465.2316	525.441	748.053	763.8792	810.5723	826.4539	835.3011	922.5981	937.1074	955.6006	983.2594	1015.549	1057.6772	1072.1703	1082.3967	1133.2958	1139.851	1165.0025	1195.1281	1198.885	1230.5575	1263.7086	1290.7391	1315.5829	1353.3884	1396.3151	1412.7051	1419.7055	1443.3776	1472.0918	1497.3383	1504.7027	1507.7209	1803.7362	2917.7352	2960.637	3020.2972	3031.7326	3097.4345	3113.7265	3118.0343	3126.2166	3144.9153	3206.7123	3231.1912	3681.2816
CC(C(O)C=O)C1CC1	C[C@@H]([C@@H](O)C=O)C1CC1	
InChI=1S/C7H12O2/c1-5(6-2-3-6)7(9)4-8/h4-7,9H,2-3H2,1H3	InChI=1S/C7H12O2/c1-5(6-2-3-6)7(9)4-8/h4-7,9H,2-3H2,1H3/t5-,7+/m1/s1
