17
gdb 32118	3.63342	1.1862	0.90089	2.6256	83.55	-0.1936	-0.0161	0.1776	1267.1727	0.138249	-414.247118	-414.238622	-414.237677	-414.280183	31.94	
C	 0.0735913749	 1.4076698257	 0.0992666968	-0.322929
N	-0.0618529368	-0.0140740681	-0.1173710922	-0.351243
C	-1.2515553368	-0.6851758848	-0.0533427078	 0.39207
C	-2.4979914365	-0.0310735992	-0.0006229572	-0.118156
N	-3.6327421914	-0.726267809	 0.0346674842	-0.218593
C	-3.5593810221	-2.0501230747	 0.0154495013	-0.09577
C	-2.3135225904	-2.7061358974	-0.0295426481	 0.361052
N	-2.2246837672	-4.0817380452	-0.0939613577	-0.570061
N	-1.169132176	-2.0248200493	-0.053558904	-0.399895
H	 1.1306056083	 1.6732231124	 0.0364548039	 0.129919
H	-0.4582459206	 1.9787321738	-0.670922204	 0.137044
H	-0.305008388	 1.7291514306	 1.0806421281	 0.12503
H	 0.7483553686	-0.6000500053	 0.0018208302	 0.243882
H	-2.575373144	 1.050103853	 0.0149796348	 0.093953
H	-4.4893978933	-2.6121106492	 0.0383830804	 0.08909
H	-2.9975197397	-4.6039441948	 0.2874292787	 0.25279
H	-1.315164059	-4.4496848784	 0.1414941827	 0.251819
77.3133	147.6088	203.5895	208.8122	245.2188	341.8828	390.49	410.1699	483.6251	498.8652	534.3304	581.5035	605.4831	702.1566	747.4594	778.9106	841.5796	877.9617	980.3513	1006.3327	1076.9849	1124.492	1159.6055	1212.1233	1215.1848	1281.029	1326.653	1383.5938	1432.7093	1461.6835	1483.3646	1493.3533	1523.0429	1564.3429	1598.6053	1613.1353	1642.327	2994.9725	3054.4191	3126.4111	3153.4272	3184.3101	3579.402	3641.5138	3694.0786
CNC1=CN=CC(N)=N1	CNc1cncc(N)n1	
InChI=1S/C5H8N4/c1-7-5-3-8-2-4(6)9-5/h2-3H,1H3,(H3,6,7,9)	InChI=1S/C5H8N4/c1-7-5-3-8-2-4(6)9-5/h2-3H,1H3,(H3,6,7,9)
