19
gdb 61250	3.22703	0.95954	0.92411	5.4969	76.56	-0.2166	0.0321	0.2487	1339.0208	0.157842	-419.1713	-419.161588	-419.160643	-419.206255	35.214	
C	 0.9473959324	 0.4520118219	-1.3287561565	-0.339456
N	 0.1891822125	-0.2856335267	-0.3203907382	-0.069999
C	 0.2455791944	 0.3102730171	 1.003083081	-0.29437
C	 1.6170285852	 0.2945011633	 1.5342672949	 0.280941
N	 2.6894840561	 0.3019984812	 1.9634749089	-0.313339
C	-1.0965867411	-0.7039979044	-0.8144764976	 0.022083
C	-2.3523484458	-0.8115182058	 0.0161038659	-0.368576
C	-2.2515624626	 0.2415016512	-1.0672038452	 0.086461
O	-2.0342588912	 1.5680235159	-0.6750673897	-0.413319
H	 1.9789314261	 0.5829648379	-0.9904616356	 0.142435
H	 0.9692759001	-0.1318478298	-2.2537742546	 0.121309
H	 0.5142232079	 1.439350689	-1.5511287774	 0.123938
H	-0.126352776	 1.3478732369	 1.0423636848	 0.141688
H	-0.3689596037	-0.2792940774	 1.688526402	 0.151247
H	-0.9850309416	-1.4823024815	-1.5669832656	 0.103417
H	-2.9858380336	-1.6787841685	-0.1346669473	 0.121258
H	-2.3497071923	-0.4378981871	 1.0335997683	 0.121323
H	-2.8383059369	 0.1181076426	-1.9768922556	 0.090949
H	-2.8624346099	 1.9245717641	-0.3359919126	 0.292009
59.7752	69.8332	144.2049	172.5333	229.0941	244.3686	312.4877	324.4356	363.9739	385.936	394.9172	496.8464	529.2726	662.9087	756.331	805.8048	837.6489	898.619	953.4452	995.8856	1017.6423	1048.4184	1082.7616	1113.4503	1143.4736	1154.3185	1161.4201	1173.3297	1234.5342	1263.536	1282.5883	1343.0381	1380.566	1394.3778	1419.0805	1464.3669	1479.0855	1487.6636	1493.6173	1514.7226	2363.5351	2969.23	2992.4027	3078.2818	3092.4299	3102.9932	3115.6021	3119.4053	3139.2509	3224.2459	3797.0489
CN(CC#N)C1CC1O	CN(CC#N)[C@H]1C[C@H]1O	
InChI=1S/C6H10N2O/c1-8(3-2-7)5-4-6(5)9/h5-6,9H,3-4H2,1H3	InChI=1S/C6H10N2O/c1-8(3-2-7)5-4-6(5)9/h5-6,9H,3-4H2,1H3/t5-,6+/m0/s1
