18
gdb 109757	1.75299	1.67022	1.13211	6.4316	68.13	-0.2547	0.016	0.2707	1143.0187	0.148507	-476.233154	-476.224199	-476.223255	-476.267275	33.19	
N	 0.1597438298	 1.2492546066	 0.0845068345	-0.536792
H	 0.0877653916	-0.4825795507	 0.3345039933	 0.320049
H	 1.1241955981	 1.4971802916	 0.2830818175	 0.256766
H	-0.1144205648	 1.741989512	-0.7593056772	 0.254938
C	-0.6940893514	 1.6000041845	 1.2066841477	-0.068192
C	-2.1278308379	 1.1508910246	 1.2121074213	-0.048339
C	-2.7934032338	 0.3652438445	 0.0975685727	-0.091866
O	-3.8563724451	-0.4274740679	 0.5957423468	-0.421331
C	-1.119926467	 0.4869568112	 2.1514580786	-0.181364
C	-0.7766541513	-0.9707958727	 1.9618027131	 0.393679
O	-0.1237333014	-1.309011604	 0.842481161	-0.380226
O	-1.1116264524	-1.7953958096	 2.7757772707	-0.349442
H	-0.4963391169	 2.5621062626	 1.6765214268	 0.102162
H	-2.8169114428	 1.8259226304	 1.7113150445	 0.112891
H	-3.2504469061	 1.0586667648	-0.6172833494	 0.108589
H	-2.0642239959	-0.2419938862	-0.4525616226	 0.105478
H	-3.4820693883	-1.0724516307	 1.2073739978	 0.300366
H	-1.2178285844	 0.7329753391	 3.2016362626	 0.122634
56.107	93.5907	149.6048	205.7544	280.4422	288.5621	346.4878	380.6553	405.5465	463.5996	502.3176	565.507	696.0733	747.3605	797.4078	814.2249	869.3748	923.9123	953.0073	985.3707	1020.1938	1043.4383	1057.0785	1075.0313	1142.9552	1149.7309	1225.9086	1251.1331	1255.0434	1287.3897	1348.9046	1370.6769	1402.8124	1431.6629	1447.7737	1490.4551	1512.8837	1653.2278	1836.4914	3028.2591	3069.8529	3107.7729	3155.5723	3193.0029	3229.757	3501.3435	3576.8782	3796.7155
[NH3+]C1C(CO)C1C([O-])=O	N[C@H]1[C@@H](CO)[C@H]1C(=O)O	
InChI=1S/C5H9NO3/c6-4-2(1-7)3(4)5(8)9/h2-4,7H,1,6H2,(H,8,9)	InChI=1S/C5H9NO3/c6-4-2(1-7)3(4)5(8)9/h2-4,7H,1,6H2,(H,8,9)/t2-,3+,4-/m0/s1
