16
gdb 87659	2.7968	1.27562	1.10557	3.678	66.4	-0.2454	0.014	0.2593	1123.471	0.122215	-475.004443	-474.995409	-474.994465	-475.038624	32.694	
O	-0.2473275647	 1.3651328303	-0.1440251225	-0.430364
C	-0.0512886679	-0.0162292935	-0.0554362502	 0.041823
C	-0.3924659312	-0.719156725	 1.2565018595	-0.409352
C	-1.3000718569	-0.8108616369	 0.0691341	 0.387028
N	-2.6374230632	-0.247039039	-0.043045107	-0.385072
C	-3.0562992948	-1.1683997177	-0.9762617939	 0.406625
O	-4.0061718684	-1.2452770511	-1.708973383	-0.365775
C	-1.7591708956	-2.0060576193	-0.7868316225	-0.126556
O	-1.0284088879	-2.2532526057	-1.9575664483	-0.433176
H	 0.4874802492	 1.8029862869	 0.2982791991	 0.294054
H	 0.7510927862	-0.4238479478	-0.6686887226	 0.110057
H	 0.180123926	-1.5948628945	 1.5456299057	 0.124787
H	-0.7107597115	-0.0826534249	 2.0763362677	 0.119833
H	-2.9165749842	 0.7173923688	 0.0749262173	 0.262261
H	-1.9068477051	-2.921829657	-0.1993888724	 0.100131
H	-1.6591331201	-2.2950480036	-2.6860704669	 0.303696
54.4252	115.2081	139.1019	178.9099	209.1607	263.7416	312.741	418.1798	428.271	488.4472	531.3283	571.0644	603.7945	739.4915	794.7403	817.8983	869.8658	908.2091	999.2831	1015.3321	1034.4865	1082.2627	1124.7681	1148.1671	1161.1334	1194.0718	1245.2027	1270.9043	1314.2277	1344.3442	1362.1968	1388.9003	1429.8223	1514.0003	1894.9743	3021.8986	3117.5	3123.2748	3215.2443	3597.7094	3794.2803	3807.5766
OC1CC11NC(=O)C1O	O[C@H]1C[C@]21NC(=O)[C@H]2O	
InChI=1S/C5H7NO3/c7-2-1-5(2)3(8)4(9)6-5/h2-3,7-8H,1H2,(H,6,9)	InChI=1S/C5H7NO3/c7-2-1-5(2)3(8)4(9)6-5/h2-3,7-8H,1H2,(H,6,9)/t2-,3+,5+/m0/s1
