21
gdb 53174	2.84467	1.04718	0.91566	0.0149	91.11	-0.2367	0.0552	0.292	1405.5349	0.181438	-349.907593	-349.897856	-349.896912	-349.943778	35.466	
C	 0.1379531119	 1.557839044	-0.0128954019	-0.498002
C	 0.073216119	 0.1030207446	-0.009433162	 0.035359
C	 0.0311218051	-1.1018544204	-0.0105545358	 0.117439
C	-0.0401554583	-2.5523126169	-0.0011068198	-0.220789
C	 0.3693832261	-3.2895543556	 1.2921037381	-0.046352
C	-0.5564192529	-2.9317089013	 2.4155971462	-0.283659
C	-1.0100585176	-3.9368715218	 1.3916349953	-0.054861
C	-1.4665128364	-3.2554453321	 0.0942536971	 0.01466
C	-2.7281358929	-2.4053291474	 0.1016801224	-0.408843
H	 0.7931561274	 1.9294978645	 0.7830626914	 0.146178
H	 0.5260401591	 1.9388819952	-0.9642653603	 0.145312
H	-0.8517373314	 2.0025034639	 0.1411284829	 0.145168
H	 0.5014341542	-2.9521279253	-0.8637475424	 0.094662
H	 1.3473051529	-3.7235778754	 1.4603157296	 0.086059
H	-0.2924177587	-3.3507148506	 3.381358868	 0.108556
H	-0.9934644092	-1.9384658092	 2.4678955561	 0.115997
H	-1.2581917312	-4.9540553883	 1.6714761671	 0.080934
H	-1.5308215852	-3.9930813551	-0.7114857772	 0.074396
H	-2.7054647788	-1.6493340928	 0.8911730953	 0.121884
H	-2.8527345704	-1.8810165412	-0.8515069369	 0.116793
H	-3.6115717428	-3.0339252689	 0.2599283968	 0.10911
16.5145	82.4121	87.3416	182.5437	192.4781	236.967	270.1442	336.1128	387.962	473.1603	480.5197	575.4733	666.156	742.1435	781.4271	799.0727	868.1336	910.1302	938.7177	990.8385	994.8842	1025.881	1052.4789	1053.1028	1062.202	1075.3032	1082.8788	1099.1176	1129.1356	1170.8451	1184.8554	1221.0544	1268.1074	1293.7341	1338.6188	1366.2654	1369.5829	1411.7292	1414.856	1478.9332	1479.334	1485.0123	1491.9589	1497.7543	2360.667	3023.3437	3032.7939	3044.0177	3060.561	3082.704	3082.9235	3096.3063	3113.77	3119.4701	3171.8562	3183.6455	3204.2814
CC#CC1C2CC2C1C	CC#C[C@H]1[C@H]2C[C@H]2[C@H]1C	
InChI=1S/C9H12/c1-3-4-7-6(2)8-5-9(7)8/h6-9H,5H2,1-2H3	InChI=1S/C9H12/c1-3-4-7-6(2)8-5-9(7)8/h6-9H,5H2,1-2H3/t6-,7+,8-,9+/m0/s1
