16
gdb 54644	3.90384	1.07999	0.85489	4.3806	74.04	-0.2316	-0.0678	0.1638	1290.4678	0.12331	-437.960871	-437.952298	-437.951354	-437.994658	31.096	
C	 0.0385234514	 1.5065743043	 0.0076953826	-0.494321
C	 0.0130418548	-0.0070031903	 0.0021424925	 0.314958
O	 1.0265088853	-0.6793013217	-0.0083637621	-0.321587
C	-1.3029714383	-0.6829249609	 0.0101585732	 0.297638
C	-2.5522411233	-0.1818928988	 0.0219234125	-0.228664
C	-3.52353381	-1.328482812	 0.0254902121	-0.390278
C	-2.6162459815	-2.5779421197	 0.0136144638	 0.41519
O	-2.9427706426	-3.7399258693	 0.0119710945	-0.363415
N	-1.3261785808	-2.08197752	 0.0052804846	-0.379267
H	 1.0749640793	 1.8441950878	 0.0001291417	 0.150491
H	-0.4839960345	 1.9040460929	-0.8684868806	 0.147421
H	-0.4688329859	 1.8972228348	 0.8957877176	 0.147458
H	-2.8163843184	 0.8644917977	 0.0278690269	 0.119001
H	-4.1730491537	-1.3499720616	 0.9084827325	 0.155078
H	-4.1871594333	-1.3435227881	-0.8470786324	 0.155071
H	-0.4867655085	-2.6393847551	-0.0035514595	 0.275227
72.4131	105.9229	121.458	169.0145	201.7658	340.0547	450.2402	453.4879	532.4194	534.2041	577.2132	606.8428	683.5369	685.3748	744.8079	853.1551	923.2652	947.5672	984.2939	989.6149	1045.9034	1102.7188	1140.3645	1192.5104	1245.692	1292.6682	1319.5613	1381.954	1423.1228	1443.8183	1468.0485	1473.7557	1664.8036	1766.4859	1844.8944	3045.2173	3045.832	3077.1629	3108.5233	3159.5295	3251.4562	3656.3106
CC(=O)C1=CCC(=O)N1	CC(=O)C1=CCC(=O)N1	
InChI=1S/C6H7NO2/c1-4(8)5-2-3-6(9)7-5/h2H,3H2,1H3,(H,7,9)	InChI=1S/C6H7NO2/c1-4(8)5-2-3-6(9)7-5/h2H,3H2,1H3,(H,7,9)
