16
gdb 36284	4.34894	1.06923	1.00967	3.8684	72.48	-0.2535	-0.016	0.2375	1173.041	0.125154	-400.710156	-400.702886	-400.701942	-400.742392	28.055	
N	-0.0113401085	-1.1202783998	-0.3222591516	-0.308301
C	-0.0166325504	 0.0099736842	-0.0809841796	 0.258895
C	 0.0100304948	 1.4408968895	 0.2153917558	-0.375548
C	 1.4263723337	 2.0201472286	 0.1184233657	 0.017628
C	 1.9541055175	 2.2856549659	-1.3341273314	 0.009173
O	 1.0837985354	 3.46777372	-1.3677425173	-0.286047
C	 1.4971128857	 3.5844634245	 0.0341599908	-0.004178
C	 3.0127446764	 3.8056029306	-0.0990523056	-0.08376
C	 3.3261018952	 2.9133856922	-1.0412288932	-0.074921
H	-0.6441621149	 1.9677065944	-0.4857411761	 0.170567
H	-0.3918260193	 1.5941551422	 1.2239312176	 0.150328
H	 2.1133128464	 1.5277801699	 0.8093583243	 0.097219
H	 1.8199041956	 1.5933289373	-2.1635213135	 0.100781
H	 0.8859882497	 4.2559600374	 0.6363521653	 0.086909
H	 3.6222782108	 4.5033478337	 0.454912966	 0.11966
H	 4.2714275319	 2.6566225194	-1.4946745973	 0.121593
68.9911	111.8517	260.294	288.6782	398.496	425.6689	523.1273	574.3038	634.9841	708.2545	752.1075	797.7065	857.0598	873.0709	884.6325	911.9305	917.2415	940.1018	972.2282	988.4065	1039.5296	1066.9604	1148.5978	1154.579	1180.1756	1212.562	1238.0129	1248.9448	1294.6114	1298.5566	1318.0433	1378.2992	1468.4479	1614.849	2360.7373	3045.3266	3091.3664	3105.6563	3132.3507	3144.9512	3238.9594	3265.5263
N#CCC1C2OC1C=C2	N#CC[C@H]1[C@H]2O[C@@H]1C=C2	
InChI=1S/C7H7NO/c8-4-3-5-6-1-2-7(5)9-6/h1-2,5-7H,3H2	InChI=1S/C7H7NO/c8-4-3-5-6-1-2-7(5)9-6/h1-2,5-7H,3H2/t5-,6-,7+
