20
gdb 88014	2.74719	1.37965	1.16264	2.3247	80.27	-0.2276	0.0623	0.2899	1154.4748	0.16983	-403.083377	-403.074703	-403.073759	-403.116612	33.156	
C	-0.0776893799	 1.2854417578	-0.2886884082	-0.315335
N	 0.2157081754	-0.1228551127	-0.0601439663	-0.136006
C	 1.6272638817	-0.4949302831	 0.0579910317	-0.311653
C	 0.72948908	-0.4975798754	 1.241276706	 0.296991
C	 0.875779089	 0.3201030653	 2.5418390055	-0.333822
C	 0.6943277438	-1.0083993114	 3.3481741994	-0.333102
C	 0.2746707159	-1.6963969791	 2.0422715037	 0.402812
C	-0.8348751288	-2.6054818311	 1.7573648664	-0.265837
O	 0.5354139152	-3.0403832488	 1.6952436299	-0.276718
H	 0.6235182338	 1.9729146603	 0.2115487874	 0.102158
H	-0.0442557585	 1.4866415728	-1.3638711945	 0.126125
H	-1.0889686363	 1.5089850058	 0.0664207705	 0.122235
H	 1.909517788	-1.4340654806	-0.4096303445	 0.127208
H	 2.3720379532	 0.299034725	 0.002380074	 0.104214
H	 1.8190539762	 0.8486884659	 2.6901585257	 0.110182
H	 0.0509448054	 1.0215913986	 2.6954459201	 0.111282
H	 1.6398773258	-1.4044538431	 3.7268509982	 0.12122
H	-0.037411445	-0.9958950125	 4.1583449781	 0.1092
H	-1.4182615196	-3.0238058135	 2.5768160235	 0.111472
H	-1.3421010953	-2.5344252002	 0.7971148435	 0.127375
84.3994	130.2023	170.9876	200.612	239.6316	289.8974	334.2572	415.7915	466.8287	514.5669	569.0412	617.6814	755.9981	793.1981	851.1718	883.2713	886.6291	910.2816	925.6344	960.3017	1040.0917	1071.3684	1104.0373	1112.2911	1122.2409	1134.9037	1146.2368	1163.1488	1175.0781	1189.8599	1212.2868	1229.9697	1255.6912	1259.2771	1395.5123	1443.5164	1449.4904	1472.8505	1491.4638	1493.396	1496.0739	1508.9017	1534.5495	2971.7151	3062.1655	3067.8514	3069.9484	3083.5909	3084.9235	3102.8351	3112.0511	3128.2985	3177.5228	3183.3141
CN1CC11CCC11CO1	CN1C[C@]21CC[C@]12CO1	
InChI=1S/C7H11NO/c1-8-4-6(8)2-3-7(6)5-9-7/h2-5H2,1H3	InChI=1S/C7H11NO/c1-8-4-6(8)2-3-7(6)5-9-7/h2-5H2,1H3/t6-,7-,8?/m1/s1
