20
gdb 14389	3.97118	1.82804	1.55364	0.2117	78.	-0.2025	0.0776	0.2801	911.1307	0.176926	-311.790617	-311.782979	-311.782035	-311.821921	31.025	
C	-0.1981342589	 1.6096958374	-0.0219584136	-0.492153
C	 0.0500058212	 0.0961607972	 0.0214707249	 0.33439
C	-1.1799759476	-0.6795340486	-0.4520517481	-0.448546
C	 1.3182936497	-0.6439608564	-0.3515349861	-0.101219
C	 2.6780691992	-0.0981329297	 0.1652793306	-0.067709
C	 2.6256063459	 1.1558324279	 0.9957886578	-0.309744
C	 2.156163852	-0.142929928	 1.5938528978	-0.067686
C	 0.7944844823	-0.6888196702	 1.0821748203	-0.101218
H	 0.488008442	 2.1249188663	-0.6990926267	 0.129518
H	-1.2115799881	 1.8056451873	-0.3866126494	 0.106836
H	-0.1208489136	 2.0728447025	 0.9651067413	 0.1295
H	-1.438458964	-0.4032691979	-1.4805748129	 0.114813
H	-1.0135703718	-1.7607615669	-0.4250378578	 0.112119
H	-2.04559276	-0.4551863737	 0.181491245	 0.114817
H	 1.2908389076	-1.4396045564	-1.0876349369	 0.078315
H	 3.615598854	-0.4863005964	-0.2123900436	 0.085403
H	 3.6034037792	 1.4589065038	 1.3624893421	 0.107698
H	 1.9760281196	 1.9907427832	 0.784721817	 0.111151
H	 2.6376492624	-0.5703003375	 2.4643683047	 0.085398
H	 0.3153263186	-1.5231198339	 1.5821703636	 0.078317
93.9168	236.2968	268.607	272.2429	318.4489	355.1007	395.3064	474.9407	580.5052	671.2698	686.6323	725.1439	747.6496	841.5849	875.4811	879.676	915.9565	959.3972	985.8682	1001.9118	1010.7721	1029.5122	1032.7211	1056.9997	1060.0257	1083.09	1086.5786	1151.526	1169.4406	1204.6304	1260.6032	1284.5529	1289.9565	1338.6801	1399.8767	1407.9255	1427.2166	1491.4264	1496.1285	1501.4197	1506.3935	1521.7128	3023.1858	3039.4627	3086.384	3096.1497	3104.0611	3117.0641	3134.7186	3160.2586	3170.4444	3182.4497	3193.4999	3256.8219
CC1(C)C2C3CC3C12	CC1(C)[C@H]2[C@H]3C[C@H]3[C@@H]12	
InChI=1S/C8H12/c1-8(2)6-4-3-5(4)7(6)8/h4-7H,3H2,1-2H3	InChI=1S/C8H12/c1-8(2)6-4-3-5(4)7(6)8/h4-7H,3H2,1-2H3/t4-,5+,6-,7+
