21
gdb 41851	2.29027	1.97793	1.58854	1.627	81.67	-0.2371	0.0163	0.2534	969.9451	0.187143	-387.115043	-387.108005	-387.107061	-387.145998	29.831	
C	 0.002052374	 1.4165369272	-0.1177577317	-0.063981
C	 1.4387280522	 1.9507153248	-0.0426136554	-0.217443
C	 2.2209849848	 1.3802478523	 1.1616751874	-0.01013
C	 1.7194383974	 1.8853611817	 2.5330562869	-0.256995
C	 0.5106954589	 1.1449761162	 3.047769626	-0.0426
C	 0.0085981995	 0.0609084454	 2.456306139	-0.081807
C	 0.610263284	-0.4948462854	 1.1847293059	 0.078986
C	 2.1020914715	-0.1518237438	 1.1081880182	-0.227057
O	-0.0659177696	 0.0027856726	 0.0156325321	-0.270402
H	-0.6204487905	 1.9033602315	 0.6466434399	 0.092541
H	-0.440234079	 1.6380631158	-1.0938881617	 0.101787
H	 1.9714635541	 1.6655206077	-0.9583111982	 0.097917
H	 1.4155004121	 3.0468711801	-0.01149838	 0.088486
H	 3.2693139939	 1.6796706099	 1.0536566349	 0.064141
H	 2.5277660568	 1.7927664041	 3.2740553377	 0.107961
H	 1.4987222335	 2.9605831803	 2.4851578207	 0.103121
H	 0.0536424263	 1.5319841488	 3.9565747242	 0.086911
H	-0.8796989561	-0.425117006	 2.8496961969	 0.087062
H	 0.4578760389	-1.5771215649	 1.1374691561	 0.074857
H	 2.5164649433	-0.5396791934	 0.171636784	 0.094848
H	 2.6390740138	-0.623237065	 1.9389979469	 0.091797
152.6878	244.8773	311.7245	350.1909	390.8555	419.7282	486.0269	513.4972	621.815	640.7246	731.6256	775.568	818.1404	829.2983	859.4879	902.8027	927.9727	949.4388	993.4354	1004.7384	1010.3758	1046.1084	1066.1614	1075.5655	1107.6938	1119.2674	1153.5452	1205.2688	1212.5301	1243.0632	1277.0801	1319.3972	1341.1411	1352.6989	1362.4974	1370.2706	1379.1738	1391.7626	1413.6141	1424.6193	1464.8234	1471.0996	1488.0575	1500.7529	1713.63	2994.5135	3000.9999	3018.2808	3026.0898	3030.6883	3042.6888	3062.5423	3064.0944	3079.3256	3081.6428	3139.1955	3171.5371
C1CC2CC=CC(C2)O1	C1C[C@H]2CC=C[C@H](C2)O1	
InChI=1S/C8H12O/c1-2-7-4-5-9-8(3-1)6-7/h1,3,7-8H,2,4-6H2	InChI=1S/C8H12O/c1-2-7-4-5-9-8(3-1)6-7/h1,3,7-8H,2,4-6H2/t7-,8-/m1/s1
