20
gdb 71283	2.63608	1.97006	1.41286	1.5767	82.21	-0.2251	0.0165	0.2416	983.682	0.173102	-365.981461	-365.974151	-365.973207	-366.01254	30.626	
C	 0.0298484366	 1.4762925588	-0.0086134001	-0.489175
C	 0.0137481907	-0.0452424807	 0.0295901976	 0.275773
C	 0.2680378795	-0.7414719899	-1.3512896768	-0.197583
N	-1.0819720764	-1.3952046785	-1.3659387393	-0.157024
C	-1.2372753095	-2.1531305251	-0.0938962072	-0.014566
C	-0.112804653	-2.8593665453	 0.6590505061	-0.307131
C	 0.7856559185	-1.9225244525	 1.4288905514	-0.079876
C	 0.8401050193	-0.6211246662	 1.153007178	-0.094881
C	-1.3881790989	-0.6894002771	-0.0627426012	-0.08764
H	 1.0501136974	 1.8521112076	-0.1460854675	 0.11703
H	-0.5847543953	 1.858925178	-0.8295716507	 0.119919
H	-0.3567041022	 1.8970620773	 0.9266472027	 0.118525
H	 0.3274011553	-0.0314709241	-2.1805928585	 0.106735
H	 1.1138959811	-1.4338688931	-1.4103560842	 0.100055
H	-2.1627092816	-2.7215255162	-0.1333592	 0.097209
H	-0.5669809484	-3.5775314299	 1.3532116079	 0.111716
H	 0.478507749	-3.4719695445	-0.0376405105	 0.122619
H	 1.3873666484	-2.3520944543	 2.2251202452	 0.090317
H	 1.493402813	 0.0448141505	 1.7109092643	 0.083033
H	-2.3252461435	-0.1699966651	 0.1161000427	 0.084946
174.0235	241.227	262.7535	303.0125	339.143	405.1737	477.0441	489.41	585.5016	625.5787	709.0618	726.7753	776.3257	808.1331	865.6283	903.2575	914.4698	930.9467	963.1516	975.3365	988.8762	996.8216	1028.4274	1065.7922	1072.1049	1155.1594	1163.095	1173.567	1220.5258	1228.3169	1244.9765	1261.6437	1290.7604	1333.2327	1351.0806	1406.5784	1415.7494	1420.242	1467.336	1493.773	1495.7166	1505.0711	1710.3488	3001.3586	3024.4731	3040.1315	3043.8267	3089.3081	3098.0704	3103.1909	3140.4816	3149.8105	3152.7988	3174.512
CC12CN3C(CC=C1)C23	C[C@@]12CN3[C@@H](CC=C1)[C@@H]23	
InChI=1S/C8H11N/c1-8-4-2-3-6-7(8)9(6)5-8/h2,4,6-7H,3,5H2,1H3	InChI=1S/C8H11N/c1-8-4-2-3-6-7(8)9(6)5-8/h2,4,6-7H,3,5H2,1H3/t6-,7-,8-,9?/m0/s1
