17
gdb 93473	2.9541	1.37362	0.9732	1.1756	71.9	-0.2662	-0.0232	0.243	1161.3756	0.138202	-455.205296	-455.197384	-455.19644	-455.237891	30.535	
O	 0.1615605152	 1.3398250999	 0.2874376875	-0.440467
C	 0.0157115867	-0.0300597284	 0.0393766837	 0.055766
C	-1.4498676613	-0.4593685643	 0.0240126049	-0.245672
C	-1.5258330872	-1.9602853903	-0.2749312445	-0.273768
C	-0.8334772864	-2.3392476132	-1.5657341051	 0.394846
N	-1.2424808713	-3.3237902663	-2.2572655679	-0.505347
N	 0.2699403018	-1.537312564	-1.907383105	-0.374458
C	 0.6871944108	-0.3800431849	-1.2877974367	 0.384909
O	 1.549011453	 0.3318786012	-1.7659632281	-0.372355
H	 0.8998398386	 1.627526983	-0.2720105667	 0.295429
H	 0.5403165402	-0.6255585946	 0.8115199155	 0.095909
H	-1.9082140258	-0.2345949408	 0.9904876811	 0.123061
H	-1.9862888724	 0.1216701689	-0.7345415188	 0.120435
H	-1.0428628194	-2.5184336872	 0.5387863568	 0.13327
H	-2.5527598408	-2.3216914782	-0.3383263497	 0.143602
H	-0.6645732128	-3.481207386	-3.0858020358	 0.21024
H	 0.7445952412	-1.7381937549	-2.7796772613	 0.2546
76.8085	135.8297	220.2192	306.6807	366.9621	371.4611	411.8828	457.5991	489.1828	545.0763	589.3322	647.3281	700.1143	725.0566	782.4318	857.4152	889.4325	909.5239	989.6619	1052.0158	1087.5035	1131.4336	1158.0217	1166.7579	1222.8192	1287.5946	1298.3448	1328.6557	1345.1189	1387.954	1394.3577	1425.8323	1451.7581	1471.6001	1501.3205	1739.4675	1790.9509	2917.8285	3025.8102	3052.3983	3104.7024	3129.3486	3445.8261	3569.17	3705.0488
OC1CCC(=N)NC1=O	O[C@H]1CC[C]([NH])NC1=O	
InChI=1S/C5H8N2O2/c6-4-2-1-3(8)5(9)7-4/h3,8H,1-2H2,(H2,6,7,9)	InChI=1S/C5H8N2O2/c6-4-2-1-3(8)5(9)7-4/h3,8H,1-2H2,(H2,6,7,9)/t3-/m0/s1
