25
gdb 94830	3.35425	1.09501	0.96166	0.1495	92.79	-0.2594	0.0849	0.3443	1370.9215	0.231028	-352.378018	-352.369104	-352.36816	-352.411022	36.34	
C	 0.025966988	 1.5793516647	 0.0101257994	-0.40365
C	 0.0113546349	 0.0480542763	 0.0021080233	 0.059234
C	 0.6629036605	-0.5194730873	-1.2709908489	-0.186571
C	 0.6614634277	-2.0564018489	-1.282905825	-0.287234
C	 1.3102441121	-2.6193856871	-0.0285645662	 0.422071
C	 1.8191204569	-4.035022454	-0.0425439039	-0.338352
C	 2.798289401	-2.8834646023	-0.0487075228	-0.300692
C	 0.6933450278	-2.0699672864	 1.2476901083	-0.287227
C	 0.6946911799	-0.5329992848	 1.252229521	-0.186573
H	 1.0541831837	 1.9606549693	-0.0007661527	 0.110592
H	-0.4880757216	 1.9881699318	-0.866545752	 0.107165
H	-0.4658084503	 1.9786945277	 0.9037747085	 0.107165
H	-1.0389502213	-0.2831087398	 0.0135649131	 0.06434
H	 0.1456275209	-0.1360962707	-2.1587394551	 0.084326
H	 1.6989675349	-0.1570659484	-1.3313999578	 0.090878
H	-0.3763293359	-2.4153050368	-1.344383733	 0.08964
H	 1.1739744687	-2.4314762195	-2.1762569781	 0.084778
H	 1.7288310259	-4.6226375815	 0.865838732	 0.105027
H	 1.7059280743	-4.6128772878	-0.954616317	 0.105026
H	 3.3464599454	-2.685643485	-0.9645420966	 0.105217
H	 3.3693534791	-2.6953653946	 0.8551074845	 0.105218
H	-0.3426190178	-2.4296483078	 1.3314412636	 0.089639
H	 1.2281498318	-2.4545341148	 2.1237697281	 0.084778
H	 1.7319951857	-0.1711157196	 1.2904066937	 0.090878
H	 0.1999898977	-0.1592386628	 2.1567865734	 0.084326
88.1567	183.0716	212.6032	237.3548	262.8966	315.8466	347.3876	364.7195	405.0601	450.6633	470.4974	581.6187	690.2486	784.6184	785.1161	797.1749	877.2528	892.542	910.3375	944.1754	955.5993	976.2535	977.4551	980.9854	1024.7343	1033.6424	1052.3318	1077.5738	1100.5154	1115.906	1150.6474	1165.571	1189.9796	1222.5602	1230.9209	1282.8079	1316.846	1321.5463	1336.1313	1357.3855	1366.2359	1378.5871	1386.0901	1405.9892	1416.1984	1466.7959	1475.036	1481.9299	1485.8066	1496.2559	1499.2891	1500.5976	1507.8823	2979.6047	2998.1101	3003.1488	3007.0979	3011.7659	3023.025	3051.4601	3054.8052	3055.32	3059.1672	3088.3719	3093.7462	3118.6677	3123.4487	3194.8492	3209.6666
CC1CCC2(CC2)CC1	CC1CCC2(CC2)CC1	
InChI=1S/C9H16/c1-8-2-4-9(5-3-8)6-7-9/h8H,2-7H2,1H3	InChI=1S/C9H16/c1-8-2-4-9(5-3-8)6-7-9/h8H,2-7H2,1H3
