16
gdb 29807	3.22741	1.22273	0.89179	0.8847	85.04	-0.1879	-0.0012	0.1868	1243.5995	0.123048	-400.749716	-400.740585	-400.739641	-400.78422	33.298	
C	-0.0418518785	 1.4414758401	 0.0472121945	-0.345909
N	-0.0055687509	-0.0060019968	 0.0133436211	-0.07348
C	 0.0378884093	-0.7607908667	-1.1319896879	-0.194375
C	 0.1031227286	-2.0911094545	-0.764730821	 0.348737
O	 0.1529527352	-3.1191681039	-1.6588770921	-0.451631
C	 0.102799413	-2.1528130187	 0.6447124654	-0.443359
C	 0.0359452317	-0.8418080662	 1.1107540191	 0.219958
C	 0.0075666043	-0.3628920016	 2.4337872402	 0.266088
C	-0.0170472389	 0.0426987766	 3.5699666157	-0.471333
H	 0.8997363236	 1.8690965895	-0.3143347414	 0.138696
H	-0.8604531507	 1.8164543681	-0.5744575104	 0.138893
H	-0.2020258586	 1.7642756832	 1.076145103	 0.15879
H	 0.0185149873	-0.3068015346	-2.1085845889	 0.121484
H	 0.1921530027	-3.9461240305	-1.1700713259	 0.297614
H	 0.1387850834	-3.0343851697	 1.2662014616	 0.101036
H	-0.0380913115	 0.3901412558	 4.572803907	 0.188793
29.1948	136.3482	148.0034	166.4502	230.1549	296.0609	330.2209	411.6846	454.5036	492.7422	535.4986	569.0641	625.624	643.4561	659.8769	679.4994	713.8449	766.6779	802.7237	1017.4499	1081.6207	1151.3221	1159.8817	1173.9588	1184.6911	1267.9054	1385.5594	1432.7608	1465.3208	1476.068	1488.1934	1508.49	1522.7583	1637.2605	2217.0812	3034.9055	3093.7465	3152.3194	3248.4749	3273.7356	3502.3812	3844.1454
CN1C=C(O)C=C1C#C	Cn1cc(O)cc1C#C	
InChI=1S/C7H7NO/c1-3-6-4-7(9)5-8(6)2/h1,4-5,9H,2H3	InChI=1S/C7H7NO/c1-3-6-4-7(9)5-8(6)2/h1,4-5,9H,2H3
