19
gdb 66385	2.68235	1.26927	1.26565	2.9119	71.12	-0.2448	-0.0245	0.2203	1115.9615	0.158736	-460.172174	-460.163387	-460.162443	-460.206004	32.432	
C	 0.0237246579	 1.5450688826	 0.0108483796	-0.437899
C	-0.0142148526	 0.0176503195	 0.0028801503	 0.110157
C	 0.7123561558	-0.548598982	-1.2432422935	-0.117352
O	 0.851905044	-1.9588259046	-1.1772222827	-0.236393
C	 1.5387897296	-2.3471074264	-0.0171129529	 0.012836
O	 0.8628504708	-1.9712733913	 1.153492387	-0.236373
C	 0.724068487	-0.5618605129	 1.2359234789	-0.11739
C	-1.4523459183	-0.4908861772	 0.0069062711	 0.146226
O	-2.4214407918	 0.2266711911	 0.014198417	-0.256312
H	 1.0557857936	 1.9099194704	 0.0074636822	 0.11173
H	-0.4918228167	 1.9518061319	-0.8631466791	 0.134345
H	-0.4826996463	 1.9425304715	 0.8944157308	 0.134286
H	 0.1611554544	-0.3287951924	-2.1619990607	 0.124966
H	 1.7045590624	-0.0714276626	-1.3173020097	 0.096586
H	 1.5924297114	-3.4368929406	-0.0231784733	 0.124582
H	 2.5558491088	-1.9085898267	-0.0195904044	 0.079634
H	 1.7169965209	-0.0855681674	 1.305806963	 0.096591
H	 0.1815811102	-0.3520382612	 2.1621681853	 0.124934
H	-1.5531101411	-1.5943869317	 0.0025876711	 0.104848
44.2447	138.2189	181.6612	204.775	262.3863	278.8164	328.6108	359.4494	433.0885	450.2579	482.4901	605.5313	693.8676	779.4958	899.2206	903.4386	943.5055	959.3063	978.8047	1031.4398	1044.6203	1064.7938	1118.2477	1187.2977	1201.1995	1221.1345	1242.5645	1252.5379	1334.391	1334.6501	1370.0131	1403.1627	1415.9337	1428.3379	1440.8919	1485.7418	1489.7476	1493.9579	1498.3412	1511.7065	1819.8999	2916.152	2941.2802	2957.6973	2966.0319	3043.3781	3086.9325	3087.8869	3114.8498	3122.1643	3122.9138
CC1(COCOC1)C=O	CC1(COCOC1)C=O	
InChI=1S/C6H10O3/c1-6(2-7)3-8-5-9-4-6/h2H,3-5H2,1H3	InChI=1S/C6H10O3/c1-6(2-7)3-8-5-9-4-6/h2H,3-5H2,1H3
