20
gdb 91956	2.32498	1.83245	1.2476	0.7631	78.14	-0.2358	0.0682	0.304	1063.0588	0.17176	-403.108015	-403.100011	-403.099067	-403.140409	31.99	
C	-0.8376816406	 1.2557593199	 0.0832819169	-0.408645
C	 0.115139244	 0.093361465	-0.1283384115	 0.06755
O	 1.1013484378	 0.4750411678	-1.0949548403	-0.277483
C	 2.2805590932	-0.2610841801	-0.8649738048	 0.092013
C	 3.2167296606	 0.3169484675	 0.1575573748	-0.312154
C	 2.2605848935	-0.8017601999	 0.5340260925	-0.132959
C	 0.915310224	-0.4007484642	 1.0907375216	 0.299961
C	 0.7123047283	 0.102429462	 2.4725817788	-0.28708
N	 0.3018700991	-1.2685658568	 2.0988021119	-0.369003
H	-1.317370029	 1.5230559995	-0.8620839658	 0.130583
H	-1.626445954	 0.9874648396	 0.7945620424	 0.11106
H	-0.3034560291	 2.131715882	 0.4608610351	 0.126315
H	-0.4483805866	-0.7713838025	-0.5229898207	 0.072618
H	 2.6429477355	-0.8137434391	-1.7257556402	 0.096661
H	 4.2702829757	 0.066618493	 0.0880517506	 0.111554
H	 3.0010193625	 1.3190324962	 0.5133549336	 0.116514
H	 2.6443365384	-1.7796552738	 0.7965103204	 0.104123
H	 1.558198673	 0.1524026273	 3.1528736237	 0.119328
H	-0.0588657505	 0.8454751536	 2.6534531676	 0.111151
H	-0.7070730359	-1.3002328769	 1.9611773833	 0.227892
71.9659	182.3632	239.4901	258.0679	289.5709	372.087	388.2046	474.4579	495.676	531.6792	693.5564	714.2403	792.5319	813.6285	866.0576	893.4335	906.6022	933.2316	971.3243	982.0745	1002.1281	1039.776	1051.3139	1057.9752	1095.3188	1104.7439	1118.6242	1128.0231	1142.2302	1161.8483	1200.0119	1262.6631	1279.9983	1315.7684	1337.7365	1370.3995	1388.325	1398.5644	1418.3577	1470.6228	1482.7969	1494.9942	1514.5741	2934.3251	3039.3924	3109.2438	3111.7318	3125.785	3126.4655	3158.2431	3190.9881	3197.3053	3219.2143	3474.3244
CC1OC2CC2C11CN1	C[C@H]1O[C@H]2C[C@H]2[C@]21CN2	
InChI=1S/C7H11NO/c1-4-7(3-8-7)5-2-6(5)9-4/h4-6,8H,2-3H2,1H3	InChI=1S/C7H11NO/c1-4-7(3-8-7)5-2-6(5)9-4/h4-6,8H,2-3H2,1H3/t4-,5-,6+,7-/m1/s1
