19
gdb 72800	2.58297	1.75841	1.30402	1.7516	76.93	-0.2227	0.0224	0.2452	1021.9852	0.162033	-419.201718	-419.19396	-419.193016	-419.233493	31.198	
O	-0.298608875	 1.4208527052	-0.0382881352	-0.481423
C	-0.0615926384	 0.0252464394	-0.0285981691	 0.355483
C	 1.0909576572	-0.4137070549	-0.9939072658	-0.258924
N	 1.9797543899	-0.4827803233	 0.2077763827	-0.360676
C	 0.8714225233	-0.5019623541	 1.0622930678	 0.317937
N	 0.6613133614	-1.0256161061	 2.1892160179	-0.324778
C	-0.7527603077	-1.0659728542	 2.5923098271	-0.154192
C	-1.7921970334	-0.4764782714	 1.6034313786	-0.212617
C	-1.4021585885	-0.6720442484	 0.1200594801	-0.261501
H	 0.5292950914	 1.8678116948	 0.170733994	 0.289595
H	 0.9245054524	-1.3848250223	-1.473280145	 0.110234
H	 1.3931317575	 0.3289783009	-1.736674283	 0.109383
H	 2.7147801877	-1.1741700339	 0.2998840668	 0.23881
H	-0.9788097635	-2.12596825	 2.7737104981	 0.105382
H	-0.857281117	-0.5738519756	 3.566653792	 0.107965
H	-2.7681705769	-0.9272346168	 1.8091973186	 0.092346
H	-1.8926216773	 0.6000949865	 1.7713972109	 0.120446
H	-2.1530027561	-0.2354953238	-0.5455414807	 0.107228
H	-1.3034980171	-1.7353706121	-0.1255426156	 0.099302
124.654	219.9459	246.1007	260.4233	347.2157	366.4881	377.6803	459.5698	488.2463	570.9054	621.1122	696.9021	731.2186	786.7021	853.5175	874.084	914.4025	924.8155	962.6659	980.2843	1027.1155	1034.2036	1095.0022	1134.7612	1139.7094	1162.1226	1194.8583	1225.1073	1248.6463	1289.3026	1307.7695	1333.8898	1354.8105	1370.1297	1377.566	1410.9493	1479.6277	1484.4998	1495.4491	1511.0563	1807.2303	3009.2984	3034.8213	3042.1312	3042.8272	3054.0045	3088.4225	3099.1778	3102.7457	3556.4513	3803.7527
OC12CNC1=NCCC2	O[C@@]12CN[C]1[N]CCC2	
InChI=1S/C6H10N2O/c9-6-2-1-3-7-5(6)8-4-6/h9H,1-4H2,(H,7,8)	InChI=1S/C6H10N2O/c9-6-2-1-3-7-5(6)8-4-6/h9H,1-4H2,(H,7,8)/t6-/m0/s1
