18
gdb 35996	3.18458	0.77941	0.68611	1.2051	85.18	-0.2358	0.0308	0.2666	1653.4861	0.145361	-364.708327	-364.698579	-364.697635	-364.745546	34.543	
C	 0.9168182403	-0.6334837471	 1.3871088774	-0.442495
C	 0.6525283	 0.28679044	 0.662965737	 0.31595
C	 0.3184045345	 1.4084130286	-0.2173429542	-0.491843
C	 1.4799406232	 2.2111458873	-0.6074505402	 0.058319
C	 2.4320432708	 2.8651668305	-0.9481684888	 0.076363
C	 3.6080137332	 3.6617570048	-1.3167059223	-0.280324
N	 4.4552136327	 4.1545705042	-0.2234229745	-0.074544
C	 3.820043549	 4.563929019	 1.0239611307	-0.217733
C	 4.6314164522	 3.3159433398	 0.9572854159	-0.220267
H	 1.1537193958	-1.447619618	 2.0262777988	 0.201972
H	-0.1771550013	 1.025193874	-1.1201833465	 0.16399
H	-0.4257188994	 2.0477712359	 0.2773580996	 0.161396
H	 4.2501719991	 3.0700681688	-1.9806989102	 0.137131
H	 3.285393367	 4.5361765831	-1.89531976	 0.135702
H	 4.2227140168	 5.466687967	 1.4744162398	 0.114392
H	 2.7438865411	 4.4373304322	 1.1182630821	 0.119205
H	 4.0832363142	 2.3779508918	 1.0085931432	 0.128424
H	 5.6407428507	 3.2874798583	 1.3578233721	 0.114362
9.1901	56.9072	93.3779	128.7852	230.6625	274.8797	320.344	359.6433	371.3674	376.3293	472.2654	611.9061	624.6052	651.289	752.699	785.9899	833.4774	873.9489	934.4368	944.3197	985.0651	1028.0818	1064.4568	1114.2508	1126.4776	1143.4753	1174.4608	1186.82	1230.5627	1288.958	1312.0621	1334.2121	1361.8405	1452.4672	1468.4006	1484.2055	1512.8964	2247.2633	2361.8984	3008.2072	3024.9853	3032.3955	3056.4727	3103.5509	3106.0906	3184.9887	3198.5504	3506.714
C#CCC#CCN1CC1	C#CCC#CCN1CC1	
InChI=1S/C8H9N/c1-2-3-4-5-6-9-7-8-9/h1H,3,6-8H2	InChI=1S/C8H9N/c1-2-3-4-5-6-9-7-8-9/h1H,3,6-8H2
