20
gdb 72433	2.56184	1.96328	1.67156	0.7348	77.16	-0.2226	0.0885	0.3111	929.4119	0.173442	-403.122656	-403.115642	-403.114698	-403.153418	29.969	
C	-0.0067708814	 1.4611540486	 0.1076483783	-0.481087
C	-0.0114279771	-0.0450423409	-0.0130247839	 0.399313
C	 0.6211843084	-0.717145034	-1.2545603229	-0.249092
C	 0.3968143506	-2.1214829074	-0.6563420994	-0.018112
C	 1.1426385363	-1.9406241688	 0.6638060479	-0.100288
O	 0.7679319472	-0.6092343404	 1.0673759579	-0.313018
N	-1.0959541279	-2.1263085166	-0.4892760813	-0.122279
C	-1.647594321	-1.8650831897	 0.8568671351	-0.262294
C	-1.3918154623	-0.7314877487	-0.0570189438	-0.044399
H	 1.0143101433	 1.84766622	 0.0511133371	 0.124522
H	-0.5969806667	 1.9131530551	-0.6951824744	 0.118007
H	-0.4359627783	 1.7694026234	 1.0655235818	 0.130738
H	 0.0492510289	-0.5577091049	-2.1707745513	 0.108732
H	 1.6708801754	-0.4514485504	-1.4078268058	 0.098607
H	 0.7136676245	-2.9799300005	-1.2489117435	 0.07928
H	 0.8548975817	-2.6624598735	 1.4358020903	 0.104674
H	 2.2310286199	-2.0037451172	 0.5263118734	 0.097052
H	-2.6638622671	-2.2302606627	 0.9788520439	 0.113281
H	-1.0271933783	-1.9514473865	 1.7404578792	 0.13418
H	-2.205565446	-0.213558075	-0.5618767385	 0.082184
210.9384	251.2866	276.3909	325.937	384.3893	435.3624	488.0271	564.8373	593.5128	621.5774	723.0309	770.9136	807.6058	832.7091	863.9042	889.9798	912.0104	945.2642	973.7987	980.5663	1013.7423	1030.4074	1061.246	1090.8976	1106.1802	1122.7031	1141.7534	1153.4298	1192.1977	1221.5595	1225.2657	1252.2492	1277.7707	1293.0543	1311.9812	1369.68	1384.7344	1415.7392	1482.1763	1487.0552	1496.6966	1500.2353	1533.9389	3005.3285	3043.7352	3058.5404	3065.6316	3112.8547	3115.7004	3116.9414	3120.5777	3126.0124	3129.5422	3220.6379
CC12CC(CO1)N1CC21	C[C@@]12C[C@@H](CO1)N1C[C@@H]21	
InChI=1S/C7H11NO/c1-7-2-5(4-9-7)8-3-6(7)8/h5-6H,2-4H2,1H3	InChI=1S/C7H11NO/c1-7-2-5(4-9-7)8-3-6(7)8/h5-6H,2-4H2,1H3/t5-,6-,7-,8?/m0/s1
