20
gdb 35126	4.43777	0.8346	0.82677	0.9961	86.64	-0.2333	0.0525	0.2858	1472.1065	0.170107	-365.93373	-365.924845	-365.923901	-365.967864	33.785	
C	-0.1709260251	-1.2256101945	-0.1672877928	-0.49404
C	-0.1014340101	-0.0281455007	-0.0735137446	 0.345051
C	-0.0062476517	 1.4142751284	 0.0508921354	-0.183512
C	-0.0757301963	 1.942917238	 1.5256718075	-0.250209
C	 1.4696003117	 2.0423637353	 1.5334602265	 0.089911
C	 1.4570439539	 1.9745263672	-0.0135496479	-0.250212
N	 2.0291996613	 3.2448924378	 2.1154151785	-0.065599
C	 2.3955775036	 3.1682578575	 3.5285567568	-0.225133
C	 3.44518591	 3.1898948734	 2.4746247013	-0.225135
H	-0.2400966656	-2.2810857009	-0.2578225425	 0.194174
H	-0.7085559608	 1.8900798908	-0.6387045767	 0.103098
H	-0.5211531966	 2.9399653564	 1.5606524556	 0.112659
H	-0.5543336519	 1.2968438503	 2.2627367904	 0.10806
H	 1.9147296023	 1.1266865292	 1.9579183831	 0.062682
H	 2.2051030892	 1.3537493897	-0.5083025408	 0.10806
H	 1.4695812597	 2.9810176539	-0.4384589156	 0.112659
H	 2.1863936651	 4.0556855602	 4.1186497233	 0.117072
H	 2.2318306975	 2.2256580062	 4.04851869	 0.111671
H	 3.9836785593	 2.261773666	 2.2894633427	 0.111671
H	 4.0160321847	 4.0934036357	 2.2814848697	 0.117072
54.0508	83.9974	135.0103	206.7728	229.2579	292.0029	366.782	462.0586	497.006	532.555	614.564	618.9707	636.5447	796.4087	799.2723	819.2829	871.6934	899.8443	923.7787	928.2856	990.7506	999.1796	1045.1423	1083.6742	1101.6044	1110.9537	1117.8875	1118.8311	1171.9111	1176.7047	1185.8924	1227.29	1250.5352	1267.7029	1291.7192	1322.9171	1342.7775	1390.6067	1465.4863	1488.4775	1491.7722	1519.5883	2230.6793	2953.3812	3063.1087	3069.8914	3076.9031	3095.3165	3099.8334	3135.5001	3136.8141	3178.482	3192.8475	3505.9989
C#CC1CC(C1)N1CC1	C#C[C@H]1C[C@@H](C1)N1CC1	
InChI=1S/C8H11N/c1-2-7-5-8(6-7)9-3-4-9/h1,7-8H,3-6H2	InChI=1S/C8H11N/c1-2-7-5-8(6-7)9-3-4-9/h1,7-8H,3-6H2/t7-,8-
