16
gdb 36065	4.9213	1.19816	1.12486	1.4744	75.91	-0.2173	0.0425	0.2598	1083.937	0.122985	-363.450385	-363.442959	-363.442014	-363.482606	28.961	
C	-0.8403670774	-0.1829548841	-1.1562040918	-0.449195
C	-0.2086867529	 0.2565594223	-0.2333321429	 0.29742
C	 0.582017095	 0.8117606172	 0.859445178	-0.489663
C	 1.696818139	 1.6796941809	 0.3578201164	 0.398884
C	 2.7185161343	 1.534200373	-0.7400054172	-0.159559
C	 3.7132787198	 2.2855225718	 0.1785433726	-0.052139
C	 2.8151236394	 3.4679963382	 0.2282549708	-0.052129
C	 1.7872351125	 2.7602128271	-0.6883978788	-0.159539
N	 2.6890907533	 2.3946541852	 1.280346911	-0.222671
H	-1.4100493361	-0.5820590862	-1.9585021749	 0.199522
H	-0.0600335882	 1.4004877635	 1.5287904718	 0.143462
H	 1.0028588356	 0.0015316349	 1.4704012772	 0.143432
H	 2.8218680942	 0.792514874	-1.5184155971	 0.103759
H	 4.7705691548	 2.1713411144	 0.385881793	 0.097327
H	 2.9981706207	 4.5048122783	 0.4839820727	 0.097329
H	 1.069812676	 3.0990724894	-1.4213237208	 0.10376
63.7825	101.9855	248.7042	285.3175	343.7513	428.548	623.5761	641.3017	656.8224	661.9059	761.4442	768.9629	802.2601	840.9983	851.6323	863.0356	869.6387	901.7577	957.5253	964.3477	984.987	1007.9709	1025.1461	1050.1146	1070.4539	1149.837	1162.3308	1210.0448	1218.921	1278.6808	1317.086	1339.2657	1444.3974	1472.8681	2241.6861	3010.6351	3040.1364	3174.5605	3188.7701	3221.9355	3231.315	3505.682
C#CCC12C3C4C(C13)N24	C#CC[C@@]12[C@@H]3[C@H]4[C@@H]([C@H]13)N24	
InChI=1S/C8H7N/c1-2-3-8-4-5(8)7-6(4)9(7)8/h1,4-7H,3H2	InChI=1S/C8H7N/c1-2-3-8-4-5(8)7-6(4)9(7)8/h1,4-7H,3H2/t4-,5+,6-,7+,8+,9?
