21
gdb 77723	2.63878	1.57408	1.4627	1.7323	81.21	-0.2211	0.0678	0.2889	1047.4551	0.184331	-387.052812	-387.044947	-387.044003	-387.084585	31.914	
C	-0.1678502586	 1.3583306153	 0.0706238731	-0.427504
C	 0.0931546732	-0.1221750863	-0.0874189114	-0.103707
C	 0.7891715791	-0.7388804754	-1.2968870925	 0.147107
C	 1.9865939563	 0.1238553412	-1.7097228319	-0.152593
O	 2.5029205538	 0.1654795266	-0.3469759682	-0.328573
C	 1.4534251043	-0.7314734329	 0.062609439	 0.379375
C	 1.6916632225	-2.1456918965	 0.5307659494	-0.297637
C	 0.6911852521	-2.9710854939	-0.3378932772	-0.218802
C	 0.5202616709	-2.1822838706	-1.6783025167	-0.293596
H	 0.7265051479	 1.9423771931	-0.1566004989	 0.137915
H	-0.9792952089	 1.6900945596	-0.5854015375	 0.114946
H	-0.4547571968	 1.5865434558	 1.1025089548	 0.118164
H	-0.7057358812	-0.7555132374	 0.2906969142	 0.087925
H	 2.683198547	-0.4037818227	-2.37259283	 0.103625
H	 1.7960360268	 1.1282068646	-2.1058719431	 0.103116
H	 2.7263468748	-2.4117693222	 0.2886852638	 0.114576
H	 1.5460913957	-2.3172678372	 1.6020227184	 0.102341
H	 1.0342093207	-3.996884696	-0.4995255675	 0.102182
H	-0.2723046862	-3.0460695625	 0.1770015342	 0.109301
H	-0.4593065187	-2.366763342	-2.1319106663	 0.10032
H	 1.2748584053	-2.5064889106	-2.4048925057	 0.101519
175.1269	201.913	219.7667	247.4672	253.0912	321.9131	381.1454	482.5779	573.5648	612.4389	640.2934	735.3337	743.7819	814.7392	845.5462	877.123	901.5299	942.9264	971.4474	975.8595	996.0071	1007.8089	1042.6466	1068.5109	1114.1941	1123.0726	1155.8693	1189.9194	1203.0801	1223.1519	1242.1597	1262.0036	1288.2525	1308.0111	1331.4526	1341.3991	1351.7616	1410.3935	1461.4462	1488.7355	1491.0471	1493.2113	1502.262	1509.9459	1520.1699	3016.0253	3033.0472	3038.0158	3044.3703	3050.3582	3063.9559	3071.9235	3083.3255	3095.6243	3100.2342	3125.7074	3145.1499
CC1C23COC12CCC3	C[C@H]1[C@@]23CO[C@@]12CCC3	
InChI=1S/C8H12O/c1-6-7-3-2-4-8(6,7)9-5-7/h6H,2-5H2,1H3	InChI=1S/C8H12O/c1-6-7-3-2-4-8(6,7)9-5-7/h6H,2-5H2,1H3/t6-,7+,8-/m0/s1
