13
gdb 16791	3.86302	2.037	1.46225	1.7793	58.3	-0.255	-0.0473	0.2076	800.5173	0.09538	-398.618156	-398.61166	-398.610715	-398.649402	24.135	
O	 0.0342807251	 0.0091175069	-0.1335069906	-0.306118
C	 0.0066555547	 1.2051744937	-0.0122967459	 0.413727
C	-1.2299990538	 2.0998566648	 0.0472671958	-0.467557
C	-0.6964125575	 3.5315737034	 0.0067711612	 0.388457
O	-1.3347361036	 4.541371084	 0.0402834159	-0.288632
N	 0.7506953858	 3.5271824875	-0.0852784693	-0.127324
C	 1.3445723678	 3.0304657049	 1.1685328592	-0.249008
C	 1.202626303	 2.1181702138	-0.0004876145	-0.142888
H	-1.87332073	 1.9055830261	-0.8168107615	 0.180038
H	-1.8420404246	 1.9268301839	 0.9372602355	 0.171372
H	 2.323605483	 3.4362441728	 1.4007475818	 0.153308
H	 0.6931837894	 2.8872605562	 2.0274455621	 0.141274
H	 2.0753749206	 1.833723692	-0.5776654996	 0.133353
50.3879	189.3274	283.408	390.7263	483.0351	508.8771	568.1198	598.5235	662.0764	750.401	798.1221	851.4613	905.0487	914.3589	974.4721	1066.521	1086.913	1117.8362	1133.7309	1156.0064	1218.8124	1231.2277	1257.3136	1335.4885	1404.7125	1509.7643	1843.7922	1886.5003	3070.0279	3110.2521	3114.9095	3184.9675	3209.7276
O=C1CC(=O)N2CC12	O=C1CC(=O)N2C[C@@H]12	
InChI=1S/C5H5NO2/c7-4-1-5(8)6-2-3(4)6/h3H,1-2H2	InChI=1S/C5H5NO2/c7-4-1-5(8)6-2-3(4)6/h3H,1-2H2/t3-,6?/m0/s1
