16
gdb 48680	3.53284	1.2587	1.08101	2.2867	69.8	-0.2612	-0.0417	0.2195	1100.4949	0.123967	-437.904461	-437.896626	-437.895681	-437.937425	28.978	
O	-0.4838325259	 0.7219223131	 0.8106606679	-0.253455
C	 0.1030802465	 1.1195512269	-0.1632549702	 0.106173
C	 1.3870293042	 1.8786042681	-0.1128514244	 0.211889
C	 2.3514470024	 1.7161765925	-1.2457984054	-0.281469
N	 1.527094109	 2.9223995824	-1.1620365402	-0.152697
C	 2.1928597648	 4.0478961062	-0.5504480333	 0.379464
O	 2.6852550945	 4.9369285131	-1.1816956405	-0.29565
C	 2.1346323966	 3.9016003832	 0.9731484674	-0.319407
C	 1.8996819988	 2.4002942272	 1.23108813	-0.330159
H	-0.2780623473	 0.9492960038	-1.1936110542	 0.0928
H	 3.4091406717	 1.7949826665	-1.0048464274	 0.140428
H	 2.1201521633	 1.0602249563	-2.0810577092	 0.139356
H	 3.0394782002	 4.3147430861	 1.4213844821	 0.142584
H	 1.2921634272	 4.5037032504	 1.3327375395	 0.151195
H	 1.1484916969	 2.2098981285	 1.9986843131	 0.146896
H	 2.8176995471	 1.8900769855	 1.5346485347	 0.12205
69.5244	87.4965	187.5994	222.383	334.4391	360.7325	478.2208	483.4297	528.7473	652.4931	685.3671	758.7304	784.8908	807.5264	837.1403	923.7646	980.8127	998.6136	1013.2882	1055.0426	1088.9472	1119.0188	1141.3683	1168.3577	1234.183	1276.9003	1295.6816	1320.2129	1351.4241	1424.9314	1458.8607	1499.4397	1511.9465	1823.5099	1869.1258	2903.3783	3053.9512	3071.3717	3103.2334	3123.2894	3133.407	3192.4914
O=CC12CN1C(=O)CC2	O=C[C@@]12CN1C(=O)CC2	
InChI=1S/C6H7NO2/c8-4-6-2-1-5(9)7(6)3-6/h4H,1-3H2	InChI=1S/C6H7NO2/c8-4-6-2-1-5(9)7(6)3-6/h4H,1-3H2/t6-,7?/m1/s1
