17
gdb 74735	2.34007	2.17379	1.50219	0.9698	73.43	-0.2343	-0.0121	0.2222	923.6139	0.134553	-421.666263	-421.658931	-421.657987	-421.697636	29.522	
C	 0.0586009681	 1.4308690503	 0.0858654009	-0.524356
C	 0.0087951433	-0.052061778	-0.0297380552	 0.332348
C	 0.0279792133	-0.8698015311	-1.0856210633	-0.173983
C	-0.0340300159	-2.2283250802	-0.4237159003	-0.07044
O	 0.9707544975	-2.0842763633	 0.6975080797	-0.355263
C	-0.0499212571	-1.0529612029	 1.1442058845	 0.217745
C	-1.0613269425	-0.6519086275	 2.2494164915	-0.193083
O	-2.1182796423	-1.1208238341	 1.3128955761	-0.313638
C	-1.0793459886	-2.0356294738	 0.7683866781	 0.119367
H	 0.8981652078	 1.7565766115	 0.7122665701	 0.13355
H	 0.1695808846	 1.8954227769	-0.8974694434	 0.13196
H	-0.8553925929	 1.8301616973	 0.5415660062	 0.14002
H	 0.0830416668	-0.6604936814	-2.1435674131	 0.113109
H	 0.0889757931	-3.154387976	-0.9845764893	 0.090636
H	-1.0395460188	-1.2626092804	 3.1570891838	 0.126104
H	-1.1780588762	 0.4091681462	 2.4835990946	 0.122816
H	-1.1059804002	-2.9511104134	 1.3654772192	 0.103109
139.9322	177.3237	242.8787	302.8114	338.3683	434.1447	499.6102	550.1436	572.6413	638.3723	694.7904	747.1192	778.2875	803.0426	834.1688	845.9595	880.1498	925.7042	945.6073	1010.0469	1023.7394	1060.8849	1098.6093	1102.9057	1145.2844	1172.7231	1219.8664	1248.5548	1264.5016	1274.8376	1310.6066	1379.8589	1412.2358	1477.9582	1483.5141	1504.0234	1691.6385	3022.6178	3050.2138	3071.9236	3072.9855	3112.8885	3120.9833	3133.8952	3243.4523
CC1=CC2OC11COC21	CC1=C[C@H]2O[C@]31CO[C@@H]23	
InChI=1S/C7H8O2/c1-4-2-5-6-7(4,9-5)3-8-6/h2,5-6H,3H2,1H3	InChI=1S/C7H8O2/c1-4-2-5-6-7(4,9-5)3-8-6/h2,5-6H,3H2,1H3/t5-,6+,7+/m1/s1
