22
gdb 117356	3.6479	0.76803	0.67605	2.1545	84.58	-0.2595	0.0328	0.2923	1756.4812	0.192947	-404.346537	-404.336372	-404.335428	-404.382955	36.665	
C	-0.3772643597	 1.3678349095	 0.5593691938	-0.380204
C	-0.4602407694	-0.1600487379	 0.5566207861	-0.164027
C	-1.1899157961	-0.7060134681	-0.6839779401	-0.236678
C	-1.2837142914	-2.2079781854	-0.6949243958	 0.38524
N	-0.6681201002	-2.9217891037	-1.5417415866	-0.524206
O	-2.0932821116	-2.6333863051	 0.3283741641	-0.247548
C	-2.21719508	-4.0172770249	 0.5253820433	 0.117296
C	-3.4839183808	-4.4641420443	 1.1778279287	-0.292838
C	-3.2330245422	-4.7822684007	-0.281435601	-0.283307
H	 0.1457143688	 1.7341199066	 1.4482031247	 0.112658
H	 0.1605636277	 1.7384010217	-0.3202398197	 0.117096
H	-1.3757999794	 1.8191387144	 0.5504693701	 0.114074
H	 0.5496504231	-0.5866636399	 0.5905211151	 0.105656
H	-0.9776255478	-0.5090031131	 1.4565709635	 0.110493
H	-2.2057187143	-0.2919940464	-0.7145555366	 0.109358
H	-0.672975203	-0.4032715461	-1.5973028407	 0.123048
H	-0.8495197006	-3.9163326812	-1.4077133887	 0.218873
H	-1.2833381295	-4.5049695864	 0.7950555323	 0.107672
H	-3.4301314631	-5.2644908836	 1.9066060911	 0.121694
H	-4.210693968	-3.6914860426	 1.4000777462	 0.131515
H	-3.7968920895	-4.2189405115	-1.0158148177	 0.132619
H	-3.0061446731	-5.8038504113	-0.5658660021	 0.121516
46.1932	71.5713	83.1945	94.4067	174.5372	204.975	246.352	301.6226	378.0045	417.757	445.4719	601.	687.9968	750.6341	759.755	812.201	827.9767	877.0457	889.2073	900.8545	919.8124	988.4411	999.5718	1046.8659	1061.2838	1074.4393	1085.9975	1116.3068	1130.9157	1138.1314	1190.7304	1194.8041	1238.1609	1256.4312	1297.7243	1321.7825	1342.2633	1382.2745	1402.8814	1413.1945	1455.2147	1472.195	1494.2773	1496.3542	1499.3815	1510.4914	1736.2164	3028.9541	3029.4389	3040.3826	3070.1831	3097.4706	3103.2286	3116.9801	3131.4938	3140.1808	3145.5417	3224.8109	3238.7202	3489.8114
CCCC(=N)OC1CC1	CCC[C]([NH])OC1CC1	
InChI=1S/C7H13NO/c1-2-3-7(8)9-6-4-5-6/h6,8H,2-5H2,1H3	InChI=1S/C7H13NO/c1-2-3-7(8)9-6-4-5-6/h6,8H,2-5H2,1H3
