15
gdb 9214	6.48859	0.98313	0.88474	6.8379	60.89	-0.2631	0.001	0.2641	1253.0873	0.117218	-436.982346	-436.973394	-436.97245	-437.017232	29.584	
C	 0.1607967986	 1.3340781806	-0.1381307661	-0.336147
N	-0.162821151	-0.0790020375	-0.2284401712	-0.312051
C	 0.5920574803	-0.9586351983	-0.9354808587	 0.419478
O	 1.5918171319	-0.6620906714	-1.5619493996	-0.359295
C	 0.1283617889	-2.4205587892	-0.8493015319	-0.217306
O	 0.3589930297	-3.0941670416	-2.0723490988	-0.165796
C	 1.6407356928	-3.4480956763	-2.3466833772	 0.192263
O	 1.9467879503	-3.9425904469	-3.3869388157	-0.274762
H	 1.0999712459	 1.4873122958	-0.6701382085	 0.178536
H	-0.6165171826	 1.9494972603	-0.6032529707	 0.135814
H	 0.2805967842	 1.6444745633	 0.9049591872	 0.132514
H	-1.0072899878	-0.407788212	 0.2101894395	 0.251787
H	 0.6714596524	-2.9006465261	-0.022936429	 0.137617
H	-0.9418110971	-2.509576928	-0.6470987876	 0.12817
H	 2.3293507236	-3.2584301427	-1.5058012915	 0.089178
39.605	80.8679	83.3731	151.7886	192.4339	247.4585	307.6803	352.5856	409.0061	454.4635	599.5176	655.5983	760.3046	902.622	980.3126	1021.6122	1065.1487	1074.7991	1153.9179	1163.1225	1172.8111	1257.2752	1300.4079	1397.8056	1432.24	1442.323	1480.3024	1494.2631	1499.4071	1568.3892	1792.598	1874.0488	2994.6803	3016.0182	3035.7436	3091.6547	3102.5306	3159.9289	3643.9684
CNC(=O)COC=O	CNC(=O)COC=O	
InChI=1S/C4H7NO3/c1-5-4(7)2-8-3-6/h3H,2H2,1H3,(H,5,7)	InChI=1S/C4H7NO3/c1-5-4(7)2-8-3-6/h3H,2H2,1H3,(H,5,7)
