12
gdb 5672	5.48286	2.3126	1.62655	6.9303	60.72	-0.2022	0.0194	0.2216	706.8191	0.088262	-373.736699	-373.730994	-373.73005	-373.766269	21.92	
N	-0.0573304123	 1.3691206562	 0.0104103384	-0.413855
C	 1.2888320416	 1.7453655	-0.0007461024	-0.009145
N	 2.1227101762	 0.7345498048	-0.0144045472	-0.325444
C	 1.3019671889	-0.3705549931	-0.0122712707	 0.298746
C	-0.0241158972	 0.0033791262	 0.0027375112	 0.401952
N	-0.7660066151	-1.143795151	 0.0038492969	-0.413856
C	 0.1852456814	-2.1678743426	-0.0109651922	-0.009145
N	 1.4243975002	-1.7416196266	-0.0208169333	-0.325444
H	-0.8475114016	 1.9895978722	 0.0216114378	 0.267855
H	 1.5612150947	 2.7901062898	 0.0021984193	 0.130241
H	-1.7639584309	-1.2600476041	 0.0128443649	 0.267855
H	-0.1283552758	-3.2009923918	-0.0134291427	 0.130241
169.7816	332.0004	333.2494	394.5333	499.3832	627.1236	655.8672	721.0439	750.8301	758.4229	779.0017	803.6364	933.0618	979.0167	1041.9706	1062.9086	1156.1845	1256.6311	1321.5391	1340.5595	1375.3177	1406.9727	1498.3975	1500.6134	1546.0471	1627.8063	3254.7394	3255.1683	3680.0825	3680.5929
N1C=NC2=C1NC=N2	[nH]1cnc2c1[nH]cn2	
InChI=1S/C4H4N4/c1-5-3-4(6-1)8-2-7-3/h1-2H,(H,5,6)(H,7,8)	InChI=1S/C4H4N4/c1-5-3-4(6-1)8-2-7-3/h1-2H,(H,5,6)(H,7,8)
