18
gdb 14834	2.98278	1.67465	1.13748	1.7559	71.89	-0.2246	0.026	0.2506	1073.5854	0.152728	-381.09313	-381.084035	-381.083091	-381.127835	31.261	
C	-0.223814043	 1.3971799521	-0.3385349151	-0.24707
O	 0.1840099067	 0.0887825253	 0.0321749388	-0.24225
C	 0.7510649883	-0.6249954704	-1.0256411543	 0.014512
C	 1.083745353	-2.0951492206	-0.6484859132	-0.192649
N	 0.2828867014	-2.5175542433	-1.8131613227	-0.35225
C	-0.2149074109	-1.2352560607	-2.0572721175	 0.403932
N	-1.1083971634	-0.7366213736	-2.7961199736	-0.324895
C	-1.8992964596	-1.6586504217	-3.6013115099	-0.339516
H	 0.6343909588	 1.9975920033	-0.6785645623	 0.102358
H	-0.9742539915	 1.3694570142	-1.136255902	 0.148157
H	-0.6484409727	 1.8597483401	 0.5552790836	 0.122838
H	 1.5855985	-0.0728429466	-1.483180839	 0.084463
H	 2.1335699572	-2.3969314834	-0.6919311028	 0.110869
H	 0.6525940065	-2.3574098513	 0.3224707414	 0.122071
H	-0.2345775781	-3.3812846196	-1.8842542395	 0.245084
H	-2.6850039378	-2.1404307312	-3.0013634724	 0.114714
H	-2.396315109	-1.1063435625	-4.4032845885	 0.124472
H	-1.2948208259	-2.4547903301	-4.0621643611	 0.10516
31.9084	103.2173	127.6607	152.1177	200.2641	211.7239	261.8605	347.227	424.9565	445.8125	541.2574	715.0143	756.8188	836.3286	936.77	996.1574	1028.0418	1052.1028	1083.3508	1109.5731	1151.443	1162.1833	1174.9152	1186.6082	1189.4416	1243.406	1245.4477	1303.2545	1352.9696	1391.2963	1435.2159	1480.2709	1484.2316	1489.4488	1505.4435	1515.1534	1517.5154	1808.7495	2978.5511	2984.8451	2995.6636	3030.2453	3049.4097	3071.2465	3096.298	3104.4156	3125.5083	3604.5359
COC1CNC1=NC	CO[C@H]1CNC1=NC	
InChI=1S/C5H10N2O/c1-6-5-4(8-2)3-7-5/h4H,3H2,1-2H3,(H,6,7)	InChI=1S/C5H10N2O/c1-6-5-4(8-2)3-7-5/h4H,3H2,1-2H3,(H,6,7)/t4-/m0/s1
