16
gdb 69198	1.95909	1.84341	1.20962	2.6512	70.39	-0.2534	-0.0431	0.2103	1055.1127	0.122141	-437.877303	-437.868834	-437.86789	-437.910703	30.654	
C	 0.1367518731	 1.5615260749	-0.0495703606	-0.494768
C	 0.027598236	 0.0710264167	-0.1348406237	 0.348331
C	-0.9415615154	-0.7381286825	 0.6104714746	-0.280148
N	 0.4987382771	-0.839921551	 1.0312564521	-0.213445
C	 1.1134512867	-1.7018986886	 0.0548774775	 0.398809
O	 1.7604406931	-2.6878203117	 0.2000152206	-0.28711
C	 0.753100426	-0.7941379015	-1.1649398769	-0.313881
C	 0.0102649463	-1.3892155688	-2.3318174819	 0.141226
O	-1.1442890495	-1.1588434524	-2.5899058681	-0.245487
H	 1.1739535646	 1.8909543304	-0.1686734221	 0.131404
H	-0.4620632863	 2.0286519109	-0.8388802951	 0.145053
H	-0.2285189129	 1.9226509136	 0.91534522	 0.140518
H	-1.5389476534	-0.2416411917	 1.3679060559	 0.143495
H	-1.4156515489	-1.6026025963	 0.1569641331	 0.149717
H	 1.6900635628	-0.3498227987	-1.5233864135	 0.134872
H	 0.6154960607	-2.0906527431	-2.9457801019	 0.101414
79.6992	118.1887	153.8384	192.8537	213.7781	273.7225	360.4025	398.5462	512.3119	598.7713	629.5356	676.8245	691.0109	765.3687	825.9289	919.4491	948.2954	997.8089	1008.0401	1026.1046	1069.3068	1086.632	1127.4531	1142.8624	1163.3663	1260.7293	1330.9547	1395.6299	1420.1286	1431.1191	1483.2058	1491.6491	1518.5377	1813.6724	1917.3377	2902.5019	3037.567	3051.5552	3102.8275	3121.7723	3132.8312	3221.6281
CC12CN1C(=O)C2C=O	C[C@]12CN1C(=O)[C@H]2C=O	
InChI=1S/C6H7NO2/c1-6-3-7(6)5(9)4(6)2-8/h2,4H,3H2,1H3	InChI=1S/C6H7NO2/c1-6-3-7(6)5(9)4(6)2-8/h2,4H,3H2,1H3/t4-,6-,7?/m1/s1
