23
gdb 95750	2.39178	1.30904	1.07473	0.3677	81.32	-0.2412	0.0709	0.3121	1253.1677	0.205637	-425.440066	-425.430564	-425.42962	-425.473416	37.432	
C	 0.0362635172	 1.5159506624	 0.0180696748	-0.424404
C	-0.0454047028	-0.0174653682	 0.0128513442	 0.239629
C	-1.5204891303	-0.4563561386	-0.0437849272	-0.412918
C	 0.7002791153	-0.5596818963	-1.2231325709	-0.083842
O	 0.787265313	-1.9755320379	-1.2300064515	-0.248449
C	 1.5328765847	-2.4594163642	-0.1290243212	-0.101053
C	 0.8729381055	-2.0897773159	 1.206475282	 0.079937
O	 1.7035411564	-2.4493116162	 2.3039330921	-0.429332
C	 0.6602237645	-0.5783694745	 1.2704028678	-0.214834
H	 1.0753028768	 1.8616405496	 0.051696814	 0.111638
H	-0.4322426687	 1.940674885	-0.8769651444	 0.110205
H	-0.480628593	 1.9299856292	 0.8905539393	 0.114768
H	-2.035260126	 0.033188135	-0.8780758455	 0.10788
H	-1.6123955816	-1.5353894308	-0.1891973317	 0.125821
H	-2.0473828146	-0.1858801994	 0.877597012	 0.108061
H	 0.1748187287	-0.2842400452	-2.1433896492	 0.100737
H	 1.7132624209	-0.1230177908	-1.2652161043	 0.080789
H	 1.5985670901	-3.546539157	-0.2500954279	 0.092019
H	 2.5582048433	-2.0511759104	-0.1351690667	 0.090804
H	-0.0967135138	-2.605474029	 1.2736773631	 0.072589
H	 1.7544903426	-3.4099255994	 2.3396380801	 0.282887
H	 1.651425614	-0.1158269323	 1.3686080668	 0.099378
H	 0.1004722878	-0.319863725	 2.1763990143	 0.097691
141.2993	148.9042	214.9442	235.1558	274.3454	285.0811	287.7351	318.8047	349.8011	394.473	422.6323	456.5857	473.2085	494.3745	590.6415	783.4397	882.7025	895.6666	922.8077	934.7496	949.6889	974.0961	988.5142	1039.6865	1066.5176	1087.4097	1097.739	1125.7424	1181.7038	1205.941	1228.24	1267.1371	1281.0049	1314.4449	1332.5757	1335.376	1348.8334	1390.2525	1397.4019	1404.973	1426.4404	1439.915	1479.4839	1485.368	1489.0651	1493.4012	1501.4692	1506.6918	1515.4561	2954.6783	2963.9903	2988.5213	3019.566	3023.9583	3032.6419	3062.9601	3067.1271	3073.1165	3089.8104	3093.9838	3095.7069	3121.0826	3814.959
CC1(C)COCC(O)C1	CC1(C)COC[C@@H](O)C1	
InChI=1S/C7H14O2/c1-7(2)3-6(8)4-9-5-7/h6,8H,3-5H2,1-2H3	InChI=1S/C7H14O2/c1-7(2)3-6(8)4-9-5-7/h6,8H,3-5H2,1-2H3/t6-/m0/s1
