22
gdb 17623	3.31436	1.24343	1.16419	1.5296	78.07	-0.2578	0.0728	0.3305	1186.6919	0.198556	-350.196543	-350.186753	-350.185809	-350.231034	36.164	
C	-0.048660479	 1.5087704637	 0.2051050479	-0.408692
C	 0.0129549936	-0.0065644875	-0.0372375647	 0.045378
C	-1.3929454085	-0.61972384	 0.0059812729	-0.396502
C	 0.7120017277	-0.3674696936	-1.3699526498	 0.123236
O	 0.024992283	 0.1945952265	-2.4911535196	-0.443465
C	 2.1885825537	-0.0330421296	-1.3923225613	-0.010435
C	 3.200011394	-1.0354288822	-0.8921381134	-0.266287
C	 3.0951657756	-0.7386932227	-2.3666468289	-0.27184
H	 0.9446191891	 1.9677561316	 0.2373636685	 0.111059
H	-0.6310151743	 2.0052971501	-0.5791520242	 0.112435
H	-0.5387007351	 1.7262477441	 1.1590918332	 0.115007
H	 0.6161495763	-0.4580915076	 0.7624153279	 0.072107
H	-1.9948111241	-0.2478044557	-0.8286687401	 0.129326
H	-1.3527306161	-1.7116543909	-0.072186315	 0.105729
H	-1.9064474908	-0.3692894053	 0.9398849311	 0.103034
H	 0.6137972936	-1.4523439627	-1.5107682454	 0.072084
H	 0.2929720171	 1.1156964662	-2.5687885667	 0.278599
H	 2.4220329303	 1.011351749	-1.1964818727	 0.077183
H	 4.0638457866	-0.6688051078	-0.3488740455	 0.110572
H	 2.8309194625	-1.99332215	-0.5397661741	 0.112363
H	 2.6480323127	-1.4908206754	-3.0079012628	 0.119696
H	 3.891381402	-0.1714407701	-2.8357908973	 0.109415
58.657	79.4788	164.024	198.9655	223.7624	240.3355	264.1706	280.4837	304.8517	378.6181	445.8889	480.5022	617.5495	760.7856	805.7437	835.2305	868.2956	921.8828	931.0683	945.2561	966.4574	996.3787	1020.9761	1057.8286	1077.3803	1101.798	1111.5659	1134.0739	1179.2884	1195.9023	1202.7262	1227.5163	1278.8522	1304.9415	1345.4336	1364.4963	1395.7799	1405.9819	1418.0007	1435.6517	1471.1258	1488.2682	1496.7027	1505.6362	1507.1306	1515.8802	3010.4832	3018.2073	3030.2501	3034.502	3095.4323	3098.8004	3101.4092	3113.1657	3127.5773	3129.9248	3135.8519	3207.6316	3222.8558	3818.4747
CC(C)C(O)C1CC1	CC(C)[C@@H](O)C1CC1	
InChI=1S/C7H14O/c1-5(2)7(8)6-3-4-6/h5-8H,3-4H2,1-2H3	InChI=1S/C7H14O/c1-5(2)7(8)6-3-4-6/h5-8H,3-4H2,1-2H3/t7-/m1/s1
