19
gdb 35811	3.00409	1.44786	1.12783	4.3914	78.58	-0.2311	0.0246	0.2558	1102.766	0.162123	-382.072129	-382.064368	-382.063424	-382.104685	29.872	
N	-0.1364974962	-1.1224052808	-0.2365836689	-0.327679
C	-0.0798358373	 0.0242568177	-0.1051755958	 0.285278
C	-0.0247201842	 1.4736457256	 0.084058245	-0.12597
C	-0.5752282783	 1.9505254099	 1.4565008221	-0.225727
C	 0.0398216836	 3.3572192379	 1.56750244	-0.248344
C	 1.389094379	 3.2529408012	 0.8228411678	 0.039829
C	 2.6015686813	 2.6842257639	 1.6003615543	-0.248092
C	 2.3784676741	 1.3562784774	 0.8380349869	-0.173054
N	 1.3421149344	 2.0072698333	-0.0231030053	-0.099867
H	-0.6255583323	 1.9289597705	-0.7151953132	 0.127021
H	-1.6667058971	 1.9460055637	 1.4945530585	 0.118278
H	-0.2121233186	 1.2913194527	 2.2505526213	 0.122481
H	-0.6051910906	 4.088999464	 1.0696486059	 0.109767
H	 0.1620877951	 3.6834844938	 2.6037416146	 0.111723
H	 1.5933515842	 4.1567512272	 0.2419698915	 0.082502
H	 3.5468968612	 3.1811177542	 1.3765398747	 0.114175
H	 2.4808556556	 2.6334281903	 2.6849704477	 0.105949
H	 3.2232648385	 0.9778862219	 0.2565582131	 0.116585
H	 1.9988267378	 0.5375439056	 1.4598481596	 0.115146
84.1753	124.712	151.056	240.1106	350.0087	362.6625	496.3154	529.7084	578.511	632.4123	723.3702	769.9194	806.4374	836.4513	903.5752	909.5328	958.9319	967.6325	981.142	1015.5235	1042.809	1072.142	1093.5348	1142.3516	1170.8436	1185.8911	1203.3495	1222.8634	1261.392	1276.6852	1295.4897	1318.7053	1326.9782	1330.6904	1361.6784	1366.3113	1481.6365	1488.6018	1496.0819	1521.6935	2361.1739	3012.5171	3035.738	3044.896	3061.4786	3062.8027	3072.2626	3086.2719	3098.9089	3118.0162	3127.6407
N#CC1CCC2CCN12	N#C[C@H]1CC[C@H]2CCN12	
InChI=1S/C7H10N2/c8-5-7-2-1-6-3-4-9(6)7/h6-7H,1-4H2	InChI=1S/C7H10N2/c8-5-7-2-1-6-3-4-9(6)7/h6-7H,1-4H2/t6-,7+/m0/s1
