20
gdb 108537	2.81826	1.73323	1.29676	1.8403	78.51	-0.2256	0.0873	0.3129	1033.3344	0.172354	-403.079577	-403.071876	-403.070932	-403.111717	30.517	
C	-0.1350872971	 1.3479020556	-0.0010334533	-0.260124
O	 0.1648981873	-0.0344824818	 0.0379940662	-0.30564
C	 0.740734759	-0.5414369114	-1.1190775965	 0.476123
C	 2.1136916802	-0.0314636543	-1.5698805691	-0.324806
C	 2.2866127229	-0.9779236601	-2.7782830461	-0.165571
N	 1.0429494104	-1.7985624742	-2.7802333293	-0.130969
C	 0.7131527916	-2.0856657244	-1.3193645054	-0.08297
C	-0.7816136962	-2.0307661407	-1.6846978735	-0.241228
C	-0.1012243828	-0.8602034433	-2.4174946042	-0.095686
H	 0.7718670371	 1.964910365	-0.0604321558	 0.11437
H	-0.7850016926	 1.5984349679	-0.8516891184	 0.110701
H	-0.6611173109	 1.5851438025	 0.9263147993	 0.1303
H	 2.1028092199	 1.026035951	-1.8491632403	 0.099298
H	 2.8690664373	-0.1672452195	-0.7900153397	 0.105631
H	 2.3674247006	-0.4514326603	-3.7335055148	 0.104648
H	 3.1507449109	-1.6417537983	-2.6858597228	 0.107059
H	 1.2595587191	-2.8405655864	-0.7498687486	 0.075693
H	-1.1449646717	-2.8400664709	-2.3186686494	 0.103237
H	-1.4669725021	-1.7712140709	-0.8786562	 0.108413
H	-0.5169691631	-0.1703455855	-3.1553951182	 0.071522
83.1003	169.977	201.3745	254.6791	341.9134	347.611	439.5302	486.4263	608.8914	698.2519	720.8206	750.9515	826.798	856.6738	867.8455	914.8186	926.9871	973.8332	997.3626	1029.934	1031.9606	1067.4992	1110.7968	1118.5147	1126.5708	1158.0896	1165.3383	1181.1475	1187.2038	1212.384	1229.9688	1240.8481	1257.2563	1258.6113	1289.6773	1319.9809	1335.4953	1479.6592	1489.0056	1489.9024	1491.884	1506.7596	1512.1245	2992.3051	3044.4307	3051.3361	3060.025	3082.0739	3086.9581	3087.2499	3099.7636	3107.8232	3120.0945	3164.2194
COC12CCN3C1CC23	CO[C@@]12CCN3[C@@H]1C[C@@H]23	
InChI=1S/C7H11NO/c1-9-7-2-3-8-5(7)4-6(7)8/h5-6H,2-4H2,1H3	InChI=1S/C7H11NO/c1-9-7-2-3-8-5(7)4-6(7)8/h5-6H,2-4H2,1H3/t5-,6+,7+
