19
gdb 64819	3.4121	1.05596	1.00414	1.8447	75.93	-0.2394	-0.0245	0.2149	1254.8923	0.156881	-423.016937	-423.008048	-423.007104	-423.050831	34.105	
O	-0.3021875528	 1.5937402474	-0.1723447592	-0.485924
C	 0.0356731453	 0.2276372981	-0.0883297383	 0.377829
C	 1.1225603291	-0.2885517617	-1.0986535351	-0.40885
C	 1.8482073128	-0.9323006061	 0.0915160317	 0.413385
O	 2.7184728837	-1.7480749742	 0.1892444493	-0.291083
C	 0.9656757193	-0.1917659282	 1.1065328934	-0.408885
C	-1.2442788584	-0.5757073865	-0.1441255485	 0.008939
C	-2.5072340727	-0.0705077731	 0.5021712875	-0.276619
C	-2.400218012	-0.1364438124	-1.0036823596	-0.276624
H	 0.5051268403	 2.115419238	-0.137121597	 0.280184
H	 0.8016133399	-0.950207251	-1.9067426049	 0.134268
H	 1.7107358243	 0.5296511505	-1.531628746	 0.120406
H	 1.4918698276	 0.6646631579	 1.5453173333	 0.12039
H	 0.5296590452	-0.782443568	 1.9157250325	 0.134278
H	-1.068331231	-1.6466497475	-0.0847326663	 0.085771
H	-3.1439091439	-0.7866059626	 1.0096632247	 0.108183
H	-2.473479387	 0.9133293229	 0.9541521806	 0.128076
H	-2.2969366603	 0.8045444349	-1.5302133217	 0.128094
H	-2.9632917195	-0.8978923284	-1.5317391366	 0.108184
52.3372	80.8954	206.3519	246.454	249.7066	332.6749	333.6568	393.8768	427.1183	451.9645	546.2366	656.754	668.518	714.5251	793.8197	806.5482	826.8363	918.591	922.7305	953.6448	971.4712	995.0923	1050.9493	1064.4762	1074.7718	1087.0677	1132.4449	1139.4362	1140.1094	1179.7102	1202.9801	1204.1305	1229.1814	1262.2687	1352.9554	1420.7343	1437.2031	1448.7331	1459.633	1503.3399	1893.4878	3040.0243	3045.8479	3112.2282	3113.2836	3138.6043	3140.365	3145.9802	3225.8633	3239.2349	3827.8054
OC1(CC(=O)C1)C1CC1	OC1(CC(=O)C1)C1CC1	
InChI=1S/C7H10O2/c8-6-3-7(9,4-6)5-1-2-5/h5,9H,1-4H2	InChI=1S/C7H10O2/c8-6-3-7(9,4-6)5-1-2-5/h5,9H,1-4H2
