15
gdb 16588	2.85951	2.18548	1.81959	3.1045	61.82	-0.2356	0.0112	0.2467	796.0467	0.118404	-399.781694	-399.774145	-399.773201	-399.813396	27.626	
C	-0.1281540466	 1.2620580485	-0.3351532122	-0.346626
N	-0.043216405	-0.0725957066	 0.2260505144	-0.086669
C	-1.077277884	-1.1053115376	 0.1934097104	-0.04862
C	-1.0216176533	-1.8996616146	-1.070249319	 0.097553
O	-0.698484339	-1.2653831975	-2.2664846971	-0.412025
C	 0.011183459	-2.1686642978	 0.0240787597	-0.31209
C	 0.9853458355	-0.9904644926	 0.015883596	 0.418132
O	 2.1651602885	-0.8441290169	-0.1497325571	-0.36316
H	 0.8867962916	 1.663529248	-0.3857116082	 0.153745
H	-0.558734134	 1.2477718093	-1.3429767811	 0.139489
H	-0.7284124547	 1.9125847789	 0.3080716474	 0.124215
H	-1.9107818116	-1.0859829322	 0.8841394097	 0.115536
H	-1.7775578115	-2.6838290678	-1.154829435	 0.102866
H	-0.0446457951	-1.7995393051	-2.7303548619	 0.299316
H	 0.1317189802	-3.1289862559	 0.505111494	 0.118338
133.9886	151.0632	153.9967	241.8996	272.0101	319.0407	419.1235	486.5765	661.696	714.3384	736.5338	757.901	832.5357	854.0727	934.4349	956.5133	1023.0543	1034.7469	1066.184	1092.2265	1152.0325	1202.1447	1229.0121	1262.8734	1267.8713	1313.6497	1369.7312	1437.6928	1445.8251	1487.2951	1511.0064	1886.1578	3028.1415	3083.3787	3094.4657	3131.3963	3196.5763	3223.6597	3808.452
CN1C2C(O)C2C1=O	CN1[C@H]2[C@@H](O)[C@H]2C1=O	
InChI=1S/C5H7NO2/c1-6-3-2(4(3)7)5(6)8/h2-4,7H,1H3	InChI=1S/C5H7NO2/c1-6-3-2(4(3)7)5(6)8/h2-4,7H,1H3/t2-,3+,4-/m0/s1
