15
gdb 131266	3.35007	1.29897	0.98133	0.5863	72.62	-0.2102	0.0191	0.2293	1142.5599	0.112837	-416.789191	-416.780975	-416.780031	-416.822165	30.996	
O	 0.8046859759	 1.1834772043	 0.1549853361	-0.450032
C	 0.3343467399	-0.0866346498	 0.0598658295	 0.201022
C	 0.020732095	-0.7448478552	-1.1118444476	-0.111421
N	-0.4318602371	-1.9708942227	-0.7323230652	-0.188649
N	-0.4229766801	-2.1576413883	 0.5944051044	-0.288021
C	 0.0347148733	-1.0092134426	 1.0940179067	 0.231862
C	 0.1520170744	-0.8128377255	 2.5828806751	-0.4542
C	 1.3000029612	 0.0122159243	 2.9599149877	 0.272442
C	 2.2355558353	 0.7159873258	 3.2391170692	-0.438337
H	 1.1997684483	 1.2916148303	 1.031487592	 0.297462
H	 0.0879318226	-0.4391001923	-2.1423798282	 0.135322
H	-0.7440010998	-2.7186149932	-1.326682679	 0.27563
H	-0.7605070692	-0.3473574691	 2.9815703517	 0.149738
H	 0.2253644497	-1.796861907	 3.0584490271	 0.160284
H	 3.0713300908	 1.3115049011	 3.5137486304	 0.206897
54.6832	127.2627	241.7083	262.6173	333.4473	344.1481	406.0093	451.8616	454.2301	471.4236	624.4432	654.1342	658.6523	680.0696	712.1855	759.5077	770.1005	936.5178	949.5848	960.0609	1071.4054	1158.3555	1201.9534	1227.6712	1281.4695	1323.9019	1356.5382	1436.7918	1458.7136	1477.563	1533.6616	1647.5212	2228.5656	3008.4499	3071.0036	3277.2361	3501.0072	3684.978	3730.4526
OC1=CNN=C1CC#C	Oc1c[nH]nc1CC#C	
InChI=1S/C6H6N2O/c1-2-3-5-6(9)4-7-8-5/h1,4,9H,3H2,(H,7,8)	InChI=1S/C6H6N2O/c1-2-3-5-6(9)4-7-8-5/h1,4,9H,3H2,(H,7,8)
