18
gdb 126884	3.06959	1.17985	0.92035	1.1242	77.47	-0.2075	-0.0125	0.195	1295.4122	0.147178	-431.417973	-431.408336	-431.407391	-431.453753	33.011	
C	-0.2531246252	 1.4037203095	 0.1481463454	-0.362588
C	 0.1987497088	-0.0495481579	-0.0480882586	-0.142602
N	 0.8400843038	-0.5976101411	 1.1363584298	-0.374276
C	 0.1069339899	-1.1754498351	 2.0012082565	 0.535634
N	-1.2503276846	-1.4539423925	 2.1052574048	-0.330166
N	-1.5427509777	-2.1447471399	 3.2488448351	-0.083734
N	-0.4601097045	-2.311716773	 3.884360206	-0.106132
N	 0.5558184668	-1.7443660138	 3.1841374827	-0.077836
C	 1.9242816579	-1.7797934629	 3.6375631172	-0.324458
H	 0.595088292	 2.0247835232	 0.4498105259	 0.128716
H	-0.6714507655	 1.8125912499	-0.777762378	 0.108914
H	-1.0164491965	 1.4817314893	 0.9302326307	 0.105983
H	-0.6599846945	-0.6590845064	-0.3852151033	 0.06618
H	 0.9260522215	-0.0857661699	-0.8671044146	 0.105284
H	-1.986564484	-1.2283186813	 1.4618761049	 0.287444
H	 1.945685528	-2.3117134331	 4.5885120751	 0.157315
H	 2.5519900934	-2.2941477121	 2.9041134266	 0.15353
H	 2.3070104805	-0.763369893	 3.7665505137	 0.152794
46.6444	53.4204	99.9523	168.372	173.1993	187.4206	248.7732	301.5175	345.4785	441.7461	550.4323	657.3217	682.0291	717.7859	764.444	818.9753	907.2804	967.6871	1026.5535	1062.0947	1075.1662	1119.7114	1159.6176	1172.6712	1200.3723	1294.8716	1310.7638	1367.634	1378.5966	1403.2423	1422.5844	1453.9475	1470.4743	1489.3485	1494.8575	1503.4714	1516.8388	1523.3449	1770.7123	2925.9139	3031.0501	3045.6692	3048.8548	3098.679	3109.8754	3115.4271	3164.9025	3713.8754
CCN=C1NN=NN1C	CCN=c1[nH]nnn1C	
InChI=1S/C4H9N5/c1-3-5-4-6-7-8-9(4)2/h3H2,1-2H3,(H,5,6,8)	InChI=1S/C4H9N5/c1-3-5-4-6-7-8-9(4)2/h3H2,1-2H3,(H,5,6,8)
