14
gdb 57128	3.59032	0.78569	0.66474	2.9761	77.35	-0.2621	-0.0577	0.2044	1563.1478	0.100467	-432.875423	-432.865907	-432.864963	-432.910702	33.101	
N	-0.0967222872	 1.6015555349	-0.0792620175	-0.498154
C	-0.0086301684	 0.1447768635	-0.0179820103	-0.270627
C	-1.3218660883	-0.4635070381	 0.1350294177	 0.122262
C	-2.406997289	-0.9859362755	 0.2417485603	 0.030737
C	-3.6333616433	-1.5743268834	 0.3621404228	 0.20957
N	-4.6735724891	-2.0819290913	 0.4604708638	-0.32862
C	 0.810388302	-0.458289833	-1.213842098	 0.406099
N	 0.6254424807	-1.7749285482	-1.4631276387	-0.521883
O	 1.606291602	 0.2460623653	-1.7981581164	-0.350876
H	 0.8014898616	 1.9210424271	-0.4412555582	 0.254929
H	-0.777790338	 1.85987082	-0.7892542177	 0.24031
H	 0.5810757278	-0.1193710198	 0.8746387168	 0.158237
H	-0.1230464909	-2.2933546666	-1.0358981243	 0.274363
H	 1.1441219201	-2.1984730248	-2.2159787704	 0.273653
46.4934	72.0602	111.9594	206.7558	223.3476	258.313	297.98	307.8876	406.197	424.9825	479.2388	534.5688	568.1671	593.9435	616.3564	679.6267	785.135	837.6942	968.4782	1088.2393	1098.6606	1190.7949	1205.7046	1274.5505	1339.9995	1403.7335	1616.6655	1668.5398	1811.6916	2262.8035	2396.9208	2986.1354	3468.2598	3545.8941	3595.1835	3726.913
NC(C#CC#N)C(N)=O	N[C@@H](C#CC#N)C(=O)N	
InChI=1S/C5H5N3O/c6-3-1-2-4(7)5(8)9/h4H,7H2,(H2,8,9)	InChI=1S/C5H5N3O/c6-3-1-2-4(7)5(8)9/h4H,7H2,(H2,8,9)/t4-/m0/s1
