16
gdb 76002	2.68563	1.19354	1.07636	3.3677	77.72	-0.2628	0.0005	0.2633	1171.9593	0.121148	-400.713068	-400.703459	-400.702514	-400.74724	34.803	
C	-0.0995581226	 1.5871595342	-0.0485623232	-0.45685
C	-0.0081315199	 0.0696794854	-0.0344223798	 0.06188
C	-1.1610557524	-0.6303159704	-0.5360090784	 0.258728
C	-2.1278865648	-1.2077473266	-0.9574024627	-0.408326
C	 1.3349361783	-0.5915750098	-0.2470657869	 0.077358
O	 2.4069304976	 0.2487694057	-0.4885293575	-0.40708
C	 0.7139440729	-0.635829504	 1.1459669144	-0.291073
C	 1.3090296917	 0.1414028127	 2.1907349561	 0.302167
N	 1.8133161975	 0.7545006448	 3.0330559036	-0.341059
H	 0.8286077208	 2.037266671	 0.3025195137	 0.15539
H	-0.2883031525	 1.9330965886	-1.0682629669	 0.13782
H	-0.9232079175	 1.9221155993	 0.5869794768	 0.137888
H	-2.9830945012	-1.7130340082	-1.3333688295	 0.202062
H	 1.3379150315	-1.5354003229	-0.7898474594	 0.118112
H	 3.1581018976	-0.0353429119	 0.044969945	 0.306488
H	 0.2894317331	-1.5802957882	 1.4666853245	 0.146495
99.442	122.128	148.815	156.8717	180.1463	238.1233	254.2838	329.4236	388.5263	459.8202	484.4499	529.1459	575.6551	613.8483	648.3711	657.9247	696.2628	824.6419	847.6643	961.5513	984.106	1050.7173	1094.1717	1117.0142	1162.5884	1246.2463	1264.5479	1318.0317	1359.3073	1409.0431	1438.2317	1484.6134	1498.8055	2238.3971	2349.0099	3057.9983	3121.444	3125.1882	3160.6923	3182.949	3500.672	3797.1668
CC1(C#C)C(O)C1C#N	C[C@@]1(C#C)[C@@H](O)[C@H]1C#N	
InChI=1S/C7H7NO/c1-3-7(2)5(4-8)6(7)9/h1,5-6,9H,2H3	InChI=1S/C7H7NO/c1-3-7(2)5(4-8)6(7)9/h1,5-6,9H,2H3/t5-,6+,7+/m1/s1
