15
gdb 21280	4.99429	1.51833	1.18173	1.5328	64.78	-0.2239	0.0048	0.2287	990.0415	0.119795	-395.977389	-395.969562	-395.968618	-396.010461	26.756	
C	 0.0662927236	 1.4017545366	-0.044980345	-0.236873
O	 0.0230192887	-0.0230427531	-0.0346318197	-0.263631
C	 0.606576572	-0.6302528137	-1.0754356391	 0.394867
N	 1.2021188103	 0.0055485932	-2.0823493197	-0.35004
N	 1.6242086638	-0.996942638	-2.8635732571	 0.153004
C	 2.3473698623	-0.7538162156	-4.0911722502	-0.309738
N	 1.3453703302	-2.2169989745	-2.4318467468	-0.218326
C	 0.6917824733	-2.0180713895	-1.2866956364	-0.154852
H	 1.1002199336	 1.7626335742	-0.0416539836	 0.134228
H	-0.4406509368	 1.8029707979	-0.9288776767	 0.134255
H	-0.4472808527	 1.7238478184	 0.8616144468	 0.131133
H	 3.2889599426	-0.2379651542	-3.882940636	 0.147896
H	 2.547377995	-1.7229513128	-4.5458731861	 0.162439
H	 1.747044113	-0.1396009825	-4.767553136	 0.148673
H	 0.3249740209	-2.8343999364	-0.6879719345	 0.126965
47.2275	104.0286	159.9576	192.6259	201.3055	368.3055	373.7046	512.4919	648.28	658.8377	726.6574	784.2206	837.4053	1005.209	1025.4601	1066.0566	1099.6571	1150.6202	1181.202	1199.867	1220.264	1360.4648	1377.5559	1427.5979	1449.3121	1457.34	1476.0382	1476.4718	1480.3507	1502.99	1514.2209	1599.3765	3031.0907	3051.5767	3097.1754	3115.0286	3146.7102	3173.7329	3283.6939
COC1=NN(C)N=C1	COc1nn(C)nc1	
InChI=1S/C4H7N3O/c1-7-5-3-4(6-7)8-2/h3H,1-2H3	InChI=1S/C4H7N3O/c1-7-5-3-4(6-7)8-2/h3H,1-2H3
