21
gdb 87494	2.9119	1.38997	1.13806	1.6245	83.72	-0.2527	0.098	0.3507	1176.2888	0.181862	-387.025098	-387.016543	-387.015599	-387.057809	33.676	
C	-0.0387984367	 1.5782624241	-0.0862730414	-0.414044
C	-0.0601569556	 0.0791561897	 0.0584471287	-0.086151
O	 1.2184250658	-0.6005865048	-0.1063959793	-0.327638
C	 0.5920739898	-0.6292088181	 1.1519941776	 0.544161
C	 1.1595511303	-0.2379774013	 2.5284726739	-0.167028
C	-0.1925170607	-0.7800606022	 3.089146013	-0.228593
C	 0.2493427277	-1.8417699175	 2.0334648176	-0.169827
C	 1.6911697359	-1.7123308162	 2.6443339374	 0.051135
C	 2.9239137732	-2.1773663463	 1.8848939269	-0.445826
H	 0.7923936201	 2.011801729	 0.4755585735	 0.125944
H	 0.0697299901	 1.864287235	-1.1377979877	 0.128825
H	-0.9746986034	 2.0113524029	 0.2838592245	 0.121101
H	-0.8759030266	-0.4276095444	-0.4607203748	 0.091588
H	 1.6756002843	 0.6796154069	 2.8124409586	 0.074412
H	-0.1722565798	-1.1121829111	 4.1292262838	 0.096176
H	-1.0911526443	-0.201078204	 2.8643594741	 0.093025
H	-0.2759963471	-2.7537937088	 1.7485755849	 0.074976
H	 1.7314579215	-2.0556417611	 3.6848888319	 0.061027
H	 2.920918136	-1.8559179865	 0.8426741002	 0.153137
H	 3.8317587609	-1.7880372438	 2.3597065695	 0.111568
H	 2.9915959984	-3.2710654115	 1.904573857	 0.112031
137.9167	150.9811	184.3505	198.3211	230.7914	302.5708	342.1487	433.6799	455.9847	495.6395	594.7921	654.9094	770.4482	791.4232	799.93	810.3864	887.9933	924.8131	971.195	994.6411	1020.0903	1021.2461	1043.7237	1071.4748	1079.5146	1101.9875	1115.3846	1125.7666	1151.1046	1159.8691	1182.9811	1194.3028	1225.9862	1251.5176	1257.4316	1354.2101	1405.3313	1409.837	1422.9756	1477.1107	1492.5837	1498.8502	1502.7521	1510.731	1556.7384	3028.0314	3035.0006	3036.4641	3061.8576	3085.6129	3089.4971	3097.8644	3110.0444	3114.9325	3125.4773	3129.8056	3147.3586
CC1OC11C2CC1C2C	C[C@H]1O[C@]21[C@H]1C[C@@H]2[C@H]1C	
InChI=1S/C8H12O/c1-4-6-3-7(4)8(6)5(2)9-8/h4-7H,3H2,1-2H3	InChI=1S/C8H12O/c1-4-6-3-7(4)8(6)5(2)9-8/h4-7H,3H2,1-2H3/t4-,5-,6-,7+,8+/m1/s1
