18
gdb 45472	3.42206	1.41397	1.14301	4.2469	78.34	-0.2383	-0.0307	0.2076	1080.2223	0.150872	-401.988042	-401.98072	-401.979776	-402.019919	29.067	
O	-0.1303666161	-0.0860150859	-0.2589941765	-0.382571
C	-0.0879897749	 1.1260203832	-0.126863738	 0.391624
N	-1.2027684234	 1.9166129345	-0.2518377672	-0.342271
C	-1.2525844651	 3.3129233427	 0.1059305682	 0.035565
C	-1.3663637396	 3.7412759441	 1.6019923222	-0.236137
C	-0.2985609363	 4.8351268318	 1.3285995686	-0.229081
C	 0.0943721068	 4.0860044775	 0.0128461847	-0.086537
C	 1.2772424669	 3.1825749762	 0.1643442644	-0.070167
C	 1.1849841687	 1.8512880883	 0.1300510261	-0.154367
H	-2.0640577106	 1.4076985426	-0.3867209472	 0.24317
H	-2.0264675583	 3.8002978923	-0.4936615455	 0.089023
H	-2.3463329639	 4.0667110329	 1.9578566565	 0.101172
H	-0.9908434435	 2.9570867457	 2.2633527539	 0.117811
H	-0.7387060045	 5.8131863497	 1.118969478	 0.10802
H	 0.4886779495	 4.9580835286	 2.0755146113	 0.107493
H	 0.2271433145	 4.7280776234	-0.8652020843	 0.088304
H	 2.2443356959	 3.6614126821	 0.3090593322	 0.105371
H	 2.0484027941	 1.2054948202	 0.2415571624	 0.113577
92.1305	132.6106	228.0137	373.6373	403.6138	449.9312	460.2722	542.9258	572.0182	668.2218	706.6197	752.8615	800.085	821.7537	852.8951	881.341	937.1557	953.3625	973.9565	1017.3449	1025.3087	1080.5859	1092.8538	1157.2909	1175.0743	1196.5454	1241.3162	1253.4549	1262.7859	1286.199	1313.5271	1356.2467	1391.8902	1415.3609	1470.296	1479.9298	1497.6649	1690.089	1779.9081	3035.3208	3061.7252	3066.3737	3071.0665	3112.9886	3130.6307	3141.6158	3205.7079	3612.4726
O=C1NC2CCC2C=C1	O=C1N[C@H]2CC[C@H]2C=C1	
InChI=1S/C7H9NO/c9-7-4-2-5-1-3-6(5)8-7/h2,4-6H,1,3H2,(H,8,9)	InChI=1S/C7H9NO/c9-7-4-2-5-1-3-6(5)8-7/h2,4-6H,1,3H2,(H,8,9)/t5-,6-/m0/s1
