22
gdb 100138	2.26467	1.11237	0.95168	3.7711	82.4	-0.279	0.0166	0.2956	1377.0481	0.190936	-404.362096	-404.351228	-404.350284	-404.398102	39.61	
C	 0.0271884612	 1.4339992056	-0.4870634253	-0.396974
C	-0.100583886	 0.0202240171	 0.0867374693	-0.179909
C	-1.5098832744	-0.5985815323	 0.0137331481	 0.349336
C	-1.4731564821	-2.0222797961	 0.5876091115	-0.416049
C	-2.5483672242	 0.2564914238	 0.75155832	-0.429394
O	-1.772942297	-0.6607251663	-1.4139553333	-0.267922
C	-3.0464201869	-1.0514541544	-1.8494677217	-0.211923
C	-3.9802605788	 0.0817099228	-2.0221952952	 0.265598
N	-4.7092964594	 0.965133436	-2.1739966266	-0.312519
H	 1.0748732141	 1.7493587054	-0.4865283239	 0.111958
H	-0.3385529643	 1.4679892043	-1.5160181001	 0.135684
H	-0.5353016905	 2.1680297615	 0.0976762634	 0.117395
H	 0.5767285072	-0.6516048855	-0.4532116499	 0.102564
H	 0.2177511127	 0.0085534428	 1.1358586968	 0.094807
H	-1.1794553134	-1.9991913502	 1.6413970114	 0.122341
H	-2.4508660887	-2.5124975882	 0.5383662238	 0.11131
H	-0.7514169084	-2.6354017621	 0.0406654074	 0.123417
H	-2.6569357117	 1.2418417925	 0.2948593985	 0.14644
H	-3.53325626	-0.2201329856	 0.7643637362	 0.117894
H	-2.2393868806	 0.3902441196	 1.7928739337	 0.119225
H	-2.9197248877	-1.5265148698	-2.8289843314	 0.157452
H	-3.5211469211	-1.7918264508	-1.1929603629	 0.139271
46.662	85.8165	103.6974	195.822	207.0292	238.3157	247.6878	277.9588	287.6408	348.0409	365.9302	371.6921	407.7522	453.8372	522.5015	613.3081	710.84	777.9116	842.3898	900.039	921.2995	927.4383	998.4366	1010.7654	1037.1014	1072.5334	1081.282	1112.7811	1199.568	1216.6584	1262.3435	1302.1579	1328.7431	1377.6445	1388.2872	1401.5725	1409.1271	1422.3309	1469.5505	1472.4807	1480.5086	1491.7465	1499.2024	1505.2041	1507.7892	1514.0766	2356.4617	3026.4657	3031.4908	3039.6899	3045.6672	3048.0951	3069.2224	3070.3434	3102.3156	3108.4736	3109.0765	3120.1095	3129.8461	3138.658
CCC(C)(C)OCC#N	CCC(C)(C)OCC#N	
InChI=1S/C7H13NO/c1-4-7(2,3)9-6-5-8/h4,6H2,1-3H3	InChI=1S/C7H13NO/c1-4-7(2,3)9-6-5-8/h4,6H2,1-3H3
