21
gdb 86610	2.33147	1.43565	1.32927	3.2789	77.86	-0.2415	0.0712	0.3127	1114.2524	0.18247	-424.193473	-424.184668	-424.183724	-424.226666	34.159	
C	-0.5279909304	 1.4000570865	-0.1201303985	-0.415592
C	-0.0286242101	-0.0357261808	-0.0836655796	 0.000762
C	 1.3674556921	-0.3659012207	-0.7133885771	 0.133478
O	 2.2787764807	 0.7026447424	-0.7710727589	-0.440318
C	 1.6136873556	-1.3610891898	 0.4553613633	-0.28203
C	 0.4626409768	-0.6887764629	 1.2605387014	-0.073015
C	 0.8722799116	 0.2979345243	 2.3252871763	 0.084671
C	 2.0830770644	 0.1677498922	 3.1451133835	-0.190855
O	 2.0311743671	 1.1165126432	 2.070551211	-0.242696
H	 0.2214170526	 2.0991444369	 0.259479572	 0.131472
H	-0.7573877472	 1.6959897253	-1.1490239916	 0.118896
H	-1.4424221681	 1.5211908816	 0.4716043004	 0.105608
H	-0.7774410758	-0.6990748716	-0.5309622971	 0.070995
H	 1.3385597218	-0.7925562042	-1.7196975785	 0.07464
H	 2.4483612027	 0.994428697	 0.1377406274	 0.294697
H	 1.373961806	-2.3947902934	 0.1941486901	 0.102161
H	 2.6223171665	-1.3335406974	 0.8751320799	 0.103373
H	-0.2554544276	-1.3785011032	 1.7174145503	 0.073452
H	 0.0475626545	 0.8664493651	 2.7572380013	 0.102618
H	 2.1138913915	 0.6087935427	 4.1395857887	 0.123295
H	 2.7521786455	-0.6756961734	 2.9899325557	 0.124391
99.4873	136.7187	186.3039	197.0648	238.9585	245.2369	324.8554	406.4503	472.2687	539.403	545.5299	608.6833	709.5221	737.2052	816.3116	847.3179	872.1142	889.5442	916.8629	970.7878	991.2131	1004.6881	1052.0288	1083.826	1107.8891	1122.1322	1151.0165	1162.9467	1167.5005	1176.8138	1198.3425	1254.4842	1256.9507	1267.0866	1298.4455	1337.4561	1356.4324	1374.0599	1411.0854	1425.1205	1469.4616	1475.7089	1492.9686	1498.0445	1526.253	3031.897	3036.2757	3048.1897	3061.6662	3074.8351	3093.647	3097.1035	3105.2361	3116.5323	3120.0035	3186.5786	3700.317
CC1C(O)CC1C1CO1	C[C@H]1[C@@H](O)C[C@H]1[C@H]1CO1	
InChI=1S/C7H12O2/c1-4-5(2-6(4)8)7-3-9-7/h4-8H,2-3H2,1H3	InChI=1S/C7H12O2/c1-4-5(2-6(4)8)7-3-9-7/h4-8H,2-3H2,1H3/t4-,5-,6+,7-/m1/s1
