24
gdb 7639	4.16799	1.10256	0.95413	0.0927	85.9	-0.2777	0.0859	0.3636	1344.717	0.222543	-314.278365	-314.268749	-314.267805	-314.312405	36.362	
C	 0.0342514001	 1.5130627307	-0.1059299176	-0.388832
C	 0.0682378683	-0.009194841	 0.0876202385	 0.021061
C	 0.7630409671	-0.3840418133	 1.4039109783	-0.388831
C	-1.3352683929	-0.6073385871	 0.0135281768	 0.080527
C	-2.1256703604	-0.5316766459	-1.3243054463	-0.257354
C	-2.6615892876	-1.9655146424	-1.0527777639	 0.053993
C	-2.7929046404	-2.9395305343	-2.2132447937	-0.405855
C	-1.50269715	-2.1532981329	-0.033689871	-0.257354
H	 1.0440214813	 1.9370377599	-0.0995671865	 0.107047
H	-0.4378012532	 1.7863125453	-1.0551486794	 0.113831
H	-0.532794679	 1.9963139901	 0.6990807709	 0.108937
H	 0.6525083866	-0.4422567297	-0.7385377637	 0.061793
H	 0.222086134	 0.0314252159	 2.2629044883	 0.108936
H	 0.8129526146	-1.469642202	 1.5361830459	 0.113832
H	 1.7862034552	 0.0050739057	 1.4379539234	 0.107047
H	-1.9458779926	-0.1941319491	 0.8274596049	 0.059856
H	-2.8544748712	 0.2730319805	-1.4521685944	 0.090818
H	-1.4444500723	-0.5221320692	-2.1840507336	 0.090422
H	-3.6140989434	-1.9023986752	-0.5137064504	 0.0679
H	-1.8503092791	-3.018464906	-2.7672776755	 0.108203
H	-3.0582991547	-3.9438990289	-1.8637308291	 0.111391
H	-3.5674886758	-2.6180229547	-2.9189389301	 0.111392
H	-0.6350620049	-2.6289705477	-0.5072497157	 0.090422
H	-1.7196588797	-2.6809333888	 0.898828044	 0.090818
77.8646	84.7277	164.0471	219.4152	234.0326	234.3026	303.7796	305.0854	324.0941	417.2313	445.8788	451.982	596.0326	755.3232	809.9014	873.4835	897.6315	912.4309	927.0164	954.6087	954.6872	976.341	994.873	1030.7878	1070.6352	1129.6667	1132.989	1155.7644	1188.6141	1213.14	1229.8481	1246.4911	1265.6392	1267.7155	1301.727	1321.5247	1351.7792	1369.8388	1397.3483	1399.5138	1411.2486	1421.7107	1475.6229	1487.3137	1491.0099	1494.3785	1496.6192	1503.5316	1503.8667	1509.9274	2985.3686	3014.6228	3019.7864	3021.6899	3026.9699	3028.2216	3029.6374	3037.9081	3085.3459	3086.6777	3087.4013	3090.6365	3091.2287	3097.8306	3098.4739	3100.3854
CC(C)C1CC(C)C1	CC(C)[C@H]1C[C@@H](C)C1	
InChI=1S/C8H16/c1-6(2)8-4-7(3)5-8/h6-8H,4-5H2,1-3H3	InChI=1S/C8H16/c1-6(2)8-4-7(3)5-8/h6-8H,4-5H2,1-3H3/t7-,8+
