16
gdb 32378	6.45667	0.87005	0.77404	1.3521	83.44	-0.2316	-0.0341	0.1975	1442.4167	0.123521	-400.755344	-400.746848	-400.745903	-400.788924	31.054	
C	-0.995064389	 0.6732874265	-0.1433293296	-0.390594
C	 0.5026965257	 0.3589261359	-0.1129462924	-0.294195
C	 1.0023663707	-0.0897462782	 1.2233488084	 0.249483
C	 0.3391231223	-0.2603424628	 2.3983522811	-0.113298
O	 1.2249641438	-0.6858738181	 3.342830687	-0.169383
C	 2.4132012806	-0.7550857491	 2.6814162302	 0.213365
N	 2.3359728556	-0.4138303024	 1.4274328977	-0.354503
C	 3.5480059137	-1.1743377543	 3.4069704323	 0.263153
C	 4.5127857044	-1.5322387828	 4.0293794529	-0.372367
H	-1.2475496732	 1.4754727026	 0.5579938396	 0.122085
H	-1.301647348	 0.9949658989	-1.1420427244	 0.120902
H	-1.5916021472	-0.2058353929	 0.1220001865	 0.122057
H	 0.7406851404	-0.4174510141	-0.8507546885	 0.125643
H	 1.0798735651	 1.2396199186	-0.4211182577	 0.125657
H	-0.6796689197	-0.1372364634	 2.7213129405	 0.148601
H	 5.3689200549	-1.8476556645	 4.5733078763	 0.203395
52.4206	127.7362	136.3427	213.7049	219.4305	303.2343	389.1656	453.1271	547.254	600.8515	605.2622	643.6041	688.1689	693.2727	743.4355	767.1587	802.6468	965.0498	972.4829	1035.6609	1079.8541	1113.6168	1141.966	1213.3372	1255.5109	1282.1185	1324.6938	1385.8741	1414.0707	1479.5402	1498.8055	1508.5499	1558.5335	1616.9243	2244.7731	3029.8948	3037.9193	3054.3599	3103.4757	3116.1327	3297.7601	3501.699
CCC1=COC(=N1)C#C	CCc1coc(n1)C#C	
InChI=1S/C7H7NO/c1-3-6-5-9-7(4-2)8-6/h2,5H,3H2,1H3	InChI=1S/C7H7NO/c1-3-6-5-9-7(4-2)8-6/h2,5H,3H2,1H3
