22
gdb 121739	6.11072	0.54516	0.52435	4.2066	82.39	-0.2425	0.0307	0.2732	2197.1151	0.19163	-441.505356	-441.493896	-441.492952	-441.544828	38.582	
C	 0.0567202462	 1.403114399	 0.2431006205	-0.377205
C	-0.1407047708	-0.1114360698	 0.1427550503	-0.168528
C	-1.5033160925	-0.4802146302	-0.4557433065	-0.147557
N	-1.7069048546	-1.9144446012	-0.5752243604	-0.327485
C	-2.5887386185	-2.6051381202	 0.2068861451	 0.391688
O	-3.3253690882	-2.0831540148	 1.0177617158	-0.354589
C	-2.5291547719	-4.1247074751	 0.0056426996	-0.166773
O	-3.8082445073	-4.6574650634	 0.190092471	-0.207013
C	-3.820736097	-6.0646496461	 0.1686098947	-0.222403
H	 1.0332345483	 1.6478797329	 0.6708419583	 0.116691
H	-0.0036635845	 1.8787402297	-0.7422450832	 0.11515
H	-0.709948147	 1.8597241817	 0.8781617206	 0.124894
H	 0.6576298853	-0.5496849492	-0.4713110208	 0.087479
H	-0.0573841764	-0.5707191889	 1.1345869633	 0.111857
H	-2.312621322	-0.1127115856	 0.179842042	 0.150693
H	-1.6173930164	-0.013311243	-1.4429216393	 0.102165
H	-1.1439583503	-2.4243179057	-1.2366091359	 0.240668
H	-2.1308328721	-4.3762840816	-0.9938682261	 0.080925
H	-1.8164410701	-4.5315754222	 0.7461153742	 0.109336
H	-4.8530815009	-6.3809457921	 0.3336429397	 0.13368
H	-3.475998895	-6.4658243186	-0.7983144062	 0.10091
H	-3.1852820743	-6.4899691255	 0.9618079232	 0.105418
19.4643	34.058	64.095	76.6326	93.7774	189.214	232.9509	234.9205	266.8159	303.738	324.5681	381.8524	437.5219	518.7332	622.759	725.9425	762.2766	869.9838	894.9257	954.5742	992.5849	1022.1142	1040.6322	1094.4342	1127.3596	1174.2692	1180.8011	1183.4972	1220.4816	1236.7632	1270.1035	1281.0271	1330.5153	1338.0619	1403.1531	1413.593	1422.6123	1474.1621	1482.179	1485.6754	1492.3976	1493.0026	1499.8702	1509.9073	1517.8059	1544.2127	1800.3162	2932.7295	2958.586	2966.8987	3009.5727	3016.1775	3019.4978	3032.5231	3061.2255	3098.1696	3108.198	3115.9174	3119.3463	3636.6198
CCCNC(=O)COC	CCCNC(=O)COC	
InChI=1S/C6H13NO2/c1-3-4-7-6(8)5-9-2/h3-5H2,1-2H3,(H,7,8)	InChI=1S/C6H13NO2/c1-3-4-7-6(8)5-9-2/h3-5H2,1-2H3,(H,7,8)
