18
gdb 96804	2.41626	1.43597	0.95038	1.0604	78.37	-0.2407	0.0048	0.2455	1241.7568	0.147644	-435.308539	-435.299326	-435.298382	-435.343076	33.075	
C	-0.0346667064	 1.4151435244	-0.0108128234	-0.344377
N	-0.0351807503	-0.0397957214	 0.0106587574	-0.32692
C	 0.5592267803	-0.614652265	 0.9680033877	 0.411674
N	 1.2403066781	-0.0980412309	 2.0532460519	-0.393816
C	 1.7259386593	-1.0840037072	 2.9007869434	 0.469639
N	 2.3694530342	-0.8574999811	 3.9622688158	-0.585214
O	 1.3804857027	-2.2923173733	 2.3796199247	-0.258052
C	 0.6536525962	-2.1235005062	 1.140394928	 0.017463
C	-0.6961518198	-2.8187892047	 1.2059257049	-0.393547
H	 0.9814805856	 1.8268623619	-0.1077691735	 0.116474
H	-0.6154756851	 1.7664180324	-0.86653466	 0.131841
H	-0.4841361418	 1.847861132	 0.8964910818	 0.11284
H	 1.3726516183	 0.8756994593	 2.2651487079	 0.279046
H	 2.6237321019	-1.7312222112	 4.4176448868	 0.230656
H	 1.2657793011	-2.550371616	 0.3378083923	 0.123108
H	-1.2917429483	-2.4252927313	 2.0344112252	 0.12896
H	-1.2331589236	-2.6357530351	 0.2720416323	 0.150238
H	-0.5669828225	-3.8951781566	 1.3436473968	 0.129984
65.3798	95.335	118.4714	168.2204	189.1001	225.4818	287.6027	405.8248	438.0846	478.2701	543.8718	638.8737	667.8446	716.43	728.3595	806.7883	831.8177	910.2243	980.223	1029.8598	1061.2371	1089.7295	1106.7998	1110.0053	1131.106	1169.5644	1245.7392	1330.5606	1358.7072	1368.2672	1401.2482	1413.1316	1437.408	1485.4434	1492.0329	1493.9308	1506.8698	1784.1519	1809.3872	2974.1175	3022.5921	3047.1095	3050.7547	3108.0551	3128.9189	3138.7427	3530.2853	3686.2684
CN=C1NC(=N)OC1C	CN=C1N[C]([NH])O[C@H]1C	
InChI=1S/C5H9N3O/c1-3-4(7-2)8-5(6)9-3/h3H,1-2H3,(H2,6,7,8)	InChI=1S/C5H9N3O/c1-3-4(7-2)8-5(6)9-3/h3H,1-2H3,(H2,6,7,8)/t3-/m0/s1
