20
gdb 109178	3.92403	0.97585	0.86179	2.3767	77.24	-0.2407	0.0285	0.2692	1397.1964	0.171238	-440.3051	-440.295806	-440.294861	-440.339545	34.152	
C	 0.4924168056	 0.7963876067	-0.7082763379	-0.37742
C	-0.3515801845	 0.4235897095	 0.5208778577	-0.248382
C	 0.4659312848	-0.1949391347	 1.6232634954	 0.399501
N	 0.5995347714	 0.3611372099	 2.7546853901	-0.317845
C	 1.4589307982	-0.2482028286	 3.7627543824	-0.158415
C	 2.4297912153	-1.2774959152	 3.1927400698	 0.062993
O	 2.955437596	-2.0380326764	 4.2678185341	-0.423008
C	 1.6527913697	-2.1617730672	 2.2192360879	-0.102716
O	 1.0161094086	-1.3780544769	 1.2083600344	-0.262902
H	 0.9889189184	-0.0841841512	-1.1236151909	 0.130044
H	-0.1389574615	 1.2334087613	-1.4871616869	 0.11577
H	 1.2611715096	 1.5298503794	-0.4454110011	 0.122748
H	-0.8406743587	 1.3056033041	 0.937927186	 0.124547
H	-1.1297679325	-0.2897208757	 0.2235987454	 0.112396
H	 2.0075950785	 0.5477976114	 4.2769538723	 0.113762
H	 0.8407537958	-0.738625002	 4.5266518132	 0.120685
H	 3.2289492963	-0.7584637375	 2.6418684533	 0.080294
H	 3.6967489804	-2.558166669	 3.9415080702	 0.286958
H	 2.3035257857	-2.8676252058	 1.6939167659	 0.104089
H	 0.8988991327	-2.732811412	 2.7768140687	 0.116902
55.8552	85.2647	175.1086	198.6155	209.7649	268.5288	300.2541	333.1154	387.764	440.3723	461.0756	525.5061	671.5158	717.9187	796.2671	814.4305	901.8137	937.9248	975.3021	997.662	1070.1581	1084.2886	1095.3529	1109.6722	1121.8616	1156.4086	1212.3703	1230.1322	1243.3541	1294.2995	1304.4291	1339.1047	1351.6422	1368.8308	1399.7418	1406.3276	1441.4852	1475.1489	1488.2065	1497.1968	1509.6606	1512.9872	1750.7191	2986.5935	3021.0982	3029.2092	3039.9346	3043.8732	3068.3646	3085.442	3109.2244	3114.9662	3133.1431	3815.6819
CCC1=NCC(O)CO1	CCC1=NC[C@@H](O)CO1	
InChI=1S/C6H11NO2/c1-2-6-7-3-5(8)4-9-6/h5,8H,2-4H2,1H3	InChI=1S/C6H11NO2/c1-2-6-7-3-5(8)4-9-6/h5,8H,2-4H2,1H3/t5-/m1/s1
