14
gdb 131443	3.3841	1.50896	1.05751	0.8709	63.86	-0.2466	-0.0074	0.2392	1041.8806	0.102626	-473.799071	-473.79206	-473.791116	-473.830883	26.082	
O	 0.1076244955	 1.3640919987	 0.067807017	-0.413363
C	 0.0809333553	 0.0241792521	 0.068032283	 0.308048
N	 0.1144753398	-0.6636839337	-1.0572894429	-0.262239
O	 0.0712414283	-2.0260546365	-0.6739070828	-0.22938
C	 0.0150429059	-2.0489569629	 0.6543024374	 0.3549
C	 0.0163660951	-0.8203502669	 1.2057724206	 0.064583
C	-0.0486132569	-0.9526614372	 2.6913493436	-0.189452
O	-0.0859907397	-2.3846432649	 2.9029230518	-0.282736
C	-0.0495002042	-3.1297257765	 1.6793787884	-0.174136
H	 0.1521014414	 1.6570033733	-0.8529624976	 0.314654
H	 0.8264225344	-0.5393458527	 3.2097623029	 0.12411
H	-0.9468871322	-0.5040528441	 3.1353368675	 0.124109
H	-0.9481705268	-3.75619611	 1.5907132602	 0.130451
H	 0.8278146142	-3.7915812587	 1.665232021	 0.130452
95.0667	162.9388	219.7012	272.2881	374.4762	470.8251	513.4241	597.9737	615.42	641.2565	718.4066	797.9305	851.6767	883.8121	937.2179	1018.2566	1051.2536	1069.76	1097.8523	1158.8457	1211.9245	1212.6985	1284.0359	1315.7634	1378.6454	1413.2989	1515.8704	1527.43	1530.8453	1576.592	1685.9047	2999.426	3010.9506	3025.6065	3036.9253	3773.4966
OC1=NOC2=C1COC2	Oc1noc2c1COC2	
InChI=1S/C5H5NO3/c7-5-3-1-8-2-4(3)9-6-5/h1-2H2,(H,6,7)	InChI=1S/C5H5NO3/c7-5-3-1-8-2-4(3)9-6-5/h1-2H2,(H,6,7)
