17
gdb 128414	3.76837	1.10354	0.99399	2.8998	76.	-0.2263	-0.0749	0.1514	1228.3432	0.137575	-414.183284	-414.175037	-414.174093	-414.217291	29.547	
C	-0.9233856272	 0.7864663144	-0.8390973511	-0.314478
N	 0.0797235385	 0.2786246711	 0.0920099403	-0.265366
C	-0.4377113748	-0.6905710567	 1.0424781142	-0.244441
C	-0.8810635609	-2.0192834291	 0.4506553713	 0.380105
N	-0.1176371239	-2.5424804361	-0.5236495593	-0.264777
C	-0.5245197238	-3.7100393113	-0.9949226926	-0.006795
C	-1.6699473174	-4.3222870236	-0.4850513597	 0.014205
N	-2.3864124172	-3.7541026213	 0.4796352106	-0.167301
N	-1.9871159117	-2.5773542743	 0.9549079822	-0.225984
H	-0.4504235815	 1.4945506623	-1.525504999	 0.120826
H	-1.4289624317	 0.0136222286	-1.4428696887	 0.097458
H	-1.6940852597	 1.3283795768	-0.2798204489	 0.125563
H	 0.8372218288	-0.1522070046	-0.4282595286	 0.229372
H	 0.3450921313	-0.9045088801	 1.7827797009	 0.124979
H	-1.2834151704	-0.2640227036	 1.589438821	 0.133072
H	 0.0626657687	-4.1705047436	-1.7867089613	 0.131494
H	-2.0263789672	-5.2796287988	-0.8512437312	 0.132068
35.1135	88.3151	153.2942	196.8292	254.8056	357.6471	377.002	423.7532	492.902	639.2558	665.4927	766.3256	809.3808	854.8957	884.8609	952.247	994.8743	1013.4814	1036.0029	1083.7864	1116.6852	1133.4045	1148.6902	1174.9436	1211.2211	1300.594	1309.3122	1349.9311	1400.145	1443.654	1458.0706	1469.2684	1491.3904	1499.6768	1523.2668	1568.3008	1594.0265	2959.4195	3020.9112	3060.1144	3097.6452	3106.6449	3152.5153	3190.8077	3527.7211
CNCC1=NC=CN=N1	CNCc1nccnn1	
InChI=1S/C5H8N4/c1-6-4-5-7-2-3-8-9-5/h2-3,6H,4H2,1H3	InChI=1S/C5H8N4/c1-6-4-5-7-2-3-8-9-5/h2-3,6H,4H2,1H3
