16
gdb 8257	7.43771	0.91507	0.85009	0.7946	66.38	-0.2524	-0.0338	0.2186	1270.1848	0.127992	-383.756107	-383.747955	-383.747011	-383.79009	28.581	
O	-0.1694792876	-0.0011465816	-0.0593556003	-0.233237
C	 0.0168013292	 1.1872141643	-0.0183779306	 0.161491
C	 1.3611344062	 1.8575811434	-0.2066018733	-0.297681
C	 1.34963429	 2.8622570275	-1.3619511908	 0.014059
C	 0.5039709757	 4.1688267417	-1.192112467	-0.362499
C	 1.7403123715	 4.9630478038	-1.6475621164	 0.407217
O	 1.9176493605	 6.0922090046	-1.9958930288	-0.281445
C	 2.6402642572	 3.7186813695	-1.5630270302	-0.365018
H	-0.8295666709	 1.891373569	 0.1596267195	 0.076459
H	 1.6061502054	 2.3882520462	 0.7257613746	 0.115729
H	 2.1143559287	 1.0799867304	-0.3646771681	 0.127611
H	 1.0823746175	 2.3508535521	-2.291003326	 0.099382
H	-0.3970138093	 4.2874463357	-1.7986325625	 0.137194
H	 0.2507162839	 4.3920507646	-0.1489543751	 0.131204
H	 3.2817973742	 3.7475348593	-0.6745945448	 0.133172
H	 3.265575568	 3.5110067894	-2.4346980702	 0.136362
42.6365	68.8559	83.5474	192.7404	317.7752	362.8622	418.4268	483.2226	500.0302	652.1038	667.2312	748.0881	825.5143	904.3433	930.5645	955.909	987.2017	1057.4101	1069.5202	1117.7817	1126.895	1176.2422	1195.2384	1238.7417	1249.5324	1271.395	1308.1812	1368.7844	1428.0003	1431.8955	1447.2239	1464.7487	1836.0996	1899.5223	2858.4163	3005.7081	3045.9119	3050.2143	3067.4661	3095.9625	3114.4699	3115.5184
O=CCC1CC(=O)C1	O=CCC1CC(=O)C1	
InChI=1S/C6H8O2/c7-2-1-5-3-6(8)4-5/h2,5H,1,3-4H2	InChI=1S/C6H8O2/c7-2-1-5-3-6(8)4-5/h2,5H,1,3-4H2
