20
gdb 103192	3.2062	1.46951	1.30388	2.75	77.36	-0.245	0.0858	0.3307	1046.9851	0.171602	-403.079179	-403.07121	-403.070265	-403.111212	32.146	
C	-0.0795953608	 1.5848601836	-0.1176790279	-0.466502
C	-0.0293874705	 0.0634700836	-0.1417836476	 0.329293
C	-1.4182186539	-0.528462989	 0.1236019069	-0.094738
O	-1.8559594575	-0.2416640091	 1.4377760211	-0.426167
C	 0.7387579541	-0.6954461249	-1.2535768394	-0.132764
C	 2.1593372055	-0.072151845	-1.2123076283	-0.261183
C	 2.2437568075	-0.6442821852	 0.2041004408	-0.046139
C	 1.2052603616	-1.6572633796	-0.0929446019	-0.049858
N	 0.8954865599	-0.573121911	 0.8770631935	-0.18282
H	 0.911349485	 2.0338940035	-0.028832999	 0.117941
H	-0.5491969993	 1.9652414835	-1.0321270349	 0.114275
H	-0.6803703336	 1.9122094938	 0.7349862232	 0.139065
H	-2.150779835	-0.0861136289	-0.5604946793	 0.101958
H	-1.4011301438	-1.6140897143	-0.0635308632	 0.081848
H	-1.1171490921	-0.482474795	 2.0126252624	 0.291949
H	 0.2713775821	-0.9640312676	-2.2001184258	 0.072553
H	 2.844497156	-0.6135934386	-1.8700410225	 0.108882
H	 2.2658145218	 1.0030017246	-1.3792277007	 0.100982
H	 3.0990778879	-0.7107336433	 0.863271761	 0.101055
H	 1.119052095	-2.7154136412	 0.1130943817	 0.100368
124.6622	175.635	192.8591	249.0819	309.872	357.2817	409.7283	488.9336	501.4273	568.1884	646.1105	749.6769	787.5564	820.1625	841.6612	867.3962	914.5855	924.9784	937.9855	963.2159	975.0229	997.7122	1014.4598	1063.2014	1075.4596	1111.6926	1129.1565	1144.6872	1167.6166	1192.6684	1216.5506	1222.8497	1262.132	1267.2195	1308.6201	1334.7085	1377.5355	1405.4352	1438.9834	1482.2033	1493.0477	1505.5659	1516.9553	2974.588	3039.361	3057.9978	3066.5769	3107.515	3112.1906	3124.0261	3133.0199	3200.4652	3214.4377	3760.0838
CC1(CO)C2CC3C2N13	C[C@@]1(CO)[C@H]2C[C@@H]3[C@H]2N13	
InChI=1S/C7H11NO/c1-7(3-9)4-2-5-6(4)8(5)7/h4-6,9H,2-3H2,1H3	InChI=1S/C7H11NO/c1-7(3-9)4-2-5-6(4)8(5)7/h4-6,9H,2-3H2,1H3/t4-,5+,6-,7+,8?/m0/s1
