19
gdb 50583	3.70626	1.09524	0.93866	2.7598	75.65	-0.2368	-0.029	0.2077	1251.5635	0.159965	-423.017251	-423.009103	-423.008158	-423.050718	30.847	
O	-0.1939944667	 0.0359654325	-0.1553029995	-0.244777
C	-0.0406385182	 1.2231511748	-0.0282717037	 0.149064
C	 1.2927458976	 1.9343881465	-0.0189149822	-0.078808
C	 1.4190002171	 2.8267021195	-1.2694293633	-0.101659
O	 2.693511147	 3.4324705173	-1.3551948129	-0.249397
C	 3.1349701996	 4.1148908395	-0.2168648608	 0.133871
C	 2.3085229135	 5.1571606039	 0.481263318	-0.330292
C	 2.5710420095	 3.8122507591	 1.147698607	-0.073707
C	 1.4404339818	 2.7928978839	 1.2596881374	-0.257559
H	-0.9190624092	 1.9029267614	 0.0927406346	 0.070266
H	 2.0790757783	 1.1749960743	-0.0645253293	 0.104374
H	 1.3206153205	 2.229287385	-2.1796515723	 0.127048
H	 0.6166256952	 3.5829505039	-1.2786338332	 0.095564
H	 4.2009909645	 4.2900413004	-0.3105283752	 0.105158
H	 2.8131059036	 6.0380696295	 0.8625439837	 0.115245
H	 1.2997485029	 5.3431534749	 0.1267854468	 0.115635
H	 3.2757210621	 3.8097676047	 1.9724812808	 0.094608
H	 0.4891668	 3.3018085432	 1.465073174	 0.105937
H	 1.6229841207	 2.1309515558	 2.1111529303	 0.119428
51.5372	79.3714	193.4269	283.8164	298.4195	353.6715	374.5192	439.3977	510.7076	551.5165	694.5045	752.1466	799.7311	837.3462	860.0916	911.625	937.1089	974.2832	1005.0362	1031.0121	1048.1109	1096.7664	1101.3609	1127.3416	1132.907	1149.7637	1189.3967	1233.2889	1244.8645	1253.7847	1313.4024	1335.1158	1365.1262	1368.8723	1399.1111	1425.3001	1432.3658	1478.876	1493.5983	1509.906	1832.3172	2836.9555	2969.9068	3016.9714	3069.8465	3083.1318	3092.8484	3130.3516	3156.1772	3173.386	3215.9374
O=CC1COC2CC2C1	O=C[C@H]1CO[C@H]2C[C@H]2C1	
InChI=1S/C7H10O2/c8-3-5-1-6-2-7(6)9-4-5/h3,5-7H,1-2,4H2	InChI=1S/C7H10O2/c8-3-5-1-6-2-7(6)9-4-5/h3,5-7H,1-2,4H2/t5-,6+,7-/m0/s1
