18
gdb 48969	3.86228	1.36351	1.19761	2.306	76.45	-0.2321	-0.0298	0.2023	1053.6177	0.149436	-401.919688	-401.912458	-401.911513	-401.951413	28.365	
O	-0.240576312	 0.337707607	-0.7597261771	-0.272512
C	 0.0787951368	 1.0755684626	 0.1446840194	 0.044332
C	 1.3354162627	 1.8386714058	 0.1967337672	 0.217821
C	 1.795870481	 2.836683269	 1.2514396382	-0.256286
N	 2.4868207283	 3.6634012195	 0.1917081754	-0.119161
C	 3.9073014186	 3.2545923523	 0.1199765707	-0.164599
C	 3.9146289197	 1.7288735651	-0.2069346897	-0.264625
C	 2.504570969	 1.5240254357	-0.7522756322	-0.080242
C	 1.8260278857	 2.8390356168	-0.8617250995	-0.066044
H	-0.596635531	 1.2390536383	 1.0157173289	 0.070527
H	 0.9696311135	 3.4008829598	 1.6945073337	 0.1156
H	 2.453711826	 2.4769166246	 2.0510478562	 0.102918
H	 4.382924686	 3.8221543852	-0.6862756007	 0.111318
H	 4.4142086403	 3.505552811	 1.0554188123	 0.109254
H	 4.6657030371	 1.4728247761	-0.9597589407	 0.11047
H	 4.1155823583	 1.1121758219	 0.6745512427	 0.10949
H	 2.2752955557	 0.7487477281	-1.4732480479	 0.120813
H	 1.2975037042	 3.2614378113	-1.7061939468	 0.110927
102.2832	181.9022	194.6362	246.0658	383.7755	416.2357	494.454	641.567	682.7264	736.2633	753.3235	826.6488	841.5008	873.1359	909.6855	911.3601	958.8657	982.0829	1002.0071	1024.5977	1030.8952	1047.9261	1111.5933	1116.5508	1182.294	1192.1847	1214.4321	1230.8196	1250.0373	1258.874	1299.618	1316.4268	1347.1334	1406.8996	1435.5777	1489.4116	1497.9987	1517.0019	1796.0292	2866.9016	3029.5154	3049.8417	3055.2858	3083.1027	3088.8246	3109.8958	3199.0762	3207.6704
O=CC12CN3CCC1C23	O=C[C@@]12CN3CC[C@@H]1[C@@H]23	
InChI=1S/C7H9NO/c9-4-7-3-8-2-1-5(7)6(7)8/h4-6H,1-3H2	InChI=1S/C7H9NO/c9-4-7-3-8-2-1-5(7)6(7)8/h4-6H,1-3H2/t5-,6+,7+/m1/s1
