18
gdb 127476	2.3803	1.61163	0.97575	2.3483	78.09	-0.1744	0.0393	0.2137	1192.072	0.149302	-431.45415	-431.444329	-431.443385	-431.488543	35.633	
C	 0.0267037515	 1.3466635144	-0.0117848641	-0.323061
N	-0.0390301033	-0.090484038	 0.0378974337	-0.007022
N	 0.0249105216	-0.8050053104	-1.1150113116	-0.360634
C	 0.077059063	-2.0765963952	-0.7309857789	 0.333215
N	 0.1909556525	-3.1325149099	-1.6431259097	-0.600937
C	 0.0734543422	-2.2027523569	 0.6778629091	 0.106551
N	 0.0522446971	-3.4015139573	 1.4182343673	-0.628465
C	 0.0090245321	-0.9048480323	 1.1437584874	 0.23996
N	-0.0229825873	-0.4838280199	 2.4890578921	-0.61551
H	 1.0587268243	 1.7146124058	-0.0901057971	 0.12756
H	-0.5307771413	 1.6930113228	-0.8841537803	 0.150034
H	-0.4254976308	 1.7641401834	 0.8913874724	 0.118338
H	 0.0207775533	-2.8116430592	-2.5889630814	 0.244694
H	-0.4435932096	-3.8912697894	-1.4193129631	 0.245616
H	 0.8194792816	-4.0115166951	 1.1524260172	 0.241053
H	 0.1382015436	-3.1933108163	 2.4080887649	 0.241729
H	-0.9230853404	-0.1093411802	 2.7720192678	 0.244743
H	 0.6904892101	 0.2020230038	 2.7102662244	 0.242136
81.0321	117.4107	154.1814	169.5416	225.4285	235.144	284.9757	295.222	315.9394	355.3831	373.9807	583.4863	594.9192	617.4837	637.2673	714.5134	743.0834	759.7437	820.3931	877.0093	942.1231	1037.9379	1111.3129	1147.373	1155.5394	1205.6329	1265.7357	1288.6288	1363.9344	1423.7257	1452.2368	1487.2958	1506.984	1531.068	1566.6054	1622.9378	1639.7981	1646.555	1693.7824	3009.3947	3091.2237	3137.4681	3488.1329	3495.515	3512.7364	3567.879	3577.898	3610.3367
CN1N=C(N)C(N)=C1N	Cn1nc(N)c(N)c1N	
InChI=1S/C4H9N5/c1-9-4(7)2(5)3(6)8-9/h5,7H2,1H3,(H2,6,8)	InChI=1S/C4H9N5/c1-9-4(7)2(5)3(6)8-9/h5,7H2,1H3,(H2,6,8)
