14
gdb 11016	4.4668	1.78925	1.50315	4.718	57.43	-0.2621	-0.0127	0.2494	833.3936	0.106949	-419.700013	-419.693168	-419.692224	-419.730971	25.423	
C	 0.0256698143	 1.5153522861	-0.0629226574	-0.492598
C	-0.0556446625	 0.027088901	 0.1129123598	 0.396264
C	-1.3089007687	-0.7469214838	-0.2659284809	-0.132723
O	-1.2621773959	-1.9804832708	 0.4691055093	-0.233968
C	-0.2588029837	-1.9834933482	 1.3949707785	 0.486888
O	-0.1439701607	-2.8331877914	 2.227213313	-0.3381
C	 0.5980531804	-0.7654668265	 1.1623517639	-0.217859
O	 1.1105027288	-0.7463116826	-0.1843078542	-0.277234
H	 0.9984799926	 1.8825956905	 0.2710716207	 0.14626
H	-0.0963623011	 1.7855125745	-1.117318456	 0.140514
H	-0.7587570508	 2.0197126298	 0.5097416953	 0.135707
H	-2.2190197573	-0.205659986	 0.0154137162	 0.123835
H	-1.342306298	-0.981078561	-1.3339027107	 0.136514
H	 1.2441445225	-0.3866509315	 1.9458258224	 0.1265
139.7022	185.3764	206.3952	280.844	371.809	415.472	484.9752	566.9924	681.0487	729.2885	796.0496	849.2222	881.056	919.2331	986.9186	1012.1706	1053.1168	1084.0036	1124.5078	1165.0867	1234.5699	1250.7892	1283.3949	1379.0182	1413.6486	1458.4856	1486.1665	1493.9658	1502.5001	1889.9364	3040.4981	3046.3609	3098.3741	3106.5082	3133.6744	3193.8683
CC12COC(=O)C1O2	C[C@]12COC(=O)[C@H]1O2	
InChI=1S/C5H6O3/c1-5-2-7-4(6)3(5)8-5/h3H,2H2,1H3	InChI=1S/C5H6O3/c1-5-2-7-4(6)3(5)8-5/h3H,2H2,1H3/t3-,5+/m1/s1
