15
gdb 12747	3.32344	1.8214	1.51619	4.5555	65.21	-0.2586	-0.0018	0.2568	871.4814	0.118196	-362.630383	-362.623018	-362.622073	-362.661955	27.263	
C	-0.0369175686	 1.5596386743	 0.0093162658	-0.499223
C	 0.0232300781	 0.062507603	 0.0340518907	 0.256026
C	-0.8706363408	-0.8389760264	 0.8659393724	-0.349482
C	 0.614387575	-0.949262919	 0.9922577865	 0.066054
O	 1.1455471743	-1.7672565001	-0.063229831	-0.287204
C	 0.6919373756	-0.8047833276	-1.0455893289	-0.058391
C	-0.1563319721	-1.3867901424	-2.0893343109	 0.287521
N	-0.8391653454	-1.8229734282	-2.9132735274	-0.322984
H	 0.9255453095	 1.9964055283	-0.2788586962	 0.126816
H	-0.7947869777	 1.9133274526	-0.6989710207	 0.139888
H	-0.3010181783	 1.952331341	 0.9957194465	 0.131463
H	-1.3723978091	-0.3228277693	 1.6790185869	 0.123721
H	-1.4346656835	-1.6508851144	 0.4154495348	 0.140028
H	 1.2015085421	-0.8581419327	 1.8978831198	 0.117448
H	 1.5504434507	-0.3061338691	-1.5113586383	 0.128318
123.0663	135.6081	190.0616	275.4473	303.5766	368.0989	448.9032	533.305	555.4517	659.2623	746.1632	822.7148	889.8651	930.3116	964.0827	990.508	1004.6243	1029.1041	1050.298	1076.2926	1106.1224	1132.1308	1217.7601	1249.3158	1280.8875	1350.2484	1400.6086	1427.9395	1485.9768	1487.9524	1498.6714	2356.9977	3028.9783	3040.0762	3090.3457	3107.1555	3119.3902	3193.3562	3211.5714
CC12CC1OC2C#N	C[C@]12C[C@H]1O[C@H]2C#N	
InChI=1S/C6H7NO/c1-6-2-4(6)8-5(6)3-7/h4-5H,2H2,1H3	InChI=1S/C6H7NO/c1-6-2-4(6)8-5(6)3-7/h4-5H,2H2,1H3/t4-,5+,6+/m1/s1
