19
gdb 88312	3.62492	0.89381	0.86905	4.5276	79.49	-0.2504	-0.0223	0.2281	1417.9246	0.159454	-419.232774	-419.223506	-419.222562	-419.267494	33.865	
C	-0.327297207	 1.6160942612	 0.096482962	-0.414518
C	 0.0192891714	 0.1464694234	 0.0360647245	 0.0125
C	 1.3823162552	-0.3196964215	-0.376160324	-0.286282
C	 0.9531267618	-0.5169954009	 1.0573298614	-0.114005
C	 1.5992776157	 0.2782007224	 2.1389058948	 0.390159
N	 2.388646438	 1.2447037556	 1.9031568576	-0.509554
N	 1.2087671727	-0.162929007	 3.4310342693	-0.35225
C	 1.6049050054	 0.3531977533	 4.6383611212	 0.168336
O	 2.366767925	 1.2798162077	 4.8012220938	-0.299245
H	 0.5224806997	 2.2050256402	 0.447899989	 0.155552
H	-0.6078561478	 1.9787200706	-0.8983652942	 0.117592
H	-1.1740708568	 1.7987219992	 0.7676398785	 0.109581
H	-0.8055021996	-0.4960062645	-0.2634559135	 0.086926
H	 1.476819699	-1.2019052977	-0.9993985157	 0.109938
H	 2.1430659342	 0.4390843595	-0.5232339459	 0.1493
H	 0.6752202795	-1.5265054253	 1.3492620715	 0.077687
H	 2.6995498559	 1.6824689465	 2.7697894444	 0.251306
H	 0.5539386874	-0.929492564	 3.4703293896	 0.255163
H	 1.13550612	-0.1901475787	 5.4815648859	 0.091814
46.2391	76.7178	170.2926	183.8464	230.1562	256.213	286.705	344.7857	379.1985	425.9369	560.2941	587.5525	689.0182	756.2445	782.344	855.9864	885.3763	919.2691	952.4107	959.8038	996.0709	1025.0105	1058.9275	1084.4779	1098.1506	1124.7558	1148.8347	1187.2178	1209.8132	1240.4812	1305.5901	1390.1117	1423.4013	1435.4801	1441.6684	1483.1477	1501.9298	1503.2335	1505.6754	1724.1684	1811.741	2943.7115	3032.4406	3088.7284	3122.0894	3132.4192	3137.1705	3142.906	3230.4329	3496.9741	3617.2298
CC1CC1C(=N)NC=O	C[C@H]1C[C@H]1C(=N)NC=O	
InChI=1S/C6H10N2O/c1-4-2-5(4)6(7)8-3-9/h3-5H,2H2,1H3,(H2,7,8,9)	InChI=1S/C6H10N2O/c1-4-2-5(4)6(7)8-3-9/h3-5H,2H2,1H3,(H2,7,8,9)/t4-,5+/m0/s1
