21
gdb 122647	3.74278	0.68968	0.62097	2.9967	75.81	-0.245	0.0611	0.3061	1803.0952	0.180661	-461.330296	-461.319888	-461.318944	-461.367076	36.377	
O	-0.150876672	 1.4060505437	-0.2184742565	-0.421563
C	-0.0303949465	-0.008454157	-0.1771987316	-0.076196
C	-1.4202928171	-0.5940778413	 0.0293082099	-0.172135
C	-1.4110309962	-2.1235286962	 0.1085980864	-0.194732
C	-2.8149591847	-2.6883284471	 0.251246268	 0.116539
O	-3.6509905025	-2.4191074066	-0.9055351873	-0.290744
C	-3.7653393745	-3.8202130721	-1.2209933576	-0.097496
C	-2.9931661992	-4.2137690877	 0.0585656219	 0.040899
O	-1.7785335632	-4.9083284191	-0.0933686894	-0.422122
H	 0.7234289802	 1.7774000688	-0.3669857684	 0.283546
H	 0.401233152	-0.3995164656	-1.1133540548	 0.083637
H	 0.6348379051	-0.3270060603	 0.6430628738	 0.079761
H	-1.8438429625	-0.1682767014	 0.9476770356	 0.09959
H	-2.0665779023	-0.273759194	-0.7946963595	 0.125314
H	-0.9436457452	-2.5516209927	-0.7847585628	 0.107459
H	-0.8142186419	-2.4627574889	 0.965302887	 0.100228
H	-3.2900007524	-2.2930189973	 1.1596490121	 0.073925
H	-4.8112444762	-4.1434299733	-1.2900074178	 0.097019
H	-3.2363080199	-4.0865194587	-2.1455410424	 0.1001
H	-3.6236738813	-4.6772116743	 0.8272334337	 0.077384
H	-1.9709082998	-5.8470372387	-0.1764306903	 0.289586
59.0963	59.8325	90.8395	99.4503	141.3235	212.933	221.9867	261.504	289.5284	402.1383	430.3525	467.611	565.2916	740.6518	769.8515	838.823	883.7821	894.0713	951.6443	1016.1455	1028.4454	1043.2248	1066.2807	1074.9679	1099.3931	1135.1044	1156.7181	1178.9565	1197.5568	1215.8167	1239.5527	1277.0564	1296.6636	1301.9383	1311.5332	1315.1921	1347.7219	1370.0784	1407.5382	1438.3886	1462.1044	1474.9295	1501.6631	1516.1942	1528.8133	2954.2046	2979.782	3002.7356	3008.5179	3025.4399	3028.5669	3034.5351	3059.7237	3072.6534	3093.0504	3828.3071	3830.8725
OCCCC1OCC1O	OCCC[C@H]1OC[C@H]1O	
InChI=1S/C6H12O3/c7-3-1-2-6-5(8)4-9-6/h5-8H,1-4H2	InChI=1S/C6H12O3/c7-3-1-2-6-5(8)4-9-6/h5-8H,1-4H2/t5-,6-/m1/s1
