20
gdb 108335	2.58847	1.60717	1.28875	3.104	77.56	-0.2278	0.0643	0.2922	1070.5194	0.171413	-403.067583	-403.059563	-403.058619	-403.100007	31.67	
C	 0.0399715978	 1.5217676736	 0.2454043454	-0.384199
C	-0.1175648859	 0.0308054624	-0.0803062971	-0.293911
C	 0.6780844444	-0.4433412672	-1.2809085948	 0.299855
C	 0.9367191394	-1.9634974908	-1.4586233508	-0.132424
O	 2.3723420536	-1.7579317122	-1.5304083909	-0.290183
C	 2.2203788977	-0.3384108389	-1.400332247	 0.078404
C	 2.0539894826	 0.4783199437	-2.71012312	-0.071525
N	 1.2823539736	-0.3590654859	-3.6571895739	-0.328801
C	 0.5665709987	 0.3792293234	-2.5967495999	-0.12503
H	 1.0864187789	 1.7760736287	 0.4444479738	 0.119368
H	-0.3043990771	 2.1584211766	-0.5753741218	 0.117652
H	-0.5403461408	 1.7861853144	 1.1342907683	 0.116349
H	 0.1835239669	-0.5615426163	 0.7926840722	 0.104366
H	-1.1802250716	-0.1952707277	-0.2488433441	 0.100559
H	 0.6703146558	-2.566480523	-0.5812831344	 0.0887
H	 0.5446637616	-2.4205647538	-2.3704244136	 0.11662
H	 2.8681611223	 0.1089618549	-0.6406609699	 0.072592
H	 2.6832024788	 1.2823159367	-3.0735226956	 0.090235
H	 1.1894160365	 0.1812623653	-4.5167593612	 0.23142
H	-0.2033458833	 1.0997972461	-2.8464063045	 0.089953
91.597	158.4237	190.9042	246.4269	282.6462	330.2497	391.1251	475.457	536.1883	656.8517	706.316	768.953	801.2226	821.9778	842.4092	896.4975	907.2883	946.3281	952.8886	979.8017	997.8243	1020.1096	1031.6576	1039.2849	1087.4123	1114.4303	1145.1177	1153.7374	1178.4153	1188.9872	1244.0402	1266.6876	1296.3744	1321.9531	1332.8231	1349.0358	1375.3528	1388.4559	1413.3487	1483.1073	1498.4917	1500.594	1505.5793	3006.4416	3018.7428	3038.1489	3047.0383	3066.8516	3098.9887	3104.6097	3109.0807	3173.6145	3186.6983	3474.8684
CCC12COC1C1NC21	CC[C@]12CO[C@H]1[C@H]1N[C@@H]21	
InChI=1S/C7H11NO/c1-2-7-3-9-6(7)4-5(7)8-4/h4-6,8H,2-3H2,1H3	InChI=1S/C7H11NO/c1-2-7-3-9-6(7)4-5(7)8-4/h4-6,8H,2-3H2,1H3/t4-,5+,6-,7+/m0/s1
