17
gdb 77642	2.17133	1.4487	1.31159	4.2603	76.23	-0.221	0.008	0.229	1079.8059	0.137667	-414.138388	-414.12972	-414.128776	-414.171295	33.057	
N	-0.0933996105	 1.4547833083	 0.0327492821	-0.526218
C	-0.1080880802	 0.0222807711	-0.0194154517	-0.056845
C	-1.3603361693	-0.7998016739	 0.041440217	 0.229226
N	-1.4933181998	-1.8109366753	 1.0149304663	-0.585534
C	-2.4691106356	-0.159742182	-0.8083632283	-0.23445
N	-1.5288661795	 0.0238957659	-1.9643502669	-0.38102
C	-0.4927433156	-0.7740685169	-1.2647583658	 0.173718
C	 0.2951165027	-1.7626772783	-1.9044698571	 0.173636
N	 0.9299574322	-2.5767299036	-2.4328272349	-0.356517
H	 0.8561646392	 1.7856398004	-0.1109821482	 0.238795
H	-0.639883233	 1.8144129925	-0.748109193	 0.252054
H	 0.6925681971	-0.4471861431	 0.5441199064	 0.123244
H	-1.5775499031	-1.4342780448	 1.952766944	 0.245446
H	-2.2735070972	-2.4324499135	 0.8350277849	 0.237048
H	-3.2668111707	-0.8788683628	-1.0253615824	 0.110309
H	-2.9129682471	 0.7711280582	-0.4385133845	 0.11752
H	-1.8617988096	-0.4523859823	-2.7955244879	 0.239589
108.9199	146.0914	195.9056	229.2886	272.7766	296.7412	320.7441	360.0217	437.1263	519.8214	551.7786	590.075	634.938	698.6546	728.4744	762.6625	803.4622	821.0204	925.7649	990.6631	1008.4747	1043.1937	1089.1208	1101.2657	1170.6731	1205.8613	1214.5497	1248.6266	1281.2538	1317.2027	1364.9474	1371.4082	1493.8017	1519.4671	1656.9056	1667.9535	2324.9858	3031.032	3080.6995	3173.7006	3473.526	3508.0594	3538.0827	3555.5716	3593.3517
NC1C2(N)CNC12C#N	N[C@H]1[C@@]2(N)CN[C@@]12C#N	
InChI=1S/C5H8N4/c6-1-5-3(7)4(5,8)2-9-5/h3,9H,2,7-8H2	InChI=1S/C5H8N4/c6-1-5-3(7)4(5,8)2-9-5/h3,9H,2,7-8H2/t3-,4-,5-/m0/s1
