18
gdb 9388	5.6559	0.86117	0.77738	4.7534	69.94	-0.2613	0.0238	0.2851	1448.1299	0.152714	-381.119954	-381.110365	-381.109421	-381.155001	32.931	
C	-0.1130389237	 1.5124321907	-0.0363082341	-0.386846
C	-0.0204496784	-0.0025699137	 0.0074968132	-0.035492
O	-1.3351460292	-0.5346618949	 0.0206299583	-0.251515
C	-1.3769487046	-1.9393648574	 0.0591548854	-0.063717
C	-2.8684398992	-2.328069447	 0.0016121858	-0.12781
N	-3.586279133	-1.8377471566	-1.1762013002	-0.505672
C	-2.9991393872	-3.7871012712	 0.1042686503	 0.281698
N	-3.0617703463	-4.9379982014	 0.1794952804	-0.314239
H	 0.8881504011	 1.9528064767	-0.0449981655	 0.122348
H	-0.6434502377	 1.8403897727	-0.9348135859	 0.127377
H	-0.6509064668	 1.8899948168	 0.8377154518	 0.131361
H	 0.5300820368	-0.3862648169	-0.8669969455	 0.093973
H	 0.5259276897	-0.3338307483	 0.9052359334	 0.096186
H	-0.8441154314	-2.3795804665	-0.8003434226	 0.09808
H	-0.9124699388	-2.33023757	 0.9787295201	 0.107195
H	-3.3490816157	-1.8882764134	 0.8849245007	 0.142472
H	-3.3786472483	-0.8459475256	-1.2588256641	 0.247803
H	-3.2143775972	-2.2830657741	-2.0114269217	 0.2368
56.9773	75.8826	103.8796	153.0375	190.0625	247.8621	250.1188	285.0658	338.0639	406.9008	468.9631	573.0469	579.2365	821.9633	845.2197	892.5988	922.1292	955.7069	1044.5407	1082.1445	1141.1412	1155.3546	1165.4675	1187.0121	1206.4048	1264.4157	1298.4926	1314.7288	1378.0539	1404.3165	1417.6942	1444.2485	1484.4164	1498.8137	1507.7019	1533.822	1659.477	2366.2163	2959.0116	2970.9545	2995.791	3000.2203	3040.8547	3047.15	3122.3959	3124.2467	3484.0284	3567.8133
CCOCC(N)C#N	CCOC[C@@H](N)C#N	
InChI=1S/C5H10N2O/c1-2-8-4-5(7)3-6/h5H,2,4,7H2,1H3	InChI=1S/C5H10N2O/c1-2-8-4-5(7)3-6/h5H,2,4,7H2,1H3/t5-/m0/s1
