17
gdb 67282	3.08709	1.92091	1.73783	1.6013	69.63	-0.2366	0.0539	0.2906	844.1222	0.137485	-421.744694	-421.738426	-421.737482	-421.774847	26.987	
O	-0.0911484285	 1.44364755	 0.0049237968	-0.483254
C	 0.0012176534	 0.0674706875	 0.0014950192	 0.413685
C	 0.7405826066	-0.8553638349	-1.0507685002	-0.161367
C	 1.7222770726	-1.3173137291	 0.0497768282	-0.231607
C	 0.6725288352	-0.8653469551	 1.0900083237	-0.16131
C	-0.600827846	-1.8038808944	 0.9812084711	 0.099316
O	-0.4020849779	-2.82272081	-0.0247841943	-0.288548
C	-0.5368451764	-1.7945078226	-1.0318193611	 0.099327
C	-1.255979669	-0.8341569371	-0.0426525367	-0.144736
H	 0.7972527187	 1.8163903318	 0.0333585262	 0.283564
H	 1.0912702498	-0.522770932	-2.0282969915	 0.066323
H	 2.0087098254	-2.3707181345	 0.053955508	 0.112856
H	 2.6144721078	-0.6851998744	 0.0810930947	 0.088981
H	 0.9603470319	-0.5419745896	 2.0908783126	 0.066337
H	-1.0483978099	-2.1908290826	 1.8967514343	 0.080872
H	-0.9252299833	-2.1727740969	-1.9775152807	 0.080871
H	-2.3003479303	-0.5325569661	-0.0744448903	 0.078692
236.1379	279.0117	332.8946	389.5717	483.8923	518.2409	586.1173	632.7926	709.4453	779.9139	781.5992	833.4471	852.7416	858.5233	919.9919	921.8042	953.3286	954.7595	1000.5027	1017.4926	1022.7741	1062.7713	1078.2818	1115.2002	1141.0912	1145.1504	1181.256	1183.2025	1227.5956	1233.0078	1258.6533	1288.6639	1289.251	1319.8774	1329.2018	1409.1337	1470.9907	3057.3604	3101.7946	3102.9397	3112.1226	3115.1749	3121.1513	3144.3779	3795.7772
OC12C3CC1C1OC3C21	O[C@@]12[C@H]3C[C@@H]1[C@@H]1O[C@H]3[C@H]21	
InChI=1S/C7H8O2/c8-7-2-1-3(7)6-4(7)5(2)9-6/h2-6,8H,1H2	InChI=1S/C7H8O2/c8-7-2-1-3(7)6-4(7)5(2)9-6/h2-6,8H,1H2/t2-,3+,4-,5+,6-,7-
