19
gdb 60304	6.25259	0.46373	0.44538	5.3817	85.56	-0.2594	-0.0538	0.2056	2376.1591	0.155585	-423.009658	-422.998771	-422.997827	-423.047985	36.871	
C	 0.0326217287	 1.573112038	-0.0021899227	-0.408352
C	 0.0106758118	 0.0450219861	-0.0067043104	 0.12887
O	 0.6367855749	-0.4876031815	 1.1588166634	-0.433638
C	-1.4124600934	-0.5103238671	-0.0216384483	-0.163542
C	-1.4339091622	-2.0520398016	-0.0451135256	-0.370493
C	-2.7760431253	-2.6095380816	-0.0347454022	 0.066984
C	-3.8952380337	-3.0660868321	-0.0282563426	 0.063841
C	-5.2380252467	-3.5797474311	-0.0001787855	 0.015054
O	-5.576849714	-4.6532362924	-0.4454036816	-0.232326
H	 1.0628132468	 1.9465305899	 0.0177456215	 0.108369
H	-0.4487014369	 1.9778233065	-0.8983693776	 0.119886
H	-0.4871939041	 1.959921595	 0.879890596	 0.128386
H	 0.5349640085	-0.315996852	-0.908802051	 0.06702
H	 1.5437122386	-0.1676635034	 1.1872565081	 0.285489
H	-1.9421201597	-0.1545615109	 0.8689843982	 0.118304
H	-1.9436670455	-0.1189732829	-0.8952156207	 0.110092
H	-0.8955043114	-2.4207014139	-0.9284612313	 0.13598
H	-0.8811040683	-2.42491192	 0.8247059008	 0.166317
H	-5.9727102382	-2.8978765049	 0.4761350616	 0.093758
19.3676	48.8353	65.9475	116.7369	160.0544	185.036	223.5948	246.2656	285.946	342.2552	392.6439	452.6805	466.9618	520.2101	605.2655	763.6248	828.2805	865.2015	942.4651	961.8824	1022.3822	1025.2824	1074.763	1120.4171	1132.29	1162.1345	1185.2688	1273.2257	1289.5352	1319.8046	1362.213	1386.7363	1407.966	1423.6865	1427.3115	1461.4102	1480.4613	1493.8891	1498.86	1765.3076	2328.0412	2910.1163	2946.7645	3023.2927	3029.6811	3048.2315	3068.5998	3096.0572	3097.8429	3114.9217	3824.1898
CC(O)CCC#CC=O	C[C@@H](O)CCC#CC=O	
InChI=1S/C7H10O2/c1-7(9)5-3-2-4-6-8/h6-7,9H,3,5H2,1H3	InChI=1S/C7H10O2/c1-7(9)5-3-2-4-6-8/h6-7,9H,3,5H2,1H3/t7-/m1/s1
