16
gdb 66800	3.42321	1.98852	1.98561	1.9401	69.27	-0.2157	0.0404	0.2562	779.173	0.126004	-400.609445	-400.603686	-400.602742	-400.639161	24.967	
O	-0.0969865202	 1.4112049326	 0.0023321311	-0.482042
C	 0.0245678529	 0.0389566718	 0.0023575224	 0.420599
C	 0.692806267	-0.8659500656	 1.1195711398	-0.170071
C	-0.5732203889	-1.7763337989	 1.0839490851	-0.000399
C	-1.2519513377	-0.8678755659	 0.0137595669	-0.12119
C	-0.5912625673	-1.778011803	-1.0662736647	-0.000435
C	 0.67398871	-0.8676680922	-1.1245217315	-0.170014
C	 1.2787820207	-1.7709468004	-0.0067749802	-0.006744
N	 0.0405932675	-2.6715470228	 0.0043240098	-0.180101
H	 0.7847970847	 1.8015161045	-0.0036998493	 0.281947
H	 1.2107208451	-0.5053428374	 2.0074994178	 0.067272
H	-1.0601427357	-2.2412439782	 1.9408344187	 0.073641
H	-2.2731107513	-0.4926773112	 0.0220367213	 0.074773
H	-1.0924804114	-2.2442878078	-1.9141243033	 0.073647
H	 1.176954027	-0.5084667783	-2.0215589152	 0.067287
H	 2.2662733074	-2.2323628371	-0.0146735287	 0.071829
232.6118	295.6951	345.3434	529.0064	641.1884	644.7894	734.6755	738.2664	772.5715	831.9683	842.3726	866.1919	868.665	874.9822	878.0672	935.0165	961.7126	965.6081	977.4376	1005.7612	1038.1209	1099.3118	1101.269	1111.3374	1162.0874	1164.8685	1165.7087	1176.6262	1206.3041	1208.4808	1235.6557	1241.8277	1260.7105	1317.7563	1399.2755	3100.2647	3104.3572	3104.4058	3118.141	3124.1817	3138.5521	3788.0207
OC12C3C4C1C1C2C3N41	O[C@@]12[C@H]3[C@H]4[C@@H]1[C@H]1[C@@H]2[C@@H]3N41	
InChI=1S/C7H7NO/c9-7-1-4-2(7)6-3(7)5(1)8(4)6/h1-6,9H	InChI=1S/C7H7NO/c9-7-1-4-2(7)6-3(7)5(1)8(4)6/h1-6,9H/t1-,2+,3-,4-,5+,6-,7-
