18
gdb 19867	3.95257	2.09466	1.79087	1.7084	69.68	-0.249	0.0855	0.3345	798.4064	0.156549	-347.776999	-347.770785	-347.769841	-347.807133	25.532	
C	-0.0030930188	 1.5324109579	 0.0415087418	-0.188192
C	 1.4939360555	 1.9216769513	 0.0169819544	-0.229143
C	 2.1336565331	 0.8686851267	-0.9042174104	-0.033251
C	 3.2394445547	-0.0560112743	-0.3501834862	 0.009148
O	 2.7583564432	-0.6109487248	 0.8810929384	-0.240672
C	 2.3369383099	-1.2177855554	-0.3475584523	 0.009154
C	 1.1662597265	-0.3765846383	-0.9013281185	-0.03325
C	-0.0101216012	-0.0144486602	 0.0215106738	-0.229144
H	-0.5373915567	 1.9494854262	 0.9008860449	 0.094413
H	-0.4973299397	 1.914241762	-0.8611232864	 0.093486
H	 1.6543120346	 2.948079971	-0.3243686231	 0.09016
H	 1.9115523335	 1.8322199756	 1.0244946089	 0.113571
H	 2.3618804452	 1.2383140303	-1.9064327245	 0.070988
H	 4.3150830944	 0.0083146904	-0.4706269502	 0.099008
H	 2.5403410439	-2.2762602005	-0.4654610694	 0.099007
H	 0.8622711217	-0.6920056292	-1.9019509937	 0.070984
H	 0.1821224823	-0.3940403577	 1.0296978838	 0.113574
H	-0.965762312	-0.4246471208	-0.3164712914	 0.09016
166.0701	176.5476	301.3997	441.6681	526.1675	620.9427	626.6214	701.6796	799.7661	828.7234	841.6204	866.6132	874.7192	898.41	927.8942	940.8596	974.0033	991.5169	1037.609	1041.4314	1054.7407	1103.8433	1150.6402	1168.1374	1189.0661	1232.0088	1238.8476	1263.1551	1269.7656	1301.2863	1328.0708	1336.764	1344.8819	1349.8419	1390.0543	1479.3067	1487.1101	1501.6362	3025.135	3053.2941	3053.4782	3075.7884	3078.4864	3088.7783	3101.0881	3108.04	3171.8658	3187.5985
C1CC2C3OC3C2C1	C1C[C@H]2[C@H]3O[C@H]3[C@H]2C1	
InChI=1S/C7H10O/c1-2-4-5(3-1)7-6(4)8-7/h4-7H,1-3H2	InChI=1S/C7H10O/c1-2-4-5(3-1)7-6(4)8-7/h4-7H,1-3H2/t4-,5+,6-,7+
