15
gdb 20859	5.17899	1.37829	1.15962	2.6907	63.52	-0.2407	0.0103	0.251	1025.9978	0.119851	-396.002788	-395.99514	-395.994196	-396.034995	27.871	
C	-0.0560779589	 1.5263395941	-0.1427184174	-0.377498
C	-0.0387044645	 0.0111298545	 0.1112403103	-0.28896
C	-1.4083794472	-0.5853279408	 0.0888601688	 0.375504
N	-1.9172469233	-1.1809365822	 1.1347640597	-0.199189
O	-3.2079431992	-1.5792661505	 0.678382817	-0.210998
C	-3.2866940007	-1.1601238593	-0.5866080026	 0.493168
N	-4.4529049185	-1.3717039771	-1.2496612353	-0.592979
N	-2.2220540257	-0.5442814826	-1.0223488631	-0.385432
H	 0.9632602082	 1.9222901642	-0.1597712484	 0.11576
H	-0.531251086	 1.7513627954	-1.1009649578	 0.139295
H	-0.6113225566	 2.0478252523	 0.6426786519	 0.126407
H	 0.561693399	-0.4822033719	-0.6622398519	 0.122366
H	 0.4188988811	-0.2170114224	 1.0776211753	 0.126918
H	-5.0419151754	-2.1122442455	-0.9036642302	 0.275891
H	-4.3962998824	-1.2869200984	-2.2517574764	 0.279747
65.1722	136.9843	205.3544	265.9817	317.7045	376.9953	413.5076	459.2204	480.6411	618.8372	714.853	775.2939	783.1634	806.3075	889.2355	975.7337	1016.7918	1042.7344	1078.8111	1102.4743	1130.1476	1278.0121	1340.8914	1377.3271	1406.5398	1446.79	1475.1032	1496.5196	1509.6169	1579.7443	1609.6565	1684.5874	3042.3051	3045.5175	3097.6396	3116.5484	3129.3359	3600.6448	3715.9632
CCC1=NOC(N)=N1	CCc1noc(N)n1	
InChI=1S/C4H7N3O/c1-2-3-6-4(5)8-7-3/h2H2,1H3,(H2,5,6,7)	InChI=1S/C4H7N3O/c1-2-3-6-4(5)8-7-3/h2H2,1H3,(H2,5,6,7)
