19
gdb 109809	2.18495	1.37484	0.98237	4.8599	76.01	-0.2473	0.0134	0.2606	1239.4906	0.158041	-419.17708	-419.167411	-419.166467	-419.211759	35.059	
C	 0.114181225	 1.5190047968	 0.6415792728	-0.423148
C	 0.1689774102	 0.0586845403	 0.2415446186	-0.012114
C	 0.513722496	-0.4052060312	-1.1363644301	-0.034477
C	 0.8500835592	 0.5291746295	-2.2852912646	-0.091181
O	 1.4357744029	-0.1546394198	-3.3747935857	-0.419422
N	 1.4192548344	-0.682258872	-0.0029530693	-0.113538
C	 2.6952061744	 0.0179575295	 0.1008103184	-0.294105
C	 3.618793506	-0.4627736823	-0.9324712432	 0.295364
N	 4.3084912306	-0.8218871286	-1.7877792877	-0.318059
H	 0.409309354	 1.648584977	 1.6887506841	 0.129618
H	 0.7382379918	 2.1710857078	 0.0278516565	 0.126416
H	-0.9157637228	 1.8777604478	 0.5470374749	 0.136623
H	-0.546869664	-0.5493037351	 0.7935261633	 0.102501
H	 0.0301562456	-1.3112449968	-1.4985733237	 0.109172
H	-0.083957715	 0.9557760619	-2.6692959376	 0.118909
H	 1.470606861	 1.3756430612	-1.9580249839	 0.086125
H	 2.3141446345	-0.4569301599	-3.1128702724	 0.299544
H	 2.6520138612	 1.1133306967	 0.0123525138	 0.140348
H	 3.1258997452	-0.1994368231	 1.0851838157	 0.161422
60.7258	119.9058	136.3242	169.3033	190.7397	231.4345	279.999	327.7303	380.2046	414.1072	463.4593	489.0771	529.4906	581.3209	727.0538	820.2126	843.1063	931.7366	988.9527	997.4092	1010.302	1049.8072	1081.2943	1095.3248	1144.728	1157.7744	1191.9592	1234.4644	1249.6188	1336.3067	1340.6572	1369.7846	1400.7494	1418.1044	1426.1153	1443.5589	1478.421	1496.3049	1501.0091	1506.9194	2357.18	2993.3216	3005.6281	3041.3901	3057.34	3059.4524	3098.7575	3104.5618	3122.665	3134.7131	3781.3095
CC1C(CO)N1CC#N	C[C@H]1[C@@H](CO)N1CC#N	
InChI=1S/C6H10N2O/c1-5-6(4-9)8(5)3-2-7/h5-6,9H,3-4H2,1H3	InChI=1S/C6H10N2O/c1-5-6(4-9)8(5)3-2-7/h5-6,9H,3-4H2,1H3/t5-,6+,8?/m0/s1
