19
gdb 19078	3.81201	1.75647	1.46456	1.6141	74.87	-0.2109	0.0639	0.2748	938.1676	0.165221	-327.830518	-327.822783	-327.821839	-327.862162	30.092	
C	-0.0753117959	 1.4382863693	 0.0067820285	-0.421501
C	 0.037316878	-0.07446483	-0.0147804073	-0.029049
C	 0.6906506359	-0.6567799158	-1.2391543825	-0.076828
C	 1.4521051678	-0.5996445517	 0.0653346363	-0.019866
N	 1.7355313327	-2.0894406397	 0.0685988919	-0.176051
C	 0.5078182352	-2.9262240259	 0.0334925191	 0.023529
C	-0.7159721496	-2.8445512591	 0.9391508803	-0.43503
C	 0.8958245125	-2.1802601429	-1.1907178304	-0.078342
H	 0.7877489782	 1.9075829361	-0.477664651	 0.118079
H	-0.9746125864	 1.7728305627	-0.5214944937	 0.119898
H	-0.1275409963	 1.8146251739	 1.0338342542	 0.120676
H	-0.7904921748	-0.5753737563	 0.4634899767	 0.082638
H	 0.8438850858	-0.0850787062	-2.1454911993	 0.088929
H	 2.2750095666	 0.0350194054	 0.3706887501	 0.098308
H	 0.8601192219	-3.9546630344	-0.0495575995	 0.10098
H	-0.5419062839	-2.1944322944	 1.7998969738	 0.140193
H	-1.608788971	-2.4933686958	 0.4147929272	 0.134343
H	-0.938811851	-3.8421965358	 1.3278463693	 0.116013
H	 1.2837583744	-2.7052251594	-2.0603985837	 0.093084
103.8996	203.2569	208.6404	250.9122	261.6202	291.6455	422.056	478.7213	636.3576	665.0121	709.5463	765.9056	796.1124	842.8344	884.6706	914.8033	934.3542	994.5634	1023.6245	1038.272	1047.5703	1070.5659	1077.3872	1105.7506	1116.3187	1138.8212	1149.8114	1207.455	1257.4473	1280.17	1283.079	1364.0127	1404.1832	1410.3688	1416.4501	1442.1025	1494.5805	1498.88	1502.5973	1504.6817	3028.2318	3044.3907	3091.2092	3093.6868	3097.0282	3112.4832	3121.2791	3132.3043	3180.5648	3194.2179	3229.0354
CC1C2C1N1C(C)C21	C[C@H]1[C@H]2[C@@H]1N1[C@@H](C)[C@@H]21	
InChI=1S/C7H11N/c1-3-5-6(3)8-4(2)7(5)8/h3-7H,1-2H3	InChI=1S/C7H11N/c1-3-5-6(3)8-4(2)7(5)8/h3-7H,1-2H3/t3-,4-,5-,6+,7-,8?/m0/s1
