20
gdb 101761	4.14708	0.65887	0.5988	3.4193	73.78	-0.2459	0.0319	0.2778	1846.7535	0.168848	-477.450652	-477.439811	-477.438867	-477.488927	37.665	
C	-0.1913249921	 1.4495332172	 0.0540095076	-0.482105
C	-0.0030261522	-0.0571556264	 0.1371324065	 0.409218
O	 0.9639888142	-0.5620209303	 0.679167698	-0.373618
N	-0.995364047	-0.798477343	-0.439653951	-0.31636
C	-1.0193566234	-2.2451405444	-0.3806635566	-0.176494
C	-2.410161498	-2.7477783863	-0.0043570023	 0.078699
O	-3.4024819961	-2.2400771042	-0.9138499565	-0.445201
C	-2.5141588849	-4.2708160704	 0.0576533924	-0.063637
O	-3.8286988724	-4.6757475613	 0.3689172631	-0.421362
H	 0.6975706015	 1.8893143723	-0.4049618861	 0.153095
H	-1.0748411981	 1.7525805558	-0.5136372692	 0.111854
H	-0.2659654755	 1.8503138168	 1.0687132614	 0.15326
H	-1.8098609947	-0.3476237518	-0.8240595168	 0.248334
H	-0.7216191456	-2.682373972	-1.3474088881	 0.097205
H	-0.2724460341	-2.552493519	 0.3560323098	 0.152657
H	-2.7000874484	-2.332059504	 0.9665620932	 0.110466
H	-3.1816294881	-2.5675840848	-1.7955203048	 0.284623
H	-2.1774212005	-4.694947471	-0.9073384186	 0.075011
H	-1.8518574021	-4.6665987255	 0.8350422271	 0.118844
H	-4.4092442725	-4.0868372776	-0.1299850889	 0.285513
21.3879	39.1833	75.3598	89.3642	138.2229	205.5608	248.6423	288.8685	335.4269	390.9097	446.3367	484.9183	496.4894	514.2644	583.7302	632.8056	647.7196	842.3997	891.2008	955.5808	995.8155	1050.2546	1059.8363	1063.3261	1098.046	1119.3877	1145.4505	1204.4211	1231.9016	1253.7589	1284.334	1320.2211	1382.1415	1392.5268	1403.1649	1422.6051	1444.4732	1470.6497	1485.1216	1497.6996	1509.7818	1529.7683	1779.2342	2926.9345	2976.1846	3050.5049	3065.5973	3075.8551	3106.9765	3126.5709	3132.42	3643.2537	3766.4882	3772.4199
CC(=O)NCC(O)CO	CC(=O)NC[C@@H](O)CO	
InChI=1S/C5H11NO3/c1-4(8)6-2-5(9)3-7/h5,7,9H,2-3H2,1H3,(H,6,8)	InChI=1S/C5H11NO3/c1-4(8)6-2-5(9)3-7/h5,7,9H,2-3H2,1H3,(H,6,8)/t5-/m1/s1
