21
gdb 77816	2.22353	1.4558	1.28753	3.3506	83.01	-0.2309	-0.008	0.2229	1144.0365	0.182415	-387.123816	-387.114832	-387.113888	-387.157162	34.558	
C	-0.1958990717	 1.4934098294	-0.1278430127	-0.428282
C	 0.0629106212	 0.0059950593	-0.0046197532	-0.044768
C	 1.3945669765	-0.6931107906	-0.3085047867	-0.216694
C	 2.6452767862	 0.1213785857	-0.3010421341	 0.416628
O	 3.4654393033	 0.1677791086	-1.1856628617	-0.33381
C	 2.7746714345	 0.8290096522	 1.0578464683	-0.339513
C	 1.7105002175	 0.1976302641	 1.9801866037	-0.287034
C	 0.8036229603	-0.6819050856	 1.1009515171	 0.314835
C	 0.2245843145	-1.9237766401	 1.7376498329	-0.480284
H	-0.3101722778	 1.7796226183	-1.1785711454	 0.130038
H	-1.1250616474	 1.7572216957	 0.3895373992	 0.121581
H	 0.5980110007	 2.1104031584	 0.2963260506	 0.123301
H	-0.768474658	-0.5843557782	-0.38627004	 0.09238
H	 1.3731858472	-1.5576608053	-0.9619098168	 0.098462
H	 3.7947946858	 0.6894626652	 1.4255200412	 0.130434
H	 2.6484625138	 1.9072138447	 0.914676469	 0.132299
H	 2.1921492897	-0.4398507828	 2.728375574	 0.107595
H	 1.132109137	 0.9458561958	 2.53255533	 0.104597
H	-0.4341836169	-1.6640896036	 2.5751630786	 0.120732
H	-0.3657236995	-2.5028704167	 1.0206164492	 0.118021
H	 1.0147460333	-2.5754173046	 2.1278380667	 0.119481
89.9729	147.6185	175.798	201.6374	225.5597	242.2182	313.6437	404.9379	454.1222	484.2002	547.1173	589.852	618.8903	686.275	736.7798	810.4533	846.8327	906.1224	933.4431	961.7664	995.4434	1016.6009	1045.5396	1071.4161	1096.6253	1119.2781	1126.6473	1177.0935	1187.0416	1231.7457	1248.2166	1272.9859	1304.2447	1326.6145	1354.5806	1416.9306	1421.2994	1454.0406	1458.3807	1487.1783	1493.3975	1496.9798	1504.7918	1509.8744	1823.7303	3021.3702	3038.8928	3042.7954	3058.682	3075.4446	3081.4905	3093.333	3099.2082	3102.8312	3115.5755	3140.8105	3182.4087
CC1C2C(=O)CCC12C	C[C@H]1[C@H]2C(=O)CC[C@@]12C	
InChI=1S/C8H12O/c1-5-7-6(9)3-4-8(5,7)2/h5,7H,3-4H2,1-2H3	InChI=1S/C8H12O/c1-5-7-6(9)3-4-8(5,7)2/h5,7H,3-4H2,1-2H3/t5-,7-,8-/m0/s1
