18
gdb 26478	3.61606	1.25177	1.05539	1.237	79.14	-0.2087	0.0211	0.2297	1166.5557	0.148569	-401.953545	-401.945493	-401.944549	-401.98652	30.825	
C	-0.307331355	 1.340373122	-0.6310232878	-0.472639
C	-0.0301652111	-0.034102429	-0.0516464879	 0.178422
C	 0.9998490422	-0.8943168101	-0.7152404099	-0.261298
N	 1.2616594765	-0.2972694739	 0.6038061251	-0.337386
C	-1.1688217094	-0.6787642091	 0.6409855617	 0.358394
C	-1.2722909655	-1.3967141984	 1.7920335146	-0.277547
C	-2.6509081729	-1.7720133237	 1.911002771	-0.173527
C	-3.2789915772	-1.2519863749	 0.8261301095	-0.025693
O	-2.391775911	-0.5825440445	 0.0393146688	-0.190265
H	 0.5683718853	 1.7160708253	-1.1696837096	 0.109275
H	-1.1496139022	 1.3062883165	-1.3275483721	 0.141323
H	-0.5593551201	 2.0529324173	 0.1617872202	 0.128344
H	 0.8826482905	-1.973650257	-0.7098227845	 0.123152
H	 1.5105990055	-0.4899012524	-1.5859474599	 0.110513
H	 1.8633319207	 0.517029178	 0.5068874694	 0.230875
H	-0.4602558148	-1.61991879	 2.4640559249	 0.121169
H	-3.1073429965	-2.346608565	 2.7018085637	 0.108517
H	-4.298714215	-1.257787861	 0.478359063	 0.12837
52.321	139.8001	186.3865	219.8977	314.7866	345.9006	397.4289	485.1912	551.6899	614.1533	700.7495	739.8051	815.9457	825.2781	843.7286	861.7585	901.8027	929.7532	943.5187	978.1529	998.0528	1024.6407	1053.2714	1100.2727	1114.2447	1137.8551	1166.7901	1206.2931	1236.8084	1264.2518	1322.2689	1367.1602	1409.2821	1419.2546	1482.0346	1501.0249	1508.3382	1542.974	1640.2122	3034.1575	3101.462	3106.1181	3116.4276	3198.5681	3253.1895	3276.6888	3285.9809	3498.3804
CC1(CN1)C1=CC=CO1	C[C@]1(CN1)c1ccco1	
InChI=1S/C7H9NO/c1-7(5-8-7)6-3-2-4-9-6/h2-4,8H,5H2,1H3	InChI=1S/C7H9NO/c1-7(5-8-7)6-3-2-4-9-6/h2-4,8H,5H2,1H3/t7-/m0/s1
