21
gdb 105367	2.99348	0.98331	0.82268	2.4087	78.13	-0.2619	0.0805	0.3424	1451.4499	0.180725	-424.185242	-424.175652	-424.174708	-424.220495	35.103	
C	-0.0084645427	 1.395427991	-0.316921806	-0.398073
C	 0.3238914842	-0.08975875	-0.1578574685	-0.246206
C	 0.8133403027	-0.5081477096	 1.2220872828	 0.403664
C	 1.104951206	-1.9920959404	 1.3953931906	-0.305444
C	-0.1390809698	-2.8485673621	 1.2982081078	 0.103811
C	-0.4903607107	-3.6146759926	 0.0946871334	-0.175323
O	 0.0724990018	-4.2602149463	 1.2367054644	-0.240216
C	 1.4710574637	 0.4428638971	 2.1318495444	-0.233173
O	 0.1049562588	 0.0676591539	 2.3349776857	-0.274208
H	 0.8901108667	 2.0196199745	-0.2959587052	 0.116429
H	-0.5075673032	 1.5741214176	-1.2733660287	 0.114185
H	-0.6741475913	 1.7259941339	 0.4847187742	 0.140033
H	-0.5684521017	-0.6855673291	-0.3864231893	 0.112154
H	 1.0817622938	-0.3909346046	-0.892709451	 0.102139
H	 1.8354826885	-2.3248827979	 0.6487908116	 0.105192
H	 1.5531303524	-2.1517533786	 2.3822826871	 0.113764
H	-0.9490677609	-2.5485690361	 1.9640704235	 0.109729
H	-1.5321127429	-3.8548788822	-0.1141481637	 0.116116
H	 0.157098447	-3.5663144458	-0.7806539515	 0.110467
H	 2.173379127	 0.0703876039	 2.8769202013	 0.110738
H	 1.6268471405	 1.4767295635	 1.832546267	 0.114222
56.8245	76.8938	86.3864	155.9053	227.2795	263.357	314.9681	343.5277	365.5656	407.4795	456.673	557.7528	708.3635	776.5484	828.0636	829.7083	867.6189	901.3705	916.1409	943.8161	997.9638	1019.6495	1060.2907	1096.6535	1108.4998	1135.88	1146.3954	1159.8538	1172.225	1184.5456	1197.3804	1262.1513	1287.1207	1306.59	1322.5845	1385.6598	1401.7127	1426.964	1441.5485	1471.9871	1483.6064	1499.7521	1512.2462	1531.1939	1537.1045	3023.5281	3036.8088	3044.5638	3055.5903	3078.3506	3080.1089	3088.5978	3109.5777	3110.9166	3126.421	3164.1739	3176.4481
CCC1(CC2CO2)CO1	CC[C@@]1(C[C@H]2CO2)CO1	
InChI=1S/C7H12O2/c1-2-7(5-9-7)3-6-4-8-6/h6H,2-5H2,1H3	InChI=1S/C7H12O2/c1-2-7(5-9-7)3-6-4-8-6/h6H,2-5H2,1H3/t6-,7+/m0/s1
