15
gdb 123582	3.94714	1.5962	1.24614	4.7598	70.03	-0.2745	-0.0393	0.2352	954.5015	0.115335	-416.761403	-416.755254	-416.75431	-416.791843	24.986	
C	-0.0148868376	 1.4651775906	 0.086036204	-0.282461
C	 1.2995986201	 0.7419795035	 0.0294217086	-0.037537
C	 2.0406775599	 0.4674299928	 1.3569973963	-0.36296
C	 1.0670996559	-0.419683136	 2.0798567029	 0.317411
N	 0.9805279649	-1.0267128599	 3.2216354768	-0.197165
O	-0.2013501358	-1.742837806	 3.143351497	-0.163852
N	-0.842142002	-1.5536421092	 1.926636493	-0.220242
C	-0.065179161	-0.7397650737	 1.2805199455	 0.356262
C	-0.0199663243	-0.0505632241	-0.0218975023	-0.173864
H	-0.3360339529	 1.9113779365	 1.0219479309	 0.131404
H	-0.3206050349	 2.0132757472	-0.7982548262	 0.129202
H	 1.8976004847	 0.8466696763	-0.8675242966	 0.104251
H	 2.9886838517	-0.0512252346	 1.1801267774	 0.140836
H	 2.270324092	 1.3866408853	 1.9045851817	 0.140943
H	-0.3852345407	-0.5253645687	-0.922646289	 0.117771
160.6308	240.0927	347.4015	428.553	449.5229	596.4323	614.921	691.1712	740.6638	774.1464	790.8638	816.4334	831.2517	880.954	888.9356	966.6387	985.2146	1035.4389	1053.1978	1074.4543	1089.8931	1100.2598	1179.336	1202.7609	1206.1346	1282.64	1327.8553	1364.6329	1409.6862	1476.196	1487.013	1574.2228	1667.4852	3053.7693	3091.0027	3131.5124	3187.6989	3205.9896	3221.3423
C1C2CC3=NON=C3C12	C1[C@H]2Cc3nonc3[C@@H]12	
InChI=1S/C6H6N2O/c1-3-2-5-6(4(1)3)8-9-7-5/h3-4H,1-2H2	InChI=1S/C6H6N2O/c1-3-2-5-6(4(1)3)8-9-7-5/h3-4H,1-2H2/t3-,4-/m0/s1
