21
gdb 104862	2.25093	1.22223	1.1303	3.3475	74.04	-0.242	0.0533	0.2953	1224.4625	0.181569	-461.337062	-461.32719	-461.326246	-461.371509	37.121	
O	 0.0313454385	 1.3795178618	-0.0574439804	-0.426984
C	 0.0004159346	-0.0357090343	 0.1518412968	-0.140639
C	-1.4485951132	-0.506882936	 0.0988468325	 0.249999
C	-2.2948158372	 0.165933906	 1.1825786439	-0.121905
O	-2.5789387446	 1.5243973288	 0.9078173983	-0.432263
C	-2.0409937145	-0.4813682271	-1.3440913292	-0.254765
C	-1.7012785484	-1.9891718643	-1.5016194167	-0.27555
C	-1.5344216869	-2.0747297081	 0.033883418	 0.099202
O	-0.5143250424	-2.8712844763	 0.5913920077	-0.429696
H	 0.9184253393	 1.6996870933	 0.1299675178	 0.294323
H	 0.6041955892	-0.5370770618	-0.6215811452	 0.074565
H	 0.4303831466	-0.2959963305	 1.1293254605	 0.107097
H	-3.2649790373	-0.34120735	 1.2501302104	 0.094234
H	-1.7998288747	 0.0427119375	 2.1629038219	 0.078988
H	-1.7342829696	 1.9307120091	 0.6728120178	 0.288469
H	-3.1152882943	-0.2862898475	-1.3328528571	 0.114317
H	-1.5734508166	 0.2101794041	-2.0465617377	 0.111138
H	-2.4420806993	-2.6441955284	-1.9653449098	 0.105495
H	-0.7446470836	-2.1419081031	-2.0149159038	 0.091245
H	-2.4599817281	-2.4062478115	 0.5154863312	 0.092365
H	 0.2562070625	-2.8214652018	 0.0171006831	 0.280365
83.4668	125.1267	131.8378	184.851	221.6592	274.1542	287.9971	293.8618	326.0306	362.5805	448.2866	474.264	542.0407	567.655	644.1919	740.8885	797.9051	900.999	941.4147	955.4356	961.8526	983.5944	1020.3934	1051.7373	1072.9084	1093.7741	1135.185	1173.9551	1194.3456	1213.9087	1236.6379	1246.1083	1256.2883	1262.5727	1300.9693	1322.0268	1346.3915	1374.7799	1429.4172	1453.9221	1467.0003	1480.5803	1496.247	1505.6484	1522.6739	2940.9729	2966.9524	3020.1067	3037.8608	3043.633	3060.3264	3078.0457	3104.4172	3131.1556	3755.4517	3819.2388	3833.8327
OCC1(CO)CCC1O	OCC1(CO)CC[C@H]1O	
InChI=1S/C6H12O3/c7-3-6(4-8)2-1-5(6)9/h5,7-9H,1-4H2	InChI=1S/C6H12O3/c7-3-6(4-8)2-1-5(6)9/h5,7-9H,1-4H2/t5-/m1/s1
