23
gdb 105669	1.75852	1.42548	1.18957	2.5536	85.87	-0.2418	-0.0187	0.2231	1266.6821	0.203894	-388.299298	-388.289038	-388.288094	-388.334641	37.81	
C	 0.1847377698	 1.6741545388	 0.3052437052	-0.402003
C	 0.0092226309	 0.1640473142	 0.0915484022	-0.242622
C	 0.642877101	-0.4054750717	-1.1946712535	 0.22659
C	 2.2120671957	-0.4676017616	-1.118691504	-0.27634
C	 2.1004908643	-1.9823783075	-0.8020989258	-0.233015
C	 0.6315185051	-1.9679807503	-1.3014171415	 0.009571
C	-0.4129674016	-2.7971701888	-0.5694182866	-0.423029
C	 0.1365666632	 0.312934452	-2.4213479726	 0.092521
O	-0.4864955961	-0.202603688	-3.316995347	-0.258743
H	 1.2364308203	 1.9733457699	 0.2438113282	 0.121167
H	-0.3718384092	 2.2635302761	-0.4291672656	 0.124533
H	-0.1811629002	 1.9600968388	 1.295895205	 0.119556
H	 0.4483577474	-0.3654977687	 0.9456025636	 0.104185
H	-1.0594526007	-0.0815878466	 0.0998625186	 0.110836
H	 2.6856952446	-0.2757451546	-2.0859510422	 0.108429
H	 2.6888797815	 0.1689556577	-0.3693519419	 0.102094
H	 2.7970018644	-2.6495967311	-1.3150837276	 0.099853
H	 2.1660873478	-2.1792370525	 0.2724970912	 0.099715
H	 0.59702639	-2.2191497252	-2.3658050787	 0.092486
H	-0.4289510497	-2.5902926533	 0.505698563	 0.109012
H	-1.4164841067	-2.610916374	-0.9662992253	 0.125271
H	-0.2027542757	-3.8653135023	-0.6935933172	 0.114532
H	 0.408423674	 1.3921462486	-2.4764548076	 0.075402
54.8538	91.3595	123.2503	177.6558	185.5893	232.6473	239.2465	292.3367	325.1845	334.7958	385.6221	491.9018	536.7199	664.2378	692.6411	784.3697	798.6128	871.3496	892.606	926.1145	941.9156	975.5438	1005.7064	1024.2606	1026.3378	1079.8604	1116.7732	1151.1063	1173.7325	1187.2719	1218.2302	1234.0325	1257.4161	1268.4787	1290.9126	1329.1208	1365.6909	1392.3109	1410.4576	1416.2328	1428.9023	1479.2698	1485.3099	1497.0339	1500.1816	1502.0819	1503.5026	1508.6932	1814.6867	2864.1644	3025.352	3030.6702	3039.5711	3050.4355	3054.9757	3061.205	3062.2979	3093.4419	3097.554	3102.5241	3105.6324	3110.5399	3114.7478
CCC1(CCC1C)C=O	CC[C@]1(CC[C@H]1C)C=O	
InChI=1S/C8H14O/c1-3-8(6-9)5-4-7(8)2/h6-7H,3-5H2,1-2H3	InChI=1S/C8H14O/c1-3-8(6-9)5-4-7(8)2/h6-7H,3-5H2,1-2H3/t7-,8+/m1/s1
