19
gdb 66107	2.63194	1.51863	1.3491	1.4668	80.4	-0.2542	0.0428	0.2969	1055.6894	0.158367	-385.851574	-385.843133	-385.842188	-385.884081	33.371	
C	 0.0295654661	 1.5290007322	-0.0396889223	-0.428337
C	 0.0169710746	 0.0007215807	 0.030875276	 0.151458
O	 0.7672496492	-0.4846484488	-1.0959424106	-0.280015
C	 1.2636680114	-1.7864712419	-0.7853249918	-0.106309
C	 1.5378039129	-1.766641719	 0.7076795017	-0.045976
C	 2.2452141448	-0.5382029512	 1.2197605661	-0.313574
C	 0.7393876224	-0.6041310202	 1.241322373	-0.052919
C	-1.3668813216	-0.5071451492	-0.0137665701	 0.353041
C	-2.4933597931	-0.9256665024	-0.0494839524	-0.488154
H	 1.0569639535	 1.8948727498	 0.0234325017	 0.122111
H	-0.4094879484	 1.8635258455	-0.9825271889	 0.134575
H	-0.5520994513	 1.9507685312	 0.7840048932	 0.124033
H	 0.51956383	-2.5604254765	-1.025730675	 0.103321
H	 2.1495972723	-1.9450938641	-1.4085924927	 0.108603
H	 1.6108929399	-2.7056981819	 1.2426279807	 0.090454
H	 2.7518035216	-0.6123904812	 2.1753728589	 0.111275
H	 2.7286065484	 0.1121664094	 0.4977902832	 0.123285
H	 0.2060283014	-0.6525058975	 2.1820541112	 0.097511
H	-3.4895484642	-1.2918616951	-0.088398562	 0.195617
115.0422	142.5026	211.7546	219.6404	263.3385	334.8484	374.5242	441.8479	470.2222	552.8072	624.0642	629.9146	659.8651	693.2593	742.2496	814.2434	836.6164	877.2893	905.8026	925.0774	981.4858	1012.0234	1052.6547	1073.9031	1078.7037	1100.8789	1118.0889	1142.6849	1179.4569	1192.3393	1207.0277	1244.9137	1331.1858	1358.8996	1392.2048	1405.0897	1476.2409	1481.6206	1489.9916	1510.5443	2227.9509	2995.9262	3052.4607	3073.8608	3130.6148	3131.8039	3135.4805	3185.2071	3196.2462	3220.372	3500.1621
CC1(OCC2CC12)C#C	C[C@]1(OC[C@H]2C[C@@H]12)C#C	
InChI=1S/C8H10O/c1-3-8(2)7-4-6(7)5-9-8/h1,6-7H,4-5H2,2H3	InChI=1S/C8H10O/c1-3-8(2)7-4-6(7)5-9-8/h1,6-7H,4-5H2,2H3/t6-,7-,8+/m1/s1
