21
gdb 42113	2.09299	1.72694	1.09523	1.3455	86.19	-0.2336	-0.01	0.2236	1159.6403	0.184422	-387.079532	-387.071152	-387.070208	-387.112243	32.871	
C	 0.0029742338	 1.5465043403	 0.1434563425	-0.219384
C	 1.435297715	 2.1021828176	-0.0332554182	-0.05005
O	 1.7464615287	 2.6797121827	-1.2879696889	-0.249718
C	 1.6083789335	 1.8341033701	-2.4205561992	-0.11162
C	 2.3666663754	 0.5347154749	-2.3448810577	-0.079376
C	 1.7920423577	-0.6736822423	-2.3421245524	-0.085192
C	 0.3378718213	-0.9127037847	-2.3285126736	-0.100648
C	-0.5032349926	-0.5673712758	-1.3478027596	-0.041677
C	-0.1420983884	 0.0039577193	 0.002612932	-0.242981
H	-0.311494199	 1.808976448	 1.1600914693	 0.098351
H	-0.6807263219	 2.0760434352	-0.5290256725	 0.110041
H	 1.5927056339	 2.9219052603	 0.6745388874	 0.102538
H	 2.1592042515	 1.31098358	 0.2174493389	 0.086032
H	 0.5505575525	 1.6281280095	-2.6247785071	 0.09848
H	 1.9972750385	 2.4316142702	-3.2538646662	 0.107078
H	 3.4524239955	 0.6082140963	-2.3486596614	 0.092378
H	 2.4303039843	-1.55571153	-2.4056720667	 0.096607
H	-0.0689004021	-1.4269368769	-3.1995693347	 0.093369
H	-1.5613013613	-0.7732325676	-1.5012443461	 0.087959
H	 0.7935968991	-0.4513470626	 0.348360869	 0.108887
H	-0.9163366355	-0.3241114746	 0.7051212453	 0.098926
116.9309	136.8512	184.9286	229.5133	294.9692	320.076	348.9376	447.1774	465.613	481.9412	596.8519	696.056	715.5558	772.2247	788.4627	894.451	914.9707	932.02	980.4843	989.7737	1002.6192	1012.2764	1018.0313	1070.0374	1088.0002	1097.5566	1139.7638	1204.6483	1234.9439	1259.7552	1287.6418	1301.4296	1335.8661	1348.6501	1363.5706	1381.4756	1410.053	1423.1365	1444.5578	1473.6416	1483.718	1495.3513	1499.074	1695.8856	1705.4853	2978.9417	3022.2658	3024.2169	3033.8831	3060.8078	3064.2094	3074.15	3080.9766	3111.3426	3117.7485	3144.9619	3153.4908
C1COCC=CC=CC1	C1COCC=CC=CC1	
InChI=1S/C8H12O/c1-2-4-6-8-9-7-5-3-1/h1-3,5H,4,6-8H2/b2-1-,5-3-	InChI=1S/C8H12O/c1-2-4-6-8-9-7-5-3-1/h1-3,5H,4,6-8H2/b2-1-,5-3-
