19
gdb 108826	3.35899	1.00335	0.83798	3.6336	73.89	-0.2495	0.0054	0.2549	1370.5906	0.158806	-460.162764	-460.153539	-460.152594	-460.19695	34.513	
O	-0.0118051763	 1.4228022588	 0.4401253238	-0.412963
C	-0.0264714578	 0.0653689746	 0.0437595834	-0.17564
C	-1.4339455562	-0.4207943387	-0.0695249894	 0.303395
C	-2.5421623616	 0.2760151333	 0.2063708251	-0.211499
C	-3.7825577933	-0.5229462815	-0.0725658804	 0.040463
O	-4.4326477194	-0.1295839065	-1.2979980652	-0.443029
C	-3.2506415565	-1.984989677	-0.1872181243	 0.130587
O	-3.9922448251	-2.7526839086	-1.0998863941	-0.4448
C	-1.7445297358	-1.825489632	-0.5347963092	-0.348719
H	 0.9036470254	 1.6959384507	 0.5460136285	 0.292345
H	 0.4809420073	-0.0802162503	-0.9269581676	 0.099812
H	 0.5111383605	-0.5754487503	 0.7652944604	 0.102534
H	-2.5575008371	 1.3068310442	 0.5356959493	 0.114572
H	-4.5599177234	-0.4323219952	 0.6915596134	 0.089188
H	-3.748352666	 0.2205023972	-1.8801027182	 0.2823
H	-3.328941357	-2.4580209426	 0.7993827085	 0.084214
H	-4.4466828972	-2.1017680655	-1.6571818207	 0.282037
H	-1.5862071805	-1.9405734251	-1.615147905	 0.109887
H	-1.1213156201	-2.5845638356	-0.0479972984	 0.105317
67.3982	111.8736	140.1817	186.0333	238.1871	300.9738	329.3867	353.0677	395.4957	457.4049	500.1966	554.8401	574.8429	661.6669	735.4252	811.7951	858.6691	877.3368	944.3393	987.7736	1024.5397	1041.489	1072.8767	1088.5425	1123.5658	1161.0779	1180.7219	1213.1929	1225.4948	1253.3563	1265.7622	1289.2377	1315.7138	1332.6565	1377.7673	1414.4771	1446.4674	1465.6371	1484.534	1502.0135	1706.7103	2941.3568	2954.8238	3023.2401	3026.6629	3062.0728	3072.3601	3223.4975	3693.1872	3797.6186	3840.4153
OCC1=CC(O)C(O)C1	OCC1=C[C@@H](O)[C@@H](O)C1	
InChI=1S/C6H10O3/c7-3-4-1-5(8)6(9)2-4/h1,5-9H,2-3H2	InChI=1S/C6H10O3/c7-3-4-1-5(8)6(9)2-4/h1,5-9H,2-3H2/t5-,6+/m1/s1
