23
gdb 115641	2.61171	1.1568	0.94447	1.959	85.32	-0.2405	0.0693	0.3098	1363.7059	0.205753	-388.262524	-388.253142	-388.252197	-388.297369	34.999	
C	 0.0569338344	 1.7015116648	-0.1554378586	-0.382828
C	-0.25554852	 0.2223134038	-0.40818561	-0.205559
C	 0.857848843	-0.4958099667	-1.1598027289	-0.008408
C	 2.2064661581	-0.7790657828	-0.4373708143	-0.233462
C	 2.257038583	-2.1546690144	-1.1527058555	-0.296759
C	 0.749052382	-2.0176895116	-1.4735838811	 0.279174
C	-0.2727064521	-2.9260786191	-0.7496879888	-0.126192
O	-0.8093237043	-3.3998756618	-2.0009735799	-0.275668
C	 0.1014034475	-2.5727498641	-2.7523116531	-0.138467
H	 0.9767571186	 1.8179257786	 0.4277755362	 0.119322
H	 0.1927578033	 2.2432333472	-1.0980538561	 0.114579
H	-0.751353072	 2.1901668508	 0.3970878339	 0.113225
H	-0.4297937803	-0.2802347256	 0.5521857499	 0.094244
H	-1.1937141077	 0.136075778	-0.9728756921	 0.099913
H	 1.0540439476	 0.0317648054	-2.1034260167	 0.067156
H	 3.0339603763	-0.087218978	-0.6092256489	 0.097446
H	 2.0640544307	-0.8865889963	 0.643221946	 0.099309
H	 2.8649131716	-2.1240628956	-2.0627670584	 0.101335
H	 2.561100619	-3.0247555022	-0.5640629329	 0.09956
H	 0.1646996343	-3.73984201	-0.1552565434	 0.094048
H	-1.0365811438	-2.4187563194	-0.1474014665	 0.098862
H	-0.4281948263	-1.8336644897	-3.3702038383	 0.093774
H	 0.7622350174	-3.1663896112	-3.3991501727	 0.095393
53.1319	91.6906	103.215	168.4986	209.4233	249.6653	293.074	341.5065	422.761	471.618	504.904	699.0359	757.4536	800.4443	852.4418	876.239	894.2288	932.6768	945.5001	960.4596	966.4938	994.6645	1008.2948	1040.7508	1072.5135	1116.7346	1150.5856	1161.1708	1163.8857	1186.8831	1198.0046	1218.5522	1249.52	1266.9585	1276.0866	1289.8146	1299.5404	1314.2783	1343.6525	1385.022	1392.7291	1411.3739	1479.1093	1484.3628	1498.3377	1500.0873	1506.7113	1509.6898	1534.2187	2987.405	3003.2564	3007.2581	3012.0003	3030.6829	3031.464	3044.4827	3045.5171	3048.7871	3050.9101	3093.2871	3098.1058	3104.0885	3109.9897
CCC1CCC11COC1	CC[C@H]1CCC21COC2	
InChI=1S/C8H14O/c1-2-7-3-4-8(7)5-9-6-8/h7H,2-6H2,1H3	InChI=1S/C8H14O/c1-2-7-3-4-8(7)5-9-6-8/h7H,2-6H2,1H3/t7-/m0/s1
