21
gdb 96382	2.3988	1.58086	1.26142	1.7875	77.74	-0.2447	0.0797	0.3244	1094.2306	0.184331	-424.219614	-424.211404	-424.21046	-424.251953	33.077	
O	 0.028156687	 1.4189497611	-0.0136238324	-0.447585
C	-0.0144923408	-0.0029148402	-0.0195893279	 0.055072
C	 0.7088391817	-0.5476337809	 1.215622846	-0.116319
O	 0.022485585	-0.1305512923	 2.3907580215	-0.262228
C	-1.2810596537	-0.7005949808	 2.4674423375	-0.074676
C	-2.1562149565	-0.2549617148	 1.2910979761	-0.303174
C	-1.4456941474	-0.5297964947	-0.025414419	 0.389011
C	-2.2187431819	-0.5071349133	-1.3115000788	-0.329496
C	-1.7160736378	-1.8222244735	-0.7607805151	-0.317698
H	-0.0805135362	 1.6879603347	 0.9068845748	 0.284796
H	 0.5053726889	-0.32454319	-0.9298858819	 0.072453
H	 0.7758475284	-1.6462562794	 1.1753060016	 0.092414
H	 1.7177736322	-0.1312445353	 1.283637508	 0.112191
H	-1.200727419	-1.8000134403	 2.4844551587	 0.091359
H	-1.6996800573	-0.3747727249	 3.4238772626	 0.107891
H	-3.1250609259	-0.7657521412	 1.3292837868	 0.095202
H	-2.355789336	 0.820369725	 1.3818136874	 0.106579
H	-3.2845140975	-0.308392821	-1.2620964701	 0.108918
H	-1.7310780761	-0.0975552184	-2.1898315397	 0.118116
H	-0.8915068574	-2.3080916832	-1.2733477597	 0.109362
H	-2.4394321796	-2.5117441968	-0.3378248566	 0.107811
114.4109	161.5576	221.3302	272.2536	296.0084	368.0221	401.5119	419.7951	427.4748	495.723	574.7199	665.8381	750.2735	779.2312	843.6706	872.874	907.8207	920.0899	943.295	957.6833	990.4151	1014.617	1039.8643	1052.7783	1080.6089	1095.3881	1128.8846	1130.9597	1185.7224	1210.4043	1237.9924	1266.8915	1286.8717	1317.2106	1328.922	1355.3645	1379.1581	1403.4389	1421.0467	1424.3649	1468.6874	1481.0579	1484.2071	1498.1374	1507.6697	2972.8564	2986.0982	3025.2099	3041.8883	3070.5416	3087.4851	3092.7945	3123.2516	3129.0467	3200.8155	3216.0093	3781.5662
OC1COCCC11CC1	O[C@H]1COCCC21CC2	
InChI=1S/C7H12O2/c8-6-5-9-4-3-7(6)1-2-7/h6,8H,1-5H2	InChI=1S/C7H12O2/c8-6-5-9-4-3-7(6)1-2-7/h6,8H,1-5H2/t6-/m0/s1
