17
gdb 85798	2.55165	1.21926	1.1843	5.5965	75.57	-0.2651	0.0039	0.2689	1166.958	0.135034	-418.04726	-418.037829	-418.036885	-418.081662	32.942	
C	-0.0197720958	 1.4615220248	 0.0888919878	-0.347361
N	-0.0066073585	 0.0218363548	 0.0279118785	-0.078354
C	-1.0853938894	-0.9650891222	 0.0220859452	-0.209113
C	 0.0168200067	-2.0821568498	 0.0033418752	-0.018121
C	 0.1202181563	-2.9643356664	 1.2514994799	-0.443884
C	 0.039057871	-2.8641577998	-1.2236873344	 0.25564
N	 0.051050937	-3.4873594269	-2.1975123791	-0.334015
C	 1.0264299524	-0.8708889	 0.0026298554	 0.400033
O	 2.2198041154	-0.7555279826	 0.0170851852	-0.360221
H	 1.0177119467	 1.8029018042	 0.0890244082	 0.169775
H	-0.5349550849	 1.8911997462	-0.7778559774	 0.139919
H	-0.5115852706	 1.8184366671	 1.0015254902	 0.134841
H	-1.7008260247	-0.9634359832	 0.9285386305	 0.121076
H	-1.7262448873	-0.9272168945	-0.8638759875	 0.135857
H	-0.6960299244	-3.6905634261	 1.2885141689	 0.141307
H	 1.0688386431	-3.5063054574	 1.2476239958	 0.160508
H	 0.082528287	-2.3441631382	 2.1515671775	 0.132112
80.5056	119.5362	139.5262	165.7593	195.5932	211.1467	244.8663	251.4522	351.017	430.0364	515.7218	594.7993	606.3959	732.0738	786.5117	812.2689	936.8061	938.5894	987.7736	1046.2593	1123.2677	1129.1254	1165.8048	1179.214	1234.6546	1268.0373	1314.4701	1406.4778	1425.6398	1450.7502	1482.1566	1487.8386	1495.3936	1510.4801	1532.6721	1896.2697	2353.2607	3022.1318	3036.9765	3048.0808	3077.3734	3091.5512	3123.968	3134.0864	3136.6706
CN1CC(C)(C#N)C1=O	CN1C[C@@](C)(C#N)C1=O	
InChI=1S/C6H8N2O/c1-6(3-7)4-8(2)5(6)9/h4H2,1-2H3	InChI=1S/C6H8N2O/c1-6(3-7)4-8(2)5(6)9/h4H2,1-2H3/t6-/m1/s1
