15
gdb 130143	3.39497	1.24622	0.91474	3.3986	75.07	-0.2049	-0.0503	0.1547	1191.6212	0.114405	-450.15513	-450.146571	-450.145627	-450.18812	31.42	
N	-0.0081776188	 1.3865240741	 0.1018273957	-0.604345
C	 0.0472092041	-0.0132322688	 0.0188197054	 0.322439
N	-1.0333068398	-0.7928417827	 0.0500945914	-0.273524
N	-0.5644059284	-2.0426782475	 0.0267336479	-0.270378
C	 0.8041837961	-2.1031059104	-0.0328109524	 0.255732
C	 1.4964729004	-3.3681928859	-0.0605422079	 0.071555
O	 0.9355936558	-4.4488653882	-0.0399089174	-0.312053
C	 1.2399427531	-0.7758602572	-0.0294702376	 0.067973
N	 2.5183318332	-0.2372199934	-0.1092208186	-0.621249
H	 0.3712442667	 1.8326368874	-0.7276175391	 0.250342
H	-0.965678957	 1.6953966536	 0.2262265313	 0.254158
H	-1.1834331835	-2.8348419774	 0.050817061	 0.286225
H	 2.6053366042	-3.297102083	-0.1033876062	 0.061205
H	 3.2615071083	-0.8594446929	 0.1760777504	 0.253327
H	 2.5869112855	 0.6491596822	 0.3770977759	 0.258592
111.9476	157.3194	177.6483	217.1157	245.8668	309.2524	340.5566	357.2931	392.0373	462.7886	550.6395	644.4846	663.9423	703.8752	751.1552	792.1716	817.1158	849.6441	1000.3099	1019.4275	1118.7714	1226.1572	1241.4573	1278.2475	1319.5238	1418.5884	1463.6326	1504.3116	1573.3285	1607.4316	1648.6317	1661.6572	1757.5339	2884.5148	3502.3192	3530.9247	3597.6644	3635.0529	3683.5612
NC1=NNC(C=O)=C1N	Nc1n[nH]c(C=O)c1N	
InChI=1S/C4H6N4O/c5-3-2(1-9)7-8-4(3)6/h1H,5H2,(H3,6,7,8)	InChI=1S/C4H6N4O/c5-3-2(1-9)7-8-4(3)6/h1H,5H2,(H3,6,7,8)
