16
gdb 18060	5.49723	1.22547	1.19978	1.9534	70.01	-0.2405	0.0572	0.2977	1033.3464	0.12962	-346.517516	-346.510074	-346.50913	-346.549651	27.981	
C	 0.0244967847	-1.129454872	 0.2582330122	-0.45296
C	-0.0121381799	 0.0557429974	 0.0621574402	 0.30555
C	-0.0267839162	 1.4937684662	-0.1843326136	-0.383649
C	 1.3673148119	 2.1035469353	-0.1188530318	-0.023965
C	 1.6548580486	 3.594943404	-0.1298197418	-0.170254
C	 0.6510471833	 4.3329342119	 0.7484898809	-0.092282
O	 0.8771539352	 3.4148596934	 1.8527134724	-0.281041
C	 1.9108857829	 2.7594658011	 1.1111428593	 0.096024
H	 0.0434458099	-2.1756672408	 0.4381958343	 0.193788
H	-0.4774900405	 1.6920901823	-1.1653644029	 0.128388
H	-0.6617474575	 1.9822929149	 0.5629120863	 0.149007
H	 2.1247929333	 1.5464205901	-0.6648421633	 0.10355
H	 2.3408329638	 4.0555120557	-0.8279022275	 0.100716
H	 0.9786292904	 5.3416909547	 1.0222480465	 0.113104
H	-0.3983792588	 4.3603901724	 0.4319515433	 0.107584
H	 2.8097290989	 2.4742264234	 1.6455641956	 0.10644
54.842	127.8387	217.6703	253.3602	339.0495	418.0881	489.5894	593.2072	615.7266	639.8495	742.8365	787.5055	810.1317	889.2778	945.8032	967.331	976.1842	981.8384	1019.8845	1038.5095	1055.7606	1079.1917	1118.2574	1164.5581	1175.2522	1248.2724	1260.789	1304.1071	1325.4326	1364.1316	1438.4139	1466.945	1516.7434	2239.6406	3022.6261	3026.0893	3069.3668	3074.1012	3148.1851	3180.3975	3203.4822	3506.234
C#CCC1C2COC12	C#CC[C@H]1[C@H]2CO[C@@H]12	
InChI=1S/C7H8O/c1-2-3-5-6-4-8-7(5)6/h1,5-7H,3-4H2	InChI=1S/C7H8O/c1-2-3-5-6-4-8-7(5)6/h1,5-7H,3-4H2/t5-,6+,7-/m0/s1
