17
gdb 41073	3.99358	1.86711	1.65939	1.6639	73.9	-0.2235	0.073	0.2965	839.0297	0.137948	-384.556022	-384.550291	-384.549347	-384.585672	25.38	
C	 0.0116062929	 1.4577821063	-0.2404475976	-0.153554
O	 1.3824803596	 1.5861309923	 0.288637023	-0.35939
C	 1.1841245056	 0.3185716359	 0.8839754429	 0.499511
C	 1.970900426	-0.8894656719	 1.4027625451	-0.19181
C	 0.714495919	-1.7927210162	 1.6091340836	-0.063965
C	 1.2484852541	-0.9327269563	 2.7282043263	-0.100342
C	 0.2919259139	 0.1689269573	 2.1931992944	-0.139392
C	-0.4814248851	-0.8231188138	 1.257205899	-0.105787
C	 0.0125591193	-0.0886834836	-0.0049823994	-0.10769
H	-0.6953910928	 2.0401850792	 0.3593856237	 0.111001
H	-0.0280505587	 1.7768776651	-1.2838074061	 0.117283
H	 2.921922506	-1.3121767021	 1.1066830917	 0.093726
H	 0.7675217046	-2.8674852171	 1.488130669	 0.089342
H	 1.5942003958	-1.1897967931	 3.7209193434	 0.088881
H	-0.1293843984	 1.0098994464	 2.7355830954	 0.077342
H	-1.4914619685	-1.1939548699	 1.4314095747	 0.066923
H	 0.1836120666	-0.6635820585	-0.917400679	 0.077923
253.8703	339.051	376.5088	525.7274	539.3994	681.9665	745.3767	754.8678	782.1145	788.2089	824.996	834.419	861.4222	879.3568	895.8566	914.9055	932.4188	983.6254	1006.6073	1016.7005	1034.882	1048.7171	1066.7759	1083.9624	1088.408	1152.5049	1164.9353	1170.1354	1181.2815	1210.0894	1235.6277	1247.3407	1301.7471	1316.0385	1331.9294	1362.4391	1505.5148	3046.7679	3085.9566	3110.4172	3117.5969	3163.6193	3187.0053	3193.4052	3207.5405
C1OC23C4C5C4C2C5C13	C1O[C@@]23[C@@H]4[C@H]5[C@@H]4[C@@H]2[C@H]5[C@@H]13	
InChI=1S/C8H8O/c1-2-3-4-5-6(3)8(2,9-1)7(4)5/h2-7H,1H2	InChI=1S/C8H8O/c1-2-3-4-5-6(3)8(2,9-1)7(4)5/h2-7H,1H2/t2-,3+,4-,5-,6+,7-,8-/m1/s1
