19
gdb 60239	3.0903	1.06868	0.83465	3.6083	72.59	-0.2541	-0.002	0.2521	1384.5065	0.157231	-460.182663	-460.173245	-460.172301	-460.21766	33.834	
C	 0.1010230465	 1.5394818671	-0.0458432016	-0.398226
C	-0.0062052936	 0.0173088805	 0.0319420705	 0.134135
C	-1.4482410953	-0.4733106782	 0.0048786465	-0.389844
O	 0.650462993	-0.6164467652	-1.0799865862	-0.259804
C	 2.0307376416	-0.7243911696	-0.9980687287	-0.043897
C	 2.6691489855	-1.6332406372	-2.063631498	-0.113226
O	 3.5290735347	-0.5345776803	-2.5054259723	-0.235433
C	 2.9291797183	 0.3609032429	-1.6570178343	 0.426524
O	 3.1321478909	 1.528809154	-1.5681735314	-0.318017
H	 1.1417352518	 1.8698461923	-0.0796461083	 0.151564
H	-0.3989294352	 1.9064347831	-0.9480395111	 0.123864
H	-0.3820097985	 1.9947697027	 0.8248963745	 0.111785
H	 0.4800009419	-0.3352669229	 0.9564564542	 0.071698
H	-1.9353136059	-0.1655308822	-0.9256013675	 0.128592
H	-1.4882043031	-1.5637659908	 0.070200538	 0.119844
H	-2.0101950491	-0.0513347098	 0.8430063726	 0.118869
H	 2.3685056145	-0.9419991467	 0.0262299157	 0.104487
H	 3.2637930212	-2.4783334815	-1.7138895009	 0.128016
H	 1.9763691007	-1.9311979586	-2.8523365416	 0.139069
43.2442	92.1858	126.5065	208.0699	212.5665	225.7829	267.9527	316.4749	395.5967	452.5447	464.2368	520.106	710.3941	754.5604	816.9308	867.3005	931.345	934.5663	944.2621	957.7067	975.1887	1087.7298	1119.9751	1147.3708	1156.8812	1166.0044	1187.4131	1210.8328	1240.4778	1323.4393	1360.7937	1368.3057	1402.8584	1419.172	1425.659	1480.9372	1486.6298	1498.8325	1508.8566	1511.3265	1930.7136	2968.2522	2998.2806	3038.8432	3044.8634	3081.6939	3108.2761	3118.9499	3123.6556	3132.9112	3149.0004
CC(C)OC1COC1=O	CC(C)O[C@H]1COC1=O	
InChI=1S/C6H10O3/c1-4(2)9-5-3-8-6(5)7/h4-5H,3H2,1-2H3	InChI=1S/C6H10O3/c1-4(2)9-5-3-8-6(5)7/h4-5H,3H2,1-2H3/t5-/m0/s1
