18
gdb 17823	4.74358	1.20962	1.07822	2.1262	68.03	-0.2488	0.0797	0.3286	1122.6915	0.152983	-384.895566	-384.88732	-384.886376	-384.929693	29.008	
C	 0.0121939027	 1.4884899403	-0.3456692274	-0.423149
C	-0.0712314576	 0.0391239216	 0.0601850263	 0.070678
O	 1.1369336245	-0.7293539189	 0.0286352979	-0.265878
C	 0.4954641098	-0.5337481963	 1.2952076562	 0.050608
C	 1.2496506008	 0.2382286148	 2.3395959837	-0.061832
C	 0.4992955638	 0.5078674971	 3.6667859673	-0.084788
O	 1.4606570119	-0.2491355408	 4.4253081082	-0.271104
C	 2.2101800397	-0.580054149	 3.2382000137	-0.081154
H	 0.8760062749	 1.9890550368	 0.095692386	 0.129769
H	 0.0984963613	 1.5675266784	-1.4343467899	 0.133317
H	-0.8957084802	 2.021899118	-0.0436045743	 0.123775
H	-0.9283697105	-0.4913712142	-0.3612759385	 0.089705
H	 0.0131810622	-1.4359950106	 1.6825535929	 0.091162
H	 1.7165322744	 1.1225017024	 1.9064951715	 0.085362
H	 0.452721661	 1.5565481763	 3.9842259132	 0.10308
H	-0.5087130475	 0.0752383625	 3.7299222973	 0.099073
H	 2.222183542	-1.6607278829	 3.0453705198	 0.105941
H	 3.2430045069	-0.2162397855	 3.2880259861	 0.105435
40.4137	50.5637	142.7495	183.8593	216.9824	332.6785	394.5704	422.9774	538.6637	765.9666	792.3826	839.3046	885.0923	904.7935	961.0581	988.25	998.4625	1028.5969	1046.8004	1081.6482	1109.742	1145.8493	1161.1644	1163.9162	1177.1633	1214.3104	1245.862	1298.9815	1310.243	1313.8393	1381.81	1404.592	1422.3283	1471.6667	1489.7256	1512.5177	1513.4639	1538.4374	3001.2878	3015.6186	3040.1395	3048.4833	3057.9016	3063.2147	3082.1801	3100.8322	3113.689	3136.9252
CC1OC1C1COC1	C[C@H]1O[C@H]1C1COC1	
InChI=1S/C6H10O2/c1-4-6(8-4)5-2-7-3-5/h4-6H,2-3H2,1H3	InChI=1S/C6H10O2/c1-4-6(8-4)5-2-7-3-5/h4-6H,2-3H2,1H3/t4-,6-/m1/s1
