18
gdb 75338	2.6444	1.66585	1.16183	3.0875	79.52	-0.2334	-0.0487	0.1847	1076.9304	0.148478	-401.958924	-401.950938	-401.949994	-401.991379	30.621	
C	-0.3571873945	 1.4831187913	 0.0464898047	-0.477137
C	-0.0509246858	 0.0147516122	-0.0364449887	 0.176185
C	-0.0863228686	-0.7001592514	-1.1706856195	-0.139396
C	 0.1495213661	-2.182306425	-1.248250007	-0.214894
N	 0.8186792148	-2.8060846891	-0.1049704689	-0.106615
C	 2.072374388	-2.2270747719	 0.3316499621	-0.249531
C	 0.8319328249	-2.0519148715	 1.159544863	-0.122437
C	 0.2438271993	-0.6794881885	 1.2447963213	 0.350859
O	 0.0178060788	-0.1654667479	 2.325130404	-0.339295
H	 0.5045458692	 2.0440931256	 0.4244634957	 0.136641
H	-0.6361889276	 1.8864408875	-0.9300158549	 0.115292
H	-1.1714819959	 1.6608952712	 0.7553543015	 0.149277
H	-0.3384306487	-0.2077705609	-2.1093217665	 0.100307
H	-0.8161194611	-2.6898430747	-1.3876408365	 0.131672
H	 0.7381596586	-2.4194224115	-2.1438509423	 0.123953
H	 2.825373017	-2.9375529892	 0.660477384	 0.128871
H	 2.4539613834	-1.3466103427	-0.1807021721	 0.122145
H	 0.7132682022	-2.6395320537	 2.06520965	 0.1141
90.005	140.2022	203.9786	278.4812	290.1752	337.4894	388.2319	437.1825	491.7284	559.3885	676.7208	721.6005	753.1025	780.6673	866.9549	892.1408	917.4864	947.7969	1019.9187	1033.364	1072.5424	1075.9469	1097.1491	1116.8344	1156.2153	1163.4888	1256.6746	1270.4342	1308.6364	1353.3683	1380.7827	1387.9295	1412.9366	1469.3319	1472.7854	1487.2051	1499.3349	1708.472	1761.019	3002.5795	3039.9573	3041.4625	3097.7398	3103.6387	3125.4982	3133.8086	3157.8527	3194.153
CC1=CCN2CC2C1=O	CC1=CCN2C[C@H]2C1=O	
InChI=1S/C7H9NO/c1-5-2-3-8-4-6(8)7(5)9/h2,6H,3-4H2,1H3	InChI=1S/C7H9NO/c1-5-2-3-8-4-6(8)7(5)9/h2,6H,3-4H2,1H3/t6-,8?/m0/s1
