18
gdb 50324	3.04467	1.53874	1.52065	1.0493	73.85	-0.236	-0.026	0.21	955.3542	0.149697	-401.926181	-401.919054	-401.91811	-401.958012	27.899	
O	-0.6782273035	 0.8250310609	-0.5285462793	-0.243047
C	 0.2039212321	 0.9627727143	 0.280943957	 0.152404
C	 1.3539509136	 1.9448977336	 0.1732252735	-0.115922
C	 1.3771246963	 2.803330776	-1.1113589133	-0.236577
C	 0.9358736948	 4.1784245094	-0.6177760043	 0.007418
C	-0.4950635912	 4.1749836892	-0.017823991	-0.258004
C	 0.1858246748	 3.9924148753	 1.33168299	-0.035831
C	 1.2897835108	 2.9940586502	 1.2942250835	-0.05024
N	 1.5503707603	 4.3526484242	 0.778837625	-0.148543
H	 0.2173761466	 0.3521247468	 1.2128034814	 0.081834
H	 2.2757303473	 1.3619686162	 0.2963414531	 0.098966
H	 2.3909778954	 2.8489527832	-1.5191825952	 0.108194
H	 0.7086693457	 2.401607963	-1.8767699307	 0.129963
H	 1.183508148	 5.0037896484	-1.2842052311	 0.081938
H	-0.9627618255	 5.1594853588	-0.0864048222	 0.111949
H	-1.1992333794	 3.4137952339	-0.3622968742	 0.124574
H	-0.1638036934	 4.4017014424	 2.2752531608	 0.093375
H	 1.7817207673	 2.774464224	 2.236400827	 0.097549
78.6013	134.0003	224.3259	298.6653	374.268	451.3892	592.8367	666.9383	703.4562	755.236	783.1058	804.7073	830.4173	850.0613	875.2345	956.0391	989.653	992.7699	1006.1605	1032.1612	1056.9271	1086.6871	1098.4222	1103.4168	1149.9746	1183.992	1194.3861	1239.3176	1257.2959	1275.32	1312.5106	1320.2976	1342.0298	1366.3535	1396.5562	1430.4272	1478.4757	1500.0568	1823.4429	2869.5847	3026.1546	3062.1334	3066.727	3114.6742	3116.6331	3124.2566	3148.0108	3165.0821
O=CC1CC2CC3C1N23	O=C[C@H]1C[C@H]2C[C@H]3[C@@H]1N23	
InChI=1S/C7H9NO/c9-3-4-1-5-2-6-7(4)8(5)6/h3-7H,1-2H2	InChI=1S/C7H9NO/c9-3-4-1-5-2-6-7(4)8(5)6/h3-7H,1-2H2/t4-,5+,6+,7-,8?/m1/s1
