20
gdb 102455	1.98361	1.40594	0.92077	2.7516	78.07	-0.2451	-0.0707	0.1744	1322.8717	0.168617	-440.321499	-440.311004	-440.310059	-440.357787	36.51	
C	 0.2459250405	 1.3756793339	 0.0014667079	-0.3776
C	 0.0043601913	-0.1271213284	 0.1592303889	-0.15491
N	-1.4143348374	-0.4959571946	 0.1010341035	-0.092009
C	-1.9911730785	-0.7340279782	-1.2274010477	-0.158248
C	-1.901632703	-2.1998986705	-1.6594642974	-0.379259
C	-2.2286779256	-0.6877667788	 1.1678033127	 0.31757
O	-3.3896291388	-1.0728261937	 1.0833863255	-0.381417
C	-1.7488408042	-0.3766414381	 2.5920110654	 0.091172
O	-0.789208556	 0.2692250061	 2.9238800757	-0.248838
H	 1.3206723559	 1.5809716171	-0.0282112299	 0.120377
H	-0.1965316516	 1.7582016865	-0.9236517413	 0.118817
H	-0.1834971446	 1.9181093195	 0.8464963946	 0.141964
H	 0.5068300482	-0.6776999374	-0.6442078875	 0.107829
H	 0.4293666252	-0.4719916623	 1.1002231081	 0.141804
H	-3.0362834586	-0.4201765661	-1.1962122194	 0.14088
H	-1.4619916314	-0.0889726324	-1.9356202833	 0.107023
H	-0.864729857	-2.5511182681	-1.6743411656	 0.117291
H	-2.4743414231	-2.8293814463	-0.9744142022	 0.146937
H	-2.3137866528	-2.3218843118	-2.665970892	 0.120584
H	-2.4788114483	-0.7882388864	 3.3182240339	 0.120032
55.1737	69.9664	111.5127	119.1276	137.2794	217.3786	221.3799	255.9608	324.2038	339.3139	416.2157	469.0914	519.767	598.7319	677.9975	719.5585	784.553	790.0107	930.7909	954.14	1024.0564	1036.5186	1088.8228	1101.5976	1117.8459	1188.2282	1242.545	1310.5097	1341.2174	1378.0982	1383.0734	1399.9271	1407.8084	1412.0269	1467.15	1475.9726	1490.0538	1493.3118	1497.6367	1504.8155	1508.3791	1728.431	1822.2824	2943.7992	3040.4628	3042.985	3043.6007	3057.7706	3103.3549	3108.2123	3120.5258	3134.2111	3135.7844	3151.179
CCN(CC)C(=O)C=O	CCN(CC)C(=O)C=O	
InChI=1S/C6H11NO2/c1-3-7(4-2)6(9)5-8/h5H,3-4H2,1-2H3	InChI=1S/C6H11NO2/c1-3-7(4-2)6(9)5-8/h5H,3-4H2,1-2H3
