19
gdb 90192	3.97907	1.52107	1.3697	1.3904	79.31	-0.2583	0.076	0.3343	980.4308	0.16136	-385.804496	-385.797755	-385.796811	-385.835296	28.544	
O	-0.0217158997	 1.4270635219	 0.0341527837	-0.44007
C	-0.0026875237	 0.0091476824	-0.0123659906	 0.123851
C	 0.5523396224	-0.6595903708	 1.3149718707	-0.393784
C	-0.7330160455	-1.3505218229	 1.7148945085	 0.342313
C	-1.5560483922	-2.2447672358	 2.6691125755	-0.354275
C	-2.5436193608	-1.8644670231	 1.5176943773	-0.090618
C	-1.9573337263	-0.4241227841	 1.4083892768	-0.034546
C	-1.4669059614	-0.4936047318	-0.0529151024	-0.08245
C	-1.4192446478	-1.9529379138	 0.4425618618	-0.058078
H	 0.8876876569	 1.7409903416	 0.0309854655	 0.28211
H	 0.5638125181	-0.3380790746	-0.8895429869	 0.061213
H	 1.384355175	-1.3447430386	 1.1235375898	 0.094318
H	 0.882479888	 0.1139924802	 2.015048369	 0.097899
H	-1.2624502955	-3.2973834611	 2.7397214981	 0.092428
H	-1.7786781047	-1.8408029677	 3.6621812321	 0.094185
H	-3.5866013693	-2.1651721576	 1.4123198687	 0.068809
H	-2.2390263871	 0.4497781298	 1.996614207	 0.073175
H	-2.0619722598	-0.1613779544	-0.9052660981	 0.060447
H	-1.0783724567	-2.8492732698	-0.0803141462	 0.063075
121.8404	288.0988	296.4083	370.4345	395.3637	472.5573	496.0709	675.755	719.736	759.9726	798.1381	819.7435	854.471	871.8966	880.9726	923.9788	930.6279	955.137	982.5927	995.2935	1011.96	1048.2329	1053.4248	1098.5324	1129.29	1140.4337	1142.3918	1171.9247	1186.5758	1192.0102	1205.0381	1207.9033	1232.8643	1255.4298	1286.2477	1302.2479	1325.0045	1346.4544	1418.1709	1486.7343	1508.2513	2982.8043	3034.8822	3044.153	3083.8398	3092.841	3093.978	3099.8665	3102.0671	3116.1491	3820.2157
OC1CC23CC4C2C1C34	O[C@H]1C[C@@]23C[C@H]4[C@@H]2[C@@H]1[C@@H]34	
InChI=1S/C8H10O/c9-4-2-8-1-3-6(8)5(4)7(3)8/h3-7,9H,1-2H2	InChI=1S/C8H10O/c9-4-2-8-1-3-6(8)5(4)7(3)8/h3-7,9H,1-2H2/t3-,4-,5+,6+,7-,8-/m0/s1
