14
gdb 18175	4.85604	1.73935	1.39248	1.7264	70.79	-0.245	-0.0387	0.2062	864.4572	0.10799	-341.529792	-341.523196	-341.522252	-341.560415	25.338	
C	 0.078085985	-1.1434309762	 0.0278840216	-0.362134
C	-0.005996461	 0.0558094258	 0.0187536513	 0.284811
C	-0.0665370869	 1.4784438642	 0.0133205622	 0.16979
N	-1.1531865236	 2.1487324504	 0.0965139799	-0.272037
C	-0.7925041001	 3.5738362811	 0.0548951703	-0.19792
C	 0.7347643851	 3.6022709083	 0.0331068227	-0.042325
C	 1.4627651184	 2.9421016993	 1.1415860362	-0.249747
N	 1.1773513261	 2.1935937202	-0.113145523	-0.154486
H	 0.139954779	-2.2039580429	 0.0335258843	 0.204836
H	-1.2134154435	 4.0269555142	-0.8507768805	 0.12623
H	-1.2394095296	 4.0938502311	 0.909840665	 0.12428
H	 1.2487220053	 4.3265230291	-0.5897532265	 0.106737
H	 2.5137515643	 3.1566683894	 1.3056183497	 0.129177
H	 0.9033699616	 2.6534023261	 2.0278608168	 0.132788
131.5766	166.469	283.9978	345.6395	406.3086	516.7295	568.5922	652.8034	655.2713	720.8212	746.6238	790.3246	834.4994	875.2397	930.1796	987.5403	996.7092	1080.2488	1086.3572	1110.4025	1160.4038	1199.8784	1206.3209	1266.6793	1334.7045	1372.2246	1482.4929	1501.6148	1656.8207	2242.0702	3034.2476	3065.1296	3114.0552	3169.6701	3208.2895	3501.1664
C#CC1=NCC2CN12	C#CC1=NC[C@H]2CN12	
InChI=1S/C6H6N2/c1-2-6-7-3-5-4-8(5)6/h1,5H,3-4H2	InChI=1S/C6H6N2/c1-2-6-7-3-5-4-8(5)6/h1,5H,3-4H2/t5-,8?/m0/s1
