19
gdb 54944	2.94152	1.06485	0.96043	2.0789	84.85	-0.243	-0.0236	0.2194	1314.786	0.155607	-385.874536	-385.864554	-385.86361	-385.909346	36.783	
C	-0.2610892918	 1.4487949224	-0.0914544056	-0.484217
C	 0.1056585883	-0.0164162489	 0.0467751436	 0.386208
O	 0.3898791185	-0.5071613278	 1.1207928916	-0.323767
C	 0.0925461714	-0.8102962024	-1.2192010699	-0.156701
C	 0.8269479974	-2.1265346942	-1.279614266	-0.31401
C	-0.6781672465	-2.1635829283	-1.2878435756	 0.1334
C	-1.4261103795	-2.6956060515	-0.0745229445	-0.474401
C	-1.3252390169	-2.4119558785	-2.5503212457	 0.281591
C	-1.8837764198	-2.6280973469	-3.5937885637	-0.450665
H	 0.449715155	 1.9549265755	-0.7551110615	 0.141901
H	-1.2505926846	 1.5506825979	-0.5516200884	 0.143804
H	-0.2541577695	 1.9287514199	 0.8875364597	 0.141895
H	 0.0355296051	-0.2296981069	-2.1326384301	 0.101013
H	 1.3561300694	-2.3690790015	-2.1930076677	 0.126819
H	 1.3074156386	-2.4261754884	-0.3543554779	 0.142006
H	-0.902795707	-2.4391318015	 0.8467596933	 0.158176
H	-2.4393726056	-2.2849504141	-0.0321385949	 0.123998
H	-1.5086286686	-3.7844363001	-0.1449850823	 0.127723
H	-2.372826314	-2.8227596248	-4.5158571842	 0.195225
67.8569	103.2515	133.3779	151.9238	198.5182	233.3717	262.244	329.864	346.6311	393.0678	519.0225	546.0186	589.3305	598.3916	605.1667	645.1847	679.1769	770.1119	818.0151	931.5769	947.2914	967.6197	991.7827	1042.7039	1070.5557	1083.3261	1109.5368	1128.185	1192.1454	1281.5337	1290.364	1376.8451	1409.4363	1415.4454	1462.8275	1466.2913	1474.272	1499.5939	1501.3415	1784.8166	2232.3801	3033.7667	3046.5706	3093.5768	3108.0137	3140.5061	3154.041	3154.1941	3179.6466	3239.015	3503.7969
CC(=O)C1CC1(C)C#C	CC(=O)[C@H]1C[C@]1(C)C#C	
InChI=1S/C8H10O/c1-4-8(3)5-7(8)6(2)9/h1,7H,5H2,2-3H3	InChI=1S/C8H10O/c1-4-8(3)5-7(8)6(2)9/h1,7H,5H2,2-3H3/t7-,8+/m1/s1
