14
gdb 25763	2.85973	1.57889	1.01828	1.8308	67.13	-0.2099	0.0019	0.2118	1071.4079	0.102366	-470.0824	-470.074241	-470.073297	-470.115209	29.969	
N	-0.049787535	 1.3246084103	-0.0152518704	-0.543553
C	 0.0367746469	-0.0303397667	 0.0166155268	 0.337473
O	 1.10612402	-0.6423094516	 0.0106696967	-0.415814
C	-1.2369618365	-0.7410883003	 0.0512485957	 0.092342
C	-1.3644885438	-2.1069136282	 0.07383284	 0.35189
N	-0.4476680956	-3.1005289816	 0.1726659585	-0.59664
O	-2.6847885829	-2.408822155	 0.0587938808	-0.180526
C	-3.3147947385	-1.1824156808	 0.030078979	 0.040101
N	-2.5153377348	-0.1784120475	 0.0287420116	-0.324585
H	 0.795740018	 1.8668854846	-0.0491124668	 0.26029
H	-0.948277753	 1.7767188499	-0.0165326812	 0.27389
H	 0.4918183222	-2.7449046545	 0.0235439055	 0.288261
H	-0.6753278674	-3.9833207784	-0.2587969567	 0.263796
H	-4.3916502695	-1.2045053804	 0.0064451104	 0.153076
93.4587	144.3286	178.0913	190.4226	301.554	323.2101	372.9154	437.3566	525.9196	585.3929	626.8026	669.5662	675.6976	712.5399	753.6436	774.7386	810.2615	940.9001	1026.3222	1075.473	1084.4403	1193.5252	1240.8918	1295.3869	1412.3061	1484.1127	1564.7912	1581.652	1607.3379	1688.2161	1743.2964	3289.2272	3510.9136	3607.8397	3661.4104	3749.7121
NC(=O)C1=C(N)OC=N1	NC(=O)c1c(N)ocn1	
InChI=1S/C4H5N3O2/c5-3(8)2-4(6)9-1-7-2/h1H,6H2,(H2,5,8)	InChI=1S/C4H5N3O2/c5-3(8)2-4(6)9-1-7-2/h1H,6H2,(H2,5,8)
