16
gdb 20357	6.02834	1.36362	1.21955	2.2604	70.77	-0.22	0.0265	0.2465	989.066	0.133551	-342.791148	-342.784337	-342.783392	-342.822708	25.869	
C	-0.1235870987	 1.4580768877	-0.1659786621	-0.266417
C	 1.2828459198	 0.9806765555	 0.0656175008	-0.266367
C	 0.1443512896	-0.0198145048	 0.0385495901	-0.104807
C	-0.2928300812	-0.7113455258	 1.2687689479	 0.247762
C	-0.7501161709	-2.010898911	 1.377452691	-0.149705
N	-1.0368386343	-2.2172829932	 2.6877900367	-0.178598
N	-0.7997662196	-1.1404789626	 3.4557216197	-0.223858
C	-0.3488214814	-0.2266618561	 2.6009207381	-0.10307
H	-0.6242654293	 1.9870246365	 0.637768579	 0.117978
H	-0.3996264261	 1.7929806058	-1.1598590064	 0.112349
H	 1.9756903983	 0.9867209304	-0.7687005063	 0.112346
H	 1.7412952451	 1.1839477943	 1.0273750983	 0.117978
H	 0.0833147694	-0.6331947033	-0.8551965323	 0.076863
H	-0.8881436814	-2.7818076207	 0.6355431922	 0.129281
H	-1.3911889133	-3.0544503402	 3.1172439623	 0.272644
H	-0.078192306	 0.7528916876	 2.9684318909	 0.105622
52.807	175.7304	176.0493	398.6118	420.8732	498.3327	612.6964	665.0465	701.5937	778.5852	788.3592	820.9251	878.7666	906.681	917.6579	954.0274	1001.9476	1058.9397	1062.3403	1076.3852	1078.4093	1130.6168	1171.8591	1201.5043	1216.2052	1257.1215	1281.0212	1386.6465	1393.7537	1437.2128	1471.7556	1496.3266	1503.833	1620.529	3131.036	3134.9858	3150.0227	3210.6787	3226.7032	3238.3807	3257.5455	3679.7283
C1CC1C1=CNN=C1	C1CC1c1c[nH]nc1	
InChI=1S/C6H8N2/c1-2-5(1)6-3-7-8-4-6/h3-5H,1-2H2,(H,7,8)	InChI=1S/C6H8N2/c1-2-5(1)6-3-7-8-4-6/h3-5H,1-2H2,(H,7,8)
