20
gdb 14138	4.09601	1.52847	1.33995	0.205	81.89	-0.2148	0.0311	0.246	1011.6172	0.177965	-311.875491	-311.867617	-311.866672	-311.907717	30.472	
C	-0.086871778	 1.5359963364	 0.0033545814	-0.408477
C	-0.0100369891	 0.0260987144	 0.0428264046	-0.042537
C	 1.2753116437	-0.6917893721	-0.2775273231	-0.34372
C	 0.7381216824	-0.7005864161	 1.1442255207	 0.349287
C	 1.4424079571	 0.0290124704	 2.3031820848	-0.301998
C	 1.5284224178	-1.0137828522	 3.4553141244	-0.26439
C	 0.6200844772	-2.1305195773	 2.9958874389	-0.085503
C	 0.2093085844	-1.9552338905	 1.7405144005	-0.122718
H	 0.8522269579	 1.9947684604	 0.3280331745	 0.115834
H	-0.2917243597	 1.8904126372	-1.0130735698	 0.115466
H	-0.8832394319	 1.9155945649	 0.6537511476	 0.116179
H	-0.9174210622	-0.4707713131	-0.2947105164	 0.077932
H	 1.2358857818	-1.6120829012	-0.8516542637	 0.105363
H	 2.1556711148	-0.0847575216	-0.4699054374	 0.1055
H	 2.4266245092	 0.4114576374	 2.0207614173	 0.09792
H	 0.8461495475	 0.8892855271	 2.6254729214	 0.104342
H	 2.5538332158	-1.3809086962	 3.6000677158	 0.104979
H	 1.2213499048	-0.5899095586	 4.4186032455	 0.101436
H	 0.3740086165	-2.9800792521	 3.6229675306	 0.088207
H	-0.4246721602	-2.6354286872	 1.1809071123	 0.0869
62.1401	169.8551	184.4966	207.2508	307.7569	372.3986	423.708	494.3926	531.1155	708.3547	747.6774	784.6589	821.7179	843.9859	881.4717	912.5392	916.3559	942.6866	967.921	989.5022	1025.4857	1038.296	1060.9943	1093.3445	1125.0246	1134.2936	1175.7114	1190.8379	1223.4652	1262.3486	1293.9948	1302.1215	1328.4536	1380.0945	1409.7499	1430.0602	1482.6945	1484.8627	1492.1071	1501.7436	1504.832	1681.9254	3011.0751	3026.1422	3038.8852	3052.3701	3084.6868	3091.051	3098.1268	3115.0618	3126.1508	3176.4401	3201.112	3204.1108
CC1CC11CCC=C1	C[C@H]1C[C@]21CCC=C2	
InChI=1S/C8H12/c1-7-6-8(7)4-2-3-5-8/h2,4,7H,3,5-6H2,1H3	InChI=1S/C8H12/c1-7-6-8(7)4-2-3-5-8/h2,4,7H,3,5-6H2,1H3/t7-,8+/m0/s1
