18
gdb 76282	2.42102	1.62573	1.03359	0.9022	75.75	-0.2271	-0.0006	0.2265	1146.9986	0.148214	-435.332303	-435.323162	-435.322218	-435.366359	33.14	
C	-0.0204787598	 1.6487951897	 0.048942462	-0.397246
C	 0.103119682	 0.1278960528	-0.0546504047	-0.11482
N	 0.9377189677	-0.3461875907	-1.1462882689	-0.081533
C	 0.5313108167	-0.2567941734	-2.5306139662	-0.34326
C	 1.8759475657	-1.2634166489	-0.7253500448	 0.449952
N	 2.6433579914	-1.9287757616	-1.4930470868	-0.587553
N	 1.7878858872	-1.2816363534	 0.6796065383	-0.400611
C	 0.7910414289	-0.4748672851	 1.1770964978	 0.43665
O	 0.520998418	-0.2814640287	 2.3370070486	-0.368842
H	 0.9685917591	 2.1147744196	 0.0765245753	 0.129558
H	-0.5750815372	 2.0573298274	-0.8000689104	 0.123163
H	-0.5540925235	 1.901950909	 0.9684337475	 0.147945
H	-0.9075387658	-0.3102645314	-0.1154086795	 0.109435
H	 0.4120175237	 0.7888074347	-2.8315366326	 0.126461
H	 1.3089356096	-0.7175618444	-3.1398797621	 0.175588
H	-0.4180951777	-0.7818476769	-2.71160798	 0.116403
H	 3.2686265908	-2.5347296828	-0.9694041084	 0.212525
H	 2.4184428031	-1.8012183762	 1.2685276949	 0.266187
83.923	100.713	142.7908	155.1642	208.6388	242.3752	303.7086	371.009	415.2464	507.6983	555.4102	600.5906	673.9995	707.6458	722.0485	743.0169	783.3099	843.5665	976.5698	1059.3253	1074.5354	1094.5562	1114.4801	1162.0056	1197.3928	1248.5745	1299.5071	1342.3093	1356.9547	1360.0997	1401.3991	1436.6127	1466.1897	1488.3474	1496.309	1497.6714	1520.8976	1764.0019	1855.5588	2962.5973	2998.2606	3047.6656	3074.5186	3122.5867	3133.6601	3156.3122	3532.192	3656.5589
CC1N(C)C(=N)NC1=O	C[C@H]1N(C)[C]([NH])NC1=O	
InChI=1S/C5H9N3O/c1-3-4(9)7-5(6)8(3)2/h3H,1-2H3,(H2,6,7,9)	InChI=1S/C5H9N3O/c1-3-4(9)7-5(6)8(3)2/h3H,1-2H3,(H2,6,7,9)/t3-/m1/s1
