25
gdb 100017	2.3338	1.19546	1.13384	1.6271	87.92	-0.2572	0.0773	0.3346	1313.1049	0.225997	-389.482565	-389.471598	-389.470654	-389.518278	41.728	
C	 0.1506447214	 1.5186528296	 0.2642555048	-0.407522
C	 0.2591497818	 0.0046199735	 0.0462617442	-0.183283
C	 0.6822130521	-0.4704753145	-1.3739961081	 0.206175
C	-0.3174540365	 0.0116992104	-2.4444415204	-0.428666
C	 2.0788762957	 0.0833595055	-1.7120486249	-0.439145
C	 0.6949686942	-2.0180826552	-1.3493562883	 0.421388
C	-0.6411941096	-2.7336441935	-1.2340556097	-0.474289
C	 1.8018069186	-2.7994214446	-1.9311089682	-0.240202
O	 1.7192156366	-2.5948053964	-0.5180248138	-0.28724
H	 1.1084626356	 2.0302547816	 0.1324079545	 0.118966
H	-0.5725972147	 1.9821167782	-0.4142661206	 0.114858
H	-0.1857018812	 1.7237815175	 1.2856351683	 0.113497
H	 0.9750897363	-0.4142107238	 0.7626085588	 0.113488
H	-0.7120260132	-0.4391988248	 0.2924231069	 0.091232
H	-0.2561166959	 1.0961934446	-2.5733770615	 0.116263
H	-0.0985078249	-0.4452073312	-3.4159609753	 0.110879
H	-1.3513670302	-0.2323073423	-2.1826766042	 0.113459
H	 2.8385363524	-0.3363556727	-1.0468367452	 0.131084
H	 2.3574528681	-0.1397827042	-2.746453346	 0.107563
H	 2.0967714366	 1.1707436976	-1.6071182285	 0.111884
H	-1.240731495	-2.6071055086	-2.1404349111	 0.123172
H	-0.4673249412	-3.8018022126	-1.0838505467	 0.125906
H	-1.2301521786	-2.3706966071	-0.3875730724	 0.126578
H	 1.6073452483	-3.8191466658	-2.2641419898	 0.103145
H	 2.6394746233	-2.3139125814	-2.4230973126	 0.110812
46.3987	62.5681	175.6527	192.8159	228.3075	256.3208	270.012	297.6941	326.3209	337.1807	358.7545	380.5914	397.128	437.4556	495.6441	515.7976	649.8593	776.5026	783.0258	821.8259	905.0343	919.2456	929.7911	946.5935	999.4561	1015.2913	1026.0653	1066.1541	1070.7669	1107.9829	1136.5454	1168.9248	1176.905	1218.0783	1235.0406	1285.5959	1333.9608	1368.3903	1377.1803	1396.6954	1406.7291	1412.969	1423.696	1478.5509	1486.0669	1488.1061	1494.1772	1499.6068	1508.104	1509.9729	1513.3194	1518.1099	1536.7175	3031.5759	3034.5731	3039.4776	3044.5061	3048.2119	3070.3219	3086.6347	3096.8363	3100.7933	3106.8653	3109.0654	3113.6588	3116.4286	3125.3084	3125.8859	3181.3287
CCC(C)(C)C1(C)CO1	CCC(C)(C)[C@@]1(C)CO1	
InChI=1S/C8H16O/c1-5-7(2,3)8(4)6-9-8/h5-6H2,1-4H3	InChI=1S/C8H16O/c1-5-7(2,3)8(4)6-9-8/h5-6H2,1-4H3/t8-/m1/s1
