19
gdb 52813	2.8512	1.0863	0.91997	1.6248	84.63	-0.2351	0.0523	0.2874	1360.7427	0.156723	-385.829106	-385.819591	-385.818647	-385.865353	34.415	
C	-0.0449459391	 1.4906613188	-0.0339923135	-0.499842
C	-0.0174597548	 0.0351212537	-0.0216977613	 0.055093
C	-0.0045071239	-1.169347859	-0.0025421228	 0.063621
C	 0.0187679959	-2.6227809656	 0.0056833842	 0.102462
C	 0.8493768256	-3.1879500013	-1.1542641663	-0.450595
C	 0.3758050498	-3.3221637128	 1.3884597634	-0.301808
C	-0.9985927223	-3.9966357099	 1.3523741462	 0.035318
O	-1.978937996	-2.9505412481	 1.3306172536	-0.239683
C	-1.3676872676	-3.3215425721	 0.1007433215	-0.001525
H	 0.5795128082	 1.9072808662	 0.7643135387	 0.146596
H	 0.3241062343	 1.8907077505	-0.9850344966	 0.144574
H	-1.0627402245	 1.8691401951	 0.1123125282	 0.149828
H	 1.8919829071	-2.8683935985	-1.0715393147	 0.12878
H	 0.8212022282	-4.2830019968	-1.1521336892	 0.112258
H	 0.4617687138	-2.835380835	-2.1148852089	 0.125405
H	 1.2174231641	-4.0116387036	 1.2888669311	 0.1072
H	 0.5359722763	-2.6536534976	 2.2356627117	 0.118106
H	-1.3054582854	-4.9540432371	 1.7563407739	 0.104775
H	-2.0143895298	-3.6147316769	-0.7195323891	 0.099436
10.4229	80.9899	108.8169	181.5738	250.2078	265.9681	288.3697	329.3067	393.0328	446.089	497.5176	544.0424	600.1167	782.1862	835.2901	850.3489	868.7789	877.8122	932.0671	968.7009	1001.4124	1040.501	1051.9546	1053.898	1068.8034	1122.2004	1134.5771	1164.7642	1225.4412	1244.7307	1268.2866	1303.0422	1384.3622	1407.7952	1414.5757	1469.8487	1478.3585	1478.7501	1489.5443	1497.2074	2366.4919	3024.6609	3032.2024	3071.6131	3084.1432	3085.7476	3103.6181	3114.8432	3135.5354	3170.5816	3192.4489
CC#CC1(C)CC2OC12	CC#C[C@@]1(C)C[C@H]2O[C@@H]12	
InChI=1S/C8H10O/c1-3-4-8(2)5-6-7(8)9-6/h6-7H,5H2,1-2H3	InChI=1S/C8H10O/c1-3-4-8(2)5-6-7(8)9-6/h6-7H,5H2,1-2H3/t6-,7-,8+/m1/s1
