18
gdb 131858	5.45231	0.77299	0.69516	1.3256	75.94	-0.1871	0.0372	0.2243	1579.3274	0.14959	-435.271906	-435.263022	-435.262078	-435.306491	32.263	
O	-0.0068088474	 1.392561833	-0.3713984135	-0.41982
C	-0.0378827402	 0.0371367321	 0.0609951044	-0.09143
C	-1.4960903142	-0.3876927203	 0.1162959651	-0.122401
N	-2.0799315276	-0.2892704667	-1.209319147	-0.386413
C	-3.419181857	-0.6050468646	-1.3804679349	 0.420076
N	-4.1171511434	-0.0523036739	-2.373203744	-0.334061
N	-5.3415304063	-0.6295849904	-2.2781295454	-0.182106
C	-5.4353451162	-1.5081404898	-1.2589204877	-0.019932
C	-4.2036434017	-1.5286104169	-0.6386937941	-0.289341
H	 0.8993700216	 1.6215021713	-0.5951121703	 0.292209
H	 0.5022698098	-0.614285539	-0.6410791012	 0.099913
H	 0.4146246029	-0.0754990091	 1.0577865605	 0.089721
H	-1.5416152438	-1.4267770286	 0.4627415478	 0.106354
H	-2.0230881004	 0.2313124602	 0.8621493621	 0.10062
H	-1.8323527551	 0.5809845188	-1.6628420504	 0.24592
H	-6.0536455845	-0.3615204612	-2.9334638786	 0.27083
H	-6.3482274407	-2.0443192061	-1.0512698133	 0.125517
H	-3.9161866656	-2.1208934492	 0.2135227905	 0.094344
51.1192	67.6022	125.0811	177.8215	248.2932	293.3135	330.9849	419.3422	450.3493	481.9196	642.7828	663.0705	726.5003	753.8617	779.1413	816.5384	896.7117	928.4207	942.4368	996.0793	1061.9316	1086.8377	1099.1374	1125.2745	1154.3606	1199.5457	1228.3031	1270.3858	1302.185	1323.3584	1352.4262	1406.273	1457.9634	1477.0251	1497.9044	1504.6151	1511.8585	1530.9949	1610.0099	2960.441	2984.2684	3025.9884	3055.4722	3254.7164	3277.7216	3578.1909	3693.9625	3839.9736
OCCNC1=NNC=C1	OCCNc1n[nH]cc1	
InChI=1S/C5H9N3O/c9-4-3-6-5-1-2-7-8-5/h1-2,9H,3-4H2,(H2,6,7,8)	InChI=1S/C5H9N3O/c9-4-3-6-5-1-2-7-8-5/h1-2,9H,3-4H2,(H2,6,7,8)
