24
gdb 100031	2.89255	1.05372	0.97528	0.7448	86.14	-0.2146	0.0728	0.2874	1370.9005	0.214491	-405.513404	-405.502429	-405.501485	-405.549024	41.199	
C	 1.7849759875	 0.2634788053	-1.1117654886	-0.42247
C	 1.7724121925	-0.9037182598	-0.1440937461	 0.028903
C	 2.976179817	-1.2264361614	 0.6844773018	-0.262687
N	 1.7316629407	-0.8178045751	 1.3079265847	-0.103527
C	 1.5523787399	 0.3806225548	 2.1481558386	 0.26926
C	 2.5466023555	 1.5410802567	 1.9525885444	-0.436979
C	 0.1108930743	 0.8743005169	 1.9576846184	-0.40548
C	 1.7124960546	-0.1727124351	 3.5812884036	-0.074642
O	 1.5170447146	 0.8787626987	 4.5175573482	-0.425009
H	 2.4999962766	 1.0383692837	-0.830308287	 0.124239
H	 2.0652192501	-0.1007290154	-2.1067588453	 0.119041
H	 0.7958194659	 0.724478588	-1.2021434358	 0.123178
H	 1.1841284958	-1.7438354835	-0.5166089012	 0.084061
H	 3.2895420983	-2.2542013264	 0.8593756274	 0.104834
H	 3.7988002219	-0.5146690919	 0.6239138016	 0.104506
H	 2.3904451386	 2.0656675738	 1.007698828	 0.109532
H	 2.4136671575	 2.2592112956	 2.7650828133	 0.139351
H	 3.5840466027	 1.1941280838	 1.9917339796	 0.106828
H	-0.5862974272	 0.0340330351	 2.0274287783	 0.114269
H	-0.1400426966	 1.6026125018	 2.7321873369	 0.131317
H	-0.0197798585	 1.3482080426	 0.9809208271	 0.108345
H	 0.9804151382	-0.9794701416	 3.7209244616	 0.092562
H	 2.718121101	-0.6108596854	 3.6818146189	 0.082077
H	 1.568496789	 0.5060313988	 5.4016380319	 0.288492
41.7141	122.4725	155.2339	202.5751	208.7822	234.7012	244.5262	251.9615	290.0772	330.292	356.1384	381.0212	388.8673	433.0763	497.6796	566.0648	684.6872	791.4005	804.763	907.3795	920.2137	938.8974	958.432	964.555	1034.2603	1042.704	1058.7105	1078.9739	1119.3465	1136.0809	1153.5686	1178.8751	1186.7987	1203.5498	1235.2373	1275.215	1299.0309	1358.2609	1391.0739	1399.9773	1406.3378	1419.6328	1448.4023	1481.7515	1489.3121	1495.1878	1498.5413	1503.6216	1512.0297	1520.6	1524.8832	2975.6697	3028.5416	3036.0173	3045.027	3049.9218	3080.1488	3082.7202	3090.1728	3115.0297	3117.7344	3128.9699	3133.3552	3140.9485	3157.4328	3841.2818
CC1CN1C(C)(C)CO	C[C@H]1CN1C(C)(C)CO	
InChI=1S/C7H15NO/c1-6-4-8(6)7(2,3)5-9/h6,9H,4-5H2,1-3H3	InChI=1S/C7H15NO/c1-6-4-8(6)7(2,3)5-9/h6,9H,4-5H2,1-3H3/t6-,8?/m0/s1
