21
gdb 118721	2.71744	1.10538	0.9146	0.5996	78.5	-0.2252	0.0675	0.2928	1371.4373	0.180974	-424.176563	-424.167161	-424.166216	-424.21107	35.394	
C	-0.0891158405	 1.5726554596	 0.0635109317	-0.38338
C	-0.1151118677	 0.0440793585	 0.142400249	-0.179911
C	 0.8787719825	-0.5163702014	 1.1707742275	-0.24485
C	 0.8277316286	-2.0249405776	 1.2810093618	 0.367518
O	 1.0766951598	-2.7297447424	 0.0870178515	-0.476045
C	 1.3880289437	-2.8307433792	 2.4368319119	-0.179196
C	 1.0726882829	-2.1607495865	 3.7655984461	-0.106938
O	-0.3361440902	-2.0351581979	 3.4168074667	-0.286156
C	-0.1108529694	-2.7594395281	 2.2043915927	 0.020177
H	 0.9062979572	 1.9371264401	-0.2133427109	 0.115971
H	-0.79956841	 1.9462044759	-0.6804560993	 0.111443
H	-0.3490759622	 2.0214731442	 1.0283794602	 0.11876
H	-1.1275681707	-0.2932859148	 0.4004469936	 0.101723
H	 0.1123672654	-0.3688897311	-0.8491544991	 0.089965
H	 1.8984338671	-0.2129469694	 0.9001654445	 0.098273
H	 0.6568976377	-0.080026204	 2.1493367982	 0.11514
H	 0.3259711621	-2.5894592519	-0.5000881553	 0.287403
H	 2.0867975336	-3.6374147622	 2.2639914031	 0.107306
H	 1.1917543526	-2.829325917	 4.6256338049	 0.113148
H	 1.5377160964	-1.1927584557	 3.9853147873	 0.107244
H	-0.8439727789	-3.4966860391	 1.8944933841	 0.102405
61.0119	83.6172	143.2245	221.1752	243.3947	256.354	308.424	331.5463	366.4537	419.6898	484.5963	524.4136	737.8503	750.5205	769.115	833.8494	875.9081	908.2733	918.0494	946.7192	975.1214	1002.0515	1016.2194	1049.4579	1051.613	1087.5497	1102.5431	1122.0324	1158.8553	1187.4386	1228.9435	1265.1206	1281.5222	1309.3455	1317.7805	1331.3764	1344.8642	1389.9316	1413.1586	1441.3446	1467.4058	1494.0909	1499.1471	1509.0145	1517.987	3012.2696	3024.8694	3026.7037	3031.3461	3046.1811	3072.0055	3090.2293	3100.0572	3102.9435	3167.849	3212.9053	3802.8203
CCCC1(O)C2COC12	CCC[C@@]1(O)[C@H]2CO[C@@H]12	
InChI=1S/C7H12O2/c1-2-3-7(8)5-4-9-6(5)7/h5-6,8H,2-4H2,1H3	InChI=1S/C7H12O2/c1-2-3-7(8)5-4-9-6(5)7/h5-6,8H,2-4H2,1H3/t5-,6+,7+/m0/s1
