21
gdb 64424	2.36489	1.68387	1.30032	1.9465	77.2	-0.2448	0.0755	0.3203	1072.4951	0.18347	-424.220626	-424.212221	-424.211277	-424.252948	33.972	
C	-0.0754150961	 1.5848602704	-0.0095318177	-0.411724
C	 0.0472820815	 0.0658083136	-0.0137054791	 0.341928
O	-1.286117382	-0.4512370905	-0.0090785362	-0.474085
C	 0.7390415816	-0.4498456788	-1.2861276629	-0.135146
O	 0.8050174959	-1.8668745101	-1.2430185044	-0.257699
C	 1.7730751666	-2.3238727327	-0.3037000715	-0.101934
C	 1.6208683253	-1.707688478	 1.0857838838	-0.068813
C	 2.2600670629	-0.3737696505	 1.3958063278	-0.309756
C	 0.7680552731	-0.4618261483	 1.2224345253	-0.03228
H	 0.9100739009	 2.0585131745	 0.0082445512	 0.112907
H	-0.6182515233	 1.9258812509	-0.8963778658	 0.118997
H	-0.6319915024	 1.9118230905	 0.87352829	 0.124806
H	-1.2000966757	-1.3904025127	-0.2185992303	 0.279159
H	 0.1265152332	-0.1894829031	-2.1535619648	 0.114348
H	 1.7415012996	-0.0138199073	-1.4212335426	 0.086873
H	 1.6383785649	-3.4075400392	-0.251854193	 0.112623
H	 2.7814642548	-2.1313497907	-0.7046994572	 0.094876
H	 1.5773158145	-2.4246275841	 1.8991499635	 0.091147
H	 2.6466540604	-0.2070604679	 2.3953026495	 0.11234
H	 2.8505167658	 0.0938054979	 0.6131827189	 0.109845
H	 0.1630901086	-0.375175664	 2.1198485655	 0.091587
120.7453	190.217	214.1951	263.7868	300.2618	328.1486	375.6783	429.0765	461.5502	486.3503	491.7144	537.9336	679.2548	737.3051	817.661	845.9881	874.6775	916.5288	918.3954	949.4952	999.4418	1008.5241	1031.8039	1066.2448	1082.9288	1093.9545	1110.8556	1134.0419	1170.6441	1190.9446	1214.3354	1254.413	1285.5507	1325.8939	1348.2031	1365.6111	1385.302	1408.4285	1410.9645	1428.0811	1481.6284	1484.7586	1491.6008	1497.5943	1503.7685	2970.0495	2981.6858	3041.5781	3087.0544	3094.3008	3114.4836	3120.5106	3124.7605	3149.9441	3159.5855	3208.134	3767.4647
CC1(O)COCC2CC12	C[C@@]1(O)COC[C@H]2C[C@@H]12	
InChI=1S/C7H12O2/c1-7(8)4-9-3-5-2-6(5)7/h5-6,8H,2-4H2,1H3	InChI=1S/C7H12O2/c1-7(8)4-9-3-5-2-6(5)7/h5-6,8H,2-4H2,1H3/t5-,6-,7-/m1/s1
