20
gdb 79623	2.08611	1.94866	1.5417	1.0404	77.25	-0.2211	0.0625	0.2836	991.5411	0.172657	-403.095084	-403.087206	-403.086261	-403.1269	31.988	
C	-0.2776936665	 1.5793807563	 0.089252059	-0.402133
C	 0.0514502423	 0.0821302151	 0.006880431	-0.010842
C	 0.745762795	-0.3877520156	-1.2844734297	-0.107207
C	 2.103944862	 0.0972168222	-1.6948261651	 0.083247
O	 2.6089391654	 1.3326682085	-1.2700344189	-0.409778
C	 1.9867759936	-1.1657769302	-0.8536933847	-0.071126
N	 2.0613067937	-1.2310519041	 0.601922189	-0.115333
C	 2.3087392683	 0.0191752865	 1.3580446217	-0.26052
C	 0.9228693668	-0.4671279275	 1.1460271684	-0.03482
H	 0.6250398746	 2.1880053003	 0.016396718	 0.14255
H	-0.9480328191	 1.8735746031	-0.7250720929	 0.110591
H	-0.7811392999	 1.8124277379	 1.0334927957	 0.109001
H	-0.8965688811	-0.4681822306	 0.0516418358	 0.079853
H	 0.0937403201	-0.7371347568	-2.0788387692	 0.087692
H	 2.3372666552	-0.1144430849	-2.7404822355	 0.088861
H	 3.5706760545	 1.2727237621	-1.2734146209	 0.292414
H	 2.27695765	-2.0983688408	-1.3273495752	 0.091894
H	 2.7790771286	-0.1468632079	 2.3241116066	 0.105953
H	 2.6343074526	 0.9012110688	 0.8277575028	 0.135081
H	 0.398757844	-0.9253842325	 1.9824962542	 0.084623
146.446	186.1637	230.9343	246.3309	297.2228	351.0905	383.8472	474.2693	556.2813	645.7876	655.0388	705.2222	733.8457	737.3736	791.2059	823.1925	854.7232	943.344	985.9154	1008.7013	1029.1036	1057.824	1072.2025	1096.1382	1107.8324	1122.2514	1122.9722	1151.097	1156.1229	1171.6988	1252.5268	1279.8958	1294.3007	1317.1601	1326.6425	1355.2963	1373.3841	1392.2582	1417.0402	1457.1064	1495.2631	1504.2613	1508.8931	3022.4205	3038.255	3071.3799	3096.4123	3115.6757	3124.5527	3140.275	3147.2935	3156.5718	3259.3673	3797.4443
CC1C2C(O)C2N2CC12	C[C@H]1[C@H]2[C@@H](O)[C@H]2N2C[C@@H]12	
InChI=1S/C7H11NO/c1-3-4-2-8(4)6-5(3)7(6)9/h3-7,9H,2H2,1H3	InChI=1S/C7H11NO/c1-3-4-2-8(4)6-5(3)7(6)9/h3-7,9H,2H2,1H3/t3-,4+,5-,6+,7-,8?/m1/s1
