20
gdb 66485	3.00402	1.7191	1.39041	1.8209	82.27	-0.2184	0.0828	0.3013	1016.5216	0.171195	-365.94187	-365.934176	-365.933232	-365.973403	31.372	
C	 0.1244161029	 1.5257771761	 0.0554590282	-0.526395
C	-0.0391705647	 0.0511898577	-0.0905649956	 0.366565
C	 0.7299046658	-1.0000341633	-0.8017345885	-0.156928
N	 0.7233659248	-0.9649196057	 0.7046780487	-0.194978
C	-0.5311776085	-1.7958845766	 0.9466951222	 0.007962
C	-0.4829378868	-2.9833507365	-0.0247722224	-0.283323
C	-0.5006792334	-1.8795653598	-1.117543915	 0.33882
C	-0.9013768775	-2.1140072185	-2.5498516301	-0.510207
C	-1.2600033606	-0.9120249562	-0.1075207382	-0.191074
H	 1.1866850172	 1.780174549	 0.1257919704	 0.133007
H	-0.3009106951	 2.0593262282	-0.8020186451	 0.119502
H	-0.3713534121	 1.8922413096	 0.9616088324	 0.123763
H	 1.6908290758	-0.9619962795	-1.3030666367	 0.083794
H	-0.789327275	-1.8832277524	 2.0009436598	 0.072061
H	 0.3707055206	-3.6661369176	 0.024987278	 0.099212
H	-1.4214862411	-3.5480172128	-0.0105425481	 0.097069
H	-1.870307287	-2.6201790971	-2.616215141	 0.116592
H	-0.9770722033	-1.1685212115	-3.0989770873	 0.118753
H	-0.16337461	-2.7385357492	-3.0678943566	 0.119525
H	-2.3235886119	-0.689310224	-0.158428385	 0.066279
178.903	198.7189	221.9961	253.7972	272.3952	308.0324	434.0279	571.9003	579.3089	580.5785	749.1301	760.9348	786.2271	823.2513	843.9535	867.5703	884.8028	926.7463	936.4164	945.7146	1003.3584	1024.9336	1043.381	1076.7297	1087.0008	1093.012	1114.6229	1160.6486	1183.8084	1208.4153	1223.4185	1245.2358	1263.4061	1268.2203	1335.5942	1400.0152	1413.6769	1449.0293	1479.8728	1480.9144	1490.5598	1491.4217	1492.9307	3020.4886	3025.6975	3041.2196	3082.2747	3087.2563	3092.5371	3100.6599	3105.8365	3124.333	3140.5123	3170.3668
CC12C3N1C1CC3(C)C21	C[C@@]12[C@H]3N1[C@@H]1C[C@@]3(C)[C@H]21	
InChI=1S/C8H11N/c1-7-3-4-5(7)8(2)6(7)9(4)8/h4-6H,3H2,1-2H3	InChI=1S/C8H11N/c1-7-3-4-5(7)8(2)6(7)9(4)8/h4-6H,3H2,1-2H3/t4-,5-,6+,7+,8-,9?/m1/s1
