17
gdb 52258	4.39535	0.91477	0.84873	5.5559	69.14	-0.254	0.0117	0.2657	1349.2512	0.134925	-458.931395	-458.92314	-458.922196	-458.965352	29.876	
O	 0.4595752485	 0.2977265246	-0.7479940234	-0.27458
C	 0.4960562936	 1.4856248044	-0.6421358563	 0.182855
O	 0.7224033706	 2.0970019677	 0.5426204344	-0.18332
C	 0.7920546859	 3.527077173	 0.5385451187	-0.117002
C	 2.209755195	 3.9930263199	 0.2750265801	 0.131315
O	 2.6621429269	 3.7116736739	-1.0813612585	-0.304444
C	 3.0809238575	 5.0738642851	-1.2313495798	 0.11848
C	 1.9134164168	 6.0008595136	-1.1884363405	-0.300475
C	 2.5106577998	 5.4815772591	 0.1087894483	-0.15861
H	 0.3452440382	 2.1993061039	-1.4718014871	 0.087496
H	 0.0994922674	 3.9410783114	-0.2021534463	 0.116068
H	 0.4710035168	 3.8496988997	 1.533084967	 0.129891
H	 2.8908215301	 3.5121189882	 0.9873346988	 0.104766
H	 4.0337575179	 5.2594775117	-1.7116304166	 0.115371
H	 2.1406159946	 7.0443878174	-1.3833775259	 0.124273
H	 0.9449663097	 5.6704993391	-1.5511139336	 0.118461
H	 2.9086827608	 6.1304734572	 0.8761540707	 0.109455
57.9102	73.5839	135.1035	187.9865	236.6606	353.5885	390.0444	477.9425	501.5349	667.692	723.6408	771.7083	818.8013	861.358	948.8095	971.6235	1001.6755	1024.6252	1028.5723	1040.8266	1049.6582	1054.66	1084.7649	1100.2184	1109.8634	1175.4966	1198.4277	1257.4095	1293.5254	1301.3128	1343.5663	1375.8118	1416.0825	1435.6539	1476.0366	1487.9219	1868.9013	2983.2002	3040.1474	3051.2643	3106.0899	3124.7286	3191.2347	3208.5447	3217.1913
O=COCC1OC2CC12	O=COC[C@H]1O[C@H]2C[C@@H]12	
InChI=1S/C6H8O3/c7-3-8-2-6-4-1-5(4)9-6/h3-6H,1-2H2	InChI=1S/C6H8O3/c7-3-8-2-6-4-1-5(4)9-6/h3-6H,1-2H2/t4-,5+,6-/m1/s1
