19
gdb 83405	2.71082	1.28887	1.21018	2.5972	75.99	-0.2346	0.0207	0.2553	1144.2803	0.159869	-419.202078	-419.193278	-419.192333	-419.2355	33.513	
C	-0.111692616	 1.250745166	-0.3744476163	-0.42683
C	 0.1921726321	-0.1722877888	 0.0314660324	-0.002107
N	 1.525562214	-0.8047102019	-0.0141895789	-0.213306
C	 2.5367544803	 0.2198432058	 0.4447267897	-0.155796
C	 1.8475703691	 0.4002492378	 1.8212742317	-0.318244
C	 0.8040857627	-0.5945156874	 1.3211303261	 0.241837
C	 0.284768562	-1.7354989918	 2.1385374314	 0.284875
N	 0.1798744102	-2.9056341522	 1.4400600106	-0.537128
O	-0.0289384346	-1.5990612344	 3.3064002646	-0.36614
H	 0.5357203608	 1.9884169436	 0.1025967643	 0.127553
H	-0.016158944	 1.3647827924	-1.4597179894	 0.130862
H	-1.1441226623	 1.4928592593	-0.1036367922	 0.134081
H	-0.5454474738	-0.8822952761	-0.3377638674	 0.103957
H	 3.5184732372	-0.2525026173	 0.5044103156	 0.116575
H	 2.6071929727	 1.095184058	-0.20680697	 0.109513
H	 2.4322690499	 0.0038105389	 2.6517968416	 0.128454
H	 1.4873332727	 1.3951006347	 2.0944126148	 0.111481
H	 0.716802295	-2.9991383936	 0.5906893094	 0.271494
H	-0.0518373277	-3.7362644932	 1.960810142	 0.258869
68.1038	148.2509	162.8957	184.5479	269.8048	288.0461	363.6538	406.0412	434.1915	507.8743	560.6035	598.4571	668.7752	716.357	738.2197	788.5421	817.4076	858.8812	939.5995	960.632	979.8503	1043.8228	1094.6706	1107.6137	1115.0156	1129.0858	1189.2472	1207.9932	1217.0658	1268.1749	1290.0473	1325.8125	1389.247	1410.1758	1446.805	1481.2714	1499.9099	1505.775	1517.3417	1603.8351	1792.1219	3043.241	3063.1763	3072.5666	3102.8603	3115.3523	3124.3042	3136.2384	3142.6942	3571.0054	3707.3548
CC1N2CCC12C(N)=O	C[C@H]1N2CC[C@@]12C(=O)N	
InChI=1S/C6H10N2O/c1-4-6(5(7)9)2-3-8(4)6/h4H,2-3H2,1H3,(H2,7,9)	InChI=1S/C6H10N2O/c1-4-6(5(7)9)2-3-8(4)6/h4H,2-3H2,1H3,(H2,7,9)/t4-,6+,8?/m1/s1
