19
gdb 113965	5.35937	0.66799	0.64278	2.0972	72.75	-0.265	0.0736	0.3386	1733.221	0.157528	-460.106851	-460.097429	-460.096484	-460.142681	33.394	
O	-0.3352075973	 1.3235079371	-0.8417351418	-0.418059
C	 0.0361783599	 0.2594476907	 0.0187834497	-0.084017
C	-1.1776116095	-0.5193826259	 0.4606004692	 0.028169
O	-1.7801860954	-1.3507891141	-0.5479467708	-0.275222
C	-1.2440579404	-1.9799223455	 0.6249574565	 0.068701
C	-0.0934485334	-2.9432277527	 0.4302514901	-0.277264
C	-0.5920897409	-4.2845911647	-0.0594669631	 0.103758
C	 0.0164878291	-5.5487383856	 0.3679298305	-0.179396
O	-1.2282491514	-5.1137156653	 0.9186925054	-0.236962
H	-0.8192685858	 0.9299011404	-1.5767027473	 0.293296
H	 0.7697660581	-0.4032302314	-0.4598638099	 0.09143
H	 0.5175769811	 0.7214414339	 0.8878056005	 0.114613
H	-1.9020884588	 0.0800220385	 1.0151859929	 0.099516
H	-2.0125460817	-2.3575076336	 1.3019360479	 0.109412
H	 0.625830375	-2.540884483	-0.2892415094	 0.111333
H	 0.4244301994	-3.0837137337	 1.386533641	 0.112048
H	-1.1071770823	-4.2619320987	-1.0206582697	 0.107724
H	-0.0372516911	-6.4238159812	-0.2778819938	 0.117828
H	 0.8628296854	-5.5304993553	 1.0540042722	 0.113092
41.123	64.8334	81.2923	127.4793	173.936	258.5278	326.2031	400.4599	422.3306	458.8795	501.7274	575.5253	766.7588	802.5261	836.1084	864.036	907.8522	953.3913	964.4065	1018.6422	1069.196	1075.7968	1105.3369	1113.1371	1156.677	1160.3191	1168.7724	1175.1035	1232.5566	1252.6188	1289.1686	1299.219	1315.0759	1360.3388	1398.79	1432.3657	1443.1944	1453.2803	1492.1464	1495.8847	1529.8232	3012.9865	3041.613	3071.701	3081.4488	3088.5284	3096.2345	3107.0264	3113.2642	3168.4115	3800.8713
OCC1OC1CC1CO1	OC[C@H]1O[C@H]1C[C@H]1CO1	
InChI=1S/C6H10O3/c7-2-6-5(9-6)1-4-3-8-4/h4-7H,1-3H2	InChI=1S/C6H10O3/c7-2-6-5(9-6)1-4-3-8-4/h4-7H,1-3H2/t4-,5-,6+/m0/s1
