14
gdb 34840	3.67166	1.20154	1.01054	4.1734	72.05	-0.2819	-0.0298	0.2522	1117.1247	0.102261	-395.662448	-395.655228	-395.654284	-395.694364	26.992	
N	-0.0098215813	-1.2527713123	-0.0616908356	-0.314562
C	-0.0106732342	-0.097916273	-0.0180235911	 0.292137
C	-0.0500505186	 1.354125611	 0.0351314302	-0.121222
C	 0.0023582379	 2.0824282292	 1.4062972249	-0.067818
C	 1.4769431398	 1.6328639601	 1.4495897712	-0.195869
N	 1.325713667	 2.0806245835	-0.0255271929	-0.138214
C	 0.5559659691	 3.2808808462	 0.5913724027	-0.116684
C	-0.3111864741	 4.033739494	-0.3027025636	 0.292293
N	-1.0069979031	 4.6499014119	-0.9897378243	-0.315394
H	-0.7574752094	 1.7333688216	-0.7054128155	 0.155123
H	-0.7560953514	 2.0936352609	 2.1924052942	 0.111103
H	 2.1842745666	 2.2435039943	 2.013388532	 0.125744
H	 1.6870195239	 0.5690325798	 1.5552890651	 0.154653
H	 1.2248259478	 3.9604296027	 1.1227234225	 0.13871
117.5704	152.9799	200.0956	205.3241	410.0618	484.2359	511.8472	528.8871	540.1165	613.0079	760.4022	822.2369	837.9254	872.0068	915.4783	930.0377	1026.0047	1052.6718	1073.7324	1118.8533	1127.9264	1141.0291	1164.0876	1221.8533	1232.1236	1254.5282	1382.5927	1394.1186	1538.1862	2357.1698	2359.3058	3081.8635	3090.8579	3101.1856	3104.9902	3162.0436
N#CC1C2CN1C2C#N	N#C[C@H]1[C@H]2CN1[C@H]2C#N	
InChI=1S/C6H5N3/c7-1-5-4-3-9(5)6(4)2-8/h4-6H,3H2	InChI=1S/C6H5N3/c7-1-5-4-3-9(5)6(4)2-8/h4-6H,3H2/t5-,6-/m0/s1
