25
gdb 73677	2.37036	1.59242	1.23182	0.0496	90.97	-0.2901	0.0772	0.3673	1170.7579	0.23259	-352.398029	-352.389663	-352.388719	-352.430572	34.743	
C	-0.015366122	 1.4838217294	 0.0065591689	-0.448016
C	-0.0214404888	-0.0526027911	-0.036843871	 0.372445
C	-1.4713236822	-0.5918854928	 0.075883663	-0.267168
C	-1.6746943511	-0.8646792602	 1.5757711452	-0.202462
C	-0.3260796878	-1.4670336552	 2.0044878605	-0.228341
C	 0.728659886	-0.6581369351	 1.2175254268	 0.008643
C	 1.9402080247	-1.4392598891	 0.6624986318	-0.228301
C	 2.202350725	-0.8161407935	-0.7189069596	-0.202451
C	 0.7849052093	-0.563068788	-1.2595497629	-0.267219
H	 1.0062313755	 1.880282198	 0.0081779807	 0.108907
H	-0.5349805607	 1.9040834812	-0.8621344025	 0.108114
H	-0.5126042493	 1.8609349296	 0.907325668	 0.108909
H	-2.2123164432	 0.0992312952	-0.3389780959	 0.08673
H	-1.5665901806	-1.5340362461	-0.477899469	 0.087075
H	-1.8575185295	 0.0751324255	 2.111952837	 0.095139
H	-2.5257533067	-1.521110171	 1.7827112764	 0.089016
H	-0.1673196018	-1.4401839229	 3.0868278245	 0.090024
H	-0.2868408822	-2.5218699959	 1.7030002402	 0.090287
H	 1.088639813	 0.1671250725	 1.8423498294	 0.060419
H	 2.8120269763	-1.4045538439	 1.3228906346	 0.090017
H	 1.675797986	-2.4976153579	 0.5395833514	 0.090277
H	 2.7429837708	 0.1325823614	-0.6102136162	 0.095131
H	 2.8052572783	-1.4541332706	-1.372737246	 0.089014
H	 0.3627052061	-1.5090117839	-1.6205601311	 0.087081
H	 0.7651600447	 0.1376014843	-2.1006719641	 0.08673
71.1248	200.1794	234.9126	276.4071	282.4198	348.8152	384.2361	422.1185	515.2894	540.2372	563.1807	587.16	707.5058	826.3227	848.2851	879.362	884.6106	904.3802	916.2265	925.1224	946.6446	985.4313	989.9584	1010.5638	1014.8987	1034.6617	1059.6592	1113.3125	1139.7511	1159.9154	1167.6087	1218.0665	1219.7818	1254.943	1263.6394	1269.6626	1306.1563	1323.8908	1327.2018	1337.0753	1337.4906	1352.4312	1360.874	1361.8504	1406.4338	1482.941	1487.7373	1489.3967	1494.5607	1500.4885	1501.9709	1504.3261	1512.9869	3018.0559	3018.1112	3019.7096	3021.5998	3026.1974	3027.3877	3030.0301	3031.8347	3071.4331	3074.5499	3075.3301	3079.4536	3082.0312	3087.4443	3088.7397	3089.3023
CC12CCCC1CCC2	C[C@]12CCC[C@H]1CCC2	
InChI=1S/C9H16/c1-9-6-2-4-8(9)5-3-7-9/h8H,2-7H2,1H3	InChI=1S/C9H16/c1-9-6-2-4-8(9)5-3-7-9/h8H,2-7H2,1H3/t8-,9+
