16
gdb 123350	6.82398	0.71956	0.68145	2.7407	76.89	-0.2643	-0.0127	0.2516	1580.7886	0.123696	-400.712715	-400.704321	-400.703377	-400.747096	30.276	
C	 0.0213515819	-1.2264597547	 0.0388558372	-0.43547
C	 0.0314284378	-0.0320076642	 0.1712161902	 0.294695
C	 0.0766385152	 1.4169329918	 0.3159930977	-0.349799
C	 1.3458380045	 2.03582935	-0.3229740071	-0.306204
C	 1.4036973193	 3.5211236201	-0.1373651759	 0.37968
N	 1.1966585852	 4.3208308095	-1.1584069393	-0.196129
O	 1.2973291605	 5.6162063116	-0.6580822055	-0.1612
C	 1.562658783	 5.5528734445	 0.6534058054	 0.084709
C	 1.6447138894	 4.2623524772	 1.059624229	-0.331669
H	-0.0019135992	-2.2820016196	-0.0734965111	 0.197573
H	-0.8098643009	 1.8666531796	-0.1469306378	 0.147235
H	 0.0342706546	 1.6822545733	 1.3797567131	 0.133397
H	 2.2311028845	 1.5710291063	 0.1230569773	 0.126843
H	 1.3603312934	 1.8117067534	-1.3920114533	 0.14197
H	 1.6694653721	 6.5007782606	 1.1580580251	 0.15263
H	 1.8510190886	 3.8881150305	 2.048598925	 0.121739
46.1272	60.1162	98.427	186.7316	314.2319	357.7501	370.5355	473.9059	616.3886	622.1297	646.7471	688.1632	750.13	775.4209	800.271	872.8689	908.4695	944.4014	969.3903	988.6293	1017.3374	1040.1128	1085.7181	1157.4227	1184.4549	1280.5696	1298.2508	1310.1701	1370.3889	1449.3574	1472.2433	1481.0584	1491.5152	1609.5219	2240.7312	3027.596	3055.7609	3064.228	3117.9269	3259.9503	3283.9084	3507.149
C#CCCC1=NOC=C1	C#CCCc1nocc1	
InChI=1S/C7H7NO/c1-2-3-4-7-5-6-9-8-7/h1,5-6H,3-4H2	InChI=1S/C7H7NO/c1-2-3-4-7-5-6-9-8-7/h1,5-6H,3-4H2
