15
gdb 85349	3.0349	1.24085	0.91312	4.1206	80.42	-0.2465	-0.0771	0.1694	1204.1991	0.111203	-420.628652	-420.620276	-420.619332	-420.661961	31.117	
O	 0.1037733179	 1.3846704817	 0.0643909624	-0.421369
C	 0.0321316093	-0.0256618087	-0.0289395935	-0.001429
C	-1.4299722641	-0.4757214101	-0.1088973839	-0.345506
C	-1.5134835742	-1.4059906075	-1.3269918372	 0.395995
O	-2.4682473233	-2.0693237872	-1.6553879537	-0.326619
C	-0.2074852223	-1.3317353381	-2.021550559	-0.306228
C	 0.6511942301	-0.5619533239	-1.328312425	 0.176006
C	 1.9794757922	-0.2199854061	-1.6591841285	 0.218348
C	 3.1157917839	 0.1224826936	-1.8736530792	-0.397442
H	 1.0331550998	 1.6386187062	 0.0223422112	 0.289878
H	 0.5484644068	-0.4937691216	 0.8233298902	 0.091057
H	-1.7916798351	-0.9813936208	 0.7885997085	 0.134622
H	-2.065092738	 0.3987767016	-0.2806392407	 0.155104
H	-0.0105518878	-1.8391816764	-2.9568642016	 0.126734
H	 4.1167475348	 0.4042455171	-2.09248247	 0.21085
71.9889	114.0326	130.9064	251.6119	309.7469	347.212	394.3423	453.2752	513.1977	549.2364	564.7111	623.8173	644.7028	649.3391	701.232	818.0228	852.0522	906.9078	954.0029	1006.0564	1089.5946	1139.6725	1168.9875	1189.0242	1244.2353	1266.8417	1286.4858	1337.2384	1416.3682	1448.2706	1646.4742	1814.8783	2213.3875	2979.9782	3072.0272	3124.7372	3226.8865	3496.4621	3794.4398
OC1CC(=O)C=C1C#C	O[C@H]1CC(=O)C=C1C#C	
InChI=1S/C7H6O2/c1-2-5-3-6(8)4-7(5)9/h1,3,7,9H,4H2	InChI=1S/C7H6O2/c1-2-5-3-6(8)4-7(5)9/h1,3,7,9H,4H2/t7-/m0/s1
