16
gdb 16919	3.64644	2.20972	1.9964	2.8437	68.08	-0.2231	-0.0179	0.2052	742.7815	0.133368	-346.632353	-346.626467	-346.625523	-346.662117	24.38	
O	 0.0180568259	 0.0258891894	 0.0947978726	-0.328833
C	-0.005638548	 1.2255643929	 0.0418278115	 0.431693
C	-1.2532679467	 2.1375597813	 0.0199288878	-0.322383
C	-0.6070362279	 3.5527461197	 0.0309019566	-0.065686
C	 0.6078187286	 3.3140668464	-0.903785286	-0.22604
C	 1.2067684657	 2.1890596549	-0.0252102813	-0.151526
C	 1.1737723859	 2.8660478317	 1.3440443689	-0.087133
C	 0.1113098522	 3.6768939685	 1.3731647857	-0.071482
H	-1.8136867224	 1.9421100017	-0.9012680092	 0.124103
H	-1.9148095033	 1.9357426612	 0.8645212059	 0.126862
H	-1.2807543932	 4.3662784256	-0.237235767	 0.070038
H	 0.32194994	 2.9835553276	-1.9084003668	 0.100575
H	 1.2700814489	 4.180246612	-0.9726609162	 0.107416
H	 2.1358592964	 1.7096731457	-0.3256330791	 0.079979
H	 1.8435010635	 2.6175428001	 2.1565482418	 0.10996
H	-0.2572457055	 4.2449266612	 2.2178353349	 0.102456
135.6907	348.2226	423.5246	438.0818	500.8219	592.8645	617.7537	719.9673	750.7334	774.4359	824.792	864.7729	904.9808	927.8381	938.0385	949.8879	956.6252	1001.2493	1010.6886	1092.4861	1116.775	1132.0188	1152.0658	1183.384	1214.4926	1253.4311	1282.8312	1293.7577	1309.8226	1352.9889	1457.9108	1495.5159	1638.4501	1855.7665	3047.3353	3053.7334	3112.1585	3114.8831	3116.8594	3145.9865	3205.9453	3232.0934
O=C1CC2CC1C=C2	O=C1C[C@@H]2C[C@H]1C=C2	
InChI=1S/C7H8O/c8-7-4-5-1-2-6(7)3-5/h1-2,5-6H,3-4H2	InChI=1S/C7H8O/c8-7-4-5-1-2-6(7)3-5/h1-2,5-6H,3-4H2/t5-,6+/m0/s1
