19
gdb 56653	3.04831	1.13284	0.94987	3.6459	76.46	-0.2517	0.0045	0.2562	1279.6837	0.157172	-419.19483	-419.184661	-419.183717	-419.229981	36.563	
C	-0.044795384	 1.4663841813	-0.2433911309	-0.408555
C	 0.162330758	-0.0098839279	-0.0024560655	-0.035177
N	 1.5515005831	-0.5167882996	 0.0143082017	-0.369203
C	 0.7498917167	-0.5861124538	 1.2413638437	 0.297111
C	 1.2071440627	 0.2647343081	 2.4069965606	-0.471168
C	 0.226834621	-1.9650894938	 1.6693027199	-0.077208
O	-0.1327674721	-2.7094741942	 0.5186783065	-0.418544
C	 1.2428318097	-2.7068926479	 2.450862657	 0.255513
N	 2.0089161058	-3.3238853253	 3.0574000724	-0.320403
H	 0.7457927515	 2.067978207	 0.2088746054	 0.128681
H	-0.0416792983	 1.6726202262	-1.3189621219	 0.125932
H	-1.0092948799	 1.7972610892	 0.1572313417	 0.11629
H	-0.5638430011	-0.6484698117	-0.4988480428	 0.102995
H	 1.5790829068	-1.4336005582	-0.4271231413	 0.241015
H	 1.5874960919	 1.2235505369	 2.0551232249	 0.138846
H	 0.3843393145	 0.4545027483	 3.1060522033	 0.116027
H	 2.0141781003	-0.2294849323	 2.9572134947	 0.146442
H	-0.6411564809	-1.814787118	 2.3304394114	 0.124765
H	-0.3700521958	-3.6030299443	 0.7870464889	 0.30664
49.5975	125.4328	142.0266	148.2442	197.2645	233.7919	259.833	274.7166	299.5215	366.8199	417.7734	449.297	472.9564	580.4469	628.183	741.9481	806.2571	863.2628	911.5867	965.2695	988.6074	1035.6139	1070.2526	1095.4215	1100.3359	1127.3523	1142.6004	1233.6576	1254.8084	1279.3061	1341.1911	1362.8994	1390.7967	1410.8515	1424.2779	1458.2639	1478.948	1487.9223	1499.1928	1511.1206	2352.6319	2983.822	3036.0251	3039.0858	3096.4193	3099.6202	3127.3567	3148.3018	3152.85	3497.8183	3828.8396
CC1NC1(C)C(O)C#N	C[C@H]1N[C@]1(C)[C@@H](O)C#N	
InChI=1S/C6H10N2O/c1-4-6(2,8-4)5(9)3-7/h4-5,8-9H,1-2H3	InChI=1S/C6H10N2O/c1-4-6(2,8-4)5(9)3-7/h4-5,8-9H,1-2H3/t4-,5+,6+/m1/s1
