13
gdb 123961	3.61072	1.71315	1.19924	5.6224	59.56	-0.2637	-0.0367	0.227	933.7302	0.09141	-489.826844	-489.82064	-489.819695	-489.857564	23.938	
C	-0.0001938351	 1.3947682341	 0.0121997408	-0.111298
C	 1.4196924419	 1.9538415221	 0.0357657238	-0.11128
O	 2.1294385381	 1.5621686939	 1.2272806086	-0.254921
C	 1.9208841893	 0.2649953679	 1.4943446082	 0.358465
N	 2.6101211504	-0.471116068	 2.312131632	-0.196755
O	 2.0062687407	-1.7124938705	 2.2440671566	-0.162005
N	 0.9334510484	-1.7287024763	 1.3728296835	-0.196746
C	 0.8766288268	-0.515860154	 0.9129790072	 0.358452
O	-0.0082153803	-0.0463064506	 0.0218754396	-0.25492
H	-0.5685143453	 1.7624915656	 0.8751635882	 0.140062
H	-0.5086650829	 1.6931862552	-0.906077066	 0.145443
H	 1.9784236949	 1.6111417304	-0.8436037172	 0.140062
H	 1.396214063	 3.0448137904	 0.0434240147	 0.145441
132.0754	238.52	342.3443	426.7883	456.4296	474.4727	561.9317	588.5922	705.532	737.4271	759.8612	869.1694	902.1634	905.8958	964.9523	1046.0566	1068.0692	1100.3793	1118.8516	1248.8748	1284.3499	1292.3523	1396.9255	1408.0477	1477.4635	1491.3465	1492.3768	1612.5476	1674.0159	3037.6078	3047.4148	3129.9844	3131.6753
C1COC2=NON=C2O1	C1COc2nonc2O1	
InChI=1S/C4H4N2O3/c1-2-8-4-3(7-1)5-9-6-4/h1-2H2	InChI=1S/C4H4N2O3/c1-2-8-4-3(7-1)5-9-6-4/h1-2H2
