17
gdb 29923	2.03754	1.92222	0.99654	1.4828	88.52	-0.1751	0.0112	0.1863	1156.3823	0.135751	-380.875834	-380.866553	-380.865609	-380.909917	34.262	
C	 0.0063081953	 1.4309111975	 0.049575	-0.337288
N	-0.0338783611	-0.0136246651	 0.0054855139	-0.067424
C	-0.0348262017	-0.7856586525	-1.1125542104	-0.097935
C	-0.0213306413	-2.1183617611	-0.7488485861	-0.223268
C	-0.0056227799	-2.1641293403	 0.666729479	 0.15512
N	-0.064488458	-3.3033032795	 1.4704378536	-0.620216
C	-0.0046794789	-0.8454562512	 1.1259601208	 0.128682
C	 0.0167378215	-0.3683436697	 2.4435013687	 0.23008
C	 0.0490872905	 0.0165840705	 3.5890292184	-0.472661
H	 0.9802567206	 1.794914389	 0.3955261213	 0.140523
H	-0.1801838447	 1.8202501128	-0.9529676933	 0.135095
H	-0.7622791922	 1.8140243546	 0.7266715504	 0.148598
H	-0.0469394607	-0.3310268266	-2.0909900362	 0.117391
H	-0.0407806214	-2.9621044422	-1.4212458114	 0.092442
H	 0.4499913358	-4.0883932682	 1.0949982641	 0.242735
H	 0.216708136	-3.1221601689	 2.425698224	 0.246555
H	 0.0540739601	 0.3560950511	 4.5945233333	 0.181571
54.3744	125.9566	133.2702	173.1769	257.0042	284.3169	310.091	383.6447	393.13	481.829	546.4517	569.6583	603.7544	669.2315	685.8437	694.3875	711.7853	754.0232	776.2677	788.8511	1027.5339	1057.9191	1099.9306	1130.6029	1152.9386	1257.1567	1278.959	1378.6356	1424.351	1455.994	1477.2838	1482.3542	1523.7161	1543.5316	1595.9968	1653.5394	2202.1646	3033.9837	3095.9156	3137.2965	3243.6106	3262.4766	3503.1247	3538.0197	3633.5784
CN1C=CC(N)=C1C#C	Cn1ccc(N)c1C#C	
InChI=1S/C7H8N2/c1-3-7-6(8)4-5-9(7)2/h1,4-5H,8H2,2H3	InChI=1S/C7H8N2/c1-3-7-6(8)4-5-9(7)2/h1,4-5H,8H2,2H3
