16
gdb 17478	3.68458	2.55372	2.02227	1.4305	68.08	-0.2235	0.0053	0.2288	724.1462	0.130784	-346.564568	-346.558321	-346.557377	-346.594341	25.953	
C	-0.0265571443	 1.5043879779	-0.0881173673	-0.496268
C	-0.0739231335	 0.0155255206	 0.1062825657	 0.39855
O	 0.3468490392	-0.7107470814	-1.1471487001	-0.321955
C	-0.7518593415	-1.5664872695	-0.9878611828	 0.098207
C	-0.877016184	-2.1231485662	 0.4889147242	-0.138871
C	 0.3024937895	-1.8961359849	 1.3533994062	-0.064109
C	 0.7439448488	-0.6400869039	 1.1929423976	-0.144161
C	-1.4226904926	-0.7769364941	 0.0715575524	-0.208129
H	 1.0004033299	 1.8292734227	-0.2832199767	 0.131979
H	-0.6492717839	 1.8078118706	-0.9336828198	 0.12826
H	-0.3823915855	 2.0131717781	 0.81399243	 0.124129
H	-1.0912961512	-2.1305497584	-1.8479987662	 0.109466
H	-1.5510960609	-2.9605644611	 0.6225037993	 0.08706
H	 0.7793926471	-2.6735709704	 1.9376068129	 0.102289
H	 1.6482447843	-0.2078361943	 1.6018398228	 0.098061
H	-2.4305164914	-0.4057697056	 0.2102294118	 0.09549
207.4733	275.2226	277.5817	410.5108	447.7189	589.6771	614.6664	680.8514	713.9743	740.6256	777.5612	792.4052	809.1613	831.1716	913.4418	923.2602	941.4035	991.3038	1022.9461	1051.3552	1052.6726	1081.2656	1110.0602	1126.0099	1204.2751	1214.1792	1278.2298	1315.0801	1364.7545	1378.5893	1412.545	1480.1746	1489.6065	1627.5981	3038.4563	3108.1598	3121.1273	3179.9853	3187.057	3197.9386	3202.7245	3224.8976
CC12OC3C(C=C1)C23	C[C@@]12O[C@H]3[C@@H](C=C1)[C@@H]23	
InChI=1S/C7H8O/c1-7-3-2-4-5(7)6(4)8-7/h2-6H,1H3	InChI=1S/C7H8O/c1-7-3-2-4-5(7)6(4)8-7/h2-6H,1H3/t4-,5+,6-,7+/m0/s1
