16
gdb 45459	2.80846	1.62565	1.17469	5.9907	69.89	-0.2317	-0.0609	0.1708	1028.6227	0.12613	-437.927848	-437.920434	-437.919489	-437.960341	28.086	
O	-0.0131405239	-0.0397190424	-0.3747959188	-0.348692
C	-0.0240006608	 1.1459180415	-0.1465575521	 0.298639
N	-1.1159951382	 1.9573785092	 0.0044249832	-0.309767
C	-0.8672837743	 3.359833747	 0.2750211517	-0.008067
C	-1.0397696245	 3.802389934	 1.7578579622	-0.228271
C	 0.4928828282	 3.6680027674	 1.9681251111	-0.233871
C	 0.679671949	 3.4364214907	 0.4242652683	-0.137546
C	 1.2064562357	 2.0717216103	 0.0459705702	 0.31583
O	 2.3473023057	 1.7178208875	-0.071491866	-0.289585
H	-2.0463894024	 1.5689896343	-0.0409838403	 0.258527
H	-1.3410026014	 3.9990980572	-0.4751008372	 0.09422
H	-1.3931318577	 4.8328607687	 1.8412342811	 0.114499
H	-1.6788805304	 3.1602569896	 2.3673690483	 0.111636
H	 1.001229977	 4.5531313981	 2.3516093585	 0.125715
H	 0.7958133594	 2.8111760278	 2.573628158	 0.126879
H	 1.1920498186	 4.2437608793	-0.0970222081	 0.109853
61.0989	106.2792	202.5727	318.8741	362.1464	435.9337	509.7337	580.2637	611.1741	639.0482	705.5761	751.0183	799.3935	809.8515	887.8632	898.4358	958.7103	964.9264	1017.3227	1064.2985	1111.6912	1138.4102	1189.6076	1220.1627	1243.0042	1260.9723	1272.1237	1285.0805	1287.4948	1362.7613	1426.0745	1474.8479	1495.2187	1839.7603	1858.2831	3059.9059	3070.8951	3080.1821	3118.7289	3125.8196	3140.6193	3618.3242
O=C1NC2CCC2C1=O	O=C1N[C@H]2CC[C@H]2C1=O	
InChI=1S/C6H7NO2/c8-5-3-1-2-4(3)7-6(5)9/h3-4H,1-2H2,(H,7,9)	InChI=1S/C6H7NO2/c8-5-3-1-2-4(3)7-6(5)9/h3-4H,1-2H2,(H,7,9)/t3-,4+/m1/s1
