16
gdb 17177	4.11644	1.82479	1.57816	0.5853	63.9	-0.2428	0.0537	0.2965	851.7219	0.12871	-383.62738	-383.620377	-383.619433	-383.658723	26.735	
C	-0.0432151519	 1.5595868996	-0.0368773355	-0.381422
C	-0.0671414838	 0.0262414416	-0.0575722482	-0.339164
C	-1.4518327966	-0.5300601654	 0.0152707491	 0.449215
O	-2.4277311686	-0.2071956625	-1.0286091272	-0.353166
C	-3.1939442257	-1.0628592419	-0.1398695855	 0.038032
C	-1.9927419392	-1.989300972	 0.2171061784	-0.014524
O	-2.1581010898	-1.8508688371	 1.656466197	-0.327073
C	-2.5264344059	-0.5321098951	 1.1636229281	-0.001066
H	 0.9805693655	 1.9329498341	-0.1268222256	 0.11693
H	-0.6319178644	 1.9662718141	-0.8634593125	 0.140859
H	-0.4623918848	 1.9472226221	 0.8971742752	 0.119608
H	 0.409505342	-0.3485662913	-0.9714823065	 0.117275
H	 0.4973523394	-0.3845056858	 0.7883350382	 0.122249
H	-4.2322496971	-1.2861544857	-0.3811901528	 0.104836
H	-1.6663015819	-2.9448084173	-0.1931313993	 0.103327
H	-2.8344303471	 0.2351680226	 1.8735077673	 0.104084
85.6699	165.2402	188.8207	275.9317	366.6872	527.4355	562.7007	656.4546	728.4626	771.4824	776.7375	820.0717	835.6299	861.6022	899.6318	915.5237	984.7185	990.5101	1022.9843	1096.5206	1109.3388	1124.1729	1144.9907	1166.9019	1179.5607	1240.1679	1283.1349	1302.1742	1342.9294	1407.0914	1417.5378	1468.0643	1497.1346	1507.4266	3032.1324	3043.4522	3069.7374	3112.2186	3122.9588	3124.7158	3124.9782	3143.3103
CCC12OC3C1OC23	CC[C@@]12O[C@H]3[C@@H]1O[C@@H]23	
InChI=1S/C6H8O2/c1-2-6-4-3(8-6)5(6)7-4/h3-5H,2H2,1H3	InChI=1S/C6H8O2/c1-2-6-4-3(8-6)5(6)7-4/h3-5H,2H2,1H3/t3-,4-,5+,6+
