17
gdb 39755	3.28624	1.67094	1.47409	2.1469	70.68	-0.2396	0.0795	0.3191	925.764	0.137332	-421.765959	-421.759332	-421.758388	-421.796849	27.018	
C	 0.0555000203	 1.5212170317	 0.0025755381	-0.27917
O	 1.1877584272	 0.6246895886	-0.008765742	-0.294023
C	-0.1143825002	 0.0717068237	 0.0307302731	 0.480884
C	-0.5177617314	-0.909265987	 1.104362464	-0.179719
C	-1.8762138315	-1.504818852	 0.7393189578	-0.091003
C	-2.7409025518	-0.7698457456	-0.2815322638	-0.101658
O	-1.9296550306	-0.6557563243	-1.4586457241	-0.259396
C	-0.5966583938	-0.9199002415	-1.0550584607	-0.035586
C	-0.6524816376	-2.0119671654	 0.0494232454	-0.083205
H	-0.0627460705	 2.1009596687	 0.9171011479	 0.114058
H	-0.1100033852	 2.0699411037	-0.9233558919	 0.121544
H	-0.1133490739	-0.9655299446	 2.10746037	 0.098826
H	-2.3535637792	-2.1112837308	 1.4998660787	 0.100443
H	-3.6413308002	-1.3412025089	-0.5344610714	 0.108369
H	-3.0483644636	 0.2256598069	 0.0649951739	 0.102884
H	 0.0389622277	-1.0416426415	-1.9306786812	 0.096711
H	-0.2847518557	-3.0275168417	 0.0268669164	 0.100042
127.5123	225.4896	281.07	315.6167	444.0348	482.3488	602.4583	697.5175	757.2462	767.8214	791.0031	840.3485	862.716	892.0929	908.5813	940.028	964.1876	985.4199	989.3078	1036.4689	1053.8216	1074.5869	1090.0037	1116.8826	1121.8206	1150.3095	1176.5482	1198.3695	1222.8451	1251.6942	1279.7742	1301.2927	1354.6718	1396.4943	1451.611	1520.8598	1538.0549	3013.2709	3058.6738	3082.8267	3141.4324	3170.6227	3187.3491	3195.3744	3221.3762
C1OC11C2C3COC1C23	C1O[C@]21[C@H]1[C@H]3CO[C@@H]2[C@@H]13	
InChI=1S/C7H8O2/c1-3-4-5(3)7(2-9-7)6(4)8-1/h3-6H,1-2H2	InChI=1S/C7H8O2/c1-3-4-5(3)7(2-9-7)6(4)8-1/h3-6H,1-2H2/t3-,4+,5-,6+,7+/m0/s1
