22
gdb 78242	2.10669	1.61159	1.21158	2.2505	81.77	-0.2182	0.0721	0.2903	1156.6803	0.194195	-404.325803	-404.316458	-404.315514	-404.359746	35.595	
C	-0.0375024746	 1.8246271252	 0.7445785119	-0.400103
C	-0.494917213	 0.3634941578	 0.6325512023	 0.006557
C	-0.2450102689	-0.2185440132	-0.7879906739	-0.276367
C	 1.0573002163	-1.0523943039	-0.7125412893	 0.101407
O	 2.2116045978	-0.2981520261	-1.08390306	-0.436647
C	 1.2597273904	-1.3729672216	 0.7618738232	-0.027331
C	 0.3306661571	-0.5155202021	 1.5716703945	-0.024042
N	 0.2045432259	-1.9605103198	 1.5602202696	-0.108034
C	-0.9339794941	-2.7049745678	 1.054948947	-0.321394
H	 1.017406255	 1.9137961956	 0.4655733742	 0.133495
H	-0.6203144456	 2.4680670099	 0.0772509595	 0.107746
H	-0.1559696981	 2.2052499143	 1.7645708258	 0.11119
H	-1.5614903114	 0.3078912885	 0.8839173023	 0.070769
H	-1.0815205003	-0.8378071668	-1.1231303549	 0.103175
H	-0.1326732457	 0.5792985357	-1.5303368658	 0.089823
H	 0.9902727326	-1.960200903	-1.3314632264	 0.064229
H	 2.1376279917	-0.0882548942	-2.0200397327	 0.281049
H	 2.2783870106	-1.6104194299	 1.0583972309	 0.092967
H	 0.6187305573	-0.0854591932	 2.5293609905	 0.082148
H	-1.4322627648	-2.2975049917	 0.164730778	 0.101064
H	-0.6079577599	-3.7238192731	 0.821323286	 0.124135
H	-1.6820697984	-2.7727222008	 1.8517919373	 0.124165
82.8648	104.7153	126.2654	232.5483	254.419	269.8	287.2883	330.5477	358.8778	416.1388	510.1797	549.2723	694.9611	723.6669	748.8235	802.8867	837.5848	911.1141	924.7793	952.4924	1005.7808	1018.5936	1030.5033	1058.0183	1086.4939	1113.3725	1130.2705	1151.2354	1163.1907	1190.517	1212.2507	1229.8167	1266.1677	1299.2114	1316.1682	1340.9324	1349.4002	1361.4606	1406.8145	1414.593	1422.6628	1461.4727	1475.5147	1497.2761	1499.4694	1503.5354	1506.3747	2978.2698	3003.4918	3020.9493	3029.5334	3045.0762	3066.3776	3086.5868	3096.1052	3097.8958	3108.1502	3118.0338	3141.0659	3820.1115
CC1CC(O)C2C1N2C	C[C@H]1C[C@@H](O)[C@H]2[C@@H]1N2C	
InChI=1S/C7H13NO/c1-4-3-5(9)7-6(4)8(7)2/h4-7,9H,3H2,1-2H3	InChI=1S/C7H13NO/c1-4-3-5(9)7-6(4)8(7)2/h4-7,9H,3H2,1-2H3/t4-,5+,6+,7-,8?/m0/s1
