25
gdb 59457	2.69984	0.95515	0.88296	1.4538	89.6	-0.2571	0.0746	0.3318	1525.4268	0.226901	-389.487417	-389.476417	-389.475472	-389.523392	41.359	
C	-0.4438081696	 0.9295856233	-2.105725206	-0.384973
C	-0.0964226021	-0.190167141	-1.113561102	 0.013418
C	 0.8237740652	 0.3328711699	 0.0000666991	-0.388815
C	-1.362045714	-0.7940999631	-0.5239431507	 0.01553
C	-2.2010814577	-1.7855311552	-1.2946427107	-0.329823
C	-1.4690680615	-2.2241151889	-0.0450239812	-0.023289
C	-0.3329448101	-3.2461723072	-0.0884323131	 0.097519
C	-0.8097818224	-4.6185747628	 0.3960219626	-0.403149
O	 0.2866543935	-3.3550056686	-1.3685223978	-0.415923
H	 0.4609867394	 1.3579902432	-2.5502172627	 0.105514
H	-1.0769118184	 0.5591253412	-2.918231438	 0.109168
H	-0.9850941561	 1.7434419279	-1.6073865237	 0.104898
H	 0.4353570181	-0.9797724402	-1.6537902525	 0.09858
H	 0.3298463989	 1.1233015893	 0.5789757206	 0.105175
H	 1.1026595638	-0.4632893473	 0.6974285404	 0.11207
H	 1.7455533818	 0.7543388448	-0.4147348634	 0.107307
H	-1.9297497463	-0.0822132702	 0.0750251084	 0.071999
H	-3.2826060324	-1.7071373394	-1.2719622756	 0.105787
H	-1.8010798384	-2.1114206252	-2.250115667	 0.100398
H	-2.097087391	-2.3580897045	 0.8328393427	 0.078776
H	 0.4771277674	-2.9067930596	 0.568988746	 0.093593
H	-1.6397408753	-4.9795280035	-0.2242468933	 0.110617
H	 0.006896561	-5.3432937392	 0.3390468103	 0.121117
H	-1.16439477	-4.573597835	 1.4307140847	 0.116565
H	-0.3543304038	-3.7592966084	-1.963827937	 0.277942
53.1834	72.903	123.6008	193.832	219.0354	236.3086	244.5678	267.0628	290.7866	336.3106	344.8099	357.8978	432.7829	459.2219	572.0443	612.6358	746.263	757.5998	852.8918	889.3035	906.2753	934.139	954.1848	970.974	990.3253	998.3842	1057.4069	1064.4047	1075.2152	1099.7356	1135.2992	1146.9691	1177.5572	1186.2114	1207.99	1251.6992	1299.7137	1321.4709	1335.6876	1365.0006	1394.1351	1397.6185	1402.7716	1415.0764	1425.0939	1435.2779	1486.2478	1489.3493	1491.1624	1491.9496	1494.6091	1502.5354	1510.4342	3020.2049	3023.5849	3024.6831	3032.8911	3060.2278	3083.3719	3092.1328	3095.0086	3099.0819	3101.4562	3105.8116	3117.7435	3124.3779	3131.7035	3207.1376	3800.8805
CC(C)C1CC1C(C)O	CC(C)[C@H]1C[C@H]1[C@@H](C)O	
InChI=1S/C8H16O/c1-5(2)7-4-8(7)6(3)9/h5-9H,4H2,1-3H3	InChI=1S/C8H16O/c1-5(2)7-4-8(7)6(3)9/h5-9H,4H2,1-3H3/t6-,7-,8+/m1/s1
