22
gdb 109812	3.41977	0.88604	0.80676	1.7123	88.88	-0.2193	0.0501	0.2693	1526.6916	0.191193	-367.14704	-367.136337	-367.135393	-367.183364	38.814	
C	-0.2730517114	 1.3859000919	 0.0386144607	-0.386964
C	 0.8396071597	 0.3728018912	-0.2604456045	-0.195846
C	 1.1894639926	-0.4462848762	 0.9680079963	-0.004365
C	 0.5696317752	-1.7731111727	 1.2900470793	 0.007352
C	-0.457954973	-2.4561497403	 0.4117534805	-0.422337
N	 1.9930900585	-1.6749142308	 0.9446652055	-0.1163
C	 2.4776853161	-2.2080087903	-0.3289787605	-0.317008
C	 2.7809381149	-3.6335851518	-0.2174775847	 0.325211
C	 3.0187088165	-4.8087418098	-0.1399735484	-0.440057
H	 0.0097952254	 2.0494652987	 0.8629211878	 0.119741
H	-0.483672818	 2.0101357821	-0.8348425909	 0.114502
H	-1.2010337598	 0.8803246082	 0.3245895666	 0.121724
H	 0.5346955908	-0.2621881006	-1.0967543833	 0.098529
H	 1.7378410065	 0.9083473161	-0.5955824335	 0.103163
H	 1.4495317208	 0.1886870699	 1.8170698409	 0.084916
H	 0.4275898256	-2.0021235799	 2.3462904744	 0.087896
H	-0.4282316538	-2.1356136187	-0.6314239849	 0.118297
H	-0.3154889974	-3.5416264625	 0.4306268268	 0.137775
H	-1.4635459082	-2.2456996862	 0.7908615246	 0.121257
H	 1.7938250621	-2.0653273115	-1.1794036627	 0.11304
H	 3.39596136	-1.6624688445	-0.5815381589	 0.134422
H	 3.2363230268	-5.8454163923	-0.0680781209	 0.195052
45.3001	63.722	96.4689	139.3106	188.9561	211.4144	240.3026	281.3321	298.3136	336.9606	416.5655	483.0425	534.2031	578.7159	608.0485	652.7777	731.1525	784.0038	799.0721	852.4643	958.8547	968.7919	995.1935	1012.6728	1044.2144	1052.9439	1072.9588	1135.8475	1160.5574	1176.7377	1200.781	1254.8261	1287.517	1340.7259	1345.6133	1364.1676	1399.5584	1409.343	1414.9038	1445.7131	1475.3543	1490.3216	1498.3976	1499.778	1501.8673	1511.918	2241.5555	2982.696	3022.874	3034.4178	3035.3166	3041.5599	3071.5408	3084.3861	3096.1494	3099.7686	3106.5357	3108.8576	3129.9595	3506.8729
CCC1C(C)N1CC#C	CC[C@H]1[C@@H](C)N1CC#C	
InChI=1S/C8H13N/c1-4-6-9-7(3)8(9)5-2/h1,7-8H,5-6H2,2-3H3	InChI=1S/C8H13N/c1-4-6-9-7(3)8(9)5-2/h1,7-8H,5-6H2,2-3H3/t7-,8+,9?/m1/s1
