20
gdb 83653	2.35691	1.72105	1.27377	1.4361	78.06	-0.2389	0.0588	0.2977	1060.3541	0.172174	-403.088673	-403.080604	-403.07966	-403.121248	32.016	
O	 0.6837647053	 0.774916041	-0.7202368397	-0.425975
C	 0.1935405555	-0.3460660317	-0.0293088759	 0.049571
C	 0.2916584066	-0.4541238367	 1.5174845362	-0.057837
C	-0.123371755	 0.8127056833	 2.3191272817	-0.241349
C	-1.5487183415	 0.2224189926	 2.5380863003	-0.216691
C	-1.2109494038	-0.9379594958	 1.5723822129	-0.107553
C	-1.3233768031	-0.5797207812	 0.0826665525	 0.315912
C	-2.3712270113	 0.185882879	-0.6323639583	-0.314996
N	-2.1755071704	-1.2545266971	-0.8876707748	-0.376423
H	 0.2783764659	 1.5603252286	-0.3369290101	 0.281139
H	 0.6831206555	-1.2098963641	-0.4946193206	 0.09292
H	 1.1266564069	-1.0273320845	 1.9197801168	 0.068064
H	 0.4509784742	 0.9744255978	 3.2332875089	 0.108895
H	-0.0909701656	 1.7486133957	 1.7501011311	 0.081555
H	-1.6962614897	-0.1220592627	 3.564818488	 0.103419
H	-2.3985928569	 0.853305768	 2.2625492768	 0.097135
H	-1.5132345296	-1.9519399082	 1.833986461	 0.077095
H	-3.3045766985	 0.4392040297	-0.1363841237	 0.119217
H	-2.0436701729	 0.8968854828	-1.3875853919	 0.113795
H	-1.6672007313	-1.3855400164	-1.7607420111	 0.232105
65.5961	202.6864	214.6106	232.2026	264.2862	316.1927	423.7399	454.0138	554.717	592.9954	665.0652	760.3282	797.2826	806.1273	846.947	880.9217	907.3029	940.1999	959.3807	976.8779	981.9921	1023.061	1044.04	1082.5476	1106.9501	1111.0467	1132.043	1137.0315	1193.2018	1225.9054	1238.4666	1251.3316	1258.9666	1269.7794	1280.1449	1297.0609	1308.0949	1323.7158	1405.0039	1431.2268	1478.1424	1497.8299	1504.4188	3038.6093	3040.84	3054.4025	3093.2917	3100.3941	3106.6107	3109.5735	3120.024	3186.5759	3474.7096	3807.1132
OC1C2CCC2C11CN1	O[C@H]1[C@H]2CC[C@H]2[C@]21CN2	
InChI=1S/C7H11NO/c9-6-4-1-2-5(4)7(6)3-8-7/h4-6,8-9H,1-3H2	InChI=1S/C7H11NO/c9-6-4-1-2-5(4)7(6)3-8-7/h4-6,8-9H,1-3H2/t4-,5+,6-,7-/m0/s1
