18
gdb 56291	7.26958	0.52611	0.49676	4.3055	74.92	-0.2571	-0.0219	0.2352	2110.0052	0.143877	-439.106931	-439.096346	-439.095402	-439.144989	34.838	
C	 0.0622540144	 1.4623280379	-0.0072069276	-0.484288
C	 0.0007566687	-0.0522321809	 0.079841025	 0.359458
O	-0.0406410476	-0.6502052203	 1.1241127021	-0.266161
C	 0.0004204225	-0.7730219682	-1.268371361	-0.162234
O	 0.0334703706	-2.1570878697	-1.0736719139	-0.224063
C	 0.0156670845	-2.892466415	-2.2728393784	-0.051311
C	 0.0605480905	-4.3733328912	-1.8765521787	-0.338678
C	 0.0474948326	-5.250526209	-3.042467153	 0.246567
N	 0.0365194215	-5.9270176434	-3.9789348739	-0.300605
H	 1.04652324	 1.7749169063	-0.3753412238	 0.146958
H	-0.6819796569	 1.8519836885	-0.7100177247	 0.137645
H	-0.1008928999	 1.89068135	 0.9821029438	 0.151689
H	-0.9010652221	-0.4606205346	-1.8266123155	 0.113296
H	 0.8647584144	-0.4214833248	-1.8602051861	 0.110785
H	-0.8944760806	-2.6833762118	-2.8567150361	 0.112592
H	 0.8804206435	-2.6435614831	-2.9079513611	 0.112172
H	 0.9628023763	-4.5621782298	-1.2860238131	 0.167705
H	-0.7971429423	-4.602416851	-1.2358996541	 0.168472
35.5482	39.407	77.4724	84.879	122.8912	139.57	166.2747	288.187	331.8458	399.0757	456.5756	479.355	536.614	616.0908	796.8672	833.1899	866.7259	936.8371	960.5434	1045.8278	1086.129	1090.8781	1102.052	1176.2926	1205.3058	1226.8131	1263.0728	1301.0007	1302.7664	1379.9528	1388.8106	1435.1414	1463.1032	1470.1232	1476.7396	1488.6209	1530.2954	1837.9715	2367.1171	2942.908	2966.0277	2976.4881	3008.6946	3037.4679	3060.0553	3098.3033	3103.2491	3155.7221
CC(=O)COCCC#N	CC(=O)COCCC#N	
InChI=1S/C6H9NO2/c1-6(8)5-9-4-2-3-7/h2,4-5H2,1H3	InChI=1S/C6H9NO2/c1-6(8)5-9-4-2-3-7/h2,4-5H2,1H3
