18
gdb 85642	1.98481	1.71183	1.19904	3.1349	78.51	-0.256	0.0177	0.2737	1108.6993	0.147323	-401.941383	-401.932666	-401.931722	-401.974825	32.947	
C	 0.9504364355	 1.2591838027	-0.3215339238	-0.400206
C	 0.0945724663	 0.0327527227	-0.0291954634	 0.118459
C	 0.1378543161	-1.0655230997	-1.1096433899	-0.257661
C	 1.2577368736	-2.0104459749	-0.6126914532	-0.253951
C	 2.5729282689	-1.7089039026	-1.1690115739	 0.363559
C	 3.6476288094	-1.460859103	-1.6463861666	-0.489094
C	 1.2185947907	-1.7817510484	 0.9019242033	 0.404986
N	 1.7041831472	-2.5674736036	 1.7590290735	-0.53303
O	 0.5658206892	-0.6198946058	 1.174646674	-0.244361
H	 1.9766849582	 0.9719149078	-0.5656875535	 0.144082
H	 0.5342849499	 1.8131691887	-1.1692489573	 0.118887
H	 0.9687936475	 1.9222143664	 0.5476384181	 0.129919
H	-0.9339130951	 0.3409625526	 0.1813509414	 0.09433
H	-0.8103453355	-1.6092995067	-1.1303400593	 0.117135
H	 0.3296671796	-0.6668669791	-2.1062362965	 0.124537
H	 1.0228566804	-3.0595707352	-0.8099455002	 0.136354
H	 4.6050656532	-1.2526502053	-2.0559807311	 0.202705
H	 1.5590613948	-2.2042498666	 2.7026927084	 0.223351
79.2559	106.5544	143.7966	212.8838	243.3372	329.8297	395.5913	415.7577	442.6433	505.0886	632.086	634.8288	663.3844	666.3381	744.2927	787.5257	862.8113	889.5705	894.556	931.0757	985.4298	1036.344	1040.8311	1103.5791	1130.1855	1137.115	1200.5252	1234.3942	1282.292	1311.499	1338.0413	1374.1719	1395.9548	1413.4622	1485.4144	1494.0228	1497.8247	1776.0542	2237.0288	3043.0773	3057.4266	3070.9572	3082.2969	3115.7867	3131.1667	3134.818	3473.325	3503.1919
CC1CC(C#C)C(=N)O1	C[C@H]1C[C@@H](C#C)[C]([NH])O1	
InChI=1S/C7H9NO/c1-3-6-4-5(2)9-7(6)8/h1,5-6,8H,4H2,2H3	InChI=1S/C7H9NO/c1-3-6-4-5(2)9-7(6)8/h1,5-6,8H,4H2,2H3/t5-,6+/m0/s1
