16
gdb 50226	5.13016	1.17774	1.07498	2.0839	70.34	-0.2444	0.025	0.2694	1086.2429	0.125561	-437.839874	-437.833054	-437.83211	-437.871838	26.408	
O	-0.0242635171	-0.0381143928	 0.1306522857	-0.338685
C	 0.0107251919	 1.1742655873	 0.0858264464	 0.139878
N	 1.1499053147	 1.9050433467	 0.0296161262	-0.045289
C	 2.5126450453	 1.3482752821	 0.0149569719	-0.198478
C	 3.2891132215	 2.660112866	-0.0516007242	-0.074693
C	 2.5620593667	 3.7301748866	 0.8267614437	 0.044057
O	 2.9023791755	 4.7946399578	-0.1178806603	-0.31027
C	 2.5164710098	 3.6662418132	-0.9658881011	 0.04406
C	 1.3155910308	 3.3320514775	-0.0254202359	-0.019899
H	-0.89466449	 1.8136548607	 0.0861853089	 0.073237
H	 2.7131098672	 0.7627441501	 0.9178279061	 0.134761
H	 2.6682523945	 0.6995302168	-0.8528706901	 0.13474
H	 4.3762980248	 2.6486832529	-0.0788441311	 0.09763
H	 2.6472041651	 3.9341454014	 1.8938586928	 0.104316
H	 2.5470015736	 3.7935710156	-2.0477407584	 0.104316
H	 0.4090190956	 3.931999858	-0.0237764505	 0.11032
41.8056	200.3584	271.1531	355.0546	417.4916	439.9638	504.9755	685.3362	759.5623	780.6051	787.135	850.1256	885.9554	900.5946	930.3547	972.9438	975.493	997.2961	1030.6376	1042.916	1130.4617	1145.824	1150.1851	1172.607	1201.3433	1219.5016	1222.0103	1248.1488	1267.9896	1327.9145	1354.5678	1419.8911	1466.4361	1515.1952	1791.7847	2933.5194	3051.2911	3090.3363	3123.3418	3126.1674	3158.2674	3168.1953
O=CN1CC2C3OC2C13	O=CN1C[C@@H]2[C@H]3O[C@@H]2[C@@H]13	
InChI=1S/C6H7NO2/c8-2-7-1-3-5-4(7)6(3)9-5/h2-6H,1H2	InChI=1S/C6H7NO2/c8-2-7-1-3-5-4(7)6(3)9-5/h2-6H,1H2/t3-,4+,5-,6+
