23
gdb 107875	2.29498	1.58485	1.12542	0.2099	90.39	-0.275	0.0901	0.3651	1208.118	0.205489	-351.090581	-351.081684	-351.080739	-351.124075	34.894	
C	 0.7430955849	-1.1983047693	-1.827412957	-0.376624
C	 0.1205867572	-0.5319151552	-0.5936043096	-0.326052
C	-1.3198699734	-0.9327014418	-0.3727170381	 0.379273
C	-2.4841363751	-0.6542017395	-1.3556331358	-0.310421
C	-3.1516475012	-1.3787438866	-0.1813248669	-0.039291
C	-1.9316502349	-2.3356575547	 0.0390133114	-0.100427
C	-1.9162139212	-2.0310648643	 1.5558445043	 0.018733
C	-0.6762794377	-2.2393601891	 2.4135773216	-0.435996
C	-2.2438448271	-0.6754915962	 0.8834853049	-0.115625
H	 1.7760984897	-0.8682340717	-1.9738894621	 0.110546
H	 0.750676744	-2.2886522961	-1.7251548837	 0.116781
H	 0.1829424453	-0.9543516058	-2.7358830762	 0.11931
H	 0.7270020496	-0.7595768815	 0.2887851674	 0.103017
H	 0.1576545911	 0.5598493413	-0.712063928	 0.096876
H	-2.7532480098	 0.3975390085	-1.5069488185	 0.084152
H	-2.4618622847	-1.1842613694	-2.314038486	 0.086714
H	-4.1981793961	-1.6513749395	-0.0358949014	 0.064638
H	-1.7681644769	-3.2857387123	-0.4755719109	 0.060259
H	-2.7885168459	-2.4563760494	 2.0715705538	 0.059126
H	 0.2332499953	-1.8512959371	 1.9501055945	 0.119028
H	-0.790203012	-1.7444921088	 3.3849914312	 0.113467
H	-0.5178157718	-3.3062636419	 2.6091370191	 0.113181
H	-2.4380301994	 0.2956749404	 1.3458378361	 0.059334
60.7285	148.1247	186.4951	199.5811	236.6737	247.8616	325.915	389.7846	435.6001	521.8003	628.4831	715.5226	729.3426	775.2042	837.8727	850.6839	867.8357	879.6391	912.9647	954.7262	981.0461	997.3331	1025.3909	1032.3366	1049.7706	1064.982	1090.9704	1104.2437	1128.012	1149.3645	1154.0506	1166.7861	1185.9575	1222.6042	1243.8251	1249.2485	1277.3115	1309.7444	1327.2659	1369.0026	1405.7181	1410.774	1416.496	1477.1249	1495.2019	1497.8647	1499.261	1507.9404	1510.9479	3003.6915	3016.194	3025.3316	3031.141	3034.7261	3070.6568	3077.4545	3080.5655	3080.7944	3084.1488	3102.4158	3103.7289	3106.7078	3126.2397
CCC12CC3C1C(C)C23	CC[C@@]12C[C@H]3[C@@H]1[C@@H](C)[C@@H]23	
InChI=1S/C9H14/c1-3-9-4-6-7(9)5(2)8(6)9/h5-8H,3-4H2,1-2H3	InChI=1S/C9H14/c1-3-9-4-6-7(9)5(2)8(6)9/h5-8H,3-4H2,1-2H3/t5-,6+,7+,8-,9-
