18
gdb 16506	3.72757	2.38675	1.83049	0.3732	75.59	-0.2166	0.0207	0.2373	787.0143	0.155489	-310.644202	-310.637765	-310.636821	-310.674154	26.963	
C	-0.0259360874	 1.4811205754	 0.0380376904	-0.498395
C	-0.0060711592	-0.027018018	-0.0359259033	 0.335648
C	 0.9522126269	-0.7344512419	-0.9405890286	-0.148468
C	 0.5152676484	-1.9718888939	-1.1935711017	-0.091594
C	-0.714999049	-2.2354206284	-0.3542283275	-0.109849
C	-0.2345086067	-2.2909350882	 1.1532280342	-0.231154
C	-0.4718703586	-0.7895194947	 1.2384181501	-0.102025
C	-1.2897570756	-0.8146980916	-0.0350673191	-0.103651
H	 0.9112523113	 1.8745743977	 0.4481490832	 0.117953
H	-0.1666653173	 1.9228015395	-0.9549179189	 0.119104
H	-0.8401965316	 1.8356359188	 0.678428696	 0.115086
H	 1.8760506825	-0.2884999744	-1.2902825758	 0.08927
H	 1.0347188846	-2.7379488104	-1.7566076676	 0.092412
H	-1.3822449424	-3.0308011863	-0.6825259975	 0.066547
H	-0.9644738376	-2.8223038346	 1.7698747055	 0.100817
H	 0.7686001131	-2.6885719473	 1.3419226246	 0.088826
H	-0.6425274875	-0.2263050636	 2.1491733289	 0.079896
H	-2.2727790638	-0.4169958781	-0.2612018329	 0.079575
199.4492	251.0506	295.834	363.9838	396.1518	550.8885	581.8599	692.565	721.0612	746.8778	806.6395	841.6453	860.8033	872.7475	875.4609	923.7628	932.1777	958.411	1000.0112	1002.4602	1051.0298	1075.7191	1086.9149	1100.2817	1115.8579	1182.8822	1203.457	1241.9984	1244.9686	1265.5187	1315.3407	1352.6119	1391.2285	1417.5953	1488.0518	1489.5932	1501.79	1647.0376	3023.988	3037.4683	3083.8068	3096.4667	3097.2905	3121.7018	3164.43	3176.6942	3189.0001	3215.0406
CC12C=CC3CC1C23	C[C@@]12C=C[C@H]3C[C@@H]1[C@@H]23	
InChI=1S/C8H10/c1-8-3-2-5-4-6(8)7(5)8/h2-3,5-7H,4H2,1H3	InChI=1S/C8H10/c1-8-3-2-5-4-6(8)7(5)8/h2-3,5-7H,4H2,1H3/t5-,6+,7-,8+/m0/s1
