13
gdb 131565	3.2131	1.65309	1.19045	4.2719	59.47	-0.2718	-0.0525	0.2193	956.1055	0.090189	-489.817289	-489.810465	-489.809521	-489.848875	25.497	
O	 0.0496468464	 1.434604468	 0.0318142333	-0.412898
C	 0.0377844537	 0.0179977419	 0.0074814448	-0.052643
C	-1.4374228462	-0.4420055583	-0.228964986	-0.101223
O	-1.5902088681	-0.8721603939	-1.6222397844	-0.259976
C	-0.3500640419	-0.9939189186	-2.1007016359	 0.445473
N	 0.1411757089	-1.4403285119	-3.215289591	-0.229055
O	 1.5209705127	-1.2682248164	-3.0272748934	-0.163
N	 1.82130102	-0.7243443281	-1.7944090062	-0.197547
C	 0.6686482079	-0.555630333	-1.2289737013	 0.263675
H	 0.9668737663	 1.7303162947	 0.0270841758	 0.301598
H	 0.4328594192	-0.4019250883	 0.9405577572	 0.110908
H	-1.6979703792	-1.2939897604	 0.4036588518	 0.138322
H	-2.1260452998	 0.3849658042	-0.0551547749	 0.156365
91.1511	162.4351	277.4317	318.3635	362.7389	459.5196	519.5843	593.8487	665.2132	724.0307	762.9426	817.1419	834.9854	877.897	905.9186	972.1431	991.7836	1060.362	1117.7309	1197.0524	1227.7458	1249.9536	1319.2177	1363.0489	1402.3961	1473.2966	1491.3691	1589.2921	1684.266	3032.3628	3079.216	3152.4212	3811.721
OC1COC2=NON=C12	O[C@H]1COc2nonc12	
InChI=1S/C4H4N2O3/c7-2-1-8-4-3(2)5-9-6-4/h2,7H,1H2	InChI=1S/C4H4N2O3/c7-2-1-8-4-3(2)5-9-6-4/h2,7H,1H2/t2-/m0/s1
