19
gdb 91540	2.68344	1.38243	1.16319	0.4979	75.34	-0.2502	0.0655	0.3157	1136.1084	0.157895	-422.96682	-422.958338	-422.957394	-423.00022	31.977	
C	 0.0301275813	 1.6327838093	 0.007462645	-0.415031
C	 0.029262059	 0.1113006771	-0.0459689156	-0.056271
C	 1.1191025919	-0.5944701322	-0.9388496906	-0.266983
C	 1.6309508865	-1.3059134151	 0.3169925767	-0.052534
O	 2.0045138469	-0.2936780415	 1.2642462146	-0.300495
C	 0.61743582	-0.6493586136	 1.1639963822	 0.440369
C	-0.0533766541	-1.1160998141	 2.3984130086	-0.053494
C	-1.1924873908	-0.403651578	 2.9955431551	-0.184538
O	-1.3918128811	-1.5988676916	 2.2394245058	-0.234471
H	 1.011325125	 2.0012062273	 0.3201924272	 0.133588
H	-0.1960090282	 2.055896542	-0.9769423755	 0.116341
H	-0.718764539	 2.0152065051	 0.7095147604	 0.113255
H	-0.9643394381	-0.2802383368	-0.2809676253	 0.093606
H	 0.6873006186	-1.2729006251	-1.6778696501	 0.109844
H	 1.846851173	 0.0620518376	-1.4229693759	 0.109622
H	 2.1128864263	-2.2721022968	 0.4163310203	 0.106103
H	 0.5803780181	-1.7185351198	 3.0495371435	 0.09995
H	-1.3744071095	-0.4890696317	 4.0657681547	 0.120873
H	-1.5614143259	 0.508932078	 2.531215129	 0.120267
61.9291	140.552	161.0943	191.9497	224.7697	294.7509	386.5424	408.6841	492.1529	577.9155	643.9622	705.2567	806.0101	856.1528	857.8355	888.7521	896.3182	925.3471	951.8213	990.2405	1018.8492	1060.1276	1094.1873	1108.2175	1114.7093	1152.7356	1169.3302	1185.1697	1203.3366	1221.642	1260.0445	1267.334	1299.6072	1357.8055	1376.1195	1402.7427	1469.1034	1490.1503	1494.0677	1503.8335	1529.202	3032.3709	3064.2333	3074.6692	3088.2358	3094.3127	3112.906	3116.2523	3124.3483	3177.4714	3182.8874
CC1CC2OC12C1CO1	C[C@H]1C[C@H]2O[C@@]12[C@H]1CO1	
InChI=1S/C7H10O2/c1-4-2-5-7(4,9-5)6-3-8-6/h4-6H,2-3H2,1H3	InChI=1S/C7H10O2/c1-4-2-5-7(4,9-5)6-3-8-6/h4-6H,2-3H2,1H3/t4-,5+,6+,7-/m0/s1
