17
gdb 26587	2.31556	1.84961	1.03563	4.4294	82.36	-0.1881	-0.0219	0.1663	1112.153	0.136858	-418.052091	-418.043597	-418.042652	-418.085166	32.432	
C	-0.0239665207	 1.5321079762	 0.0391376679	-0.524722
C	-0.018311991	 0.0266277831	 0.0210815407	 0.136955
C	-1.1765013829	-0.7018169973	 0.0484889931	 0.253975
N	-2.4207922551	-0.1093556379	 0.1419400038	-0.58241
C	-1.1188100467	-2.1456989539	 0.0345426016	-0.244406
C	 0.083043848	-2.7357230751	-0.0078424403	 0.073652
O	 1.2405235538	-2.0547933294	-0.0357856568	-0.240689
C	 1.2620038265	-0.6480419427	-0.016359144	 0.320248
N	 2.3912088695	-0.057877521	-0.0381164007	-0.555031
H	 0.9985019597	 1.9020779397	-0.030829205	 0.170775
H	-0.594313525	 1.9481641611	-0.8037418416	 0.110097
H	-0.4709782656	 1.9261803806	 0.9611276071	 0.123835
H	-2.4761436544	 0.864338121	-0.1133434754	 0.257177
H	-3.2025768627	-0.6539950246	-0.1869598692	 0.252724
H	-2.0200986577	-2.7445442165	 0.06681037	 0.100943
H	 0.2453186001	-3.8068011591	-0.0234279529	 0.133608
H	 3.1494386544	-0.7374351242	-0.0690588881	 0.213268
70.2757	120.6028	176.6115	256.4024	305.6391	352.9374	380.2644	467.4409	491.1612	516.5683	524.3654	529.7798	671.2512	681.7033	738.0325	773.1301	805.5536	842.3309	906.0556	922.9059	994.8428	1043.6733	1057.0433	1108.5709	1192.9279	1231.0623	1265.0289	1314.0263	1377.4096	1402.6342	1468.8253	1495.792	1499.5268	1616.7855	1654.5196	1694.916	1721.8916	2999.8079	3046.0017	3153.9084	3201.7006	3221.7436	3505.4622	3583.2881	3689.5055
CC1=C(N)C=COC1=N	CC1=C(OC=C[C@H]1N)[NH]	
InChI=1S/C6H8N2O/c1-4-5(7)2-3-9-6(4)8/h2-3,8H,7H2,1H3	InChI=1S/C6H9N2O/c1-4-5(7)2-3-9-6(4)8/h2-3,5,8H,7H2,1H3/t5-/m1/s1
