14
gdb 78068	2.11685	1.82037	1.66826	4.3153	62.66	-0.2559	-0.0816	0.1743	901.6439	0.099666	-473.794796	-473.787066	-473.786122	-473.827313	28.259	
O	 0.1538071779	 1.5278429201	-0.0130656888	-0.418788
C	 0.0057929814	 0.157768967	-0.0862279086	 0.025234
C	-1.359175005	-0.563213713	-0.0452819461	-0.094682
C	-2.1624561224	-0.5011556807	-1.2919450896	-0.105875
C	-2.2008180288	 0.6500492921	-2.2498697845	 0.15227
O	-1.3576909077	 1.5106802902	-2.3587043909	-0.259509
N	-0.994168101	-1.4493567012	-1.2244514581	-0.186598
C	 0.2280881753	-0.6350074197	-1.4017413609	 0.349948
O	 1.0540646654	-0.7200788446	-2.2474446526	-0.276808
H	-0.2345353377	 1.8895840839	-0.8241900647	 0.308528
H	 0.6438305211	-0.286984192	 0.6878089104	 0.136279
H	-1.7929133707	-1.0043586732	 0.8452597743	 0.123311
H	-3.0955469059	-1.05926388	-1.2744383945	 0.126173
H	-3.1021964621	 0.6694077611	-2.8938333153	 0.120518
81.8468	120.0171	209.1134	242.9148	256.8524	304.9029	487.5607	520.5868	594.4047	636.9915	684.5575	708.5286	782.9875	851.4984	864.032	897.951	939.2745	1004.0827	1036.6666	1077.729	1106.1608	1181.4656	1209.065	1232.0896	1321.2962	1336.3423	1405.4974	1430.1206	1457.9731	1800.5483	1936.5812	2944.0926	3048.4319	3144.9216	3183.8099	3707.2889
OC1C2C(C=O)N2C1=O	O[C@H]1[C@H]2[C@@H](C=O)N2C1=O	
InChI=1S/C5H5NO3/c7-1-2-3-4(8)5(9)6(2)3/h1-4,8H	InChI=1S/C5H5NO3/c7-1-2-3-4(8)5(9)6(2)3/h1-4,8H/t2-,3-,4+,6?/m1/s1
