19
gdb 37235	3.91765	1.37556	1.21789	1.6795	78.31	-0.2235	0.0536	0.2771	1066.2201	0.159176	-385.791197	-385.78382	-385.782875	-385.823187	29.828	
C	 0.0554088224	 1.5269394877	-0.1639454557	-0.217657
C	 1.5799823093	 1.5727623439	 0.147758182	-0.275208
C	 1.4803786603	 0.1374683286	 0.6915205362	 0.382985
C	 0.0508350557	-0.002149364	 0.1295823636	-0.304572
C	 2.4251085823	-1.0282178799	 0.7533974444	-0.192805
C	 3.8405517695	-0.6428383027	 1.2804708033	 0.018466
O	 3.8932210273	 0.7728799731	 1.5124672234	-0.24524
C	 3.273469536	-0.0722079927	 2.495716487	 0.016222
C	 1.8258065052	-0.4334780151	 2.0371656663	-0.183054
H	-0.5401450111	 2.0934282688	 0.5561977324	 0.101639
H	-0.2488631159	 1.8242368268	-1.1697943851	 0.096521
H	 2.2051519312	 1.6389435804	-0.7466171865	 0.10242
H	 1.9150957509	 2.3314293126	 0.8546017419	 0.109967
H	-0.7136823861	-0.3702569682	 0.8196974743	 0.098709
H	 0.015518051	-0.6114571986	-0.7789957051	 0.101402
H	 2.2001566593	-1.9804320475	 0.2882389527	 0.087047
H	 4.7750491512	-1.15594185	 1.0879538581	 0.107291
H	 3.6449110274	-0.0154339106	 3.5117659439	 0.107301
H	 1.0858758741	-0.8704585327	 2.6968182729	 0.088566
63.507	184.5321	192.8278	297.0544	372.4281	466.1736	497.4872	664.8861	710.0835	752.8749	757.6692	781.5285	782.6553	847.3211	864.0813	872.0842	906.0278	923.3075	943.5046	955.9367	980.6339	995.8268	1026.9862	1040.8483	1062.9261	1105.1627	1134.8534	1195.7909	1212.2981	1219.6233	1228.2785	1250.4322	1254.4927	1257.4627	1278.4871	1284.7393	1366.4351	1424.7632	1471.9386	1479.5173	1503.2783	3044.2638	3063.6246	3070.1393	3089.1562	3113.5559	3134.7911	3174.7885	3184.7455	3185.6673	3198.7917
C1CC2(C1)C1C3OC3C21	C1CC2(C1)[C@H]1[C@H]3O[C@H]3[C@@H]21	
InChI=1S/C8H10O/c1-2-8(3-1)4-5(8)7-6(4)9-7/h4-7H,1-3H2	InChI=1S/C8H10O/c1-2-8(3-1)4-5(8)7-6(4)9-7/h4-7H,1-3H2/t4-,5+,6-,7+
