16
gdb 22603	3.12418	1.22884	1.05346	1.9396	70.05	-0.2458	-0.0113	0.2345	1157.1853	0.121665	-474.932857	-474.924106	-474.923162	-474.966177	32.57	
C	-0.070174544	 1.4937388607	 0.0896127494	-0.512901
C	 0.16507499	 0.0258638739	-0.0333435706	 0.381428
O	-0.7548451028	-0.8838965247	 0.5884343947	-0.294894
C	 0.65626251	-0.9957780394	 0.9263782607	-0.155739
C	 1.2691631835	-1.7801120584	-0.1823633358	 0.405666
N	 2.0395262071	-2.783918854	-0.1453511038	-0.263548
O	 2.4480585657	-3.1663473852	-1.4289700335	-0.379203
C	 0.73249292	-0.7793378353	-1.2397431405	-0.011992
O	-0.1906145751	-1.2044893774	-2.1956081712	-0.424696
H	 0.8405473614	 2.0519479823	-0.1483272608	 0.13351
H	-0.8530849389	 1.8132227347	-0.6066025625	 0.143792
H	-0.3874033155	 1.7487636567	 1.1040296131	 0.139514
H	 0.9264434616	-0.9194349481	 1.9713974302	 0.121681
H	 3.0216554202	-3.9186380364	-1.2458324538	 0.310265
H	 1.5497182835	-0.2765475307	-1.765618606	 0.114667
H	-0.9225203869	-1.6001987985	-1.7043827296	 0.292449
80.3244	158.5526	184.642	200.6431	225.1498	291.4658	328.6678	385.7184	451.9361	474.3021	530.8996	583.6653	642.4824	683.9175	724.0628	827.6065	841.0677	896.9625	976.4959	987.7707	1035.6315	1090.947	1122.8954	1142.9206	1174.5384	1226.9032	1245.8405	1285.5734	1395.7819	1416.4834	1425.8602	1456.5504	1480.696	1491.3093	1785.6415	3039.2902	3080.9838	3104.7603	3124.8061	3215.0127	3772.2354	3813.5788
CC12OC1C(=NO)C2O	C[C@]12O[C@H]1C(=NO)[C@H]2O	
InChI=1S/C5H7NO3/c1-5-3(7)2(6-8)4(5)9-5/h3-4,7-8H,1H3	InChI=1S/C5H7NO3/c1-5-3(7)2(6-8)4(5)9-5/h3-4,7-8H,1H3/t3-,4+,5-/m1/s1
