19
gdb 61000	2.14458	1.23844	0.85508	5.2027	77.92	-0.2489	-0.0291	0.2198	1355.0797	0.156049	-423.033378	-423.023501	-423.022557	-423.06956	34.618	
C	 0.2238171468	 1.5293304865	 0.169222846	-0.412767
C	-0.0941572672	 0.0277400431	 0.0519330531	-0.096084
C	-1.5997299052	-0.1764413333	 0.0147642	 0.174441
O	-2.2302693939	-0.7985724203	 0.8281791731	-0.243895
C	 0.5307824316	-0.5544668796	-1.2100755676	-0.007505
C	 1.9020662802	-1.142462954	-1.1958644079	-0.314238
C	 0.7066521112	-2.0564712139	-1.4430031833	-0.113046
C	 0.353176872	-3.063122786	-0.4123369418	 0.165075
O	-0.090165777	-4.155179781	-0.6669525309	-0.265717
H	 1.3053785674	 1.6910361254	 0.1549336345	 0.132037
H	-0.2092275151	 2.0901824238	-0.6668284088	 0.124471
H	-0.175189201	 1.9452592251	 1.0987105592	 0.133893
H	 0.2739710568	-0.4953915753	 0.9391304213	 0.098939
H	-2.1024511801	 0.3108538133	-0.8551918053	 0.072894
H	 0.2560738312	-0.01568738	-2.1143741235	 0.103953
H	 2.5725057762	-0.9640545199	-2.0284228988	 0.133081
H	 2.3958741502	-1.2379956303	-0.2331687491	 0.128364
H	 0.5478458793	-2.4104423539	-2.455836338	 0.111028
H	 0.5476929166	-2.7549606697	 0.6395058378	 0.075075
32.8768	57.2784	94.8618	166.8431	205.861	217.5156	280.5079	292.3717	318.3811	420.8712	441.459	520.3453	555.0243	796.7907	842.5381	868.5577	890.8379	927.1399	948.9526	987.3037	1026.4064	1045.0316	1076.301	1103.3863	1139.8643	1156.2286	1177.5365	1191.613	1228.6886	1274.6966	1319.5315	1344.7417	1401.1995	1413.0397	1428.5372	1450.8099	1486.4693	1496.8068	1497.4295	1817.8639	1838.3171	2845.3693	2877.3235	3035.0286	3073.6937	3105.8158	3118.7959	3130.0978	3132.3293	3178.0251	3220.4917
CC(C=O)C1CC1C=O	C[C@@H](C=O)[C@H]1C[C@H]1C=O	
InChI=1S/C7H10O2/c1-5(3-8)7-2-6(7)4-9/h3-7H,2H2,1H3	InChI=1S/C7H10O2/c1-5(3-8)7-2-6(7)4-9/h3-7H,2H2,1H3/t5-,6-,7+/m0/s1
