17
gdb 36300	3.59222	1.15668	1.09855	4.9563	77.16	-0.2475	-0.0108	0.2367	1142.6276	0.137262	-380.856023	-380.848399	-380.847455	-380.888804	29.078	
N	 0.0770232202	-1.0695194983	 0.4853443752	-0.304134
C	 0.042087829	 0.0146323166	 0.0887799867	 0.281132
C	-0.030243976	 1.3960967587	-0.3997802074	-0.289196
N	 1.2519770063	 2.0614317923	-0.2233625681	-0.098828
C	 1.3419156626	 3.5156593708	-0.2849880678	-0.040265
C	 0.0902340008	 4.3785268644	-0.1008534438	-0.285271
C	-0.3755420583	 4.0441765079	 1.300490501	-0.083752
C	 0.4644627475	 3.2064808097	 1.9167294389	-0.077532
C	 1.5812742458	 2.79515948	 1.0166650252	-0.064209
H	-0.2560528992	 1.3748319959	-1.4720598182	 0.153529
H	-0.8776138384	 1.8840922743	 0.1056305446	 0.140244
H	 2.1481917886	 3.8912694573	-0.9074881392	 0.102681
H	 0.3451706721	 5.4408444932	-0.1996842442	 0.123435
H	-0.6806313824	 4.1814516924	-0.8580670825	 0.118271
H	-1.2972612224	 4.434199799	 1.7178824089	 0.107948
H	 0.3543528891	 2.8277534673	 2.925664595	 0.111383
H	 2.5642804548	 2.5721841183	 1.4183173057	 0.104565
44.4082	126.1893	227.1526	253.5146	360.9528	387.8104	463.8692	522.7176	555.4971	701.7415	736.7807	784.5277	799.1331	849.5531	913.7416	927.029	948.1527	963.7811	988.7204	991.0218	1025.8455	1039.8566	1072.8149	1119.6144	1138.2155	1184.8453	1266.0444	1296.2311	1301.7071	1310.4029	1359.8381	1375.918	1389.8207	1465.6696	1473.8279	1660.2277	2367.5151	2988.8184	3023.9066	3051.8508	3063.5229	3154.048	3166.6586	3190.318	3217.445
N#CCN1C2CC=CC12	N#CCN1[C@H]2CC=C[C@@H]12	
InChI=1S/C7H8N2/c8-4-5-9-6-2-1-3-7(6)9/h1-2,6-7H,3,5H2	InChI=1S/C7H8N2/c8-4-5-9-6-2-1-3-7(6)9/h1-2,6-7H,3,5H2/t6-,7+,9?/m1/s1
