18
gdb 30508	2.41967	1.65351	0.99427	2.3529	87.	-0.2024	-0.0368	0.1656	1186.9158	0.147429	-401.987624	-401.978884	-401.977939	-402.021168	32.141	
C	-0.0030208487	 1.4396588693	 0.0388434613	-0.317882
N	-0.0048226939	-0.0106439254	-0.0120079317	-0.317261
C	 0.5571127528	-0.6587029955	 0.9231877055	 0.354304
O	 1.1648754312	 0.028467191	 1.9800943929	-0.246529
C	 1.7723167354	-0.6270334382	 2.9929187827	 0.06498
C	 1.836710302	-1.965623112	 3.0586946325	-0.18648
C	 1.2302672112	-2.7290549458	 2.0010458073	-0.157106
C	 0.609821686	-2.117299375	 0.9648470407	 0.185681
C	-0.0418288991	-2.8509567231	-0.1684619371	-0.470104
H	 1.01558466	 1.8524420832	 0.0438269358	 0.11649
H	-0.527029708	 1.8290575044	-0.8373656033	 0.115517
H	-0.5031841719	 1.8231304166	 0.9392520707	 0.116466
H	 2.1863565899	 0.0603116242	 3.7203992309	 0.132294
H	 2.3348740735	-2.4438758522	 3.891227376	 0.109615
H	 1.272965467	-3.8131929642	 2.0380320296	 0.103341
H	 0.0556434285	-3.9320962276	-0.0411657245	 0.11073
H	-1.1029842105	-2.5906174734	-0.238688705	 0.142942
H	 0.4032390844	-2.5589762362	-1.1251990343	 0.143004
80.7333	120.4402	162.2838	192.4587	202.0595	259.9301	307.2911	450.1459	495.6358	524.9473	549.37	577.0014	726.0037	753.0991	780.3967	869.8128	917.1398	925.818	985.6195	1050.6408	1053.1581	1067.9189	1069.7963	1108.7715	1122.8459	1169.4377	1246.2708	1278.7947	1392.7601	1413.3938	1434.5789	1439.0162	1463.655	1481.7807	1486.925	1497.452	1621.5415	1691.8755	1731.7109	2993.713	3038.4341	3040.2245	3094.9074	3103.1186	3122.6664	3177.3864	3209.09	3231.638
CN=C1OC=CC=C1C	C[N]C1=C(CC=CO1)C	
InChI=1S/C7H9NO/c1-6-4-3-5-9-7(6)8-2/h3-5H,1-2H3	InChI=1S/C7H10NO/c1-6-4-3-5-9-7(6)8-2/h3,5H,4H2,1-2H3
