14
gdb 131640	2.69845	1.27032	0.88019	5.7561	68.12	-0.2715	-0.0831	0.1885	1221.0441	0.099922	-473.810434	-473.802179	-473.801235	-473.844442	28.531	
O	-0.0159829171	 1.3407547264	 0.4946373735	-0.412053
C	 0.0205540559	 0.0665110938	-0.1264332898	-0.209677
C	-1.3578774671	-0.5102547688	-0.0546506045	 0.106176
C	-1.7760336811	-1.8114288715	 0.0473156063	 0.238806
O	-3.124596951	-1.8621708156	 0.0415389472	-0.194793
N	-3.622865148	-0.5816108898	-0.054854114	-0.113511
C	-2.5801997453	 0.2116867271	-0.1144067142	-0.014226
C	-1.0254612664	-3.0657667444	 0.1657628573	 0.08027
O	-1.5201284122	-4.1648753538	 0.2238087623	-0.25197
H	 0.829213212	 1.7741917036	 0.3424008571	 0.298508
H	 0.3258040606	 0.1506341274	-1.1821085726	 0.119443
H	 0.7419930377	-0.6049578183	 0.3626488236	 0.111519
H	-2.7196788645	 1.2798209328	-0.1837094525	 0.156275
H	 0.0744956665	-2.9143196788	 0.2015407703	 0.085231
40.4731	127.8557	154.1797	196.1905	241.3095	261.9476	308.3489	392.0886	560.4526	644.8175	656.1474	707.7353	783.451	918.9597	964.3906	973.121	1012.0584	1027.962	1069.5683	1142.0888	1187.087	1243.2353	1251.8446	1284.2146	1415.2519	1419.4399	1459.0198	1492.2569	1512.5863	1645.576	1799.1264	2900.6028	2968.6988	3001.1104	3265.8859	3831.5292
OCC1=C(ON=C1)C=O	OCc1c(onc1)C=O	
InChI=1S/C5H5NO3/c7-2-4-1-6-9-5(4)3-8/h1,3,7H,2H2	InChI=1S/C5H5NO3/c7-2-4-1-6-9-5(4)3-8/h1,3,7H,2H2
