17
gdb 83933	2.57766	1.47463	1.19592	2.1004	69.48	-0.2482	-0.024	0.2242	1062.4151	0.135951	-458.953821	-458.945891	-458.944947	-458.986349	30.085	
O	-0.0448717833	 1.36829406	-0.0626366405	-0.417225
C	-0.0511962944	-0.0117052133	-0.0305396087	 0.061772
C	-0.4392163528	-0.7105708052	 1.2207257313	-0.026357
O	-1.0046801144	 0.1434351454	 2.1795283063	-0.276375
C	-2.4315669426	 0.1951798059	 1.9538191708	-0.08252
C	-2.6218529015	 0.0367802848	 0.435923522	-0.327844
C	-1.4030682267	-0.7787439623	 0.0260536653	 0.169174
C	-1.5507610285	-2.0054550665	-0.7738649105	 0.0743
O	-2.5982584165	-2.4285818752	-1.203737369	-0.269976
H	-0.2329515999	 1.6555071308	 0.8434815945	 0.299088
H	 0.7143583277	-0.4571162216	-0.6603426427	 0.115772
H	 0.0850173639	-1.5775642017	 1.6118787759	 0.112638
H	-2.9127182687	-0.6254379471	 2.5023379063	 0.115147
H	-2.7873679178	 1.1459493331	 2.3573072903	 0.119354
H	-3.533851999	-0.5035835839	 0.1760828826	 0.140031
H	-2.6309716981	 1.0073646385	-0.0683182762	 0.125959
H	-0.5932938975	-2.5403161817	-0.9754256477	 0.06706
101.3796	151.8718	200.5975	229.1223	257.984	305.4031	419.4987	490.4893	548.0827	619.0064	661.7877	688.0896	770.5712	804.9999	847.0249	879.4667	959.6041	989.2929	1022.252	1029.5368	1069.8725	1082.174	1135.1818	1139.5652	1207.8891	1232.8453	1245.4349	1295.003	1318.4242	1328.6356	1353.6118	1396.3015	1437.3935	1449.9625	1488.968	1516.6446	1800.7149	2855.2393	3020.1797	3065.9636	3107.5102	3129.4489	3146.0366	3155.1085	3721.5635
OC1C2OCCC12C=O	O[C@H]1[C@H]2OCC[C@@]12C=O	
InChI=1S/C6H8O3/c7-3-6-1-2-9-5(6)4(6)8/h3-5,8H,1-2H2	InChI=1S/C6H8O3/c7-3-6-1-2-9-5(6)4(6)8/h3-5,8H,1-2H2/t4-,5+,6+/m0/s1
