18
gdb 39183	2.86151	1.65	1.09893	2.1722	81.58	-0.17	0.0223	0.1923	1077.607	0.150213	-401.921962	-401.914434	-401.91349	-401.953724	30.014	
C	 0.3376118843	 1.2932286014	-0.6206300671	-0.230668
C	 1.4572043809	 2.2062375573	-0.0914429444	-0.271159
C	 2.881971546	 1.6968504191	-0.1196222594	-0.086535
C	 3.4184068316	 0.4648760269	-0.1182630963	-0.018483
N	 2.8127187741	-0.7881789814	-0.1025685962	-0.418203
C	 1.4545126013	-0.9595022327	-0.2176339921	 0.188478
C	 0.3329312497	-0.0180933737	 0.1296859174	 0.110204
O	-0.6026293642	-1.0321503149	-0.3879002707	-0.299358
C	 0.5309997914	-1.8200157097	-0.6659178529	-0.052015
H	-0.6277635076	 1.799300398	-0.5058966252	 0.102462
H	 0.482888127	 1.0851768782	-1.6861716226	 0.109356
H	 1.4254990594	 3.1432100176	-0.6606673401	 0.106776
H	 1.2065195663	 2.4988184321	 0.9414696119	 0.108816
H	 3.6228239353	 2.4906000823	-0.073472742	 0.081813
H	 4.5007721066	 0.3822636959	-0.0959120688	 0.09749
H	 3.4013625964	-1.5720212491	-0.3313181833	 0.249711
H	 0.1551129433	 0.1167066008	 1.2023775212	 0.099978
H	 0.440431528	-2.806152118	-1.0961975294	 0.121337
110.5265	177.3229	278.339	333.1343	342.9096	359.9592	417.3593	473.2569	520.4329	611.8049	682.9517	726.1307	760.7635	805.2102	836.6065	880.2088	896.9781	952.8919	960.5816	998.593	1012.1539	1066.476	1110.8928	1135.9491	1179.6107	1209.7677	1246.4844	1275.6208	1298.354	1324.7922	1370.9063	1381.6225	1393.5768	1448.0909	1480.0792	1487.9556	1491.6047	1723.011	1760.1983	2972.716	3033.2816	3045.3709	3055.5463	3088.1306	3151.8464	3180.1266	3245.1765	3640.554
C1CC2C3NC22C1OC32	C1CC=CNC2=CO[C@H]12	
InChI=1S/C7H9NO/c1-2-4-7-3(1)5(8-7)6(7)9-4/h3-6,8H,1-2H2	InChI=1S/C7H9NO/c1-2-4-8-6-5-9-7(6)3-1/h2,4-5,7-8H,1,3H2/t7-/m1/s1
