20
gdb 57400	3.02035	1.22148	1.07878	2.5017	76.09	-0.2495	0.0222	0.2717	1221.3631	0.169793	-440.310791	-440.301136	-440.300191	-440.345506	35.37	
C	-0.2481434797	 1.5050665115	 0.0086517067	-0.393021
C	 0.0408073623	 0.0075019659	 0.0133895837	 0.256966
C	 0.8508486608	-0.4088480717	 1.2556005391	-0.420499
O	-1.2259391676	-0.6528806463	 0.0077640216	-0.463744
C	 0.802080717	-0.4028943692	-1.231887236	 0.418768
N	 1.4199633521	 0.338810122	-2.0521670918	-0.324485
C	 2.0095645897	-0.5486864588	-3.0662792951	-0.188941
C	 1.5352922223	-1.9716219235	-2.669507957	-0.114379
O	 0.8031503288	-1.7560393332	-1.442651844	-0.283656
H	 0.6802782172	 2.0776555681	-0.0222683011	 0.130926
H	-0.8472707201	 1.7706282168	-0.864384977	 0.129442
H	-0.8061639849	 1.7655736704	 0.9120061486	 0.116529
H	 0.2704166691	-0.1800064418	 2.1533006832	 0.125279
H	 1.0594919292	-1.4827021225	 1.2385956207	 0.11859
H	 1.8046330029	 0.1256166156	 1.3034890198	 0.123356
H	-1.0603180762	-1.5856765141	-0.1712668464	 0.286807
H	 1.6681672033	-0.2559736238	-4.0641268031	 0.120896
H	 3.1005843048	-0.4520157342	-3.0552109093	 0.118688
H	 0.8577096411	-2.423931236	-3.3994446017	 0.121325
H	 2.3516737077	-2.6685922252	-2.4634442608	 0.121153
50.0169	92.3315	149.739	192.9752	198.2776	255.4686	312.8649	325.0697	342.2304	370.7375	420.0867	501.7043	605.4124	731.7684	755.5755	832.3323	856.2284	915.2809	936.1383	964.2535	974.6012	1000.3625	1007.7509	1025.6776	1117.1194	1130.2547	1173.7957	1205.9124	1217.7617	1246.5047	1260.8446	1337.3138	1374.024	1386.7377	1406.6369	1422.5026	1474.815	1480.1577	1494.73	1502.9887	1508.0114	1527.029	1746.7206	3039.5821	3042.6944	3056.0307	3058.4699	3073.2807	3106.0092	3114.3577	3123.7142	3134.9963	3149.0032	3801.6996
CC(C)(O)C1=NCCO1	CC(C)(O)C1=NCCO1	
InChI=1S/C6H11NO2/c1-6(2,8)5-7-3-4-9-5/h8H,3-4H2,1-2H3	InChI=1S/C6H11NO2/c1-6(2,8)5-7-3-4-9-5/h8H,3-4H2,1-2H3
