17
gdb 42461	7.73162	0.59539	0.55843	2.346	81.44	-0.2517	-0.0228	0.2288	1887.3709	0.130804	-384.640455	-384.630044	-384.6291	-384.679958	36.028	
O	 0.0295983484	-0.1783966038	-0.0040830381	-0.271081
C	 0.0080998662	 1.0260045611	 0.0021247829	 0.373779
C	 1.2778340566	 1.8664656002	-0.0026944583	-0.294216
C	 2.5534312484	 1.0088449448	-0.0176061592	-0.362088
C	 3.7632326834	 1.8210477775	-0.0218626365	 0.282806
C	 4.7451877152	 2.5141882009	-0.0251273208	-0.425961
C	-1.3016814739	 1.8365155312	 0.0154374202	-0.481999
C	-2.5111767555	 1.0331554058	 0.0217231332	 0.325009
C	-3.5148527245	 0.3747771341	 0.026998764	-0.420423
H	 1.2549555642	 2.5375175734	-0.8707519874	 0.136711
H	 1.2683510001	 2.5269466916	 0.8736915317	 0.136783
H	 2.5481623666	 0.3403987676	 0.8502884006	 0.148489
H	 2.5349549219	 0.3510018412	-0.8933954472	 0.148434
H	 5.6237928065	 3.1101984976	-0.0281747483	 0.195175
H	-1.2725020127	 2.502181612	 0.8894361716	 0.153969
H	-1.2859258531	 2.5086441294	-0.853963964	 0.154033
H	-4.3981072178	-0.2145012048	 0.0316027355	 0.20058
2.0641	52.9506	68.9842	85.2643	148.7558	248.5478	318.2522	319.2589	343.0086	402.9924	460.8136	509.0539	622.2241	626.9891	644.7322	648.3406	696.8473	727.7203	853.6333	874.2292	943.932	981.8131	1038.65	1042.404	1082.2641	1156.8314	1235.1863	1289.1824	1307.5107	1333.0907	1382.5584	1435.3078	1453.4166	1470.2149	1824.3806	2240.6362	2251.0305	3012.7163	3032.6925	3039.1206	3048.8322	3060.7726	3084.2643	3507.2699	3507.555
O=C(CCC#C)CC#C	O=C(CCC#C)CC#C	
InChI=1S/C8H8O/c1-3-5-7-8(9)6-4-2/h1-2H,5-7H2	InChI=1S/C8H8O/c1-3-5-7-8(9)6-4-2/h1-2H,5-7H2
