14
gdb 30182	4.75896	1.36881	1.10661	1.9282	63.46	-0.1941	-0.0004	0.1937	1033.8994	0.101269	-473.811091	-473.803926	-473.802981	-473.842985	26.676	
C	-0.4853889689	 1.4887685794	-0.0188018411	-0.400483
C	 0.2285208628	 0.1668416424	 0.0197568646	 0.20239
O	 1.1420464411	 0.0505323754	-1.1479119915	-0.303623
C	 2.1955945163	-0.5465576996	-0.5518053442	 0.341265
C	 2.1537973811	-0.5694253264	 0.7784195639	 0.259184
O	 1.0046711437	 0.0339321803	 1.2390856708	-0.291521
N	 3.3211970988	-1.053798021	 1.291857344	-0.337619
C	 4.0147635711	-1.3085240027	 0.2152844224	 0.026128
O	 3.3779418148	-1.0056045929	-0.9855906788	-0.194229
H	 0.2381240735	 2.3054160202	 0.0297069863	 0.145776
H	-1.0651624291	 1.5713429418	-0.9413516155	 0.141799
H	-1.1645321156	 1.559871496	 0.8345398884	 0.145282
H	-0.4470104324	-0.6979668711	-0.0447362702	 0.107997
H	 4.9903160628	-1.7535671917	 0.1271043909	 0.157654
74.5257	180.1682	213.1382	268.6828	331.378	462.2175	500.2015	622.2686	624.8593	682.5366	695.8877	746.2765	756.196	801.623	868.9436	932.2278	1026.2056	1059.3384	1095.4943	1156.4229	1184.5281	1267.9885	1347.626	1371.7665	1412.7807	1437.0718	1475.2832	1482.1235	1489.6505	1492.7513	1734.6189	3007.9628	3058.2141	3138.9634	3145.6869	3306.4194
CC1OC2=C(O1)N=CO2	C[C@H]1Oc2c(O1)nco2	
InChI=1S/C5H5NO3/c1-3-8-4-5(9-3)7-2-6-4/h2-3H,1H3	InChI=1S/C5H5NO3/c1-3-8-4-5(9-3)7-2-6-4/h2-3H,1H3/t3-/m1/s1
