18
gdb 110122	2.22061	1.31691	1.03177	4.2013	73.11	-0.2659	0.0201	0.2861	1222.9738	0.14624	-439.065145	-439.055441	-439.054497	-439.100239	34.167	
C	-0.5672033368	 1.0677488909	-0.1871756701	-0.244478
O	 0.4311824984	 0.0984654857	 0.1019352699	-0.226252
C	 0.9501164958	-0.5088273599	-1.0210804095	 0.104089
C	 1.5577037575	-1.8583456278	-0.8547973058	-0.102283
C	 1.5678906767	-2.5544168262	 0.4954746031	-0.089142
O	 1.4519499917	-3.960323454	 0.3707292975	-0.423229
C	 0.2350518803	-1.7279258278	-1.6277931167	-0.248226
C	-0.9604840654	-2.2307540026	-1.0208403939	 0.300934
N	-1.9149150402	-2.6624129586	-0.5262978471	-0.358222
H	-0.1701494205	 1.8632603028	-0.8336621292	 0.113661
H	-1.4387191166	 0.6118708954	-0.6728334801	 0.133349
H	-0.8709523872	 1.4994754072	 0.7677581602	 0.141664
H	 1.3893055163	 0.1743364874	-1.7504733325	 0.104669
H	 2.4116226389	-2.0864280157	-1.4850979697	 0.113716
H	 2.5316599399	-2.3655394329	 0.9793498442	 0.118287
H	 0.7895748361	-2.1325656686	 1.1400447019	 0.127811
H	 0.5272976051	-4.160833929	 0.1882015454	 0.297723
H	 0.2716037	-1.8434273862	-2.7056954775	 0.135927
67.8433	92.1525	114.2875	141.9659	176.8954	206.4468	258.4151	321.0699	371.3091	407.5816	425.5909	611.2766	625.5916	668.0214	752.3862	803.1042	872.2764	935.8331	989.7484	1036.8847	1066.2111	1082.1832	1111.5183	1129.0177	1158.3622	1182.2213	1209.8125	1250.0015	1266.0007	1344.6386	1365.3488	1402.9587	1419.1969	1432.9417	1485.9086	1490.3564	1502.6786	1504.8598	2341.0044	2999.8875	3046.3616	3065.6536	3086.11	3089.8473	3138.5804	3161.831	3172.5668	3807.3563
COC1C(CO)C1C#N	CO[C@H]1[C@@H](CO)[C@H]1C#N	
InChI=1S/C6H9NO2/c1-9-6-4(2-7)5(6)3-8/h4-6,8H,3H2,1H3	InChI=1S/C6H9NO2/c1-9-6-4(2-7)5(6)3-8/h4-6,8H,3H2,1H3/t4-,5+,6-/m1/s1
