17
gdb 65174	2.79663	1.21205	1.07187	3.3773	72.94	-0.2707	0.0064	0.2771	1167.0397	0.134951	-417.969443	-417.960718	-417.959774	-418.003395	32.039	
C	 0.2693827918	-0.3850586483	-1.1280456955	-0.480806
C	-0.0957180061	 0.5896580771	-0.0350171913	 0.405362
C	 0.9471959189	 1.2518344912	 0.7645735872	-0.216018
O	 0.2798561331	 1.9581646037	-0.282175021	-0.276169
C	-1.4653858301	 0.4947070244	 0.5862186576	-0.074966
N	-2.4980459276	-0.2786493166	-0.094521895	-0.318567
C	-2.0405151484	-0.7368451823	 1.2288472355	-0.197507
C	-1.3412875953	-1.9978644115	 1.2913233876	 0.342472
N	-0.7781888891	-3.0035043489	 1.3834054552	-0.3386
H	 1.2556682829	-0.132551218	-1.5236850563	 0.126384
H	 0.2928321951	-1.4122636415	-0.7550160722	 0.154133
H	-0.4619612557	-0.3384656989	-1.9384981787	 0.142958
H	 0.7269625123	 1.5948441433	 1.7753956442	 0.110643
H	 1.991959497	 1.0081644334	 0.5782798203	 0.121754
H	-1.7567770401	 1.4266495356	 1.0677719754	 0.109815
H	-3.4123956701	 0.1577627153	-0.0189738746	 0.252723
H	-2.6854874886	-0.5672526579	 2.0875781914	 0.136388
41.3387	116.526	184.6712	202.6805	256.9624	264.7958	359.5193	369.1035	427.0739	490.6487	581.0239	626.6429	712.663	807.9354	814.2301	880.6876	896.6071	929.601	964.3445	983.7281	1025.9139	1094.9961	1106.7564	1135.6293	1162.4895	1174.5077	1206.9603	1229.3446	1305.194	1365.3339	1406.5076	1421.6845	1456.9129	1481.5075	1499.5915	1531.7225	2358.622	3056.3805	3079.7593	3127.4128	3132.33	3137.0384	3142.4797	3166.7351	3520.2398
CC1(CO1)C1NC1C#N	C[C@]1(CO1)[C@H]1N[C@H]1C#N	
InChI=1S/C6H8N2O/c1-6(3-9-6)5-4(2-7)8-5/h4-5,8H,3H2,1H3	InChI=1S/C6H8N2O/c1-6(3-9-6)5-4(2-7)8-5/h4-5,8H,3H2,1H3/t4-,5-,6-/m0/s1
