19
gdb 61670	3.88081	0.80492	0.76423	2.7136	78.19	-0.2442	0.0316	0.2758	1539.3559	0.157158	-422.964721	-422.955047	-422.954103	-423.000183	34.824	
O	-0.155165849	 1.4022575031	 0.0883243375	-0.419917
C	 0.0209963225	-0.0086024446	-0.0352056528	-0.059215
C	 0.7946928244	-0.3766823936	-1.3180888591	-0.219027
C	 0.0550076095	 0.0799287496	-2.5632797582	 0.160163
C	 0.5528073363	-0.4354961774	-3.932326301	-0.308496
C	-0.8539268921	-1.0552813547	-4.0497878253	-0.05672
O	-1.2096388712	-0.6153468514	-2.7227482561	-0.29667
C	 0.6604073283	-0.5769495023	 1.1534754421	 0.292412
C	 1.2286492957	-1.0125386586	 2.1194734991	-0.438821
H	 0.6820857722	 1.7717384624	 0.3905570753	 0.283904
H	-0.9933874717	-0.4122461383	-0.1318937595	 0.142141
H	 1.7897646344	 0.0866347313	-1.2859064061	 0.096114
H	 0.9368199968	-1.4627540774	-1.3514370935	 0.109589
H	-0.1076963729	 1.1634883305	-2.5194376973	 0.089262
H	 0.8045843052	 0.328894395	-4.6686302971	 0.111293
H	 1.3689995272	-1.1587035951	-3.8712436632	 0.10873
H	-1.4990138603	-0.6040046929	-4.8141885733	 0.102648
H	-0.901649965	-2.146209931	-4.1478832433	 0.104021
H	 1.7078641198	-1.4050726847	 2.9822199318	 0.198587
58.6552	73.0317	95.7496	119.4141	193.1439	232.6901	299.7433	324.7076	401.8291	476.1659	542.1432	572.3919	628.7376	672.2869	747.7118	801.9083	850.8459	882.8033	903.6176	970.5392	994.2513	1021.9968	1039.719	1075.327	1104.2585	1135.4187	1166.8578	1200.2349	1220.7228	1257.0456	1268.0719	1300.9506	1305.599	1346.3935	1373.8377	1400.2063	1423.9167	1462.3001	1490.9671	1533.3444	2231.9845	3014.9364	3023.9329	3035.9737	3055.158	3056.8542	3075.6445	3081.3337	3132.0655	3503.2678	3803.5863
OC(CC1CCO1)C#C	O[C@@H](C[C@H]1CCO1)C#C	
InChI=1S/C7H10O2/c1-2-6(8)5-7-3-4-9-7/h1,6-8H,3-5H2	InChI=1S/C7H10O2/c1-2-6(8)5-7-3-4-9-7/h1,6-8H,3-5H2/t6-,7-/m1/s1
