20
gdb 110667	3.03831	1.46435	1.30327	0.4951	77.18	-0.2279	0.0822	0.3101	1072.2725	0.172609	-403.101717	-403.093931	-403.092987	-403.134444	30.419	
C	 1.1836787257	 0.3632950415	 1.0833856089	-0.38189
C	 0.0898330212	 0.396995841	 0.0095263081	-0.207661
C	 0.5347744995	-0.2826364825	-1.2751944763	 0.053672
C	 0.602640373	-1.8275956503	-1.4087680137	 0.05279
O	-0.4125517226	-2.4667377974	-0.6447149035	-0.263155
C	-1.6727526382	-2.0298022369	-1.168209282	-0.111277
C	-1.3461582186	-1.3110493482	-2.4640315372	-0.048879
C	 0.0428063078	-1.6161563467	-2.8325182145	-0.066403
N	-0.3530767419	-0.1943263253	-2.5002828346	-0.179887
H	 1.4328780552	-0.6671332463	 1.357133458	 0.126736
H	 2.1011056302	 0.8492236113	 0.7329676654	 0.113785
H	 0.8600625524	 0.8790768131	 1.992155342	 0.115059
H	-0.8156781525	-0.0712304074	 0.4033462366	 0.106325
H	-0.1710359659	 1.4346970906	-0.2337805498	 0.106499
H	 1.4928068666	 0.1468238615	-1.5942198083	 0.080084
H	 1.5457090697	-2.345561562	-1.2386824929	 0.084002
H	-2.3039458852	-2.9064774163	-1.3648574936	 0.109751
H	-2.1939915001	-1.3943505666	-0.4420001924	 0.108993
H	-2.118849199	-1.2024302963	-3.2168331633	 0.103832
H	 0.4299988627	-1.9266961767	-3.7945095467	 0.097626
46.6176	160.6115	192.7243	264.1598	277.3098	336.4747	483.9018	560.6198	654.9294	681.6914	752.9474	795.5313	799.5226	844.8176	848.2088	901.5939	926.4192	944.3907	988.5607	992.9158	1018.809	1040.3064	1067.0769	1077.2321	1100.6496	1124.0998	1172.9931	1190.6303	1218.4364	1232.3839	1260.3996	1278.5057	1304.6044	1322.8871	1341.9103	1361.8795	1403.0455	1407.766	1414.335	1480.8597	1500.1402	1506.8599	1521.194	3014.0522	3024.9109	3033.5528	3036.1454	3044.9676	3088.8979	3108.5056	3111.4969	3125.9221	3179.7085	3197.357
CCC1C2OCC3C2N13	CC[C@H]1[C@H]2OC[C@@H]3[C@H]2N13	
InChI=1S/C7H11NO/c1-2-4-7-6-5(3-9-7)8(4)6/h4-7H,2-3H2,1H3	InChI=1S/C7H11NO/c1-2-4-7-6-5(3-9-7)8(4)6/h4-7H,2-3H2,1H3/t4-,5+,6+,7+,8?/m0/s1
