18
gdb 126043	3.71913	1.0541	1.0304	3.4835	78.43	-0.2243	0.0234	0.2477	1233.9379	0.150277	-398.12529	-398.117201	-398.116256	-398.158599	30.417	
C	-0.0811177463	 1.5141827694	-0.2492356494	-0.399714
C	-0.0234879397	 0.0262845759	-0.0139874483	 0.0173
N	 1.2882837201	-0.6254715314	-0.1228780627	-0.335426
C	 0.6180600337	-0.5992317888	 1.1900450508	-0.191301
C	 1.2860261398	 0.1648575306	 2.2659905383	 0.261063
C	 0.8814759531	 0.3058664875	 3.5808123717	-0.146675
N	 1.8099459747	 1.0850981075	 4.1878437126	-0.176879
N	 2.8033692214	 1.4669112409	 3.3644159786	-0.228827
C	 2.4888243355	 0.9096930257	 2.1985411757	-0.082987
H	 0.7641720441	 2.0191803555	 0.2228377941	 0.136395
H	-0.05625497	 1.7362469914	-1.3214207481	 0.118313
H	-1.005831253	 1.9337226034	 0.1619685531	 0.113033
H	-0.8755094702	-0.5263652678	-0.410686087	 0.079364
H	 1.2080107935	-1.5449645027	-0.5466602084	 0.231318
H	 0.1488287635	-1.5240409581	 1.5237180951	 0.07788
H	 0.0278615532	-0.0817289779	 4.1147808242	 0.129052
H	 1.8302166815	 1.3835024376	 5.1479512211	 0.272858
H	 3.1279672651	 1.0385288012	 1.3389332186	 0.125234
50.5839	115.6185	165.2724	202.3344	279.3242	382.0746	436.1761	503.8648	519.3177	642.4384	691.7737	719.1966	782.9053	789.03	855.9567	909.1365	928.617	952.96	986.017	1015.6524	1020.5374	1060.1525	1075.7885	1136.2802	1160.6471	1179.3574	1232.4072	1248.8589	1259.3555	1297.3581	1386.2949	1394.7219	1404.9837	1434.8202	1464.4974	1489.6461	1496.0163	1499.6197	1614.4734	3036.3185	3095.2618	3096.1461	3108.1738	3134.698	3256.1218	3263.4279	3512.9656	3676.6602
CC1NC1C1=CNN=C1	C[C@H]1N[C@H]1c1c[nH]nc1	
InChI=1S/C6H9N3/c1-4-6(9-4)5-2-7-8-3-5/h2-4,6,9H,1H3,(H,7,8)	InChI=1S/C6H9N3/c1-4-6(9-4)5-2-7-8-3-5/h2-4,6,9H,1H3,(H,7,8)/t4-,6-/m1/s1
