19
gdb 100575	3.17549	0.90479	0.73422	3.1486	79.03	-0.2452	-0.0187	0.2265	1548.7026	0.154104	-422.997973	-422.987171	-422.986227	-423.035062	37.596	
C	 0.0421273521	 1.4345799586	-0.8642345588	-0.23875
O	-0.1889833682	 0.0436397461	-0.9217072816	-0.243646
C	 0.9795186499	-0.7547442172	-0.9175378986	 0.030364
C	 1.6571904388	-0.8433296136	 0.4522795397	-0.399959
C	 0.6169782022	-2.1573661684	-1.4388427973	 0.353868
O	 1.4003086796	-3.0661592406	-1.3339947357	-0.288749
C	-0.756195933	-2.2997141871	-2.105547848	-0.480061
C	-1.0232727975	-3.6253687857	-2.6340253857	 0.313997
C	-1.2527842933	-4.7184756787	-3.0744373001	-0.418113
H	 0.4730255934	 1.7484265372	 0.0961972994	 0.116672
H	 0.714319485	 1.7640622248	-1.6714899008	 0.10942
H	-0.9261802543	 1.9250204792	-0.9882096302	 0.133562
H	 1.7019184176	-0.3509058073	-1.6509224434	 0.098032
H	 2.0772362433	 0.1198914172	 0.75196419	 0.116767
H	 0.9338851887	-1.160602537	 1.2094553171	 0.127841
H	 2.4621691972	-1.579003041	 0.4064834276	 0.150901
H	-1.510004958	-2.0005575267	-1.3662975132	 0.166801
H	-0.8312875596	-1.5326110862	-2.886925217	 0.155865
H	-1.4508993939	-5.6870387939	-3.4613572234	 0.195188
31.8241	61.3477	82.995	116.6362	189.1785	207.8571	211.8923	284.7252	332.2503	342.1374	404.2941	408.8249	458.0591	535.9523	624.4315	643.3101	664.9663	805.3572	872.9098	905.9186	958.8525	1025.0188	1078.9711	1085.7412	1132.6909	1170.848	1184.0705	1207.6984	1227.5711	1319.3528	1341.7244	1360.8535	1393.1752	1420.9701	1477.9009	1484.9332	1493.5013	1501.6083	1511.9889	1824.9171	2249.8286	2938.8653	2984.2993	3036.4364	3040.086	3051.7147	3059.7845	3118.0757	3123.4221	3145.9842	3508.0415
COC(C)C(=O)CC#C	CO[C@@H](C)C(=O)CC#C	
InChI=1S/C7H10O2/c1-4-5-7(8)6(2)9-3/h1,6H,5H2,2-3H3	InChI=1S/C7H10O2/c1-4-5-7(8)6(2)9-3/h1,6H,5H2,2-3H3/t6-/m0/s1
