13
gdb 21218	7.14108	1.32562	1.12747	6.4921	56.54	-0.2342	0.0256	0.2598	988.2084	0.096377	-431.936432	-431.929104	-431.92816	-431.968146	26.126	
C	-0.0448109354	 1.43835761	 0.0290098143	-0.325661
N	-0.0871903754	-0.0203219288	-0.040046476	-0.394153
C	 0.5994169496	-0.6287019377	-1.0523032751	 0.532286
N	 1.1776201918	-0.0076222	-2.0361722823	-0.220323
O	 1.663957335	-1.0554554337	-2.883925799	-0.23549
C	 1.3698322161	-2.2743293455	-2.3542240104	 0.511993
O	 1.6381293545	-3.3375790574	-2.835298134	-0.393552
N	 0.7080989788	-1.9926450221	-1.1610831237	-0.449234
H	 0.9650601611	 1.8266081809	 0.2099070555	 0.139808
H	-0.3993089467	 1.8466136485	-0.9193280379	 0.167789
H	-0.7112679245	 1.7663013805	 0.8284638494	 0.132322
H	-0.0149725761	-0.4903139271	 0.8509542757	 0.251844
H	 0.2406368712	-2.6945001977	-0.6139680963	 0.282371
96.9764	150.2578	199.5082	213.405	357.9296	392.7676	410.2394	508.7608	564.9257	685.1559	711.8714	769.4587	775.491	931.3219	984.7181	1005.5261	1099.7078	1151.0052	1174.6049	1220.5813	1284.9751	1430.0534	1456.2004	1483.6332	1512.4499	1579.9426	1679.5017	1902.6744	3029.5251	3110.6954	3149.1023	3597.4297	3684.1843
CNC1=NOC(=O)N1	CNc1noc(=O)[nH]1	
InChI=1S/C3H5N3O2/c1-4-2-5-3(7)8-6-2/h1H3,(H2,4,5,6,7)	InChI=1S/C3H5N3O2/c1-4-2-5-3(7)8-6-2/h1H3,(H2,4,5,6,7)
