18
gdb 40593	4.94617	1.18023	1.12739	1.8299	75.02	-0.2231	0.0811	0.3043	1106.7273	0.147898	-401.806505	-401.799465	-401.798521	-401.838211	28.121	
C	-0.0807078366	 1.2443700112	-0.3790135364	-0.224892
C	 1.2903857252	 0.9759086679	 0.1368096439	-0.220332
N	 0.3064415623	-0.0958401877	 0.0497568479	-0.090001
C	-0.2083296525	-0.6388341226	 1.2888790818	 0.023454
C	-1.0645408784	 0.1819372753	 2.2996221482	-0.139291
C	-2.3814008483	-0.0433725666	 1.47958268	 0.093493
O	-3.1386255931	-0.5650094928	 2.6097880936	-0.328029
C	-1.7968231262	-1.113217601	 2.7695909559	 0.081602
C	-1.568838023	-1.3597354306	 1.2473182835	-0.10857
H	-0.7367989315	 1.8308248459	 0.2598005942	 0.116555
H	-0.2586689152	 1.3623088238	-1.4442180341	 0.117911
H	 2.1354216316	 0.8996702864	-0.5418458666	 0.117279
H	 1.5303818499	 1.3742713846	 1.1217062248	 0.109806
H	 0.5946623672	-1.2241479087	 1.7503314756	 0.080749
H	-0.8240226412	 1.0435994431	 2.922603409	 0.083678
H	-2.8947593858	 0.6036618838	 0.770725698	 0.100531
H	-1.5857867077	-1.7591009166	 3.6208671148	 0.098289
H	-1.8808676469	-2.2282766853	 0.6689038858	 0.087767
86.3584	157.1266	183.5845	335.4329	390.1039	515.7501	572.4125	738.5272	782.6152	789.7219	801.3393	828.2144	838.456	872.2679	890.4645	914.7451	917.8428	959.0162	975.3695	1029.7036	1042.0273	1067.197	1101.7204	1114.0528	1123.9217	1125.0888	1148.6688	1164.5884	1171.3051	1173.7673	1180.7797	1186.8692	1243.2747	1276.4277	1331.4919	1342.3172	1404.3954	1491.4688	1520.5066	3047.4967	3092.8701	3105.944	3113.9827	3126.4169	3129.8596	3144.1555	3176.4527	3193.6028
C1CN1C1C2C3OC2C13	C1CN1[C@H]1[C@H]2[C@@H]3O[C@H]2[C@H]13	
InChI=1S/C7H9NO/c1-2-8(1)5-3-6-4(5)7(3)9-6/h3-7H,1-2H2	InChI=1S/C7H9NO/c1-2-8(1)5-3-6-4(5)7(3)9-6/h3-7H,1-2H2/t3-,4+,5-,6-,7+
