20
gdb 87918	4.05694	1.04676	0.94825	3.3887	80.95	-0.253	0.0328	0.2858	1300.3989	0.171756	-403.162412	-403.153855	-403.152911	-403.195694	32.781	
C	 0.0163781947	 1.502172537	-0.2228382907	-0.411713
C	 0.0661651782	 0.000096817	-0.035237393	-0.061352
C	 1.3871297292	-0.7376419073	-0.012722934	-0.335834
C	 0.5546795692	-0.6237551496	 1.2420463119	 0.321688
C	 1.042778251	 0.1864858206	 2.4343255208	-0.149078
O	 1.2963071891	-0.7798817139	 3.4684565256	-0.240324
C	 0.6659723173	-1.9637615957	 3.1952317084	 0.417454
N	 0.7088175976	-2.9845776221	 3.9357501805	-0.542803
C	-0.0812649143	-1.8457121822	 1.8833470144	-0.390538
H	 0.867691315	 1.9974815851	 0.25501495	 0.11658
H	 0.0417332326	 1.7619625174	-1.2864138377	 0.12408
H	-0.8984918976	 1.9304328586	 0.2013975134	 0.121541
H	-0.7522362042	-0.5316321326	-0.5160939004	 0.088753
H	 1.4526996854	-1.705196589	-0.499717626	 0.116746
H	 2.2955852102	-0.1451450526	-0.0737768514	 0.112028
H	 1.9708249442	 0.7337728981	 2.2519716424	 0.117924
H	 0.2841940336	 0.8945852512	 2.7951348262	 0.109548
H	 1.2687138375	-2.796615062	 4.7695060053	 0.219721
H	-1.146369731	-1.6840601014	 2.094669553	 0.128853
H	 0.0039438724	-2.7628621066	 1.2991929212	 0.136724
70.1689	137.3936	170.1221	209.8528	220.8034	332.304	381.4757	426.2926	474.6317	520.818	545.2132	678.7278	755.6923	833.0798	856.5627	881.6369	893.1827	922.5135	930.6826	975.5403	1005.7604	1026.0134	1041.9472	1074.7683	1093.6194	1110.232	1134.4592	1178.7921	1186.8931	1226.8467	1258.6097	1271.1542	1293.3828	1350.5921	1398.4544	1414.8608	1437.4585	1472.6042	1491.9339	1493.1962	1508.49	1523.9871	1779.9225	3010.5175	3029.8308	3030.8246	3090.6531	3092.9074	3099.2739	3119.8787	3122.4846	3130.3591	3206.355	3468.4445
CC1CC11COC(=N)C1	C[C@H]1C[C@]21CO[C]([NH])C2	
InChI=1S/C7H11NO/c1-5-2-7(5)3-6(8)9-4-7/h5,8H,2-4H2,1H3	InChI=1S/C7H11NO/c1-5-2-7(5)3-6(8)9-4-7/h5,8H,2-4H2,1H3/t5-,7+/m0/s1
