19
gdb 112882	2.28764	1.3746	0.92495	2.9743	72.32	-0.2675	0.0064	0.2739	1297.3834	0.158039	-460.220938	-460.211765	-460.21082	-460.255355	33.222	
C	-0.0439667676	 1.5991254048	 0.0636633031	-0.392391
C	-0.0482385444	 0.0696150066	 0.0404701657	-0.186336
C	 0.7466054853	-0.5058646838	-1.1235793066	-0.038668
O	 2.1330082533	-0.2102181937	-1.0022601675	-0.267651
C	 2.837132376	-1.2939623049	-1.5603885075	 0.225064
C	 4.1577413701	-1.493578212	-0.8581594625	-0.40339
O	 1.9949314538	-2.4486312023	-1.3927948778	-0.233825
C	 0.7198419401	-2.0322786872	-1.184429034	 0.42285
O	-0.2144021306	-2.7688631663	-1.0696636747	-0.339259
H	 0.9766326908	 1.9847229486	 0.1392445155	 0.134802
H	-0.4927468488	 2.01020822	-0.8473517652	 0.116981
H	-0.6144294687	 1.9763675921	 0.9170888243	 0.11934
H	 0.3707720083	-0.3274429002	 0.9719709595	 0.111022
H	-1.0682974876	-0.3204845279	-0.0425696731	 0.127179
H	 0.3516889184	-0.1184367846	-2.079442417	 0.103221
H	 2.9713679592	-1.1501081179	-2.645228856	 0.087621
H	 3.9874366215	-1.6741478946	 0.2057502854	 0.137998
H	 4.6894107294	-2.3445542509	-1.2902898797	 0.138061
H	 4.7707390815	-0.5962644757	-0.975715392	 0.137381
74.0791	97.8509	127.3406	164.0341	223.3924	235.3472	299.4389	328.6006	415.1796	487.6193	553.5609	600.7358	702.7482	711.9105	771.7037	861.098	905.1757	921.8021	955.5003	994.9125	1075.551	1082.9916	1130.8927	1142.9434	1155.4129	1168.666	1221.1103	1285.6938	1301.1623	1340.827	1381.9168	1393.223	1401.2185	1413.3224	1435.9793	1475.8353	1484.4725	1486.3507	1497.4776	1508.0901	1894.2026	2954.564	2972.0008	3038.0093	3045.3379	3056.4155	3085.1928	3108.3859	3121.1323	3137.4698	3143.3681
CCC1OC(C)OC1=O	CC[C@H]1O[C@@H](C)OC1=O	
InChI=1S/C6H10O3/c1-3-5-6(7)9-4(2)8-5/h4-5H,3H2,1-2H3	InChI=1S/C6H10O3/c1-3-5-6(7)9-4(2)8-5/h4-5H,3H2,1-2H3/t4-,5-/m1/s1
