16
gdb 78827	2.80322	1.74245	1.31446	1.7781	72.89	-0.2615	0.0237	0.2852	962.8583	0.124738	-400.649489	-400.642184	-400.64124	-400.680995	29.188	
O	 0.1145601271	 1.4166065521	 0.1331951851	-0.436511
C	-0.0336671466	 0.0405288271	-0.0287388423	 0.160539
C	-1.3860211287	-0.6499991512	-0.1389474653	-0.1067
C	-1.7600040483	-0.7676766773	-1.5782660543	-0.063186
C	-0.6807468538	-0.1214991274	-2.4432964662	-0.169326
C	-0.7193470934	 1.2945294079	-2.7742393734	 0.267527
C	-0.7678428976	 2.4653046046	-3.0506951033	-0.425368
C	 0.2808288244	-0.6855430552	-1.3591865152	-0.088149
N	-0.7946754421	-1.7519855574	-0.9881897177	-0.167565
H	-0.3181357215	 1.8637660454	-0.6054911129	 0.287559
H	 0.5384550711	-0.4334333555	 0.7739135595	 0.107983
H	-2.0929385968	-0.872873475	 0.6519207833	 0.101577
H	-2.7523509337	-1.0661479441	-1.8954736417	 0.107733
H	-0.5618271707	-0.7165530005	-3.3546179549	 0.122624
H	-0.8034636246	 3.4965747886	-3.3040327059	 0.207594
H	 1.289298695	-0.993308942	-1.6254822149	 0.093668
134.0165	145.0545	242.8059	302.4339	410.4016	445.1569	488.6954	540.1761	612.8172	643.5055	645.3736	754.0391	770.3831	777.5178	820.5069	838.1043	920.4666	937.2626	998.1912	1014.9199	1049.0812	1061.7504	1090.706	1126.3866	1142.1208	1161.8003	1182.5866	1238.1039	1264.1675	1314.2332	1348.61	1354.1245	1380.134	1453.2423	2222.7567	3059.912	3082.0232	3149.5857	3181.8192	3193.585	3497.4959	3757.4622
OC1C2C3C(C#C)C1N23	O[C@H]1[C@H]2[C@H]3[C@@H](C#C)[C@@H]1N23	
InChI=1S/C7H7NO/c1-2-3-4-6-7(9)5(3)8(4)6/h1,3-7,9H	InChI=1S/C7H7NO/c1-2-3-4-6-7(9)5(3)8(4)6/h1,3-7,9H/t3-,4-,5+,6-,7-,8?/m1/s1
