16
gdb 48202	2.19559	1.42487	1.02612	3.0047	69.3	-0.2706	-0.0542	0.2165	1167.607	0.122704	-437.879973	-437.870977	-437.870032	-437.915541	30.419	
O	-0.1764620233	 0.2336017037	 0.5742671063	-0.238503
C	-0.0462922198	 1.2475117861	-0.0531804582	 0.168924
C	 1.3023519728	 1.9933594957	-0.1013905226	-0.26315
C	 1.3699041905	 2.9144316153	-1.232204561	 0.276344
N	 1.4147687245	 3.6413288223	-2.1292875364	-0.321143
C	 1.5088158823	 2.717281556	 1.252337413	 0.150319
C	 2.6679437557	 3.7263300162	 1.3860640449	-0.316702
C	 1.5471377102	 4.7458345228	 1.6815912146	-0.059166
O	 0.5255662277	 3.7408234943	 1.4601014234	-0.290326
H	-0.8796666086	 1.7213114284	-0.6073850505	 0.12493
H	 2.0864652723	 1.2331780844	-0.1978697071	 0.155074
H	 1.4661953419	 1.9449691323	 2.0302748514	 0.109439
H	 3.3666572014	 3.5267441008	 2.1987437261	 0.123668
H	 3.2217135837	 3.9142617397	 0.4652499537	 0.136335
H	 1.5175329913	 5.1276905627	 2.7078554483	 0.114875
H	 1.4511647974	 5.5777707994	 0.9777121539	 0.129082
39.0307	64.3479	76.6487	144.5985	171.6632	196.0833	344.502	378.6928	508.4524	539.045	656.8135	715.4767	800.3505	865.7382	922.0166	953.3242	984.8845	999.6514	1023.0073	1044.9312	1103.1001	1120.7575	1167.847	1206.9989	1217.7267	1264.0913	1279.6347	1297.6403	1363.0097	1377.7837	1413.6614	1487.4452	1527.3974	1835.3485	2360.4969	2948.8431	3032.1137	3040.2869	3058.8541	3089.3947	3091.1879	3147.8025
O=CC(C#N)C1CCO1	O=C[C@@H](C#N)[C@H]1CCO1	
InChI=1S/C6H7NO2/c7-3-5(4-8)6-1-2-9-6/h4-6H,1-2H2	InChI=1S/C6H7NO2/c7-3-5(4-8)6-1-2-9-6/h4-6H,1-2H2/t5-,6-/m1/s1
