13
gdb 132600	3.21532	1.31729	0.93515	3.3079	65.25	-0.221	-0.0258	0.1953	1103.0192	0.089439	-502.05531	-502.048161	-502.047216	-502.086821	27.761	
N	-0.0157143271	 1.4150163231	 0.1571049433	-0.596526
C	-0.042364843	 0.0354027268	 0.0548383662	 0.190541
C	-1.2105184558	-0.7235365258	 0.0394908528	-0.302852
C	-1.1001087209	-2.1087627377	-0.0049221105	 0.263212
F	-2.2122272224	-2.8484917299	-0.0199263669	-0.077388
C	 0.1377031149	-2.7248332958	-0.0357377182	-0.139545
N	 1.2635283168	-1.9943892395	-0.0268574639	-0.304204
C	 1.1589375456	-0.6996484092	 0.0159039367	 0.295393
F	 2.2953289835	 0.0161957059	 0.0138927426	-0.090562
H	 0.8553727779	 1.8396413256	-0.1230265917	 0.264384
H	-0.8280250286	 1.9019425877	-0.1895777964	 0.256674
H	-2.1895409546	-0.2586999073	 0.0658025156	 0.115499
H	 0.2276264537	-3.8044667139	-0.0710151495	 0.125375
149.772	228.2749	294.9671	340.4807	352.9716	416.6153	475.5903	479.0541	505.8413	558.1633	607.3439	638.6181	728.96	761.9279	796.9605	887.8793	892.0376	1013.308	1095.4764	1195.2407	1254.6374	1285.0206	1331.618	1367.1547	1486.9762	1522.1466	1631.755	1635.0113	1666.6045	3196.9271	3198.9351	3578.1386	3684.925
NC1=CC(F)=CN=C1F	Nc1cc(F)cnc1F	
InChI=1S/C5H4F2N2/c6-3-1-4(8)5(7)9-2-3/h1-2H,8H2	InChI=1S/C5H4F2N2/c6-3-1-4(8)5(7)9-2-3/h1-2H,8H2
