18
gdb 69939	4.04724	1.37819	1.20443	2.5531	78.17	-0.2326	-0.0028	0.2298	1062.6569	0.14861	-401.879719	-401.872277	-401.871333	-401.911265	29.648	
C	-0.0586237282	 1.5360127932	 0.0040249465	-0.492965
C	 0.086440351	 0.037897654	-0.021771144	 0.311374
N	-0.7620449716	-0.8208200088	 0.8494298613	-0.347824
C	 0.694736731	-0.785668315	 1.0888408449	-0.159072
C	 1.5279595393	-1.8577248384	 0.4154179003	 0.133794
O	 1.1820100645	-3.2859044006	 0.3526389428	-0.302926
C	 1.196490424	-3.2654161043	-1.1082508827	-0.13943
C	 1.1349647713	-1.7592692523	-1.0280268095	 0.140838
C	 0.3239902287	-0.7391497175	-1.2969068759	-0.23271
H	 0.8197245744	 2.0235507495	-0.4317067408	 0.130169
H	-0.9350758826	 1.8547760505	-0.5723239373	 0.127904
H	-0.1794879677	 1.9064401571	 1.0272189754	 0.11634
H	-1.2031653759	-0.2364936718	 1.5592154938	 0.226427
H	 1.0559176865	-0.3074530548	 1.993164798	 0.083352
H	 2.5896444263	-1.7518600139	 0.6760271349	 0.075832
H	 2.1269928852	-3.6979182181	-1.4992712624	 0.103567
H	 0.3332002981	-3.7783070785	-1.5434182607	 0.123161
H	-0.2880919043	-0.6006388503	-2.1807794445	 0.10217
152.6518	184.6368	207.2147	269.6022	302.3991	394.073	464.2857	516.3588	572.5719	708.7701	720.0724	782.2402	804.4099	842.567	887.1821	903.9903	928.8584	944.6304	981.6083	987.9804	1012.0646	1045.1018	1074.6447	1098.6721	1133.0071	1138.5579	1153.1768	1225.7293	1273.2714	1289.849	1323.5093	1346.6658	1366.2603	1408.3868	1422.3947	1482.9868	1498.7038	1510.0493	1722.2525	3007.8068	3014.3946	3026.3959	3081.7561	3088.7013	3101.6889	3166.3972	3197.1295	3466.4006
CC12NC1C1OCC1=C2	C[C@]12N[C@H]1[C@H]1OC[C]1[CH]2	
InChI=1S/C7H9NO/c1-7-2-4-3-9-5(4)6(7)8-7/h2,5-6,8H,3H2,1H3	InChI=1S/C7H9NO/c1-7-2-4-3-9-5(4)6(7)8-7/h2,5-6,8H,3H2,1H3/t5-,6-,7+/m0/s1
