15
gdb 78627	2.6819	1.68722	1.34359	2.8191	65.1	-0.2382	0.0054	0.2436	951.5165	0.111323	-457.72145	-457.713799	-457.712855	-457.753287	29.746	
O	-0.0801164461	 1.4850657122	 0.2064037223	-0.434959
C	-0.0084339456	 0.0882770902	 0.106086085	 0.055933
C	 0.2300196935	-0.771899169	 1.3952988511	-0.270731
C	-0.8836324879	-1.752125618	 0.8578424176	-0.134953
C	-1.9144803781	-0.7584218589	 1.4500304621	-0.284766
C	-0.851032256	-0.2490904316	 2.3701590696	 0.472236
O	-0.8257927811	 0.1910915253	 3.4827902549	-0.340182
C	-1.346054479	-0.6254025782	 0.0089618175	 0.387606
O	-2.169516238	-0.7039625097	-1.0850953773	-0.458981
H	 0.8094336175	 1.842952046	 0.2898241973	 0.292668
H	 0.6526909465	-0.2412163852	-0.7078033786	 0.0847
H	 1.2293706749	-1.0392714135	 1.7272510575	 0.093279
H	-0.9423366361	-2.8256158789	 0.7827593495	 0.124587
H	-2.9738223511	-0.9150576597	 1.6001872004	 0.113786
H	-2.6218988834	 0.142226039	-1.1830095091	 0.299777
127.567	189.4319	225.2217	255.4367	305.2218	346.5368	426.0045	476.8181	546.6148	619.1742	649.9165	730.0484	779.2339	822.572	836.984	856.6683	901.1544	934.8206	943.9098	1007.2993	1052.3521	1108.4577	1121.8191	1128.5684	1134.0327	1191.741	1216.5205	1260.9903	1283.4286	1329.7995	1412.3787	1482.0451	1888.5685	3013.6533	3164.3396	3221.4668	3259.9868	3791.887	3822.6248
OC1C2C3C(C2=O)C13O	O[C@H]1[C@@H]2[C@H]3[C@@H](C2=O)[C@@]13O	
InChI=1S/C6H6O3/c7-4-1-2-3(4)6(2,9)5(1)8/h1-3,5,8-9H	InChI=1S/C6H6O3/c7-4-1-2-3(4)6(2,9)5(1)8/h1-3,5,8-9H/t1-,2+,3+,5+,6-/m1/s1
