17
gdb 83624	3.07912	1.52699	1.15775	2.7173	75.6	-0.2409	-0.0537	0.1872	1050.1052	0.136283	-421.81599	-421.808242	-421.807298	-421.848316	29.412	
C	-0.1204473352	 1.5546386902	 0.1023896787	-0.382265
C	-0.0233945841	 0.0269808078	-0.0223400904	-0.166022
C	 0.8134273726	-0.4569175604	-1.2132636395	 0.091532
O	 1.5120771028	 0.4448114609	-2.1460513389	-0.302804
C	 2.7878689542	-0.2152679574	-1.8615258431	-0.153025
C	 2.1446630878	-0.7928207747	-0.6314624384	 0.217538
C	 2.1741445612	-0.8526212282	 0.6996871152	-0.325672
C	 0.7920539364	-0.5384227814	 1.1903850196	 0.386336
O	 0.3937551699	-0.5750547902	 2.3276449925	-0.32736
H	 0.8691875694	 2.0164806465	 0.0537523676	 0.126657
H	-0.7235661917	 1.9708388131	-0.7086476536	 0.127684
H	-0.5828810432	 1.8146830571	 1.057968726	 0.13625
H	-1.0287813638	-0.4031317065	-0.0137659732	 0.094795
H	 0.3151272228	-1.2461099704	-1.7891400125	 0.096644
H	 3.0505916385	-0.9303711737	-2.651368201	 0.121977
H	 3.6088788217	 0.4920380822	-1.7095335585	 0.134457
H	 3.0216728205	-0.937059645	 1.3669003794	 0.12328
84.4403	173.0166	219.3424	223.538	261.4644	337.9396	401.2737	506.5947	589.8361	688.7821	708.67	755.8944	774.1695	845.8098	881.2018	897.6955	942.7888	974.4937	1002.1121	1030.1115	1090.5341	1098.3745	1108.4636	1138.4421	1146.4853	1225.825	1249.4959	1292.9051	1320.9247	1328.0379	1352.8486	1403.7517	1494.2505	1494.8877	1501.5766	1710.7441	1821.3872	3020.7417	3029.4242	3049.0056	3074.3176	3088.2096	3124.5736	3130.0882	3226.8128
CC1C2OCC2=CC1=O	C[C@H]1[C@H]2OC[C]2[CH]C1=O	
InChI=1S/C7H8O2/c1-4-6(8)2-5-3-9-7(4)5/h2,4,7H,3H2,1H3	InChI=1S/C7H8O2/c1-4-6(8)2-5-3-9-7(4)5/h2,4,7H,3H2,1H3/t4-,7-/m1/s1
