15
gdb 34084	3.58824	1.56653	1.33993	3.4099	73.65	-0.253	-0.0244	0.2286	938.6694	0.114605	-379.633051	-379.626515	-379.625571	-379.663812	26.411	
N	 0.0065974432	-1.1667431717	 0.0014745431	-0.33734
C	 0.019136448	-0.0108681768	-0.0232469193	 0.172288
C	 0.0181499446	 1.4331747765	-0.0460405385	 0.126292
C	-0.8981020509	 2.2074454947	 0.9935877275	-0.16939
N	-1.3893632766	 3.1392709227	-0.0491405328	-0.153885
C	-0.2135451402	 3.558693892	-0.9541505566	-0.067509
C	 1.1806349643	 3.3902262326	-0.4783589264	-0.090375
C	 1.3531873793	 2.1474459098	-0.0149248702	-0.144792
C	-0.8391571422	 2.2283746975	-1.091907068	-0.078601
H	-1.7411905896	 1.5927891556	 1.312664942	 0.143161
H	-0.3901969414	 2.6528775847	 1.8531525797	 0.118932
H	-0.5084489751	 4.3807440583	-1.5935171945	 0.113857
H	 1.9108051034	 4.1883290667	-0.4669739854	 0.119873
H	 2.2222024527	 1.7381894136	 0.4827388495	 0.129103
H	-1.4099451995	 1.8310739637	-1.9242345502	 0.118386
153.707	162.2665	369.3404	385.9281	484.7842	541.4696	547.4016	560.8776	664.1372	712.7167	749.8059	790.9908	814.6531	857.0921	915.8023	925.1483	970.4612	977.8752	1002.2283	1031.9117	1074.7863	1088.6785	1136.9095	1171.6492	1193.9166	1238.4646	1260.7123	1276.9168	1360.027	1367.1246	1489.0821	1638.3091	2356.8737	3063.2392	3137.0715	3173.4456	3204.1486	3216.8118	3238.9766
N#CC12CN3C(C=C1)C23	N#C[C@@]12CN3[C@@H](C=C1)[C@@H]23	
InChI=1S/C7H6N2/c8-3-7-2-1-5-6(7)9(5)4-7/h1-2,5-6H,4H2	InChI=1S/C7H6N2/c8-3-7-2-1-5-6(7)9(5)4-7/h1-2,5-6H,4H2/t5-,6-,7+,9?/m0/s1
