21
gdb 110838	3.18015	1.26005	1.133	1.3312	79.02	-0.226	0.0763	0.3023	1197.2792	0.179855	-424.177148	-424.16762	-424.166676	-424.211192	35.829	
C	 0.4461580361	 0.9881441382	 0.4035542593	-0.237625
O	-0.3502651889	 0.1558792393	-0.4220400765	-0.235923
C	 0.4000445256	-0.5531495152	-1.3499647949	 0.101442
C	 1.3265738789	-1.673359767	-0.9894401302	 0.026316
O	 0.8764853912	-2.3886777603	 0.1532000384	-0.327599
C	-0.3195521615	-2.8481848871	-0.575359427	 0.412196
C	-0.1407077483	-4.3233840709	-0.9184090253	-0.417581
C	-1.6035079224	-2.5952664862	 0.1982417649	-0.442401
C	 0.0412986337	-1.94893065	-1.7727606092	-0.243766
H	 1.161012936	 0.3977245331	 0.9905748047	 0.127409
H	 0.9998933336	 1.7321488442	-0.1885752831	 0.10339
H	-0.2339152095	 1.5109860831	 1.0797464379	 0.126705
H	 0.7735468605	 0.0534659124	-2.1807564874	 0.087996
H	 2.3781042121	-1.736829893	-1.2500970844	 0.096801
H	-0.1325866123	-4.9223203192	-0.0027668525	 0.12268
H	-0.963951126	-4.6734054588	-1.5511713707	 0.112089
H	 0.7999206034	-4.489574141	-1.4503415954	 0.117978
H	-1.6994170999	-1.5422232519	 0.4563564038	 0.148709
H	-2.4680293179	-2.8934049915	-0.4047398393	 0.111647
H	-1.6109887426	-3.1952383009	 1.1147943773	 0.114709
H	-0.1206504117	-2.2236118175	-2.8076869604	 0.094828
68.1721	136.9695	164.7523	189.3509	222.2958	240.5061	284.3283	294.8566	358.176	384.925	441.1254	611.0115	645.849	672.3833	737.3682	804.5513	847.7805	904.5792	933.7215	958.8922	975.3753	998.1276	1011.3419	1054.5672	1071.4474	1092.4264	1103.1395	1170.7604	1174.92	1199.2323	1220.4108	1246.6395	1260.173	1309.7094	1345.7609	1397.888	1412.6666	1421.9887	1472.7348	1481.29	1486.4423	1487.0923	1494.2443	1504.2108	1511.0603	2989.2933	3032.6927	3040.5216	3054.6179	3059.9678	3096.9424	3106.4386	3119.4089	3122.348	3161.0109	3170.5443	3188.1754
COC1C2OC(C)(C)C12	CO[C@H]1[C@H]2OC(C)(C)[C@@H]12	
InChI=1S/C7H12O2/c1-7(2)4-5(8-3)6(4)9-7/h4-6H,1-3H3	InChI=1S/C7H12O2/c1-7(2)4-5(8-3)6(4)9-7/h4-6H,1-3H3/t4-,5+,6-/m0/s1
