14
gdb 15474	3.37571	1.82521	1.2617	5.0562	62.18	-0.247	-0.0454	0.2015	909.1338	0.108635	-378.746915	-378.739802	-378.738858	-378.778734	25.792	
O	-0.0410722188	 0.0566196037	 0.2423439917	-0.276169
C	-0.0831198046	 1.2497784496	 0.1794330886	 0.391404
C	-1.331948785	 2.1440106712	 0.1331889471	-0.284868
N	-0.8801266725	 3.5107668447	-0.1243446008	-0.287757
C	 0.4824321865	 3.5964923966	 0.4144093059	-0.195468
C	 1.1416250568	 2.2193228526	 0.1243056614	-0.277491
C	 2.2306451721	 1.8370519893	 1.0029516482	 0.29139
N	 3.0937808181	 1.563740017	 1.7214169848	-0.31539
H	-2.0486447195	 1.7876665524	-0.6099433976	 0.146077
H	-1.8209354702	 2.0761347647	 1.1157047175	 0.152204
H	-0.8570931846	 3.6775196361	-1.1249925494	 0.231676
H	 1.0265136391	 4.4306658018	-0.0298052922	 0.13349
H	 0.4388485774	 3.7586645911	 1.4971172581	 0.139616
H	 1.499115305	 2.1981955993	-0.9144337832	 0.151287
72.8634	141.0252	184.0766	274.0169	405.4718	451.6962	506.6548	564.221	572.4149	665.5685	722.2813	802.7704	910.9776	951.7706	980.7726	1015.3425	1042.9036	1103.0857	1124.1108	1172.9145	1225.4221	1278.6878	1302.9489	1324.3362	1366.5537	1459.5141	1468.9069	1500.9177	1871.2223	2359.7048	3015.3452	3025.3591	3053.6742	3113.1036	3130.8806	3523.8705
O=C1CNCC1C#N	O=C1CNC[C@H]1C#N	
InChI=1S/C5H6N2O/c6-1-4-2-7-3-5(4)8/h4,7H,2-3H2	InChI=1S/C5H6N2O/c6-1-4-2-7-3-5(4)8/h4,7H,2-3H2/t4-/m1/s1
