18
gdb 119861	3.2797	1.0578	0.81601	2.1551	75.9	-0.2423	-0.0553	0.187	1411.7405	0.147226	-439.124595	-439.115633	-439.114688	-439.159203	31.857	
C	 0.0358244977	 1.5038153578	 0.1039647149	-0.391018
C	 0.0092914876	-0.0085395539	 0.0077894852	-0.044639
O	 0.6939828947	-0.531195198	 1.1629400694	-0.249311
C	 0.7703460226	-1.8521421025	 1.2517744441	 0.31032
N	 0.3002843961	-2.6979231195	 0.4201615861	-0.299809
C	 0.6003867558	-4.0602480714	 0.891101986	-0.170478
C	 1.374964239	-3.9520414301	 2.2214436538	-0.349945
C	 1.4797387534	-2.4481543514	 2.4476813459	 0.330997
O	 1.9975652509	-1.8512643774	 3.3530421634	-0.300778
H	 1.0641325709	 1.8750580776	 0.1199413028	 0.134002
H	-0.4759762269	 1.9379781332	-0.7600709374	 0.122588
H	-0.4676936869	 1.8453770732	 1.0124148752	 0.13397
H	-1.0119644288	-0.4048427958	-0.0048674411	 0.121903
H	 0.5115164762	-0.3748512643	-0.8943180604	 0.121857
H	-0.3415544676	-4.6084488841	 1.0002638372	 0.121675
H	 1.1733899764	-4.5803667288	 0.115960144	 0.12168
H	 0.8582858872	-4.4158992921	 3.0667707037	 0.143498
H	 2.3772139817	-4.3884786724	 2.1802880975	 0.143486
60.7572	86.8705	115.861	137.444	237.4282	253.0518	312.82	353.0387	431.4424	567.3541	622.2309	652.9451	736.3435	800.23	810.0226	825.6279	892.2612	970.6449	1030.9887	1037.9133	1050.5042	1111.7614	1140.3579	1176.2202	1182.8362	1235.6406	1256.0956	1290.7707	1337.5971	1364.1833	1406.5625	1433.4137	1447.1249	1484.704	1495.7576	1500.1718	1518.5183	1698.8726	1849.4225	3041.4989	3043.2906	3048.1343	3066.6775	3070.2802	3079.6489	3108.4059	3122.3914	3128.6231
CCOC1=NCCC1=O	CCOC1=NCCC1=O	
InChI=1S/C6H9NO2/c1-2-9-6-5(8)3-4-7-6/h2-4H2,1H3	InChI=1S/C6H9NO2/c1-2-9-6-5(8)3-4-7-6/h2-4H2,1H3
