21
gdb 52409	8.15339	0.44172	0.43555	2.7169	81.37	-0.2493	-0.0204	0.2289	2426.8827	0.179958	-424.216364	-424.206054	-424.20511	-424.253912	35.299	
O	-0.1418946938	 0.0285098861	 0.1119055409	-0.236857
C	-0.0417838661	 1.2238025501	 0.0099563251	 0.159246
C	 1.2604594388	 1.987484836	-0.0512386397	-0.273579
C	 1.365039101	 2.8385946203	-1.3292846642	-0.196375
C	 2.6245997684	 3.7095053263	-1.3612217004	-0.169839
C	 2.7438143673	 4.5495360837	-2.6400616367	-0.226813
C	 3.9743374394	 5.4232865716	-2.6357657308	 0.098533
C	 3.986428011	 6.7763151013	-3.2036143805	-0.180776
O	 3.9295631246	 6.5775651054	-1.7897509275	-0.236781
H	-0.9506316383	 1.8690284698	-0.0578219646	 0.068575
H	 1.2961942487	 2.652518855	 0.8242729708	 0.119551
H	 2.087785985	 1.276057775	 0.0282629703	 0.121186
H	 1.3504777131	 2.1768759081	-2.2050466989	 0.110297
H	 0.4765546407	 3.4790003474	-1.4139190099	 0.103806
H	 2.6295457616	 4.3833523617	-0.4955803127	 0.117544
H	 3.5122429247	 3.0706011627	-1.2602238246	 0.099686
H	 2.7769747264	 3.8909766582	-3.5186154993	 0.101806
H	 1.8583309666	 5.1871690916	-2.7503407053	 0.103043
H	 4.9257295989	 4.8881979533	-2.5911525457	 0.090556
H	 4.9158950155	 7.2011907948	-3.5803644882	 0.114932
H	 3.0788799666	 7.1743994015	-3.6563459081	 0.112259
40.1805	47.344	71.1056	97.8344	125.4187	141.669	218.8287	283.6914	361.9766	425.1335	493.3936	523.9569	735.8267	771.52	793.6575	848.1541	868.9067	945.6178	949.6937	987.1241	1028.892	1051.2975	1060.4206	1082.7473	1118.8061	1158.9983	1160.1486	1171.0836	1198.9021	1242.2296	1272.2464	1293.9059	1304.3374	1326.6092	1334.3474	1367.5104	1397.7584	1431.1023	1448.7493	1463.4904	1471.8608	1487.8045	1506.8141	1530.7649	1837.0252	2844.6131	3008.8466	3012.3362	3016.3488	3024.3383	3042.2464	3055.9835	3073.6263	3080.7602	3089.5545	3097.9327	3166.7857
O=CCCCCC1CO1	O=CCCCC[C@H]1CO1	
InChI=1S/C7H12O2/c8-5-3-1-2-4-7-6-9-7/h5,7H,1-4,6H2	InChI=1S/C7H12O2/c8-5-3-1-2-4-7-6-9-7/h5,7H,1-4,6H2/t7-/m0/s1
