13
gdb 42681	3.33365	1.65401	1.24987	2.7821	62.27	-0.2427	-0.0909	0.1518	926.1173	0.089225	-456.513638	-456.50727	-456.506326	-456.544567	24.782	
O	 0.0301632886	-0.025947362	-0.0289590807	-0.287311
C	-0.0225419795	 1.1714402413	 0.0030107642	 0.310567
C	-1.2044660809	 2.1015171753	 0.0648583029	-0.16762
C	-0.8769411201	 3.3702360951	-0.7949091929	 0.04315
O	-1.6070928897	 4.2368168453	 0.1329771919	-0.293884
C	-0.8216544277	 3.3244875289	 0.9671232723	 0.04315
C	 0.4367531573	 3.5005903471	 0.0497791355	-0.167621
C	 1.1674242823	 2.1857725536	-0.0066673236	 0.310567
O	 2.3409286678	 1.9439052781	-0.0505392813	-0.287311
H	-2.2213035278	 1.7211211001	 0.0869406183	 0.120052
H	-1.0112880811	 3.5162394447	-1.8658333993	 0.128105
H	-0.8884244208	 3.4145426681	 2.0504867411	 0.128105
H	 0.9734594118	 4.4445371944	 0.0573932415	 0.120052
120.2366	188.7893	296.804	407.5605	518.6932	536.5476	554.7796	639.7521	706.5327	735.4457	750.4495	876.9701	893.7222	900.5955	907.9813	932.4027	988.1327	1040.3335	1098.6985	1144.0101	1160.6387	1168.7515	1188.9647	1204.5377	1258.2589	1258.4799	1318.7291	1861.0712	1880.352	3131.6848	3134.7525	3180.1905	3180.3296
O=C1C2C3OC2C3C1=O	O=C1[C@@H]2[C@H]3O[C@@H]2[C@H]3C1=O	
InChI=1S/C6H4O3/c7-3-1-5-2(4(3)8)6(1)9-5/h1-2,5-6H	InChI=1S/C6H4O3/c7-3-1-5-2(4(3)8)6(1)9-5/h1-2,5-6H/t1-,2+,5-,6+
