17
gdb 89143	2.1	1.72774	1.15965	2.4991	73.98	-0.2208	0.0242	0.245	1081.6901	0.135027	-417.964231	-417.955583	-417.954638	-417.997224	32.357	
C	-0.3831996963	 1.4310877417	 0.0433025469	-0.349311
N	 0.0744015521	 0.0513545823	-0.005099512	-0.063881
C	 1.0852645447	-0.3870730167	-1.0071737567	-0.262533
C	 1.8502303078	-1.0914546514	 0.127150427	 0.351791
O	 2.3384184129	-2.3739485878	 0.0874054016	-0.451125
C	 2.3203726229	-0.0740154076	 1.1641867669	-0.280341
C	 2.8278494273	 1.2228066715	 0.8257292165	 0.307735
N	 3.2556091349	 2.2579275246	 0.5296620752	-0.362647
C	 0.8365091769	-0.5244251707	 1.076640534	-0.079382
H	 0.4218970387	 2.1730658782	 0.1366110252	 0.138399
H	-0.9512231396	 1.6482791669	-0.8667073372	 0.126449
H	-1.0621642172	 1.5470125425	 0.8942137477	 0.126328
H	 0.6663938407	-1.0843634432	-1.7390055241	 0.122971
H	 1.6237616302	 0.4184438948	-1.5205854862	 0.122109
H	 3.2094831178	-2.361478582	-0.3263593813	 0.29708
H	 2.8303137379	-0.552791708	 1.9958606301	 0.13742
H	 0.3644808082	-0.9424462951	 1.9594538264	 0.118935
127.9175	135.2456	180.9785	187.9062	250.7572	287.1269	345.7057	401.5478	405.787	436.0813	563.1325	600.8454	651.5912	696.454	813.5968	834.7815	903.9654	965.2319	989.0185	1036.4776	1038.8902	1072.1919	1122.9281	1161.8466	1199.6354	1205.6743	1229.9043	1275.6569	1287.2562	1316.9121	1349.1688	1452.9126	1471.4435	1488.2911	1506.433	1509.9673	2335.1894	3009.4367	3030.6345	3078.0892	3088.3344	3105.5308	3157.2428	3172.8447	3789.2346
CN1CC2(O)C(C#N)C12	CN1C[C@@]2(O)[C@@H](C#N)[C@@H]12	
InChI=1S/C6H8N2O/c1-8-3-6(9)4(2-7)5(6)8/h4-5,9H,3H2,1H3	InChI=1S/C6H8N2O/c1-8-3-6(9)4(2-7)5(6)8/h4-5,9H,3H2,1H3/t4-,5+,6+/m0/s1
