20
gdb 55356	3.13566	1.23308	1.13029	1.9746	78.53	-0.2308	-0.014	0.2168	1176.8229	0.17154	-403.154014	-403.145435	-403.144491	-403.187824	32.279	
C	 0.2159434694	 1.1127201629	 0.7387101281	-0.479754
C	 0.0030036024	 0.0492831972	-0.3216927259	 0.387785
O	 0.8540454702	-0.2165546144	-1.1398617607	-0.305835
C	-1.3358870296	-0.6910041162	-0.2730827984	-0.10156
C	-1.7280910722	-1.3690739629	-1.6016595876	-0.268723
C	-2.4297581703	-2.6777915446	-1.1735347408	-0.158476
N	-1.9499695768	-3.0418403288	 0.1734933261	-0.093508
C	-0.4864028843	-3.0526671043	 0.3075865498	-0.245594
C	-1.2705467955	-1.860321654	 0.7241297024	-0.036551
H	 1.2448475705	 1.472862564	 0.7095525049	 0.142968
H	-0.4686552372	 1.9507804888	 0.5605265199	 0.142493
H	-0.0176078778	 0.7216263535	 1.7351038817	 0.140202
H	-2.1129714939	 0.0014506968	 0.0708844409	 0.079547
H	-2.3760493835	-0.7339130882	-2.2104158593	 0.104342
H	-0.8225226003	-1.5570919772	-2.1819344227	 0.136165
H	-3.5130383736	-2.5336345761	-1.0982178076	 0.106892
H	-2.2550969197	-3.5028325983	-1.8710342546	 0.110451
H	-0.1088080722	-3.7413108786	 1.0574680196	 0.116695
H	 0.1318353236	-2.9678655533	-0.5825038159	 0.130379
H	-1.4335853691	-1.6457991061	 1.7765022703	 0.092084
50.2553	102.652	138.0415	174.8619	266.5555	331.2797	354.3661	418.9579	562.1937	595.4191	639.8372	657.114	739.1074	816.206	851.5718	875.6928	917.9681	952.9719	963.4604	983.2741	1006.0978	1006.7672	1053.5357	1106.7942	1112.1351	1133.7503	1160.415	1185.0734	1207.3962	1240.2523	1269.0247	1277.941	1312.5012	1339.7524	1360.6959	1382.1398	1388.0922	1461.9407	1476.0289	1495.2324	1501.6286	1522.9684	1806.9691	3032.51	3039.2123	3042.0732	3075.298	3085.5041	3094.0124	3111.9878	3123.1137	3143.8322	3152.8118	3197.8794
CC(=O)C1CCN2CC12	CC(=O)[C@H]1CCN2C[C@@H]12	
InChI=1S/C7H11NO/c1-5(9)6-2-3-8-4-7(6)8/h6-7H,2-4H2,1H3	InChI=1S/C7H11NO/c1-5(9)6-2-3-8-4-7(6)8/h6-7H,2-4H2,1H3/t6-,7+,8?/m1/s1
