17
gdb 64718	3.91224	1.08867	1.0318	3.0652	71.84	-0.2537	0.0224	0.2761	1169.1179	0.135329	-417.96932	-417.960849	-417.959904	-418.002531	31.816	
N	-0.1914366926	 1.5316454058	-0.0161958745	-0.549342
C	-0.0606867625	 0.0920645312	-0.0061062471	 0.259262
C	 0.844490368	-0.4898609437	-1.1287075044	-0.408375
C	 2.2042190409	 0.0358477257	-1.0517240294	 0.26305
N	 3.2670089112	 0.4802378072	-0.9558725078	-0.306122
C	 0.2828820836	-0.5342941471	 1.3985821301	-0.288023
C	-1.0242310769	-1.3321829671	 1.3061396928	 0.03517
O	-2.0863488423	-0.3784248591	 1.2177379377	-0.232074
C	-1.3889398766	-0.7054597992	 0.0249963965	 0.001738
H	 0.7148055656	 1.9701961863	 0.126025267	 0.245581
H	-0.5447947234	 1.8624164426	-0.9101943828	 0.227228
H	 0.87993166	-1.5843663623	-1.0769074192	 0.149996
H	 0.4225566045	-0.2300118502	-2.1076550479	 0.144719
H	 1.1921122357	-1.1394098896	 1.3923194902	 0.11675
H	 0.3123491946	 0.1807074408	 2.2218200004	 0.127559
H	-1.2633180716	-2.311656587	 1.7025155067	 0.110977
H	-1.9675033382	-1.0714728845	-0.8175902383	 0.101906
72.1585	119.6359	172.2408	208.7123	272.5307	334.4628	392.4736	411.3919	426.0839	466.174	602.5269	702.4785	801.4406	825.3568	842.0164	862.4782	878.0653	900.6548	948.3668	958.2049	992.4127	1008.4301	1043.5708	1099.9055	1143.9199	1189.3409	1225.1645	1243.2555	1252.2659	1284.1645	1319.3427	1342.5666	1393.6817	1460.0895	1471.1464	1652.7072	2358.1706	3032.139	3072.5569	3078.2107	3141.1573	3164.0827	3195.783	3479.6363	3561.2759
NC1(CC#N)CC2OC12	N[C@@]1(CC#N)C[C@H]2O[C@@H]12	
InChI=1S/C6H8N2O/c7-2-1-6(8)3-4-5(6)9-4/h4-5H,1,3,8H2	InChI=1S/C6H8N2O/c7-2-1-6(8)3-4-5(6)9-4/h4-5H,1,3,8H2/t4-,5-,6+/m1/s1
