14
gdb 53860	3.65567	0.92439	0.84989	2.7042	64.53	-0.2542	-0.0603	0.1939	1334.3325	0.100412	-470.043891	-470.034822	-470.033878	-470.079128	31.49	
N	-0.1037860496	 1.1151571251	-0.4490841377	-0.512879
C	 0.0264095121	-0.10977094	 0.1360269239	 0.243453
N	 1.1055999047	-0.5193730861	 0.6797017269	-0.503291
C	-1.2744507898	-0.8922521061	 0.0667185606	 0.443176
O	-2.250147896	-0.5374623807	-0.5425157974	-0.357131
O	-1.2021692689	-2.0449215	 0.7704504759	-0.238635
C	-2.3810678886	-2.8558759096	 0.7441202493	-0.202617
C	-2.4315884465	-3.701499893	-0.4528571332	 0.272602
N	-2.4784328924	-4.3845549415	-1.3823714062	-0.284917
H	 0.7423263025	 1.6306125085	-0.6265881446	 0.269078
H	-0.8948807482	 1.264249728	-1.0527982443	 0.275933
H	 0.9675343581	-1.4395639679	 1.0897207899	 0.236384
H	-2.3310544345	-3.4829143843	 1.6361899787	 0.17468
H	-3.273318323	-2.2255278823	 0.7797762082	 0.184167
35.8237	66.8016	78.9005	213.8863	240.9253	338.9471	357.8795	370.9499	401.6961	452.0284	511.6075	538.485	590.7519	662.0743	804.2624	828.928	872.322	928.8447	1028.7763	1043.9738	1122.1273	1153.5495	1227.3898	1301.6929	1398.8853	1432.5523	1458.7517	1603.186	1731.5314	1817.3059	2371.4728	3079.7395	3136.6242	3535.3456	3604.5746	3733.107
NC(=N)C(=O)OCC#N	NC(=N)C(=O)OCC#N	
InChI=1S/C4H5N3O2/c5-1-2-9-4(8)3(6)7/h2H2,(H3,6,7)	InChI=1S/C4H5N3O2/c5-1-2-9-4(8)3(6)7/h2H2,(H3,6,7)
