15
gdb 31360	4.10703	1.15089	0.90667	7.3605	73.23	-0.2253	-0.0271	0.1983	1220.5278	0.11346	-453.991734	-453.98351	-453.982565	-454.025212	29.296	
C	-0.0522235011	 1.4996242619	-0.0788926232	-0.329926
N	 0.1665439118	 0.0660051754	 0.0418114581	-0.369812
C	 0.6375571773	-0.7102306327	-0.9711453334	 0.49679
C	 0.5858243049	-2.0651155904	-1.0532159599	-0.383054
C	 1.188332141	-2.7642202685	-2.168028697	 0.389348
O	 1.1929818413	-3.9669463906	-2.3158272432	-0.35733
N	 1.8123998747	-1.9194726499	-3.1556959971	-0.294068
C	 1.7921272159	-0.6706857308	-2.9887236806	 0.119384
O	 1.2364786623	 0.0256044634	-1.9448105399	-0.216984
H	 0.8612997666	 1.9929702558	-0.4145648604	 0.156514
H	-0.860321391	 1.7523795293	-0.7781764591	 0.134642
H	-0.3089554531	 1.8889761437	 0.9078335726	 0.139673
H	-0.4029167383	-0.4259234215	 0.7111490362	 0.26294
H	 0.0973770241	-2.6431882184	-0.2793695152	 0.104212
H	 2.2350115836	 0.0321981234	-3.689067288	 0.14767
70.0932	106.7994	130.4559	186.4947	215.6813	386.1264	425.6896	465.4944	477.1489	575.3622	635.6305	696.1568	767.3122	781.9503	837.7221	882.738	942.0055	958.4458	1056.9515	1079.1709	1149.8331	1169.9546	1236.4715	1297.5126	1391.0188	1424.8054	1469.9144	1486.5244	1491.1808	1522.0035	1649.6015	1731.6054	1793.6484	3016.6939	3107.1676	3146.6569	3182.7639	3213.3764	3645.2264
CNC1=CC(=O)N=CO1	CNc1cc(=O)nco1	
InChI=1S/C5H6N2O2/c1-6-5-2-4(8)7-3-9-5/h2-3,6H,1H3	InChI=1S/C5H6N2O2/c1-6-5-2-4(8)7-3-9-5/h2-3,6H,1H3
