19
gdb 58791	3.37202	1.14233	1.01631	4.4798	75.78	-0.2713	0.0052	0.2765	1237.4086	0.157811	-423.036939	-423.028077	-423.027132	-423.070581	33.373	
C	-0.1010845454	 1.5421369914	 0.1449828295	-0.392765
C	-0.0535035178	 0.0105075817	 0.0136901468	-0.08438
C	 0.8737948474	-0.6223789714	 1.0591796407	-0.404686
C	-1.4411917808	-0.5575263129	 0.0808874303	 0.495301
C	-2.2831013639	-0.9575570449	 1.2357956235	-0.333986
C	-2.0115947516	-1.9601297132	 0.0962250464	-0.346881
C	-2.794838958	-1.5006202999	-1.0999184811	 0.462065
O	-3.5124774301	-1.9628512367	-1.9253646823	-0.327246
O	-2.3464012344	-0.1869232743	-1.0146312717	-0.30533
H	 0.8975822372	 1.9679138991	 0.0086299138	 0.115879
H	-0.7660736668	 1.9782801645	-0.6047695125	 0.141339
H	-0.4632431023	 1.8381296823	 1.1355632152	 0.118272
H	 0.3318453174	-0.2340276814	-0.9849211395	 0.096118
H	 0.9125956573	-1.7118173183	 0.9607563937	 0.120376
H	 1.8908795199	-0.2391701658	 0.9381127888	 0.125467
H	 0.550603382	-0.3807110534	 2.077425623	 0.122351
H	-1.7655674626	-1.2025461759	 2.1580274465	 0.132893
H	-3.2738137231	-0.5321557173	 1.3587409173	 0.137321
H	-1.5635681445	-2.9299415635	 0.2550017214	 0.127889
64.8692	118.6427	169.5211	219.3313	244.3987	279.0043	313.9217	393.3539	446.2255	465.6873	508.4035	651.4634	684.5184	764.9336	835.7996	865.0364	906.5782	933.3751	938.2384	963.0683	970.7588	995.4249	1020.6751	1054.4037	1094.3823	1121.2279	1141.5718	1167.7132	1203.9817	1240.5367	1344.3349	1364.645	1398.7695	1404.2691	1425.7335	1488.5778	1489.2452	1497.9893	1503.376	1516.0741	1942.4844	3022.0999	3034.3599	3038.7955	3101.9395	3106.7051	3113.1203	3123.5448	3128.7198	3219.6139	3229.7696
CC(C)C12CC1C(=O)O2	CC(C)[C@]12C[C@H]1C(=O)O2	
InChI=1S/C7H10O2/c1-4(2)7-3-5(7)6(8)9-7/h4-5H,3H2,1-2H3	InChI=1S/C7H10O2/c1-4(2)7-3-5(7)6(8)9-7/h4-5H,3H2,1-2H3/t5-,7+/m0/s1
