16
gdb 52578	2.17775	1.07349	0.80798	4.1854	80.	-0.2409	0.0179	0.2587	1442.7644	0.120655	-400.719045	-400.708442	-400.707498	-400.756497	36.283	
C	-0.4388227057	 1.3684092368	-0.5135106957	-0.501119
C	-0.2420774814	-0.0581579749	-0.2981283254	 0.090312
C	-0.0810731755	-1.2347723838	-0.0982439141	 0.068144
C	 0.1290853432	-2.6668015387	 0.1263571518	-0.450928
C	-1.1257819294	-3.3644569536	 0.4223256681	 0.353843
C	-2.1505773721	-3.9456962353	 0.6531273264	-0.467068
C	 0.8413681891	-3.3986548683	-1.0632703637	 0.413983
N	 0.57157364	-2.8797732644	-2.2849973656	-0.514056
O	 1.5352584386	-4.3691342374	-0.8619983562	-0.351937
H	 0.3139404022	 1.7765532438	-1.1966363608	 0.151684
H	-1.426017638	 1.5730724812	-0.941466582	 0.154064
H	-0.364692426	 1.9204897026	 0.4295433308	 0.157743
H	 0.8171564031	-2.811356163	 0.9681427725	 0.159422
H	-3.0552900901	-4.4607136591	 0.8625569287	 0.202162
H	 0.0795998498	-2.0073146863	-2.3781423486	 0.268439
H	 1.0119369421	-3.2947405796	-3.0891679264	 0.265313
29.3911	37.9903	83.6382	109.439	138.0235	244.2737	270.1094	281.0753	363.0605	392.6208	400.4727	449.6055	530.6086	562.3557	609.3725	629.8958	644.9858	740.6226	821.9091	875.0803	988.1266	1051.7944	1055.0809	1101.9888	1168.181	1232.3215	1300.075	1341.4155	1414.988	1477.3703	1477.6769	1610.0113	1823.4769	2242.5868	2369.0075	3030.6741	3039.1939	3092.6498	3094.5749	3504.652	3597.7843	3733.177
CC#CC(C#C)C(N)=O	CC#C[C@@H](C#C)C(=O)N	
InChI=1S/C7H7NO/c1-3-5-6(4-2)7(8)9/h2,6H,1H3,(H2,8,9)	InChI=1S/C7H7NO/c1-3-5-6(4-2)7(8)9/h2,6H,1H3,(H2,8,9)/t6-/m1/s1
