17
gdb 35766	3.12021	1.48755	1.3263	6.0725	70.99	-0.2351	0.0233	0.2584	997.3517	0.138944	-417.989664	-417.98242	-417.981476	-418.021416	28.378	
N	-0.0321499743	-1.1449510703	-0.427561745	-0.323006
C	-0.0173851923	-0.0145233523	-0.1913711701	 0.318038
C	-0.0006687978	 1.4383837253	 0.0672365178	-0.163248
N	-0.6504308716	 1.7562770578	 1.3512283734	-0.298377
C	 0.2854426273	 1.9281982979	 2.4800867828	-0.172129
C	 1.6611828921	 2.3812251292	 1.9929545331	 0.094785
C	 1.5506733394	 3.3096880011	 0.7636235329	-0.267874
C	 1.4562645844	 1.956596752	 0.0325100733	 0.090376
O	 2.1616766244	 1.3167512496	 1.1231662741	-0.284975
H	-0.578214531	 1.9140291618	-0.7343336887	 0.124575
H	-1.2060055702	 2.5917361195	 1.2335093494	 0.232795
H	-0.1520883914	 2.6453278255	 3.1821372341	 0.107689
H	 0.4115079015	 0.9755554556	 3.0082776785	 0.13377
H	 2.3587617943	 2.6206605824	 2.7992490881	 0.087808
H	 0.7113478427	 4.0060722206	 0.7009383619	 0.095846
H	 2.4888391998	 3.8201850483	 0.5464730693	 0.124415
H	 1.9410072828	 1.8058620159	-0.9349063947	 0.099512
94.4856	145.939	260.2154	316.8787	387.3325	415.6178	447.8541	568.8553	599.3819	652.9724	708.8649	817.4125	838.0716	857.4192	904.7993	909.9895	950.9461	971.5112	999.4533	1027.1862	1075.0019	1089.0324	1103.7808	1168.4728	1205.8411	1241.5245	1254.3083	1272.4048	1316.6907	1332.2072	1344.888	1359.3483	1391.1176	1480.3894	1484.9305	1489.8696	2362.5632	3035.6311	3045.7611	3073.9605	3083.5486	3087.5882	3091.0156	3144.7192	3579.6576
N#CC1NCC2CC1O2	N#C[C@H]1NC[C@@H]2C[C@H]1O2	
InChI=1S/C6H8N2O/c7-2-5-6-1-4(9-6)3-8-5/h4-6,8H,1,3H2	InChI=1S/C6H8N2O/c7-2-5-6-1-4(9-6)3-8-5/h4-6,8H,1,3H2/t4-,5+,6+/m0/s1
