15
gdb 29220	3.20035	1.44884	1.00229	6.4337	74.96	-0.2057	-0.0333	0.1724	1111.9096	0.114811	-450.159677	-450.151742	-450.150798	-450.192033	30.631	
N	 0.0757565298	 1.4309210247	 0.0688550974	-0.609349
C	 0.0092016781	 0.013703668	 0.0136785328	 0.09646
C	-1.1081688514	-0.7268981912	 0.1088731796	 0.029211
O	-1.1005374215	-2.0690078494	 0.1365695874	-0.237353
C	 0.1291852216	-2.7739690944	-0.0466122187	 0.413262
N	 0.0835120612	-4.0362780999	-0.1461502881	-0.539858
N	 1.2876852135	-2.0493650028	-0.0748402283	-0.360222
C	 1.2496221686	-0.7502078029	-0.0414684309	 0.387159
N	 2.4092051338	-0.0413762573	-0.083765769	-0.558108
H	 0.3323759323	 1.8323091368	-0.8291851913	 0.25328
H	-0.8069711928	 1.8399746313	 0.353608227	 0.246737
H	-2.1085874112	-0.3141241925	 0.197220758	 0.125048
H	-0.8820083103	-4.355751874	-0.0900405813	 0.216834
H	 3.2560315749	-0.5716831216	 0.0529885628	 0.268492
H	 2.3781762935	 0.9001488453	 0.2762386127	 0.268408
78.0344	198.1568	208.613	304.0008	327.5637	369.3086	385.9352	474.1588	531.1922	543.2242	589.4258	594.6861	718.4717	727.3743	768.2273	786.8352	807.4766	823.8454	859.3746	903.0069	1020.9553	1150.263	1190.4594	1200.4891	1278.8678	1308.7861	1365.9566	1480.6641	1596.5924	1627.0613	1646.6653	1733.0526	1753.5209	3183.1243	3486.319	3512.7407	3575.4546	3583.6755	3702.7581
NC1=COC(=N)N=C1N	NC1=C(N=C(OC1)[NH])N	
InChI=1S/C4H6N4O/c5-2-1-9-4(7)8-3(2)6/h1H,5H2,(H3,6,7,8)	InChI=1S/C4H7N4O/c5-2-1-9-4(7)8-3(2)6/h7H,1,5H2,(H2,6,8)
