15
gdb 130990	7.19871	0.72696	0.66304	3.0382	68.5	-0.223	-0.036	0.187	1563.149	0.112418	-453.947856	-453.939544	-453.9386	-453.982407	28.829	
O	-0.2294317421	 0.1766030027	 0.5489854106	-0.234796
C	 0.0296684038	 1.0893774263	-0.1875713129	 0.140262
C	 1.3379667593	 1.8583699987	-0.1328582397	-0.168441
O	 1.2919231022	 2.8499685053	-1.1358267583	-0.278355
C	 2.3903256461	 3.6437209374	-1.2372452734	 0.287879
C	 2.5280383311	 4.6647798154	-2.157992771	-0.151017
N	 3.7549726918	 5.1971709934	-1.9218975679	-0.170166
N	 4.4191251702	 4.6021187748	-0.9240091902	-0.225193
C	 3.5932188268	 3.6461449524	-0.4938917508	-0.113938
H	-0.6692822057	 1.4488622703	-0.973973715	 0.101455
H	 1.4558661657	 2.2979755269	 0.8692167422	 0.139172
H	 2.1735852002	 1.1594211556	-0.2894155787	 0.139181
H	 1.8664988971	 5.0281041298	-2.9260801163	 0.139657
H	 4.1899262668	 5.9631385944	-2.4070063404	 0.279404
H	 3.8916856967	 3.0062872065	 0.3216124718	 0.114897
44.5709	71.9013	102.8683	115.7448	301.641	332.6404	388.9219	507.7601	561.8432	648.8277	696.1256	731.2823	748.4611	757.0824	849.218	941.8513	1009.6145	1048.4811	1065.7113	1113.4081	1118.9865	1168.6031	1236.8505	1267.3086	1335.0946	1358.5415	1390.3913	1402.9259	1425.109	1480.2996	1510.0749	1630.6711	1847.8213	2905.1779	2988.1213	3025.2869	3259.191	3279.0613	3678.1971
O=CCOC1=CNN=C1	O=CCOc1c[nH]nc1	
InChI=1S/C5H6N2O2/c8-1-2-9-5-3-6-7-4-5/h1,3-4H,2H2,(H,6,7)	InChI=1S/C5H6N2O2/c8-1-2-9-5-3-6-7-4-5/h1,3-4H,2H2,(H,6,7)
