23
gdb 103372	2.50113	1.53004	1.24934	1.7106	84.01	-0.2417	0.0799	0.3217	1143.2919	0.206669	-388.277897	-388.269143	-388.268198	-388.310972	34.995	
C	 0.0845916167	 1.5779728334	-0.1609500709	-0.385835
C	 0.0143354088	 0.0878437256	 0.2051463489	-0.268701
C	-1.3850834572	-0.5241164606	 0.0756839302	 0.355437
C	-2.3501275383	 0.0635907681	 1.1106842307	-0.462741
C	-2.0531920845	-0.6866671617	-1.3289819526	 0.042707
C	-0.995939571	-1.3902874265	-2.2054816668	-0.230266
C	-0.6095296548	-2.5108953023	-1.1846769518	-0.228093
C	-1.5586557796	-2.0745619701	-0.0514740212	 0.029883
O	-2.7914175389	-1.8334664309	-0.8010381529	-0.305862
H	 1.1134254944	 1.944410724	-0.0927766971	 0.114136
H	-0.2601601455	 1.7518932811	-1.1864579397	 0.117196
H	-0.5276726955	 2.1944386465	 0.5031441904	 0.121963
H	 0.7322026402	-0.4534748438	-0.4166579624	 0.097357
H	 0.3551397478	-0.0462675233	 1.2404341635	 0.094134
H	-2.4843170114	 1.1401886283	 0.9658194752	 0.111982
H	-3.3295861577	-0.4112070579	 1.0420426382	 0.137381
H	-1.961726201	-0.084301644	 2.1250963767	 0.106586
H	-2.6876799044	 0.0799635311	-1.7765082774	 0.071121
H	-1.4499830942	-1.7899457095	-3.1142633569	 0.106471
H	-0.1619226056	-0.7443228291	-2.4912301874	 0.099548
H	-0.8739043917	-3.5085653677	-1.540664415	 0.106403
H	 0.4465158493	-2.5148113598	-0.9043260902	 0.098899
H	-1.6857059862	-2.725358521	 0.8153730485	 0.070293
65.5178	169.5131	210.8344	225.1846	275.6206	308.3989	326.3133	379.8503	434.5392	475.4439	577.9623	630.4385	741.1549	783.5548	828.3111	833.7953	863.7588	886.6897	914.3691	922.6591	954.7839	956.0036	1002.8172	1010.9259	1015.9506	1037.1972	1068.0759	1100.5604	1168.7172	1192.1639	1193.2739	1228.0897	1242.2844	1249.4805	1260.3206	1298.6823	1305.7171	1322.2603	1354.4943	1375.0959	1403.6202	1411.5273	1475.3302	1490.5324	1495.6378	1498.4158	1502.1184	1511.5051	1517.9707	3022.9933	3034.3847	3036.4608	3066.8358	3073.1489	3084.3632	3092.5195	3099.5734	3105.4088	3109.7883	3111.2393	3115.5393	3125.8142	3141.5289
CCC1(C)C2CCC1O2	CC[C@@]1(C)[C@H]2CC[C@@H]1O2	
InChI=1S/C8H14O/c1-3-8(2)6-4-5-7(8)9-6/h6-7H,3-5H2,1-2H3	InChI=1S/C8H14O/c1-3-8(2)6-4-5-7(8)9-6/h6-7H,3-5H2,1-2H3/t6-,7+,8+
