17
gdb 57134	2.75433	0.90171	0.73748	4.3186	86.01	-0.2591	-0.0474	0.2116	1515.5183	0.135716	-380.83213	-380.822885	-380.821941	-380.866991	32.842	
C	-0.1331632707	 1.5437486612	 0.1437650201	-0.386239
C	 0.0269305793	 0.0088977674	 0.0344105014	-0.203251
C	 0.7591339669	-0.5124612203	 1.181681043	 0.105942
C	 1.359370396	-0.9256153031	 2.1469150277	 0.015042
C	 2.0472557354	-1.3889306056	 3.2319107845	 0.207929
N	 2.6310456743	-1.7836558032	 4.1554394813	-0.332854
C	-1.3339875262	-0.6694711333	-0.1517892595	 0.030655
C	-1.5899930972	-2.0769923534	 0.2290088309	-0.254264
N	-2.2143241394	-0.9702656064	 0.9811208737	-0.313714
H	 0.8389605531	 2.0345534997	 0.2297529678	 0.135424
H	-0.6372886478	 1.9228533915	-0.7495132447	 0.130836
H	-0.7351682982	 1.8075628389	 1.0170552103	 0.14241
H	 0.6255645368	-0.2079062892	-0.862425398	 0.13178
H	-1.8634428914	-0.2660931159	-1.0133272169	 0.102655
H	-2.2773747899	-2.6793361035	-0.3574220864	 0.125101
H	-0.7850172881	-2.6317826695	 0.7027070798	 0.126234
H	-1.7125069027	-0.8363004153	 1.8574562949	 0.236314
68.4616	73.1264	111.2215	197.4256	216.5191	236.2828	250.3793	364.1271	412.8894	522.2761	545.4553	574.9583	597.7626	693.6338	776.9434	853.325	905.8393	952.984	989.2179	998.9493	1073.9424	1093.8391	1116.4168	1154.4951	1179.7924	1196.1322	1259.9611	1292.7612	1313.4162	1336.6852	1400.4895	1417.1913	1492.1239	1497.9195	1510.5868	2260.893	2397.3134	3004.6569	3049.4359	3115.7176	3121.3964	3127.4538	3133.8531	3202.7975	3481.494
CC(C#CC#N)C1CN1	C[C@@H](C#CC#N)[C@H]1CN1	
InChI=1S/C7H8N2/c1-6(3-2-4-8)7-5-9-7/h6-7,9H,5H2,1H3	InChI=1S/C7H8N2/c1-6(3-2-4-8)7-5-9-7/h6-7,9H,5H2,1H3/t6-,7+/m0/s1
