17
gdb 49067	2.77973	1.55474	1.29311	2.0995	68.07	-0.2552	-0.0358	0.2194	1010.4481	0.135844	-458.959428	-458.951695	-458.95075	-458.992081	28.913	
O	-0.9510512667	 1.465823212	 0.5576101641	-0.258476
C	 0.0755281287	 0.98900803	 0.1452396112	 0.100884
C	 1.3588406209	 1.7614599885	-0.0097680245	 0.299859
C	 1.5119663924	 3.086671595	 0.7838036842	-0.289201
C	 1.7728541889	 3.8677836049	-0.5365066452	-0.253835
C	 1.558664795	 2.5665449122	-1.3591668545	 0.040131
O	 2.6931125698	 1.9746447492	-1.9503594875	-0.243535
C	 3.4050733554	 1.347235817	-0.908795199	-0.001825
O	 2.4456470702	 0.8583891925	 0.0100181443	-0.298842
H	 0.1514935456	-0.0682236925	-0.1889527141	 0.093935
H	 0.5835814795	 3.3553168454	 1.2904489635	 0.136189
H	 2.3302554778	 3.0708447345	 1.5060652264	 0.113678
H	 1.0518564949	 4.656835063	-0.7584431048	 0.116687
H	 2.7799524958	 4.2759412829	-0.6474994267	 0.114876
H	 0.751845613	 2.5744034959	-2.0929655161	 0.104185
H	 3.9726021262	 0.5075005045	-1.3172754958	 0.130257
H	 4.0840425427	 2.0592306649	-0.4098891355	 0.095035
82.3395	100.6251	218.5171	235.2476	247.7839	394.7902	423.3612	491.8394	631.0954	701.3558	724.689	746.838	823.17	861.3319	897.1373	954.8188	960.0179	979.9781	1035.1763	1087.2476	1096.1919	1141.2734	1161.622	1184.8026	1195.0026	1227.2649	1237.5689	1241.4736	1266.0043	1294.9529	1349.4733	1395.8531	1426.8389	1464.8706	1481.0431	1542.3434	1824.8517	2906.9778	2961.1774	3072.6603	3080.1708	3102.0204	3108.0829	3124.6578	3144.2999
O=CC12CCC1OCO2	O=C[C@]12CC[C@H]1OCO2	
InChI=1S/C6H8O3/c7-3-6-2-1-5(6)8-4-9-6/h3,5H,1-2,4H2	InChI=1S/C6H8O3/c7-3-6-2-1-5(6)8-4-9-6/h3,5H,1-2,4H2/t5-,6-/m1/s1
