20
gdb 36597	5.34528	0.7549	0.74173	1.1965	85.72	-0.2291	0.0524	0.2815	1568.3383	0.170791	-365.899652	-365.890989	-365.890045	-365.933715	33.029	
C	 0.0186547165	-1.2394280682	-0.0040017853	-0.432197
C	-0.01353023	-0.0378672793	-0.0091614467	 0.294607
C	-0.0166101966	 1.4192770795	-0.0147810356	-0.361328
C	 1.404076721	 2.0244864892	 0.0099569426	-0.348718
C	 1.3925400971	 3.5355432706	 0.0038262525	 0.34003
C	 0.7761367293	 4.5286802597	 1.0250433619	-0.203948
N	 1.4003795687	 5.4862283198	-0.0035951987	-0.144122
C	 2.5915818316	 4.513149786	 0.0244802762	-0.224768
C	 0.8184499844	 4.5205994557	-1.0493509726	-0.203935
H	 0.0332573135	-2.3009497914	 0.0001718465	 0.194205
H	-0.550450436	 1.7804423452	-0.9032673468	 0.133773
H	-0.5837980683	 1.7871290078	 0.8499874911	 0.133784
H	 1.932822477	 1.6641205353	 0.9002445631	 0.113578
H	 1.966333374	 1.6572764579	-0.856691019	 0.11358
H	-0.3133736833	 4.6073355291	 1.0842641581	 0.099014
H	 1.2327514618	 4.5966207147	 2.0169887154	 0.099577
H	 3.1871703892	 4.5789010055	 0.9398470706	 0.099139
H	 3.2239964006	 4.5719190086	-0.8663320662	 0.099142
H	 1.3151522874	 4.5808640563	-2.0223461842	 0.099577
H	-0.2677246781	 4.598628628	-1.153570603	 0.09901
61.269	78.711	101.2678	194.8939	298.6132	357.0886	358.5151	474.1758	586.1524	587.1582	619.6575	638.3952	682.4922	746.3144	796.0581	797.3301	897.0392	930.3767	938.9263	944.8801	974.8963	1005.4855	1025.7417	1035.754	1047.8144	1134.8467	1148.5493	1168.136	1168.6906	1200.7217	1202.4352	1239.5875	1263.6784	1295.8864	1319.9259	1332.9522	1382.8561	1471.6929	1487.511	1511.3781	1511.3985	1565.1555	2239.6743	3018.4398	3035.0349	3039.5673	3040.9405	3046.924	3051.3983	3078.0187	3104.4493	3110.8472	3111.5207	3507.4176
C#CCCC12CN(C1)C2	C#CCC[C@@]12CN(C1)C2	
InChI=1S/C8H11N/c1-2-3-4-8-5-9(6-8)7-8/h1H,3-7H2	InChI=1S/C8H11N/c1-2-3-4-8-5-9(6-8)7-8/h1H,3-7H2
