18
gdb 33198	6.54108	0.73833	0.67175	0.5807	74.75	-0.2198	0.026	0.2458	1668.5487	0.147949	-439.119527	-439.110764	-439.10982	-439.154183	31.119	
C	-0.0669859806	 1.4635439193	 0.0984483911	-0.38525
C	 0.0247643852	-0.0594747558	-0.0322329442	-0.190607
C	 0.7456560547	-0.4709496298	-1.3040565216	-0.043905
O	 0.7829481853	-1.9116496967	-1.3395278839	-0.25814
C	 1.38271787	-2.4326887001	-2.3951068247	 0.500203
N	 1.9427689466	-1.8428216099	-3.4040402245	-0.38383
C	 2.3944413479	-2.9098243465	-4.1841466909	-0.11174
C	 2.0733244343	-4.0759088753	-3.5887164892	-0.046642
O	 1.4093476428	-3.7781865234	-2.4136175291	-0.189438
H	 0.9270432961	 1.9227623022	 0.1254717425	 0.121943
H	-0.6135222536	 1.9043944724	-0.742182291	 0.121943
H	-0.588078955	 1.7441106957	 1.0177283901	 0.122256
H	 0.5544027856	-0.4839433527	 0.8280814689	 0.113207
H	-0.9776262114	-0.5022378012	-0.0343767578	 0.113205
H	 0.2322699433	-0.1082234008	-2.2016306358	 0.124821
H	 1.7725601073	-0.0897210385	-1.3345150873	 0.12478
H	 2.9154138272	-2.7464654968	-5.1140494028	 0.12318
H	 2.2090770541	-5.1196891623	-3.8081580598	 0.144011
50.2442	72.5469	112.2982	149.4923	232.0709	293.3918	319.1729	336.8674	534.7436	619.6783	706.5777	760.9646	765.1867	770.9538	857.9941	893.9673	913.3905	927.2558	976.2871	1043.158	1064.1708	1093.3988	1136.5355	1149.2812	1187.8527	1190.2645	1270.0274	1284.1926	1314.1834	1334.5043	1400.1205	1417.7563	1448.3604	1492.8592	1501.3861	1505.6511	1521.4852	1583.5632	1644.4698	3034.818	3036.3436	3045.0346	3066.9582	3087.5913	3107.0187	3114.1233	3263.8141	3310.0376
CCCOC1=NC=CO1	CCCOc1ncco1	
InChI=1S/C6H9NO2/c1-2-4-8-6-7-3-5-9-6/h3,5H,2,4H2,1H3	InChI=1S/C6H9NO2/c1-2-4-8-6-7-3-5-9-6/h3,5H,2,4H2,1H3
