19
gdb 55959	3.80142	0.92911	0.90291	3.3352	77.55	-0.2402	0.0214	0.2616	1363.3656	0.161048	-419.261648	-419.252864	-419.251919	-419.296587	32.978	
N	-0.1008966155	 1.3736562551	 0.1702888658	-0.566911
C	 0.052706261	-0.0014400378	 0.0032678872	 0.448991
O	 1.144023533	-0.5294350486	-0.1059809578	-0.393309
N	-1.1389848322	-0.6939816043	-0.0113375588	-0.342529
C	-1.1441702297	-2.1506552905	 0.0467067556	 0.043124
C	-1.214783074	-2.6828221731	 1.5087103775	-0.259451
C	-2.6876608584	-2.9518279035	 1.7067199537	-0.064788
C	-3.3492969488	-2.9628123974	 0.549295756	-0.066744
C	-2.4318565978	-2.701089232	-0.6230817348	-0.276055
H	 0.74379721	 1.8764630896	-0.0582262899	 0.258189
H	-0.9349874071	 1.7931389975	-0.214003673	 0.244856
H	-1.9434769912	-0.2349388667	 0.3906585268	 0.236457
H	-0.2314076692	-2.4687622652	-0.4546994695	 0.113913
H	-0.6319852086	-3.6074733134	 1.6208969269	 0.112839
H	-0.7924043939	-1.9626062043	 2.2171131556	 0.110899
H	-3.1240411572	-3.1474767967	 2.6800317598	 0.092485
H	-4.4065725424	-3.1726284639	 0.4312454814	 0.091704
H	-2.8338000669	-1.9916695755	-1.3544091711	 0.103349
H	-2.2258040211	-3.6307917594	-1.1707108312	 0.11298
22.4881	77.9484	100.9069	211.2717	323.9667	364.2675	395.544	433.202	474.0498	520.2336	579.0559	639.655	694.2797	755.11	778.496	788.6064	883.2711	900.9076	919.7978	948.4504	975.386	978.1041	1040.3415	1058.2972	1091.5978	1124.0588	1131.4362	1168.5324	1230.0323	1241.4776	1298.4136	1307.2431	1321.348	1377.2886	1390.4788	1475.6037	1484.9568	1529.5585	1626.353	1679.9386	1800.623	3016.866	3017.2528	3066.3768	3071.5565	3135.7847	3182.6732	3208.0021	3567.8088	3602.0653	3680.8924
NC(=O)NC1CC=CC1	NC(=O)N[C@H]1CC=CC1	
InChI=1S/C6H10N2O/c7-6(9)8-5-3-1-2-4-5/h1-2,5H,3-4H2,(H3,7,8,9)	InChI=1S/C6H10N2O/c7-6(9)8-5-3-1-2-4-5/h1-2,5H,3-4H2,(H3,7,8,9)
