21
gdb 86973	2.66554	1.15891	0.90741	2.7525	85.07	-0.2438	-0.0195	0.2243	1334.9369	0.182861	-387.122653	-387.113653	-387.112709	-387.156811	33.834	
C	-0.2083168303	 1.5599566685	 0.1059119728	-0.388249
C	 0.0156749319	 0.0388866318	 0.0025092669	-0.034784
C	 0.7513470477	-0.3670811349	-1.2904627751	-0.230919
C	 2.2802603954	-0.1859170627	-1.1701804237	-0.06979
C	 2.8267206157	-1.0585259279	-0.022859087	-0.266785
C	 1.965307293	-0.9845195357	 1.2100432711	-0.071588
C	 0.7279551694	-0.4922184363	 1.2219027896	-0.042654
C	 2.940864739	-0.5617135809	-2.4773816399	 0.1506
O	 3.5538864458	 0.1874958505	-3.1926617551	-0.249868
H	 0.7415221218	 2.1037280306	 0.1016228896	 0.12361
H	-0.8143339718	 1.9230825411	-0.7307432369	 0.114478
H	-0.7284233281	 1.8158043919	 1.0346926755	 0.115457
H	-0.9796678934	-0.4265094864	-0.0293809785	 0.080511
H	 0.540293535	-1.4217900189	-1.5095628714	 0.10001
H	 0.3691989663	 0.215781934	-2.1358720677	 0.105534
H	 2.5159536154	 0.8658114107	-0.9801566967	 0.096681
H	 2.9066790899	-2.1061007097	-0.3547634369	 0.109548
H	 3.8513914783	-0.7507420362	 0.2189054757	 0.117758
H	 2.4060150752	-1.361317879	 2.1300468681	 0.088903
H	 0.1757849181	-0.4501525694	 2.1584777814	 0.085782
H	 2.8077197856	-1.6367172612	-2.7543678521	 0.065765
58.1272	97.3907	124.3469	236.4729	254.8481	292.1708	339.2404	354.4653	407.6489	478.717	547.6358	561.7463	734.0862	757.7907	799.3659	878.0725	899.9006	904.7562	963.2669	996.3092	1007.4627	1017.5993	1036.6283	1092.456	1106.9386	1121.7289	1141.0633	1198.0463	1215.4549	1252.1529	1287.0436	1319.6799	1336.9523	1352.9622	1369.1894	1386.2718	1402.0609	1422.1969	1429.6786	1473.9698	1488.6283	1498.4341	1501.8174	1726.2055	1834.9737	2829.0498	2984.3005	2997.0773	3023.9289	3032.9292	3043.4069	3062.1729	3075.3234	3101.7569	3108.2813	3139.0609	3163.261
CC1CC(CC=C1)C=O	C[C@H]1C[C@@H](CC=C1)C=O	
InChI=1S/C8H12O/c1-7-3-2-4-8(5-7)6-9/h2-3,6-8H,4-5H2,1H3	InChI=1S/C8H12O/c1-7-3-2-4-8(5-7)6-9/h2-3,6-8H,4-5H2,1H3/t7-,8-/m1/s1
