14
gdb 50958	1.66004	1.42807	0.79974	5.6218	69.92	-0.2933	-0.0146	0.2787	1335.4159	0.097639	-436.676197	-436.666844	-436.6659	-436.711963	31.704	
O	-0.0434791183	-0.0330255331	 0.1260067634	-0.254392
C	 0.0033541729	 1.1537915695	 0.185194498	 0.183658
O	 1.0963743177	 1.854574575	-0.2136132737	-0.178936
C	 1.0436077722	 3.2845951258	-0.1468858938	-0.110242
C	 2.2607266801	 3.7648482918	 0.6768297471	-0.341077
C	 2.174868991	 3.3288737599	 2.0677577824	 0.261031
N	 2.0775836965	 2.988550695	 3.167154407	-0.291148
C	 1.0620196102	 3.8523381498	-1.4905458885	 0.329453
C	 1.0919956796	 4.3390743971	-2.5873977519	-0.401028
H	-0.8081296747	 1.8045236485	 0.5625996909	 0.093558
H	 0.123638369	 3.5908352551	 0.3695907503	 0.136231
H	 3.1724310142	 3.3703275145	 0.2190043328	 0.182419
H	 2.3131091271	 4.8570102269	 0.6382238511	 0.171767
H	 1.1071358725	 4.7603021642	-3.5631654752	 0.218704
30.7401	74.866	114.0251	146.4993	187.4846	207.9439	311.6896	370.2514	392.741	490.0022	500.165	572.5117	654.3811	662.7401	694.8517	895.0898	948.0145	1004.1029	1036.4144	1047.0208	1062.7532	1154.0662	1237.3123	1286.9285	1356.0457	1368.9504	1436.9983	1453.7565	1882.0607	2247.5864	2369.2252	2961.3776	3017.5777	3068.3981	3115.6376	3498.2044
O=COC(CC#N)C#C	O=CO[C@@H](CC#N)C#C	
InChI=1S/C6H5NO2/c1-2-6(3-4-7)9-5-8/h1,5-6H,3H2	InChI=1S/C6H5NO2/c1-2-6(3-4-7)9-5-8/h1,5-6H,3H2/t6-/m1/s1
