20
gdb 52314	3.95134	0.88948	0.76107	4.5551	77.66	-0.2523	0.0337	0.286	1503.1939	0.171798	-440.28702	-440.277852	-440.276908	-440.32281	32.411	
N	-0.3799134974	 1.0255003655	 0.3213442809	-0.445959
C	-0.497386569	-0.2246876259	 0.4475602577	 0.133476
O	-0.6443195096	-0.9939625105	-0.653661089	-0.186656
C	-0.852577466	-2.3860795137	-0.4472828821	-0.119201
C	-2.3053517581	-2.7285044327	-0.1633848925	 0.139758
C	-2.6049672971	-4.2448395405	-0.1342319965	-0.247808
C	-3.6303159128	-4.395294759	 1.0208608778	-0.220808
C	-3.8277568509	-2.9463277124	 1.5128310783	-0.077025
O	-2.6476805947	-2.2534963257	 1.1331606285	-0.259941
H	-0.2587235728	 1.4512425287	 1.2380231853	 0.225571
H	-0.4889875561	-0.7959293365	 1.3825531823	 0.098484
H	-0.534230439	-2.8724225734	-1.3734207237	 0.12208
H	-0.2260341277	-2.7586787845	 0.3745743769	 0.110099
H	-2.9370579943	-2.229650558	-0.9163313823	 0.082545
H	-2.9920962578	-4.593915367	-1.0940808916	 0.111516
H	-1.6933404952	-4.8125001527	 0.0778720098	 0.106596
H	-4.5704364253	-4.8446635956	 0.6926336317	 0.108366
H	-3.2256873017	-5.0231313872	 1.8182100977	 0.112577
H	-4.7088171676	-2.4885815646	 1.0356864113	 0.095433
H	-3.9373954771	-2.8548936541	 2.5959998695	 0.110899
33.1248	67.4344	76.0589	136.8925	186.1869	222.3117	338.0344	370.998	459.3899	628.7722	652.7334	666.6314	810.9576	819.2212	855.9575	893.4723	921.6514	956.3239	981.6598	1007.0921	1039.1038	1053.5401	1105.5523	1121.3404	1135.9899	1154.653	1211.2843	1236.221	1257.9404	1268.6023	1287.8024	1316.6275	1330.9426	1351.2808	1369.8962	1405.1273	1416.9244	1428.583	1485.1857	1489.0375	1505.242	1521.3253	1744.111	2972.524	2980.4959	3018.8539	3051.7344	3061.7656	3069.7476	3094.6288	3099.9401	3102.8888	3120.2105	3516.6274
N=COCC1CCCO1	[NH][CH]OC[C@H]1CCCO1	
InChI=1S/C6H11NO2/c7-5-8-4-6-2-1-3-9-6/h5-7H,1-4H2	InChI=1S/C6H11NO2/c7-5-8-4-6-2-1-3-9-6/h5-7H,1-4H2/t6-/m1/s1
