15
gdb 19626	4.83129	2.02079	1.85313	0.8628	63.84	-0.2279	0.0675	0.2954	742.947	0.119925	-362.548201	-362.542352	-362.541408	-362.5779	23.921	
C	-0.1028955583	 1.481877939	-0.0436880493	-0.315532
N	 1.1789241867	 0.7254169575	 0.0481004116	-0.381792
C	-0.0910731842	 0.0140286823	 0.0230239529	 0.434883
C	-0.4733866946	-1.0098378479	 1.0674231699	-0.218349
C	-1.6467721518	-1.7649204832	 0.4155520139	 0.092079
O	-1.9498835271	-1.1349551915	-0.8337231471	-0.288489
C	-0.5095704025	-1.0275417362	-1.0246331225	-0.05971
C	-0.2557326733	-2.1472321232	 0.0601911219	-0.134981
H	-0.3403287788	 2.0719671175	 0.8371347949	 0.121837
H	-0.3652288375	 1.9517319468	-0.9884621665	 0.114836
H	 1.6242816643	 0.693272648	-0.8670490843	 0.228599
H	-0.278203338	-1.0028891236	 2.1311364272	 0.101556
H	-2.4355830178	-2.2730309161	 0.9540088688	 0.113728
H	-0.1991966411	-0.989903692	-2.0680977229	 0.084757
H	 0.318047304	-3.0618882975	 0.0939194214	 0.106577
171.1303	264.9294	306.5008	483.3544	574.5482	613.9724	765.2614	769.2694	785.6121	809.7548	864.5469	885.5367	916.986	927.5711	934.7317	969.9411	978.8876	1021.0276	1028.1507	1055.0268	1074.3659	1081.4384	1129.1148	1153.6823	1175.0102	1210.3514	1255.0156	1262.6313	1290.9015	1362.6862	1444.6562	1519.9525	3106.2902	3131.8122	3191.3002	3207.5146	3212.3464	3226.8435	3478.1477
C1NC11C2C3OC1C23	C1N[C@]21[C@H]1[C@H]3O[C@@H]2[C@@H]13	
InChI=1S/C6H7NO/c1-6(7-1)3-2-4(3)8-5(2)6/h2-5,7H,1H2	InChI=1S/C6H7NO/c1-6(7-1)3-2-4(3)8-5(2)6/h2-5,7H,1H2/t2-,3+,4-,5+,6+/m0/s1
