15
gdb 75642	1.97742	1.88528	1.18489	3.0329	63.44	-0.2288	-0.0181	0.2107	1030.0466	0.109135	-494.863766	-494.854642	-494.853698	-494.897398	33.133	
O	-0.094040971	 1.4936690207	-0.0873547413	-0.433721
C	-0.0081740663	 0.0905862314	-0.0127509286	-0.059324
C	 0.2781941111	-0.5787617111	 1.3691189421	 0.331565
O	 1.2691827027	-0.6156281277	 2.0477787337	-0.338248
C	-1.031150153	-1.2877988932	 1.3750049498	 0.175417
O	-1.2976346273	-2.553547834	 1.8348044426	-0.444443
C	-2.1641626397	-0.2692469079	 1.1204491452	-0.419133
C	-1.3362393978	-0.6457979198	-0.0482591396	 0.373761
O	-1.769971686	-1.2125281089	-1.2155911263	-0.445381
H	 0.7522218805	 1.8510314815	 0.2042448774	 0.297496
H	 0.6808816938	-0.3291836787	-0.7619869663	 0.106382
H	-1.5767847662	-2.5021605889	 2.7563368915	 0.300103
H	-3.1316117842	-0.7660730022	 1.1652896164	 0.118312
H	-2.1481416238	 0.7349375786	 1.5327873073	 0.140735
H	-2.6876782728	-1.4868757297	-1.117795544	 0.29648
84.0892	161.7048	181.4653	196.7946	220.0919	228.2179	289.174	295.8378	405.4803	427.7585	485.5146	567.8299	636.9511	661.8872	716.4101	764.9985	830.052	906.1061	983.9695	1004.6082	1077.3257	1098.1902	1138.694	1145.1342	1162.2173	1257.8264	1291.2346	1360.8761	1367.417	1416.4285	1441.1401	1511.9278	1869.5898	2997.5126	3107.4949	3195.695	3787.6147	3806.2757	3822.9767
OC1C(=O)C2(O)CC12O	O[C@H]1C(=O)[C@@]2(O)C[C@@]12O	
InChI=1S/C5H6O4/c6-2-3(7)5(9)1-4(2,5)8/h2,6,8-9H,1H2	InChI=1S/C5H6O4/c6-2-3(7)5(9)1-4(2,5)8/h2,6,8-9H,1H2/t2-,4+,5-/m0/s1
