23
gdb 88859	3.32054	1.09003	0.96896	1.6327	85.99	-0.2411	0.0852	0.3263	1344.9003	0.206992	-388.289713	-388.280556	-388.279612	-388.324324	34.632	
C	-0.0571144731	 1.5342630025	-0.1969506961	-0.417409
C	 0.0217364771	 0.0354575814	 0.0032684725	-0.003208
C	 1.3268921264	-0.7165670291	-0.1359178622	-0.295452
C	 0.657724997	-0.6101931793	 1.2128132216	-0.020618
C	 1.3008657185	 0.151406501	 2.3582647526	 0.120154
C	 2.1336420418	-0.7471301287	 3.2914150207	-0.232488
C	 3.2025357521	 0.2186135547	 3.8167443618	-0.231955
C	 3.4515945467	 1.0902780808	 2.5827764459	-0.061255
O	 2.204519243	 1.1661145828	 1.8931551228	-0.26895
H	 0.8288857311	 2.0354818713	 0.1960491125	 0.146569
H	-0.1481150738	 1.7761463566	-1.2621065041	 0.106517
H	-0.934257777	 1.9533307557	 0.3103068953	 0.105861
H	-0.8505589729	-0.4980076269	-0.3690749188	 0.075189
H	 1.3367663596	-1.6726696982	-0.6480609795	 0.099211
H	 2.2189712389	-0.1154677018	-0.27298641	 0.120198
H	 0.1538062576	-1.5057795082	 1.5710691592	 0.07681
H	 0.5125455384	 0.6521788324	 2.9435999622	 0.068868
H	 1.5279471778	-1.2020314975	 4.0789048018	 0.101239
H	 2.5963589554	-1.5528238661	 2.7101771665	 0.106804
H	 2.8039321936	 0.8243174083	 4.6377073541	 0.106768
H	 4.1071600321	-0.2809326719	 4.1721590252	 0.102269
H	 3.7766088772	 2.1075136451	 2.8258140548	 0.103012
H	 4.2126243025	 0.637726925	 1.928959711	 0.091863
49.597	64.4717	149.7024	196.5649	219.3626	255.3655	274.177	369.2511	472.0251	572.1074	586.4792	662.9317	762.2099	805.3274	854.9313	880.3315	888.9399	902.964	921.5213	937.848	960.1883	976.645	1028.9658	1062.3467	1075.2711	1088.0605	1114.889	1143.3128	1151.336	1153.0109	1196.6751	1203.2278	1208.8177	1245.2594	1259.8607	1306.2903	1337.2666	1350.753	1371.2634	1390.8407	1394.2118	1417.6162	1423.9283	1485.7099	1487.829	1497.6303	1503.4179	1506.3837	1531.7407	2960.8538	2986.1455	3027.0235	3044.0259	3047.5578	3065.7009	3078.0347	3102.1277	3110.8331	3113.5044	3124.6332	3133.8373	3143.921	3221.8166
CC1CC1C1CCCO1	C[C@H]1C[C@H]1[C@H]1CCCO1	
InChI=1S/C8H14O/c1-6-5-7(6)8-3-2-4-9-8/h6-8H,2-5H2,1H3	InChI=1S/C8H14O/c1-6-5-7(6)8-3-2-4-9-8/h6-8H,2-5H2,1H3/t6-,7+,8+/m0/s1
