21
gdb 81475	3.29334	1.52019	1.4528	1.5694	80.45	-0.2427	0.0755	0.3182	1001.9965	0.186662	-387.026678	-387.019777	-387.018833	-387.057426	30.142	
O	 0.1342330396	 1.4232994871	-0.093771972	-0.472759
C	 0.0540603143	 0.0163457083	-0.0233355718	 0.205627
C	 0.1768488974	-0.6258504548	 1.4023816358	-0.065533
C	-1.3314974242	-0.2469107659	 1.541499558	-0.253522
C	-1.3849703949	-0.60591431	 0.0228417392	-0.065546
C	-1.2626055254	-2.1835553407	-0.1370910179	-0.026621
C	-1.1299707316	-2.8319323427	 1.2759899009	-0.213597
C	 0.2978287462	-2.2034719606	 1.241219451	-0.026621
C	 0.2433692032	-2.5786628033	-0.2751584682	-0.217403
H	-0.444137346	 1.815816247	 0.5663558538	 0.277638
H	 0.7375622245	-0.3065193094	-0.8018035192	 0.073666
H	 0.9078969928	-0.2146793457	 2.1020357522	 0.060313
H	-1.968775268	-0.7625199483	 2.255523203	 0.098248
H	-1.4746908935	 0.8230443425	 1.7190948646	 0.072535
H	-2.1634995972	-0.1754795506	-0.610900708	 0.06031
H	-1.9894715717	-2.5827457475	-0.8469765287	 0.060299
H	-1.8299819557	-2.5866395725	 2.0720426266	 0.091065
H	-1.0724140842	-3.9197868446	 1.1951064634	 0.091948
H	 1.0861674548	-2.6220045249	 1.8696915644	 0.060299
H	 0.3457869572	-3.6585838722	-0.4067138949	 0.090005
H	 0.8907596527	-2.091829261	-1.0010610422	 0.099648
199.9945	229.8638	300.5146	327.6839	467.8684	476.0731	504.2892	559.604	608.8076	761.7287	766.6772	825.2212	846.2279	848.7148	865.9289	877.24	891.8915	901.554	924.9817	996.7387	1011.2342	1021.0446	1034.9665	1056.3947	1082.6097	1094.4203	1097.0157	1104.4641	1125.5291	1140.0086	1202.4298	1230.3551	1237.8896	1242.2183	1242.3187	1256.068	1266.4141	1294.2359	1304.1315	1317.3682	1345.7465	1462.1203	1505.3476	1551.0716	1572.4912	3056.3992	3071.7227	3073.4781	3077.0067	3082.8733	3091.7134	3099.0603	3123.2841	3128.2887	3153.2195	3169.6965	3828.7949
OC1C2CC1C1CC2C1	O[C@H]1[C@H]2C[C@@H]1[C@@H]1C[C@H]2C1	
InChI=1S/C8H12O/c9-8-6-3-7(8)5-1-4(6)2-5/h4-9H,1-3H2	InChI=1S/C8H12O/c9-8-6-3-7(8)5-1-4(6)2-5/h4-9H,1-3H2/t4-,5+,6-,7+,8-
