23
gdb 120483	3.56761	0.78424	0.71739	1.1311	82.25	-0.2466	0.057	0.3036	1679.5635	0.204638	-425.418473	-425.408094	-425.40715	-425.454294	38.288	
C	 0.0837354282	 1.55009349	-0.0731980072	-0.379191
C	 0.1218906299	 0.0205107819	-0.0191504244	-0.165903
C	 0.7168226825	-0.5188659444	 1.2873105017	-0.182625
C	 0.7689194486	-2.0408855606	 1.3340810117	 0.016731
C	 1.7422761462	-2.8043363326	 0.3859726376	-0.284821
C	 2.0529149342	-3.7813077219	 1.5543140493	 0.143415
O	 3.3777160197	-4.173918883	 1.7912382962	-0.442135
C	 1.449702908	-2.7335075492	 2.5445100124	 0.030792
O	 2.4800278864	-1.9058927784	 3.0752193217	-0.436108
H	 1.0902213781	 1.9736427368	 0.0170763014	 0.114008
H	-0.3447684398	 1.9073178834	-1.0149948525	 0.109252
H	-0.5197354538	 1.9604650565	 0.744284914	 0.112583
H	-0.8942314359	-0.3765061428	-0.1471673906	 0.090411
H	 0.7035260812	-0.360667312	-0.8686799271	 0.098884
H	 1.7276548916	-0.1193600469	 1.4283730528	 0.105516
H	 0.1251055907	-0.1495688401	 2.136307461	 0.090154
H	-0.2443635303	-2.4475137267	 1.2315613488	 0.07051
H	 1.3434121155	-3.227819305	-0.5382648482	 0.0984
H	 2.6217102784	-2.1980387937	 0.1446806253	 0.099394
H	 1.4527569064	-4.6939502696	 1.5018665544	 0.08645
H	 3.856873398	-3.3571150256	 1.9822982332	 0.274287
H	 0.7966504741	-3.0985663757	 3.3466891686	 0.058862
H	 2.8524073522	-2.3649182504	 3.8350543597	 0.291136
63.6339	83.723	107.6987	123.1516	172.5231	246.6967	256.1249	270.8438	315.554	379.1296	418.5962	517.6618	542.4572	615.5112	697.4004	744.8954	780.3736	851.83	871.7045	902.1	921.6555	956.131	992.729	1041.5789	1068.7122	1077.6639	1096.7221	1143.2939	1149.729	1160.1115	1210.8957	1223.3102	1245.9551	1265.1941	1271.4255	1306.9439	1312.7282	1324.7535	1333.8547	1372.4525	1397.1173	1414.2532	1418.9455	1443.8177	1478.7599	1486.0361	1495.5051	1500.1817	1511.1192	3010.1948	3016.7895	3018.0393	3028.8706	3035.0981	3040.5279	3051.6753	3071.5482	3075.7063	3095.6765	3100.1596	3113.9125	3765.1354	3819.0782
CCCC1CC(O)C1O	CCC[C@H]1C[C@@H](O)[C@H]1O	
InChI=1S/C7H14O2/c1-2-3-5-4-6(8)7(5)9/h5-9H,2-4H2,1H3	InChI=1S/C7H14O2/c1-2-3-5-4-6(8)7(5)9/h5-9H,2-4H2,1H3/t5-,6+,7-/m0/s1
