13
gdb 23741	3.31861	2.38	1.39795	1.0615	62.89	-0.2625	-0.0511	0.2114	815.7	0.096235	-402.80713	-402.800572	-402.799627	-402.838083	23.997	
C	-0.0327037938	 1.519178109	-0.007095097	-0.485158
C	-0.0086690107	 0.0185566298	-0.0195964195	 0.195578
N	-0.0437902868	-0.6348204174	-1.1784210594	-0.280783
C	-0.0202627886	-1.9735416344	-1.1399144337	-0.027069
C	 0.0385857106	-2.6707545805	 0.0567753414	-0.024067
N	 0.0746356695	-2.0313376008	 1.234872824	-0.285896
C	 0.0505973353	-0.7269444422	 1.1708418444	 0.290327
F	 0.0856001459	-0.0629467542	 2.3243678127	-0.062188
H	 0.8599553028	 1.9226214293	 0.4826744001	 0.144382
H	-0.0794345592	 1.8888508049	-1.0318749031	 0.14519
H	-0.8964107734	 1.8939040301	 0.5524271739	 0.144377
H	-0.0494340763	-2.4948449775	-2.0919704427	 0.119906
H	 0.0574349147	-3.756096596	 0.0836723988	 0.125402
105.4415	153.365	278.942	299.9745	477.1872	488.1729	550.8811	579.6677	597.8734	760.3387	795.621	884.9162	901.8459	979.917	990.7329	1060.3119	1104.1655	1190.3749	1248.1573	1299.1163	1326.2248	1407.9207	1451.1875	1470.1256	1479.653	1496.3519	1594.8104	1622.5356	3041.8254	3095.984	3151.7946	3169.1286	3187.7915
CC1=NC=CN=C1F	Cc1nccnc1F	
InChI=1S/C5H5FN2/c1-4-5(6)8-3-2-7-4/h2-3H,1H3	InChI=1S/C5H5FN2/c1-4-5(6)8-3-2-7-4/h2-3H,1H3
