18
gdb 76945	2.83987	1.10021	0.99865	1.6079	75.63	-0.2552	-0.0417	0.2135	1250.7317	0.144013	-439.096281	-439.086363	-439.085419	-439.131265	34.68	
C	 0.0535194044	 1.3585406069	-0.0888483677	-0.413948
C	-0.0048492411	-0.1460987952	 0.0290420582	-0.039143
N	 1.0723851459	-0.9932543788	-0.4000138243	-0.099425
C	 2.2153081156	-0.6390356293	-1.0901861136	 0.14701
O	 2.2390602181	 0.1008892732	-2.0434654495	-0.296202
C	 0.8362140068	-0.9347318564	 1.0410525491	 0.149238
C	 1.8054339956	-0.2663898978	 1.9886753433	-0.471186
C	 0.1787704691	-2.1798724027	 1.5646470935	 0.140913
O	 0.2541071798	-2.552394525	 2.7067208069	-0.251219
H	 1.0334666184	 1.7639979698	 0.1649448432	 0.135892
H	-0.1659083962	 1.653599198	-1.1185215529	 0.156071
H	-0.6952245678	 1.8108314826	 0.5686194121	 0.130087
H	-0.9888927087	-0.5638682912	-0.1879672677	 0.108428
H	 3.1049615987	-1.1786166404	-0.71371056	 0.091721
H	 2.2673539135	 0.6177463672	 1.547203708	 0.130823
H	 1.2858917481	 0.0239003981	 2.9054014024	 0.149621
H	 2.5973794319	-0.9638479536	 2.2758509912	 0.144023
H	-0.3989331221	-2.7368778452	 0.7939822077	 0.087296
81.2455	104.7732	130.0555	147.718	172.6758	224.8201	245.6944	268.6985	294.277	389.6092	399.5688	491.7781	538.943	648.7639	741.4869	824.8574	862.5198	966.2679	997.9661	1024.4977	1033.7055	1076.2872	1098.8297	1146.5373	1162.8813	1176.7275	1308.1418	1374.6409	1401.1383	1416.4166	1418.0614	1426.5517	1449.3847	1474.2285	1482.4442	1490.5846	1506.6936	1794.1237	1828.0571	2894.4413	2956.0519	3052.7597	3057.9997	3095.251	3120.2019	3121.0177	3142.7469	3152.2419
CC1N(C=O)C1(C)C=O	C[C@H]1N(C=O)[C@]1(C)C=O	
InChI=1S/C6H9NO2/c1-5-6(2,3-8)7(5)4-9/h3-5H,1-2H3	InChI=1S/C6H9NO2/c1-5-6(2,3-8)7(5)4-9/h3-5H,1-2H3/t5-,6-,7?/m1/s1
