19
gdb 112540	2.52287	1.19547	1.02386	2.0811	72.61	-0.2507	-0.0347	0.216	1256.2691	0.155869	-460.166579	-460.156615	-460.155671	-460.201689	35.766	
C	-0.4167700705	 1.5254791747	-0.813836338	-0.426348
C	 0.0246221048	 0.0874767347	-0.5744964522	 0.290356
C	-1.0091649187	-0.9379148927	-1.0240383346	-0.42505
O	 1.3391965685	-0.1886008703	-1.1640579655	-0.360013
C	 1.9737397941	-0.4730904144	 0.1094522728	-0.011639
C	 3.139304903	 0.4772955746	 0.3664228897	-0.072289
O	 4.0907111319	 0.3713621265	-0.6711891358	-0.41492
C	 0.6412850283	-0.1912962554	 0.8102770272	 0.292696
O	 0.2467661235	-0.1754906146	 1.9366907717	-0.289269
H	 0.3488663126	 2.2354023532	-0.4906595485	 0.126749
H	-0.6064537306	 1.6851471583	-1.8800948848	 0.131969
H	-1.3380577986	 1.7335761923	-0.2617153828	 0.136996
H	-1.2056357209	-0.822961981	-2.0946328847	 0.132007
H	-0.6557049608	-1.9571691559	-0.8473710613	 0.127985
H	-1.9471814222	-0.7949927594	-0.4794384508	 0.135327
H	 2.3148175804	-1.5152231574	 0.1638224153	 0.113415
H	 2.7641713858	 1.5077389899	 0.4685304533	 0.091706
H	 3.6398802814	 0.2077504832	 1.3016509652	 0.125315
H	 3.604520808	 0.5004958635	-1.4949519161	 0.295005
60.449	100.7534	134.9366	161.7294	178.7365	206.1789	268.0627	291.8696	351.4901	379.0012	439.6795	452.8123	581.6573	630.5994	693.6896	764.2861	857.782	864.8805	938.009	968.4588	994.4026	1036.6611	1041.7715	1082.3853	1084.4635	1178.9714	1193.6164	1216.4654	1250.2908	1274.3053	1325.2038	1388.6234	1393.9488	1410.1115	1424.2964	1470.8941	1478.6235	1492.9779	1498.0219	1501.9861	1914.2491	2980.6642	3028.9975	3038.8489	3042.7083	3087.1592	3112.8121	3117.4283	3121.9682	3125.2382	3785.5539
CC1(C)OC(CO)C1=O	CC1(C)O[C@@H](CO)C1=O	
InChI=1S/C6H10O3/c1-6(2)5(8)4(3-7)9-6/h4,7H,3H2,1-2H3	InChI=1S/C6H10O3/c1-6(2)5(8)4(3-7)9-6/h4,7H,3H2,1-2H3/t4-/m0/s1
