18
gdb 38821	3.03585	1.81237	1.3078	2.0972	76.01	-0.2452	0.0323	0.2775	973.2009	0.150419	-401.931329	-401.924393	-401.923449	-401.962647	27.881	
C	 0.0270213488	 1.4862384206	 0.134958513	-0.354463
C	 1.320626805	 0.7437130968	-0.0705567302	-0.097137
C	 1.7440251397	 0.076675855	 1.2446775676	-0.252302
C	 0.3940097438	-0.7001182508	 1.2535511748	 0.07089
O	 0.6109655288	-2.1031931088	 1.0650918055	-0.243626
C	 0.1559173316	-2.6827429215	-0.0771216157	 0.12988
N	-0.4614195369	-2.1985255928	-1.0672374786	-0.269387
C	-0.7858919179	-0.7743898377	-1.0698926646	-0.275282
C	-0.0226070695	-0.000523753	-0.0386680947	 0.32067
H	-0.2009893007	 1.9457471857	 1.0954707715	 0.105829
H	-0.3259840101	 2.0556529855	-0.7202409631	 0.118058
H	 1.9668184944	 0.9456067232	-0.9164706099	 0.092438
H	 2.5746173464	-0.6235290978	 1.1427853513	 0.120824
H	 1.9340551595	 0.745917984	 2.0898921878	 0.100109
H	-0.2558290551	-0.5895965247	 2.1288201509	 0.082796
H	 0.4048983145	-3.7424842244	-0.0524014998	 0.121584
H	-0.6034567541	-0.3789997437	-2.0767143927	 0.112628
H	-1.8685076379	-0.6782174255	-0.900840463	 0.116489
111.6582	145.4087	305.9599	372.1938	418.9757	468.1119	492.922	513.1496	640.5412	746.2385	789.6458	836.7915	879.9446	903.139	931.4181	956.9397	967.4083	977.7705	1003.433	1019.1202	1033.0987	1052.8428	1093.7816	1102.4473	1165.2866	1176.86	1213.7827	1242.0721	1266.3653	1280.7431	1306.9652	1343.956	1366.6264	1411.9553	1418.3961	1476.7597	1478.1047	1502.0437	1735.3845	3000.1993	3038.5388	3040.9161	3054.0037	3094.9841	3126.2009	3154.2815	3179.4891	3189.5606
C1C2CC3OC=NCC123	C1[C@H]2C[C@@H]3OC=NC[C@]123	
InChI=1S/C7H9NO/c1-5-2-7(5)3-8-4-9-6(1)7/h4-6H,1-3H2	InChI=1S/C7H9NO/c1-5-2-7(5)3-8-4-9-6(1)7/h4-6H,1-3H2/t5-,6+,7-/m1/s1
