16
gdb 47635	2.40453	1.65325	1.13878	5.8648	73.26	-0.2271	-0.071	0.1561	1066.7641	0.124709	-437.901004	-437.892995	-437.892051	-437.934457	29.588	
O	 0.1516418096	 0.7383629579	-1.4423772412	-0.280035
C	 0.0236702636	 1.3619771436	-0.4208169902	 0.313404
C	-1.2562583374	 2.1158230532	-0.0784578463	-0.288
N	-1.2354083252	 2.6191944579	 1.283451052	-0.296554
C	-0.5633579092	 3.893241377	 1.4604491801	-0.230807
C	 0.9305182692	 3.8134448521	 1.36208554	-0.008942
C	 1.6731207959	 2.7493075407	 1.0395551346	-0.168695
C	 1.2036973169	 1.4153400205	 0.588660697	 0.296432
O	 1.8111718183	 0.3995392682	 0.8397005321	-0.308077
H	-1.4154036301	 2.8953240584	-0.8463586012	 0.11822
H	-2.0728025646	 1.3957329468	-0.1901945336	 0.14566
H	-2.1724845498	 2.6656702049	 1.6596485549	 0.236392
H	-0.9156892798	 4.6693727508	 0.7492270686	 0.106797
H	-0.8099474017	 4.275629365	 2.4593844342	 0.127663
H	 1.4433904687	 4.7323347829	 1.6401507645	 0.111791
H	 2.7557450357	 2.8133629299	 1.1134435545	 0.124751
35.7528	90.3091	227.1936	288.6289	322.069	355.5161	403.9953	411.4752	541.7838	574.8725	622.4333	636.0876	730.3483	828.5253	840.8071	882.5948	950.9385	975.1969	1016.6951	1055.3946	1090.3921	1155.6992	1207.9007	1243.4851	1256.471	1303.5936	1328.3705	1401.6977	1405.194	1446.6271	1470.971	1495.3963	1696.6394	1779.0558	1821.1517	2889.4273	2939.5595	3039.5278	3085.7288	3146.3657	3172.5606	3574.3726
O=C1CNCC=CC1=O	O=C1CNCC=CC1=O	
InChI=1S/C6H7NO2/c8-5-2-1-3-7-4-6(5)9/h1-2,7H,3-4H2	InChI=1S/C6H7NO2/c8-5-2-1-3-7-4-6(5)9/h1-2,7H,3-4H2
