20
gdb 91465	2.47384	1.63782	1.21117	4.2411	83.01	-0.2984	0.0288	0.3272	1086.9506	0.173293	-366.030803	-366.02286	-366.021916	-366.062941	31.694	
C	-0.1421328871	 1.5199881685	 0.0034878044	-0.427139
C	 0.0534441409	 0.0066751412	 0.0211891043	-0.004668
C	 1.0081725969	-0.5644568687	-1.0832513475	-0.234717
C	 2.0143046644	-1.324928705	-0.198694688	-0.03694
C	 1.0812184236	-2.0292836477	 0.8272206475	-0.261565
C	 0.8025892371	-0.5559194523	 1.2687543939	 0.227061
C	 2.3057596702	-0.2917633719	 0.9252231482	-0.260436
C	 0.2473667466	-0.242412796	 2.5658585474	 0.164759
N	-0.2009163553	 0.0118183775	 3.6015620836	-0.353855
H	 0.8108850648	 2.0561824554	 0.0586834831	 0.118881
H	-0.639862191	 1.8288674705	-0.9213686145	 0.120662
H	-0.7617660586	 1.8473800232	 0.84429518	 0.138187
H	-0.9293457644	-0.4727150792	-0.0367595126	 0.086777
H	 0.4878827416	-1.2212442652	-1.7856522889	 0.103249
H	 1.4867433215	 0.2339604545	-1.6587176594	 0.102706
H	 2.8196805046	-1.8631215047	-0.6965584771	 0.072769
H	 0.2313167217	-2.6062313889	 0.4531544546	 0.10443
H	 1.6251489561	-2.5936496135	 1.5864845223	 0.115988
H	 2.9726551638	-0.6766001734	 1.6985105848	 0.117031
H	 2.5957937024	 0.7231798958	 0.6449353839	 0.106818
131.2049	145.0409	214.1128	220.7411	297.6773	415.0873	455.0905	485.4094	515.1823	551.8326	577.0224	647.4365	793.9422	840.0441	847.1904	896.8562	900.2845	943.9699	954.8387	981.8372	995.9107	1024.913	1066.48	1099.3632	1111.575	1130.8093	1159.5625	1175.3034	1210.1595	1221.2342	1250.8974	1264.1869	1277.4357	1313.9964	1328.8661	1374.1611	1415.6482	1484.8167	1494.6989	1499.2048	1500.1793	1526.5458	2348.6492	3035.2315	3045.3071	3053.0422	3063.6602	3073.7067	3097.658	3103.9319	3108.8137	3126.294	3132.5036	3137.442
CC1CC2CC1(C2)C#N	C[C@H]1C[C@@H]2C[C@]1(C2)C#N	
InChI=1S/C8H11N/c1-6-2-7-3-8(6,4-7)5-9/h6-7H,2-4H2,1H3	InChI=1S/C8H11N/c1-6-2-7-3-8(6,4-7)5-9/h6-7H,2-4H2,1H3/t6-,7-,8+/m0/s1
