19
gdb 96805	2.20499	1.44481	0.91054	1.2392	80.11	-0.2466	-0.0061	0.2405	1287.0327	0.159375	-419.274065	-419.26476	-419.263815	-419.309016	33.529	
C	 0.0547270129	 1.4153391136	 0.0938166379	-0.343032
N	 0.1397159317	-0.0365578429	 0.0793954809	-0.305647
C	 0.5925461683	-0.6072533955	-0.9553120941	 0.411522
N	 1.0435074798	-0.0262991011	-2.1421580637	-0.374841
C	 1.5859285263	-0.913664423	-3.0618249885	 0.404704
O	 2.004372643	-0.6106669843	-4.1511166643	-0.351996
C	 1.5603726306	-2.289755442	-2.4015828975	-0.357723
C	 0.7203442194	-2.1207621384	-1.1179301008	-0.081454
C	 1.2746307558	-2.8063603032	 0.130901003	-0.394313
H	 0.9984412943	 1.9026637648	-0.1973425158	 0.108882
H	-0.7334233767	 1.7842288226	-0.5792503386	 0.119175
H	-0.1936344137	 1.7537817491	 1.102480949	 0.131444
H	 0.9990488231	 0.9606412944	-2.3443534591	 0.264535
H	 1.1712841356	-3.0320018605	-3.1010448256	 0.139263
H	 2.5955581896	-2.5713793796	-2.1768313584	 0.139877
H	-0.2935583814	-2.4972130236	-1.3025620675	 0.111134
H	 2.3007746186	-2.4807905041	 0.3319791938	 0.117682
H	 0.6651402947	-2.5510374399	 1.0001979318	 0.146019
H	 1.2793945682	-3.8935624462	 0.0075508574	 0.114768
47.3299	73.836	126.1855	176.4866	200.2622	236.1004	279.0925	387.7453	449.1602	526.6908	556.1853	592.1887	621.3824	635.5395	715.9278	803.78	886.7361	919.04	936.2684	1026.0605	1048.8355	1099.421	1107.141	1139.4548	1164.2892	1186.8321	1216.6336	1267.2372	1313.2973	1327.5218	1355.7243	1372.8977	1408.5404	1434.8249	1465.92	1491.3432	1492.3463	1500.8699	1508.8143	1777.2517	1854.3916	2973.8347	3026.0709	3029.1993	3039.7901	3054.4995	3104.5728	3106.4129	3118.5354	3134.8479	3640.4014
CN=C1NC(=O)CC1C	CN=C1NC(=O)C[C@H]1C	
InChI=1S/C6H10N2O/c1-4-3-5(9)8-6(4)7-2/h4H,3H2,1-2H3,(H,7,8,9)	InChI=1S/C6H10N2O/c1-4-3-5(9)8-6(4)7-2/h4H,3H2,1-2H3,(H,7,8,9)/t4-/m1/s1
