16
gdb 50890	6.35973	0.61497	0.56459	0.6558	74.81	-0.2701	-0.028	0.242	1854.7902	0.121177	-437.886512	-437.876733	-437.875789	-437.92277	33.327	
N	-0.3168038811	 1.3288325807	 0.0127506147	-0.416021
C	-0.0748393069	 0.0955467594	 0.0031679225	 0.113657
O	-1.1451871126	-0.7671988384	 0.0089999047	-0.209861
C	-0.8898919626	-2.1159472836	-0.0013958784	 0.47079
O	 0.2124604804	-2.5922502026	-0.0151025318	-0.333569
C	-2.190215842	-2.8807906609	 0.0070637465	-0.326944
C	-1.9665005621	-4.4014147327	-0.0024193888	-0.357329
C	-3.2232052701	-5.1388730588	 0.0053215464	 0.281278
C	-4.2727298857	-5.7239151506	 0.0119827647	-0.418983
H	 0.5576616508	 1.8520609413	 0.0068535068	 0.241749
H	 0.8854649262	-0.4199191832	-0.0096118848	 0.145034
H	-2.7660711734	-2.5710207051	 0.88585862	 0.156763
H	-2.7821580613	-2.5626500474	-0.8579678636	 0.15678
H	-1.3734772383	-4.6751277777	-0.8822058424	 0.149236
H	-1.3577214354	-4.6837334933	 0.8637914862	 0.149195
H	-5.1917451459	-6.2557649971	 0.0176941473	 0.198222
48.2084	56.6161	90.3118	108.2306	138.8936	198.1494	279.2489	344.4986	369.2669	492.9946	552.3226	568.125	627.0344	652.868	738.1994	782.287	853.4616	940.2974	976.0706	1007.3545	1038.6401	1069.1636	1072.3234	1163.0881	1184.9257	1262.5599	1302.4779	1305.4618	1385.5672	1398.474	1452.5213	1472.8774	1748.0082	1837.8154	2243.4033	3044.0342	3059.4442	3072.2193	3097.5752	3141.1094	3506.6741	3507.8693
N=COC(=O)CCC#C	[NH][CH]OC(=O)CCC#C	
InChI=1S/C6H7NO2/c1-2-3-4-6(8)9-5-7/h1,5,7H,3-4H2	InChI=1S/C6H7NO2/c1-2-3-4-6(8)9-5-7/h1,5,7H,3-4H2
