16
gdb 78717	4.75779	1.17369	1.07555	5.0629	74.35	-0.2543	-0.0066	0.2477	1120.8639	0.124188	-400.691749	-400.684321	-400.683377	-400.723525	28.781	
C	-0.1402649534	 1.4630934752	 0.0655679083	-0.412817
C	 0.042363509	-0.0479361406	-0.0049921946	 0.000347
C	 0.8887793696	-0.5197716897	-1.1930231797	-0.154719
C	 2.1708387492	-0.4438444956	-0.3849513013	-0.192479
C	 1.2153418765	-0.5942564752	 0.8595834585	 0.042684
O	 1.1380137056	-2.0383574015	 0.6694252928	-0.320816
C	 1.5911896499	-1.7990885563	-0.6601654574	 0.375732
C	 2.0433393697	-2.8680504877	-1.4856228248	 0.197578
N	 2.4143801087	-3.7209440655	-2.1735182761	-0.34368
H	 0.8118960859	 1.9880438712	-0.0673092972	 0.121713
H	-0.8252549276	 1.8123231911	-0.7130767186	 0.128258
H	-0.5592928544	 1.7565742511	 1.0337237487	 0.124385
H	-0.9041912668	-0.5729726167	 0.1604621902	 0.090035
H	 0.7496289769	-0.351577473	-2.2531472177	 0.116181
H	 3.1519277689	-0.0296687468	-0.5659601534	 0.124913
H	 1.3902940923	-0.3010897599	 1.8918569725	 0.102684
128.9127	143.9663	233.3633	253.4842	283.1057	451.2756	493.3815	524.8339	564.696	629.3041	768.2385	779.1922	790.3434	840.0384	882.6855	903.8751	942.066	955.8634	1010.8265	1034.037	1052.4878	1076.3839	1109.4312	1130.9791	1149.2343	1182.6131	1235.1251	1269.4749	1281.4657	1366.0625	1387.6463	1416.2364	1495.024	1500.9526	2353.7098	3033.1499	3057.8184	3102.3668	3106.2069	3157.7488	3207.4227	3227.3695
CC1C2C3C1OC23C#N	C[C@H]1[C@H]2[C@H]3[C@@H]1O[C@@]23C#N	
InChI=1S/C7H7NO/c1-3-4-5-6(3)9-7(4,5)2-8/h3-6H,1H3	InChI=1S/C7H7NO/c1-3-4-5-6(3)9-7(4,5)2-8/h3-6H,1H3/t3-,4-,5-,6+,7-/m0/s1
