15
gdb 49318	2.40159	1.88706	1.05673	4.3423	81.12	-0.2424	-0.0783	0.1641	1063.0065	0.114982	-413.014992	-413.007354	-413.00641	-413.047408	28.534	
N	 0.1016950764	 1.3148705533	-0.0194096007	-0.423113
C	-0.0048824649	 0.0528923402	-0.0079892802	 0.085118
N	-1.2309943685	-0.6216524781	 0.0257883707	-0.138463
C	-2.5422866209	-0.0942783568	 0.0540349785	 0.352829
N	-2.8304831554	 1.1432679047	 0.0524557072	-0.482949
C	-3.4369988854	-1.275239056	 0.0835500941	-0.148452
C	-2.7079637412	-2.3944685188	 0.0733684528	-0.179526
C	-1.277719879	-2.032462154	 0.0364872621	 0.378861
N	-0.2322453463	-2.7593634461	 0.0161921876	-0.535089
H	 1.0907827256	 1.562160424	-0.0445645906	 0.22944
H	 0.8108547522	-0.6731960438	-0.0222407774	 0.139741
H	-3.8453132406	 1.2528802054	 0.0763000655	 0.225642
H	-4.5137996039	-1.17755899	 0.1088401999	 0.133407
H	-3.0484567132	-3.420485845	 0.0884541737	 0.131892
H	-0.484357435	-3.7459830991	 0.0290034468	 0.230662
79.1134	145.2778	203.7597	233.5143	285.2462	368.9394	453.999	562.3981	625.7067	639.6867	730.1757	745.9474	751.1328	798.6211	843.632	856.6752	882.4762	960.6668	1022.9498	1040.5182	1093.2782	1109.8547	1123.5223	1184.992	1293.9705	1331.7254	1365.5715	1427.6352	1451.9374	1638.9929	1696.9982	1720.7214	1759.6837	3109.9076	3224.5978	3246.9005	3470.8314	3484.7768	3504.8547
N=CN1C(=N)C=CC1=N	[NH][CH]n1c([NH])ccc1[NH]	
InChI=1S/C5H6N4/c6-3-9-4(7)1-2-5(9)8/h1-3,6-8H	InChI=1S/C5H6N4/c6-3-9-4(7)1-2-5(9)8/h1-3,6-8H
