21
gdb 115687	2.13272	1.42276	1.0315	3.0261	79.64	-0.2374	-0.0055	0.2319	1260.9672	0.180334	-424.229271	-424.219292	-424.218347	-424.26471	35.738	
C	-0.5558003657	 1.518160971	 0.35614134	-0.241965
O	-0.5514950371	 0.1997549112	 0.8605293258	-0.24057
C	-1.3682232243	-0.6779169732	 0.1319922836	 0.159335
C	-0.9124094037	-1.1670040409	-1.2677196195	-0.2509
C	-1.361112361	-2.5971925526	-0.8582477321	-0.235655
C	-1.3462963433	-2.1579675344	 0.6289849782	-0.170224
C	-0.0515476469	-2.5057080507	 1.3610227596	 0.399337
C	-0.0225870397	-2.1783661599	 2.8396920291	-0.480264
O	 0.8908083831	-3.0069100986	 0.7904390676	-0.307931
H	 0.0931815107	 2.1148133267	 1.000930945	 0.130902
H	-0.1723872743	 1.5633344561	-0.6731403196	 0.115957
H	-1.5683756639	 1.9508474191	 0.3683841301	 0.106244
H	-2.4010669857	-0.2961294446	 0.1012830909	 0.06834
H	-1.3762791018	-0.7100074619	-2.144214528	 0.094867
H	 0.1755073563	-1.1097720846	-1.3539994742	 0.12678
H	-2.3666913702	-2.8436457854	-1.2057943059	 0.098071
H	-0.6734776189	-3.4062580602	-1.103130379	 0.126742
H	-2.1990372975	-2.4395259681	 1.2535997465	 0.078874
H	-0.8021526631	-2.7390184248	 3.3684362935	 0.129531
H	 0.9539630968	-2.4249200884	 3.2584162877	 0.134768
H	-0.2359113997	-1.113325996	 2.9735358507	 0.157763
62.4783	98.2056	104.5571	134.1625	143.4021	196.398	252.8373	289.4046	359.5488	430.885	458.5149	563.2185	600.9219	694.5297	746.1697	772.9487	894.9528	932.339	950.4399	959.1419	1006.9282	1031.0788	1049.5397	1103.3447	1112.3334	1160.4141	1182.6416	1185.8568	1196.0457	1227.0834	1254.2048	1256.9216	1264.1858	1291.8451	1352.7444	1378.5633	1391.8588	1466.1351	1466.9953	1477.2907	1480.3163	1485.5757	1490.4214	1508.4303	1806.1883	2971.0597	2981.8139	3033.8832	3037.6922	3063.0671	3066.8453	3079.4643	3107.7269	3120.533	3124.2571	3146.3768	3152.6018
COC1CCC1C(C)=O	CO[C@H]1CC[C@H]1C(=O)C	
InChI=1S/C7H12O2/c1-5(8)6-3-4-7(6)9-2/h6-7H,3-4H2,1-2H3	InChI=1S/C7H12O2/c1-5(8)6-3-4-7(6)9-2/h6-7H,3-4H2,1-2H3/t6-,7-/m0/s1
