20
gdb 85431	2.34891	1.49163	1.16136	5.1023	74.78	-0.2573	0.0541	0.3114	1149.3445	0.170512	-440.356854	-440.347708	-440.346763	-440.390144	35.154	
C	-0.3396508743	 1.4491097568	-0.0327003494	-0.415354
C	 0.1342768687	 0.0089327278	-0.0445602822	 0.122246
O	 1.1781109672	-0.1451937344	-1.0251672361	-0.255616
C	 2.039602038	-1.1260208061	-0.6189309317	 0.459091
O	 2.9513657043	-1.5305634685	-1.2848147255	-0.393911
N	 1.652679796	-1.538108553	 0.6413401037	-0.383292
C	 0.7485271654	-0.5689411034	 1.2658590855	 0.241899
C	 1.5366047207	 0.4674377493	 2.0846991222	-0.427271
C	-0.307677895	-1.2594252344	 2.1312508754	-0.431564
H	 0.4749923984	 2.1378522031	 0.201993643	 0.133979
H	-0.7381306527	 1.7143643254	-1.0152216991	 0.138578
H	-1.1380265124	 1.5820156602	 0.7041426052	 0.122863
H	-0.6936880124	-0.6479021224	-0.3450068756	 0.089838
H	 2.3526878158	-2.0176879588	 1.1870605621	 0.251496
H	 2.2637362021	 0.9950289711	 1.46083052	 0.136121
H	 0.8741761753	 1.2062597315	 2.5453202938	 0.123172
H	 2.0836031804	-0.0335349297	 2.8904770072	 0.11627
H	 0.1490348926	-1.7102678793	 3.0184253419	 0.119518
H	-1.0562110215	-0.5390719152	 2.4773760015	 0.123061
H	-0.8135872666	-2.0487989298	 1.5695187082	 0.128877
103.0114	143.127	207.3186	236.6436	259.4519	281.5043	289.5132	332.4976	354.7107	442.8823	506.6105	539.6817	565.4218	604.6344	693.9203	751.7328	777.2762	903.3748	929.6346	936.6243	971.7894	996.6897	1006.8718	1065.0487	1116.7322	1132.1929	1195.6682	1230.871	1239.0614	1298.3479	1378.3828	1389.4855	1397.8332	1401.9398	1415.9237	1424.9551	1479.8934	1480.6723	1491.5473	1498.292	1505.6726	1513.1325	1890.3401	3008.3371	3034.7876	3039.6716	3050.4223	3100.6621	3106.8037	3117.9318	3120.7451	3122.5782	3135.5585	3627.8113
CC1OC(=O)NC1(C)C	C[C@H]1OC(=O)NC1(C)C	
InChI=1S/C6H11NO2/c1-4-6(2,3)7-5(8)9-4/h4H,1-3H3,(H,7,8)	InChI=1S/C6H11NO2/c1-4-6(2,3)7-5(8)9-4/h4H,1-3H3,(H,7,8)/t4-/m1/s1
