22
gdb 76685	3.10685	1.00632	0.90862	2.0527	83.01	-0.2223	0.0681	0.2904	1399.7359	0.193281	-404.294355	-404.284544	-404.2836	-404.329344	36.446	
C	-0.0818333797	 1.4586925216	-0.2356996476	-0.415918
C	 0.1023959439	-0.030564851	-0.0305746381	-0.073198
C	 1.486201911	-0.6445591914	 0.0328583874	 0.071876
O	 2.6109406422	 0.1936362836	 0.0392297953	-0.413281
C	 0.6278683407	-0.6198871703	 1.2692531152	-0.035828
C	 0.9929630236	 0.2324282032	 2.4654091169	-0.170528
N	 1.7202319996	-0.5722002122	 3.4488232071	-0.072365
C	 3.1659472672	-0.6643406421	 3.2470164057	-0.220821
C	 2.6023590221	 0.1677768018	 4.3451377941	-0.224956
H	 0.7759628372	 2.0258611203	 0.1321689499	 0.12734
H	-0.2017592082	 1.6902347342	-1.3003720303	 0.109875
H	-0.9755661524	 1.8255288741	 0.2802783288	 0.120628
H	-0.6468333071	-0.6387620835	-0.531994195	 0.082337
H	 1.6494864231	-1.6043543662	-0.4563835691	 0.0833
H	 2.7458688255	 0.5232438474	-0.8554243168	 0.289964
H	 0.2023610864	-1.5766125079	 1.5583248513	 0.093896
H	 1.5726273276	 1.1118306778	 2.146842259	 0.0945
H	 0.0804000668	 0.5986254508	 2.9528045379	 0.097989
H	 3.6076742846	-1.6323983875	 3.4674651866	 0.107565
H	 3.5867436276	-0.1520107371	 2.3854677813	 0.133219
H	 2.6573526233	 1.2493828916	 4.2292288372	 0.10419
H	 2.630841335	-0.1789672173	 5.3745652634	 0.110216
63.2908	89.6406	118.1977	164.0625	204.03	218.2329	278.9683	305.5285	366.351	406.7538	470.8475	566.3443	592.8859	762.3181	772.3706	798.2598	839.2604	883.5578	915.9534	945.0808	990.2358	1016.4629	1028.7889	1047.1646	1085.3941	1110.9935	1119.449	1124.3001	1149.643	1151.3852	1174.7522	1179.0638	1206.0504	1250.0337	1282.3993	1297.348	1316.0192	1344.4863	1381.3026	1407.2233	1420.9676	1459.1614	1487.978	1495.5141	1500.5419	1506.3681	1525.442	2986.1963	3031.278	3039.4843	3084.7345	3092.2688	3097.9088	3107.4411	3118.0132	3133.6587	3152.171	3175.0818	3196.9635	3804.8878
CC1C(O)C1CN1CC1	C[C@H]1[C@@H](O)[C@H]1CN1CC1	
InChI=1S/C7H13NO/c1-5-6(7(5)9)4-8-2-3-8/h5-7,9H,2-4H2,1H3	InChI=1S/C7H13NO/c1-5-6(7(5)9)4-8-2-3-8/h5-7,9H,2-4H2,1H3/t5-,6+,7-/m1/s1
