17
gdb 75326	2.45437	1.65951	1.37449	2.2571	74.2	-0.2343	-0.0193	0.2149	1014.1644	0.136078	-421.830292	-421.822667	-421.821723	-421.862291	29.475	
C	 0.0552537575	 1.4884967004	 0.0758447096	-0.50375
C	-0.0132902185	-0.0059679099	 0.0069232351	 0.351787
C	-0.0333522031	-0.7350723941	-1.1147347738	-0.171473
C	-0.0334715942	-2.2490952019	-1.0569992213	-0.269379
C	 0.0077488923	-2.6772546724	 0.4175579688	-0.039596
O	-0.9887799553	-1.9127192476	 1.1598876247	-0.290534
C	-0.0492050829	-0.8090535205	 1.3026546031	-0.142888
C	 1.0702179206	-1.8624216594	 1.188395673	 0.432576
O	 2.1755063783	-2.0309738104	 1.5979326825	-0.307538
H	 0.9474605211	 1.8192464915	 0.6226054718	 0.137667
H	 0.0871966019	 1.9336068357	-0.9220826998	 0.128616
H	-0.8104428277	 1.8990991286	 0.6106712631	 0.133329
H	-0.0506879698	-0.2584140348	-2.0912161025	 0.095397
H	-0.9207420099	-2.6659125113	-1.5516904368	 0.121438
H	 0.8397260711	-2.659366114	-1.5818449434	 0.124181
H	-0.0706899023	-3.7543431525	 0.5821144755	 0.10278
H	-0.2023413991	-0.2259272374	 2.2123222503	 0.097388
117.7446	155.6283	190.3084	284.0271	307.6919	389.6594	443.8383	479.254	557.3647	571.8825	679.9455	747.307	826.4761	838.634	880.6649	922.3359	937.9902	974.1595	988.0083	1041.1139	1065.3592	1073.0708	1087.8827	1143.4898	1166.2607	1194.4092	1243.0495	1281.3279	1323.8025	1340.6511	1361.2105	1414.5627	1472.6321	1476.9752	1488.1881	1718.1751	1919.6539	3014.4837	3018.2141	3044.9777	3066.7	3095.8202	3107.8805	3114.2363	3164.2295
CC1=CCC2OC1C2=O	CC1=CC[C@@H]2O[C@H]1C2=O	
InChI=1S/C7H8O2/c1-4-2-3-5-6(8)7(4)9-5/h2,5,7H,3H2,1H3	InChI=1S/C7H8O2/c1-4-2-3-5-6(8)7(4)9-5/h2,5,7H,3H2,1H3/t5-,7+/m0/s1
