18
gdb 125906	3.88583	1.32187	1.11175	3.3601	77.89	-0.1886	0.0422	0.2308	1110.8653	0.151759	-398.144546	-398.137027	-398.136083	-398.176553	29.542	
C	 0.128499427	 1.4659743029	 0.0806015537	-0.39721
C	-0.0565191375	-0.0486412439	-0.0174878691	 0.047006
C	 0.6583725721	-0.6496347396	-1.2865483003	-0.379063
C	 1.9015818771	-1.2427708163	-0.686797511	 0.199473
C	 1.766258671	-1.2437257803	 0.6784863874	 0.4236
N	 2.8532453942	-1.8350946999	 1.2088285236	-0.339987
N	 3.733733478	-2.2227865246	 0.2294079471	-0.244967
C	 3.1421629888	-1.8705511232	-0.9132243698	-0.157957
N	 0.5575447236	-0.7503716627	 1.164649051	-0.419294
H	 1.1926388962	 1.7257845664	 0.065946613	 0.130383
H	-0.3572331056	 1.9684096219	-0.7620919595	 0.123137
H	-0.3133035854	 1.8625130278	 1.0019030661	 0.111758
H	-1.1251097837	-0.2820726233	-0.0332444061	 0.085735
H	 0.0230259663	-1.4060320583	-1.7633999745	 0.112636
H	 0.835473218	 0.1331771843	-2.0325427042	 0.106902
H	 3.0926463577	-2.0015632324	 2.1700893967	 0.266218
H	 3.6470679901	-2.0803417504	-1.8454263505	 0.103301
H	 0.623537572	-0.1509690184	 1.9799270263	 0.22833
69.8054	215.9531	254.2953	271.829	341.837	394.712	421.4589	465.4498	617.8028	656.0979	664.1632	718.3477	742.469	812.9179	857.412	884.6519	926.8983	934.3531	975.2564	1044.1626	1063.1338	1093.1772	1119.3658	1160.0027	1208.9593	1236.7168	1267.3092	1307.2098	1325.879	1362.8841	1399.9217	1405.0354	1418.7048	1457.0907	1492.8184	1494.2586	1503.2092	1587.1547	1625.6056	3020.6082	3026.1945	3052.2908	3060.9904	3095.5456	3107.3173	3236.7122	3529.2832	3687.3653
CC1CC2=C(NN=C2)N1	C[C@H]1Cc2c([nH]nc2)N1	
InChI=1S/C6H9N3/c1-4-2-5-3-7-9-6(5)8-4/h3-4H,2H2,1H3,(H2,7,8,9)	InChI=1S/C6H9N3/c1-4-2-5-3-7-9-6(5)8-4/h3-4H,2H2,1H3,(H2,7,8,9)/t4-/m0/s1
