18
gdb 13183	3.21241	1.47408	1.09215	3.0392	68.09	-0.249	-0.0294	0.2196	1081.3313	0.152018	-384.925699	-384.916917	-384.915972	-384.960619	30.087	
C	-0.1626033524	 1.5403528586	 0.0442855765	-0.419231
C	-0.0252082441	 0.0124227629	-0.0269654464	-0.082667
C	 0.6745592307	-0.4001096475	-1.3087638738	 0.162988
O	 0.3098757262	-1.2811351647	-2.0435684031	-0.249133
C	 0.7802730839	-0.538931936	 1.1593028152	-0.030588
C	 0.088131041	-0.5142920349	 2.5436624195	-0.087777
O	 0.1400088347	-1.9484064491	 2.6481623301	-0.270058
C	 0.7790046373	-2.0727910495	 1.360787108	-0.094181
H	 0.8170470115	 2.0274326873	-0.021248793	 0.123675
H	-0.7849392212	 1.9234729257	-0.7698215241	 0.131337
H	-0.622482954	 1.8443207395	 0.989229554	 0.130839
H	-1.0127511936	-0.462771304	-0.0335160691	 0.101295
H	 1.6081760332	 0.1750529061	-1.5225437232	 0.071806
H	 1.7813817935	-0.0971350194	 1.1684625166	 0.082639
H	 0.6450728407	-0.0207573218	 3.3496247842	 0.103904
H	-0.9441227999	-0.1382881823	 2.5443171846	 0.101076
H	 0.1663564051	-2.635095592	 0.6453733906	 0.118903
H	 1.7645512574	-2.5475675091	 1.4360312735	 0.105174
36.3277	57.0644	85.5643	182.9501	209.4981	277.082	289.1687	392.7575	414.4193	534.7997	763.803	857.1275	889.9555	893.9984	955.4951	972.0082	1001.4095	1009.8921	1046.9292	1083.5929	1120.0304	1154.2858	1155.8829	1165.665	1199.5175	1261.0764	1276.7147	1313.348	1321.6866	1369.7245	1393.7346	1406.3514	1427.6313	1495.3738	1499.6575	1512.7368	1537.761	1831.1813	2838.2863	3001.3667	3019.5423	3033.8345	3042.8178	3050.0744	3057.5667	3072.7649	3102.9667	3112.6121
CC(C=O)C1COC1	C[C@@H](C=O)C1COC1	
InChI=1S/C6H10O2/c1-5(2-7)6-3-8-4-6/h2,5-6H,3-4H2,1H3	InChI=1S/C6H10O2/c1-5(2-7)6-3-8-4-6/h2,5-6H,3-4H2,1H3/t5-/m0/s1
