21
gdb 121967	2.68257	0.79134	0.72358	1.4966	81.58	-0.2457	0.0511	0.2968	1672.7822	0.178416	-424.178821	-424.167688	-424.166743	-424.216407	39.367	
C	 0.0683937809	 0.8614988065	-1.3479084034	-0.384617
C	-0.2627980549	-0.1765511581	-0.2780440363	-0.049398
O	 0.0544458722	-1.5094404417	-0.6499406996	-0.244978
C	 1.4275461467	-1.850997404	-0.6318284697	-0.105428
C	 1.9781899237	-2.1174690237	-2.041401874	 0.113238
O	 3.3619252509	-2.4137766456	-1.9680407965	-0.421919
C	 1.1662147085	-3.2194248522	-2.7497445675	-0.381173
C	 1.5749392129	-3.4501091175	-4.1279920955	 0.30863
C	 1.9118733606	-3.6298563873	-5.2674007336	-0.439778
H	 1.1458845459	 0.926678904	-1.5293798098	 0.12546
H	-0.4258528817	 0.6118458259	-2.2915078079	 0.127205
H	-0.2749743638	 1.8515129534	-1.0291724831	 0.11643
H	 0.2390066557	 0.0790021666	 0.6681097474	 0.093422
H	-1.3404243702	-0.1823491531	-0.0840964425	 0.109843
H	 2.0370119192	-1.0697568248	-0.1601265402	 0.104144
H	 1.5430477482	-2.7657732936	-0.0285848552	 0.086574
H	 1.909778365	-1.199144252	-2.6335104598	 0.103664
H	 3.4616542944	-3.2933771573	-1.586881732	 0.281439
H	 1.2593123056	-4.1506879365	-2.1701535144	 0.113358
H	 0.1079374439	-2.9389629402	-2.7031903841	 0.151006
H	 2.2102725765	-3.7910738589	-6.2733202123	 0.192876
30.1611	64.2527	76.401	109.7615	146.3272	217.3653	243.4215	265.7046	323.7124	347.5391	374.7531	413.2995	430.3782	499.857	560.4119	614.2767	635.1684	801.5374	830.5273	858.5445	904.8728	982.3094	1003.2858	1051.1984	1081.8998	1091.8527	1116.3856	1151.3823	1184.8163	1200.904	1269.9856	1307.4165	1313.0503	1336.8456	1369.6907	1395.7387	1404.6464	1412.8705	1418.5761	1469.3254	1485.3795	1490.3012	1497.3584	1510.7331	2241.3475	2974.7921	2988.2094	2995.2805	3036.0068	3043.3068	3066.0238	3070.3438	3075.6757	3106.5415	3117.4123	3507.9091	3798.5121
CCOCC(O)CC#C	CCOC[C@@H](O)CC#C	
InChI=1S/C7H12O2/c1-3-5-7(8)6-9-4-2/h1,7-8H,4-6H2,2H3	InChI=1S/C7H12O2/c1-3-5-7(8)6-9-4-2/h1,7-8H,4-6H2,2H3/t7-/m0/s1
