17
gdb 113525	2.70454	1.27318	1.10527	1.7719	70.46	-0.2584	-0.0374	0.221	1147.7017	0.134417	-458.934776	-458.926247	-458.925303	-458.968398	31.468	
O	 0.1384089011	 0.4930757584	 0.8833534676	-0.421426
C	-0.2516503493	 0.2104791781	-0.4465693726	-0.076243
C	-1.5851523802	-0.518130544	-0.5121602368	-0.113981
C	-1.7348398648	-1.7250331996	-1.4090401448	-0.361392
C	-1.6061848485	-1.9013725505	 0.0762988996	 0.322116
O	-0.4584925699	-2.4695234636	 0.7374822365	-0.328383
C	-1.2845750886	-3.1208806381	 1.7398784992	-0.195254
C	-2.5371029797	-2.5310544348	 1.0644860516	 0.279363
O	-3.7171894981	-2.5646518022	 1.2414713779	-0.290004
H	 0.2968900556	-0.3652461441	 1.2953343953	 0.290296
H	-0.3287241484	 1.1726288481	-0.962722972	 0.118541
H	 0.5136150758	-0.3817137487	-0.9701149033	 0.095883
H	-2.4690107768	 0.0833096084	-0.3190701356	 0.117856
H	-2.7007579637	-1.9466123207	-1.8503675891	 0.140195
H	-0.8735556024	-2.016980755	-2.0016368077	 0.137207
H	-1.2007576661	-4.2121419076	 1.7019854214	 0.143346
H	-1.080587236	-2.7614633341	 2.7539152525	 0.141883
82.4995	96.1061	143.5825	161.1987	241.4341	318.6599	412.0013	442.8209	507.247	536.6916	579.6319	634.0641	738.5473	791.9396	849.4565	868.5585	936.2208	983.4157	1001.1112	1012.9626	1039.8635	1063.9072	1075.0361	1083.5472	1138.3672	1141.5954	1186.9493	1249.6748	1287.0365	1299.6905	1381.5803	1414.3799	1437.6721	1462.3266	1482.6833	1500.5539	1917.1347	2993.7212	3041.941	3078.7042	3098.2864	3130.0234	3154.6342	3223.0631	3781.8506
OCC1CC11OCC1=O	OC[C@H]1C[C@]21OCC2=O	
InChI=1S/C6H8O3/c7-2-4-1-6(4)5(8)3-9-6/h4,7H,1-3H2	InChI=1S/C6H8O3/c7-2-4-1-6(4)5(8)3-9-6/h4,7H,1-3H2/t4-,6-/m1/s1
