20
gdb 92031	2.1981	2.05852	1.49432	2.1046	77.51	-0.2161	0.066	0.2821	972.4125	0.173559	-403.104739	-403.097296	-403.096352	-403.136004	31.119	
O	 0.022737292	 1.4237558666	-0.2739854304	-0.424581
C	 0.005926515	 0.0141139221	-0.0404354913	 0.072421
C	 0.7402412632	-0.3763872531	 1.2591399949	-0.252515
C	-0.0303279123	-0.0782201818	 2.5316409135	-0.018588
C	-0.8144914244	 1.2072849056	 2.6788790769	-0.321021
C	-1.5375475831	-0.1072553108	 2.4629710398	 0.019314
N	-2.188669085	-0.5221035273	 1.2416698667	-0.099477
C	-2.5837707515	 0.4346631346	 0.2165611458	-0.244989
C	-1.4356905881	-0.4852942053	-0.0171070413	-0.010737
H	 0.9332078213	 1.7231927695	-0.1780911213	 0.280993
H	 0.5103142987	-0.4904323466	-0.8775660966	 0.072129
H	 0.94560824	-1.4543968428	 1.2135062403	 0.106424
H	 1.7214116967	 0.1190784746	 1.2737036222	 0.087207
H	 0.4254583143	-0.4853353248	 3.429495639	 0.080713
H	-0.8914689887	 1.6501696502	 3.6664278514	 0.102668
H	-0.7607127256	 1.9168480082	 1.8639471828	 0.134115
H	-2.057180069	-0.5012518732	 3.3314702618	 0.090996
H	-3.5416489588	 0.2383661501	-0.2588285597	 0.107795
H	-2.3497859699	 1.4843221451	 0.3622266384	 0.130906
H	-1.595020005	-1.3679411508	-0.6333362029	 0.086228
170.8546	211.5886	281.1395	316.666	345.5854	373.5796	428.453	500.3372	555.8514	563.8405	692.8989	750.4419	760.7873	809.9164	849.0345	876.7504	898.0575	930.6307	984.8084	1003.775	1010.0895	1046.6221	1065.6159	1089.5567	1116.7373	1124.7758	1135.138	1144.4754	1162.0437	1169.5482	1225.3405	1236.7808	1252.8877	1319.3677	1353.2475	1366.7887	1391.7455	1409.2976	1412.6517	1437.2901	1477.6123	1487.9939	1512.6965	2981.4545	3006.5379	3039.6522	3108.3127	3117.7169	3136.2823	3138.9906	3149.4667	3201.9282	3244.0669	3805.8513
OC1CC2CC2N2CC12	O[C@H]1C[C@H]2C[C@H]2N2C[C@@H]12	
InChI=1S/C7H11NO/c9-7-2-4-1-5(4)8-3-6(7)8/h4-7,9H,1-3H2	InChI=1S/C7H11NO/c9-7-2-4-1-5(4)8-3-6(7)8/h4-7,9H,1-3H2/t4-,5-,6+,7+,8?/m1/s1
