18
gdb 36171	3.58413	1.22244	1.11466	3.9471	80.21	-0.3007	0.0356	0.3362	1129.9143	0.148639	-364.755364	-364.747885	-364.746941	-364.787787	29.145	
N	-0.0625519286	-1.1473215427	 0.0732947713	-0.311264
C	-0.0286526444	 0.00611409	 0.0120175227	 0.263805
C	 0.0452220553	 1.4653249337	-0.0663789059	-0.481386
C	 1.477002896	 1.9681827377	-0.0849627603	 0.367529
C	 2.5845808186	 1.6845716641	-1.1183062404	-0.308832
C	 3.2407421929	 2.626895924	-0.0906008151	-0.04266
C	 1.9284740851	 3.4621355275	 0.1084311646	-0.091638
C	 1.9901275823	 3.3260943857	 1.6428189726	-0.270128
C	 2.4914333051	 1.9662058061	 1.1174767162	-0.067363
H	-0.4833407641	 1.7927347375	-0.9699524355	 0.153425
H	-0.4956113817	 1.8895012491	 0.7882719972	 0.153254
H	 2.9625628619	 0.6586780655	-1.1621246852	 0.110215
H	 2.4296219159	 2.0837843104	-2.1263556824	 0.094017
H	 4.2553769665	 3.024436752	-0.0684493746	 0.078981
H	 1.6078086229	 4.3078842337	-0.5029011087	 0.073568
H	 2.7247827841	 3.951380686	 2.1591185886	 0.09917
H	 1.0395698022	 3.3346441914	 2.1865109858	 0.09304
H	 2.8176040601	 1.0838879182	 1.6696626491	 0.086267
59.5435	111.5327	246.2127	295.3969	393.3587	410.8093	422.6517	491.9897	673.7351	730.9157	771.0915	838.6274	863.6624	875.1055	899.8565	917.5427	931.94	948.5571	1001.1226	1007.2153	1025.1399	1049.0996	1100.8192	1106.0159	1123.0433	1158.6331	1161.8735	1187.1849	1215.1389	1223.058	1238.2853	1267.5154	1297.7987	1315.7488	1341.5496	1455.7833	1511.2552	1512.9242	2361.6886	3033.2602	3038.6009	3040.5338	3071.2435	3094.8905	3095.7864	3100.2222	3107.2504	3119.9324
N#CCC12CC3C1CC23	N#CC[C@@]12C[C@H]3[C@@H]1C[C@@H]23	
InChI=1S/C8H9N/c9-2-1-8-4-5-6(8)3-7(5)8/h5-7H,1,3-4H2	InChI=1S/C8H9N/c9-2-1-8-4-5-6(8)3-7(5)8/h5-7H,1,3-4H2/t5-,6-,7+,8+
