19
gdb 88314	3.04081	0.89808	0.84674	2.9499	78.94	-0.2453	-0.0371	0.2082	1448.6779	0.156444	-423.046403	-423.036656	-423.035712	-423.082841	34.43	
C	-0.0698133556	 1.6126708765	 0.1372519985	-0.420688
C	-0.0755245822	 0.1023040511	 0.1794113718	 0.018122
C	 1.073760196	-0.7068442066	-0.3093759522	-0.284589
C	 0.7809927749	-0.7029837421	 1.183200237	-0.135371
C	 1.7226401613	-0.0013746298	 2.0898473683	 0.370478
O	 2.4971813739	 0.8592380291	 1.7162066709	-0.340143
C	 1.6771461446	-0.3763236724	 3.5733226218	-0.378066
C	 1.48950548	 0.8637129675	 4.4375568843	 0.162391
O	 0.7517479794	 0.9135019007	 5.3852146935	-0.234791
H	 0.9256351326	 2.0111530115	 0.3393671606	 0.155678
H	-0.3841348206	 1.9572520126	-0.8539152314	 0.120958
H	-0.76596664	 2.0323266244	 0.8712351688	 0.119668
H	-1.0560423391	-0.3451591476	 0.0377602881	 0.099402
H	 0.8907423608	-1.6301665915	-0.8472401822	 0.11947
H	 1.9721629684	-0.1690920529	-0.5938453297	 0.140986
H	 0.2983894504	-1.5782999904	 1.6024599014	 0.093521
H	 0.9160352213	-1.1167741614	 3.824178836	 0.127082
H	 2.6656718354	-0.7859154503	 3.8233084401	 0.156888
H	 2.1012906184	 1.7304815315	 4.1137993144	 0.109003
23.1757	46.8422	105.8714	176.9596	188.2376	234.2124	246.9919	335.1496	377.7749	409.7931	474.7402	607.2923	684.8897	745.4076	789.4736	821.2424	863.4525	881.6314	947.03	979.2105	1033.9763	1049.5122	1074.6252	1087.1113	1103.8767	1121.5141	1145.8296	1190.1443	1208.8776	1236.7661	1285.5645	1391.2085	1404.8225	1411.7691	1425.5884	1440.6977	1474.746	1500.0672	1504.8418	1760.3133	1837.0181	2932.2696	3030.3961	3037.1711	3093.6004	3127.0861	3132.534	3135.3318	3149.67	3175.977	3228.6922
CC1CC1C(=O)CC=O	C[C@H]1C[C@H]1C(=O)CC=O	
InChI=1S/C7H10O2/c1-5-4-6(5)7(9)2-3-8/h3,5-6H,2,4H2,1H3	InChI=1S/C7H10O2/c1-5-4-6(5)7(9)2-3-8/h3,5-6H,2,4H2,1H3/t5-,6+/m0/s1
