12
gdb 21059	4.02515	1.90574	1.30406	1.4168	52.55	-0.23	0.0281	0.2581	855.2441	0.083887	-451.836251	-451.829047	-451.828103	-451.867863	25.269	
C	 0.1262094797	 1.4001013719	-0.0694574726	-0.327186
N	 0.0816759514	-0.040398365	-0.0167190233	-0.092009
N	 0.1844818383	-0.8069743383	-1.1833945834	-0.333324
C	 0.1036826289	-2.0030684901	-0.7311235882	 0.50604
O	 0.1509203416	-3.1102140386	-1.4595362019	-0.392078
O	-0.0417098017	-2.1263721334	 0.6057993226	-0.251323
C	-0.0583073083	-0.7942417823	 1.1026355994	 0.490187
O	-0.1740462462	-0.5139243494	 2.2609187631	-0.394172
H	 1.0763840818	 1.7394114681	-0.4920675416	 0.148289
H	-0.6953546056	 1.7873308681	-0.6791035118	 0.148268
H	 0.0279932601	 1.7641495506	 0.9541037281	 0.170167
H	 0.07019889	-3.8692516516	-0.8685936003	 0.327141
113.6644	141.1652	214.6422	278.1054	282.46	357.0286	362.4734	588.1609	649.2459	692.1539	696.4498	750.7177	846.3348	953.6005	1027.7471	1077.0915	1161.259	1228.0419	1285.6805	1418.871	1446.4588	1449.2006	1479.605	1519.3866	1759.2987	1916.6504	3045.3915	3108.6676	3157.6057	3815.0998
CN1N=C(O)OC1=O	Cn1nc(O)oc1=O	
InChI=1S/C3H4N2O3/c1-5-3(7)8-2(6)4-5/h1H3,(H,4,6)	InChI=1S/C3H4N2O3/c1-5-3(7)8-2(6)4-5/h1H3,(H,4,6)
