19
gdb 39006	3.11587	1.76032	1.29494	0.1671	87.45	-0.2063	0.0214	0.2276	1007.3544	0.162009	-348.761295	-348.754459	-348.753515	-348.792052	28.953	
C	-0.0416214714	 1.5166809143	 0.0850532494	-0.331383
C	 1.3009916481	 0.8376418472	 0.0306410265	-0.122611
C	 1.9498701897	 0.4614584498	 1.3719121709	-0.26694
C	 1.0014632539	-0.5583831557	 1.9870743987	-0.242975
C	-0.0217159044	-0.8147701056	 1.1732862591	 0.297771
C	-1.07274865	-1.8837262859	 1.0046764138	-0.394745
C	-1.2752966705	-1.854206985	-0.5080785663	-0.085625
C	-0.6617183493	-0.8175281995	-1.0945303388	-0.200299
C	 0.0266772316	 0.0084395559	-0.0764165831	 0.324454
H	-0.4011313925	 1.9141234043	 1.0303857371	 0.109001
H	-0.3321039099	 2.0910764335	-0.7897084537	 0.105964
H	 1.9388196963	 1.0337377987	-0.8238085461	 0.085888
H	 2.9404058281	 0.0112874128	 1.2203346327	 0.10641
H	 2.1099933757	 1.3427111038	 2.0075761975	 0.106792
H	 1.206976671	-1.0403536918	 2.9361986146	 0.086446
H	-0.7492667498	-2.8620333809	 1.3785040307	 0.116167
H	-2.0146019832	-1.6500531255	 1.5241637349	 0.117233
H	-1.8838487908	-2.589889665	-1.0214691674	 0.092849
H	-0.7016422526	-0.5785685255	-2.1507939006	 0.095603
189.3671	209.4281	274.4069	373.9947	397.3501	459.0806	574.2137	616.9775	637.4062	726.2723	767.5908	788.3521	809.322	833.8186	862.1528	903.779	928.8891	942.978	956.3725	963.2818	983.8841	1011.3426	1039.9273	1070.0216	1079.9683	1094.0343	1139.8942	1160.9453	1188.0192	1225.2002	1259.7281	1280.2438	1295.8394	1334.5266	1361.9236	1408.1226	1469.6749	1472.9359	1484.734	1644.2195	1728.2751	2991.4879	3010.951	3036.5106	3052.9514	3109.2899	3170.8846	3188.2258	3193.3504	3199.4346	3212.0686
C1C2CC=C3CC=CC123	C1[C@H]2CC=C3CC=C[C@]123	
InChI=1S/C9H10/c1-2-7-3-4-8-6-9(7,8)5-1/h1,3,5,8H,2,4,6H2	InChI=1S/C9H10/c1-2-7-3-4-8-6-9(7,8)5-1/h1,3,5,8H,2,4,6H2/t8-,9-/m1/s1
