21
gdb 41628	2.69676	1.7956	1.47594	1.6877	80.11	-0.2428	0.0685	0.3113	989.0769	0.186131	-387.072956	-387.065805	-387.06486	-387.104535	29.28	
C	 0.481815477	 1.5206244496	-0.5818147388	-0.231776
C	 1.6261027292	 1.5212263108	 0.4700781465	-0.21478
C	 1.4026591915	-0.0030543122	 0.6776239704	-0.046755
C	 0.0400468293	 0.1116149045	-0.0764613453	 0.01265
C	-0.0807781788	-1.0745511535	-1.050375208	-0.259127
C	 1.3388831693	-1.6537585798	-1.2224661771	-0.063505
C	 2.2512283161	-1.0019790102	-2.2787855189	-0.080275
O	 2.9641829981	-0.2499323766	-1.2752372188	-0.290242
C	 2.2615206284	-0.9257088264	-0.1990863058	 0.113188
H	-0.2630794087	 2.3165874984	-0.5037709167	 0.090394
H	 0.8639928024	 1.5048651546	-1.605071014	 0.108366
H	 2.6137558022	 1.8222824041	 0.1195526748	 0.114456
H	 1.3703877131	 2.0920270236	 1.3663361423	 0.09187
H	 1.383590782	-0.3654753114	 1.7091548308	 0.059332
H	-0.8267298792	 0.184090432	 0.5849877259	 0.064848
H	-0.738025956	-1.8392464748	-0.6218671246	 0.097438
H	-0.5231106224	-0.7837769214	-2.010379606	 0.09915
H	 1.3504444357	-2.744581747	-1.2199401349	 0.072931
H	 2.9165244998	-1.6983966261	-2.8056360238	 0.096558
H	 1.7625312816	-0.3525812066	-3.0161288869	 0.097398
H	 2.9569957496	-1.5430439615	 0.3809980487	 0.067881
101.9996	136.6316	254.0033	316.0702	358.7107	469.2251	597.9887	638.9566	699.1443	744.24	796.9326	809.1449	864.1035	869.7231	882.7092	911.1761	939.0788	955.1922	970.1353	1008.371	1026.8803	1038.7268	1070.9378	1101.145	1113.9974	1124.369	1166.9605	1182.2692	1197.6882	1229.4708	1234.832	1252.7609	1264.0416	1272.3499	1275.2834	1303.0304	1326.846	1333.4669	1356.1501	1363.7207	1367.6917	1472.916	1483.5741	1493.9392	1526.2094	3005.2982	3031.2198	3032.2921	3047.1487	3058.8333	3061.8647	3065.4835	3071.4455	3078.5296	3099.7428	3112.9854	3134.4144
C1CC2C1CC1COC21	C1C[C@H]2[C@@H]1C[C@H]1CO[C@@H]21	
InChI=1S/C8H12O/c1-2-7-5(1)3-6-4-9-8(6)7/h5-8H,1-4H2	InChI=1S/C8H12O/c1-2-7-5(1)3-6-4-9-8(6)7/h5-8H,1-4H2/t5-,6-,7-,8+/m0/s1
