16
gdb 9104	5.32914	0.98785	0.84646	4.6654	69.56	-0.2663	0.013	0.2793	1310.9354	0.128007	-379.935934	-379.926495	-379.92555	-379.971699	31.127	
C	 0.055406895	 1.4416447069	-0.1236926602	-0.330546
N	 0.0163712408	-0.0056159754	-0.1007580251	-0.286108
C	-1.0764891592	-0.6213806106	 0.0465628066	 0.419521
C	-2.4786131239	-0.0895758114	 0.2190374074	-0.490554
O	-1.0878207633	-1.9850706744	 0.0651359451	-0.245503
C	 0.1863122049	-2.6000567786	-0.0896909297	-0.193975
C	-0.006835113	-4.0498165029	-0.045556922	 0.267665
N	-0.1169518749	-5.1986499438	-0.0160765604	-0.295449
H	 0.717291527	 1.7983243173	 0.673791295	 0.132682
H	 0.494432777	 1.7767032978	-1.0703774144	 0.132682
H	-0.9175912744	 1.9363704325	-0.0053584524	 0.107364
H	-2.7686634834	 0.5202498487	-0.6412357351	 0.150933
H	-3.1816472763	-0.9161158026	 0.3182907793	 0.153238
H	-2.5455304884	 0.5407953224	 1.1102366573	 0.150951
H	 0.6467239144	-2.307341173	-1.0395272597	 0.163529
H	 0.8700802379	-2.283911303	 0.7055047683	 0.16357
36.7451	54.5065	80.4479	124.7119	168.1395	237.7264	277.9389	318.4836	385.9279	424.8143	554.4869	575.0129	633.2935	831.5485	961.2392	981.3264	1018.125	1055.527	1073.3548	1134.0959	1135.0829	1156.6353	1240.4939	1283.5326	1377.878	1405.2698	1448.0414	1477.5185	1478.2675	1485.5522	1499.5609	1505.6404	1765.4438	2374.3419	3007.8299	3051.096	3055.7789	3072.4697	3077.8093	3085.6594	3117.5999	3159.5591
CN=C(C)OCC#N	CN=C(C)OCC#N	
InChI=1S/C5H8N2O/c1-5(7-2)8-4-3-6/h4H2,1-2H3	InChI=1S/C5H8N2O/c1-5(7-2)8-4-3-6/h4H2,1-2H3
