25
gdb 85938	2.43757	1.26889	1.102	1.2913	88.19	-0.2595	0.0665	0.326	1294.1711	0.22836	-389.518795	-389.50864	-389.507696	-389.553057	39.941	
C	-0.0431243271	 1.6209336448	 0.055553949	-0.409446
C	 0.0546404395	 0.099397068	 0.143710191	 0.036834
C	 0.5392941761	-0.5965699836	-1.146314948	-0.255448
C	 1.1331527691	-1.9805399429	-0.7205419145	 0.363375
C	 0.2545936835	-3.1430057223	-1.2065897776	-0.437468
C	 2.5587096037	-2.1450154496	-1.2731921955	-0.43562
C	 1.149924092	-1.9169717844	 0.8405281606	-0.284099
C	 1.0276477025	-0.4330630863	 1.2073119484	 0.115169
O	 2.2656761208	 0.2621313498	 1.0483417795	-0.436661
H	 0.9385334859	 2.0564898733	-0.147009747	 0.13355
H	-0.7262047443	 1.9222794091	-0.7455780845	 0.105815
H	-0.4160763009	 2.0518394159	 0.9911509316	 0.105242
H	-0.9327835975	-0.3041081787	 0.4072778617	 0.06611
H	-0.2683483821	-0.7058939813	-1.8771178452	 0.085154
H	 1.3147420763	 0.0156923479	-1.6180238061	 0.100319
H	 0.2473951046	-3.2026823039	-2.3008716587	 0.10862
H	 0.6206608941	-4.1031184759	-0.8242776018	 0.106376
H	-0.7823252563	-3.0254644507	-0.8717995444	 0.105328
H	 3.2068070553	-1.3473150862	-0.8994476757	 0.119875
H	 2.9913013623	-3.1083172813	-0.9776797909	 0.100208
H	 2.5631287288	-2.1017524817	-2.3684382564	 0.105897
H	 0.2896367489	-2.4567555178	 1.2545092566	 0.0899
H	 2.0473636944	-2.3777559474	 1.2698022939	 0.078264
H	 0.6435032396	-0.2849810628	 2.2279281109	 0.051538
H	 2.9055853307	-0.1363896419	 1.6458837931	 0.281169
61.5159	139.3025	221.815	243.3026	259.6263	273.8733	278.5538	298.7405	311.0595	340.4056	388.6728	425.4029	431.4931	503.6556	576.8834	675.8566	776.2531	841.7025	863.5644	890.558	913.0461	938.6095	945.5615	968.1709	986.8053	1009.1742	1030.8952	1083.7519	1091.1513	1115.1873	1147.383	1199.2736	1220.9459	1234.1079	1248.2038	1282.5469	1313.0051	1320.6204	1337.7383	1355.6828	1383.1485	1395.6074	1403.8688	1418.2256	1426.2225	1480.6819	1488.7566	1492.6575	1493.508	1497.9839	1502.8759	1504.2628	1514.6437	2981.1882	3008.0289	3016.3886	3020.9875	3029.4068	3033.9144	3044.0423	3064.8854	3078.9883	3085.0888	3086.8759	3088.6671	3094.0387	3112.7136	3122.9045	3823.6761
CC1CC(C)(C)CC1O	C[C@H]1CC(C)(C)C[C@H]1O	
InChI=1S/C8H16O/c1-6-4-8(2,3)5-7(6)9/h6-7,9H,4-5H2,1-3H3	InChI=1S/C8H16O/c1-6-4-8(2,3)5-7(6)9/h6-7,9H,4-5H2,1-3H3/t6-,7+/m0/s1
