19
gdb 79049	3.595	1.58506	1.34954	1.5725	78.63	-0.2505	0.0702	0.3207	986.309	0.161629	-385.808032	-385.801281	-385.800337	-385.838769	28.562	
O	 0.3058344901	 1.4290603243	-0.1801000104	-0.441628
C	 0.0735149538	 0.0515725089	-0.0700352508	 0.042211
C	 0.088893885	-0.6458270729	 1.3298866667	-0.142216
C	-1.3752751745	-0.1931773797	 1.6406029835	-0.079544
C	-2.0149199622	-1.5910212628	 1.7656695377	-0.079641
C	-3.2816781085	-1.5570372162	 0.8660187784	-0.218394
C	-2.782854507	-0.7387160358	-0.3907018393	-0.35743
C	-1.3675557073	-0.4987810888	 0.0983325475	 0.296786
C	-0.8234067882	-1.7886914751	 0.8041997305	-0.045041
H	-0.2066539522	 1.8771756105	 0.5018310572	 0.281472
H	 0.6805545647	-0.4216897933	-0.8483782505	 0.085433
H	 0.9231497975	-0.7274031154	 2.0273995936	 0.069702
H	-1.7045447645	 0.7417959339	 2.1010762366	 0.060609
H	-2.0970141576	-2.1196991243	 2.7179626771	 0.057352
H	-3.6102653816	-2.5641227104	 0.5899198519	 0.100158
H	-4.1227097472	-1.0650134973	 1.3653525959	 0.098915
H	-2.8313496493	-1.3243424857	-1.3132185356	 0.102872
H	-3.3553469243	 0.1806574857	-0.5432392749	 0.101552
H	-0.5056748369	-2.6891363257	 0.2747237048	 0.066832
184.9249	230.3157	270.3663	333.3847	367.5848	524.6299	543.3374	677.3295	720.5084	746.7011	803.1545	825.8098	847.9053	868.9962	874.138	898.5244	931.1839	934.9814	951.3856	981.188	1014.3438	1043.4228	1093.3922	1103.4982	1129.4926	1140.6807	1152.2922	1174.8961	1189.6906	1209.8379	1222.9794	1228.7316	1252.9839	1262.1954	1288.7838	1305.8828	1315.4113	1341.7536	1445.7129	1488.4852	1510.244	3043.7805	3056.6339	3067.2728	3070.9094	3081.3976	3085.1896	3093.978	3102.3598	3111.6974	3802.4785
OC1C2C3C4CCC13C24	O[C@H]1[C@H]2[C@@H]3[C@H]4CC[C@@]13[C@@H]24	
InChI=1S/C8H10O/c9-7-4-5-3-1-2-8(5,7)6(3)4/h3-7,9H,1-2H2	InChI=1S/C8H10O/c9-7-4-5-3-1-2-8(5,7)6(3)4/h3-7,9H,1-2H2/t3-,4+,5+,6-,7-,8-/m0/s1
