17
gdb 102906	2.73346	1.0137	0.83774	3.3949	74.48	-0.2507	0.0132	0.2639	1366.1908	0.134267	-417.960191	-417.950259	-417.949315	-417.996122	35.068	
O	-0.9153689789	 1.8297718967	 0.5535701784	-0.416549
C	-0.6455988675	 0.4605594927	 0.7803734577	-0.087063
C	-1.7084995373	-0.4340150001	 0.0946853648	-0.141456
N	-3.0764142472	-0.0859787994	 0.4706172704	-0.271668
C	-3.7012316755	-0.9293139254	 1.4868417321	-0.324181
C	-3.0242412109	-1.005850018	 2.790653229	 0.310878
C	-2.4553727675	-1.0615916529	 3.8491498569	-0.460399
C	-1.5481180466	-0.3019136531	-1.369856703	 0.28597
N	-1.3780413935	-0.1431936254	-2.5020837406	-0.324042
H	-0.741708268	 2.0206314032	-0.3761128573	 0.302098
H	 0.3601130635	 0.1744861412	 0.4427425831	 0.111463
H	-0.715271555	 0.3035679616	 1.8586575951	 0.139859
H	-1.5094402073	-1.4788067126	 0.3602170093	 0.131612
H	-3.0977450688	 0.8952475922	 0.7299994446	 0.242787
H	-4.7225062667	-0.5602659843	 1.63322045	 0.147983
H	-3.8040217009	-1.9420913615	 1.0773880789	 0.146106
H	-1.9658444117	-1.109823575	 4.7907927107	 0.2066
30.4182	82.4798	102.7998	154.0693	187.9579	209.6188	298.0467	340.3889	348.8106	417.3391	442.2024	542.3999	602.9648	630.1403	666.9331	692.5666	737.9169	848.3493	904.9672	918.8087	955.0954	1037.3205	1079.0343	1118.8373	1144.2481	1216.8706	1245.5938	1306.632	1357.2975	1367.3666	1389.3275	1418.0759	1462.9338	1494.2514	1499.8258	2224.5818	2351.9374	3012.9587	3030.7673	3055.3945	3069.4811	3121.3761	3500.0679	3527.7628	3790.3856
OCC(NCC#C)C#N	OC[C@@H](NCC#C)C#N	
InChI=1S/C6H8N2O/c1-2-3-8-6(4-7)5-9/h1,6,8-9H,3,5H2	InChI=1S/C6H8N2O/c1-2-3-8-6(4-7)5-9/h1,6,8-9H,3,5H2/t6-/m0/s1
