18
gdb 78280	3.39249	1.36741	1.18635	2.7748	71.88	-0.2316	0.0573	0.2888	1073.3117	0.14636	-439.002524	-438.994141	-438.993197	-439.034913	32.763	
C	-0.1645598249	 1.472186122	-0.0607596634	-0.312101
N	 0.1160738497	 0.0447932284	 0.0334599161	-0.087961
C	 1.4478452206	-0.4886313736	-0.1597625048	-0.059104
C	 2.5582708894	 0.3781759776	 0.3904473472	-0.240717
C	 3.2011757874	-0.3355707254	 1.5700373821	-0.004117
O	 4.1993579206	 0.3680563252	 2.2640303795	-0.445411
C	 1.8635265697	 0.3111251093	 1.7797765794	 0.434656
O	 1.6758092959	 1.2748278003	 2.7417666908	-0.475211
C	 0.7563951269	-0.5299051732	 1.1996061453	-0.141792
H	 0.6032114179	 2.1146919864	 0.387097928	 0.123929
H	-0.2773071659	 1.7363824151	-1.1171596828	 0.115342
H	-1.1148048791	 1.6714941235	 0.4436079244	 0.124677
H	 1.5728664352	-1.3180834825	-0.8477816558	 0.096397
H	 3.0434164661	 1.2204104963	-0.0896703139	 0.093597
H	 3.3362382928	-1.4191139568	 1.5665411704	 0.089217
H	 4.9735729892	 0.4563915072	 1.699366061	 0.297817
H	 2.5522313295	 1.4733748815	 3.1016206591	 0.295477
H	 0.2778879091	-1.3688205814	 1.6934240775	 0.095304
150.1823	165.3562	184.8723	246.3911	257.6023	307.7857	367.8305	408.3529	440.4986	480.8876	539.8238	655.3676	701.6657	742.8094	800.6823	850.0857	887.9217	911.9549	950.1866	1006.2475	1009.7763	1053.2969	1068.3454	1074.4083	1113.7778	1158.297	1165.3489	1181.9072	1220.6088	1251.161	1258.4129	1291.0607	1333.449	1344.9788	1423.6258	1436.214	1449.3045	1489.6702	1499.5428	3020.5994	3072.3165	3087.7682	3106.5432	3163.0065	3173.1702	3178.4553	3742.9622	3819.9691
CN1C2C3C(O)C3(O)C12	CN1[C@H]2[C@@H]3[C@@H](O)[C@]3(O)[C@@H]12	
InChI=1S/C6H9NO2/c1-7-3-2-5(8)6(2,9)4(3)7/h2-5,8-9H,1H3	InChI=1S/C6H9NO2/c1-7-3-2-5(8)6(2,9)4(3)7/h2-5,8-9H,1H3/t2-,3+,4+,5-,6-,7?/m1/s1
