16
gdb 23194	3.13237	1.18674	0.94475	2.5431	75.59	-0.2435	-0.0337	0.2098	1208.8042	0.122662	-437.824201	-437.815833	-437.814889	-437.857353	30.968	
O	-0.254128944	 1.418502912	 0.0550068109	-0.389481
N	 0.0096071678	 0.0378685911	-0.0000427786	-0.259934
C	-1.0671357001	-0.624382243	-0.0897863994	 0.364142
C	-2.5566571797	-0.3065131484	-0.0236425393	-0.331313
C	-2.8185905553	-1.8243235533	 0.0278908435	-0.080522
C	-2.2603612482	-2.5088240558	-1.1547270268	-0.316077
C	-1.262542881	-2.0987858212	-0.0739698275	 0.148673
C	-0.4969086669	-3.1065633269	 0.6816816794	 0.05879
O	-0.7784981779	-4.2828653485	 0.7181338196	-0.274305
H	 0.6307560495	 1.7917392842	 0.1279503245	 0.309668
H	-2.8094222582	 0.224498754	 0.897763641	 0.140295
H	-2.9935625588	 0.2286116494	-0.8719123302	 0.128883
H	-3.4712769824	-2.322407612	 0.7324335863	 0.125672
H	-2.399064882	-3.5842343268	-1.1937274447	 0.155108
H	-2.2151183253	-2.0049562976	-2.1161066709	 0.128172
H	 0.3655416226	-2.6960585872	 1.247254902	 0.092229
102.5796	113.4986	160.3773	213.9422	238.0254	336.9945	396.6174	403.535	430.8822	522.7777	597.5768	696.5677	745.9587	762.4538	851.3863	890.6719	929.4053	974.3792	993.086	1036.5878	1051.819	1057.7297	1088.7562	1109.6995	1154.203	1230.5102	1261.2422	1294.2363	1362.4301	1408.2476	1437.1989	1464.3209	1485.8919	1782.3298	1793.1753	2916.0402	3059.7482	3111.9558	3122.01	3211.0196	3222.8871	3819.4901
ON=C1CC2CC12C=O	ON=C1C[C@H]2C[C@@]12C=O	
InChI=1S/C6H7NO2/c8-3-6-2-4(6)1-5(6)7-9/h3-4,9H,1-2H2	InChI=1S/C6H7NO2/c8-3-6-2-4(6)1-5(6)7-9/h3-4,9H,1-2H2/t4-,6-/m0/s1
