18
gdb 11474	4.55781	1.30491	1.18226	1.3815	64.17	-0.2576	0.0657	0.3233	1061.2964	0.153682	-422.072152	-422.063815	-422.062871	-422.105555	30.091	
C	-0.3603968684	 1.1886460893	-0.1198972861	-0.24278
O	-0.1576148003	-0.2075565584	-0.2440533464	-0.240543
C	 0.8568579272	-0.5470107465	-1.1503464818	 0.226494
C	 1.0202364842	-2.0767284309	-1.1333761017	-0.277209
C	 0.6712833582	-2.5180298219	-2.5644788048	 0.113436
O	-0.0568170145	-3.7314068436	-2.5333436089	-0.427463
C	-0.1255059411	-1.3051804421	-3.0775893055	-0.128198
O	 0.5243409349	-0.1877885689	-2.4862099553	-0.252886
H	 0.5506502565	 1.6940383872	 0.2361118293	 0.103757
H	-0.6593934476	 1.6386315099	-1.0735395377	 0.125629
H	-1.1552132363	 1.3320030032	 0.6152390216	 0.125428
H	 1.7713137571	 0.0145674097	-0.9111513739	 0.066597
H	 2.0221000559	-2.3813315648	-0.8273710012	 0.109811
H	 0.2959099436	-2.5087031128	-0.4395500111	 0.136343
H	 1.5878803711	-2.6284300524	-3.1616506187	 0.072406
H	-0.1644500549	-4.0420807818	-3.4375440376	 0.285791
H	-0.1006041984	-1.1725900325	-4.16276445	 0.098245
H	-1.1705769073	-1.3954853126	-2.7472980101	 0.105142
40.933	123.663	157.4847	211.5225	268.8795	283.1419	345.4515	412.0384	475.1123	557.1894	588.4931	737.4457	834.8892	889.9102	938.536	969.1027	1019.2171	1057.0748	1065.7233	1109.4399	1121.5293	1144.3731	1180.7903	1190.7736	1229.9975	1235.5414	1282.7711	1294.1267	1324.0511	1367.5274	1376.3893	1400.101	1437.124	1475.9224	1483.7914	1484.1298	1513.3042	1515.0015	2987.8011	2992.9151	3004.3819	3006.9586	3064.5606	3083.0366	3092.6785	3124.8511	3136.2078	3822.9301
COC1CC(O)CO1	CO[C@H]1C[C@@H](O)CO1	
InChI=1S/C5H10O3/c1-7-5-2-4(6)3-8-5/h4-6H,2-3H2,1H3	InChI=1S/C5H10O3/c1-7-5-2-4(6)3-8-5/h4-6H,2-3H2,1H3/t4-,5-/m1/s1
