21
gdb 72129	2.1256	1.97289	1.72443	1.4797	81.43	-0.2333	0.0888	0.3222	978.9224	0.183154	-387.068631	-387.0607	-387.059756	-387.10033	32.503	
C	 0.0275551202	 1.548297412	-0.0432954262	-0.515377
C	 0.0151411325	 0.0431891858	-0.0912521959	 0.280429
C	 0.4544199342	-0.8204900679	-1.287457515	-0.30189
C	-0.2886176675	-1.9663668156	-0.5525739289	-0.122933
C	 0.6152806529	-2.1711438926	 0.6792452044	-0.212557
C	 0.3146778975	-0.7688701614	 1.237830329	 0.027291
O	-1.1144012429	-0.878725457	 1.511278897	-0.335358
C	-1.2550109169	-0.842768335	 0.0823573616	 0.43719
C	-2.6386230656	-0.6061076802	-0.4409506045	-0.514942
H	 1.0515425837	 1.9373269057	 0.0015749708	 0.116924
H	-0.4508883829	 1.9801606789	-0.9292851654	 0.114655
H	-0.5071420276	 1.9101993646	 0.8414035587	 0.128949
H	-0.0515834398	-0.4963334859	-2.2022723002	 0.095006
H	 1.5208362689	-0.959069849	-1.4917998011	 0.089271
H	-0.6729395156	-2.8388959049	-1.0787848978	 0.062904
H	 0.2756893682	-2.9407475919	 1.3753971584	 0.103915
H	 1.6610668893	-2.3477713994	 0.4119914775	 0.09225
H	 0.8907737085	-0.3641749404	 2.0698760759	 0.072512
H	-3.0531260556	 0.3267182014	-0.0466722297	 0.127766
H	-2.6358313215	-0.5523383211	-1.5340477472	 0.122634
H	-3.3021269699	-1.4260626061	-0.1451941815	 0.13136
179.2895	189.8185	217.1805	248.8191	269.0292	308.9574	454.9196	476.3851	516.8134	609.4354	632.2292	696.7712	729.5485	796.005	847.325	876.0852	890.7811	901.9283	930.542	949.6972	961.9573	986.7167	1019.2419	1059.8625	1086.2024	1126.0608	1132.3633	1155.0023	1168.2632	1197.2259	1218.3861	1236.0847	1248.4171	1296.8173	1306.8067	1325.5099	1362.8727	1407.6446	1415.0727	1475.8831	1481.9689	1490.5051	1492.9699	1497.4401	1504.9943	3023.4679	3034.5357	3042.4313	3060.4993	3084.6982	3094.1793	3097.0716	3102.1001	3111.8103	3118.3657	3121.8344	3128.2978
CC12CC3CC1OC23C	C[C@@]12C[C@H]3C[C@@H]1O[C@@]23C	
InChI=1S/C8H12O/c1-7-4-5-3-6(7)9-8(5,7)2/h5-6H,3-4H2,1-2H3	InChI=1S/C8H12O/c1-7-4-5-3-6(7)9-8(5,7)2/h5-6H,3-4H2,1-2H3/t5-,6+,7-,8-/m1/s1
