20
gdb 121761	2.71526	0.84194	0.7499	2.8205	72.66	-0.241	0.0232	0.2642	1597.9212	0.169343	-477.434261	-477.423542	-477.422598	-477.471781	36.808	
C	 0.8362722666	 0.2733870284	 0.3879015594	-0.247268
O	 1.1890319859	 0.1194199957	-0.9762212552	-0.235696
C	 0.1517104195	-0.4319148339	-1.762578293	-0.181519
C	 0.0859445078	-1.9662042349	-1.7423224663	 0.354188
O	-0.9046413959	-2.5658427553	-2.1203479336	-0.37632
N	 1.2268928767	-2.5668176652	-1.3123503173	-0.30856
C	 1.3526150228	-4.0128826498	-1.2000717452	-0.164995
C	 1.8005582073	-4.661101481	-2.5127316416	-0.062239
O	 3.0641150128	-4.1842192549	-2.9445843353	-0.421165
H	-0.0221416596	 0.9504574214	 0.50132141	 0.121517
H	 0.5877830321	-0.6878359446	 0.8598996918	 0.116884
H	 1.7007626823	 0.7067117801	 0.8958185182	 0.134321
H	-0.8361478929	-0.0527751472	-1.4717148836	 0.125008
H	 0.3340784475	-0.1197656357	-2.79709787	 0.136481
H	 1.9748357382	-1.9614093319	-1.0123339597	 0.259996
H	 2.0826956556	-4.2310287607	-0.4150566008	 0.110846
H	 0.3801889657	-4.4194102482	-0.9046533973	 0.131034
H	 1.9112280423	-5.7401327253	-2.362982092	 0.111204
H	 1.0245780615	-4.5026899887	-3.2743929413	 0.115553
H	 2.9490823338	-3.2582416284	-3.1819270472	 0.280728
28.424	63.9249	94.9305	101.866	137.6581	172.3399	228.2524	251.2046	314.4735	370.1439	394.4167	497.6074	522.5998	548.9396	624.039	682.6376	817.5826	887.1672	942.6705	955.6689	1028.9395	1063.6264	1112.4185	1121.5673	1134.8083	1181.5467	1212.0465	1219.233	1246.0609	1299.5322	1309.4198	1364.1167	1391.774	1394.8514	1415.0118	1457.9956	1463.8318	1485.0118	1489.0168	1502.5302	1505.4	1539.9706	1783.4223	2991.393	3014.0717	3028.8564	3046.08	3051.1807	3079.7303	3083.9583	3108.715	3122.8893	3634.4019	3813.0052
COCC(=O)NCCO	COCC(=O)NCCO	
InChI=1S/C5H11NO3/c1-9-4-5(8)6-2-3-7/h7H,2-4H2,1H3,(H,6,8)	InChI=1S/C5H11NO3/c1-9-4-5(8)6-2-3-7/h7H,2-4H2,1H3,(H,6,8)
