17
gdb 125319	4.61898	0.85183	0.77907	2.4143	76.96	-0.237	-0.0373	0.1996	1463.542	0.135288	-418.037421	-418.028393	-418.027449	-418.073401	30.945	
C	 0.211107464	 1.5057669369	-0.1471683578	-0.505451
C	 0.0435285251	 0.0214190962	-0.0317741705	 0.188436
C	 0.0272803337	-0.913522016	-1.0473821515	-0.129948
N	-0.1744303267	-2.1315859237	-0.4754274117	 0.050978
C	-0.1674079388	-3.4247479354	-1.113213936	-0.246367
C	 1.2289376863	-4.0444489902	-1.1719246432	 0.148636
O	 1.5411666531	-4.887176346	-1.9683135901	-0.224508
N	-0.2738161884	-2.0517985673	 0.8677155465	-0.269418
C	-0.1478166636	-0.755075324	 1.1355270146	-0.070395
H	 1.0589252717	 1.8637453496	 0.4471374701	 0.13267
H	 0.3870890722	 1.8034382794	-1.1845226234	 0.12458
H	-0.677266151	 2.0430650797	 0.203431851	 0.133125
H	 0.1310672444	-0.8040966504	-2.1161620354	 0.134179
H	-0.8085003287	-4.0912754644	-0.5265056013	 0.165811
H	-0.5762548506	-3.3577854058	-2.1244560787	 0.148334
H	 1.929982235	-3.6575556964	-0.4003428236	 0.107249
H	-0.2060469876	-0.4145737623	 2.1598520309	 0.112086
31.1196	54.3308	67.2969	95.2058	252.048	258.1794	362.2161	395.4779	426.0959	624.9536	645.3956	676.8608	714.2515	788.6309	814.2539	879.481	999.3662	1003.5171	1029.6131	1035.5213	1063.7285	1066.5551	1185.7386	1192.7193	1237.7652	1329.8735	1362.0203	1391.3573	1404.7572	1410.535	1424.9847	1439.8912	1470.2433	1485.3583	1507.1409	1616.0345	1842.4405	2904.0493	3031.6301	3060.6702	3082.5742	3110.5211	3120.9974	3237.1296	3251.9461
CC1=CN(CC=O)N=C1	Cc1cn(CC=O)nc1	
InChI=1S/C6H8N2O/c1-6-4-7-8(5-6)2-3-9/h3-5H,2H2,1H3	InChI=1S/C6H8N2O/c1-6-4-7-8(5-6)2-3-9/h3-5H,2H2,1H3
