20
gdb 30190	4.33673	1.10451	0.92527	1.9895	89.15	-0.1905	0.0546	0.2451	1322.8368	0.171644	-366.029301	-366.020578	-366.019634	-366.062907	32.885	
C	-0.4556644461	 1.5123514847	-0.4791320953	-0.399156
C	 0.008161092	 0.1470836496	-0.0045058185	 0.059702
C	 1.1123550814	-0.604242508	-0.8518899535	-0.400912
C	 1.9376804876	-0.5598414098	 0.4216622251	 0.35588
C	 2.9269937079	-0.9411647714	 1.296659819	-0.442987
C	 2.5311096006	-0.4120594147	 2.574577287	 0.299637
C	 3.3204537366	-0.5078843167	 3.847840489	-0.49127
C	 1.3093296171	 0.2319456372	 2.430374778	-0.259046
N	 0.9959776055	 0.1529149499	 1.0986766583	 0.015996
H	 0.3998015701	 2.1517369488	-0.7167349096	 0.129516
H	-1.0745523628	 1.4091528093	-1.376588628	 0.123204
H	-1.0560940812	 2.0122174801	 0.2878488898	 0.125777
H	-0.8481262265	-0.4977445234	 0.2234211	 0.096836
H	 0.81605007	-1.5968504373	-1.2019085141	 0.119022
H	 1.4932173734	-0.0281412166	-1.7010260054	 0.114142
H	 3.8214754169	-1.5099027538	 1.0931905651	 0.087839
H	 4.2563164478	 0.0620194382	 3.7956108578	 0.12114
H	 2.7483337388	-0.1208886471	 4.6964955869	 0.114454
H	 3.5917542196	-1.5448702552	 4.0780644635	 0.119681
H	 0.7094239913	 0.7617500459	 3.1530900449	 0.110545
57.7781	105.7912	168.6321	212.6147	246.879	268.6625	323.4739	411.6057	501.4556	569.5757	628.0935	649.3706	699.8665	728.465	773.1452	800.9686	868.9522	915.8923	973.0177	998.3337	1023.5392	1058.1914	1063.6257	1097.0549	1105.7813	1140.2083	1178.5732	1202.9477	1234.8655	1254.266	1346.1194	1367.1981	1398.6086	1408.4794	1420.1803	1425.2027	1483.1679	1486.845	1489.1394	1496.4937	1500.3337	1527.7633	1596.1294	3019.8885	3035.2928	3042.0682	3049.9707	3067.1031	3097.3958	3100.1293	3105.9377	3116.5011	3245.1918	3256.2111
CC1CC2=CC(C)=CN12	C[C@H]1Cc2cc(C)cn12	
InChI=1S/C8H11N/c1-6-3-8-4-7(2)9(8)5-6/h3,5,7H,4H2,1-2H3	InChI=1S/C8H11N/c1-6-3-8-4-7(2)9(8)5-6/h3,5,7H,4H2,1-2H3/t7-/m0/s1
