13
gdb 129494	2.97211	1.63915	1.05649	2.0616	61.52	-0.2527	-0.022	0.2308	1020.3381	0.090498	-486.099863	-486.092495	-486.091551	-486.131963	27.495	
N	 0.8873419309	-0.0303902008	 0.5411735055	-0.56685
C	-0.131769898	 0.2762116521	-0.2777788522	 0.500333
O	-0.2244904287	 1.2164410435	-1.0338801498	-0.38428
N	-1.2139269172	-0.6672185209	-0.197111794	-0.207007
C	-2.3655962331	-0.5597583066	-0.9391424715	 0.102179
N	-3.2058100286	-1.5052077124	-0.7193670067	-0.143035
O	-2.5691751742	-2.332507538	 0.260287765	-0.245103
C	-1.3511934981	-1.8186100084	 0.5783140233	 0.546684
N	-0.5012664687	-2.2728376934	 1.4031927708	-0.629234
H	 1.6844309689	 0.5818192023	 0.5357508275	 0.275609
H	 0.8389892017	-0.8618179317	 1.1270585342	 0.300696
H	-2.5228356803	 0.251284606	-1.6318167781	 0.202598
H	-0.8253865045	-3.1255100917	 1.8493552559	 0.247409
94.6342	136.4655	238.2565	249.5424	396.4396	397.0185	441.975	571.9102	600.8666	653.8521	668.0621	734.9919	751.9922	774.4688	775.1795	877.3254	923.208	939.4529	1042.3057	1145.6755	1160.4349	1214.858	1314.3356	1343.3474	1403.1748	1619.099	1660.9638	1764.4689	1847.3447	3293.0322	3424.8964	3555.6804	3708.8368
NC(=O)N1C=NOC1=N	NC(=O)N1C=NO[C@H]1[NH]	
InChI=1S/C3H4N4O2/c4-2(8)7-1-6-9-3(7)5/h1,5H,(H2,4,8)	InChI=1S/C3H5N4O2/c4-2(8)7-1-6-9-3(7)5/h1,3,5H,(H2,4,8)/t3-/m0/s1
