25
gdb 120189	3.43241	0.84104	0.76398	0.1358	94.41	-0.2841	0.0943	0.3784	1661.5941	0.229314	-352.312241	-352.302558	-352.301614	-352.347177	37.113	
C	-0.2924110073	 1.6559354665	 0.3126502279	-0.380565
C	-0.0614948481	 0.144682546	 0.232856743	-0.154488
C	 0.5625208669	-0.438979296	 1.5087786445	-0.235426
C	 0.7301926322	-1.9530421941	 1.4355453807	 0.067925
C	 1.8772675984	-2.6313609662	 0.609260014	-0.067612
C	 2.8645964269	-2.211878464	 1.7367982051	-0.23137
C	 1.5980122476	-2.7485113654	 2.4661005835	-0.087991
C	 1.6332890472	-3.9348385788	 1.4432701404	 0.069856
C	 0.4475454471	-4.8591157674	 1.2061970353	-0.446798
H	 0.6487846154	 2.1922433263	 0.4780232968	 0.112713
H	-0.7377664433	 2.0429251291	-0.6093850126	 0.109381
H	-0.9649954981	 1.9104034602	 1.1396368222	 0.112335
H	-1.0149798412	-0.3617210774	 0.0315931429	 0.092319
H	 0.5872198395	-0.0829293054	-0.6229692483	 0.096916
H	 1.5114310811	 0.0708110188	 1.7063946625	 0.093341
H	-0.0882088832	-0.2035841673	 2.3632960028	 0.089932
H	-0.2556388964	-2.3924377417	 1.2581114276	 0.056027
H	 2.0448451777	-2.5674615445	-0.468402091	 0.060308
H	 3.7705491901	-2.8170008669	 1.8343675134	 0.084877
H	 3.0961354756	-1.1520367689	 1.8392479217	 0.090276
H	 1.439703382	-2.8167082657	 3.5451387145	 0.059384
H	 2.5423216818	-4.5404807024	 1.5408581719	 0.058335
H	-0.5080377845	-4.3403082358	 1.1011348276	 0.11938
H	 0.6037063878	-5.4483748146	 0.2954862585	 0.115474
H	 0.3479374648	-5.5667646444	 2.0370110052	 0.11547
66.2659	77.7522	112.6901	165.6979	242.55	254.8043	278.6254	312.332	363.6327	430.6511	553.0202	611.3754	729.9169	755.6997	772.1585	796.7614	838.4881	874.6247	896.8742	907.0117	916.5628	1012.1609	1024.3457	1029.7564	1039.3937	1055.7469	1059.0514	1072.8743	1120.9981	1137.4704	1142.357	1149.131	1176.0326	1193.5149	1207.4789	1243.3739	1247.0214	1265.0007	1273.3323	1309.2852	1330.1294	1385.3795	1403.1852	1410.2329	1426.3896	1439.7696	1480.8831	1492.3985	1495.2715	1499.3041	1502.4798	1509.7314	1531.4864	3005.8195	3015.8106	3025.4654	3027.4059	3033.2502	3041.9456	3053.9949	3058.4225	3074.5817	3078.2737	3086.8656	3087.1547	3094.5189	3099.3123	3116.9174	3134.9408
CCCC1C2CC1C2C	CCC[C@H]1[C@H]2C[C@@H]1[C@H]2C	
InChI=1S/C9H16/c1-3-4-7-8-5-9(7)6(8)2/h6-9H,3-5H2,1-2H3	InChI=1S/C9H16/c1-3-4-7-8-5-9(7)6(8)2/h6-9H,3-5H2,1-2H3/t6-,7-,8-,9+
