17
gdb 37810	2.59974	2.16928	1.70453	1.4084	66.16	-0.2334	0.0741	0.3074	852.0556	0.138814	-458.935063	-458.928681	-458.927736	-458.965656	26.13	
C	-0.0155499863	 1.5525835971	 0.0258924049	-0.104487
O	 1.2491759022	 2.1831511577	 0.0144707464	-0.231382
C	 1.9547740208	 2.0903937218	-1.1992707751	-0.098431
C	 2.2168184752	 0.6411854392	-1.648111415	 0.14952
O	 2.5029017503	-0.1790691597	-0.5319991308	-0.242548
C	 1.29524443	-0.8019314904	-0.1752061488	 0.052952
C	 0.0211897697	 0.0294478514	-0.0698234037	-0.140179
C	 0.3861639017	-0.6848160167	-1.3563140068	 0.035243
O	 1.0830351727	 0.0800970416	-2.3082184926	-0.265718
H	-0.4649615971	 1.8374469936	 0.9813929231	 0.116181
H	-0.6529393203	 1.9545590245	-0.779021912	 0.09877
H	 1.4372290635	 2.6122290182	-2.0203942711	 0.09747
H	 2.9147688317	 2.5850260776	-1.0207107826	 0.114309
H	 3.0629779808	 0.6112325965	-2.3448702169	 0.099274
H	 1.4514530833	-1.6887720031	 0.4248070049	 0.114411
H	-0.759765209	-0.4652704083	 0.5038449387	 0.096096
H	-0.2070832594	-1.4736877312	-1.8005011224	 0.108518
143.8491	270.7139	290.5687	383.8086	399.3248	515.1002	641.5515	723.5373	724.306	760.2227	787.3581	818.2163	836.7351	891.5583	912.543	963.2164	1003.3196	1041.5377	1051.4948	1075.2861	1084.8936	1108.4411	1122.7694	1125.9984	1190.5409	1202.532	1271.4893	1286.8818	1330.1324	1336.9056	1367.6133	1375.8351	1381.3245	1408.659	1435.5271	1478.5793	1493.0549	2968.5348	2983.9551	3043.7812	3081.9679	3085.6704	3133.9203	3194.2544	3204.8581
C1OCC2OC3C1C3O2	C1OC[C@H]2O[C@H]3[C@@H]1[C@H]3O2	
InChI=1S/C6H8O3/c1-3-5-6(3)9-4(8-5)2-7-1/h3-6H,1-2H2	InChI=1S/C6H8O3/c1-3-5-6(3)9-4(8-5)2-7-1/h3-6H,1-2H2/t3-,4+,5+,6-
