17
gdb 30368	4.32404	1.06617	0.86722	2.8459	82.29	-0.215	-0.0171	0.1979	1314.5503	0.136542	-418.037962	-418.029392	-418.028448	-418.071496	31.711	
C	 0.0667411868	 1.3688532083	-0.1057183294	-0.337586
N	 0.0326121587	-0.0789319337	-0.1368252709	-0.276193
C	-1.0990492701	-0.6573609867	-0.0025209957	 0.234533
N	-2.3422107855	-0.0362769461	 0.1013032826	-0.567484
C	-1.1790949316	-2.122305896	-0.0192639622	 0.362228
C	-2.2242240563	-2.9866401466	-0.2007598625	-0.280596
C	-1.6779933266	-4.3043114272	-0.125398654	-0.173609
C	-0.3460417218	-4.1385584737	 0.0953184883	-0.013614
O	-0.0291893998	-2.8246095658	 0.1624590544	-0.157866
H	 1.1062408641	 1.7064426373	-0.1071263419	 0.125716
H	-0.4265120113	 1.8155120446	-0.9831181286	 0.117341
H	-0.4142304825	 1.7967139546	 0.7918561644	 0.097789
H	-2.3189756989	 0.949394461	 0.3122098757	 0.253655
H	-3.0386709309	-0.5351963333	 0.6340382847	 0.250761
H	-3.2492808173	-2.7184139886	-0.4029932151	 0.112858
H	-2.2031547163	-5.2406937425	-0.2279611498	 0.114265
H	 0.4760701293	-4.8230004553	 0.2258960801	 0.137801
68.4974	128.3265	134.6541	160.2408	283.0381	314.1206	397.2588	406.5314	467.1458	540.9591	613.5628	655.7677	729.3748	751.5837	765.4002	817.6048	856.2779	902.3478	930.8989	995.3032	1040.8565	1099.0835	1104.7084	1113.9759	1170.6572	1192.5213	1219.6295	1259.1808	1360.905	1429.0284	1433.7962	1488.3088	1506.1162	1519.5095	1610.9554	1638.5487	1721.6532	2943.4689	3003.464	3096.9876	3252.0723	3263.4253	3285.8978	3578.3958	3683.0308
CN=C(N)C1=CC=CO1	CN=C(N)c1ccco1	
InChI=1S/C6H8N2O/c1-8-6(7)5-3-2-4-9-5/h2-4H,1H3,(H2,7,8)	InChI=1S/C6H8N2O/c1-8-6(7)5-3-2-4-9-5/h2-4H,1H3,(H2,7,8)
