17
gdb 133848	3.70013	1.86033	1.68606	3.0732	75.66	-0.2022	-0.0821	0.1201	859.4671	0.136508	-380.721537	-380.714912	-380.713968	-380.751987	27.664	
C	 0.7697962703	-0.1783977797	-0.1874967914	-0.528666
C	 2.2453440626	 0.0097046446	-0.0872257636	 0.297769
C	 3.0245569744	 1.2101802071	 0.5667066625	-0.110948
C	 3.2703856798	-0.227362868	 0.9706543723	-0.097702
N	 4.3344479742	-0.5891723622	-0.0139369309	-0.098166
C	 5.3000616145	 0.5533723916	-0.0015576706	-0.181335
C	 4.2549628606	 1.5741332607	-0.4651828023	-0.033156
N	 3.7166562644	 0.9380989852	-1.725515683	-0.246893
C	 3.4300489717	-0.1473060294	-1.0845263335	 0.064367
H	 0.2747161298	 0.186842578	 0.7181915015	 0.129226
H	 0.5073245604	-1.2335070342	-0.314306195	 0.135119
H	 0.3702427263	 0.3824939764	-1.0376548371	 0.148537
H	 2.5334997532	 1.9285413656	 1.2135135081	 0.094856
H	 3.2256167773	-0.6919479372	 1.947088074	 0.104467
H	 6.103538428	 0.4047948466	-0.7246294706	 0.125245
H	 5.7002589984	 0.6950359353	 1.003513968	 0.113733
H	 4.4917050743	 2.6305859697	-0.5829411283	 0.083548
201.2912	210.672	249.8448	377.8416	456.5842	555.9922	564.5078	603.1382	666.1113	728.2917	778.5142	798.6742	808.6014	842.8	878.8457	891.9683	907.6287	935.3704	980.441	1026.5965	1039.9783	1052.2279	1065.8588	1099.3968	1150.1025	1155.983	1202.3209	1206.4252	1213.6152	1230.9142	1278.2623	1397.5386	1430.0498	1472.2106	1482.7178	1483.8502	1495.0509	3036.172	3084.6555	3102.7335	3110.6685	3134.7878	3147.0782	3184.0928	3199.4666
CC12C3C1N1CC3N=C21	C[C@@]12[C@H]3[C@@H]1N1C[C@H]3[N][C]21	
InChI=1S/C7H8N2/c1-7-4-3-2-9(5(4)7)6(7)8-3/h3-5H,2H2,1H3	InChI=1S/C7H8N2/c1-7-4-3-2-9(5(4)7)6(7)8-3/h3-5H,2H2,1H3/t3-,4-,5+,7-/m1/s1
