17
gdb 9726	3.58126	1.56892	1.49754	3.1072	67.81	-0.2726	0.0337	0.3063	919.2779	0.143294	-363.885542	-363.87775	-363.876806	-363.917972	28.622	
C	 0.246616851	 1.4212355572	 0.0009077864	-0.435679
C	-0.1244273951	-0.0750654324	-0.010586129	 0.142516
C	 0.5418257118	-0.8194969777	-1.2168671466	-0.285271
C	 1.7104413253	-1.6004157119	-0.5642884109	-0.078137
O	 1.8453866051	-1.0854309595	 0.7548665512	-0.23979
C	 0.536077136	-0.8063690762	 1.1961684986	-0.117394
C	-1.5780487035	-0.2355527013	-0.0000897599	 0.240754
N	-2.7270600833	-0.3622229553	 0.0232581857	-0.34531
H	 1.3337115035	 1.5154906029	 0.0696508907	 0.138614
H	-0.0929595335	 1.9166942832	-0.9123764344	 0.134242
H	-0.2047123786	 1.9314240223	 0.8562437654	 0.135026
H	-0.161351721	-1.4898022721	-1.7135751933	 0.131115
H	 0.8914857078	-0.0956276641	-1.9557988643	 0.122782
H	 1.483298886	-2.6763716453	-0.5306199352	 0.104272
H	 2.6662838249	-1.4649858717	-1.0749794779	 0.119279
H	 0.5948298588	-0.1842404563	 2.091759583	 0.125087
H	-0.0160825754	-1.7289157816	 1.4339213706	 0.107894
51.6017	166.8562	186.1849	239.3663	269.5491	350.5363	378.4346	505.9774	558.1128	587.7134	670.143	774.6876	826.1391	932.1974	936.9113	961.0243	978.1958	990.925	1029.3787	1109.0982	1163.606	1178.1632	1196.7306	1239.478	1273.0187	1296.2535	1309.2511	1358.379	1392.2622	1414.9562	1492.2535	1495.3164	1500.5458	1507.2403	1525.1564	2352.7369	2985.9346	2995.2402	3045.5038	3078.1244	3102.3102	3110.9447	3123.3121	3128.2165	3130.7935
CC1(CCOC1)C#N	C[C@]1(CCOC1)C#N	
InChI=1S/C6H9NO/c1-6(4-7)2-3-8-5-6/h2-3,5H2,1H3	InChI=1S/C6H9NO/c1-6(4-7)2-3-8-5-6/h2-3,5H2,1H3/t6-/m0/s1
