19
gdb 100592	2.19545	1.08276	0.79046	1.3781	74.01	-0.2633	-0.0558	0.2075	1452.3403	0.155411	-460.19164	-460.18126	-460.180316	-460.228486	36.039	
C	-0.1853889346	 1.2355969504	 0.2989913876	-0.383788
C	-0.0187551129	-0.2411264122	-0.0654388551	-0.198405
C	 0.7933301909	-0.4165419835	-1.3698157243	 0.046801
O	 2.0710167922	 0.1492177531	-1.2528994757	-0.433966
C	 0.9136798818	-1.8932572893	-1.7267030946	 0.343619
O	 1.9955216584	-2.4412323682	-1.6894652852	-0.330474
C	-0.3486339091	-2.6678395648	-2.0772155155	-0.372747
C	-0.6569697757	-3.6880621759	-0.9849697459	 0.163146
O	-1.7077571255	-3.7512054945	-0.4071299079	-0.224953
H	 0.7910693965	 1.7175159787	 0.3868772316	 0.143864
H	-0.7593722219	 1.7682608746	-0.4672987182	 0.114533
H	-0.7138618926	 1.3435573693	 1.2504778485	 0.116952
H	 0.5153944025	-0.7668567661	 0.7355390555	 0.110092
H	-0.9997243221	-0.7200131562	-0.1662852959	 0.113207
H	 0.2462624497	 0.0817336908	-2.1883624168	 0.092247
H	 2.6893911452	-0.5980533841	-1.2822550162	 0.293773
H	-1.2177997	-2.027146117	-2.2314930165	 0.136008
H	-0.1309235271	-3.2281726178	-2.9946608622	 0.158725
H	 0.1867925443	-4.3729168472	-0.7592193435	 0.111366
32.3697	67.4529	94.6547	102.9756	169.9825	215.1743	247.2084	282.0991	348.8269	383.566	409.1014	475.0709	484.2895	622.2845	668.5587	778.2403	836.4756	868.7979	922.4391	990.0703	1007.2247	1034.6285	1078.1035	1098.1068	1115.7445	1169.8243	1196.6159	1265.7372	1289.2489	1292.7938	1347.2222	1371.3612	1405.5307	1406.3182	1440.1126	1455.9548	1477.482	1495.0374	1508.3918	1777.4175	1839.4546	2922.6793	2965.3008	3031.1844	3039.3188	3047.4702	3072.976	3106.6278	3131.6959	3138.4134	3689.9498
CCC(O)C(=O)CC=O	CC[C@@H](O)C(=O)CC=O	
InChI=1S/C6H10O3/c1-2-5(8)6(9)3-4-7/h4-5,8H,2-3H2,1H3	InChI=1S/C6H10O3/c1-2-5(8)6(9)3-4-7/h4-5,8H,2-3H2,1H3/t5-/m1/s1
