15
gdb 98036	5.07743	0.60231	0.56028	3.6117	76.58	-0.2727	-0.0727	0.2	1883.3479	0.10963	-457.712481	-457.703182	-457.702238	-457.748641	31.549	
O	-0.1889921376	 1.2591977925	-0.8311497282	-0.419294
C	-0.557075327	-0.0848421447	-0.8216497398	-0.135511
C	-1.0683537341	-0.4997370798	 0.5517711202	 0.18339
O	-1.1061234411	 0.3129835187	 1.4567340301	-0.311922
C	-1.4876523804	-1.8681679516	 0.7020586868	 0.024946
C	-1.8304964884	-3.023536707	 0.7837942545	 0.197529
C	-2.2341147677	-4.392240788	 0.9320634669	-0.135064
C	-3.2797848641	-4.9766813196	 0.0625590031	-0.155532
O	-1.9123304346	-5.2933687762	-0.1376216603	-0.202811
H	-0.3583543498	 1.5780180609	 0.070245065	 0.296506
H	-1.3497665508	-0.2956544066	-1.5583787577	 0.124193
H	 0.2887150068	-0.7423391839	-1.0823880307	 0.128169
H	-2.1042306486	-4.8133630261	 1.9276593585	 0.13623
H	-3.9010570395	-5.7751619948	 0.4649541827	 0.133749
H	-3.737952963	-4.3539712638	-0.7028610211	 0.135423
32.061	62.7956	73.7895	134.1807	190.2075	258.3579	311.9188	369.2973	398.4683	527.8325	563.1126	571.0059	589.6841	781.531	840.6767	866.7867	944.5701	1009.3766	1035.0913	1083.0632	1134.9204	1155.8149	1162.9573	1211.1045	1236.941	1278.9737	1311.0919	1398.7384	1446.5082	1487.4108	1518.4177	1747.2484	2327.6962	2975.8367	2993.1983	3092.5126	3128.4688	3188.6228	3681.9499
OCC(=O)C#CC1CO1	OCC(=O)C#C[C@H]1CO1	
InChI=1S/C6H6O3/c7-3-5(8)1-2-6-4-9-6/h6-7H,3-4H2	InChI=1S/C6H6O3/c7-3-5(8)1-2-6-4-9-6/h6-7H,3-4H2/t6-/m0/s1
