25
gdb 109677	2.53098	0.99544	0.91966	1.1001	89.95	-0.2358	0.0766	0.3124	1499.1125	0.225752	-389.478096	-389.466603	-389.465659	-389.514504	41.772	
C	-0.5379801711	 2.2413579835	 2.2828641495	-0.372075
C	-0.1710473597	 1.294111969	 1.1331890389	-0.210489
C	 0.637325984	 0.1014835673	 1.604145539	-0.067992
C	 0.0186873992	-1.1929483602	 2.1285893985	-0.07972
C	-1.4740248409	-1.4343609515	 2.2137020394	-0.415384
C	 0.7966791943	-1.1768231594	 0.825910465	 0.383832
C	 0.1346118258	-1.3887355541	-0.5193544875	-0.458857
O	 2.1114954346	-1.6817500012	 0.8935968499	-0.278486
C	 2.2049446913	-3.0907976554	 0.9243732407	-0.245322
H	 0.3599087113	 2.6138972512	 2.7880312474	 0.115298
H	-1.1001118893	 3.1074991522	 1.9195445363	 0.108023
H	-1.150669115	 1.7321097539	 3.0339223198	 0.118129
H	-1.0874428441	 0.9727259455	 0.6268420694	 0.092251
H	 0.4092108912	 1.844134108	 0.3805995087	 0.100018
H	 1.551867021	 0.3824289184	 2.1216847007	 0.08824
H	 0.5749065198	-1.6342135505	 2.9522412929	 0.085618
H	-2.0250092157	-0.9695042096	 1.3924013633	 0.115318
H	-1.7005431752	-2.50637241	 2.1911337015	 0.115433
H	-1.8822719544	-1.0324674101	 3.1479579777	 0.118207
H	-0.8353636926	-0.8927066277	-0.5835959265	 0.117968
H	 0.7734786664	-0.9885605533	-1.3135457135	 0.124359
H	-0.0304726715	-2.4521418107	-0.7231316962	 0.115141
H	 1.8898057947	-3.5556260786	-0.0207210953	 0.10471
H	 3.2566967959	-3.3352877376	 1.0940683441	 0.123404
H	 1.6043059	-3.522268659	 1.7385197663	 0.102375
66.9345	91.7108	135.305	152.9164	171.6397	174.8209	198.3915	233.2886	249.9079	280.5372	306.5229	350.9908	413.2554	447.3118	519.0232	590.363	684.7778	764.1367	802.6327	857.6573	917.3457	928.775	977.537	1027.8196	1045.8196	1050.6777	1090.0276	1104.611	1128.2537	1141.5738	1169.7409	1181.6892	1184.0426	1217.4223	1239.9969	1292.4031	1317.6855	1332.6648	1384.6336	1409.4283	1411.7093	1420.9439	1450.2195	1473.9589	1477.6799	1487.0267	1491.7163	1497.7696	1499.497	1501.4402	1507.0595	1509.9717	1520.5253	2986.171	3021.2662	3029.7206	3031.716	3033.3013	3040.9396	3061.272	3082.8177	3095.6925	3099.9982	3104.2784	3109.6905	3110.3716	3129.2226	3132.4101	3140.8269
CCC1C(C)C1(C)OC	CC[C@H]1[C@@H](C)[C@]1(C)OC	
InChI=1S/C8H16O/c1-5-7-6(2)8(7,3)9-4/h6-7H,5H2,1-4H3	InChI=1S/C8H16O/c1-5-7-6(2)8(7,3)9-4/h6-7H,5H2,1-4H3/t6-,7+,8+/m1/s1
