19
gdb 6908	4.6981	1.05952	0.99023	4.2929	76.54	-0.2802	0.0382	0.3184	1230.4852	0.164241	-327.94068	-327.931697	-327.930753	-327.974318	32.912	
C	 0.0381841973	 1.5355420548	-0.1263649312	-0.455814
C	 0.0006927635	 0.0240759015	 0.0079027595	 0.320851
C	-1.2195698942	-0.6108017328	-0.6352366928	-0.447805
C	 1.3031028643	-0.7435975484	-0.0488092128	-0.317621
C	 0.5390874208	-0.6561759344	 1.2515472131	-0.021572
C	 1.0968943249	 0.1147792011	 2.4398372503	-0.373816
C	 2.0127184581	-0.6995362795	 3.2419834566	 0.265215
N	 2.728908538	-1.3541080486	 3.8696180488	-0.30732
H	 0.9500774534	 1.9755839389	 0.2858439469	 0.113998
H	-0.0065784803	 1.8216910079	-1.1832902749	 0.122374
H	-0.8182526872	 2.0015767675	 0.3753532643	 0.117878
H	-1.2550523387	-0.3885631387	-1.7081319772	 0.118898
H	-1.2135595213	-1.6989949991	-0.5206293158	 0.11694
H	-2.1457292001	-0.2316563597	-0.1874011949	 0.116865
H	 1.3308145609	-1.6963118499	-0.566654812	 0.116857
H	 2.2232871301	-0.172296542	-0.1271369344	 0.113669
H	 0.0109850741	-1.5575514721	 1.5499985621	 0.100368
H	 1.6371438547	 1.0086623962	 2.113484557	 0.148545
H	 0.2867007916	 0.4609796972	 3.0934559075	 0.151488
52.7668	112.1676	192.4864	201.7831	229.2349	264.89	349.0791	366.5775	391.0767	414.7173	456.6858	541.9192	696.2401	833.5292	865.7939	892.4688	913.4507	942.8676	971.0733	998.0714	1018.974	1061.0622	1078.9118	1129.2619	1152.1775	1168.955	1239.5248	1286.5768	1322.9058	1338.705	1412.7554	1424.5356	1427.5241	1460.5022	1482.7238	1493.4231	1493.9477	1502.3329	1515.7368	2361.4741	3021.9407	3027.3053	3039.2614	3081.9318	3084.8985	3086.2448	3101.9029	3109.4793	3126.2068	3145.2406	3210.36
CC1(C)CC1CC#N	CC1(C)C[C@H]1CC#N	
InChI=1S/C7H11N/c1-7(2)5-6(7)3-4-8/h6H,3,5H2,1-2H3	InChI=1S/C7H11N/c1-7(2)5-6(7)3-4-8/h6H,3,5H2,1-2H3/t6-/m1/s1
