23
gdb 106494	2.34875	1.53893	1.21873	1.1868	84.87	-0.2577	0.0766	0.3343	1159.9345	0.20696	-388.288948	-388.280064	-388.27912	-388.32223	35.279	
C	 0.063116012	 1.5300758056	-0.1194679388	-0.387599
C	-0.022972051	 0.0153803517	 0.1071680537	-0.297102
C	-1.4311202061	-0.5433532347	 0.0510294339	 0.367292
C	-2.322353081	-0.495263508	-1.2321957947	-0.272455
C	-3.0884288961	-1.6421761151	-0.5137612563	-0.022225
C	-1.707258579	-2.0810570596	 0.0446613003	-0.271262
C	-3.694853845	-0.8969194492	 0.6892686875	-0.256574
C	-2.4384218368	-0.0688738357	 1.1200603236	 0.101522
O	-1.9329000948	-0.3906349338	 2.4080034098	-0.447162
H	 1.1040509786	 1.8675692032	-0.1065922931	 0.110375
H	-0.3661453734	 1.8152272985	-1.0863359121	 0.113374
H	-0.4709852289	 2.0839222408	 0.6590567919	 0.119678
H	 0.5906658	-0.4983815546	-0.6438736129	 0.08622
H	 0.4082587331	-0.2336914785	 1.0841107234	 0.112743
H	-2.8673940367	 0.4276285466	-1.4579399969	 0.083228
H	-1.7787121965	-0.8340143763	-2.1180120298	 0.093807
H	-3.7365692035	-2.3303017287	-1.0573457885	 0.055856
H	-1.0973191551	-2.5997036783	-0.6996097179	 0.088015
H	-1.673670392	-2.6056481593	 1.0021767679	 0.100228
H	-4.5463752231	-0.2670599808	 0.4128554519	 0.089211
H	-4.0068457338	-1.5712166254	 1.4931650736	 0.092446
H	-2.6205065078	 1.0125679098	 1.0469450863	 0.059354
H	-2.5901173033	-0.1334412882	 3.0614837174	 0.281029
69.1891	152.8021	194.036	199.3986	259.3645	277.3601	370.3243	392.9011	449.0398	475.1487	540.4946	602.4927	685.2043	775.8157	821.3582	845.463	862.8419	896.3161	907.1949	946.2217	967.8963	979.9684	1002.2867	1016.6396	1048.5595	1069.4926	1085.385	1095.3421	1124.4003	1155.9914	1186.4988	1203.1317	1227.2033	1247.8544	1263.1682	1267.3822	1283.1012	1310.8274	1327.2658	1354.0554	1380.4032	1411.3455	1425.5632	1481.7479	1483.8558	1486.3379	1500.9296	1506.139	1523.449	2993.4658	3022.254	3033.4808	3038.4893	3044.0522	3059.6055	3061.3066	3090.7717	3099.8582	3102.2748	3105.6545	3107.8274	3122.3672	3824.3956
CCC12CC(C1)CC2O	CC[C@@]12C[C@@H](C1)C[C@H]2O	
InChI=1S/C8H14O/c1-2-8-4-6(5-8)3-7(8)9/h6-7,9H,2-5H2,1H3	InChI=1S/C8H14O/c1-2-8-4-6(5-8)3-7(8)9/h6-7,9H,2-5H2,1H3/t6-,7-,8+/m1/s1
