16
gdb 24277	4.03452	1.67196	1.29881	2.7457	74.21	-0.1839	0.0511	0.235	945.1923	0.127167	-400.753415	-400.747035	-400.746091	-400.784032	26.372	
C	-0.0292298327	 1.4739313642	 0.1308341453	-0.339747
C	 1.2885784965	 0.7485732596	 0.0154648357	 0.069739
O	 2.000576337	 0.4236995764	 1.1969912881	-0.272457
C	 1.1955556414	-0.41423262	 1.9148904346	 0.403592
C	 1.1861130493	-1.0003340826	 3.1511814178	-0.336523
C	-0.0429564308	-1.742222278	 3.1967825676	-0.128554
C	-0.7261765636	-1.5610834373	 2.0167429464	-0.156399
N	 0.064434135	-0.7497067991	 1.224217737	-0.018373
C	-0.0052941074	-0.038243735	-0.0124903746	-0.045695
H	-0.3218804764	 1.8845578161	 1.0905814007	 0.143121
H	-0.3298234921	 2.050747123	-0.7372910258	 0.126793
H	 1.9414994717	 0.8914617983	-0.8351493307	 0.121468
H	 1.9405907263	-0.9266751168	 3.9159934087	 0.102037
H	-0.3758666163	-2.3548089559	 4.0210936792	 0.094414
H	-1.6717888908	-1.9406620445	 1.6685326366	 0.116516
H	-0.4010116471	-0.5555717583	-0.8778260167	 0.120068
114.7599	247.8096	353.4008	444.1505	465.7264	597.3871	641.5028	653.686	688.3944	720.3056	737.4638	777.2265	787.8638	813.7801	821.3836	923.4214	961.3853	977.5889	1024.756	1036.6981	1061.6095	1082.8543	1098.023	1132.5143	1172.5761	1187.4197	1242.5636	1300.5965	1323.8621	1363.4709	1433.8953	1459.2138	1472.0375	1515.4504	1624.2272	3136.5195	3185.7698	3207.1351	3233.2542	3244.1557	3273.4378	3280.7854
C1C2OC3=CC=CN3C12	C1[C@H]2Oc3cccn3[C@@H]12	
InChI=1S/C7H7NO/c1-2-7-8(3-1)5-4-6(5)9-7/h1-3,5-6H,4H2	InChI=1S/C7H7NO/c1-2-7-8(3-1)5-4-6(5)9-7/h1-3,5-6H,4H2/t5-,6+/m0/s1
