18
gdb 24219	3.8329	1.54281	1.20494	1.7867	82.14	-0.1855	0.0474	0.2328	1027.6398	0.151927	-364.8406	-364.833892	-364.832948	-364.871356	28.13	
C	-0.0246663306	 1.4728959337	 0.0916997757	-0.278632
C	 1.3016769344	 0.7550995739	 0.0374053486	-0.019301
C	 2.0353978554	 0.4207489752	 1.3524845021	-0.374899
C	 1.0429514336	-0.4961458744	 2.0056292597	 0.27511
C	-0.0644723522	-0.7808415975	 1.2451255219	 0.318723
C	-0.9065072446	-1.6348877095	 2.0081438833	-0.340331
C	-0.2691941884	-1.8351902608	 3.2162886135	-0.07481
N	 0.9158704709	-1.1251401592	 3.2131430306	-0.365198
C	-0.006946173	-0.0370394054	-0.0413638795	-0.186124
H	-0.3615663932	 1.8880866071	 1.0365396117	 0.109352
H	-0.2958865855	 2.0593332364	-0.7811398385	 0.103105
H	 1.90672939	 0.8966043114	-0.8504159505	 0.081732
H	 2.9994022863	-0.0664485165	 1.1501235006	 0.104358
H	 2.2554740033	 1.3225286627	 1.9388409025	 0.107545
H	-1.859037129	-2.0572098974	 1.726231813	 0.089711
H	-0.5530393572	-2.4262533121	 4.0725243736	 0.11199
H	 1.5822695711	-1.1166387655	 3.9650696599	 0.256253
H	-0.3374117612	-0.4888762221	-0.970218068	 0.081417
151.426	214.8044	327.198	408.6751	427.9818	456.2099	589.9928	630.3709	681.1347	691.091	711.31	763.3369	789.7115	811.7786	815.0013	881.2834	931.3489	961.0733	989.0787	1027.7651	1065.6539	1075.8205	1084.5299	1096.5067	1105.8326	1162.6805	1178.099	1198.0344	1229.0704	1277.5298	1308.6299	1350.7905	1383.8181	1448.4177	1475.2072	1481.2018	1493.0359	1523.4774	1603.4989	3002.7154	3031.8082	3116.7552	3164.4536	3176.1787	3205.4618	3241.7117	3264.9975	3681.6472
C1C2CC3=C(C=CN3)C12	C1[C@H]2Cc3c(cc[nH]3)[C@@H]12	
InChI=1S/C8H9N/c1-2-9-8-4-5-3-7(5)6(1)8/h1-2,5,7,9H,3-4H2	InChI=1S/C8H9N/c1-2-9-8-4-5-3-7(5)6(1)8/h1-2,5,7,9H,3-4H2/t5-,7-/m0/s1
