23
gdb 111678	2.3241	1.27634	1.10815	1.2454	85.09	-0.2532	0.0749	0.3281	1257.5722	0.207077	-388.285952	-388.27663	-388.275686	-388.320212	35.64	
C	-0.3456136072	 0.5850831734	-0.9365391449	-0.400898
C	 0.1651356075	-0.7846076688	-0.4788495145	 0.041762
C	 1.2226966849	-1.4137311298	-1.4242550708	-0.238661
C	 2.1615132387	-2.2685951767	-0.534408132	-0.22506
C	 1.9770415782	-1.7641839583	 0.8940211444	-0.054424
C	 2.1822035001	-0.2997090263	 1.2019819029	 0.014739
C	 3.0005484909	 0.6623548709	 0.3784282508	-0.119528
O	 4.3613171495	 0.4922997492	 0.7696473615	-0.423104
C	 0.789005027	-0.8249456061	 0.9150717698	-0.089908
H	 0.4690562702	 1.315062069	-0.9935009636	 0.113583
H	-0.8072058052	 0.5227807409	-1.9282945032	 0.109345
H	-1.0974503433	 0.9803648356	-0.2452307104	 0.110546
H	-0.6983079969	-1.4633545297	-0.4374069147	 0.071484
H	 0.7502318668	-2.0116949779	-2.2095602821	 0.093445
H	 1.7804652566	-0.627578347	-1.9419440569	 0.101085
H	 1.867161191	-3.3233157769	-0.5726710348	 0.097137
H	 3.2032505417	-2.2200647429	-0.8699343955	 0.104985
H	 2.1527038752	-2.4706895758	 1.6983848151	 0.077485
H	 2.3438696524	-0.1119524737	 2.2617594016	 0.088579
H	 2.8845037954	 0.4903467351	-0.6980700596	 0.086089
H	 2.6628201981	 1.6920930035	 0.5809283247	 0.083753
H	 4.885189171	 1.1581229117	 0.3140385271	 0.282495
H	 0.0968454774	-0.8202704793	 1.7518724552	 0.075072
55.0629	105.9716	160.1137	210.3148	238.7218	244.0986	267.2098	330.1647	398.2451	475.6851	533.5636	641.7567	685.1362	750.8301	773.1573	823.4257	842.2588	909.1501	951.3532	956.6725	970.7573	1008.9837	1032.7006	1058.9446	1061.9805	1065.7349	1100.0405	1121.5627	1140.6569	1159.0943	1207.0801	1221.5656	1240.9189	1251.748	1283.1043	1305.1206	1325.3873	1335.6146	1346.7195	1366.7641	1379.986	1410.296	1433.1999	1473.6205	1493.0155	1496.372	1497.9165	1508.6284	1524.0396	2964.7989	2998.648	3027.6235	3035.2685	3040.1467	3052.9465	3066.1279	3088.0752	3093.0303	3099.8722	3123.7251	3145.5354	3162.8958	3823.3035
CC1CCC2C(CO)C12	C[C@H]1CC[C@H]2[C@@H](CO)[C@@H]12	
InChI=1S/C8H14O/c1-5-2-3-6-7(4-9)8(5)6/h5-9H,2-4H2,1H3	InChI=1S/C8H14O/c1-5-2-3-6-7(4-9)8(5)6/h5-9H,2-4H2,1H3/t5-,6-,7+,8-/m0/s1
