21
gdb 55439	3.22389	1.08691	0.94768	2.4242	85.07	-0.2321	-0.0134	0.2187	1332.8556	0.182872	-387.133257	-387.124195	-387.123251	-387.16763	33.952	
C	-0.0229134552	 1.500502506	 0.09137334	-0.48084
C	 0.0751687347	-0.0128235916	 0.0103561311	 0.377932
O	 1.141955957	-0.5781390553	-0.0400596943	-0.299276
C	-1.2597748164	-0.7794507505	-0.0131731076	-0.124569
C	-1.1118660656	-2.1579627967	-0.6737977782	-0.207596
C	-2.3047220274	-3.0669127949	-0.3608163772	-0.219931
C	-2.4340484035	-3.2987817094	 1.1507367983	-0.236629
C	-2.2811055431	-2.0159745116	 1.9238378098	-0.05966
C	-1.783581281	-0.8931823948	 1.4075410016	-0.049469
H	 0.9576846802	 1.9288853803	 0.3019653973	 0.14209
H	-0.3836905732	 1.8854307851	-0.8704678733	 0.143138
H	-0.7457070004	 1.8199542186	 0.848804173	 0.137004
H	-1.9678275208	-0.1578518471	-0.5842870854	 0.084087
H	-0.9909660351	-2.0364251696	-1.7555446471	 0.09266
H	-0.1855670755	-2.6109700679	-0.3062614544	 0.125051
H	-3.2279081622	-2.6049416553	-0.7346674058	 0.095693
H	-2.1984356851	-4.0233634615	-0.8833819455	 0.094197
H	-3.4014828585	-3.7591085691	 1.3873173739	 0.101385
H	-1.6759356804	-4.0204031757	 1.4899874493	 0.112996
H	-2.6105358383	-2.0202376696	 2.9605194698	 0.08715
H	-1.7305059701	 0.0004550906	 2.0251375947	 0.084589
53.8746	79.9058	125.6025	188.7772	242.2972	278.8549	324.5085	410.7301	461.1904	504.6369	581.4722	609.9173	658.9001	732.2912	799.8807	855.445	892.3819	900.9166	927.0524	962.2088	1002.7005	1003.0795	1029.9052	1070.3787	1080.3068	1108.8205	1155.0877	1175.663	1218.9653	1252.2135	1269.0029	1287.7015	1336.8658	1367.4287	1373.1485	1380.1925	1382.6361	1419.4192	1462.5905	1474.7498	1476.2738	1492.3802	1499.3608	1718.3305	1814.1333	2974.0117	2999.8101	3019.9589	3035.5981	3043.1776	3045.0703	3071.0485	3092.6178	3097.6795	3137.2797	3151.9903	3161.2597
CC(=O)C1CCCC=C1	CC(=O)[C@H]1CCCC=C1	
InChI=1S/C8H12O/c1-7(9)8-5-3-2-4-6-8/h3,5,8H,2,4,6H2,1H3	InChI=1S/C8H12O/c1-7(9)8-5-3-2-4-6-8/h3,5,8H,2,4,6H2,1H3/t8-/m1/s1
