18
gdb 56232	4.22055	0.67521	0.65228	4.5541	69.63	-0.25	-0.0356	0.2144	1719.0201	0.145595	-476.270512	-476.260686	-476.259742	-476.306999	34.024	
C	-0.0354613188	 1.4073909238	-0.278420609	-0.477668
C	-0.1216446885	 0.0901391582	 0.4573392347	 0.385207
O	 0.5709903354	-0.1765537066	 1.4129818744	-0.295053
C	-1.1549917026	-0.910784196	-0.0542248299	-0.248131
N	-0.9216285465	-2.2237538704	 0.5198306097	-0.323501
H	-0.5425960741	-3.4378671002	-0.9453193644	 0.303353
H	-0.424833434	-2.1015423709	 1.3964555007	 0.250631
C	-2.0917080407	-3.0836019781	 0.6341382352	-0.306656
C	-2.3117656084	-3.9055401463	-0.6475252378	 0.419138
O	-1.2137938141	-3.9771055318	-1.4170843947	-0.362345
O	-3.3470821309	-4.4470374638	-0.9206310637	-0.329833
H	 0.5371735323	 2.1261705187	 0.3083785681	 0.153591
H	 0.4674214069	 1.2500986994	-1.2401804119	 0.156758
H	-1.0313671419	 1.8043951455	-0.499984363	 0.143251
H	-2.1461924977	-0.4979250382	 0.2134221573	 0.126409
H	-1.1325261633	-0.9394982567	-1.1519600296	 0.132672
H	-1.9289966173	-3.8021134476	 1.4447375875	 0.144793
H	-3.0254217757	-2.548863479	 0.8564808964	 0.127385
47.0897	56.9843	74.2711	114.7893	141.7181	196.0303	306.505	343.181	397.8547	481.8779	528.2227	561.1867	600.4464	677.0327	759.6378	834.5042	851.461	866.2865	896.4613	945.5373	990.807	1082.0015	1098.2976	1170.156	1193.3627	1214.1222	1241.7043	1274.5778	1342.5409	1361.1175	1390.1046	1412.3694	1461.0631	1463.5113	1472.937	1476.9923	1503.9388	1813.0115	1881.7521	2936.6825	3015.3823	3030.8916	3039.712	3081.1761	3101.1816	3156.9881	3492.9644	3528.1943
CC(=O)C[NH2+]CC([O-])=O	CC(=O)CNCC(=O)O	
InChI=1S/C5H9NO3/c1-4(7)2-6-3-5(8)9/h6H,2-3H2,1H3,(H,8,9)	InChI=1S/C5H9NO3/c1-4(7)2-6-3-5(8)9/h6H,2-3H2,1H3,(H,8,9)
