18
gdb 109323	1.93336	1.56124	1.01452	4.4903	78.48	-0.2583	-0.0054	0.2529	1222.831	0.147404	-401.967349	-401.958359	-401.957415	-402.001965	32.061	
C	 0.0019514271	 1.5981812464	 0.1748876784	-0.380861
C	-0.0212978014	 0.0882536311	-0.1246094916	-0.302058
C	-1.3914717564	-0.5129754798	-0.0692361745	 0.326692
C	-2.1095975374	-1.0871461314	-1.0296622305	-0.21842
C	-3.4258274115	-1.5721408558	-0.5029386844	-0.120221
O	-3.4608752016	-1.1346459582	 0.8607479318	-0.259956
C	-2.2086379198	-0.5757032434	 1.2166276771	-0.09974
C	-1.5311584675	-1.4001411767	 2.2460719695	 0.270548
N	-0.9779184464	-2.0295810303	 3.0417158923	-0.327151
H	 1.0221543735	 1.9851514401	 0.101561801	 0.12548
H	-0.6238289195	 2.1492785926	-0.5336487314	 0.124744
H	-0.359987232	 1.8155781606	 1.1847073438	 0.126141
H	 0.4052935915	-0.0979037615	-1.1155146735	 0.113664
H	 0.6251289076	-0.4283813638	 0.5971932481	 0.133954
H	-1.803101076	-1.2149736254	-2.060451695	 0.113888
H	-4.2886209154	-1.1421151089	-1.0299038084	 0.120215
H	-3.5206742788	-2.6677202021	-0.5521700912	 0.121612
H	-2.3743248259	 0.4178174664	 1.6579520787	 0.131469
49.079	82.9291	129.5872	163.1616	219.3467	249.6379	300.1868	355.6477	470.9176	507.3089	603.717	631.7149	772.9035	795.1088	829.2882	894.9957	936.0371	941.6862	975.9976	999.8129	1047.7468	1066.5004	1097.946	1111.8231	1194.8648	1204.446	1260.8173	1277.3458	1337.7194	1353.3269	1357.8215	1379.5952	1411.752	1480.8657	1500.1793	1505.6934	1520.6315	1732.5573	2352.5618	2989.7212	3000.8937	3024.3418	3024.9931	3041.16	3074.2721	3112.4043	3116.7847	3215.1202
CCC1=CCOC1C#N	CCC1=CCO[C@H]1C#N	
InChI=1S/C7H9NO/c1-2-6-3-4-9-7(6)5-8/h3,7H,2,4H2,1H3	InChI=1S/C7H9NO/c1-2-6-3-4-9-7(6)5-8/h3,7H,2,4H2,1H3/t7-/m0/s1
