13
gdb 132929	3.15193	1.36264	0.95135	4.8923	65.28	-0.2099	-0.0394	0.1704	1102.4367	0.089376	-497.907042	-497.899623	-497.898679	-497.9389	28.223	
O	-0.104234816	 1.4012545055	 0.0122161087	-0.435207
C	 0.0253299043	 0.0441470419	 0.0033446253	 0.168071
C	 1.1944440176	-0.648489909	-0.0082426408	-0.084445
N	 1.1951963367	-2.0187984025	-0.0163622634	-0.371165
C	 0.0561822117	-2.8407914399	-0.0138987721	 0.450873
O	 0.1683566227	-4.0558082151	-0.0218930529	-0.404956
C	-1.1814275012	-2.0824810584	-0.001522792	-0.417266
C	-1.1813359361	-0.7270362634	 0.00649662	 0.316849
F	-2.3200606192	-0.04542994	 0.017809519	-0.052939
H	 0.7693278849	 1.805829037	 0.0088041398	 0.30267
H	 2.1632057666	-0.1633928349	-0.0115794015	 0.12939
H	 2.0712643797	-2.5209119317	-0.0249637968	 0.263629
H	-2.1113566717	-2.6347232694	 0.0011387569	 0.134499
123.4774	206.7033	248.0305	294.6486	361.2953	374.259	416.6313	446.9234	524.0881	597.1794	619.3398	696.9273	740.5041	758.5437	800.2343	821.6724	876.1469	924.8173	1141.0006	1201.749	1218.297	1232.2991	1296.7135	1364.6552	1434.5083	1543.1946	1605.0504	1697.5348	1785.2897	3199.9906	3232.6392	3619.33	3828.0633
OC1=CNC(=O)C=C1F	Oc1c[nH]c(=O)cc1F	
InChI=1S/C5H4FNO2/c6-3-1-5(9)7-2-4(3)8/h1-2,8H,(H,7,9)	InChI=1S/C5H4FNO2/c6-3-1-5(9)7-2-4(3)8/h1-2,8H,(H,7,9)
