17
gdb 85799	2.54276	1.22073	1.19462	2.6151	77.39	-0.2279	0.0129	0.2408	1166.3719	0.134231	-417.982174	-417.972431	-417.971487	-418.016779	34.671	
C	-0.0325652369	 1.437871428	-0.09349939	-0.345263
N	-0.009875528	-0.0012165052	-0.0774079988	-0.074128
C	-1.0825927796	-0.9932498517	-0.0144915402	-0.195827
C	 0.0248867034	-2.1092871212	-0.0136436887	-0.031891
N	 0.0227457135	-2.9516248779	 1.1759784383	-0.550958
C	 0.0735397685	-2.913576894	-1.2210950677	 0.34179
C	 0.1401194287	-3.5657735616	-2.228160587	-0.473895
C	 1.032162714	-0.8872997607	-0.044521873	 0.350126
O	 2.2252456832	-0.7451372345	-0.0039258853	-0.37198
H	 1.0030301412	 1.7856228109	-0.1133463848	 0.163749
H	-0.552306706	 1.8198358539	-0.9802897177	 0.133398
H	-0.5252640272	 1.8432417479	 0.7989577912	 0.129369
H	-1.6660877204	-0.969057855	 0.9127492893	 0.114619
H	-1.7523454658	-0.9956130269	-0.8792746629	 0.12432
H	 0.7831734647	-3.6219097746	 1.1092741976	 0.247641
H	 0.2123182856	-2.3816792241	 1.9969733845	 0.235075
H	 0.1993412111	-4.1450968831	-3.116374175	 0.203855
76.5352	111.5378	143.5536	163.2635	178.625	229.6024	237.6274	246.0928	360.4914	416.1013	490.6972	599.9853	613.0811	621.4281	660.7166	741.6006	789.9374	823.2465	897.6555	946.6491	1007.5821	1028.8301	1074.3358	1123.5831	1168.3067	1208.3318	1250.1579	1295.1242	1361.7656	1414.5122	1448.0987	1482.5068	1509.612	1531.6749	1654.0809	1878.8675	2239.3103	3015.7543	3035.3427	3067.9096	3092.6596	3130.2131	3483.3745	3501.5629	3568.7623
CN1CC(N)(C#C)C1=O	CN1C[C@@](N)(C#C)C1=O	
InChI=1S/C6H8N2O/c1-3-6(7)4-8(2)5(6)9/h1H,4,7H2,2H3	InChI=1S/C6H8N2O/c1-3-6(7)4-8(2)5(6)9/h1H,4,7H2,2H3/t6-/m0/s1
