25
gdb 112804	2.24196	1.07422	0.88	1.3034	88.68	-0.2586	0.074	0.3326	1483.6333	0.228145	-389.480895	-389.470221	-389.469277	-389.516375	39.823	
C	 0.3074323095	 1.8619451024	 0.1417061887	-0.388036
C	 0.3896367999	 0.3483806	-0.0909925319	-0.194719
C	 0.7686169627	-0.4275718247	 1.1694712625	 0.016735
C	-0.2634389344	-0.634385918	 2.3367052913	 0.01472
C	-1.7481975477	-0.4985105083	 2.0038069405	-0.406475
C	 0.2362783407	-2.1052980758	 2.465096783	-0.235027
C	 1.0003909334	-1.9741039202	 1.1177725914	-0.000687
C	 0.3698823729	-2.7297760959	-0.0408996924	-0.093698
O	 0.5677234108	-4.1168474794	 0.2049634245	-0.42428
H	 1.2705658989	 2.259283449	 0.4813869886	 0.113503
H	 0.0330462512	 2.3924490851	-0.7755875706	 0.109695
H	-0.4368525578	 2.1112117871	 0.9049914836	 0.119974
H	-0.5650322166	-0.0113569161	-0.493206586	 0.092727
H	 1.1387052806	 0.1485349793	-0.8687561948	 0.093098
H	 1.6708422944	 0.0360076643	 1.5863835273	 0.066258
H	-0.0485230539	-0.0142990292	 3.2127437361	 0.062382
H	-2.0390971014	-1.1089779702	 1.142544461	 0.114627
H	-2.3542894682	-0.8316489833	 2.8539014726	 0.112857
H	-2.0282789245	 0.5376069374	 1.7851286426	 0.113357
H	 0.8988426198	-2.2644874567	 3.3192739358	 0.093845
H	-0.5393580062	-2.87599228	 2.4882976158	 0.099408
H	 2.0528293407	-2.2709450715	 1.1610985029	 0.070282
H	-0.7035485076	-2.4976766092	-0.1212895914	 0.082859
H	 0.8404989872	-2.425937475	-0.9897644287	 0.082796
H	 0.1461248756	-4.6102969011	-0.5044954225	 0.2838
82.9298	109.8786	128.8863	136.2559	190.6035	228.5882	257.0873	266.3062	273.1226	307.459	347.3965	399.178	491.4691	523.3897	713.7683	766.6197	806.4514	826.2341	841.0013	908.9259	934.5568	959.6558	980.017	1029.2338	1040.6734	1045.8339	1067.4339	1101.8447	1123.2119	1165.7854	1169.2552	1186.5383	1216.1801	1244.7088	1255.8613	1271.6049	1286.3272	1294.0539	1309.4028	1342.5639	1364.046	1375.3335	1395.1818	1410.5251	1415.4723	1457.4767	1484.6756	1487.4042	1495.5055	1499.158	1501.7796	1509.1203	1521.8477	2966.4003	2993.5725	3016.8909	3018.5671	3028.0435	3031.9496	3043.5461	3051.5408	3055.1945	3062.3752	3090.5425	3096.9885	3098.2841	3104.9241	3108.5564	3829.0945
CCC1C(C)CC1CO	CC[C@H]1[C@@H](C)C[C@H]1CO	
InChI=1S/C8H16O/c1-3-8-6(2)4-7(8)5-9/h6-9H,3-5H2,1-2H3	InChI=1S/C8H16O/c1-3-8-6(2)4-7(8)5-9/h6-9H,3-5H2,1-2H3/t6-,7-,8-/m0/s1
