15
gdb 13529	3.01478	2.02011	1.34903	6.6065	57.13	-0.2476	0.0135	0.2612	885.2049	0.119503	-436.936199	-436.928681	-436.927737	-436.968667	27.244	
N	-0.0656574385	 1.5220867046	-0.0438361745	-0.539605
H	 0.0173292705	 0.5917353419	-0.4432269426	 0.253693
H	 1.607996437	 1.5176549189	 0.8165079009	 0.31168
H	-0.5089924215	 2.1152106685	-0.7347938925	 0.252438
C	-0.8022243895	 1.5049190637	 1.2117025074	-0.040535
C	-1.7342472613	 0.3320767178	 1.5966868513	-0.08413
O	-1.0671218522	 0.1701468352	 2.8625086377	-0.258163
C	-0.0263523378	 1.0911754717	 2.4976052559	-0.02332
C	 1.3520166063	 0.4284932178	 2.3614775037	 0.375046
O	 1.7075054211	-0.4778162922	 3.0592609908	-0.313084
O	 2.1582859358	 1.0018855724	 1.4481408732	-0.376942
H	-1.2787748381	 2.4781191774	 1.3404116071	 0.107945
H	-2.8007301059	 0.5528172998	 1.7132198581	 0.114429
H	-1.6182002858	-0.5533452297	 0.9533332028	 0.101652
H	 0.0849401599	 1.8905932722	 3.2428195807	 0.118895
62.0568	86.3655	239.3617	261.807	301.3306	383.5877	415.5055	529.2887	575.172	693.341	752.4488	812.4732	848.8381	887.432	921.5731	983.1539	1020.8471	1043.8564	1057.8376	1152.4113	1160.9021	1190.6099	1233.0893	1254.18	1268.0629	1338.1657	1348.9068	1433.6414	1438.1343	1518.5083	1660.239	1876.118	2989.2123	3018.515	3065.0306	3101.0918	3427.8041	3508.262	3596.7647
[NH3+]C1COC1C([O-])=O	N[C@H]1CO[C@H]1C(=O)O	
InChI=1S/C4H7NO3/c5-2-1-8-3(2)4(6)7/h2-3H,1,5H2,(H,6,7)	InChI=1S/C4H7NO3/c5-2-1-8-3(2)4(6)7/h2-3H,1,5H2,(H,6,7)/t2-,3+/m0/s1
