20
gdb 96105	2.74591	1.32978	1.01856	1.5589	75.03	-0.2409	0.064	0.3049	1197.9456	0.172597	-440.258051	-440.249793	-440.248849	-440.290608	32.575	
O	-0.0846146163	 1.4316007616	 0.0672589895	-0.428685
C	 0.0129446332	 0.016275953	 0.0097488488	 0.096689
C	 0.760450726	-0.5376507262	 1.2330253806	-0.10163
O	 0.7884961853	-1.9544092631	 1.2334845393	-0.240544
C	-0.5168041924	-2.5079029631	 1.2897241637	-0.159413
C	-1.3631049145	-2.0596176576	 0.1127513095	 0.330936
C	-1.4460474132	-2.9408696688	-1.0791971366	-0.280808
N	-2.6099326583	-2.7774980649	-0.1829269257	-0.367808
C	-1.4071611893	-0.5491034499	-0.0202794692	-0.267235
H	 0.799495803	 1.7992043686	-0.0316558984	 0.284118
H	 0.548271725	-0.3066500431	-0.8971088389	 0.074241
H	 1.805422886	-0.2091658006	 1.2359375382	 0.096004
H	 0.2757637582	-0.1496253988	 2.1451118784	 0.093839
H	-0.3941362212	-3.595788848	 1.2963713908	 0.100333
H	-1.0100762359	-2.2108149258	 2.2326188503	 0.090404
H	-1.5728116194	-2.5071799385	-2.0675181433	 0.118535
H	-0.9006131691	-3.881060637	-1.0643726994	 0.112989
H	-2.697740993	-3.5936437494	 0.4201208457	 0.228462
H	-1.9650435741	-0.1205642499	 0.8229574604	 0.108601
H	-1.92535225	-0.2510624684	-0.9355280936	 0.110971
116.1857	141.2888	263.4845	282.4522	283.9628	347.7774	361.2037	404.2099	436.0522	460.153	494.6585	569.3752	770.444	874.6571	887.7203	919.2144	931.4915	956.9783	960.9751	981.8263	996.2453	1072.763	1080.3061	1099.8526	1118.4362	1125.6039	1140.1606	1193.3872	1236.3698	1258.7364	1271.535	1310.6708	1314.1393	1342.1018	1359.5954	1380.1198	1405.8572	1423.142	1438.4923	1485.9849	1489.1165	1500.6926	1518.8962	2948.4986	2966.0912	2981.8324	3029.5055	3069.045	3073.089	3096.8718	3105.754	3190.6232	3477.6328	3815.8655
OC1COCC2(CN2)C1	O[C@H]1COC[C@]2(CN2)C1	
InChI=1S/C6H11NO2/c8-5-1-6(3-7-6)4-9-2-5/h5,7-8H,1-4H2	InChI=1S/C6H11NO2/c8-5-1-6(3-7-6)4-9-2-5/h5,7-8H,1-4H2/t5-,6-/m1/s1
