22
gdb 110980	3.01992	1.2094	1.03406	0.6412	84.39	-0.2108	0.0926	0.3034	1281.5484	0.192268	-404.266287	-404.256634	-404.25569	-404.30046	36.267	
C	-0.4381204673	 1.4798422374	 0.5393359244	-0.239394
O	 0.0400116563	 0.2315073473	 0.0841760227	-0.254869
C	 0.6661633914	-0.5140664509	 1.0806100994	 0.154966
C	-0.1649815373	-1.4244224017	 2.0450258355	-0.075968
C	-0.5302724203	-2.2975640382	 0.8160875269	-0.295042
C	 1.0006488916	-1.9862234118	 0.7249891938	 0.290309
C	 2.0194580948	-2.489810391	-0.2549288843	-0.525
N	 1.1440936011	-2.1617603273	 2.2366532811	-0.136395
C	 1.1046775327	-3.5106444145	 2.7886764115	-0.331131
H	 0.3703996133	 2.087461929	 0.9732715546	 0.109223
H	-0.8502853294	 2.0046249171	-0.3256527357	 0.127206
H	-1.2278042575	 1.3657652481	 1.2964044444	 0.109298
H	 1.4770428782	 0.0352492046	 1.5747349621	 0.072364
H	-0.7851957809	-1.1382847258	 2.8961567176	 0.072097
H	-0.8178517261	-3.3320113632	 1.0028012897	 0.09431
H	-1.1659953703	-1.8411789025	 0.0563617229	 0.109307
H	 1.7783132531	-2.1386255552	-1.2630940268	 0.134277
H	 3.0174617459	-2.124704666	 0.0084154772	 0.12778
H	 2.0472234856	-3.5844531963	-0.2750259728	 0.120769
H	 2.0738356523	-3.9884381129	 2.609629385	 0.119755
H	 0.9725845754	-3.4351911222	 3.8732909078	 0.11967
H	 0.3223858272	-4.181763884	 2.4021779429	 0.096468
77.0182	151.7533	174.0756	179.5848	190.2611	203.4819	262.335	285.905	356.9707	408.1677	493.0263	549.9312	600.1037	640.9811	726.1983	773.2415	834.2326	898.7899	931.4968	962.5575	1010.954	1017.8509	1051.4805	1088.9678	1119.3981	1134.4434	1161.6839	1172.318	1182.562	1185.7475	1197.1862	1213.5528	1241.3153	1243.003	1266.3223	1319.9453	1385.0686	1410.3602	1441.7315	1478.8632	1483.5599	1486.5176	1488.3719	1489.6135	1501.6694	1507.6157	1526.2212	2981.3314	2982.1797	3031.194	3032.9992	3038.5556	3060.1495	3087.784	3092.9496	3101.7108	3102.604	3110.3408	3117.4251	3150.1296
COC1C2CC1(C)N2C	CO[C@H]1[C@H]2C[C@]1(C)N2C	
InChI=1S/C7H13NO/c1-7-4-5(8(7)2)6(7)9-3/h5-6H,4H2,1-3H3	InChI=1S/C7H13NO/c1-7-4-5(8(7)2)6(7)9-3/h5-6H,4H2,1-3H3/t5-,6+,7+/m1/s1
