23
gdb 122643	3.79576	0.68619	0.61978	2.0288	83.18	-0.2416	0.0824	0.324	1869.4829	0.204051	-425.39872	-425.388176	-425.387232	-425.435674	36.957	
C	-0.0130097924	 1.4249289122	-0.0956309771	-0.228617
O	 0.0143841085	 0.0186562545	-0.0968240223	-0.229864
C	-1.2684708914	-0.5572652623	 0.0061388314	-0.053078
C	-1.1224664188	-2.0742312046	-0.0153165972	-0.222704
C	-2.470367394	-2.7835592247	 0.0637751997	-0.058313
C	-3.3035663517	-2.8319705271	-1.2375370156	-0.078001
O	-3.1525715769	-4.2596320563	-1.3431415063	-0.290882
C	-2.4953543249	-4.3366372336	-0.0545716802	 0.141744
C	-1.2074188885	-5.1340857513	-0.1082660869	-0.401171
H	 1.0193259357	 1.7734551932	-0.1791308819	 0.127138
H	-0.5922537266	 1.8244290544	-0.9436556637	 0.102765
H	-0.4489820703	 1.8260217435	 0.8335599343	 0.102276
H	-1.7629643495	-0.2326824061	 0.9392112494	 0.082855
H	-1.9088821479	-0.2179966947	-0.8276406453	 0.085825
H	-0.5913496017	-2.3563633429	-0.9312591646	 0.113443
H	-0.4850051414	-2.372923178	 0.8251782508	 0.10791
H	-3.0294150459	-2.4172550584	 0.9304171695	 0.072071
H	-4.3558218769	-2.5356420082	-1.1337114699	 0.094881
H	-2.8743393269	-2.3106400248	-2.1032907674	 0.098217
H	-3.1720460202	-4.7889431847	 0.685779651	 0.068831
H	-0.4999807373	-4.7114765823	-0.8260080176	 0.123215
H	-0.7312305926	-5.168656224	 0.8776172748	 0.11538
H	-1.4273321381	-6.1620238038	-0.4135840151	 0.126082
48.0907	61.7262	91.443	106.9232	135.4326	209.3591	233.1159	239.4547	299.6496	364.0171	416.3865	435.7991	534.2904	741.7982	800.9774	851.8834	877.4147	900.0916	960.1506	996.6414	1006.4698	1033.5712	1066.6619	1092.9905	1121.0319	1158.2166	1160.3453	1165.2758	1178.3252	1198.9611	1223.2221	1242.8051	1255.7099	1292.2236	1310.0191	1318.9086	1361.3124	1388.0287	1392.9234	1409.2254	1429.2827	1481.0605	1481.8902	1485.5269	1490.7206	1498.5603	1505.5103	1526.216	1531.7528	2937.4236	2961.9969	2967.7281	2982.3884	3001.6983	3009.0598	3034.9805	3037.6073	3040.4671	3056.876	3082.9897	3106.0387	3112.9434	3124.5226
COCCC1COC1C	COCC[C@H]1CO[C@H]1C	
InChI=1S/C7H14O2/c1-6-7(5-9-6)3-4-8-2/h6-7H,3-5H2,1-2H3	InChI=1S/C7H14O2/c1-6-7(5-9-6)3-4-8-2/h6-7H,3-5H2,1-2H3/t6-,7-/m0/s1
