21
gdb 73822	2.48479	1.65973	1.18839	1.7354	84.49	-0.2194	0.0185	0.2379	1126.3276	0.183068	-387.090836	-387.082341	-387.081397	-387.123544	33.219	
C	-0.0906628653	 1.508421871	 0.1473568112	-0.484237
C	-0.0142830728	 0.0181689638	-0.0210840875	 0.201524
C	 0.0701061238	-0.6541618407	-1.1790738012	 0.242846
C	 0.1445066792	-0.0857273077	-2.5657063869	-0.511289
C	 0.1007753306	-2.1719848536	-1.0476900228	 0.006772
C	 1.1881767614	-2.5965902978	-0.0341608541	-0.24439
C	 0.0418365962	-2.2919747692	 0.9546381433	 0.08354
C	-0.0575460682	-0.7957276334	 1.266751737	-0.290982
O	-0.9212125905	-2.5973070941	-0.0947712435	-0.294331
H	-0.0758969656	 2.0495939877	-0.8003235832	 0.121326
H	-1.0086309152	 1.7911029851	 0.6796341574	 0.1249
H	 0.7444114537	 1.877212139	 0.7577610008	 0.120777
H	 0.1586488266	 1.005476256	-2.5829244325	 0.122936
H	 1.0466793271	-0.4366848547	-3.0846843934	 0.123335
H	-0.7083526832	-0.4210850646	-3.1706351923	 0.129262
H	 0.0134234727	-2.6935250328	-2.0042537405	 0.067553
H	 1.4037444528	-3.6656673563	-0.0792811152	 0.104484
H	 2.1081241402	-2.010965157	 0.0172707899	 0.096248
H	-0.087506094	-2.9258447765	 1.8362565539	 0.071459
H	 0.7571383122	-0.4913169936	 1.939873642	 0.098835
H	-0.9928663117	-0.5926547007	 1.8066675076	 0.109432
137.4542	146.7721	159.3011	171.8756	312.4464	343.3589	346.8591	401.5657	434.9293	508.7282	586.951	624.5354	704.9553	827.5681	846.3964	872.5802	895.4349	934.8362	953.0064	964.8002	997.8836	1040.5642	1042.9671	1072.2006	1078.3067	1105.154	1159.9197	1173.8353	1181.9633	1228.3261	1238.0512	1253.816	1319.5161	1328.7921	1362.9231	1375.4785	1405.5467	1420.4488	1464.8212	1477.8358	1482.371	1483.9087	1487.1513	1495.2095	1735.2833	3001.4577	3011.2098	3014.7239	3031.6947	3052.3135	3054.0051	3065.201	3073.3547	3081.5411	3119.7845	3131.6458	3133.8195
CC1=C(C)C2CC(C1)O2	CC1=C(C)[C@H]2C[C@@H](C1)O2	
InChI=1S/C8H12O/c1-5-3-7-4-8(9-7)6(5)2/h7-8H,3-4H2,1-2H3	InChI=1S/C8H12O/c1-5-3-7-4-8(9-7)6(5)2/h7-8H,3-4H2,1-2H3/t7-,8-/m1/s1
