22
gdb 119140	2.35439	1.00049	0.86112	2.8765	77.88	-0.2424	0.0658	0.3082	1461.0646	0.192786	-441.447469	-441.436934	-441.43599	-441.483286	38.846	
C	 0.2150536198	-0.9566701317	-1.2044684432	-0.436686
C	-0.2855678549	-0.2319177581	 0.0477057036	 0.066811
O	-1.6741896269	-0.4813079335	 0.2656772787	-0.424661
C	 0.4906536606	-0.505928871	 1.3415712281	 0.301444
C	 0.2011725217	 0.479623121	 2.4643300812	-0.266735
C	 0.8860470985	 1.8378466915	 2.2712552528	-0.06039
O	 0.6234827112	 2.7318993251	 3.3425217951	-0.419922
C	 0.8109841814	-1.9197778593	 1.6915918864	-0.301401
N	 1.885385362	-0.9849820521	 1.3176997863	-0.355883
H	 0.2447688703	-2.0444724155	-1.074649667	 0.11541
H	-0.4724402932	-0.7419894986	-2.0262242123	 0.135468
H	 1.2107370295	-0.6148378266	-1.5054045958	 0.121822
H	-0.2432855199	 0.8442888589	-0.1557221961	 0.096458
H	-1.7561542813	-1.3903771373	 0.5759508902	 0.277038
H	-0.8804575174	 0.6233999493	 2.5519536511	 0.119703
H	 0.5553244916	 0.051243838	 3.4101286141	 0.083734
H	 1.9649677047	 1.681316111	 2.1276718878	 0.103721
H	 0.5055670962	 2.3425505746	 1.3769775756	 0.108124
H	 1.0137959616	 2.3551449574	 4.1376056018	 0.279858
H	 0.8086838292	-2.2276813055	 2.7338225399	 0.118773
H	 0.5516376069	-2.7122048958	 0.9937358977	 0.107115
H	 2.1867421683	-1.177895212	 0.3665710842	 0.2302
58.9095	81.0538	92.6936	162.2942	236.5181	254.9863	275.9417	304.8231	318.5565	341.6551	354.8255	402.9139	453.5174	489.6366	605.2632	709.9803	780.7921	863.0273	880.0567	924.4461	939.0687	985.41	1018.8083	1035.0145	1060.6671	1072.208	1083.3974	1103.245	1113.2026	1137.5675	1164.159	1258.5276	1286.5825	1290.6587	1311.2255	1324.8349	1375.646	1389.0476	1401.4713	1414.19	1419.8685	1428.9415	1478.1428	1493.1661	1496.4783	1515.1547	1520.0526	3003.3582	3028.2066	3033.9123	3045.607	3070.2038	3095.3866	3099.9834	3105.2859	3122.1717	3184.658	3515.5886	3795.5109	3814.7548
CC(O)C1(CCO)CN1	C[C@@H](O)[C@@]1(CCO)CN1	
InChI=1S/C6H13NO2/c1-5(9)6(2-3-8)4-7-6/h5,7-9H,2-4H2,1H3	InChI=1S/C6H13NO2/c1-5(9)6(2-3-8)4-7-6/h5,7-9H,2-4H2,1H3/t5-,6-/m1/s1
