21
gdb 116319	2.97014	1.25723	0.97874	1.0779	78.03	-0.2493	0.0821	0.3314	1265.4245	0.183595	-424.215288	-424.206722	-424.205777	-424.248647	32.734	
C	-0.0936414308	 1.5447979659	 0.0720390701	-0.394277
C	-0.0132304554	 0.0178569395	-0.0307270486	-0.180842
C	 0.7632552452	-0.4999913311	-1.2539058195	-0.019281
C	 2.2436179334	-0.0817700602	-1.2474448586	-0.098413
O	 2.9511827276	-0.6718326278	-2.324988575	-0.251766
C	 3.1105677991	-2.0705225829	-2.1835137774	-0.103403
C	 1.8306898044	-2.7920841612	-1.8002079119	 0.014844
O	 1.4650660738	-2.7482378558	-0.4125727181	-0.262503
C	 0.6707318111	-2.0101842688	-1.3499172371	 0.047566
H	 0.8913531231	 1.9990411364	 0.2175207603	 0.122102
H	-0.5299744365	 1.9810305272	-0.8336827908	 0.115373
H	-0.7186689727	 1.8443876915	 0.9187644104	 0.115932
H	 0.4450877945	-0.3959270972	 0.8759775109	 0.113667
H	-1.0304624786	-0.3926559314	-0.0692981226	 0.09523
H	 0.3053653719	-0.0929443264	-2.1671495504	 0.079799
H	 2.3413572213	 0.997890619	-1.3813778642	 0.108969
H	 2.7024527855	-0.3549387881	-0.2842485154	 0.100668
H	 3.4627747657	-2.4337196535	-3.1541981865	 0.110766
H	 3.8840603655	-2.3012939006	-1.4318949486	 0.102826
H	 1.6717716805	-3.7646583832	-2.2659169626	 0.095084
H	-0.3301209186	-2.4174503415	-1.5032470241	 0.087658
79.8868	111.1411	169.884	224.5559	275.5727	294.6477	366.4473	385.7099	435.9643	488.3405	619.9802	696.6428	775.4586	789.9895	839.815	890.565	922.4074	939.8068	959.613	1011.7573	1021.4577	1056.1524	1076.4559	1085.9903	1132.7661	1148.0034	1170.5797	1180.5159	1261.1763	1277.5839	1285.3413	1314.3726	1336.053	1355.9939	1359.2658	1392.2098	1394.7078	1415.9585	1420.58	1470.8756	1484.1923	1489.993	1498.1995	1504.1529	1508.4693	2968.896	2988.1081	3008.0603	3022.1835	3032.9291	3057.9076	3076.3021	3092.4061	3098.7277	3101.1296	3108.9643	3113.9867
CCC1COCC2OC12	CC[C@H]1COC[C@H]2O[C@@H]12	
InChI=1S/C7H12O2/c1-2-5-3-8-4-6-7(5)9-6/h5-7H,2-4H2,1H3	InChI=1S/C7H12O2/c1-2-5-3-8-4-6-7(5)9-6/h5-7H,2-4H2,1H3/t5-,6+,7-/m0/s1
