20
gdb 116376	3.15523	1.09451	0.85974	3.3638	76.87	-0.234	0.0232	0.2573	1337.1382	0.172064	-440.28245	-440.273433	-440.272489	-440.316709	33.105	
O	 0.0295726675	 1.4223570885	-0.0892005189	-0.419722
C	 0.0521315728	 0.0075848929	 0.0204621841	-0.089997
C	-1.389993927	-0.5055037937	 0.0143818168	 0.00283
C	-1.421259938	-2.034412514	-0.0365399132	-0.222493
C	-2.7961418802	-2.590806448	-0.3787931129	-0.071967
O	-3.7916834376	-2.4815470748	 0.6396950144	-0.228052
C	-4.1863581845	-1.2690176225	 1.1250738235	 0.115597
N	-3.5789045024	-0.1900561397	 1.3486557387	-0.253924
C	-2.1528159547	 0.0524278082	 1.227793747	-0.147428
H	 0.9286509622	 1.7491544449	 0.005379635	 0.288998
H	 0.6017790628	-0.4438685201	-0.8213490168	 0.084047
H	 0.5547640187	-0.313457524	 0.9484343522	 0.085672
H	-1.8634765238	-0.114907025	-0.8976498229	 0.087004
H	-0.7307355561	-2.3962209883	-0.8102399782	 0.098187
H	-1.0813395257	-2.4603960067	 0.916823834	 0.105394
H	-3.172626421	-2.1037737698	-1.2896555225	 0.106327
H	-2.7339018496	-3.6648764788	-0.5727027	 0.114461
H	-5.241964593	-1.340220331	 1.3935668525	 0.113779
H	-1.6772971102	-0.3420640039	 2.1407704497	 0.103026
H	-2.0034929302	 1.1342641959	 1.2507394674	 0.12826
65.5809	93.4131	124.6494	208.5528	235.7371	278.0937	301.331	386.6036	412.6461	458.1244	503.8666	549.2736	741.1104	822.8144	859.2681	897.0656	946.8922	968.2426	969.4536	1001.4698	1040.3007	1081.2657	1089.911	1135.7903	1144.1161	1162.7852	1222.9663	1239.4424	1259.6593	1301.1879	1311.3864	1335.169	1359.3261	1382.436	1408.6448	1424.4281	1438.471	1457.8295	1472.0875	1492.6105	1499.4005	1520.0515	1765.2058	2955.8357	2978.6487	2983.0437	3007.094	3013.0989	3017.294	3058.3955	3093.4485	3095.7363	3120.5361	3835.6344
OCC1CCOC=NC1	OC[C@H]1CCOC=NC1	
InChI=1S/C6H11NO2/c8-4-6-1-2-9-5-7-3-6/h5-6,8H,1-4H2	InChI=1S/C6H11NO2/c8-4-6-1-2-9-5-7-3-6/h5-6,8H,1-4H2/t6-/m0/s1
