19
gdb 72036	2.38206	2.01652	1.51435	1.9351	73.41	-0.2308	0.0853	0.3161	962.5224	0.159985	-423.0286	-423.020939	-423.019995	-423.060217	30.738	
C	-0.0035071054	 1.51100067	 0.0633275448	-0.501667
C	 0.0396273052	 0.010543486	-0.0084447619	 0.180646
C	 1.0948974077	-0.7705153919	-0.7849331856	-0.287942
C	 0.5366762603	-2.1503643536	-0.3864110799	 0.143165
O	 0.5050156874	-2.0928487527	 1.0367573181	-0.255299
C	-0.2855467167	-0.924031416	 1.1596461604	-0.043966
C	-1.1904089423	-0.9060991187	-0.0537611721	 0.378041
C	-2.6316920444	-0.523121098	-0.1379597726	-0.504887
O	-0.8264188488	-2.0752932649	-0.7803431382	-0.284188
H	 0.9213258333	 1.9125834048	 0.492952188	 0.124169
H	-0.1303893306	 1.9561630502	-0.9301186774	 0.123084
H	-0.8320029799	 1.8609211771	 0.6879189532	 0.118069
H	 1.0517763886	-0.6057069223	-1.8642839734	 0.108063
H	 2.1114450467	-0.6129088512	-0.4161104125	 0.108589
H	 1.003496481	-3.066997685	-0.7363268595	 0.0968
H	-0.5371261212	-0.6372138249	 2.1710751211	 0.106498
H	-2.8343612855	 0.3533937246	 0.4832156946	 0.124136
H	-2.9162920454	-0.2834823065	-1.1677831345	 0.130309
H	-3.26758547	-1.3427897669	 0.2108516374	 0.136381
184.6101	188.3293	214.5998	217.4864	295.2843	340.6732	440.7266	545.5639	584.0811	627.3807	637.2497	707.8152	734.9389	843.2026	875.0202	907.9228	908.4805	933.315	966.0649	976.2206	999.4161	1039.8714	1074.169	1093.3801	1118.197	1156.2959	1182.1812	1204.4163	1217.9027	1243.6538	1299.0311	1338.0035	1348.8939	1411.8161	1421.6588	1445.3438	1477.0599	1479.8677	1492.0147	1495.1453	1509.3793	3023.6723	3038.9929	3067.2189	3083.5017	3092.6055	3102.7109	3119.9122	3124.2191	3175.218	3220.5929
CC12CC3OC1C2(C)O3	C[C@@]12C[C@H]3O[C@@H]1[C@]2(C)O3	
InChI=1S/C7H10O2/c1-6-3-4-8-5(6)7(6,2)9-4/h4-5H,3H2,1-2H3	InChI=1S/C7H10O2/c1-6-3-4-8-5(6)7(6,2)9-4/h4-5H,3H2,1-2H3/t4-,5-,6+,7-/m0/s1
