18
gdb 51457	3.11395	1.28472	1.14918	2.6445	76.65	-0.2205	-0.0273	0.1932	1113.2346	0.147783	-401.930288	-401.922331	-401.921386	-401.963593	29.908	
O	 1.5072530285	-0.4647400284	-0.5231457553	-0.235066
C	 0.8188171612	 0.523154965	-0.4800803604	 0.166171
C	 1.2886234775	 1.8756660574	 0.0188297082	-0.317332
C	 1.3942881882	 2.8530373698	-1.1407851185	-0.00562
C	 2.406701065	 3.9557465927	-1.2231512644	-0.097754
C	 3.6145615392	 3.8668342289	-0.3588464452	-0.074453
C	 4.3285171165	 2.7855114636	-0.6752845913	-0.083322
C	 3.6752290972	 2.0332772665	-1.8120685798	-0.225626
N	 2.4528195813	 2.8030820182	-2.1622495298	-0.116991
H	-0.2351517054	 0.4981031975	-0.8412099049	 0.081825
H	 0.5397601504	 2.2638061573	 0.7226342951	 0.116387
H	 2.2360868968	 1.7523625719	 0.5447700503	 0.130592
H	 0.4274639368	 3.0674863419	-1.5970857871	 0.096832
H	 2.1047411548	 4.9211065917	-1.6243528515	 0.095434
H	 3.8517521725	 4.5955782586	 0.4061685885	 0.10328
H	 5.2380241684	 2.452883891	-0.1884067838	 0.105289
H	 4.3222813993	 1.9855745378	-2.6974520021	 0.117223
H	 3.4237818816	 0.9991811786	-1.546263358	 0.143132
52.8054	81.7839	167.0354	233.7781	288.2852	370.3766	488.8103	517.1923	574.248	710.3836	717.4529	756.1988	763.9569	827.9118	862.4685	914.6802	935.2868	955.0784	998.5887	1014.6596	1034.0388	1069.5162	1076.5156	1111.0982	1128.5171	1146.6833	1201.2958	1224.9393	1276.8265	1287.4024	1315.5565	1351.0899	1375.3051	1413.4526	1427.7468	1466.8611	1499.0831	1666.6746	1827.708	2868.5741	3018.7253	3024.0193	3058.8967	3094.8806	3125.37	3130.4157	3195.453	3221.6554
O=CCC1C2C=CCN12	O=CC[C@H]1[C@H]2C=CCN12	
InChI=1S/C7H9NO/c9-5-3-7-6-2-1-4-8(6)7/h1-2,5-7H,3-4H2	InChI=1S/C7H9NO/c9-5-3-7-6-2-1-4-8(6)7/h1-2,5-7H,3-4H2/t6-,7+,8?/m1/s1
