17
gdb 45434	2.57122	1.72563	1.68376	3.9551	66.98	-0.2322	-0.0245	0.2077	910.207	0.138387	-458.98626	-458.979263	-458.978319	-459.017845	27.362	
O	 0.0251614688	-0.039872891	 0.0029872081	-0.321747
C	-0.0137688733	 1.1629046591	 0.0103907914	 0.433566
C	-1.2846748996	 2.012829226	 0.0319089967	-0.340561
C	-0.8379975936	 3.4849809361	 0.0334394285	-0.093027
C	 0.0579285358	 3.7149800294	 1.2549727713	-0.061363
O	 1.2080063876	 2.8558733929	 1.1754980702	-0.2676
C	 1.219374665	 2.0779632484	-0.0012477248	 0.075286
O	 1.1769737457	 2.8683204749	-1.1689411936	-0.267591
C	 0.024884009	 3.7274794169	-1.2092704485	-0.061378
H	-1.8973960616	 1.7675866575	-0.8428269672	 0.135049
H	-1.8735319926	 1.7585536204	 0.9203566619	 0.13504
H	-1.6891850214	 4.1710558017	 0.0483265549	 0.086948
H	 0.4081410223	 4.7541761756	 1.2939632772	 0.110531
H	-0.4760861973	 3.4982077083	 2.1888971739	 0.108133
H	 2.1508047483	 1.5129696532	-0.0165810139	 0.110043
H	-0.5338717783	 3.5195970966	-2.1306676459	 0.108123
H	 0.373676165	 4.7671759241	-1.2474108003	 0.110549
82.4888	158.5954	303.0574	338.8569	400.0109	433.5426	513.5832	537.6661	610.6855	654.8476	765.5038	832.7944	882.9793	895.9502	911.9065	972.9104	977.431	1001.6967	1041.9022	1083.0534	1083.2567	1152.9906	1177.562	1200.9272	1224.6964	1232.4663	1284.4072	1317.9718	1337.3672	1347.5293	1353.2445	1398.3073	1410.7744	1447.382	1519.3394	1533.0689	1849.3252	3012.0748	3014.7939	3043.0653	3049.1712	3052.8785	3078.4933	3087.4642	3136.6459
O=C1CC2COC1OC2	O=C1C[C@H]2CO[C@@H]1OC2	
InChI=1S/C6H8O3/c7-5-1-4-2-8-6(5)9-3-4/h4,6H,1-3H2	InChI=1S/C6H8O3/c7-5-1-4-2-8-6(5)9-3-4/h4,6H,1-3H2/t4-,6+
