19
gdb 72132	2.17018	1.97502	1.75737	0.9617	74.31	-0.2296	0.0689	0.2986	930.6498	0.159425	-422.986115	-422.978419	-422.977475	-423.017604	31.436	
C	-0.0194399604	 1.5511090519	-0.0526494867	-0.512744
C	-0.0221458373	 0.0452068637	-0.0627814258	 0.280653
C	 0.4294292166	-0.8285250111	-1.2478484144	-0.298489
C	-0.2514131547	-1.9490619212	-0.4360769444	 0.006081
O	 0.6104557705	-2.0805552403	 0.7027738847	-0.269216
C	 0.3725617541	-0.7714898617	 1.2495132874	 0.038075
C	-1.1205216124	-0.8471921238	 1.646582518	-0.32259
C	-1.2908590562	-0.8686072397	 0.1186028496	 0.348923
O	-2.4596467698	-0.6052160599	-0.5786077737	-0.482164
H	 1.0040876414	 1.939037181	-0.1117506799	 0.120349
H	-0.5783415003	 1.948237035	-0.9060679292	 0.129783
H	-0.4728710072	 1.9557624857	 0.858656388	 0.118397
H	-0.1297512143	-0.5632996247	-2.1487652226	 0.108487
H	 1.493337317	-0.9535174165	-1.46469243	 0.095628
H	-0.5329698973	-2.920992342	-0.8407983906	 0.072314
H	 1.1656795698	-0.4715128586	 1.9316003935	 0.07952
H	-1.4226804481	-1.704777056	 2.2529490977	 0.095239
H	-1.504385533	 0.0865939299	 2.0641890901	 0.106921
H	-3.0410562584	-1.3706088217	-0.5083412615	 0.284833
178.4709	195.6672	242.42	262.4778	303.3544	354.7774	448.6376	479.3126	526.4857	578.0311	628.0266	680.5982	721.2313	817.7908	861.1033	893.9147	924.1002	931.1802	942.0332	964.0999	992.6338	1022.0817	1059.1697	1104.6989	1125.9258	1146.334	1169.8103	1196.2729	1205.4758	1224.3862	1245.9728	1256.1146	1261.5441	1323.3059	1326.6916	1380.866	1410.8889	1475.661	1484.3486	1491.1647	1494.432	3026.5535	3060.0029	3063.0324	3088.5021	3098.8155	3122.3943	3124.4244	3127.8148	3140.3893	3796.0376
CC12CC3OC1CC23O	C[C@@]12C[C@H]3O[C@@H]1C[C@@]23O	
InChI=1S/C7H10O2/c1-6-2-5-7(6,8)3-4(6)9-5/h4-5,8H,2-3H2,1H3	InChI=1S/C7H10O2/c1-6-2-5-7(6,8)3-4(6)9-5/h4-5,8H,2-3H2,1H3/t4-,5-,6-,7+/m1/s1
