19
gdb 78012	2.72746	1.26786	1.03474	2.4169	78.33	-0.2445	-0.0192	0.2252	1198.8313	0.15803	-423.010913	-423.001937	-423.000993	-423.044392	33.709	
C	-0.0969126452	 1.5799011311	 0.0685563288	-0.418636
C	 0.085500553	 0.0756135018	 0.0862553467	-0.065938
C	 1.3404390211	-0.6712467146	-0.2115509973	-0.130332
C	 2.6028138323	-0.0472357738	 0.3790491395	 0.121777
O	 3.0066015091	 1.145929711	-0.2585506188	-0.427312
C	 1.9418391044	 0.0219386519	 1.7978063908	-0.359011
C	 0.714844048	-0.6916296784	 1.233062711	 0.252823
C	 0.0653672136	-1.8532860383	 1.84455349	 0.057161
O	 0.316626393	-2.2834931789	 2.9468711998	-0.273506
H	 0.8068086285	 2.1089341548	 0.3690684368	 0.14232
H	-0.3417974805	 1.9091102585	-0.9466017223	 0.124391
H	-0.9209990809	 1.8761112337	 0.7262542965	 0.117095
H	-0.779674893	-0.4598650639	-0.3057794192	 0.095727
H	 1.3494244507	-1.4899269419	-0.9218868064	 0.099014
H	 3.4169387665	-0.783387984	 0.3787125573	 0.084638
H	 3.8279247829	 1.4401728157	 0.1488332985	 0.286957
H	 2.4587666658	-0.5759861189	 2.5498075331	 0.125624
H	 1.7701748836	 1.027208704	 2.1903151929	 0.10596
H	-0.6968541828	-2.3434058098	 1.1933772224	 0.061249
91.8772	149.0673	176.3854	199.1664	233.6196	270.3218	283.2033	327.0835	409.5254	458.0611	503.9022	611.9994	679.1909	723.972	758.9622	851.7106	891.745	956.8452	972.5891	983.0825	1027.8017	1040.3951	1055.3448	1104.1194	1120.5408	1135.6338	1171.9642	1215.5132	1235.9637	1244.3228	1298.6424	1344.038	1349.3386	1416.1517	1426.0231	1426.9935	1462.0737	1487.73	1498.2993	1510.9893	1796.6775	2848.0219	3015.5362	3041.4446	3070.7495	3098.4931	3106.9995	3132.1731	3159.0586	3180.3172	3813.2986
CC1C2C(O)CC12C=O	C[C@H]1[C@H]2[C@@H](O)C[C@@]12C=O	
InChI=1S/C7H10O2/c1-4-6-5(9)2-7(4,6)3-8/h3-6,9H,2H2,1H3	InChI=1S/C7H10O2/c1-4-6-5(9)2-7(4,6)3-8/h3-6,9H,2H2,1H3/t4-,5-,6-,7+/m0/s1
