17
gdb 43982	3.03875	1.61237	1.40266	2.5627	72.12	-0.2434	-0.0141	0.2293	958.2671	0.137433	-421.806868	-421.799807	-421.798863	-421.838318	28.037	
O	-0.0396699968	 0.0716518054	-0.2984759778	-0.312266
C	-0.0196442955	 1.2306434388	 0.0084136963	 0.358018
C	-1.1475297109	 2.2836253669	 0.1977886434	-0.417027
C	-0.0556625251	 3.3541671095	-0.0041088752	 0.222515
C	 0.9548573159	 3.2859580641	 1.0779842478	-0.358309
C	 1.0696123528	 2.2637258291	-0.0401577132	 0.088804
C	 1.9659699332	 2.6126073458	-1.205680338	-0.15865
O	 1.6123014583	 3.968412914	-1.5348108926	-0.260183
C	 0.233072262	 4.2030338052	-1.2202101811	-0.152194
H	-1.868845544	 2.2082781224	-0.6210395217	 0.136014
H	-1.6871676429	 2.3132026883	 1.147631717	 0.125568
H	 1.7414265732	 4.0333973436	 1.06267173	 0.144279
H	 0.6549655338	 2.9603958895	 2.0684058974	 0.127962
H	 3.0386839305	 2.6168340234	-0.9940532554	 0.120526
H	 1.7745700302	 1.9270071061	-2.0437866161	 0.114357
H	-0.4288711059	 3.9030697393	-2.0484533502	 0.100286
H	 0.1327566512	 5.2824000185	-1.0713586908	 0.120301
92.8805	212.7908	244.5368	326.1827	392.1838	428.2335	529.466	588.363	598.4725	658.5543	686.9708	794.3438	836.6221	878.3513	904.5143	933.2737	959.4336	977.5288	1011.153	1040.3225	1048.9901	1089.9392	1097.3719	1158.4304	1207.0787	1220.949	1222.4915	1277.1435	1297.5955	1351.9887	1367.7161	1385.5052	1451.3445	1480.9553	1509.8792	1518.6858	1864.4374	2979.7084	3005.5027	3061.5529	3078.9133	3087.9301	3116.4429	3131.2373	3220.0689
O=C1CC23CC12COC3	O=C1C[C@@]23C[C@@]12COC3	
InChI=1S/C7H8O2/c8-5-1-6-2-7(5,6)4-9-3-6/h1-4H2	InChI=1S/C7H8O2/c8-5-1-6-2-7(5,6)4-9-3-6/h1-4H2/t6-,7+/m0/s1
