20
gdb 63478	3.22096	1.05038	0.92339	3.3782	80.17	-0.2683	0.0278	0.2961	1328.809	0.168327	-403.157522	-403.147459	-403.146515	-403.192154	37.522	
C	 0.0084685612	 1.4840063717	-0.0743837418	-0.440784
C	 0.0109113091	-0.0317439575	 0.0260836846	 0.262297
C	-1.1839411215	-0.6785491394	-0.65329332	-0.455402
C	 1.353887347	-0.7480405601	-0.0379598688	-0.384603
C	 0.607193317	-0.6472293118	 1.2718736994	 0.377242
O	 1.0725948071	 0.2603478481	 2.2307653066	-0.466341
C	 0.0006941318	-1.8954648365	 1.9146555585	-0.393633
C	 0.9957544024	-2.5728506424	 2.7484344955	 0.249558
N	 1.8141100918	-3.0635405978	 3.4008126916	-0.307951
H	 0.8475200613	 1.9236907496	 0.464780162	 0.134967
H	 0.0632782954	 1.7917048345	-1.1245825077	 0.113482
H	-0.91393267	 1.9000105642	 0.346579948	 0.117095
H	-1.2400499447	-0.3501900568	-1.697072097	 0.124122
H	-1.1315008633	-1.7704231821	-0.6649583134	 0.112472
H	-2.1232878896	-0.3891411581	-0.1678523938	 0.121504
H	 1.4039225401	-1.7104442806	-0.5381334354	 0.11206
H	 2.2474379048	-0.1405895456	-0.1359273828	 0.11878
H	 1.864078032	-0.113732724	 2.6372266706	 0.297161
H	-0.8463774348	-1.6089311339	 2.5482890099	 0.158633
H	-0.3679143572	-2.6012601617	 1.1668146943	 0.14934
63.1808	107.0371	175.2725	184.9188	203.0282	249.4833	303.1794	359.802	365.6368	378.561	397.1826	419.4636	435.1361	487.3603	565.6395	698.8656	781.1433	889.3519	895.7646	918.4528	951.1636	964.957	973.6002	1000.6296	1038.5894	1051.8479	1154.3182	1157.2881	1197.6233	1264.6261	1301.5735	1308.6979	1325.4395	1408.293	1411.1937	1425.4106	1452.6127	1483.1527	1488.4385	1491.1023	1505.9472	1516.731	2357.551	3028.179	3033.7121	3052.7929	3085.9679	3089.3381	3106.9957	3116.578	3124.5415	3147.6293	3213.9421	3778.1302
CC1(C)CC1(O)CC#N	CC1(C)C[C@]1(O)CC#N	
InChI=1S/C7H11NO/c1-6(2)5-7(6,9)3-4-8/h9H,3,5H2,1-2H3	InChI=1S/C7H11NO/c1-6(2)5-7(6,9)3-4-8/h9H,3,5H2,1-2H3/t7-/m1/s1
