18
gdb 16006	3.74222	1.90498	1.50886	1.7078	72.63	-0.2403	0.0281	0.2685	882.88	0.155345	-347.803944	-347.796976	-347.796032	-347.834923	27.603	
C	 0.0265370815	 1.4906204172	-0.0004864704	-0.249322
O	 1.20647558	 0.6816174998	 0.0068635448	-0.279186
C	-0.0769482547	 0.0281606478	 0.0058660053	 0.435511
C	-0.3928200183	-0.7312435312	 1.2765891626	-0.281389
C	 0.3674732983	-2.0682145055	 1.2936749103	-0.246611
C	 0.2502544815	-2.791689255	-0.023415319	-0.052686
C	-0.1073506015	-2.1949394984	-1.1596896595	-0.045041
C	-0.4185640971	-0.7230167625	-1.2690913868	-0.321451
H	-0.1640132378	 2.0513467503	 0.9145514296	 0.107568
H	-0.1549295047	 2.0426267783	-0.9229105483	 0.106878
H	-0.1336001318	-0.1249437306	 2.1493803219	 0.100544
H	-1.4724367763	-0.9251721446	 1.3140234115	 0.102167
H	 1.4272904413	-1.8827216773	 1.5184337262	 0.125158
H	-0.004884626	-2.7022546179	 2.1069858336	 0.100241
H	 0.4831966427	-3.8537660938	-0.0256299533	 0.084857
H	-0.1813907912	-2.7743273249	-2.0767558268	 0.084963
H	-1.4834505304	-0.5843988009	-1.5098169097	 0.109666
H	 0.1417356446	-0.2748353108	-2.0983119019	 0.118134
109.0493	164.4787	310.6955	354.3709	390.9341	399.0196	483.4299	529.9557	672.3283	682.3779	763.0965	817.7402	875.0065	886.6074	940.0489	962.8541	977.8399	1002.3577	1008.824	1045.9374	1060.5957	1126.9498	1153.6167	1162.5257	1193.7732	1228.285	1252.022	1285.2529	1329.9394	1351.7829	1371.4669	1412.6824	1439.039	1458.5219	1472.6272	1482.9161	1533.0747	1726.3898	2996.4281	3012.4524	3027.9348	3052.8611	3053.7644	3071.9501	3088.3902	3143.8272	3155.0046	3167.3349
C1OC11CCC=CC1	C1O[C@]21CCC=CC2	
InChI=1S/C7H10O/c1-2-4-7(5-3-1)6-8-7/h1-2H,3-6H2	InChI=1S/C7H10O/c1-2-4-7(5-3-1)6-8-7/h1-2H,3-6H2/t7-/m0/s1
