17
gdb 36438	4.17341	1.02724	0.957	4.6252	72.41	-0.2441	0.0384	0.2825	1232.0334	0.137124	-417.969187	-417.961324	-417.96038	-418.002334	29.268	
N	 0.0134326068	-1.0204224389	-0.5331131551	-0.311416
C	 0.0013680492	 0.1122571352	-0.3039357378	 0.256866
C	 0.0214457869	 1.5398821884	 0.0006050529	-0.331002
C	 1.4520479179	 2.0763506414	 0.1154350401	 0.007483
N	 2.2295389136	 2.0487968281	-1.1527102301	-0.323564
C	 2.6128297008	 3.4743714042	-1.0043356561	-0.053257
C	 1.6404600939	 4.3981440552	-1.7544422319	-0.063546
O	 0.6950317826	 4.3437822257	-0.6467935901	-0.294249
C	 1.6223847229	 3.6159254851	 0.1760855214	 0.077897
H	-0.4976868174	 2.0941264617	-0.786414696	 0.166047
H	-0.5197239422	 1.711030688	 0.9387422873	 0.147792
H	 1.9685415083	 1.5938952126	 0.9556707001	 0.088422
H	 3.0020119861	 1.3950132707	-1.1579504857	 0.233808
H	 3.6766763514	 3.7106648131	-0.9832949834	 0.087131
H	 1.9965615087	 5.4242984984	-1.9078867596	 0.105312
H	 1.224308212	 3.9926508119	-2.6811846361	 0.118627
H	 1.7940189586	 4.0888694793	 1.1450899501	 0.087647
59.5113	107.3604	137.7716	228.1711	356.001	391.6872	412.6707	494.5528	535.9644	661.4571	731.1947	796.6216	824.5704	861.6176	924.9807	947.4557	955.1537	998.155	1022.165	1032.6108	1058.4091	1083.8285	1109.6859	1156.706	1184.6226	1198.5918	1215.7533	1251.7474	1290.0441	1298.6258	1350.0126	1354.9681	1385.0317	1393.8356	1456.3401	1503.5856	2361.7305	3016.4143	3023.9713	3048.7652	3088.4172	3096.228	3105.8078	3113.1562	3564.5429
N#CCC1NC2COC12	N#CC[C@H]1N[C@H]2CO[C@@H]12	
InChI=1S/C6H8N2O/c7-2-1-4-6-5(8-4)3-9-6/h4-6,8H,1,3H2	InChI=1S/C6H8N2O/c7-2-1-4-6-5(8-4)3-9-6/h4-6,8H,1,3H2/t4-,5+,6+/m1/s1
