19
gdb 108239	2.28651	1.5916	1.17167	2.5971	72.4	-0.2207	0.0644	0.2851	1116.9044	0.157544	-460.108284	-460.099199	-460.098255	-460.141779	34.409	
C	 0.0295136387	 1.2738162272	 0.2660960642	-0.267525
O	 0.034817553	-0.1232011954	-0.021417912	-0.297994
C	-1.2361388111	-0.6644637021	-0.1071357784	 0.299187
C	-2.2910452004	-0.3445965065	-1.161819094	-0.308836
C	-2.7717756724	-1.8386244767	-1.1095824177	-0.287675
C	-1.7239331584	-2.1361037411	-0.052490529	 0.336124
O	-1.0928644844	-3.3459577458	 0.0614764201	-0.462938
C	-1.8732480035	-1.2313392612	 1.1457183521	-0.035754
O	-0.934630251	-1.5626008916	 2.1417287757	-0.457809
H	 1.0729870109	 1.5838024584	 0.3510768675	 0.13457
H	-0.4491420808	 1.8422241476	-0.5413047264	 0.125362
H	-0.4940711206	 1.4893458605	 1.2072761801	 0.120101
H	-3.0370302774	 0.4135988178	-0.9004690011	 0.097297
H	-1.8465582752	-0.0929560321	-2.1275586797	 0.115925
H	-3.8121257674	-2.0093290261	-0.81374127	 0.101509
H	-2.575070404	-2.3642973922	-2.0461013061	 0.12118
H	-0.7396255428	-3.3706103523	 0.9646555101	 0.289163
H	-2.8300785782	-0.9052086252	 1.5584617133	 0.08336
H	-0.1183634149	-1.0917976333	 1.9185200812	 0.294751
87.5719	137.3059	181.1288	213.384	244.3822	260.3396	292.1692	344.1135	382.118	463.2681	566.7133	587.8673	592.5027	675.9705	692.9732	762.8735	799.346	890.9356	940.0639	997.8889	1040.1508	1074.6818	1079.3352	1123.525	1131.18	1178.2176	1194.0183	1200.7152	1217.9656	1231.697	1242.2533	1298.9003	1317.8484	1365.7334	1422.5296	1440.976	1478.6335	1480.6027	1489.6867	1506.227	1515.2346	3002.9317	3040.775	3050.8358	3063.7381	3075.7863	3100.1913	3119.2077	3128.3628	3704.3612	3724.7266
COC12CCC1(O)C2O	CO[C@@]12CC[C@]1(O)[C@H]2O	
InChI=1S/C6H10O3/c1-9-6-3-2-5(6,8)4(6)7/h4,7-8H,2-3H2,1H3	InChI=1S/C6H10O3/c1-9-6-3-2-5(6,8)4(6)7/h4,7-8H,2-3H2,1H3/t4-,5+,6-/m1/s1
