15
gdb 129578	5.19334	1.05076	0.87459	12.65	73.86	-0.1945	-0.0132	0.1813	1235.1349	0.113203	-446.296056	-446.287878	-446.286934	-446.329114	30.174	
N	 0.0350020884	 1.3518786013	-0.0242621089	-0.527784
C	 0.0670588199	 0.0319381244	 0.0484343046	 0.523652
N	 1.2501595577	-0.6540175107	 0.12088646	-0.57133
N	-1.0833170394	-0.6424104479	 0.0954395295	-0.411294
H	-1.0515758696	-1.6482650993	 0.133015633	 0.271878
C	-2.3616047836	-0.0345617312	 0.1313616093	 0.383279
C	-3.6231468678	-0.5895911971	 0.2166886152	-0.199627
N	-4.4921870351	 0.4470086492	 0.2157487625	-0.207234
N	-3.7999419423	 1.574491531	 0.1335782288	-0.165635
N	-2.4876149386	 1.3063948664	 0.0789497334	-0.319943
H	 0.8866624765	 1.8818260305	 0.049479042	 0.263525
H	-0.9687630543	 1.7601356191	 0.0072933097	 0.327763
H	 2.0591622283	-0.190346659	-0.2622750276	 0.27744
H	 1.2274468088	-1.6433886876	-0.0712774107	 0.27373
H	-3.9421600689	-1.6189339891	 0.2771938291	 0.081581
71.3782	113.0288	156.031	217.1546	349.0376	394.7276	403.3859	428.42	465.0313	536.1309	560.7346	683.3083	699.6666	723.8331	779.803	823.072	979.5873	997.7242	1012.861	1077.5693	1099.9887	1114.1948	1127.9557	1187.1929	1217.3524	1313.759	1353.6904	1440.8425	1471.7317	1552.2376	1641.4291	1676.2301	1725.5689	2445.2804	3243.6895	3592.1699	3648.0895	3671.2205	3695.3866
NC(N)=[NH+]C1=CN=N[N-]1	[NH2]=C(N)Nc1cnnn1	
InChI=1S/C3H5N6/c4-3(5)7-2-1-6-9-8-2/h1H,(H4-,4,5,6,7,8,9)/q-1/p+1	InChI=1S/C3H7N6/c4-3(5)7-2-1-6-9-8-2/h1H,4-5H2,(H2,6,7,8,9)
