14
gdb 52640	2.68845	0.69108	0.5659	5.0415	85.35	-0.2759	-0.054	0.2219	1859.4531	0.098246	-399.497275	-399.487236	-399.486292	-399.534791	33.291	
C	-0.0461255342	 1.4932571834	 0.0306792643	-0.500042
C	 0.006293545	 0.0399177932	 0.0127524047	 0.07137
C	 0.0560517391	-1.1626437229	 0.0039177202	 0.084877
C	 0.076681959	-2.6283389609	-0.0182734883	-0.265496
O	-1.2085984077	-3.2103805393	 0.1512007214	-0.38037
C	 0.7280031945	-3.1125551619	-1.2491623884	 0.17364
C	 1.2392516711	-3.5246945329	-2.2626125298	-0.003341
C	 1.8186150725	-3.9857280264	-3.409849755	 0.212806
N	 2.3112394314	-4.3764339401	-4.386518364	-0.332038
H	 0.7098769969	 1.9047877724	 0.7075587886	 0.160663
H	 0.1328928226	 1.908079843	-0.9667271002	 0.16031
H	-1.0257369156	 1.8455018525	 0.3707359791	 0.159817
H	 0.6608628442	-2.9975494117	 0.8353531786	 0.16217
H	-1.7924533487	-2.8235806883	-0.5122672213	 0.295634
16.1829	49.2812	99.644	128.4515	153.6303	242.9071	261.2134	313.3549	342.1826	388.8052	465.9442	486.3944	562.8399	576.4064	608.427	765.7714	803.1465	1016.3787	1050.9372	1052.9517	1131.3324	1176.967	1256.2816	1311.3749	1408.6883	1413.7964	1473.6992	1475.2746	2264.4013	2371.7644	2401.9678	3025.523	3033.7428	3098.2502	3099.385	3797.7613
CC#CC(O)C#CC#N	CC#C[C@@H](O)C#CC#N	
InChI=1S/C7H5NO/c1-2-4-7(9)5-3-6-8/h7,9H,1H3	InChI=1S/C7H5NO/c1-2-4-7(9)5-3-6-8/h7,9H,1H3/t7-/m1/s1
