16
gdb 123473	5.26709	0.96894	0.85995	7.0569	69.74	-0.2482	0.0165	0.2648	1291.7654	0.12591	-434.047899	-434.040241	-434.039297	-434.081518	27.394	
C	-0.0057056084	 1.4426916379	 0.4317365568	-0.206188
C	-0.0749243396	-0.0448088856	 0.1763996252	 0.08696
C	-1.3014421207	-0.6678590342	-0.3339106883	-0.177367
O	-0.1852916193	-0.4303538547	-1.1937354362	-0.223664
N	 1.3161415487	 1.9835731583	 0.151307252	-0.016362
C	 2.1613835677	 2.6390784599	 1.0036505227	 0.017624
N	 3.2650376614	 2.985781474	 0.3958667441	-0.223986
N	 3.1624132192	 2.5494033883	-0.9118173908	-0.221481
C	 2.0012112329	 1.9596080031	-1.0342448767	 0.020215
H	-0.7513116723	 1.9517510019	-0.1879883397	 0.1373
H	-0.2355532379	 1.6554064383	 1.48004271	 0.135073
H	 0.6204045283	-0.6500509358	 0.7585475373	 0.11654
H	-1.5052801516	-1.7126593611	-0.1085896006	 0.130823
H	-2.1792227226	-0.0525153544	-0.5263137309	 0.1238
H	 1.9165602747	 2.8320680417	 2.0371786866	 0.139129
H	 1.6068387695	 1.4971373726	-1.9252091814	 0.161584
43.9329	76.1123	112.4723	279.0092	292.2852	363.8247	456.4352	646.6343	696.7238	743.4262	801.7081	821.3106	858.8482	868.6082	949.5723	957.4261	965.4103	1021.0065	1084.5083	1096.3311	1124.653	1159.914	1167.1412	1206.6183	1225.733	1245.8852	1292.7333	1343.8054	1385.1092	1401.9743	1448.8692	1472.9973	1501.9163	1528.7176	1551.0349	3050.5505	3090.5304	3099.3003	3119.5198	3180.4685	3258.6003	3276.4269
C(C1CO1)N1C=NN=C1	C([C@H]1CO1)n1cnnc1	
InChI=1S/C5H7N3O/c1(5-2-9-5)8-3-6-7-4-8/h3-5H,1-2H2	InChI=1S/C5H7N3O/c1(5-2-9-5)8-3-6-7-4-8/h3-5H,1-2H2/t5-/m0/s1
