20
gdb 35572	2.71744	1.46486	1.2288	4.0987	81.52	-0.2979	0.0313	0.3291	1091.8921	0.174159	-366.040776	-366.033032	-366.032088	-366.073346	30.487	
N	-0.6576029342	-0.8518555469	-1.0732904481	-0.345847
C	-0.4267408635	 0.1785657456	-0.6001457316	 0.284985
C	-0.1075096296	 1.4579780785	 0.0088669015	-0.147691
C	-0.0975840732	 1.5214089435	 1.5713887776	-0.254271
C	 1.3402866055	 2.1141784657	 1.5460787379	 0.003907
C	 2.4424214859	 1.2180641661	 2.128202408	-0.213762
C	 2.6369617209	 0.1126446699	 1.0712332372	-0.216676
C	 2.4671679412	 0.8514034325	-0.2717961267	-0.221661
C	 1.3962864153	 1.9233156455	-0.0121993758	-0.027611
H	-0.7626327471	 2.2177406766	-0.4248791542	 0.120893
H	-0.8719535509	 2.1641522021	 1.9936071426	 0.113246
H	-0.1656436114	 0.5406713617	 2.0472294776	 0.120946
H	 1.3933877814	 3.1436501734	 1.9044705863	 0.069983
H	 3.3676085176	 1.796966358	 2.2362980612	 0.098613
H	 2.1862978779	 0.8271729944	 3.1184113457	 0.099205
H	 3.6033948888	-0.3912547893	 1.1560407856	 0.10067
H	 1.8660651156	-0.6593749738	 1.176000686	 0.116646
H	 3.4039362231	 1.3535605971	-0.5394103298	 0.098712
H	 2.2084370926	 0.1829740902	-1.0978754861	 0.122504
H	 1.5442253141	 2.8151213593	-0.6226977848	 0.077209
57.1393	139.8394	222.6756	232.8487	347.6509	370.2488	507.4464	556.957	570.1816	611.9763	728.5044	749.6356	817.4252	854.3227	869.3809	885.4717	900.0554	954.4073	965.6221	993.8634	1023.0519	1046.1683	1066.4755	1086.8502	1143.8497	1162.5821	1168.6546	1193.8492	1227.5589	1261.3418	1273.4541	1281.6219	1309.6127	1317.0081	1327.7952	1342.0697	1355.2008	1364.5872	1479.6962	1483.2261	1490.556	1510.4959	2345.613	3032.2006	3038.8499	3045.4349	3071.4226	3073.8254	3079.9023	3086.3559	3092.6553	3098.0896	3102.6094	3128.551
N#CC1CC2CCCC12	N#C[C@H]1C[C@H]2CCC[C@@H]12	
InChI=1S/C8H11N/c9-5-7-4-6-2-1-3-8(6)7/h6-8H,1-4H2	InChI=1S/C8H11N/c9-5-7-4-6-2-1-3-8(6)7/h6-8H,1-4H2/t6-,7-,8-/m1/s1
