21
gdb 122914	4.89213	0.5267	0.48935	4.5822	81.16	-0.2627	0.0233	0.286	2203.5022	0.18124	-420.40142	-420.390439	-420.389495	-420.438785	37.761	
C	 0.0072821115	 1.4157627326	-0.0105284824	-0.230103
O	 0.0073166428	 0.0087093856	 0.0342470732	-0.231488
C	-1.2887822507	-0.5425652339	-0.0027393539	-0.054261
C	-1.1660306931	-2.0605271759	 0.0504586199	-0.215081
C	-2.5287035136	-2.7566189111	 0.0424984724	-0.190474
C	-2.4140306675	-4.3025988309	 0.0511702818	-0.135519
N	-1.7556730537	-4.9103810794	 1.2092788661	-0.501841
C	-3.7587782854	-4.8885683277	-0.0890791544	 0.29805
N	-4.8293633656	-5.3092242596	-0.1960018666	-0.319021
H	 1.0487885739	 1.7442846111	 0.0212945155	 0.129426
H	-0.4573323994	 1.7958437626	-0.9342149047	 0.10567
H	-0.5297374315	 1.8522994528	 0.8466490577	 0.104961
H	-1.8893544995	-0.1765559351	 0.8489267584	 0.087007
H	-1.8160269532	-0.2315930154	-0.9217196139	 0.088872
H	-0.565560262	-2.392000915	-0.8060257932	 0.11148
H	-0.6035709443	-2.3241228705	 0.9533516007	 0.104301
H	-3.1220139247	-2.4469924668	 0.9123955641	 0.111249
H	-3.0980830228	-2.4566277882	-0.8457444659	 0.120239
H	-1.842724855	-4.6081964715	-0.8355354543	 0.134303
H	-0.7879419223	-4.6089567449	 1.2499417049	 0.243247
H	-2.2038904938	-4.6047101788	 2.0684484947	 0.238984
55.7367	57.1008	83.1015	123.2617	141.0582	175.7866	218.9356	235.1809	259.8067	311.2113	367.0852	393.678	498.7732	573.2783	590.4072	761.5828	834.5496	838.7131	887.8739	975.0871	1002.7906	1058.4301	1063.9839	1097.1488	1145.4215	1165.6782	1177.2794	1207.8731	1221.3334	1240.1212	1271.1032	1306.1557	1321.0259	1337.8208	1380.3594	1414.3851	1430.1641	1481.1027	1482.7896	1485.7123	1498.1081	1506.5157	1532.7139	1656.2817	2362.5637	2942.2526	2968.4502	2971.1833	3013.8768	3021.7498	3028.953	3034.6159	3060.9871	3083.7477	3116.2779	3496.868	3586.9768
COCCCC(N)C#N	COCCC[C@@H](N)C#N	
InChI=1S/C6H12N2O/c1-9-4-2-3-6(8)5-7/h6H,2-4,8H2,1H3	InChI=1S/C6H12N2O/c1-9-4-2-3-6(8)5-7/h6H,2-4,8H2,1H3/t6-/m1/s1
