21
gdb 119235	2.05356	1.17818	0.8573	3.5516	81.53	-0.2447	-0.0175	0.2273	1437.5744	0.179387	-424.217734	-424.207255	-424.206311	-424.253787	36.857	
C	 0.4254891535	 1.4577174627	-0.3001296886	-0.224221
O	 0.4285668524	 0.0533499597	-0.1965365127	-0.236478
C	 0.5121951908	-0.4001855875	 1.1411153145	-0.175523
C	 0.4258295212	-1.9036841882	 1.1283906804	 0.22905
C	 1.6386071536	-2.7316752288	 0.7111476405	-0.304077
C	 1.1953266834	-2.7795260285	 2.1308376399	-0.031085
C	 2.0219303659	-2.203567378	 3.2588892034	-0.419947
C	-0.8954283906	-2.4491773812	 0.7093354556	 0.104553
O	-1.1391913984	-3.6253282851	 0.5715064443	-0.27909
H	 1.3495824735	 1.8995351497	 0.1056700562	 0.10391
H	 0.3518255685	 1.7067673818	-1.361268229	 0.131171
H	-0.4289787773	 1.9061789061	 0.2312987776	 0.105001
H	 1.447146586	-0.0546414449	 1.6063832001	 0.089621
H	-0.3169905293	 0.0261770881	 1.7342023422	 0.088425
H	 1.4310390414	-3.5846574182	 0.0751738215	 0.13718
H	 2.5352448066	-2.1705041666	 0.4684373758	 0.11885
H	 0.628728729	-3.6687554368	 2.3941578415	 0.113423
H	 2.6424832194	-1.3641225097	 2.9339852348	 0.120482
H	 1.3936467915	-1.8614271035	 4.0881921408	 0.123367
H	 2.6966857992	-2.9722934797	 3.6510332784	 0.12836
H	-1.6779992302	-1.6793567313	 0.5309943229	 0.077028
60.3348	94.5413	104.4402	123.9038	199.7234	204.2382	211.4324	227.531	292.1251	342.0829	372.1378	422.1857	502.4831	661.7638	747.3591	769.0261	889.0726	906.1708	955.8534	970.302	992.8058	1029.0627	1057.3733	1082.1469	1122.823	1136.8661	1151.8239	1183.3569	1198.8772	1224.2496	1242.0309	1301.3965	1318.6748	1401.8346	1415.3545	1429.7079	1438.3386	1475.4479	1479.966	1485.7128	1493.3847	1500.2549	1505.7186	1524.1069	1805.7388	2889.9833	2943.1684	2969.6462	3004.6998	3013.2453	3034.5425	3093.7852	3109.112	3117.4794	3132.9168	3151.464	3228.0298
COCC1(CC1C)C=O	COC[C@]1(C[C@H]1C)C=O	
InChI=1S/C7H12O2/c1-6-3-7(6,4-8)5-9-2/h4,6H,3,5H2,1-2H3	InChI=1S/C7H12O2/c1-6-3-7(6,4-8)5-9-2/h4,6H,3,5H2,1-2H3/t6-,7+/m1/s1
