17
gdb 111729	2.8751	1.16768	0.95232	1.2643	76.4	-0.237	0.0249	0.2619	1240.9618	0.134189	-421.736237	-421.727444	-421.7265	-421.770129	32.741	
O	 0.1275021076	 1.3165751303	-0.366861598	-0.415386
C	 0.0865208903	 0.0075589787	 0.1812053269	-0.096943
C	-1.3142150681	-0.5633624783	 0.1502958898	-0.118767
C	-1.9106400433	-1.2104099946	-1.0563085395	 0.029384
O	-0.9310293264	-1.9082343354	-1.8210626058	-0.283814
C	-0.6992705772	-2.8317222938	-0.7258658389	-0.142098
C	-1.6513704353	-2.057944589	 0.1971044828	 0.078449
C	-2.5274167848	-2.6424771156	 1.148346804	 0.1746
C	-3.2558311766	-3.1549670481	 1.9583429328	-0.397917
H	-0.0873334774	 1.2412596049	-1.3026238746	 0.288762
H	 0.785532867	-0.6611271888	-0.336173763	 0.104043
H	 0.4246540376	 0.1053456641	 1.2175151755	 0.118428
H	-2.0428219798	 0.016695357	 0.7119860344	 0.111637
H	-2.8341946605	-0.9261605086	-1.5476820935	 0.120171
H	-1.0873210185	-3.8241637228	-0.9747703887	 0.125388
H	 0.3565050858	-2.8998414124	-0.44365351	 0.115081
H	-3.9020729506	-3.6022030076	 2.6721421659	 0.188982
50.4928	125.1943	144.8877	208.362	236.4486	318.8803	354.1546	394.4316	484.6046	510.326	569.9926	609.9695	621.4313	657.0219	770.0457	808.6411	917.4968	931.7917	966.7461	992.3877	1026.8895	1059.6017	1072.6161	1079.2073	1097.1113	1157.7157	1198.697	1214.6251	1272.8859	1292.2789	1343.512	1395.0795	1414.9181	1459.4569	1494.9873	1515.3536	2233.2302	3029.1901	3040.0647	3084.1108	3094.5002	3151.5295	3184.9203	3503.2003	3812.9811
OCC1C2OCC12C#C	OC[C@H]1[C@H]2OC[C@@]12C#C	
InChI=1S/C7H8O2/c1-2-7-4-9-6(7)5(7)3-8/h1,5-6,8H,3-4H2	InChI=1S/C7H8O2/c1-2-7-4-9-6(7)5(7)3-8/h1,5-6,8H,3-4H2/t5-,6+,7-/m0/s1
