17
gdb 44233	3.97702	1.22289	1.14033	3.3408	72.9	-0.247	0.0218	0.2687	1091.4583	0.137569	-417.980582	-417.973193	-417.972249	-418.01259	28.977	
O	-0.0094218928	 0.0518819378	-0.083122476	-0.351665
C	 0.0077294264	 1.2474097983	 0.0165804141	 0.415114
N	-1.0058401663	 2.1936574607	 0.0797338365	-0.314549
C	-0.1113335752	 3.3540828367	 0.029891789	-0.099926
C	 1.0900456854	 2.3469762509	 0.0565251549	-0.186724
C	 1.5103047368	 2.8144157703	-1.3742517805	-0.314087
C	 0.3275308	 3.7962212619	-1.3766668337	 0.361131
C	-0.5296249128	 4.2924601671	-2.4726030266	-0.305251
N	 0.4636169195	 5.1779436859	-1.8290589665	-0.358344
H	-1.9597326718	 2.1055678631	-0.2459010937	 0.24614
H	-0.2978211825	 4.1196718062	 0.7864762999	 0.086986
H	 1.8412753769	 2.3091859775	 0.8414444359	 0.104566
H	 2.4690262383	 3.3366062275	-1.3902901632	 0.126867
H	 1.5153269591	 2.0336032542	-2.137962388	 0.122843
H	-0.3020523804	 4.026566437	-3.501418172	 0.127231
H	-1.5866514772	 4.4531948545	-2.2709141106	 0.108802
H	-0.0022747535	 5.8089808605	-1.1797532494	 0.230866
73.6748	176.9892	223.4711	310.6511	338.1328	443.6673	465.6652	503.1114	559.815	703.1909	755.4048	789.3573	833.2093	872.0231	883.9892	905.4677	939.3305	969.6622	989.9269	1008.2262	1043.1865	1052.5101	1120.3317	1128.0728	1138.6283	1146.072	1219.6885	1229.6459	1262.0438	1263.4932	1290.5671	1309.5373	1356.6841	1411.7777	1479.5685	1512.8821	1893.2828	3071.7401	3085.8458	3100.3357	3126.4797	3152.9823	3185.7977	3481.6424	3578.2217
O=C1NC2C1CC21CN1	O=C1N[C@H]2[C@@H]1C[C@]12CN1	
InChI=1S/C6H8N2O/c9-5-3-1-6(2-7-6)4(3)8-5/h3-4,7H,1-2H2,(H,8,9)	InChI=1S/C6H8N2O/c9-5-3-1-6(2-7-6)4(3)8-5/h3-4,7H,1-2H2,(H,8,9)/t3-,4-,6+/m0/s1
