14
gdb 123396	7.58061	0.7975	0.72483	1.5975	70.61	-0.2577	-0.0062	0.2516	1453.4875	0.099847	-436.629213	-436.621268	-436.620324	-436.662617	28.635	
C	 0.0222274787	-1.1774086454	-0.0053826687	-0.399958
C	 0.03540225	 0.0228460764	 0.0022228556	 0.298486
C	 0.0080007305	 1.4748226028	 0.0119519625	-0.25284
O	 1.3626440389	 1.9646710962	-0.0008947991	-0.264136
C	 1.482318641	 3.2953580024	 0.0062462577	 0.496036
N	 0.4517961593	 4.1109658716	 0.0237089563	-0.224811
O	 1.010170199	 5.3925775976	 0.0253391306	-0.191467
C	 2.3465439775	 5.2833548782	 0.0087869201	 0.101066
C	 2.73035773	 3.9852588877	-0.0041153087	-0.369994
H	 0.0135044106	-2.2394811638	-0.0121395655	 0.205554
H	-0.5268889886	 1.8680566813	-0.8609890093	 0.156515
H	-0.5060377847	 1.8566331609	 0.9023177169	 0.156515
H	 2.8917703045	 6.2147984713	 0.0083135614	 0.156196
H	 3.7211599335	 3.5660707128	-0.0185618199	 0.132836
47.1686	114.3532	120.4307	231.0798	323.3057	349.6562	420.0729	514.4385	594.9565	614.3498	689.4166	722.1717	766.4639	791.528	875.5092	913.0044	945.6685	978.5524	1016.149	1016.9667	1047.4529	1089.1121	1168.1179	1250.3879	1321.5621	1387.4993	1460.018	1487.5515	1532.9515	1624.6095	2252.4178	3031.3106	3064.5848	3262.4496	3297.3758	3505.3014
C#CCOC1=NOC=C1	C#CCOc1nocc1	
InChI=1S/C6H5NO2/c1-2-4-8-6-3-5-9-7-6/h1,3,5H,4H2	InChI=1S/C6H5NO2/c1-2-4-8-6-3-5-9-7-6/h1,3,5H,4H2
