19
gdb 90243	3.47771	1.50696	1.408	2.2797	75.98	-0.2311	0.0511	0.2823	1001.6467	0.159606	-422.911761	-422.904532	-422.903588	-422.942942	29.92	
C	-0.073729533	 1.5213865268	-0.0585561633	-0.41818
C	 0.1098129719	 0.0142266426	 0.0248315438	 0.161967
O	 1.1032976314	-0.4546749569	-0.9109399987	-0.312389
C	 2.0126806921	-1.2415296093	-0.1016334094	 0.33529
C	 2.0995095017	-2.5918802781	-0.8543045231	-0.172869
O	 0.8148491677	-2.9686207799	-0.2159051968	-0.315327
C	 1.1422443583	-2.0064320654	 0.8368232755	 0.127689
C	 0.7091497059	-0.5623395537	 1.3021496385	-0.155627
C	 2.2909790463	-0.2643341487	 1.078467619	-0.336816
H	 0.8329726415	 2.0613839826	 0.227741832	 0.116373
H	-0.3280906322	 1.8063625992	-1.0836919778	 0.130919
H	-0.8911850728	 1.8430793153	 0.5953788616	 0.114057
H	-0.8448826844	-0.4794554323	-0.2030108626	 0.085381
H	 2.0163973596	-2.5489780569	-1.941237524	 0.129949
H	 2.9026460971	-3.2626091431	-0.5316454281	 0.108693
H	 1.6653093336	-2.5265628164	 1.6447406644	 0.087177
H	 0.2110512891	-0.3658019835	 2.2518472562	 0.080373
H	 2.9050342432	-0.6720639211	 1.8808663758	 0.116541
H	 2.5773176229	 0.7607445388	 0.8403936268	 0.116801
169.1724	207.8278	246.8511	315.2019	330.3477	427.6153	487.2737	521.0998	613.9787	649.7993	747.0987	790.4769	811.5289	849.8587	858.5315	884.2919	915.2765	923.2828	968.0237	997.5205	1004.1712	1026.5217	1073.572	1094.098	1109.7151	1133.6146	1138.3281	1188.6291	1189.607	1213.8906	1237.433	1273.462	1300.4953	1327.2897	1377.5065	1398.1242	1412.2352	1480.1839	1488.32	1491.3718	1497.682	3007.6786	3040.6132	3045.9961	3058.5448	3088.8159	3109.9255	3119.8373	3121.2889	3133.9962	3161.0783
CC1OC23COC2C1C3	C[C@H]1O[C@]23CO[C@@H]2[C@H]1C3	
InChI=1S/C7H10O2/c1-4-5-2-7(9-4)3-8-6(5)7/h4-6H,2-3H2,1H3	InChI=1S/C7H10O2/c1-4-5-2-7(9-4)3-8-6(5)7/h4-6H,2-3H2,1H3/t4-,5+,6-,7-/m1/s1
