17
gdb 36082	3.75575	1.24121	1.13779	1.9772	77.41	-0.2361	-0.0008	0.2353	1109.3098	0.134829	-384.605087	-384.597333	-384.596389	-384.637536	30.701	
C	-0.0545893394	-1.2426606595	 0.0957943426	-0.447565
C	-0.034933406	-0.041692167	 0.0754368267	 0.31062
C	-0.0043051873	 1.4160630779	 0.0371353698	-0.48185
C	 1.3962131168	 1.9909534704	-0.0356534841	 0.386526
C	 1.7033597864	 3.5238080175	-0.0010225224	-0.265979
C	 3.0218428872	 2.8904436968	 0.5315775272	 0.010789
O	 2.1956811999	 1.8760182499	 1.1922463107	-0.311178
C	 3.5221276373	 2.1258558775	-0.7109254461	-0.087006
C	 2.4074635782	 1.5077662467	-1.1008295213	-0.10974
H	-0.0703123583	-2.3038591626	 0.1250266887	 0.198005
H	-0.5675802104	 1.7764066995	-0.8339709241	 0.136628
H	-0.5016296802	 1.8266942946	 0.9235497714	 0.143403
H	 1.7250677493	 4.0781594666	-0.9414754384	 0.098107
H	 1.1401456119	 4.0460284576	 0.7770292341	 0.104932
H	 3.7240529963	 3.4019906411	 1.1874427917	 0.08337
H	 4.5192591126	 2.1247580227	-1.1253401639	 0.111695
H	 2.2074341456	 0.8347269103	-1.9209401326	 0.119242
62.4681	108.0077	281.4756	285.4273	338.4614	431.0868	478.3064	533.0128	609.2903	620.6672	641.1066	684.8466	707.6547	756.2162	808.672	838.7033	886.1441	896.9989	904.3785	950.3069	967.5859	1006.2819	1010.3225	1052.1406	1067.0819	1118.488	1200.2306	1235.0425	1243.2562	1259.8429	1286.8036	1325.544	1360.3618	1454.6053	1484.8313	1620.1643	2243.1218	3023.8219	3058.9396	3064.9201	3132.3971	3141.614	3234.0211	3261.5047	3506.8272
C#CCC12CC(O1)C=C2	C#CC[C@@]12C[C@@H](O1)C=C2	
InChI=1S/C8H8O/c1-2-4-8-5-3-7(6-8)9-8/h1,3,5,7H,4,6H2	InChI=1S/C8H8O/c1-2-4-8-5-3-7(6-8)9-8/h1,3,5,7H,4,6H2/t7-,8+/m0/s1
