16
gdb 125291	5.01858	1.20882	0.986	4.2863	79.19	-0.2362	-0.025	0.2113	1156.9251	0.125889	-400.759054	-400.75193	-400.750985	-400.790511	27.723	
C	-0.0189855368	 1.4649585214	 0.0341048739	-0.486634
C	-0.000168488	-0.0276787354	-0.0170237391	 0.306127
C	-0.0382910827	-0.8046862018	-1.1209288336	-0.297285
C	 0.0002538356	-2.200078366	-0.7069372062	 0.400173
N	-0.0087113434	-3.3748515202	-1.2811285864	-0.266436
O	 0.0531197605	-4.2748977379	-0.1989796281	-0.182739
C	 0.0950219773	-3.5861216784	 0.9673394519	-0.082008
C	 0.0647429036	-2.2609695437	 0.7170841366	 0.144973
C	 0.0690507064	-0.865770999	 1.2649012962	-0.46716
H	 0.8796597053	 1.8561962871	 0.5277236154	 0.133849
H	-0.0736081274	 1.8995072907	-0.9670363747	 0.133548
H	-0.8763003008	 1.8312892806	 0.6129175338	 0.133729
H	-0.0891314945	-0.4539516247	-2.1428220854	 0.114752
H	 0.1435468107	-4.1965687852	 1.8556423551	 0.147716
H	 0.9705474748	-0.6266591356	 1.8437892512	 0.13369
H	-0.7839916407	-0.6519245218	 1.9218455394	 0.133704
131.9496	165.1882	270.8562	274.0419	339.8177	457.5717	485.4879	521.77	584.7101	721.0119	741.4898	804.1622	826.6767	859.6996	861.4302	878.6297	944.5482	956.4821	1008.4833	1058.3211	1104.0795	1159.2132	1164.978	1167.8515	1248.1968	1280.4742	1328.126	1403.4333	1417.6717	1457.1385	1476.9588	1482.6131	1569.4178	1646.4642	1687.3918	3018.8286	3026.7359	3052.2749	3065.769	3118.3647	3227.599	3262.7738
CC1=CC2=NOC=C2C1	CC1=Cc2nocc2C1	
InChI=1S/C7H7NO/c1-5-2-6-4-9-8-7(6)3-5/h3-4H,2H2,1H3	InChI=1S/C7H7NO/c1-5-2-6-4-9-8-7(6)3-5/h3-4H,2H2,1H3
