13
gdb 28187	5.40269	1.3518	1.08249	1.573	65.79	-0.1952	0.022	0.2172	1018.6421	0.091896	-452.766531	-452.759874	-452.758929	-452.797458	25.856	
N	 0.1130763772	 1.3046174348	 0.1460579208	-0.5855
C	-0.0569980212	-0.0522430658	 0.0434836313	 0.417467
N	-1.1636586187	-0.7279068402	 0.018303474	-0.413356
C	-0.7145221998	-2.0581193655	 0.017301168	 0.178905
C	 0.6331464352	-2.0468155184	 0.0328353249	 0.383746
O	 1.2223710961	-3.238944309	-0.0060696125	-0.208216
C	 0.1326246666	-4.1132627183	-0.0410374938	-0.024698
C	-1.0625258907	-3.4499840089	-0.0297372918	-0.313023
O	 1.1290848078	-0.786387936	 0.0482024706	-0.24059
H	 0.9348749695	 1.6635771747	-0.3190348269	 0.267639
H	-0.7289921238	 1.8140087636	-0.0803022768	 0.27444
H	 0.4023657463	-5.1545134245	-0.0605260895	 0.140923
H	-2.0353985444	-3.9146914363	-0.0518480881	 0.122264
128.0707	246.0774	293.9397	333.2806	347.5167	541.918	587.3951	592.1424	624.2383	658.6895	733.7703	745.1587	763.8583	826.199	832.5014	889.1276	938.2519	1003.7797	1114.0788	1139.0068	1169.9751	1271.6181	1351.3863	1438.4645	1504.9558	1518.5634	1600.5257	1641.8139	1693.0606	3262.3043	3302.0475	3567.9153	3676.1935
NC1=NC2=C(OC=C2)O1	Nc1nc2c(occ2)o1	
InChI=1S/C5H4N2O2/c6-5-7-3-1-2-8-4(3)9-5/h1-2H,(H2,6,7)	InChI=1S/C5H4N2O2/c6-5-7-3-1-2-8-4(3)9-5/h1-2H,(H2,6,7)
