19
gdb 31485	3.1492	1.11317	0.83984	2.9336	80.77	-0.1966	0.038	0.2346	1384.2172	0.158836	-419.259061	-419.249147	-419.248203	-419.29448	34.949	
C	-0.0477348439	 1.5032859524	 0.160383092	-0.510678
C	 0.0034620053	 0.0219311626	-0.0062088548	 0.224404
C	-0.008031526	-0.8018183542	-1.1085238376	 0.199314
C	-0.0623139535	-0.4335540253	-2.5563367279	-0.493153
N	 0.0330557114	-2.1288788746	-0.7178811628	-0.370793
C	 0.0749497984	-2.1094835326	 0.5927610841	 0.336054
C	 0.1723618317	-3.2924378241	 1.5017192907	-0.193367
O	-0.2575705082	-2.8789229595	 2.7955072231	-0.430375
N	 0.0675305008	-0.8385742699	 1.0762645943	-0.317099
H	 0.8356376241	 1.8920817019	 0.68257376	 0.126073
H	-0.0913023426	 1.9915844075	-0.8155200612	 0.138712
H	-0.9300549781	 1.8254164395	 0.7279744504	 0.127202
H	 0.8239477174	-0.7951986277	-3.0898355851	 0.12835
H	-0.9341924102	-0.8839346222	-3.0434100917	 0.129827
H	-0.1199259479	 0.6493721367	-2.6958839464	 0.111202
H	-0.446935266	-4.1042688901	 1.0963221616	 0.122967
H	 1.2110262054	-3.6588608621	 1.5345616193	 0.110441
H	-0.0325674032	-3.5719992508	 3.4220179888	 0.295147
H	 0.0393967352	-0.6051493075	 2.0549652632	 0.265773
53.963	77.5256	124.1713	149.6549	188.5339	222.7462	249.1588	267.2435	328.2158	369.3576	504.4791	563.4563	633.6237	648.5715	677.8069	703.1616	783.9389	983.9607	1000.7253	1032.4431	1041.8536	1059.5961	1066.2203	1080.268	1175.6153	1186.8815	1226.1382	1247.7039	1288.3473	1398.7289	1420.0657	1423.6818	1449.162	1474.7206	1478.5434	1481.2908	1496.6092	1497.6933	1514.5332	1578.2092	1642.0218	2971.2411	3015.2921	3024.6379	3031.3974	3057.9321	3082.117	3112.9098	3124.7505	3666.6414	3843.4313
CC1=C(C)N=C(CO)N1	Cc1c(C)nc(CO)[nH]1	
InChI=1S/C6H10N2O/c1-4-5(2)8-6(3-9)7-4/h9H,3H2,1-2H3,(H,7,8)	InChI=1S/C6H10N2O/c1-4-5(2)8-6(3-9)7-4/h9H,3H2,1-2H3,(H,7,8)
