23
gdb 82291	2.36068	1.59582	1.29563	1.3308	83.93	-0.2541	0.0666	0.3207	1120.9058	0.206104	-388.292766	-388.283759	-388.282815	-388.325606	36.621	
C	 0.0371652486	 1.5570828607	-0.0541719638	-0.466951
C	 0.0387330269	 0.0260280351	-0.0204537455	 0.297085
C	-1.4078296078	-0.4995274224	-0.0217956259	-0.423181
C	 0.8119111313	-0.5999111759	-1.2170564872	-0.264767
C	 1.2978781242	-1.9618330381	-0.7201816314	-0.031564
C	 2.5797443424	-1.9854073778	 0.0664230602	-0.278313
C	 1.262378192	-1.9348333561	 0.7979536877	-0.037257
C	 0.7637138128	-0.5617102847	 1.2401081643	 0.064111
O	 1.8733602675	 0.2195775296	 1.6782112492	-0.436581
H	 1.0561151016	 1.954571491	-0.0516696718	 0.119148
H	-0.4614523323	 1.9252635398	-0.9573222981	 0.114641
H	-0.5023930673	 1.9790418185	 0.8038310687	 0.101305
H	-1.9388253172	-0.1755407639	-0.9233065027	 0.109304
H	-1.4329589391	-1.5938333775	 0.0055090406	 0.11897
H	-1.9660946616	-0.1300985959	 0.8458925479	 0.106117
H	 0.167668453	-0.6924794732	-2.0971636225	 0.090878
H	 1.6538430248	 0.0385548143	-1.5077455001	 0.097078
H	 1.0063314702	-2.8535443084	-1.2635404492	 0.077581
H	 3.1296198029	-2.9194836279	 0.1127244538	 0.101906
H	 3.1982125687	-1.0955641299	 0.0790885875	 0.126677
H	 0.958391016	-2.8008557197	 1.3737424385	 0.078947
H	 0.0452883312	-0.6657780739	 2.0663886583	 0.055154
H	 1.5331875212	 1.0612128866	 1.9969568116	 0.279712
84.9149	219.3906	238.4228	250.9859	283.3129	304.4647	325.813	348.3791	365.8128	415.5856	484.1938	517.4931	619.6627	668.3144	771.3257	798.0703	816.513	878.8099	903.6066	907.9672	942.3507	955.0933	961.5915	1009.3451	1021.3887	1035.8347	1065.0947	1080.6259	1108.3353	1116.8172	1175.6379	1200.9265	1218.1911	1222.5594	1243.0075	1272.0574	1309.8295	1341.3061	1353.9267	1385.72	1388.9422	1413.9912	1423.8529	1481.6035	1486.7028	1492.2306	1500.9417	1505.1867	1515.7884	2985.9514	3016.4316	3025.348	3035.7118	3075.7231	3080.587	3091.8606	3099.5946	3105.7474	3133.4651	3165.0993	3176.1711	3222.9024	3822.8563
CC1(C)CC2CC2C1O	CC1(C)C[C@H]2C[C@H]2[C@H]1O	
InChI=1S/C8H14O/c1-8(2)4-5-3-6(5)7(8)9/h5-7,9H,3-4H2,1-2H3	InChI=1S/C8H14O/c1-8(2)4-5-3-6(5)7(8)9/h5-7,9H,3-4H2,1-2H3/t5-,6-,7-/m1/s1
