14
gdb 124346	2.90325	1.62188	1.04727	4.411	66.74	-0.2424	-0.0308	0.2116	1060.8788	0.100448	-470.03553	-470.027598	-470.026653	-470.068559	28.469	
C	-0.0239836507	 1.5176993541	-0.1028026573	-0.483711
C	-0.0162715537	 0.0175317306	 0.0821669557	 0.416897
O	-0.0267084343	-0.5463143138	 1.143582272	-0.283919
N	 0.0035242221	-0.7167098479	-1.1277029044	-0.140424
N	 0.0146618218	-0.071588332	-2.3620921119	-0.22273
C	 0.0317638067	-1.024435064	-3.210605744	 0.095702
O	 0.0334085462	-2.2727686481	-2.6877314139	-0.206426
C	 0.0146961352	-2.1089494618	-1.2945376082	 0.483475
N	 0.0098611195	-3.0212172995	-0.4344017981	-0.536892
H	 0.8566659982	 1.8479770293	-0.6596909862	 0.155402
H	-0.8989642816	 1.8362317812	-0.6754365612	 0.155434
H	-0.0362876439	 1.9711180551	 0.8875902478	 0.148507
H	 0.044593277	-0.9224912026	-4.284074461	 0.177482
H	 0.0215386774	-3.9373135006	-0.8775591294	 0.241202
76.8025	110.7516	152.7014	208.8696	238.0814	352.8516	452.6695	527.9917	575.091	624.7356	643.6937	714.913	756.6171	790.9922	862.7522	909.6691	942.2021	978.7367	1055.5136	1087.9081	1121.2681	1183.7419	1233.1018	1319.2828	1359.5972	1396.199	1461.6727	1472.7255	1670.9229	1785.8017	1849.7919	3061.4303	3127.8487	3170.9308	3283.1794	3530.3687
CC(=O)N1N=COC1=N	CC(=O)N1N=CO[C@H]1[NH]	
InChI=1S/C4H5N3O2/c1-3(8)7-4(5)9-2-6-7/h2,5H,1H3	InChI=1S/C4H6N3O2/c1-3(8)7-4(5)9-2-6-7/h2,4-5H,1H3/t4-/m0/s1
