20
gdb 61309	4.68077	0.69012	0.67415	5.8411	81.09	-0.2468	0.0376	0.2844	1695.2089	0.17103	-399.303106	-399.293373	-399.292429	-399.33852	35.111	
N	 0.0127498928	 1.548556807	 0.0949306792	-0.496834
C	-0.0157054713	 0.1061934699	-0.1265009201	 0.02823
C	-1.4459442647	-0.4235269483	 0.0936655642	-0.349954
C	-1.9350458707	-0.2162539818	 1.4548306679	 0.281989
N	-2.3313019554	-0.085036692	 2.5319383874	-0.308419
C	 0.5034578491	-0.3325869504	-1.5089375315	-0.152344
N	 1.865900483	 0.1488469992	-1.6956635516	-0.070873
C	 2.9402945332	-0.7740035857	-1.3337672698	-0.222667
C	 2.6421721931	-0.4738377876	-2.7609516969	-0.221853
H	 0.9499324727	 1.8804248452	-0.1181900254	 0.243046
H	-0.5998187096	 2.0082297913	-0.5762351072	 0.220376
H	 0.6329313302	-0.3489677861	 0.6331014372	 0.105756
H	-2.1348399955	 0.0691929947	-0.6048144579	 0.143892
H	-1.4888425945	-1.4957130849	-0.1283297224	 0.148399
H	 0.4313932719	-1.4314878384	-1.6161479855	 0.078285
H	-0.1251973965	 0.1136584401	-2.2918407073	 0.097577
H	 3.8017028427	-0.3305565314	-0.8436539975	 0.124654
H	 2.6619393391	-1.7599571066	-0.9645084436	 0.11435
H	 2.1663749691	-1.2602290354	-3.3446023602	 0.113392
H	 3.2818612215	 0.1929937611	-3.331738839	 0.122997
53.1812	84.4192	105.2583	119.1431	195.5896	283.451	291.4038	350.8175	385.2078	395.8365	427.3625	473.2728	602.785	769.8806	831.4972	861.7904	898.3681	907.8194	920.4425	950.2436	1001.707	1026.8806	1043.5905	1095.1274	1115.0307	1122.3772	1144.3652	1170.0783	1176.0362	1196.4484	1260.7748	1295.2682	1323.1676	1333.1539	1361.9191	1393.4364	1419.0576	1463.0355	1483.8622	1493.3711	1521.3646	1669.0388	2367.0733	2922.2169	3020.1275	3029.8396	3042.3142	3077.8752	3095.9158	3100.7089	3181.2185	3195.4065	3471.0177	3552.834
NC(CC#N)CN1CC1	N[C@@H](CC#N)CN1CC1	
InChI=1S/C6H11N3/c7-2-1-6(8)5-9-3-4-9/h6H,1,3-5,8H2	InChI=1S/C6H11N3/c7-2-1-6(8)5-9-3-4-9/h6H,1,3-5,8H2/t6-/m0/s1
