18
gdb 93425	3.27707	1.26277	0.95404	6.88	77.56	-0.2166	-0.0154	0.2012	1215.6364	0.149025	-439.129073	-439.120614	-439.11967	-439.162263	31.811	
C	 0.0175331716	 1.591791101	-0.0718786877	-0.420995
C	-0.1117176611	 0.0685938429	-0.0205811389	 0.039286
C	 0.7146382065	-0.6018578741	-1.1267105271	-0.082715
O	 0.266595872	-1.9005991649	-1.4723435934	-0.237878
C	 0.4777856763	-2.9759914075	-0.6410007462	 0.375862
O	 0.3605146711	-4.0766084377	-1.1223011645	-0.350327
C	 0.8053688762	-2.7648342666	 0.7683992359	-0.256653
C	 0.6940614115	-1.676621133	 1.5690590282	 0.026358
N	 0.3308555224	-0.4023285556	 1.2816498249	-0.307976
H	 1.0660458113	 1.9000760508	-0.0036707983	 0.131894
H	-0.3998262834	 1.9806021078	-1.0039684564	 0.136298
H	-0.5291878986	 2.0577825436	 0.7550374577	 0.121864
H	-1.1619031463	-0.2129246802	-0.1928342579	 0.104247
H	 0.6103225324	-0.0204453589	-2.0460770358	 0.121641
H	 1.774595118	-0.6106124666	-0.8432164655	 0.121424
H	 1.0957807174	-3.6870341379	 1.2552049596	 0.109269
H	 0.9385175534	-1.8114102691	 2.6197758763	 0.119856
H	 0.2074880792	 0.224921246	 2.0582746791	 0.248546
70.4542	117.4294	226.8943	244.2231	282.0368	302.9608	345.3355	381.2546	445.6179	506.6477	523.5234	631.4382	737.076	760.1918	822.132	845.3336	876.0295	940.289	956.5407	982.9962	1068.6883	1105.5954	1131.1242	1143.9404	1172.3702	1261.2094	1286.3166	1313.4868	1352.5264	1382.7117	1409.074	1418.1497	1442.0864	1489.321	1493.9163	1501.2241	1544.8429	1688.0956	1798.942	2985.852	3032.3188	3037.364	3101.7257	3103.3632	3125.2457	3162.4693	3213.9131	3650.0983
CC1COC(=O)C=CN1	C[C@H]1COC(=O)C=CN1	
InChI=1S/C6H9NO2/c1-5-4-9-6(8)2-3-7-5/h2-3,5,7H,4H2,1H3	InChI=1S/C6H9NO2/c1-5-4-9-6(8)2-3-7-5/h2-3,5,7H,4H2,1H3/t5-/m0/s1
