16
gdb 93477	2.97099	1.37096	0.97151	1.4317	66.53	-0.2734	-0.0363	0.2371	1141.6532	0.125875	-475.108024	-475.10023	-475.099286	-475.140555	29.646	
O	 0.0572751157	 1.4059613239	 0.1683883676	-0.438715
C	 0.0006464546	 0.015128871	 0.0319173123	 0.053096
C	-1.4379319544	-0.4992565006	 0.0277923097	-0.2467
C	-1.4349332173	-2.0226323209	-0.1356275176	-0.333918
C	-0.6314134704	-2.5048620812	-1.3317733173	 0.419556
O	-0.8228468243	-3.5491355041	-1.9051268114	-0.329986
N	 0.3970894731	-1.6495624496	-1.7511630118	-0.364426
C	 0.7176970715	-0.4031263319	-1.2503198911	 0.396132
O	 1.5283800519	 0.3222007786	-1.787731214	-0.360568
H	 0.7800207504	 1.6965282166	-0.4095500503	 0.296963
H	 0.5434598738	-0.4828670502	 0.8589898927	 0.098031
H	-1.931584685	-0.211618873	 0.9595138324	 0.12731
H	-1.9852516284	-0.0192370145	-0.7911289285	 0.123804
H	-0.9939321835	-2.4970614652	 0.7518273683	 0.14378
H	-2.4403618739	-2.4346618356	-0.240409082	 0.146771
H	 0.9051021562	-1.9495437732	-2.5758133691	 0.26887
81.3305	137.9907	212.1703	306.4852	368.1347	374.8313	417.4905	453.2789	492.2969	548.8726	600.4531	662.2093	727.5982	756.7471	781.5937	855.2417	906.974	982.9437	1050.9759	1083.5328	1156.6217	1166.5455	1207.58	1264.5667	1290.9785	1328.2074	1335.4997	1355.0897	1390.2299	1416.0484	1449.5359	1462.5586	1501.6957	1798.1522	1827.729	2915.8134	3030.1719	3053.3854	3105.4514	3119.4573	3570.7453	3705.7342
OC1CCC(=O)NC1=O	O[C@H]1CCC(=O)NC1=O	
InChI=1S/C5H7NO3/c7-3-1-2-4(8)6-5(3)9/h3,7H,1-2H2,(H,6,8,9)	InChI=1S/C5H7NO3/c7-3-1-2-4(8)6-5(3)9/h3,7H,1-2H2,(H,6,8,9)/t3-/m0/s1
