22
gdb 22312	2.93807	1.08117	0.84893	0.8996	86.36	-0.2364	0.0165	0.2529	1411.2907	0.195219	-404.342344	-404.333253	-404.332308	-404.375889	35.535	
C	-0.0269232964	 1.5371098505	 0.0579462186	-0.403201
C	 0.020483429	 0.0080823594	 0.0035966928	 0.040199
C	 0.6712118552	-0.5042886271	-1.2922747565	-0.181433
C	 0.71799605	-2.0365801969	-1.3462631041	-0.212701
C	 1.4462561572	-2.6337946956	-0.1249240767	-0.292245
C	 0.8750175291	-2.0727391328	 1.1523776057	 0.374963
C	 0.7581754944	-0.5726282934	 1.23011695	-0.270104
N	 0.4583441898	-2.7369743513	 2.1612467589	-0.200291
O	 0.6104039017	-4.1278973892	 1.9987246228	-0.399916
H	 0.9835344746	 1.9623090083	 0.0336425277	 0.112156
H	-0.5806036688	 1.946548018	-0.793554673	 0.11071
H	-0.5127985664	 1.8879472537	 0.9745419178	 0.113153
H	-1.0119683146	-0.3701169836	 0.0318692755	 0.077453
H	 0.1269711379	-0.1144331347	-2.1606930181	 0.091271
H	 1.6932777588	-0.102995102	-1.3614796747	 0.089117
H	-0.3061885811	-2.4298227016	-1.3773652406	 0.104509
H	 1.2099597902	-2.3718232327	-2.2657690151	 0.095159
H	 1.3909521151	-3.7221085965	-0.122997795	 0.130481
H	 2.5096617026	-2.3586181387	-0.1752756993	 0.108313
H	 1.7701225682	-0.1392166676	 1.260170046	 0.099278
H	 0.2578593673	-0.2954756536	 2.1620007189	 0.109703
H	 0.2409618262	-4.4622926925	 2.8221701384	 0.303426
80.509	125.5857	223.6961	234.6837	280.6723	319.2356	323.0551	355.7511	401.6542	408.5296	442.2499	490.2666	587.0297	676.8795	768.5791	818.4724	859.7958	870.5705	894.2565	946.1873	976.8632	987.4618	988.7106	1056.5163	1096.2965	1104.0503	1139.0077	1143.9914	1230.5168	1248.3792	1265.7623	1294.3852	1309.2329	1336.8918	1350.3947	1368.33	1377.0596	1393.7817	1410.6204	1413.8418	1470.2508	1478.1197	1487.1641	1496.708	1498.4275	1499.8456	1735.9305	2987.0261	2996.7532	3007.7846	3010.2125	3025.3094	3026.5282	3056.0661	3071.5338	3089.8007	3094.0157	3098.6196	3135.1094	3826.3405
CC1CCCC(C1)=NO	C[C@H]1CCCC(=NO)C1	
InChI=1S/C7H13NO/c1-6-3-2-4-7(5-6)8-9/h6,9H,2-5H2,1H3	InChI=1S/C7H13NO/c1-6-3-2-4-7(5-6)8-9/h6,9H,2-5H2,1H3/t6-/m0/s1
