15
gdb 129716	2.36001	1.905	1.05478	2.0629	76.19	-0.182	-0.0229	0.1591	1053.2173	0.114786	-450.143577	-450.135543	-450.134599	-450.175666	31.208	
N	 0.0197123986	 1.3910420478	 0.1527579278	-0.589502
C	-0.0284280717	 0.0315685425	 0.072351161	 0.272639
C	-1.1791440439	-0.7098001439	 0.0716607512	 0.253789
O	-2.3756977776	-0.0416229949	 0.1097408087	-0.45928
C	-1.0999617879	-2.1288404212	 0.0360431697	-0.084276
N	 0.0162725413	-2.7979422193	-0.0047267718	-0.228013
N	 1.1382686285	-2.0451067576	-0.0162182539	-0.313343
C	 1.2518043717	-0.6629905397	 0.0048824634	 0.337869
N	 2.3445266908	 0.0221511554	-0.0348794756	-0.591769
H	 0.9221488598	 1.7833104114	-0.0784830916	 0.274778
H	-0.8061114309	 1.9067535776	-0.1009560422	 0.262459
H	-3.09837768	-0.6754162969	 0.0708264948	 0.3006
H	-2.0071155605	-2.7284179288	 0.0448199573	 0.105788
H	 1.9868334722	-2.5886191285	-0.0594984193	 0.260933
H	 3.1730170195	-0.568104114	-0.0935097394	 0.197329
135.7578	190.6533	218.0062	284.0256	291.7537	340.7749	415.6151	495.8514	520.2209	530.4121	546.1518	574.0171	592.4734	649.9679	699.2452	741.5365	760.1754	866.5486	884.9084	985.2156	1091.6203	1159.8047	1178.3477	1276.0335	1318.6739	1362.4482	1409.1166	1436.5196	1471.8448	1582.0887	1619.2088	1679.3395	1708.4816	3155.608	3486.4302	3561.9812	3623.4204	3705.8001	3835.2909
NC1=C(O)C=NNC1=N	NC1=C(NN=C[C@H]1O)[NH]	
InChI=1S/C4H6N4O/c5-3-2(9)1-7-8-4(3)6/h1H,(H2,5,7)(H3,6,8,9)	InChI=1S/C4H7N4O/c5-3-2(9)1-7-8-4(3)6/h1-2,6,8-9H,5H2/t2-/m1/s1
