17
gdb 112370	2.19446	1.45039	0.9224	1.8739	69.21	-0.2599	-0.0493	0.2105	1244.2379	0.134436	-459.033615	-459.024888	-459.023944	-459.068026	31.361	
C	-0.0044825688	 1.5796997142	-0.0044367357	-0.395274
C	 0.0066358042	 0.0502355768	 0.0270163677	-0.177888
C	-1.3952261315	-0.5565730803	 0.0006760082	-0.002671
O	-2.0818178952	-0.2280155735	-1.21997505	-0.225327
C	-2.5166368436	-1.3242330012	-1.9070209269	 0.425004
O	-3.0899110079	-1.2306391529	-2.9502202724	-0.320098
C	-2.1581470261	-2.586226574	-1.138328429	-0.49533
C	-1.3859598723	-2.0879090758	 0.0680202035	 0.386857
O	-0.8464910273	-2.7342854773	 0.9248132237	-0.300918
H	 1.0155606821	 1.9737959194	 0.002117812	 0.122434
H	-0.5068679926	 1.9475627672	-0.9030308456	 0.143114
H	-0.5281613684	 1.9884425961	 0.8665497455	 0.120231
H	 0.5736259584	-0.3434349172	-0.8253538611	 0.108806
H	 0.4957277904	-0.3224252913	 0.9335043294	 0.130329
H	-1.9899098652	-0.1641143223	 0.8367667123	 0.124436
H	-3.0651641021	-3.1198882419	-0.8366504232	 0.178501
H	-1.5714789041	-3.2748307661	-1.7521810083	 0.177794
53.6236	85.5192	111.1459	163.6996	238.0244	302.0451	403.5223	413.6551	483.6977	559.1723	582.2479	610.8767	666.2813	774.7017	802.5958	859.3273	926.0142	945.9534	1002.4313	1066.1949	1092.6649	1117.4778	1148.7523	1159.956	1223.9365	1238.1466	1280.4295	1290.8409	1359.8507	1381.9172	1408.7041	1413.4337	1477.2118	1496.5239	1507.8503	1855.7361	1899.1765	3021.7201	3037.4894	3041.6339	3071.7519	3083.1589	3110.0293	3116.1562	3125.3219
CCC1OC(=O)CC1=O	CC[C@H]1OC(=O)CC1=O	
InChI=1S/C6H8O3/c1-2-5-4(7)3-6(8)9-5/h5H,2-3H2,1H3	InChI=1S/C6H8O3/c1-2-5-4(7)3-6(8)9-5/h5H,2-3H2,1H3/t5-/m1/s1
