16
gdb 7708	3.30102	1.92768	1.27013	1.5395	68.06	-0.2569	-0.0121	0.2448	925.5078	0.133548	-379.988784	-379.981812	-379.980868	-380.020182	26.618	
N	-0.0797779716	 1.3265299198	-0.1277829257	-0.510701
C	-0.0333678629	 0.0614015405	 0.0036389644	 0.38984
C	-1.3057234132	-0.746989253	 0.1078762556	-0.250517
C	-1.1329898724	-1.9786730974	 1.0021298485	-0.233537
C	 0.022759458	-2.8396409772	 0.4840243635	-0.30663
C	 1.3052669277	-2.0519040546	 0.2808504565	 0.400247
O	 2.4115367756	-2.5442256312	 0.3050181827	-0.349452
N	 1.146784892	-0.6901240757	 0.0472708581	-0.362095
H	 0.8538421868	 1.7356206379	-0.2111612672	 0.206355
H	-2.0920309743	-0.0781169132	 0.4599863428	 0.137524
H	-1.5860901834	-1.0693571282	-0.9043673036	 0.126325
H	-0.9297713719	-1.6640782491	 2.0326377534	 0.118168
H	-2.057896864	-2.5619449892	 1.0252130338	 0.1125
H	 0.2623042004	-3.6724677329	 1.148595654	 0.137337
H	-0.240650766	-3.2782985391	-0.4879361135	 0.135232
H	 2.023860069	-0.1951280573	-0.0605464133	 0.249407
99.3501	124.1428	251.2974	368.3124	431.9272	450.5827	531.0117	546.0071	602.4363	653.4343	705.4324	759.0202	866.8365	888.7534	904.7689	920.9071	982.1144	1058.4316	1081.3352	1142.4698	1159.6816	1197.8531	1270.6017	1298.226	1347.6541	1357.5306	1376.0521	1399.7495	1421.7445	1461.692	1475.6343	1500.1083	1733.5272	1809.2255	3022.7766	3030.3964	3043.8506	3090.9677	3113.4106	3126.7905	3440.6524	3574.0705
N=C1CCCC(=O)N1	[NH][C]1CCCC(=O)N1	
InChI=1S/C5H8N2O/c6-4-2-1-3-5(8)7-4/h1-3H2,(H2,6,7,8)	InChI=1S/C5H8N2O/c6-4-2-1-3-5(8)7-4/h1-3H2,(H2,6,7,8)
