19
gdb 88395	2.46055	1.17016	1.12792	2.0056	72.38	-0.2497	-0.0388	0.2109	1220.1406	0.155116	-460.146824	-460.136817	-460.135873	-460.182119	36.376	
C	 2.4846042155	 0.1606290314	-0.8735844692	-0.44606
C	 1.5396401585	-0.7902501178	-0.1808659132	 0.069227
O	 2.1195517295	-1.7543948756	 0.7038632976	-0.263277
C	 1.1871876657	-0.8203732328	 1.254308326	 0.022163
C	 1.6677934965	 0.1122053032	 2.3647713917	 0.191227
C	 2.4818743524	-0.6776234684	 3.3990927815	-0.400428
O	 2.5040727	 1.1894274236	 1.9546330615	-0.45223
C	 0.4592431961	 0.7180103869	 3.0960765089	 0.123576
O	-0.6485832091	 0.2517213022	 3.1373717077	-0.246476
H	 3.2746352044	 0.4953444255	-0.2024072428	 0.152206
H	 2.9423068733	-0.3447679639	-1.7303513796	 0.130759
H	 1.9435132442	 1.0313704492	-1.2634419058	 0.113898
H	 0.7848530058	-1.2189691961	-0.8455742461	 0.093946
H	 0.2245312394	-1.2637634426	 1.5102571953	 0.114641
H	 3.3686230388	-1.0786066392	 2.9039387415	 0.152624
H	 2.7914478944	-0.02259505	 4.2180710739	 0.126899
H	 1.8944145977	-1.50606839	 3.8023459948	 0.136611
H	 2.0410434663	 1.6961042329	 1.2788838051	 0.286654
H	 0.7227836205	 1.6695670514	 3.6120371211	 0.094039
37.9112	74.8065	177.9781	190.7022	230.5855	253.5251	270.2942	315.7944	323.7626	370.6045	404.9319	419.7351	499.3173	579.4128	626.9935	742.121	791.9626	877.1047	907.0075	976.3891	982.8026	990.4709	1036.8244	1072.9167	1109.2771	1172.7374	1187.0821	1194.0483	1235.1677	1312.6041	1340.5747	1387.3306	1394.7443	1405.0097	1419.2904	1466.6377	1484.7459	1490.8302	1503.782	1508.2985	1832.1389	2880.4772	3033.3017	3051.5403	3071.1999	3091.1218	3113.636	3131.5079	3143.7319	3161.2622	3812.1276
CC1OC1C(C)(O)C=O	C[C@H]1O[C@H]1[C@@](C)(O)C=O	
InChI=1S/C6H10O3/c1-4-5(9-4)6(2,8)3-7/h3-5,8H,1-2H3	InChI=1S/C6H10O3/c1-4-5(9-4)6(2,8)3-7/h3-5,8H,1-2H3/t4-,5-,6+/m1/s1
