20
gdb 78090	2.64253	1.27851	1.02946	2.0357	86.31	-0.2291	0.0408	0.2699	1247.6132	0.16894	-365.939877	-365.930583	-365.929639	-365.973426	35.702	
C	-0.1035350108	 1.562020086	-0.0139758144	-0.427458
C	 0.0462927662	 0.0638469543	 0.1226896958	-0.016083
N	 1.2441297748	-0.720359461	-0.2823067455	-0.19203
C	 2.4578582238	 0.1038265822	 0.1134963698	-0.149998
C	 2.0397015367	 0.0859114093	 1.6145883807	-0.329477
C	 0.7825527868	-0.6677922668	 1.1773653076	 0.336336
C	 0.2365923743	-1.8658370676	 1.8974242567	-0.492116
C	 3.7013889449	-0.5750089721	-0.1956437142	 0.309665
C	 4.7433276072	-1.1263673056	-0.4305434466	-0.406434
H	 0.6865519748	 2.1301459467	 0.4820475364	 0.124409
H	-0.1201136853	 1.8546028553	-1.0697338249	 0.130997
H	-1.0549514036	 1.8738415946	 0.4293493956	 0.122936
H	-0.83667086	-0.470868964	-0.2251730811	 0.093457
H	 2.4621374869	 1.0932912341	-0.3557482028	 0.101814
H	 2.7110507994	-0.5319883817	 2.2120811408	 0.123284
H	 1.9054276624	 1.0500009162	 2.1138531756	 0.102891
H	-0.260794193	-1.5667064765	 2.8281087267	 0.119902
H	-0.4945128596	-2.392332161	 1.277187101	 0.128756
H	 1.035024621	-2.5704510845	 2.1535328475	 0.126055
H	 5.6595343332	-1.6160503479	-0.6498971145	 0.193091
93.3316	150.0691	173.7228	188.3519	230.3119	273.7168	282.6685	331.3847	432.9613	480.7527	518.2464	551.1003	610.1764	621.3726	647.2586	711.7366	763.246	841.7392	869.6874	914.6411	945.0017	988.6741	1039.8779	1043.5151	1080.8961	1101.5435	1144.5229	1155.072	1173.7217	1223.8794	1236.7734	1309.1778	1336.9859	1356.4765	1412.7605	1413.9243	1456.9632	1480.9196	1491.9706	1493.6706	1503.7878	1507.007	2238.9984	3026.0756	3036.8847	3046.9511	3058.9495	3088.1883	3095.6536	3108.4368	3112.0895	3126.6492	3128.8243	3504.9169
CC1N2C(CC12C)C#C	C[C@H]1N2[C@@H](C[C@@]12C)C#C	
InChI=1S/C8H11N/c1-4-7-5-8(3)6(2)9(7)8/h1,6-7H,5H2,2-3H3	InChI=1S/C8H11N/c1-4-7-5-8(3)6(2)9(7)8/h1,6-7H,5H2,2-3H3/t6-,7-,8+,9?/m1/s1
