16
gdb 67066	3.04034	1.75922	1.45846	1.4086	71.32	-0.2388	-0.0033	0.2355	918.3975	0.12333	-437.749043	-437.741561	-437.740617	-437.780945	29.426	
O	 0.1780954164	 1.3397564437	-0.0176423606	-0.471611
C	 0.1248257605	-0.0606157588	-0.0708641927	 0.350811
C	-0.0843723244	-0.6303776648	-1.5138844894	-0.144949
C	-0.5522773643	-1.9509259136	-0.8678042238	-0.269793
C	-1.1895653217	-0.815036161	-0.0426684566	 0.326464
C	-1.6120012708	-0.102457975	-1.359358243	-0.312478
O	-1.1762307545	-0.9515093294	 1.4176733191	-0.315859
C	 0.2031503452	-0.6453639805	 1.3717711282	 0.267447
N	 1.0614692345	-0.6741686411	 2.2816802833	-0.539506
H	 0.5124809031	 1.5965904577	 0.8474222977	 0.300561
H	 0.5277419214	-0.50898886	-2.4088244848	 0.095895
H	-1.2334687526	-2.5654795671	-1.4570374015	 0.106513
H	 0.2146077771	-2.5456390336	-0.3670005605	 0.114269
H	-1.7397650601	 0.9758732865	-1.3167085815	 0.142495
H	-2.3499614792	-0.5993247964	-1.9927995573	 0.109091
H	 0.6658873293	-0.9962368665	 3.1675788836	 0.240652
84.3689	126.8012	277.0501	309.4581	337.6827	417.4836	484.2263	526.319	593.474	607.5529	708.3096	732.4792	756.5615	832.5893	868.6451	886.2951	932.5917	942.73	983.8842	990.0768	1006.4853	1058.2715	1079.5372	1122.9478	1143.3673	1167.2727	1178.7083	1198.8348	1210.8911	1235.7805	1264.2556	1364.6913	1486.9982	1526.9365	1799.4938	3073.4404	3081.5259	3106.2009	3145.6755	3188.5755	3467.7934	3829.4197
OC12C3CC1(C3)OC2=N	O[C@]12[C@H]3C[C@@]1(C3)O[C]2[NH]	
InChI=1S/C6H7NO2/c7-4-6(8)3-1-5(6,2-3)9-4/h3,7-8H,1-2H2	InChI=1S/C6H7NO2/c7-4-6(8)3-1-5(6,2-3)9-4/h3,7-8H,1-2H2/t3-,5-,6-/m0/s1
