17
gdb 113633	3.67104	0.86475	0.82248	2.0856	78.32	-0.2585	-0.0606	0.198	1425.2127	0.133262	-421.783354	-421.773722	-421.772778	-421.818726	34.198	
O	-0.1563323441	 1.4148885098	-0.2733008026	-0.424755
C	 0.0044284908	 0.0661227963	 0.1535388449	-0.116329
C	-1.3596755422	-0.5734365669	 0.0873003752	 0.020289
C	-1.8681054785	-1.1919640305	-1.1668293261	-0.276682
C	-1.5505629068	-2.0943524359	 0.0181971129	-0.153125
C	-0.3834425353	-3.0124247409	-0.0794360089	 0.246621
O	 0.5780192583	-2.8246828114	-0.8023451988	-0.321063
C	-0.4611385551	-4.1947022036	 0.7652554728	 0.244557
C	-0.5345500285	-5.1712815633	 1.465449191	-0.404815
H	 0.7144708976	 1.8225676453	-0.2920250675	 0.287524
H	 0.7074263866	-0.4823662024	-0.4833900805	 0.124962
H	 0.382323723	 0.0228106492	 1.1879858448	 0.086371
H	-2.0959389813	-0.0771378665	 0.7134526237	 0.105263
H	-2.9113628347	-1.0760785733	-1.4362315277	 0.12106
H	-1.1742671121	-1.2665737746	-1.9972918993	 0.143455
H	-2.3820322779	-2.4862083873	 0.5921485674	 0.102192
H	-0.5819001799	-6.038964494	 2.0777055787	 0.214475
39.1519	79.5972	126.4854	163.0695	208.0183	229.7448	263.7495	277.2065	405.1832	413.6273	520.9524	599.2193	641.1275	701.6278	752.0816	798.1151	805.8046	868.7744	904.4097	960.883	995.6853	1066.6041	1069.9935	1108.0433	1120.7666	1135.7787	1173.3587	1221.1318	1265.6201	1282.3253	1383.112	1414.2819	1467.4378	1487.4903	1530.1475	1740.7831	2210.8177	2970.6896	3062.1174	3139.4834	3151.379	3181.7434	3233.5899	3494.8101	3829.1012
OCC1CC1C(=O)C#C	OC[C@H]1C[C@H]1C(=O)C#C	
InChI=1S/C7H8O2/c1-2-7(9)6-3-5(6)4-8/h1,5-6,8H,3-4H2	InChI=1S/C7H8O2/c1-2-7(9)6-3-5(6)4-8/h1,5-6,8H,3-4H2/t5-,6-/m1/s1
