18
gdb 72346	2.31186	1.67793	1.33652	4.2565	80.95	-0.2449	0.0003	0.2452	1038.875	0.148388	-364.834013	-364.825954	-364.82501	-364.866342	31.18	
C	 0.010411507	 1.4987488976	-0.0157305246	-0.485191
C	-0.0313228331	-0.0081829752	 0.065220508	 0.311906
C	-1.3591415837	-0.7252151746	-0.2168389642	-0.340032
C	-1.3412501345	-1.9175154255	 0.7135431665	-0.061062
C	-0.2452914472	-1.9421113007	 1.4746112116	-0.07936
C	 0.6600420223	-0.8035750984	 1.1517350141	-0.12023
C	 1.2433993324	-0.7804754199	-0.2711186333	-0.243136
C	 1.2278412034	-1.9371960163	-1.1192538317	 0.310041
N	 1.213545141	-2.8537020488	-1.8258894648	-0.355197
H	 0.9892454479	 1.8905349939	 0.277900837	 0.12018
H	-0.1960542907	 1.8464184068	-1.0341511698	 0.130774
H	-0.7402893351	 1.9426243073	 0.6473088268	 0.126768
H	-2.206644706	-0.0588040492	-0.0075354404	 0.111388
H	-1.4531598456	-1.0275034971	-1.2672465523	 0.134625
H	-2.124659332	-2.6657979092	 0.7140106341	 0.107627
H	 0.0042487124	-2.6996727631	 2.207196227	 0.106196
H	 1.264491288	-0.3339870192	 1.9205535936	 0.098066
H	 2.1275708533	-0.1630246284	-0.3998182774	 0.126637
127.5466	131.4465	195.1144	214.844	300.5281	334.5506	389.0566	441.1015	550.5179	591.3064	617.8421	737.4292	740.6359	770.0977	852.4525	855.9579	925.5262	955.6921	961.5233	969.2616	996.3342	1032.2437	1047.0968	1094.3828	1106.3642	1143.8296	1184.8566	1219.4351	1268.4651	1310.3644	1335.2417	1373.9222	1417.385	1423.7673	1473.357	1488.1271	1498.7837	1669.3773	2348.3025	3018.1638	3028.3719	3054.2257	3091.7596	3102.2395	3153.7019	3168.9097	3199.8065	3223.4443
CC12CC=CC1C2C#N	C[C@]12CC=C[C@H]1[C@H]2C#N	
InChI=1S/C8H9N/c1-8-4-2-3-6(8)7(8)5-9/h2-3,6-7H,4H2,1H3	InChI=1S/C8H9N/c1-8-4-2-3-6(8)7(8)5-9/h2-3,6-7H,4H2,1H3/t6-,7+,8-/m0/s1
