21
gdb 103969	2.5407	1.38125	1.11595	1.8211	78.09	-0.2392	0.0682	0.3074	1185.1969	0.180988	-424.191553	-424.182153	-424.181209	-424.225137	36.516	
C	 0.0409534772	 1.6244637443	 0.0188709466	-0.40734
C	 0.0346991452	 0.0982718014	 0.171791118	-0.232138
C	-1.3483144886	-0.528212821	-0.0060301183	 0.426089
O	-2.2638226481	-0.0443063333	 0.9737098147	-0.491558
C	-2.0110135068	-0.5308653048	-1.4317058686	-0.293578
C	-2.2306945897	-2.0454177189	-1.3132393768	-0.120342
C	-0.9208843823	-2.7515092982	-1.1549637865	 0.087487
O	 0.2697170165	-2.3248852048	-1.7629700239	-0.416647
C	-1.4771982371	-2.0568956917	 0.0414494561	-0.125796
H	 1.0572475308	 2.0197875506	 0.105770536	 0.118288
H	-0.3487271125	 1.9332413557	-0.9580902611	 0.1165
H	-0.5573692443	 2.1186355319	 0.7933383467	 0.106269
H	 0.7126761557	-0.3523883691	-0.5560416736	 0.125751
H	 0.4019917035	-0.1730554179	 1.1693159159	 0.095409
H	-2.341772856	 0.9081362098	 0.8559579996	 0.274381
H	-2.9415494878	 0.0389544536	-1.4254484159	 0.099571
H	-1.3859479693	-0.2101921039	-2.2705429982	 0.086301
H	-3.1358717928	-2.5692397377	-1.597613519	 0.082526
H	-1.0112358285	-3.8369927001	-1.0884050477	 0.09107
H	 0.2001605716	-2.5084409527	-2.7059037611	 0.28606
H	-1.7080800367	-2.5862088735	 0.9585785571	 0.091696
94.2363	152.5899	156.6856	222.6016	250.2137	284.0212	287.4464	320.4591	373.2866	411.1049	446.4892	511.7642	629.9398	656.6851	736.6991	783.9412	789.0234	852.9789	896.438	935.7667	969.5159	981.2979	1003.3859	1013.9873	1039.284	1044.5619	1083.9409	1099.4386	1140.7081	1182.2816	1213.2074	1224.9621	1259.703	1273.8417	1299.1799	1312.2873	1326.7417	1358.0077	1398.8408	1410.3703	1451.2762	1471.8391	1485.8957	1500.9276	1511.8215	3024.2128	3035.8568	3051.565	3080.5589	3090.3398	3102.1522	3118.1083	3121.0137	3172.1774	3184.3634	3803.4495	3811.1947
CCC1(O)CC2C(O)C12	CC[C@@]1(O)C[C@H]2[C@@H](O)[C@@H]12	
InChI=1S/C7H12O2/c1-2-7(9)3-4-5(7)6(4)8/h4-6,8-9H,2-3H2,1H3	InChI=1S/C7H12O2/c1-2-7(9)3-4-5(7)6(4)8/h4-6,8-9H,2-3H2,1H3/t4-,5+,6-,7-/m1/s1
