21
gdb 121419	4.17301	0.78202	0.69044	1.7109	74.8	-0.2576	0.0735	0.3311	1617.336	0.183632	-461.355124	-461.345983	-461.345039	-461.389642	33.688	
O	-0.1330201023	 1.4883570505	-0.0988281133	-0.419548
C	 0.0295717671	 0.0805898935	-0.020002311	-0.081858
C	-1.363691014	-0.5358587829	 0.0542613009	-0.189701
C	-1.3772061972	-2.0682110166	 0.0533313029	-0.016102
C	-0.7866909428	-2.6834430422	 1.3321441414	-0.089331
O	-0.9313721152	-4.0969776941	 1.3315898247	-0.236211
C	-2.2749898253	-4.4699280517	 1.1860934534	 0.015005
O	-2.8349503128	-4.0245717541	-0.0193323906	-0.235593
C	-2.8071783172	-2.6067754364	-0.1005427821	-0.099241
H	 0.7393694142	 1.8918574101	-0.1260735758	 0.286791
H	 0.559528468	-0.3113570812	-0.9038116213	 0.088884
H	 0.6232482907	-0.1973916024	 0.8650433482	 0.089062
H	-1.8693353134	-0.1517677597	 0.9494690004	 0.106084
H	-1.9355217069	-0.1641895621	-0.8052102493	 0.109046
H	-0.7925868721	-2.443835296	-0.7964641322	 0.087218
H	 0.2838926417	-2.4869356729	 1.4277726239	 0.110802
H	-1.2924981391	-2.2525670239	 2.2151644519	 0.086894
H	-2.3061218173	-5.56110431	 1.1723407965	 0.117042
H	-2.8651639217	-4.0792823862	 2.039109738	 0.071405
H	-3.4538394658	-2.1727386878	 0.683086781	 0.08648
H	-3.2304418785	-2.3400346239	-1.0729415377	 0.112871
72.4492	82.0911	120.9132	201.0419	259.6434	270.3954	314.9091	333.4632	399.296	453.3988	474.0416	552.1447	684.0632	787.4081	894.8543	908.7683	955.293	957.1192	1000.5498	1021.9327	1064.2294	1070.998	1086.9122	1119.0997	1145.2837	1188.8778	1207.7102	1232.7068	1234.7822	1252.0954	1300.4857	1313.418	1326.0346	1334.8283	1359.4247	1371.4592	1387.8858	1422.8546	1444.2615	1465.4189	1489.6746	1495.5507	1498.9558	1511.5179	1528.2913	2905.4837	2945.8602	2954.5257	2963.3781	2990.6102	3023.0167	3030.8369	3066.5014	3088.3102	3094.9876	3114.2055	3830.8172
OCCC1COCOC1	OCCC1COCOC1	
InChI=1S/C6H12O3/c7-2-1-6-3-8-5-9-4-6/h6-7H,1-5H2	InChI=1S/C6H12O3/c7-2-1-6-3-8-5-9-4-6/h6-7H,1-5H2
