13
gdb 132891	3.22669	1.36887	0.96113	1.274	67.21	-0.2103	-0.0471	0.1633	1090.1884	0.089333	-497.878177	-497.871142	-497.870198	-497.909664	27.384	
O	 0.0561945119	 1.3032331749	-0.1473638506	-0.412752
C	-0.0131322156	-0.0289478842	-0.0659545459	 0.325348
C	-1.1681377392	-0.7335115683	-0.0205522595	-0.333008
C	-1.0723143546	-2.1587193198	 0.0661677264	 0.214382
F	-2.2057166799	-2.8629630417	 0.1115062569	-0.072309
C	 0.113475383	-2.7853769561	 0.1018997434	-0.092536
O	 1.2823851151	-2.070697757	 0.0558542236	-0.221328
C	 1.2823916849	-0.7130688688	-0.0269615336	 0.350769
N	 2.3420655266	-0.0042414042	-0.0723481434	-0.589151
H	 1.0146676392	 1.5018815721	-0.1615188391	 0.31278
H	-2.1363157849	-0.2506689606	-0.0479672276	 0.134859
H	 0.2689789506	-3.8508344668	 0.1665598605	 0.148085
H	 3.1952408228	-0.5568092694	-0.0404030011	 0.234862
126.4061	214.6484	319.4862	355.1026	369.1591	411.4334	462.9214	503.1078	590.0313	598.2504	659.2866	683.196	766.2595	787.8033	805.3175	827.8495	873.4279	993.7952	1034.7417	1192.4761	1199.4077	1217.7507	1307.1784	1348.4304	1412.5472	1494.6579	1645.6314	1697.4516	1737.185	3223.6459	3261.5897	3532.6281	3559.7236
OC1=CC(F)=COC1=N	OC1=C(OC=C(C1)F)[NH]	
InChI=1S/C5H4FNO2/c6-3-1-4(8)5(7)9-2-3/h1-2,7-8H	InChI=1S/C5H5FNO2/c6-3-1-4(8)5(7)9-2-3/h2,7-8H,1H2
