14
gdb 21928	3.50473	1.76536	1.18292	0.9966	59.32	-0.2142	0.0338	0.248	941.0905	0.108237	-415.870226	-415.862484	-415.86154	-415.903267	27.646	
O	-0.0260496218	 1.4802112241	 0.005738568	-0.423656
C	 0.047597288	 0.061211773	 0.0168418919	-0.19843
C	-1.3454334185	-0.4760986097	 0.0055097547	 0.131366
C	-2.5314697494	 0.225828484	 0.0585889372	-0.093399
N	-3.5318928165	-0.6847488609	 0.0234280631	-0.206648
N	-3.0803214803	-1.962993566	-0.0499834126	-0.336257
C	-1.7640207799	-1.8250963537	-0.0599175034	 0.339323
O	-0.9296687731	-2.8872055241	-0.1263946603	-0.432291
H	 0.8704472953	 1.8240400228	 0.0479865639	 0.290176
H	 0.6030766853	-0.3176275976	-0.8569114626	 0.103806
H	 0.5859827022	-0.3010044904	 0.908476227	 0.102798
H	-2.7131623599	 1.2862935031	 0.1138735381	 0.148039
H	-4.5221012346	-0.5195893014	 0.0376261249	 0.273031
H	-1.4815476266	-3.6781690833	-0.1665683899	 0.30214
25.213	165.255	213.4128	254.2115	318.2895	328.428	383.0708	415.9584	539.4749	642.2517	646.941	723.0081	787.089	809.4191	947.9245	1051.0172	1068.1504	1072.0149	1133.9033	1215.4869	1239.3244	1249.6196	1256.2644	1330.1027	1454.7529	1466.1656	1491.8793	1521.124	1566.2178	1649.231	2957.96	2972.959	3279.9298	3697.3535	3796.8396	3840.2547
OCC1=CNN=C1O	OCc1c[nH]nc1O	
InChI=1S/C4H6N2O2/c7-2-3-1-5-6-4(3)8/h1,7H,2H2,(H2,5,6,8)	InChI=1S/C4H6N2O2/c7-2-3-1-5-6-4(3)8/h1,7H,2H2,(H2,5,6,8)
