19
gdb 76832	2.41624	1.61193	1.31658	4.1082	74.23	-0.269	0.0087	0.2777	1055.7114	0.15922	-423.046036	-423.037617	-423.036673	-423.079053	31.915	
C	 0.522560203	 1.5364045948	 0.270558884	-0.409107
C	 0.1954246521	 0.0701645603	 0.0243068546	-0.016351
C	 0.7273562115	-0.6580041035	-1.2720111001	-0.010971
C	 1.6061616934	 0.0928343034	-2.2639385084	-0.412643
C	 1.3994205136	-1.750013242	-0.3639143766	-0.251636
C	 0.9158179392	-0.9860145302	 0.8916190307	 0.097585
O	 2.3012001525	-0.6214301661	 1.2020676839	-0.256422
C	 2.7823840963	-1.3430271788	 0.128043329	 0.461137
O	 3.9187525874	-1.4934728853	-0.1866221654	-0.33207
H	 1.6002882249	 1.7135830495	 0.2768245852	 0.138118
H	 0.0733844922	 2.1705392181	-0.5003404419	 0.11825
H	 0.1285242324	 1.8610313528	 1.2394756787	 0.120666
H	-0.8860160737	-0.0825290125	 0.1055014117	 0.082095
H	-0.1097527992	-1.1106398145	-1.8102619572	 0.086934
H	 2.4761857266	 0.5516876421	-1.7861758023	 0.138809
H	 1.9781043759	-0.5853882143	-3.0388305115	 0.127107
H	 1.0376275724	 0.8862506953	-2.7599991199	 0.118366
H	 1.2298019797	-2.8010473188	-0.5872067603	 0.104513
H	 0.4292803198	-1.4262694601	 1.7608171257	 0.095621
75.7623	142.8844	203.1361	217.3911	235.7602	246.2589	367.5109	447.0612	472.2595	549.9442	618.8053	733.4824	745.3853	798.383	862.2183	871.2609	891.2753	931.1124	949.4209	1014.7888	1030.6018	1064.492	1078.1871	1114.2807	1155.2307	1169.5151	1176.2034	1202.9104	1232.9841	1279.2177	1307.7438	1324.6462	1355.7148	1363.959	1412.4216	1420.7867	1487.986	1490.4484	1502.6197	1505.8693	1929.7939	3037.4533	3040.513	3045.0004	3066.1148	3100.3393	3103.7479	3116.038	3125.1847	3130.4095	3144.9702
CC1C(C)C2C1OC2=O	C[C@H]1[C@@H](C)[C@@H]2[C@H]1OC2=O	
InChI=1S/C7H10O2/c1-3-4(2)6-5(3)7(8)9-6/h3-6H,1-2H3	InChI=1S/C7H10O2/c1-3-4(2)6-5(3)7(8)9-6/h3-6H,1-2H3/t3-,4+,5-,6+/m1/s1
