17
gdb 31040	2.37699	1.33036	0.89849	1.2467	71.36	-0.1797	0.0525	0.2322	1277.0949	0.135684	-455.189846	-455.180554	-455.17961	-455.224089	33.887	
C	 0.2002510312	 1.5868806691	 0.1577023159	-0.359438
C	-0.1149279581	 0.1132706553	-0.1466798045	-0.30058
C	 0.5846236017	-0.4024963718	-1.3630327818	 0.146975
C	 0.0611314157	-0.8524943988	-2.5386233263	 0.291878
O	-1.1894902873	-1.0166091765	-3.0427566326	-0.439837
N	 1.1288974744	-1.2058663827	-3.348807513	-0.353455
C	 2.2469924828	-0.947431958	-2.6130871347	 0.430041
O	 3.4577420636	-1.1969681752	-3.1470973271	-0.429186
N	 1.9855741644	-0.4724727505	-1.4349671323	-0.414131
H	 1.2791061439	 1.7234460079	 0.2699311307	 0.137156
H	-0.1354185809	 2.2365850537	-0.6570157265	 0.109714
H	-0.2879403886	 1.9133577913	 1.0816773199	 0.103294
H	 0.1634334559	-0.4980007573	 0.7218794159	 0.113508
H	-1.2003915879	-0.0139447823	-0.2654788738	 0.069415
H	-1.8216842292	-0.7501157466	-2.3679164123	 0.307074
H	 1.0789027484	-1.5807169208	-4.2804652979	 0.276125
H	 4.10135845	-0.9487555767	-2.4717046597	 0.31145
55.6413	130.0358	171.0089	194.4464	223.073	282.1607	299.4003	340.7527	385.9125	409.4422	443.7089	544.6472	610.8064	648.075	690.1831	717.7755	778.4715	816.7842	976.8894	1027.6862	1070.4102	1085.3054	1126.6476	1182.4815	1206.8659	1274.7353	1306.4136	1314.1028	1366.0625	1404.0551	1473.0823	1491.766	1500.3135	1511.0878	1557.9625	1640.3985	1682.0156	3001.0209	3033.161	3036.7324	3103.2981	3120.9829	3677.7329	3805.4313	3839.3019
CCC1=C(O)NC(O)=N1	CCc1c(O)[nH]c(O)n1	
InChI=1S/C5H8N2O2/c1-2-3-4(8)7-5(9)6-3/h8H,2H2,1H3,(H2,6,7,9)	InChI=1S/C5H8N2O2/c1-2-3-4(8)7-5(9)6-3/h8H,2H2,1H3,(H2,6,7,9)
