15
gdb 53223	4.2315	0.85382	0.78042	5.0225	77.	-0.2655	-0.046	0.2195	1463.4802	0.111648	-420.645816	-420.637237	-420.636293	-420.681167	29.819	
C	-0.0036219167	 1.4958429569	-0.0013717577	-0.498525
C	 0.02773916	 0.0421250215	 0.0391625328	 0.048562
C	 0.0613950644	-1.1597290803	 0.0848372799	 0.107327
C	 0.0911139724	-2.6169658154	 0.1153159519	-0.115845
O	 0.5349190643	-3.1111166975	 1.3907926252	-0.219537
C	-0.4151059344	-3.948318798	 1.9300030624	 0.425377
O	-0.2672583735	-4.4919373396	 2.9857967615	-0.339513
C	-1.5493946788	-4.0127337831	 0.9740048574	-0.225352
C	-1.2708129455	-3.2504267728	-0.0777131538	-0.069717
H	 0.5893616929	 1.8823748797	-0.8370270437	 0.155018
H	-1.0270725138	 1.8692985321	-0.1129842032	 0.154368
H	 0.4068382139	 1.9178709304	 0.922146248	 0.162052
H	 0.7977213687	-2.9895686768	-0.6404820347	 0.13579
H	-2.4297668732	-4.6062713967	 1.1708397379	 0.139367
H	-1.8721120505	-3.0589221103	-0.9558770439	 0.140629
19.3445	67.6505	95.3808	186.3631	255.2698	315.6506	367.1056	445.9148	474.3541	541.5395	687.8019	702.5642	797.3345	815.7598	858.8949	894.5236	949.4053	979.2591	1037.4906	1050.0863	1054.3355	1097.2123	1153.8237	1185.1969	1297.198	1323.8464	1351.6278	1413.2784	1474.6068	1476.4144	1667.8529	1876.4422	2376.1244	3003.2522	3032.0407	3095.412	3096.9176	3230.7682	3259.8109	19.3501	67.6506	95.3806	186.363	255.2698	315.6507	367.1056	445.915	474.3543	541.5398	687.8017	702.5644	797.3348	815.7597	858.8949	894.5233	949.405	979.2593	1037.4898	1050.0861	1054.3353	1097.2122	1153.824	1185.1971	1297.1984	1323.8472	1351.6282	1413.2782	1474.6065	1476.4141	1667.8528	1876.4432	2376.1245	3003.2521	3032.0407	3095.412	3096.9176	3230.7682	3259.811
CC#CC1OC(=O)C=C1	CC#C[C@H]1OC(=O)C=C1	
InChI=1S/C7H6O2/c1-2-3-6-4-5-7(8)9-6/h4-6H,1H3	InChI=1S/C7H6O2/c1-2-3-6-4-5-7(8)9-6/h4-6H,1H3/t6-/m1/s1
