19
gdb 100487	4.94442	0.55911	0.52096	1.7848	87.04	-0.2551	0.0318	0.2869	2113.9868	0.155322	-385.824745	-385.813756	-385.812812	-385.864555	38.319	
C	 0.0510851979	 1.5750475553	-0.0030189777	-0.386277
C	 0.0078595248	 0.0477200257	 0.0586988604	-0.170547
C	-1.4299639204	-0.5036967308	-0.0233601407	-0.049257
O	-2.0970156971	-0.0737165594	-1.2099310247	-0.415162
C	-1.4495193706	-1.9637818544	 0.1086364468	 0.045196
C	-1.4396310639	-3.1656662232	 0.1765646135	 0.112556
C	-1.4352254778	-4.6267480112	 0.276609118	-0.496186
C	-2.7732811497	-5.2175755985	 0.3439539555	 0.318657
C	-3.8646634772	-5.7142350519	 0.3987668913	-0.440943
H	 1.0826915614	 1.9387992858	 0.0036516982	 0.109994
H	-0.4388553623	 1.9368517658	-0.9103387635	 0.132472
H	-0.4657260812	 2.0192483511	 0.8550464634	 0.114985
H	 0.5890024636	-0.3868044156	-0.7649743308	 0.094765
H	 0.4649087191	-0.3167254122	 0.9860336039	 0.105858
H	-2.0170148833	-0.0634789267	 0.793301553	 0.114959
H	-1.7476206696	-0.5968851096	-1.9399728569	 0.282701
H	-0.8938556316	-5.0523156706	-0.5797303309	 0.160812
H	-0.8610440875	-4.9274518875	 1.1640424842	 0.163515
H	-4.8332565248	-6.1466643421	 0.447346837	 0.201903
1.9212	60.1552	87.7821	127.6063	156.5352	225.0093	268.0439	270.7003	315.2611	320.8011	339.7102	409.9851	512.7776	520.7884	600.2438	625.5514	651.6081	765.8706	810.4405	890.1909	933.0159	950.3917	978.2564	1059.4375	1093.2408	1113.5473	1163.998	1231.0654	1251.1041	1291.8999	1325.9367	1334.1454	1373.2734	1406.1168	1420.319	1450.8973	1479.4084	1495.6961	1509.312	2248.2887	2367.3328	3008.1978	3020.5123	3031.453	3032.0491	3038.3884	3068.0576	3103.8099	3126.4994	3506.81	3804.9985
CCC(O)C#CCC#C	CC[C@@H](O)C#CCC#C	
InChI=1S/C8H10O/c1-3-5-6-7-8(9)4-2/h1,8-9H,4-5H2,2H3	InChI=1S/C8H10O/c1-3-5-6-7-8(9)4-2/h1,8-9H,4-5H2,2H3/t8-/m1/s1
