19
gdb 83548	3.14969	1.47303	1.29918	0.1938	74.17	-0.2479	0.0581	0.306	1030.7307	0.160584	-422.98839	-422.980761	-422.979817	-423.020084	30.716	
O	 0.1277815722	 1.5054899693	-0.1107630347	-0.45045
C	 0.051676304	 0.1104591112	-0.0391266399	 0.174442
C	 0.2285120494	-0.6432118459	 1.3225005446	-0.182217
C	-0.8873231085	-0.0178882788	 2.1881063031	-0.239506
C	-2.0585155549	-0.007764883	 1.1406381358	-0.239499
C	-1.3283353879	-0.6297744171	-0.0698703343	-0.182216
C	-0.5545056839	-1.7582241616	 0.6206258024	 0.547279
C	-0.1546880583	-3.080284004	 0.1608273442	-0.310169
O	-1.1093651529	-2.9032305871	 1.2299835806	-0.301502
H	-0.4592241905	 1.8871103432	 0.5494603824	 0.285918
H	 0.7316665485	-0.2712570309	-0.8031293221	 0.093103
H	 1.2048608981	-0.8044604133	 1.7772941144	 0.069949
H	-1.1169942654	-0.6363960114	 3.0581322252	 0.119662
H	-0.6235343925	 0.9803288772	 2.5523524874	 0.093681
H	-2.9035315082	-0.6209410016	 1.460338146	 0.119659
H	-2.4401990447	 0.9960342554	 0.92756622	 0.093684
H	-1.8903539136	-0.7777443654	-0.9909214646	 0.069949
H	-0.5666313844	-3.4872065492	-0.7617290277	 0.119116
H	 0.8039944235	-3.4990308769	 0.4640972773	 0.119116
149.2866	204.0336	254.549	264.4548	274.8095	287.4439	464.2964	476.4955	575.8691	650.9316	720.3716	782.2005	786.4549	848.6536	869.4253	887.3406	901.2618	959.0709	963.3159	991.8421	1010.3875	1028.1247	1096.671	1114.8553	1131.1481	1149.0015	1167.779	1171.8322	1189.473	1193.0001	1249.9231	1250.6417	1262.5222	1302.6094	1314.5554	1324.9109	1442.0684	1462.7529	1497.1007	1513.8203	1552.3664	3045.046	3056.7981	3081.9993	3099.5441	3100.4823	3115.6325	3127.7043	3132.1873	3167.6584	3823.675
OC1C2CCC1C21CO1	O[C@H]1[C@H]2CC[C@@H]1[C@]12CO1	
InChI=1S/C7H10O2/c8-6-4-1-2-5(6)7(4)3-9-7/h4-6,8H,1-3H2	InChI=1S/C7H10O2/c8-6-4-1-2-5(6)7(4)3-9-7/h4-6,8H,1-3H2/t4-,5+,6+,7-
