20
gdb 118302	4.76069	0.61136	0.56401	4.0904	74.9	-0.2473	0.0364	0.2837	1941.4804	0.169219	-477.434163	-477.423554	-477.42261	-477.471309	36.485	
C	-0.0021909614	 1.2658111391	 0.1026976936	-0.231578
O	 0.1880724643	-0.1276151582	-0.0031055693	-0.251425
C	 0.6710840594	-0.5373692094	-1.2681591445	-0.080671
C	 0.6892407668	-2.0612277042	-1.2478846925	 0.102961
O	-0.6040526163	-2.5581698941	-0.9286065102	-0.45317
C	 1.0732953902	-2.6591645651	-2.596510361	-0.154199
N	 1.0179284758	-4.1072515161	-2.5432808578	-0.277811
C	 2.0394663136	-4.905600882	-2.9441747244	 0.154037
O	 3.0835700513	-4.5206304044	-3.4294007078	-0.328819
H	 0.9422720926	 1.8136295346	-0.0331202412	 0.11338
H	-0.7257721137	 1.6339283824	-0.6404924554	 0.111779
H	-0.3870984942	 1.4673038591	 1.104972478	 0.132711
H	 0.0027716446	-0.1778140257	-2.067818251	 0.094577
H	 1.6795754802	-0.1347500286	-1.4544744486	 0.098382
H	 1.4180379357	-2.3893681299	-0.4895319234	 0.084027
H	-0.9086256821	-2.038582894	-0.1746315308	 0.294411
H	 0.3877486259	-2.2792583893	-3.3658426915	 0.111893
H	 2.0929466278	-2.3855766963	-2.8763686475	 0.145219
H	 0.204268507	-4.5168739704	-2.111533733	 0.261088
H	 1.8092666724	-5.9769872874	-2.7795884216	 0.073209
35.4821	64.1075	100.3145	110.2969	133.6774	222.8019	233.2982	245.5506	324.1921	353.3389	394.9259	437.7783	483.6975	580.1185	591.6965	768.7344	893.8222	930.8318	966.8186	1022.5866	1033.7267	1071.8853	1114.1022	1144.1477	1167.5092	1185.1972	1212.9768	1225.5712	1239.1909	1267.8923	1296.2251	1346.0807	1387.508	1413.4896	1429.1352	1453.8413	1478.2853	1486.4472	1488.5583	1499.4307	1520.6966	1530.6809	1802.9584	2936.5181	2963.8647	2978.5197	2982.7005	3007.4132	3021.2654	3030.4407	3119.8557	3120.7322	3638.1119	3789.5365
COCC(O)CNC=O	COC[C@@H](O)CNC=O	
InChI=1S/C5H11NO3/c1-9-3-5(8)2-6-4-7/h4-5,8H,2-3H2,1H3,(H,6,7)	InChI=1S/C5H11NO3/c1-9-3-5(8)2-6-4-7/h4-5,8H,2-3H2,1H3,(H,6,7)/t5-/m0/s1
