21
gdb 41510	2.80411	1.85834	1.41687	0.4612	87.12	-0.2275	0.0145	0.242	994.8156	0.186984	-349.947502	-349.940678	-349.939734	-349.978209	29.52	
C	 0.0513923799	 1.5712956072	 0.1430871419	-0.227594
C	 1.552146539	 1.9858449189	-0.0335177813	-0.268823
C	 2.1790046384	 0.7593194939	 0.5830353047	 0.222429
C	 2.6674723351	 0.6878307437	 1.8238773112	-0.143986
C	 2.3699307505	-0.5482184419	 2.6416243355	-0.240552
C	 0.8370518104	-0.7948653243	 2.4841537037	-0.226024
C	 0.4979585866	-0.9888974556	 1.0035685101	-0.015757
C	 0.0427857818	 0.0391135235	-0.0475878086	-0.048304
C	 1.4731986585	-0.4363721341	-0.0029012259	-0.151183
H	-0.3039818063	 1.8710912225	 1.1352608061	 0.102644
H	-0.5983485471	 2.0505792759	-0.5954361472	 0.097171
H	 1.7788040257	 2.0926803217	-1.1013371751	 0.096142
H	 1.807596994	 2.9199013678	 0.4743950026	 0.093572
H	 3.0137849228	 1.582372334	 2.3366363563	 0.080496
H	 2.9114864743	-1.4354543736	 2.2931971333	 0.107116
H	 2.6382021327	-0.4012305129	 3.6920936657	 0.092366
H	 0.5307285818	-1.6847163242	 3.0453528475	 0.090982
H	 0.2983383766	 0.0526939132	 2.9227413074	 0.099786
H	 0.1153759796	-1.9808433239	 0.7735436957	 0.079253
H	-0.645116694	-0.3551848042	-0.7887634173	 0.079596
H	 1.9443170793	-1.0535079875	-0.7607828161	 0.080669
189.2751	204.745	306.1832	379.2683	441.7223	483.745	522.7728	611.2494	662.5643	707.5584	742.1657	783.5989	814.59	859.6018	861.5302	879.9222	906.316	919.2803	972.662	998.7437	1004.4601	1020.1164	1026.6512	1052.023	1096.6449	1108.3139	1133.2349	1153.2967	1189.4806	1199.4884	1214.8553	1226.0841	1287.249	1294.6942	1311.2562	1316.2606	1342.2006	1360.1837	1368.6769	1403.1697	1481.2584	1487.8968	1491.5608	1496.2427	1711.3751	3027.7388	3032.261	3034.2693	3038.4676	3069.0821	3082.9688	3084.424	3097.6871	3124.5759	3149.0874	3150.6119	3161.0605
C1CC2=CCCC3C1C23	C1C[C]2[CH]CC[C@H]3[C@@H]1[C@@H]23	
InChI=1S/C9H12/c1-2-6-4-5-8-7(3-1)9(6)8/h2,7-9H,1,3-5H2	InChI=1S/C9H12/c1-2-6-4-5-8-7(3-1)9(6)8/h2,7-9H,1,3-5H2/t7-,8+,9-/m0/s1
