15
gdb 15360	6.33263	0.92093	0.89177	3.4906	62.18	-0.2821	0.0219	0.304	1252.6058	0.117736	-399.780798	-399.772459	-399.771515	-399.814717	28.823	
O	-0.0476445807	 1.3033157405	-0.6842681101	-0.413051
C	 0.0728738506	 0.1674348384	 0.1510493204	-0.084703
C	-1.2672574927	-0.5014033049	 0.339448652	 0.026457
O	-1.7598308355	-1.245409595	-0.7914598092	-0.253294
C	-1.5019544562	-1.951915838	 0.4162940568	 0.0643
C	-0.393709149	-2.9952151571	 0.3920672201	-0.374831
C	-0.8674476054	-4.279397945	-0.1257048794	 0.264811
N	-1.2516063245	-5.292557706	-0.5257087562	-0.293816
H	-0.406330631	 0.9996941037	-1.526060227	 0.296782
H	 0.8121943315	-0.5436007456	-0.2432504792	 0.09196
H	 0.441065874	 0.5332863063	 1.1158852404	 0.121274
H	-2.019867579	 0.1462988277	 0.7918490172	 0.111126
H	-2.3998282003	-2.2850264275	 0.9382604802	 0.117893
H	 0.4416436416	-2.6549796857	-0.2245126066	 0.163368
H	-0.0132902335	-3.1502430218	 1.4089443707	 0.161724
43.8511	78.9312	117.8771	181.9047	258.5265	371.0575	384.231	395.5308	464.8218	517.122	585.499	783.4247	838.4278	892.6198	949.2578	973.8269	1037.0535	1072.5701	1083.5299	1150.2973	1159.6527	1232.4303	1241.2699	1294.5503	1320.2883	1362.91	1398.8566	1431.5248	1448.0157	1489.7246	1494.2149	2367.4964	3007.9734	3048.7673	3073.5437	3099.4837	3108.2127	3118.6835	3802.1764
OCC1OC1CC#N	OC[C@H]1O[C@H]1CC#N	
InChI=1S/C5H7NO2/c6-2-1-4-5(3-7)8-4/h4-5,7H,1,3H2	InChI=1S/C5H7NO2/c6-2-1-4-5(3-7)8-4/h4-5,7H,1,3H2/t4-,5+/m0/s1
