23
gdb 68842	2.30938	1.75568	1.35103	0.0175	88.56	-0.244	0.0896	0.3336	1093.7023	0.206624	-351.157258	-351.148625	-351.147681	-351.189624	35.24	
C	-0.0961667607	 1.5280526599	 0.0066512711	-0.48538
C	-0.037215136	 0.0199569427	 0.0806536729	 0.323067
C	 1.2647171613	-0.6935812919	-0.2225762393	-0.383347
C	 0.6978507012	-0.7438681927	 1.1797870171	 0.311132
C	 1.4277179993	-0.0852032331	 2.3283026587	-0.479028
C	-0.0987534437	-1.9892830441	 1.4694825441	-0.092574
C	-1.4734021339	-1.7876698679	 2.0573595934	-0.299161
C	-1.314656233	-2.0012970356	 0.5702437617	-0.024118
C	-1.3062507799	-0.7514022364	-0.3083660108	-0.304487
H	 0.8414197346	 1.9923931511	 0.3258000587	 0.113227
H	-0.2889925129	 1.8591578642	-1.0209979039	 0.116124
H	-0.900095864	 1.928746881	 0.6359467197	 0.111641
H	 1.2407354645	-1.5953733266	-0.8280140715	 0.100876
H	 2.1410679888	-0.0723698162	-0.3832522519	 0.09962
H	 1.9151331596	 0.8456403993	 2.0240919888	 0.111706
H	 0.7446905889	 0.1451769239	 3.1538853555	 0.11461
H	 2.2078490903	-0.7471685686	 2.7228567908	 0.114538
H	 0.4360708345	-2.9069252434	 1.6989269634	 0.076394
H	-1.8987294381	-2.5975818006	 2.64014605	 0.105498
H	-1.7448748803	-0.7952619315	 2.4065732194	 0.105258
H	-1.6803891869	-2.9312117353	 0.1497979753	 0.07851
H	-2.1993648554	-0.1350954133	-0.1413574563	 0.091777
H	-1.301280578	-1.0139131347	-1.3736210468	 0.094118
148.2421	189.113	200.4184	207.901	248.4188	334.2916	358.7765	414.8729	428.1562	468.2768	535.913	633.0156	678.7143	739.8154	796.4262	828.4103	865.8514	901.3785	927.3511	938.6877	950.7537	985.5931	1000.1835	1018.674	1032.4142	1055.8713	1064.9136	1081.1765	1113.1504	1127.4832	1135.2877	1177.3609	1202.741	1221.408	1258.1698	1264.0935	1327.2379	1361.487	1386.2776	1390.8351	1413.1365	1423.3592	1478.5324	1483.4313	1491.0831	1494.072	1496.0844	1502.1904	1511.5791	3012.3277	3019.8941	3024.6589	3045.7727	3074.1981	3079.7779	3098.6476	3105.6582	3111.5396	3119.0256	3140.3914	3170.6413	3195.3925	3207.0981
CC12CC1(C)C1CC1C2	C[C@@]12C[C@]1(C)[C@H]1C[C@H]1C2	
InChI=1S/C9H14/c1-8-4-6-3-7(6)9(8,2)5-8/h6-7H,3-5H2,1-2H3	InChI=1S/C9H14/c1-8-4-6-3-7(6)9(8,2)5-8/h6-7H,3-5H2,1-2H3/t6-,7-,8+,9+/m0/s1
