21
gdb 106369	2.73676	1.39813	1.15332	2.3981	78.21	-0.2449	0.0832	0.3281	1157.0267	0.183248	-424.210318	-424.201883	-424.200939	-424.243054	33.551	
C	 0.0120013506	 1.5078431145	-0.1253537089	-0.415291
C	 0.1477301651	 0.0004814968	 0.0104555541	 0.15954
O	 1.0583040328	-0.5411148816	-0.9846258165	-0.349948
C	 2.0008815695	-1.2882451643	-0.1745885243	 0.434352
C	 3.0150378924	-1.925150504	-1.0863505126	-0.167285
O	 3.6813134407	-0.9499658174	-1.8681324016	-0.422657
C	 1.0772936623	-2.0224285766	 0.8307797044	-0.290608
C	 0.8171827406	-0.5495823325	 1.2842648277	-0.082202
C	 2.3245196902	-0.2944739777	 0.9697461964	-0.269966
H	 0.9568734985	 2.0235718743	 0.0649428375	 0.12137
H	-0.3159373964	 1.7641717117	-1.1372965066	 0.126959
H	-0.7376965567	 1.8848893815	 0.5786347629	 0.114536
H	-0.8379023178	-0.4621063574	-0.1374027763	 0.073485
H	 3.7779916077	-2.4423959475	-0.4958220004	 0.10599
H	 2.5103319547	-2.6754952173	-1.7168824895	 0.091216
H	 2.9856711457	-0.3908951181	-2.2346725921	 0.292179
H	 0.2421561625	-2.5925037582	 0.4155615628	 0.099104
H	 1.6215177214	-2.6081153451	 1.5737461628	 0.101695
H	 0.3590276333	-0.300681777	 2.2408109361	 0.072229
H	 2.9856628646	-0.7181254741	 1.7274975764	 0.101054
H	 2.6519548383	 0.70699149	 0.6883628474	 0.104246
107.5347	129.7242	208.472	228.6979	279.0578	318.0941	408.4476	436.128	492.6117	510.5602	526.5767	640.7062	692.0962	806.8607	841.4209	859.2978	870.2571	906.1554	926.9746	957.7966	1000.3858	1017.6655	1035.744	1063.9043	1074.0854	1103.5407	1111.3109	1140.8479	1156.8277	1163.4491	1209.14	1229.3149	1252.9484	1293.1458	1324.3659	1337.1529	1375.862	1397.3563	1412.6961	1448.5246	1474.9226	1490.4879	1496.8942	1497.5233	1516.9196	2973.865	3003.6256	3039.5181	3063.8256	3077.7263	3082.7152	3107.4196	3121.6008	3124.6982	3132.3439	3145.6305	3791.3361
CC1OC2(CO)CC1C2	C[C@H]1O[C@]2(CO)C[C@H]1C2	
InChI=1S/C7H12O2/c1-5-6-2-7(3-6,4-8)9-5/h5-6,8H,2-4H2,1H3	InChI=1S/C7H12O2/c1-5-6-2-7(3-6,4-8)9-5/h5-6,8H,2-4H2,1H3/t5-,6-,7+/m1/s1
