19
gdb 63355	2.64067	1.4118	1.14711	3.3472	78.54	-0.2114	0.0143	0.2257	1140.7886	0.159852	-419.274646	-419.265634	-419.26469	-419.308744	34.451	
C	 0.0129055024	 1.5330114903	-0.0030361655	-0.386584
C	-0.0800947289	-0.0090013803	 0.0422335673	 0.208419
C	-1.5585944797	-0.4366898406	 0.125893874	-0.393474
N	 0.4991755023	-0.5802005403	-1.1862131769	-0.380156
C	 1.7014324496	-1.2127110466	-1.3578377553	 0.465589
O	 2.149066385	-1.5299193559	-2.444546247	-0.415417
N	 2.3720759988	-1.4921986259	-0.1743312596	-0.383329
C	 1.8319245268	-1.2214991646	 1.0747259859	 0.007328
C	 0.6923617903	-0.546230971	 1.2234169181	-0.139903
H	 1.0555121905	 1.8503594424	-0.0852934672	 0.125385
H	-0.5401268845	 1.9301440024	-0.8624451053	 0.107785
H	-0.4125828138	 1.9740802245	 0.9043696648	 0.114323
H	-2.1191801371	-0.0675253467	-0.740765974	 0.109289
H	-1.6411143704	-1.5258211762	 0.1543810858	 0.125835
H	-2.0281250805	-0.0261447157	 1.0254152604	 0.116003
H	 0.0548020549	-0.3464933752	-2.0612665656	 0.245231
H	 3.2102270428	-2.0373588446	-0.2793253886	 0.260978
H	 2.4050617611	-1.5944529896	 1.9155478371	 0.119222
H	 0.3023721804	-0.3434770463	 2.2125358417	 0.093478
30.4157	100.8672	233.0129	260.3715	265.4715	318.7174	334.2863	404.1812	421.2541	486.7646	526.8599	532.6308	559.2289	593.1843	710.0432	737.89	760.0841	881.3259	917.5926	929.1984	942.9797	969.9253	1017.3171	1024.7967	1101.1146	1177.6943	1193.8713	1215.9023	1271.5991	1378.7295	1393.1369	1410.9986	1420.5199	1454.4574	1465.4097	1478.3066	1480.8893	1499.2077	1507.4005	1738.1942	1812.0455	3024.8049	3031.3864	3092.6415	3100.147	3120.0436	3124.7187	3194.3922	3217.7668	3625.4119	3677.7996
CC1(C)NC(=O)NC=C1	CC1(C)NC(=O)NC=C1	
InChI=1S/C6H10N2O/c1-6(2)3-4-7-5(9)8-6/h3-4H,1-2H3,(H2,7,8,9)	InChI=1S/C6H10N2O/c1-6(2)3-4-7-5(9)8-6/h3-4H,1-2H3,(H2,7,8,9)
