20
gdb 77966	3.10709	1.18894	1.00023	4.1738	82.1	-0.2335	0.0148	0.2483	1254.8073	0.169994	-403.093592	-403.084488	-403.083543	-403.127756	33.555	
C	 0.1389204694	 1.7388805153	-0.2823923334	-0.450352
C	-0.0246695778	 0.2237042537	-0.2946304493	 0.065927
C	 0.9933979933	-0.8187143305	-0.8907415253	-0.080064
C	 1.9319146743	-0.6561482829	 0.3556536611	 0.060551
C	 2.923400318	 0.4926510915	 0.5301101958	-0.455408
C	 0.4428464936	-0.7031813338	 0.8733755094	-0.100219
N	 0.2164511349	-1.8360018863	-0.0982251508	-0.061464
C	 0.5602636615	-3.1528393474	 0.0647853504	 0.126676
O	 1.088777067	-3.8457680603	-0.7774077647	-0.318906
H	 0.363702063	 2.119706638	-1.2847045276	 0.126434
H	-0.8061997989	 2.1951925182	 0.0288656141	 0.12332
H	 0.9068527153	 2.1035551927	 0.3979493325	 0.128462
H	-1.0376301519	-0.0340273769	-0.6130016302	 0.093379
H	 1.2604042343	-0.9993770797	-1.9311317445	 0.105684
H	 2.4407132398	-1.5954226594	 0.5890960516	 0.096755
H	 2.9789337762	 0.8136133515	 1.5762454015	 0.123539
H	 3.9219301364	 0.1441466895	 0.247660273	 0.126722
H	 2.7076402036	 1.3674983093	-0.0816405609	 0.129993
H	 0.0731421172	-0.7501662154	 1.8995487241	 0.089296
H	 0.2034131008	-3.5497047571	 1.0382005033	 0.069674
74.8143	100.5259	120.506	152.0378	227.6999	281.2192	336.5256	351.773	358.4838	480.8878	613.6193	658.8541	728.7575	781.6816	794.0772	805.4123	825.6282	965.827	1010.4527	1027.683	1034.7299	1059.6855	1077.1786	1099.6438	1117.2557	1124.2446	1143.9686	1162.3867	1209.2289	1234.7708	1237.2966	1279.3939	1351.2207	1393.1122	1414.0619	1418.0296	1421.5908	1454.2768	1494.5498	1495.7223	1500.0786	1529.8809	1784.8822	2914.8353	3041.942	3043.6692	3067.4201	3076.9534	3096.8752	3097.4271	3102.7127	3134.4945	3144.5355	3164.2301
CC1C2C(C)C1N2C=O	C[C@H]1[C@H]2[C@@H](C)[C@@H]1N2C=O	
InChI=1S/C7H11NO/c1-4-6-5(2)7(4)8(6)3-9/h3-7H,1-2H3	InChI=1S/C7H11NO/c1-4-6-5(2)7(4)8(6)3-9/h3-7H,1-2H3/t4-,5+,6-,7+
