19
gdb 100567	3.15813	0.90554	0.77995	1.284	77.42	-0.243	-0.0238	0.2192	1477.526	0.155084	-423.002977	-422.992225	-422.99128	-423.039742	37.771	
C	 0.4150119758	 1.2326568198	-0.5675962598	-0.403229
C	-0.0055282029	-0.1819813398	-0.1218986884	-0.085571
C	-1.5201842187	-0.3006120742	 0.0434490855	-0.081655
O	-1.9079115769	 0.6120775148	 1.0615137951	-0.428043
C	 0.5180274411	-1.2583055083	-1.0611542619	 0.374211
O	-0.2071262523	-2.0165639421	-1.657643731	-0.298074
C	 2.0553178982	-1.3724055324	-1.2172271268	-0.422302
C	 2.5291998643	-0.6345998652	-2.3803697054	 0.315813
C	 2.899145163	-0.0206954948	-3.3449520118	-0.458605
H	 1.5007465585	 1.3478366814	-0.6020664966	 0.126321
H	 0.0232108407	 1.4567716378	-1.564874421	 0.128103
H	 0.0059920031	 1.9600776655	 0.1359699787	 0.144356
H	 0.4537366285	-0.370853452	 0.8604750862	 0.103724
H	-2.0116935522	-0.0742829055	-0.9140789372	 0.10044
H	-1.7831570341	-1.3340178584	 0.3065407633	 0.100584
H	-2.8655834884	 0.5839483672	 1.1387205063	 0.289585
H	 2.5592397774	-1.0136141044	-0.3125522389	 0.136148
H	 2.280353787	-2.4379046445	-1.3335243289	 0.155279
H	 3.2340921979	 0.5144484053	-4.1986943471	 0.202915
37.3983	51.0097	108.2397	137.3726	190.0588	205.4995	250.6645	263.5615	321.1289	335.4577	352.8863	410.2312	458.5078	589.9688	625.2213	637.3949	697.523	820.493	876.1673	915.5124	935.6218	968.7663	1037.1332	1070.6117	1097.8935	1115.0097	1167.5109	1220.626	1252.3054	1265.4036	1303.6603	1324.2073	1345.2897	1404.3376	1457.2901	1459.7189	1487.6049	1505.8313	1516.5825	1810.6195	2237.9432	2993.4177	3000.8786	3034.4301	3037.7624	3048.9097	3085.1882	3119.8575	3141.5113	3506.2483	3837.3443
CC(CO)C(=O)CC#C	C[C@@H](CO)C(=O)CC#C	
InChI=1S/C7H10O2/c1-3-4-7(9)6(2)5-8/h1,6,8H,4-5H2,2H3	InChI=1S/C7H10O2/c1-3-4-7(9)6(2)5-8/h1,6,8H,4-5H2,2H3/t6-/m0/s1
