18
gdb 54834	2.60614	1.4636	1.12915	6.5597	72.31	-0.2382	0.0245	0.2627	1114.3209	0.148425	-439.081243	-439.073147	-439.072203	-439.113924	30.988	
C	-0.1264422847	 1.557560614	-0.0547796865	-0.494228
C	-0.049067078	 0.0652066228	 0.0782189803	 0.294373
C	-1.263192315	-0.8557777047	 0.2602731192	-0.237018
N	-0.4301048633	-1.8251094543	 1.0590422462	-0.367996
H	-0.7965978695	-1.9695872364	 1.9922968673	 0.240416
H	 0.1002562629	-2.8513503423	-0.2371072884	 0.318509
C	 0.6963734085	-0.8529596146	 1.0281997741	-0.089226
C	 1.1694736108	-0.7344761561	-0.3962109884	-0.203824
C	 1.1853290338	-1.8367390884	-1.4328074903	 0.410829
O	 0.4914266052	-2.9461588397	-1.1462623856	-0.389876
O	 1.7985468881	-1.7128525252	-2.4618465386	-0.348445
H	 0.8573678831	 2.0168879083	 0.0796621861	 0.130604
H	-0.4905305812	 1.8456161611	-1.0476184087	 0.138502
H	-0.8053181818	 1.9881346724	 0.690084406	 0.119988
H	-2.0350944451	-0.3784845988	 0.8711067635	 0.117402
H	-1.7215218288	-1.2990364352	-0.6288962101	 0.131763
H	 1.3227702733	-0.6711702835	 1.8937394762	 0.108673
H	 2.0297690818	-0.0843514295	-0.5185154722	 0.119553
95.088	148.7109	192.1845	205.9586	311.1936	326.8526	375.797	414.4254	493.0034	615.532	694.7107	700.563	795.3215	822.3276	855.9974	900.4517	924.9345	954.1234	985.4576	989.2036	991.5297	1003.5356	1043.75	1094.5245	1123.1347	1167.9201	1230.3302	1254.9621	1270.3912	1289.128	1329.3748	1354.2421	1420.2732	1456.6024	1485.4371	1496.4759	1501.9947	1510.3306	1845.8018	3026.8821	3048.4184	3087.0272	3101.9364	3107.1137	3172.3669	3184.0013	3200.9777	3550.6999
CC12C[NH2+]C1C2C([O-])=O	C[C@]12CN[C@H]1[C@H]2C(=O)O	
InChI=1S/C6H9NO2/c1-6-2-7-4(6)3(6)5(8)9/h3-4,7H,2H2,1H3,(H,8,9)	InChI=1S/C6H9NO2/c1-6-2-7-4(6)3(6)5(8)9/h3-4,7H,2H2,1H3,(H,8,9)/t3-,4-,6+/m0/s1
