15
gdb 10283	2.43381	1.88031	1.12359	5.009	63.52	-0.2559	0.0099	0.2658	1025.1517	0.117436	-399.785269	-399.776731	-399.775787	-399.818738	30.251	
C	 0.5734730522	 1.0186130214	 0.6915545942	-0.328681
N	-0.2864756557	 0.3858044289	-0.3128741133	-0.309384
H	-0.8670840444	-0.3138767332	 0.1419858868	 0.242424
H	-1.4148155808	 0.9323640234	-1.7262189487	 0.30214
C	 0.4450567494	-0.2712455035	-1.4115190605	-0.316026
C	 1.0253091726	-1.5623385132	-1.0569889458	 0.35845
C	 1.4761094404	-2.6141425338	-0.690923593	-0.448032
C	-0.4716887356	-0.355164575	-2.6698452147	 0.433662
O	-1.4840305	 0.5164842831	-2.6158174693	-0.367468
O	-0.2582457503	-1.0819747768	-3.5963028084	-0.323847
H	 1.2924788018	 0.3220511348	 1.1447374319	 0.129271
H	 1.1300600596	 1.8374502809	 0.2254927845	 0.137286
H	-0.052472346	 1.4413704816	 1.4812797073	 0.134181
H	 1.2512280445	 0.4149078778	-1.7083333852	 0.148282
H	 1.8784470022	-3.5524718463	-0.3974899358	 0.207741
59.9807	113.0423	144.9358	200.4885	212.1392	287.5578	366.4876	406.6392	484.043	540.2671	600.5101	642.6769	669.4326	722.8948	782.1704	887.2891	928.1713	1003.2701	1031.0679	1125.142	1156.3875	1179.6021	1207.0613	1279.4103	1327.8557	1422.8046	1459.9398	1485.1241	1492.859	1518.0252	1887.5823	2238.0031	3007.6125	3017.2387	3085.8214	3122.411	3444.78	3502.0526	3505.8499
C[NH2+]C(C#C)C([O-])=O	CN[C@@H](C#C)C(=O)O	
InChI=1S/C5H7NO2/c1-3-4(6-2)5(7)8/h1,4,6H,2H3,(H,7,8)	InChI=1S/C5H7NO2/c1-3-4(6-2)5(7)8/h1,4,6H,2H3,(H,7,8)/t4-/m0/s1
