14
gdb 26048	3.26461	1.20813	1.04613	2.9745	67.57	-0.2619	-0.0225	0.2394	1132.2591	0.10273	-432.894513	-432.886592	-432.885648	-432.928077	28.146	
N	-0.0191098038	 1.4953776788	 0.0130799163	-0.497127
C	-0.0011309597	 0.0375186591	 0.0530791944	-0.223323
C	 0.5746174943	-0.5926568999	-1.1636975476	 0.254904
N	 1.0066518718	-1.039816861	-2.1382422673	-0.316902
C	 0.7663092074	-0.4127412045	 1.2649436853	 0.440235
N	 1.7667885811	 0.1838054442	 1.8233007334	-0.304476
C	 2.1213809153	-0.6536326149	 2.8744723556	-0.104446
C	 1.2974471896	-1.7264651764	 2.8790299853	-0.040194
O	 0.4146212818	-1.5818092776	 1.8429550587	-0.171618
H	 0.9250992874	 1.8415824936	 0.159240696	 0.263527
H	-0.3330387481	 1.8152734372	-0.8973763726	 0.249464
H	-1.0279768436	-0.3361332372	 0.1468256337	 0.155468
H	 2.9355019153	-0.4178025014	 3.5403585196	 0.136758
H	 1.1879789411	-2.6091196601	 3.4843332192	 0.157731
37.1277	101.1127	189.9339	216.4402	273.1229	320.0012	415.6621	469.1228	595.1148	630.2827	717.8071	769.7374	803.3511	857.3465	870.3608	932.6176	944.839	976.8392	1100.1637	1115.2947	1135.7478	1171.511	1190.5173	1253.9974	1331.3225	1361.8399	1428.5072	1549.3614	1618.9012	1653.0048	2346.4246	3045.7726	3271.4369	3307.3643	3501.8881	3589.309
NC(C#N)C1=NC=CO1	N[C@@H](C#N)c1ncco1	
InChI=1S/C5H5N3O/c6-3-4(7)5-8-1-2-9-5/h1-2,4H,7H2	InChI=1S/C5H5N3O/c6-3-4(7)5-8-1-2-9-5/h1-2,4H,7H2/t4-/m0/s1
