23
gdb 73841	2.2521	1.72036	1.30872	0.1957	91.13	-0.2111	0.0374	0.2485	1124.9112	0.207956	-351.18747	-351.178929	-351.177985	-351.220053	34.131	
C	-0.0054731632	 1.5126825512	 0.1190284174	-0.514657
C	-0.069154945	 0.0244606973	 0.0013347236	 0.233179
C	-0.0784586798	-0.7565195081	-1.0923334198	 0.233272
C	-0.0283383388	-0.385289699	-2.5388423475	-0.514647
C	 0.003470207	-2.2040663165	-0.6116388459	-0.091239
C	 1.4548879281	-2.406235347	-0.0609038777	-0.202722
C	 1.4661675972	-1.4992627467	 1.2088381247	-0.202735
C	 0.0195775887	-0.9007281294	 1.2134731023	-0.091193
C	-0.7925630065	-2.111733055	 0.7074568096	-0.211436
H	 0.9151874394	 1.8319896787	 0.6263802099	 0.122743
H	-0.0354654546	 2.0086525492	-0.855020493	 0.119786
H	-0.8382681362	 1.901665736	 0.7193432403	 0.121883
H	-0.0480651129	 0.6972904806	-2.6914380255	 0.119779
H	 0.8822529101	-0.7718032719	-3.0167364741	 0.122736
H	-0.8728620265	-0.8174088472	-3.0913908472	 0.121907
H	-0.3099144096	-2.9598235266	-1.334762349	 0.04848
H	 1.6292433159	-3.4555872299	 0.1974060356	 0.090617
H	 2.2121145415	-2.1192624851	-0.7951935561	 0.092712
H	 1.6464379427	-2.0854509253	 2.1155584857	 0.090616
H	 2.2294719636	-0.717911083	 1.1665438709	 0.092718
H	-0.2789485809	-0.4595035717	 2.1666202649	 0.04847
H	-1.8494540102	-1.8807917168	 0.5518609049	 0.088896
H	-0.69722656	-3.0007388138	 1.3414973161	 0.080836
156.2872	157.7713	173.1596	184.8284	246.0228	266.9206	359.9946	429.8184	515.5304	540.6945	603.2962	645.7064	750.4233	820.2225	823.4926	845.821	880.9974	891.3082	941.3019	952.3238	953.6278	980.0336	1028.2828	1035.2893	1053.9473	1066.5418	1093.6723	1141.1564	1151.2839	1181.0045	1197.4217	1201.9798	1237.1805	1250.0135	1283.8492	1308.2797	1310.4567	1332.6159	1357.3405	1410.1468	1420.1407	1478.9472	1480.7333	1487.1093	1490.3874	1490.7119	1492.1947	1513.6601	1725.3729	3008.5265	3010.5459	3038.5306	3042.7032	3050.576	3050.8086	3054.7379	3083.7225	3089.5966	3092.82	3101.7445	3104.0617	3105.2866	3109.0006
CC1=C(C)C2CCC1C2	CC1=C(C)[C@H]2CC[C@@H]1C2	
InChI=1S/C9H14/c1-6-7(2)9-4-3-8(6)5-9/h8-9H,3-5H2,1-2H3	InChI=1S/C9H14/c1-6-7(2)9-4-3-8(6)5-9/h8-9H,3-5H2,1-2H3/t8-,9+
