19
gdb 31145	1.92126	1.77615	0.98589	1.5341	79.69	-0.1763	0.0451	0.2214	1222.4922	0.159314	-419.225186	-419.215513	-419.214569	-419.25972	35.282	
C	 0.3553816275	 1.4055239805	 0.3746903104	-0.325423
N	-0.1948775492	 0.1729507253	-0.199766202	-0.397824
C	 0.5727079499	-0.4107639724	-1.2422716295	-0.006185
C	 0.2405877038	-0.3167331334	-2.563820973	 0.372851
N	-0.7800022408	 0.3681483801	-3.2030515135	-0.596282
O	 1.1387017069	-0.9601740321	-3.3378095392	-0.183742
C	 2.0786179293	-1.5035860423	-2.4849301469	-0.151819
C	 1.7945845967	-1.1920787108	-1.1973417236	 0.225032
C	 2.5596484684	-1.5966507696	 0.0233029125	-0.509674
H	 1.3572605221	 1.2920718742	 0.8186230327	 0.102934
H	 0.4235360289	 2.165625664	-0.4089757394	 0.131475
H	-0.3232344163	 1.7760072258	 1.1500203238	 0.111388
H	-0.3736722482	-0.4984293462	 0.5391285145	 0.221383
H	-1.4990662287	 0.6105978134	-2.5308730489	 0.256582
H	-1.1717522789	-0.142892955	-3.9852044988	 0.250313
H	 2.8576574989	-2.0745640061	-2.9608862476	 0.124255
H	 2.9744556426	-0.7295385214	 0.5505765748	 0.129755
H	 1.923539315	-2.1301303298	 0.7401294745	 0.119525
H	 3.3917617722	-2.2579686141	-0.2337204709	 0.125456
64.1055	122.2541	148.1287	175.7377	185.2279	243.1924	250.0004	307.8927	344.2256	416.5723	515.3717	566.2909	622.5929	661.4661	672.5162	699.2938	766.3679	786.0547	818.6864	993.4577	1012.0645	1036.6112	1062.5855	1097.2514	1139.776	1162.5232	1171.2435	1246.0916	1294.323	1344.3787	1416.9557	1446.9803	1451.8422	1475.9956	1480.2675	1492.8079	1497.2806	1519.0287	1608.1481	1633.2503	1699.5687	2976.1449	3022.2864	3065.5487	3068.8539	3107.8061	3109.1775	3279.7748	3515.4989	3519.1389	3618.2423
CNC1=C(N)OC=C1C	CNc1c(N)occ1C	
InChI=1S/C6H10N2O/c1-4-3-9-6(7)5(4)8-2/h3,8H,7H2,1-2H3	InChI=1S/C6H10N2O/c1-4-3-9-6(7)5(4)8-2/h3,8H,7H2,1-2H3
