19
gdb 69510	2.40387	1.63683	1.36323	2.2593	75.14	-0.225	0.0624	0.2873	1035.1378	0.15752	-422.9761	-422.967283	-422.966339	-423.008739	34.68	
C	-0.0923066459	 1.4781866791	 0.0739500904	-0.509179
C	-0.0777245487	-0.0235339658	 0.0314541542	 0.175944
C	 1.1413293259	-0.8317519007	-0.3888100165	-0.380647
C	 0.6104883108	-1.0196885696	 0.9964836359	 0.389992
O	 1.4332812374	-0.7432480374	 2.0747948252	-0.461624
C	-0.6125173558	-1.8975355414	 1.016719641	-0.20909
C	-1.8403643496	-1.1029908769	 1.43901885	-0.367939
C	-1.2883909398	-0.9344941745	 0.0457574398	 0.361958
O	-1.9909763316	-1.3480260016	-1.0772713487	-0.465212
H	 0.8534956018	 1.8622066067	 0.4711596753	 0.127474
H	-0.2329925299	 1.9160114348	-0.921571929	 0.119947
H	-0.8983488304	 1.8508072224	 0.7172455495	 0.110361
H	 1.0567229002	-1.6173728487	-1.1347003041	 0.11519
H	 2.065082184	-0.2621098374	-0.4338496146	 0.115649
H	 0.8723443541	-0.5621718212	 2.8377715781	 0.284045
H	-0.6264933109	-2.9809222807	 0.9700515993	 0.095563
H	-2.7563728015	-1.6835897068	 1.4909293421	 0.115158
H	-1.7661369527	-0.3097553272	 2.1796301442	 0.097056
H	-2.6473134673	-0.674455313	-1.285575702	 0.285354
156.7256	165.8455	197.8182	220.0679	250.5579	258.6804	345.0871	368.5023	428.0127	479.8875	521.736	556.4956	596.8612	668.1001	725.9223	791.1972	799.8479	902.7532	944.7464	958.0708	970.2455	996.202	1001.5182	1051.7945	1072.9249	1082.8356	1100.681	1135.4765	1184.2415	1205.3559	1259.2848	1279.7347	1346.3264	1359.0358	1390.6543	1405.8448	1418.9508	1486.5535	1488.0697	1501.933	1504.9805	3017.3116	3073.9701	3091.0719	3104.0963	3113.8101	3173.2534	3200.3615	3201.9929	3788.8678	3799.0127
CC12CC1(O)C1CC21O	C[C@@]12C[C@]1(O)[C@H]1C[C@@]21O	
InChI=1S/C7H10O2/c1-5-3-7(5,9)4-2-6(4,5)8/h4,8-9H,2-3H2,1H3	InChI=1S/C7H10O2/c1-5-3-7(5,9)4-2-6(4,5)8/h4,8-9H,2-3H2,1H3/t4-,5-,6-,7-/m0/s1
