22
gdb 58633	2.45851	1.27164	1.07514	2.3044	81.52	-0.2399	0.0715	0.3115	1259.4173	0.193253	-404.300197	-404.290541	-404.289597	-404.334822	36.396	
C	-0.4849930376	 1.3091646143	 0.1254508788	-0.431183
C	 0.082044409	-0.1161013896	 0.0879034003	-0.036926
C	 0.813122647	-0.3685043646	-1.2423239662	-0.390651
C	 0.9834231035	-0.4736045719	 1.2814889868	 0.307333
C	 2.1197867353	 0.4043464828	 1.6697857538	-0.279675
N	 0.9373065667	 0.2874225327	 2.5405285729	-0.359836
C	 1.1462490248	-1.9583416755	 1.4725217653	 0.008835
C	 1.1158323928	-2.5911578136	 2.7944520344	-0.168939
O	-0.0155395655	-2.6657222569	 1.9199766025	-0.247163
H	 0.3041857982	 2.0702404877	 0.1308307387	 0.116628
H	-1.0939151005	 1.4879159161	-0.766026194	 0.120742
H	-1.1326001082	 1.4744640217	 0.992184113	 0.123491
H	-0.769708018	-0.8061213606	 0.1421493057	 0.101449
H	 1.6644147525	 0.3117970821	-1.3569332666	 0.11359
H	 1.1919702184	-1.391892143	-1.3147186861	 0.119993
H	 0.1394489528	-0.208025723	-2.0901338083	 0.113685
H	 3.0303428578	-0.0315691164	 2.0727736371	 0.114891
H	 2.2705839101	 1.3289230655	 1.1183072634	 0.110797
H	 0.3506839442	 1.1094539276	 2.4343791681	 0.229904
H	 1.6869915687	-2.4701170521	 0.6746914657	 0.091427
H	 1.6446327723	-3.5310792469	 2.9499178969	 0.104731
H	 0.9843077556	-1.9575421464	 3.6666635479	 0.136876
55.4199	76.8675	183.9791	216.1562	228.1451	240.8795	281.2737	304.2841	351.7032	426.2516	451.0502	476.7722	605.0525	672.5228	816.6006	861.1688	887.3391	890.5369	930.0086	935.9302	944.3431	971.5455	982.4921	1024.951	1062.4636	1107.5092	1114.8358	1130.4064	1134.9648	1160.4485	1177.0502	1190.5715	1262.4567	1277.1971	1298.2715	1342.228	1357.354	1386.841	1404.0436	1423.9453	1447.4838	1487.7268	1495.2732	1502.8868	1510.4106	1517.2512	1522.6555	3025.3095	3029.7792	3035.6268	3087.4337	3094.6484	3096.4503	3100.154	3103.1995	3105.1111	3111.7697	3186.7508	3198.279	3524.3085
CC(C)C1(CN1)C1CO1	CC(C)[C@]1(CN1)[C@H]1CO1	
InChI=1S/C7H13NO/c1-5(2)7(4-8-7)6-3-9-6/h5-6,8H,3-4H2,1-2H3	InChI=1S/C7H13NO/c1-5(2)7(4-8-7)6-3-9-6/h5-6,8H,3-4H2,1-2H3/t6-,7-/m1/s1
