14
gdb 130982	4.49065	0.97642	0.83089	4.4927	64.25	-0.2362	-0.0329	0.2033	1283.8999	0.101687	-466.166486	-466.158429	-466.157484	-466.200632	27.84	
O	 0.5757589545	 0.9433144472	 1.2186243347	-0.236713
C	 0.5972280356	 1.7306398162	 0.3130606944	 0.182777
C	 1.2910262749	 1.4456144803	-1.0193204905	-0.25868
N	 1.3860558187	 2.6256631799	-1.8598544769	-0.382063
C	 2.3162964777	 3.5832655695	-1.5627967126	 0.497489
N	 2.7242210828	 4.5277672607	-2.4096540267	-0.320849
N	 3.5681874444	 5.199618638	-1.6210177932	-0.064545
N	 3.6907119443	 4.7298307303	-0.399550287	-0.098835
N	 2.896223143	 3.6874596741	-0.3356633608	-0.269596
H	 0.0850707588	 2.7165272588	 0.3605795872	 0.094323
H	 2.2634485664	 0.9833933671	-0.8056860448	 0.149714
H	 0.6810843535	 0.7036763741	-1.5454290811	 0.140996
H	 1.2123908194	 2.5055961216	-2.8444449214	 0.262805
H	 4.079675956	 6.0084170224	-1.9397236313	 0.303178
42.6461	69.6664	116.6333	195.5589	292.8934	367.1844	402.4739	465.1871	543.4853	641.8919	671.4432	718.552	784.4074	790.0757	1021.1581	1022.4122	1054.4243	1099.2487	1136.2299	1166.4874	1187.0053	1249.9106	1280.7068	1327.9735	1369.0593	1404.2201	1444.1266	1453.8728	1519.753	1633.231	1846.733	2900.9599	3027.3387	3088.2533	3644.8391	3655.6013
O=CCNC1=NNN=N1	O=CCNc1n[nH]nn1	
InChI=1S/C3H5N5O/c9-2-1-4-3-5-7-8-6-3/h2H,1H2,(H2,4,5,6,7,8)	InChI=1S/C3H5N5O/c9-2-1-4-3-5-7-8-6-3/h2H,1H2,(H2,4,5,6,7,8)
