16
gdb 28022	5.91104	0.88215	0.77495	4.7641	75.86	-0.2272	0.0204	0.2476	1411.3363	0.125285	-396.997751	-396.989095	-396.988151	-397.032344	30.553	
C	 0.6719648419	 1.439343153	 0.4984260928	-0.498605
C	 0.2007123364	 0.0918826843	 0.0647888191	 0.341908
N	 0.4970210817	-0.5011923441	-1.0726658679	-0.347104
C	-0.1499356126	-1.7160959843	-1.0448125468	 0.271816
C	-0.0238012846	-2.6615093302	-2.2071231663	-0.453364
C	-0.7733082047	-3.9013840917	-2.0133189525	 0.273132
N	-1.3705086496	-4.8759648191	-1.8451488048	-0.319962
C	-0.8474579929	-1.8640441643	 0.1218859342	-0.166872
N	-0.6144639702	-0.6999265242	 0.8237759792	-0.285625
H	 1.2602615285	 1.3880838047	 1.4217209566	 0.135288
H	 1.3011158939	 1.8574636205	-0.2879458857	 0.160648
H	-0.1634645174	 2.1262807338	 0.6754038762	 0.135014
H	-0.3744262813	-2.1787652141	-3.1277002971	 0.166971
H	 1.0303944077	-2.911086379	-2.3798245197	 0.166968
H	-1.4642190809	-2.6596604359	 0.5040308489	 0.153375
H	-0.9842944458	-0.4768542194	 1.7327048538	 0.266413
35.5587	65.4225	111.0864	194.0672	260.5605	299.9079	383.3783	398.8549	475.0835	532.1905	651.7234	688.5921	698.4405	748.1012	750.8463	946.861	958.7261	972.4129	1007.0862	1049.62	1063.0509	1114.8332	1212.3874	1244.7552	1247.6689	1339.3642	1383.3259	1413.4677	1439.5016	1461.0094	1482.7298	1499.4203	1575.4808	1613.4244	2366.4577	3032.7608	3033.9969	3061.8853	3082.8122	3151.33	3282.7565	3662.8221
CC1=NC(CC#N)=CN1	Cc1nc(CC#N)c[nH]1	
InChI=1S/C6H7N3/c1-5-8-4-6(9-5)2-3-7/h4H,2H2,1H3,(H,8,9)	InChI=1S/C6H7N3/c1-5-8-4-6(9-5)2-3-7/h4H,2H2,1H3,(H,8,9)
