16
gdb 33443	2.54947	1.60621	1.15201	1.8408	82.42	-0.2346	0.0091	0.2437	1073.9955	0.122062	-363.486593	-363.478284	-363.47734	-363.519066	32.285	
C	 0.0032661645	-1.1952587974	-0.0003371195	-0.460348
C	 0.0082503807	 0.006701606	 0.0314821603	 0.287938
C	 0.0049595158	 1.4474390781	 0.0601592886	-0.008922
C	-1.0800453489	 2.0634834617	-0.665935007	 0.22606
C	-1.9999820112	 2.570950898	-1.2480011543	-0.384146
C	 0.5244161154	 2.2083816537	 1.2486822045	-0.044531
C	 1.6164740477	 1.4457981869	 1.988492538	-0.270254
C	 2.36349941	 1.420279616	 0.6282363083	-0.162052
N	 1.2876911369	 2.2420575829	-0.0434697628	-0.174988
H	-0.0124956418	-2.2567424419	-0.0345059368	 0.201095
H	-2.8059043368	 3.0185265335	-1.7749774425	 0.194541
H	-0.0328137287	 3.0664951428	 1.6112279529	 0.108187
H	 2.1192325614	 2.054845779	 2.7413344568	 0.117629
H	 1.3266883462	 0.4894807266	 2.4293648019	 0.122771
H	 3.2906910287	 1.9951210742	 0.6212065579	 0.120586
H	 2.5311568901	 0.4464950399	 0.1641498436	 0.126434
130.5455	144.3946	168.4432	182.0712	309.107	366.0284	435.5411	486.7171	565.6185	574.5547	597.8715	605.6931	610.761	654.5657	664.9821	761.4177	781.4414	849.0232	856.881	954.8594	961.3591	985.367	1038.9029	1100.9363	1151.3018	1196.9626	1217.7853	1260.426	1280.1476	1289.0965	1354.6043	1477.572	1498.2817	2233.5012	2246.1855	3073.2679	3079.487	3123.5222	3140.6446	3165.5517	3500.2504	3503.4616
C#CC1(C#C)C2CCN12	C#CC1(C#C)[C@H]2CCN12	
InChI=1S/C8H7N/c1-3-8(4-2)7-5-6-9(7)8/h1-2,7H,5-6H2	InChI=1S/C8H7N/c1-3-8(4-2)7-5-6-9(7)8/h1-2,7H,5-6H2/t7-,9?/m1/s1
