16
gdb 47663	2.31325	1.91282	1.33335	1.4745	65.83	-0.2621	-0.0251	0.237	967.4724	0.124953	-475.03122	-475.023537	-475.022593	-475.063526	28.67	
O	 0.0907688591	-0.0213205885	-0.0054083703	-0.303579
C	-0.0310492091	 1.1701952142	 0.0080710268	 0.382947
C	-1.3634020742	 1.9215262393	 0.0307564346	-0.176092
O	-1.3561179456	 2.8903073625	-1.0188638398	-0.224029
C	-1.1264043774	 2.3408559168	-2.2656529444	 0.097896
N	-0.0363376484	 2.3422926175	-2.8938798316	-0.203413
C	 1.1745712953	 2.917883579	-2.3078008308	-0.153291
C	 1.8099999034	 2.0188230514	-1.2413917193	-0.09946
O	 0.9997472408	 2.0550491466	-0.0558149417	-0.228882
H	-2.1807578404	 1.2001583265	-0.0815695226	 0.132205
H	-1.4876947163	 2.4778625657	 0.9629445061	 0.14816
H	-2.0144971541	 1.8937916991	-2.7190167994	 0.121301
H	 1.8999053708	 3.0568929937	-3.1161497938	 0.113424
H	 0.975445927	 3.8938929075	-1.8498456655	 0.128856
H	 1.9193739985	 0.9864917545	-1.5878048721	 0.139255
H	 2.7894417206	 2.4098306944	-0.9574224263	 0.124703
86.3849	161.054	229.4152	246.2775	280.6356	314.4892	392.6107	486.309	586.5684	618.9549	703.6564	716.8291	797.2723	846.1757	916.8281	953.9455	994.511	1020.4268	1040.9378	1068.0289	1094.0905	1115.7095	1217.2444	1254.0277	1263.9091	1296.5949	1359.8753	1367.1885	1391.0542	1400.8888	1476.9331	1485.625	1492.7797	1743.2246	1847.4834	3035.5366	3047.4561	3061.3917	3085.6085	3108.6077	3117.6742	3123.9503
O=C1COC=NCCO1	O=C1COC=NCCO1	
InChI=1S/C5H7NO3/c7-5-3-8-4-6-1-2-9-5/h4H,1-3H2/b6-4-	InChI=1S/C5H7NO3/c7-5-3-8-4-6-1-2-9-5/h4H,1-3H2/b6-4-
