23
gdb 115619	2.36926	1.18422	0.96666	1.6528	86.18	-0.2522	0.0775	0.3297	1377.8993	0.204065	-388.2759	-388.265971	-388.265027	-388.310925	37.044	
C	-0.4669159717	 1.4960852164	 0.0400427966	-0.387395
C	-0.2560012539	-0.0202800504	 0.0431698465	-0.169561
C	 0.8083259261	-0.4769065773	 1.0434900246	-0.087295
C	 0.3596394077	-0.5011755116	 2.542083247	-0.233001
C	 0.2471151128	-2.0553043543	 2.4851240875	-0.320137
C	 0.97001664	-2.0039200574	 1.1383480718	 0.444245
O	 0.7288130827	-2.9031723235	 0.065611336	-0.297079
C	 2.0501336314	-2.8585600914	 0.6346791375	-0.020567
C	 3.1574681605	-2.3580756665	-0.2549788162	-0.41849
H	 0.4556349782	 2.0220810914	-0.2305777006	 0.112026
H	-1.2394786871	 1.7870084575	-0.6785011987	 0.113068
H	-0.7765870159	 1.8615438275	 1.0252939102	 0.115396
H	-1.2036688266	-0.5279233618	 0.2654969575	 0.096409
H	 0.0358606485	-0.3609169339	-0.9570350916	 0.1075
H	 1.7406451174	 0.069107937	 0.8577968917	 0.064517
H	 1.1369972776	-0.1554952329	 3.2269208756	 0.102384
H	-0.5643408411	 0.0362612182	 2.7675764575	 0.101215
H	 0.7268264304	-2.6232623515	 3.2862192039	 0.102225
H	-0.7833890585	-2.405751193	 2.3785232003	 0.115339
H	 2.2948341635	-3.7454663538	 1.2239824548	 0.084299
H	 2.8572525983	-1.4506478163	-0.7851364596	 0.126785
H	 4.0539313794	-2.1378275725	 0.3353861096	 0.119077
H	 3.4247448504	-3.1154419799	-0.999425202	 0.12904
59.4329	98.3875	137.1008	172.3412	184.6386	222.8613	228.2784	288.4804	380.3664	442.1947	467.9698	504.6079	576.0896	732.6994	765.232	789.4169	816.2498	881.1209	899.6542	928.0599	958.9338	976.4835	987.1367	1031.5429	1059.4185	1088.5233	1120.6172	1136.2571	1147.7795	1177.6726	1187.8305	1221.7386	1235.5313	1254.2771	1276.5774	1284.4207	1333.7546	1353.0069	1384.0268	1408.8663	1411.6931	1468.2159	1473.1147	1483.4782	1487.8484	1494.1145	1499.2781	1507.6258	1521.4494	3021.8423	3028.6557	3032.9245	3035.0543	3057.3683	3061.2357	3067.9288	3078.8215	3096.1285	3097.7138	3102.0046	3103.0371	3122.2713	3122.942
CCC1CCC11OC1C	CC[C@H]1CC[C@]21O[C@H]2C	
InChI=1S/C8H14O/c1-3-7-4-5-8(7)6(2)9-8/h6-7H,3-5H2,1-2H3	InChI=1S/C8H14O/c1-3-7-4-5-8(7)6(2)9-8/h6-7H,3-5H2,1-2H3/t6-,7-,8-/m0/s1
