18
gdb 92762	3.33719	1.05422	0.89406	4.4448	74.93	-0.2494	-0.0414	0.208	1306.118	0.148784	-439.128028	-439.119448	-439.118504	-439.161786	32.285	
N	 0.0041334556	 0.7298351143	 0.1870597326	-0.508213
H	 0.8967077396	 0.6172423149	 4.5800716058	 0.303409
H	-0.4016761267	 0.8284221118	-0.7396123457	 0.227953
H	-0.2032080948	-0.2214967962	 0.4841819316	 0.227828
C	-0.624402603	 1.6797807108	 1.1083461254	 0.021059
C	-2.15825914	 1.4733995365	 1.3182917893	-0.277626
C	-2.2349337137	 0.6551905376	 2.5752367692	-0.123807
C	-1.0748382404	 0.6507409503	 3.2431801837	 0.156382
C	-0.0240276006	 1.4798197261	 2.5274025975	-0.358134
C	-0.9025000898	-0.0540489227	 4.5407129479	 0.357704
O	-1.7588829336	-0.7075088506	 5.0757969182	-0.326474
O	 0.3173276516	 0.07462618	 5.1275909098	-0.378626
H	-0.4109137012	 2.6824431662	 0.7281697227	 0.084862
H	-2.6834100412	 2.4298653952	 1.4564179388	 0.119559
H	-2.6260263826	 0.987950213	 0.4534924587	 0.105724
H	-3.1253699898	 0.1448791462	 2.9226916517	 0.129892
H	 0.9551218538	 0.9928261404	 2.4421418121	 0.118854
H	 0.1323136667	 2.4414176966	 3.0349380409	 0.119654
58.0617	86.9776	189.036	196.3914	289.1083	367.0056	382.7267	413.6786	451.1372	493.6323	507.9254	700.7881	734.333	756.8641	813.8961	859.2644	874.7017	908.3865	917.9203	958.1868	983.1192	1034.6825	1086.7041	1096.869	1154.4054	1177.8236	1205.2643	1249.2168	1266.3129	1285.0792	1319.2303	1331.1604	1356.4452	1418.3122	1465.686	1488.2892	1659.8443	1683.2077	1841.4571	3005.5159	3011.9643	3053.3781	3054.554	3073.4882	3215.4513	3472.1965	3552.9107	3805.9006
[NH3+]C1CC=C(C1)C([O-])=O	N[C@H]1CC=C(C1)C(=O)O	
InChI=1S/C6H9NO2/c7-5-2-1-4(3-5)6(8)9/h1,5H,2-3,7H2,(H,8,9)	InChI=1S/C6H9NO2/c7-5-2-1-4(3-5)6(8)9/h1,5H,2-3,7H2,(H,8,9)/t5-/m0/s1
