23
gdb 113830	3.99771	0.83313	0.74276	0.0696	88.69	-0.2109	0.0915	0.3024	1627.7477	0.204568	-384.403133	-384.39304	-384.392096	-384.438928	37.065	
C	-0.0314912212	 1.6595453293	-1.0366729803	-0.37587
C	 0.1791338399	 0.4291432939	-0.1571572771	-0.109242
N	-1.1120103796	-0.1643719813	 0.1837186262	-0.089571
C	-1.6104930082	-1.2520393103	-0.6479853519	-0.267719
C	-1.1864877329	-1.5093797181	 0.7617879772	-0.006472
C	 0.0356842755	-2.3283315776	 1.0504018084	 0.001312
C	 0.4705673585	-2.5674462203	 2.4606940309	-0.261933
N	-0.0352634745	-3.6651307327	 1.6490459305	-0.092069
C	-1.3223367382	-4.2460603426	 2.0050009962	-0.309724
H	 0.9252733391	 2.1383439407	-1.2675513021	 0.109544
H	-0.509596074	 1.3849902962	-1.9827652845	 0.117789
H	-0.6751433393	 2.3856421611	-0.5325679859	 0.126168
H	 0.854826636	-0.2731575975	-0.6722988748	 0.085084
H	 0.6710640379	 0.7175117119	 0.7793114146	 0.10498
H	-2.6624883786	-1.214128521	-0.919777227	 0.112517
H	-0.9533292141	-1.6341596552	-1.4302141736	 0.106056
H	-1.9660841214	-1.586822091	 1.516231174	 0.088696
H	 0.8094276078	-2.2635667564	 0.2889685372	 0.089776
H	 1.5246122934	-2.6053495786	 2.7248125016	 0.113232
H	-0.1790951699	-2.1731135216	 3.2428939202	 0.105878
H	-2.0165711598	-3.5600634436	 2.5140785309	 0.102965
H	-1.8128443512	-4.6247485455	 1.1027442553	 0.12501
H	-1.1436392052	-5.0937059498	 2.6744290441	 0.123592
35.954	78.3554	113.6151	162.7017	205.1372	226.7401	241.5909	308.0638	341.1854	396.3314	434.765	472.2863	590.417	720.8364	743.1158	811.1102	840.7915	891.5485	924.6266	939.3733	970.2101	1035.4119	1045.6717	1084.5503	1092.4673	1108.1551	1116.6872	1125.8101	1136.4026	1143.9109	1163.1921	1198.911	1203.1139	1216.562	1306.309	1315.6588	1330.9056	1343.4905	1387.423	1409.8157	1450.026	1456.4495	1487.4786	1488.7723	1489.0871	1502.1521	1504.0905	1511.9348	1515.6126	2962.2878	2980.9562	3038.2514	3051.2004	3066.5663	3077.6454	3079.1912	3102.378	3106.9964	3119.6604	3121.7586	3133.9516	3167.214	3168.2524
CCN1CC1C1CN1C	CCN1C[C@H]1[C@H]1CN1C	
InChI=1S/C7H14N2/c1-3-9-5-7(9)6-4-8(6)2/h6-7H,3-5H2,1-2H3	InChI=1S/C7H14N2/c1-3-9-5-7(9)6-4-8(6)2/h6-7H,3-5H2,1-2H3/t6-,7+,8?,9?/m1/s1
