20
gdb 37957	2.94525	1.78743	1.40443	1.8339	83.5	-0.2234	-0.001	0.2224	981.5083	0.174214	-365.94612	-365.939108	-365.938163	-365.977024	29.587	
C	-0.1070916126	 1.4060331298	 0.0713621188	-0.219466
N	 1.3904779228	 1.6463448158	-0.0727217617	-0.172677
C	 2.1954959837	 0.5160222063	 0.5433681203	 0.015666
C	 1.8345408791	-0.3187102166	 1.7732241825	-0.232499
C	 1.7037995937	-1.8466565118	 1.5060758047	-0.183934
C	 0.7495000907	-2.2626337618	 0.3272937721	-0.246954
C	-0.3023766565	-1.1946736941	 0.1731511283	-0.160393
C	 0.086944804	-0.0339686055	-0.3437188617	 0.206092
C	 1.5082200243	 0.2993572415	-0.741414596	-0.130945
H	-0.5309401112	 1.5940999375	 1.0646727519	 0.105942
H	-0.5966077596	 2.0593829367	-0.6573393622	 0.119064
H	 3.2446099734	 0.7943667632	 0.4763518007	 0.096502
H	 2.6081921067	-0.1733462416	 2.5349515397	 0.096849
H	 0.9091630919	 0.0501855281	 2.2228746964	 0.112185
H	 2.6960278217	-2.272648493	 1.3181979029	 0.101554
H	 1.3479230169	-2.3071795506	 2.4346576151	 0.101117
H	 1.3334167198	-2.3454903611	-0.5943766725	 0.11427
H	 0.3311867325	-3.2534846147	 0.5252427705	 0.0966
H	-1.2309956744	-1.2732848263	 0.7347613439	 0.088825
H	 1.9847292631	 0.1664828682	-1.7076864736	 0.092202
163.2419	243.467	279.7581	317.5864	397.0753	434.6934	481.6878	578.7538	656.2235	695.4495	741.1138	771.2954	791.5962	806.6761	876.9133	880.6618	923.1873	945.2729	967.1512	991.5467	1023.4054	1033.9529	1058.071	1075.2486	1092.4022	1125.0011	1150.0461	1200.219	1218.5661	1243.8843	1269.5736	1281.5219	1291.5071	1315.4457	1349.6631	1367.1044	1368.632	1405.7209	1483.2485	1488.8707	1498.6857	1501.7894	1743.241	3030.5708	3032.8227	3049.6712	3053.6334	3065.516	3083.4961	3090.8623	3096.8288	3135.1651	3149.0777	3154.468
C1N2C3CCCC=C1C23	C1N2[C@H]3CCC[CH][C]1[C@@H]23	
InChI=1S/C8H11N/c1-2-4-7-8-6(3-1)5-9(7)8/h3,7-8H,1-2,4-5H2	InChI=1S/C8H11N/c1-2-4-7-8-6(3-1)5-9(7)8/h3,7-8H,1-2,4-5H2/t7-,8+,9?/m0/s1
