15
gdb 98940	3.79324	0.83865	0.77361	6.8499	72.59	-0.265	-0.0457	0.2193	1463.051	0.112908	-450.139767	-450.130558	-450.129614	-450.175325	31.758	
N	-0.0639744005	 1.4757813333	 0.1412663492	-0.530273
H	 0.8242059061	 1.0548313862	-0.0991064932	 0.257285
H	 0.0759261493	 2.4780467205	 0.20145428	 0.257225
H	-1.7845671748	 1.0907281843	-0.5138157773	 0.311155
C	-0.6088936881	 0.9297917724	 1.3894314448	-0.2719
C	-2.1254212168	 0.8131444375	 1.2715078763	 0.416415
O	-2.5847604724	 0.8892890166	 0.0278654385	-0.360991
N	-2.8345050797	 0.6597962114	 2.3156485671	-0.323889
C	-4.2003334521	 0.4200009745	 2.2657946647	 0.259195
N	-4.7250503737	-0.6282905426	 1.7647113949	-0.464397
C	-4.9862998332	 1.4401871254	 2.9520115095	 0.23976
N	-5.6472731869	 2.2346931443	 3.4718274457	-0.333596
H	-0.2166832519	-0.0812606097	 1.5397560738	 0.156777
H	-0.3674527148	 1.5053755144	 2.2876819735	 0.147739
H	-5.7338912207	-0.6350863485	 1.9170836523	 0.239496
30.2553	72.2221	110.5182	132.8916	214.4199	289.276	305.1997	334.4198	409.7596	480.8998	570.0534	612.0956	682.0224	751.8084	844.8141	848.8269	865.1659	892.325	911.2248	957.3987	1063.8258	1107.9911	1166.5714	1270.704	1318.7923	1362.3763	1377.0917	1445.2108	1475.0153	1662.2409	1665.9587	1789.8248	2340.1762	3057.5751	3102.2584	3405.3403	3485.8533	3532.5499	3615.8996
[NH3+]CC(=O)[N-]C(=N)C#N	NCC(=NC(=N)C#N)O	
InChI=1S/C4H6N4O/c5-1-3(7)8-4(9)2-6/h2,6H2,(H2,7,8,9)	InChI=1S/C4H6N4O/c5-1-3(7)8-4(9)2-6/h2,6H2,(H2,7,8,9)
