14
gdb 26073	3.38193	1.22193	0.94195	3.7978	66.31	-0.2602	-0.0165	0.2437	1160.7147	0.102847	-432.894959	-432.887088	-432.886144	-432.928195	28.087	
N	-0.5533904123	 1.5448561458	-0.3284390697	-0.498706
C	 0.0169250357	 0.2105664178	-0.0972630237	-0.255015
C	-1.0027163624	-0.672736106	 0.4915353607	 0.313314
N	-1.8001802885	-1.3875145076	 0.9234317007	-0.324158
C	 0.6237885925	-0.4379564037	-1.3170703866	 0.250479
C	 0.346086835	-1.6034423199	-1.9487379222	-0.097835
O	 1.1767678182	-1.7027959327	-3.0300976036	-0.139526
C	 1.9178604338	-0.5746367749	-2.9893387765	 0.076281
N	 1.6433843134	 0.2154379146	-2.0048933114	-0.314366
H	 0.1853953124	 2.1278422628	-0.7139804109	 0.255204
H	-1.2698581226	 1.4810362707	-1.047511642	 0.240571
H	 0.8092356413	 0.3347990383	 0.6525118435	 0.153269
H	-0.3419178016	-2.413341603	-1.7815016632	 0.178395
H	 2.653179085	-0.4463683823	-3.768009355	 0.162094
53.3976	117.5392	165.3447	217.8341	265.6866	350.5057	404.5749	490.5193	581.6475	640.1599	680.6127	763.4515	807.6017	857.801	893.6567	921.3748	940.797	1010.3204	1096.2083	1122.3323	1138.791	1200.3039	1228.9722	1244.8021	1323.2403	1348.0578	1407.061	1557.9366	1617.603	1662.2593	2369.5089	3032.7637	3278.782	3304.2036	3483.7211	3565.2678
NC(C#N)C1=COC=N1	N[C@@H](C#N)c1cocn1	
InChI=1S/C5H5N3O/c6-1-4(7)5-2-9-3-8-5/h2-4H,7H2	InChI=1S/C5H5N3O/c6-1-4(7)5-2-9-3-8-5/h2-4H,7H2/t4-/m0/s1
