16
gdb 125397	2.42924	1.75437	1.03156	1.8566	75.15	-0.2466	-0.0598	0.1868	1117.9403	0.123075	-437.899023	-437.890553	-437.889609	-437.932154	30.918	
C	-0.0100045765	 1.5027274163	 0.0343751302	-0.480282
C	-0.0054061822	 0.0049652459	-0.0070888238	 0.092063
C	-0.0471133123	-0.7070131723	-1.1526793288	 0.041071
O	-0.0450073891	-2.0450251	-1.2414296934	-0.232542
N	 0.0029631596	-2.8321142626	-0.096646877	-0.130008
C	 0.0448440681	-2.2241417048	 1.0423129305	 0.249468
C	 0.0957907954	-3.0890006261	 2.2643296399	-0.456556
C	 0.0460047146	-0.748739027	 1.2316035708	 0.257947
O	 0.0874637004	-0.2526818402	 2.3499173972	-0.356285
H	 0.8854535043	 1.8734831248	 0.5435101242	 0.150042
H	-0.050686616	 1.934941899	-0.9686975648	 0.120433
H	-0.8663826265	 1.8662151954	 0.6114450721	 0.150039
H	-0.0876006974	-0.2676872692	-2.1448183323	 0.14593
H	 0.0894163324	-4.1439352385	 1.9890695805	 0.142105
H	 0.9942014562	-2.8573820904	 2.8444919887	 0.153283
H	-0.756791211	-2.8645394703	 2.912483736	 0.153291
90.7742	135.1162	143.7535	254.5832	259.8511	287.3743	296.0277	464.8381	469.2453	492.5141	515.8184	574.9256	661.7285	801.9865	860.5866	882.0514	922.8294	952.0981	1043.0839	1053.3142	1053.3202	1066.566	1179.3402	1286.3428	1333.2974	1405.2071	1416.5607	1434.7526	1461.004	1465.4862	1468.7716	1487.5694	1624.4773	1672.1518	1734.9552	3040.9874	3051.746	3099.3271	3110.4551	3124.039	3157.2798	3187.5202
CC1=CON=C(C)C1=O	Cc1conc(C)c1=O	
InChI=1S/C6H7NO2/c1-4-3-9-7-5(2)6(4)8/h3H,1-2H3	InChI=1S/C6H7NO2/c1-4-3-9-7-5(2)6(4)8/h3H,1-2H3
