15
gdb 9620	3.44409	1.4609	1.21709	3.5949	62.43	-0.2702	0.0277	0.2979	986.044	0.117566	-399.790779	-399.782492	-399.781548	-399.823453	30.13	
O	-0.1356532874	 1.4354027757	-0.2630015527	-0.433104
C	 0.0177014329	 0.0604223168	 0.0824714291	-0.159255
C	-1.3729753533	-0.5242915516	 0.0286328706	 0.446996
O	-2.2779692312	 0.1432440601	 0.8500270647	-0.472981
C	-1.8900507617	-1.1454985684	-1.2368544007	-0.333965
C	-1.5823771159	-2.0215803155	-0.0182915545	-0.243086
C	-0.4641615674	-2.9207516626	-0.0346902174	 0.293635
N	 0.4469979423	-3.634253162	-0.0498496401	-0.34715
H	 0.6486041962	 1.9121660768	 0.022503015	 0.299731
H	 0.6901183542	-0.4617515103	-0.6103448805	 0.114405
H	 0.4159241468	-0.0497877126	 1.1005599826	 0.114247
H	-2.1268663934	 1.0835530758	 0.6825317013	 0.295941
H	-2.9400285548	-1.0093826127	-1.4647856421	 0.136588
H	-1.2260116311	-1.2288393278	-2.0890925958	 0.139506
H	-2.4396309164	-2.3691547016	 0.5478372404	 0.14849
103.1656	116.3595	154.9894	252.6757	254.4456	329.302	359.2457	415.7775	446.6338	467.4737	549.5722	635.5072	741.5992	816.6518	903.668	921.4093	954.9933	1013.3498	1059.2638	1070.6511	1077.2102	1114.0703	1202.3076	1235.2342	1279.6984	1296.5195	1364.8816	1419.738	1457.6512	1494.0626	1509.22	2350.9077	3005.4165	3050.6167	3148.1724	3179.1842	3247.2772	3762.7873	3843.6388
OCC1(O)CC1C#N	OC[C@@]1(O)C[C@H]1C#N	
InChI=1S/C5H7NO2/c6-2-4-1-5(4,8)3-7/h4,7-8H,1,3H2	InChI=1S/C5H7NO2/c6-2-4-1-5(4,8)3-7/h4,7-8H,1,3H2/t4-,5-/m0/s1
