19
gdb 111615	2.88171	1.50183	1.4184	0.9683	74.3	-0.2264	0.0771	0.3035	1025.4972	0.159726	-422.967343	-422.959505	-422.958561	-422.999773	30.482	
C	 0.0447146781	 1.1305754434	-0.4374465975	-0.240616
O	-0.1513759044	 0.1341028621	 0.554669754	-0.231902
C	-1.3073519726	-0.6008019494	 0.338328624	 0.0837
C	-1.4192865295	-1.6458671077	-0.7477851902	 0.028786
O	-0.234405687	-2.1161274932	-1.3409578308	-0.258901
C	 0.4267725397	-3.0254462156	-0.4836135495	 0.096659
C	 1.194634846	-2.4870460723	 0.6902901956	-0.324674
C	-0.2317643188	-2.9849515831	 0.8709544745	-0.073801
C	-1.420938973	-2.0616139868	 0.7189526284	-0.15659
H	 0.9554160792	 1.6708782707	-0.1697343719	 0.1267
H	 0.1617977456	 0.6821524097	-1.43140132	 0.131799
H	-0.7960261335	 1.8397094768	-0.461354973	 0.106185
H	-2.2249324765	-0.026931131	 0.4995117868	 0.085179
H	-2.2788846209	-1.6808884907	-1.4112340043	 0.092711
H	 0.7395700234	-3.9329597884	-0.9903087251	 0.094798
H	 1.9749993999	-3.1306839988	 1.0848170084	 0.104198
H	 1.3837377346	-1.4267371627	 0.7512804736	 0.151215
H	-0.4019817561	-3.8875138045	 1.4452789684	 0.091196
H	-2.3305421541	-2.3636502284	 1.2247495085	 0.09336
84.4081	143.0307	179.6484	239.8493	278.1291	323.7201	439.2995	607.4723	672.6793	693.153	715.9123	736.4705	753.0482	793.1083	836.598	885.9864	962.1125	974.415	1005.0227	1031.9299	1055.3573	1075.7594	1093.2886	1094.7949	1099.4989	1110.7042	1124.0257	1168.03	1180.7855	1208.43	1215.8752	1272.3587	1300.8962	1342.3312	1357.1786	1379.5192	1424.1491	1468.8596	1486.039	1487.6293	1505.9698	2992.5787	3052.1808	3062.8264	3124.4784	3141.1004	3143.3816	3157.1388	3171.9246	3186.2343	3272.4426
COC1C2OC3CC3C12	CO[C@H]1[C@H]2O[C@H]3C[C@H]3[C@@H]12	
InChI=1S/C7H10O2/c1-8-6-5-3-2-4(3)9-7(5)6/h3-7H,2H2,1H3	InChI=1S/C7H10O2/c1-8-6-5-3-2-4(3)9-7(5)6/h3-7H,2H2,1H3/t3-,4+,5+,6-,7+/m1/s1
