15
gdb 5555	3.38173	1.89759	1.27908	1.902	64.49	-0.1908	0.0185	0.2093	914.1869	0.120215	-399.814512	-399.807012	-399.806068	-399.846293	28.141	
N	-0.084844322	 1.4052142086	-0.0945183151	-0.612666
C	-0.031900379	 0.0081820331	-0.0579610376	 0.152199
C	-1.0979784976	-0.8463496043	 0.0305926666	 0.252276
C	-2.5640311076	-0.5923662462	 0.0394568667	-0.187135
O	-2.9427234545	 0.372018527	-0.9502484638	-0.412993
O	-0.6485298284	-2.1436539671	 0.1151597123	-0.182387
C	 0.7019619121	-2.0965602564	 0.0830693571	-0.018372
C	 1.1435156687	-0.8151720529	-0.0233494606	-0.239744
H	 0.6675905797	 1.8195323834	-0.6281070998	 0.240875
H	-0.9809106809	 1.7328968216	-0.4358631568	 0.252189
H	-3.0972836253	-1.5452834239	-0.0876103153	 0.112675
H	-2.9020337247	-0.1531707622	 0.9859879109	 0.125612
H	-2.6295667717	 0.0374673736	-1.7982527011	 0.281885
H	 1.207952582	-3.0463720963	 0.1422431545	 0.131477
H	 2.1710304391	-0.487811128	-0.0682097582	 0.104108
85.6149	158.4871	217.4846	302.2825	329.8239	380.0111	415.4181	447.2302	608.9136	652.9823	694.1643	731.7497	745.73	791.5547	811.2537	904.2498	955.1135	1024.9734	1060.663	1081.4919	1154.8923	1194.4926	1247.7668	1275.8452	1324.3271	1365.5875	1416.0186	1487.7803	1501.4712	1535.1064	1648.5583	1681.7683	3006.3887	3048.9071	3246.9525	3279.5008	3529.3987	3625.5502	3798.6771
NC1=C(CO)OC=C1	Nc1c(CO)occ1	
InChI=1S/C5H7NO2/c6-4-1-2-8-5(4)3-7/h1-2,7H,3,6H2	InChI=1S/C5H7NO2/c6-4-1-2-8-5(4)3-7/h1-2,7H,3,6H2
