18
gdb 83550	3.30337	1.48713	1.30961	2.0941	71.19	-0.2359	0.0667	0.3026	1006.9832	0.149571	-439.021105	-439.013883	-439.012939	-439.05242	29.45	
O	 0.0787377612	 1.4878356281	 0.0505444177	-0.459095
C	 0.0379916294	 0.0957720184	 0.0520823918	 0.191316
C	-1.3412973983	-0.6617723039	-0.1182891398	-0.244618
C	-1.8300257444	-0.0118268565	-1.4181781908	-0.097129
O	-0.5861112685	 0.0306280128	-2.1752724882	-0.297817
C	 0.3339329165	-0.6391196321	-1.2825957136	-0.054527
C	-0.4814400807	-1.7924479688	-0.7089853826	 0.445348
C	-0.0661075923	-3.0661944952	-0.101561244	-0.34101
N	-0.8443691842	-3.0294965046	-1.3673514188	-0.391154
H	-0.060059206	 1.759836116	-0.8669280454	 0.294049
H	 0.6053129326	-0.2794009684	 0.9044457551	 0.097492
H	-2.0513444527	-0.8028447074	 0.6951821526	 0.076909
H	-2.5716085737	-0.61011258	-1.9581058582	 0.109324
H	-2.2144517007	 1.0037661927	-1.2777759186	 0.106479
H	 1.3112514637	-0.7272698652	-1.7519486274	 0.089481
H	 0.9536081118	-3.4262316206	-0.2090546004	 0.126179
H	-0.5661429821	-3.3874418298	 0.8091349014	 0.116502
H	-1.8192479717	-3.2599521753	-1.184939681	 0.23227
153.0122	242.0415	249.755	265.7594	305.5989	461.3114	476.5467	511.5594	580.02	686.2098	740.779	801.4586	818.5831	873.6951	897.1874	918.9825	939.7793	958.5691	971.909	986.7199	1002.5525	1063.2001	1074.7242	1102.4355	1121.0691	1146.7102	1176.0382	1192.1635	1218.1458	1249.0067	1258.4824	1267.9452	1282.2432	1311.2763	1364.1795	1432.5771	1452.2612	1519.6501	1529.4623	3037.3128	3081.4089	3102.9396	3116.171	3134.2045	3154.5767	3187.3153	3483.1496	3753.292
OC1C2COC1C21CN1	O[C@H]1[C@H]2CO[C@@H]1[C@]12CN1	
InChI=1S/C6H9NO2/c8-4-3-1-9-5(4)6(3)2-7-6/h3-5,7-8H,1-2H2	InChI=1S/C6H9NO2/c8-4-3-1-9-5(4)6(3)2-7-6/h3-5,7-8H,1-2H2/t3-,4+,5+,6-/m1/s1
