13
gdb 49888	3.69211	1.25049	0.93964	3.0286	61.76	-0.2701	-0.0394	0.2306	1125.5838	0.089981	-489.983848	-489.976204	-489.97526	-490.016641	27.027	
O	-0.1882615303	 0.0157954512	 0.0017430553	-0.257618
C	-0.0383775756	 1.2047246654	 0.0096950621	 0.167769
N	 1.1796850225	 1.880622283	 0.0022194773	-0.173559
C	 1.2686448559	 3.338287874	 0.0131461546	-0.321378
C	 2.7750370377	 3.6045416737	-0.0007900802	 0.437811
O	 3.3274418426	 4.6718536446	 0.0019565442	-0.335618
N	 3.3611302264	 2.3559588695	-0.0171658758	-0.409796
C	 2.4576879323	 1.2824692136	-0.0162355632	 0.519506
O	 2.7410782903	 0.1209541265	-0.0288068049	-0.340458
H	-0.8764900296	 1.9304650169	 0.0244807819	 0.092651
H	 0.8041054009	 3.7942392434	-0.8669602655	 0.166675
H	 0.8231133504	 3.7797509343	 0.9103035862	 0.166674
H	 4.3579342563	 2.2005932539	-0.0291559622	 0.287343
71.0498	141.5214	204.9848	205.9026	224.4513	371.4188	457.7547	558.1742	558.4185	624.6602	640.3897	753.0827	768.1637	824.3194	895.8641	1009.3308	1035.3036	1140.084	1203.1679	1212.6078	1259.5197	1327.3242	1354.2867	1384.1548	1453.5925	1490.4765	1818.3183	1868.0731	1916.1009	2931.6306	3052.5434	3096.6938	3643.5821
O=CN1CC(=O)NC1=O	O=CN1CC(=O)NC1=O	
InChI=1S/C4H4N2O3/c7-2-6-1-3(8)5-4(6)9/h2H,1H2,(H,5,8,9)	InChI=1S/C4H4N2O3/c7-2-6-1-3(8)5-4(6)9/h2H,1H2,(H,5,8,9)
