18
gdb 126843	2.96833	1.28791	0.97915	3.4763	75.26	-0.2155	0.0047	0.2202	1224.3907	0.147427	-435.28053	-435.271258	-435.270313	-435.315055	33.147	
C	-0.0604406344	 1.5393696434	-0.0038810846	-0.382455
C	 0.0728761156	 0.0154042984	 0.009520601	-0.144428
N	 0.662761121	-0.4892331659	 1.2397262044	 0.006853
N	 1.9840987345	-0.7121154177	 1.291335135	-0.169265
N	 2.2680838967	-1.1115943869	 2.5088963468	-0.289322
C	 1.1251198793	-1.1373620888	 3.2251744303	 0.292226
O	 1.0819483642	-1.5140333581	 4.521265728	-0.435539
C	 0.0618820957	-0.740516719	 2.4416701794	 0.230452
C	-1.3922883726	-0.6117002799	 2.7360374016	-0.516992
H	 0.9194310462	 2.0061017372	 0.125340506	 0.147525
H	-0.4798495086	 1.8684159012	-0.9592859932	 0.125883
H	-0.7186292745	 1.891132685	 0.7957825771	 0.129018
H	-0.9012390093	-0.4649994234	-0.1246568989	 0.122778
H	 0.7286537677	-0.3213537787	-0.7960248926	 0.146687
H	 1.9853431387	-1.7446898041	 4.7712120289	 0.305439
H	-1.7433282868	 0.4253026914	 2.6777756597	 0.137555
H	-2.00722941	-1.2075053697	 2.0513509394	 0.136032
H	-1.5818339834	-0.9693029546	 3.7504795017	 0.157552
53.0337	103.3247	112.9733	204.4529	222.8189	244.5765	306.5697	322.6201	364.853	432.2172	512.2926	596.3084	687.204	709.1347	734.3562	783.4782	805.6749	973.0745	977.434	1064.6607	1082.4258	1100.647	1151.5734	1181.5785	1230.1532	1276.3462	1329.8814	1367.0128	1387.6	1402.0182	1409.6271	1426.1283	1476.9871	1484.6564	1488.3748	1490.7347	1504.4103	1529.2095	1677.5677	3025.376	3046.2976	3062.2103	3072.8893	3110.8929	3123.7152	3128.4974	3136.1845	3799.0137
CCN1N=NC(O)=C1C	CCn1nnc(O)c1C	
InChI=1S/C5H9N3O/c1-3-8-4(2)5(9)6-7-8/h9H,3H2,1-2H3	InChI=1S/C5H9N3O/c1-3-8-4(2)5(9)6-7-8/h9H,3H2,1-2H3
