21
gdb 41170	3.0208	1.82344	1.52821	0.2758	85.89	-0.2235	0.0224	0.2459	958.9901	0.186776	-349.943394	-349.93681	-349.935866	-349.973724	29.322	
C	-0.0124327423	 1.5269902592	-0.2110852139	-0.264324
C	 1.5269664646	 1.5333214093	 0.0882357447	-0.344179
C	 1.3283299855	 0.2100238892	 0.8514653118	 0.354631
C	 0.7980254204	 0.2837321677	 2.3057579977	-0.248735
C	 0.1316651769	-1.1044812013	 2.2193947447	-0.062235
C	-0.8970857037	-0.8135049177	 1.0493578925	-0.261485
C	-0.0181018033	-0.0078112161	 0.0717017817	 0.037655
C	 1.310247097	-1.9113210378	 1.6761766025	-0.079584
C	 2.0573155801	-1.1095527064	 0.8997897838	-0.196933
H	-0.5787766679	 2.1030876354	 0.525123154	 0.103167
H	-0.3234846359	 1.8427423217	-1.2095471612	 0.094618
H	 2.108125049	 1.4005003628	-0.8296352109	 0.100456
H	 1.9389373458	 2.3812922373	 0.6421998081	 0.094138
H	 1.6080055445	 0.331758762	 3.0380808208	 0.091863
H	 0.0911943534	 1.099590101	 2.4859982505	 0.086019
H	-0.3332426499	-1.5009554951	 3.1232606696	 0.055101
H	-1.2984078398	-1.7284339971	 0.6071052146	 0.094177
H	-1.7400704353	-0.2359747142	 1.4428231944	 0.0968
H	 0.1547177354	-0.5464936482	-0.8629407523	 0.067903
H	 1.4474406523	-2.9741281207	 1.8341773758	 0.089468
H	 2.9090624934	-1.389611781	 0.2915614911	 0.091479
217.7446	283.6688	353.9227	360.2776	465.405	509.6633	538.2693	651.3204	661.8412	727.5699	769.4229	783.3679	807.5583	851.979	872.1992	883.4054	902.5824	912.058	934.7065	948.2529	963.7065	990.5159	1045.5947	1080.071	1086.1837	1092.5799	1142.9558	1152.5031	1172.935	1192.4911	1205.5178	1228.4128	1239.2155	1257.8123	1275.951	1283.8019	1300.1127	1311.7869	1361.3931	1372.9284	1480.4566	1485.3441	1493.1682	1507.4655	1612.4194	3047.7646	3048.4161	3052.6367	3064.7255	3069.5644	3095.9574	3101.5954	3101.7056	3107.8784	3120.0691	3189.6969	3214.6268
C1CC23CC(CC12)C=C3	C1C[C@@]23C[C@@H](C[C@@H]12)C=C3	
InChI=1S/C9H12/c1-3-9-4-2-8(9)5-7(1)6-9/h1,3,7-8H,2,4-6H2	InChI=1S/C9H12/c1-3-9-4-2-8(9)5-7(1)6-9/h1,3,7-8H,2,4-6H2/t7-,8-,9+/m1/s1
