16
gdb 123575	3.94884	1.68516	1.30541	3.7231	72.86	-0.2455	0.0142	0.2597	939.6529	0.129132	-396.94775	-396.941595	-396.940651	-396.978252	24.842	
C	-0.064221377	 1.4409823913	 0.1179723318	-0.297664
C	 1.2830033654	 0.7543192619	 0.0397336704	-0.047182
C	 2.0292787262	 0.4163286543	 1.3441787467	-0.374163
C	 1.0600200445	-0.501137813	 2.0335302137	 0.376309
N	 0.9084984484	-1.0952784687	 3.2022334845	-0.362051
C	-0.29801608	-1.7193124135	 3.0425678665	 0.015793
N	-0.9010736137	-1.5341536578	 1.8707498482	-0.277934
N	 0.0053125458	-0.7605750779	 1.237389084	 0.071457
C	-0.0008276663	-0.0590074339	-0.0121060785	-0.001846
H	-0.3987201246	 1.8469645161	 1.067089902	 0.135097
H	-0.3788669612	 2.003153667	-0.7545323305	 0.128242
H	 1.8679752371	 0.8921560136	-0.8605155287	 0.107555
H	 2.9813614607	-0.0848375915	 1.1391157906	 0.136603
H	 2.2532211294	 1.3030958977	 1.9449241183	 0.141524
H	-0.7449843897	-2.3322576782	 3.811319883	 0.123163
H	-0.3618686249	-0.5959270275	-0.8790577021	 0.125097
133.6139	235.8427	326.0152	426.7439	456.3793	612.9554	681.4641	704.4511	721.7971	775.6403	805.4976	812.7743	889.1775	897.2054	977.9896	991.053	996.2712	1055.2427	1071.9322	1082.4121	1099.4232	1159.7841	1181.7897	1194.3183	1202.1926	1275.4848	1283.8762	1287.3059	1353.859	1398.7188	1420.8912	1468.3254	1483.9452	1493.0847	1569.3371	3050.9507	3088.3273	3132.8257	3194.2029	3206.7354	3224.8012	3257.6753
C1C2CC3=NC=NN3C12	C1[C@H]2Cc3ncnn3[C@@H]12	
InChI=1S/C6H7N3/c1-4-2-6-7-3-8-9(6)5(1)4/h3-5H,1-2H2	InChI=1S/C6H7N3/c1-4-2-6-7-3-8-9(6)5(1)4/h3-5H,1-2H2/t4-,5-/m0/s1
