23
gdb 57623	2.97964	0.92151	0.88049	0.7243	91.84	-0.2542	0.0621	0.3162	1479.1761	0.203208	-351.114736	-351.104289	-351.103345	-351.149852	39.892	
C	-0.0914305281	 1.5557929711	-0.0840159419	-0.400625
C	 0.0141135663	 0.0179781	 0.028727641	 0.057477
C	 0.8877838974	-0.3542388711	 1.2495179563	-0.405627
C	-1.3958719874	-0.6428054945	 0.1317569875	-0.213452
C	-2.2373494773	-0.242437336	 1.3266538054	 0.01373
C	-3.1866289688	 0.9308714921	 1.2619759624	-0.25176
C	-3.728300065	-0.4754363413	 1.2905357728	-0.284284
C	 0.6567863754	-0.5037477138	-1.1837147631	 0.343761
C	 1.1746780597	-0.9366479284	-2.1791517213	-0.495284
H	 0.9017701924	 1.9997690956	-0.1963375129	 0.118574
H	-0.6893330358	 1.8441630714	-0.9533901769	 0.117268
H	-0.5596416528	 1.9732195495	 0.8110389783	 0.121642
H	 0.468904789	 0.0661154443	 2.1685632717	 0.114669
H	 0.9585288698	-1.4398746231	 1.364413643	 0.11995
H	 1.9007487396	 0.0393498888	 1.1287275393	 0.121869
H	-1.9482687669	-0.4135089321	-0.787632833	 0.098796
H	-1.252343235	-1.7304746941	 0.1375843845	 0.104897
H	-1.7726832007	-0.4149253335	 2.2931950783	 0.084488
H	-3.3083109927	 1.5493634211	 2.1446806162	 0.109654
H	-3.2523516049	 1.4779213006	 0.3273603919	 0.112351
H	-4.1541801921	-0.872168865	 0.3745011907	 0.111729
H	-4.2183719166	-0.8227558539	 2.1933081404	 0.110133
H	 1.6352788045	-1.3164159476	-3.0572460707	 0.190046
59.4027	109.2314	122.7259	182.0704	207.9203	256.1324	275.4926	307.9756	310.6113	368.3808	383.5518	448.947	552.8498	555.0917	624.9846	628.3019	720.4271	780.2193	809.3201	835.1818	878.4722	897.24	928.8515	946.8724	987.4764	997.752	1039.6731	1058.5781	1080.9649	1097.7753	1141.1171	1199.3265	1200.052	1221.4305	1228.7007	1236.0597	1300.7379	1345.9702	1393.9383	1414.5901	1419.4494	1469.355	1478.9507	1483.9082	1488.9805	1501.7544	1506.4961	1511.2131	2228.9062	3022.6999	3038.5945	3043.8496	3061.1243	3112.679	3113.5756	3116.8555	3124.2724	3128.6578	3133.3124	3148.1904	3206.204	3221.593	3502.8801
CC(C)(CC1CC1)C#C	CC(C)(CC1CC1)C#C	
InChI=1S/C9H14/c1-4-9(2,3)7-8-5-6-8/h1,8H,5-7H2,2-3H3	InChI=1S/C9H14/c1-4-9(2,3)7-8-5-6-8/h1,8H,5-7H2,2-3H3
