17
gdb 15061	3.14534	1.52784	1.15671	1.7245	69.33	-0.2472	0.0325	0.2797	1042.7296	0.141299	-363.790928	-363.782351	-363.781407	-363.824125	31.341	
O	 0.197552158	 1.3207603601	-0.1191434827	-0.421141
C	 0.0419922659	-0.0770815073	-0.0324672543	-0.05567
C	-1.4444482219	-0.5084578208	 0.0726938888	-0.192729
C	-2.1731749877	-0.025575203	-1.098194654	 0.28352
C	-2.715947784	 0.3822683994	-2.0923631206	-0.462696
C	-1.5537664368	-2.0207069698	 0.2623959113	 0.017225
C	-2.7767808376	-2.7768333778	-0.0908476226	-0.255157
N	-1.5404233143	-2.9447988264	-0.8793017939	-0.318192
H	-0.2723521327	 1.6132873139	-0.9089236345	 0.286543
H	 0.5057607222	-0.5994380964	-0.8827125943	 0.102948
H	 0.5628139028	-0.3906504057	 0.8774972393	 0.114796
H	-1.8558352581	-0.0169137672	 0.9652539814	 0.121229
H	-3.2226970765	 0.7452002641	-2.9529229065	 0.207792
H	-0.9630869538	-2.3729773454	 1.1064712344	 0.097409
H	-3.0673403324	-3.64149195	 0.4986691459	 0.118917
H	-3.5995380951	-2.2261386274	-0.5379025104	 0.121955
H	-1.6306290779	-2.4103841603	-1.7422475071	 0.233253
78.81	118.166	142.7454	184.7547	206.644	338.48	381.6007	395.9417	417.5743	560.4378	630.3775	634.8004	665.1708	783.8173	836.7927	859.0856	942.1086	982.0282	994.9567	1048.4725	1080.363	1097.7481	1126.8917	1151.0974	1193.7015	1207.8184	1265.9209	1277.408	1315.4079	1349.4422	1384.7169	1406.0883	1428.9273	1505.4892	1507.7581	2222.3932	2993.0833	3018.7446	3084.6849	3113.371	3120.7881	3201.2049	3479.3634	3498.1525	3789.9498
OCC(C#C)C1CN1	OC[C@@H](C#C)[C@H]1CN1	
InChI=1S/C6H9NO/c1-2-5(4-8)6-3-7-6/h1,5-8H,3-4H2	InChI=1S/C6H9NO/c1-2-5(4-8)6-3-7-6/h1,5-8H,3-4H2/t5-,6-/m1/s1
