17
gdb 15352	5.40519	1.00304	0.94614	4.67	69.59	-0.2628	0.0411	0.3039	1237.7961	0.141126	-363.851314	-363.842709	-363.841765	-363.88521	30.194	
C	-0.5715282855	 1.0323602733	 0.1092986726	-0.234576
O	 0.529075338	 0.1655604994	-0.0952785107	-0.237967
C	 0.9653071599	-0.4495509594	 1.0734414114	 0.104884
C	 0.2594795328	-1.6936748216	 1.5579635962	-0.314519
C	 1.6318680075	-1.7842024922	 0.9206360358	-0.043103
C	 1.7836493753	-2.3792377497	-0.4707266787	-0.358087
C	 1.7732758101	-3.8425542027	-0.4573976714	 0.264686
N	 1.76709038	-4.9979145236	-0.4362644416	-0.311073
H	-0.3156414866	 1.849675024	 0.7993779975	 0.112093
H	-0.8300116441	 1.4567758436	-0.8631483772	 0.132543
H	-1.4400567673	 0.4944370079	 0.5139607869	 0.114952
H	 1.3660010043	 0.2384617049	 1.8195095062	 0.093915
H	 0.1645528712	-1.8733038964	 2.6227072864	 0.122298
H	-0.578966708	-2.0388352436	 0.9617241256	 0.127997
H	 2.4650742395	-1.9862463803	 1.5859635882	 0.108793
H	 0.9773262035	-2.0194629001	-1.1160696051	 0.163704
H	 2.7208366194	-2.0429942434	-0.9295254221	 0.15346
47.6526	107.7052	116.1654	187.9168	196.6319	283.3794	345.191	392.1231	459.0691	524.5675	596.5381	776.8673	825.7264	884.8254	887.175	946.9278	1016.4259	1022.6213	1058.6563	1092.1709	1128.9259	1146.0115	1169.9671	1182.9169	1221.6999	1247.3685	1260.6797	1318.1237	1379.3618	1415.4005	1463.9459	1475.6412	1486.0076	1492.3165	1508.1281	2362.1578	2990.1668	3043.9067	3048.9414	3088.9351	3099.9952	3124.9536	3135.7979	3162.3572	3225.2881
COC1CC1CC#N	CO[C@H]1C[C@H]1CC#N	
InChI=1S/C6H9NO/c1-8-6-4-5(6)2-3-7/h5-6H,2,4H2,1H3	InChI=1S/C6H9NO/c1-8-6-4-5(6)2-3-7/h5-6H,2,4H2,1H3/t5-,6+/m1/s1
