19
gdb 61645	3.67151	0.77058	0.72284	2.4134	73.18	-0.2616	-0.0435	0.2181	1587.594	0.155999	-460.151063	-460.141218	-460.140273	-460.187009	34.926	
C	-0.6779261148	 1.1302433966	 0.5935577763	-0.422726
C	 0.0972184584	-0.0847445271	 0.1509566173	 0.082586
O	 1.3259890581	 0.1360046888	-0.5531578472	-0.26776
C	 1.3862761165	-0.5308709793	 0.7108258404	 0.066379
C	 2.1319491287	 0.1705926846	 1.8230644816	-0.263216
C	 1.8471346965	-0.4852912488	 3.1895683699	 0.049824
O	 2.2063629434	-1.840044348	 3.1934516481	-0.434393
C	 2.5790687162	 0.2563281951	 4.289626046	 0.138732
O	 3.3594655227	-0.3030762971	 5.021108968	-0.257165
H	-0.0359271931	 1.8860568164	 1.0505264727	 0.123819
H	-1.1733361519	 1.5912980931	-0.2673158793	 0.134802
H	-1.4555147352	 0.8472410374	 1.3116538588	 0.122491
H	-0.5220795287	-0.8635120241	-0.3000178802	 0.091387
H	 1.6148533188	-1.5943129601	 0.6418095031	 0.112134
H	 3.2082140893	 0.1051249117	 1.6221971907	 0.123068
H	 1.8681518775	 1.2321918837	 1.853603912	 0.106136
H	 0.7675598686	-0.3764951242	 3.4041263014	 0.097143
H	 2.8455540284	-1.9395574137	 3.9170458213	 0.29631
H	 2.3629700407	 1.340164485	 4.3835944992	 0.100448
44.9185	57.9576	99.959	146.204	185.5354	256.8943	300.0788	338.3904	344.8369	403.9642	440.4941	506.8687	533.8697	748.1876	775.304	797.0083	843.9224	904.5967	948.4223	990.9045	994.1482	1038.6558	1104.2483	1111.292	1156.1972	1177.292	1189.03	1237.2804	1253.2367	1299.609	1315.3649	1359.161	1391.3281	1403.834	1418.9183	1439.1869	1469.8418	1470.9658	1493.6287	1512.3372	1814.0388	2926.0551	2943.9371	3037.3298	3040.4015	3080.2778	3090.8543	3099.0516	3119.8061	3132.4533	3687.5962
CC1OC1CC(O)C=O	C[C@H]1O[C@H]1C[C@@H](O)C=O	
InChI=1S/C6H10O3/c1-4-6(9-4)2-5(8)3-7/h3-6,8H,2H2,1H3	InChI=1S/C6H10O3/c1-4-6(9-4)2-5(8)3-7/h3-6,8H,2H2,1H3/t4-,5-,6+/m1/s1
