14
gdb 49831	1.96758	1.73238	1.12296	4.7906	68.27	-0.2662	-0.0588	0.2074	1067.3915	0.100439	-432.870004	-432.861783	-432.860839	-432.903503	29.181	
N	-0.1587359408	 1.2759749533	-0.3809752426	-0.516428
C	-0.0204684614	 0.057586728	-0.1139526139	 0.401826
N	 1.0275208399	-0.8358368392	 0.14471956	-0.328601
C	 0.1386683505	-1.9148918495	 0.5793364765	-0.080371
C	 0.1639926153	-2.1852914051	 2.0724332856	 0.156733
O	 0.9731675762	-1.6776755391	 2.8039385333	-0.235754
C	-1.075497385	-1.0622365238	 0.0455867285	-0.27314
C	-2.1805612355	-0.8189076406	 0.9534156709	 0.306346
N	-3.0545804508	-0.6512396697	 1.6905773618	-0.319528
H	 0.7312401273	 1.7759759884	-0.3966105584	 0.230409
H	 1.838596838	-0.5885278611	 0.699869845	 0.261393
H	 0.2771694967	-2.8649944023	 0.0477500907	 0.122979
H	-0.5950903523	-2.906749156	 2.438405713	 0.113799
H	-1.4516767482	-1.4216660634	-0.9148936605	 0.160335
78.0939	86.8578	137.3418	186.3821	251.8466	340.4713	401.7848	463.0884	492.9537	582.1684	649.5497	693.2226	743.0386	819.3326	847.1914	881.0023	964.5904	1020.9806	1041.0477	1084.6509	1121.7484	1151.4738	1210.9718	1289.8456	1313.6332	1329.3437	1381.2973	1411.4649	1814.3316	1828.1912	2363.0633	2930.6777	3033.4123	3097.115	3478.201	3567.4005
N=C1NC(C=O)C1C#N	[NH][C]1N[C@@H](C=O)[C@H]1C#N	
InChI=1S/C5H5N3O/c6-1-3-4(2-9)8-5(3)7/h2-4H,(H2,7,8)	InChI=1S/C5H5N3O/c6-1-3-4(2-9)8-5(3)7/h2-4H,(H2,7,8)/t3-,4+/m1/s1
