15
gdb 56451	2.63195	1.23889	0.92745	2.5667	67.29	-0.2828	-0.0671	0.2157	1215.7398	0.111721	-453.934155	-453.925413	-453.924469	-453.968526	30.787	
O	 0.3391637222	 1.5109363725	-0.0032861802	-0.406895
C	 0.0315683403	 0.1544451316	-0.0009910949	-0.080033
C	 0.2450735538	-0.4688049893	-1.3241218356	 0.261218
N	 0.4108632691	-0.9767054234	-2.3484563456	-0.312385
C	 0.8834827935	-0.5949354789	 1.05535024	 0.366539
O	 1.6665789843	 0.0566489843	 1.7144329819	-0.344059
C	 0.6884176628	-2.0512648139	 1.2216596072	-0.104352
C	 1.9399482879	-2.885239907	 1.2840950446	-0.209749
N	 1.1475682937	-2.6642648347	 2.4790653204	-0.297394
H	 1.0836416237	 1.6037567361	 0.6166155407	 0.306949
H	-1.0269262393	-0.001693393	 0.264875938	 0.149948
H	-0.206469734	-2.4799782386	 0.7820572288	 0.122803
H	 1.898778812	-3.8868910475	 0.867977098	 0.146709
H	 2.8850791703	-2.361815846	 1.173198846	 0.144762
H	 1.5828187898	-1.9304931423	 3.0384197705	 0.255942
58.8758	67.6639	131.0734	208.3587	239.1412	278.6304	336.6525	378.0228	438.8744	461.4168	590.043	636.5828	758.2563	832.5918	857.404	881.7775	961.584	970.7004	1007.0343	1071.783	1119.6302	1133.534	1158.8259	1180.7317	1238.8185	1286.3963	1312.6771	1343.1103	1408.9229	1430.4598	1499.087	1785.6292	2356.2079	2981.812	3121.753	3168.9165	3218.418	3476.2315	3652.295
OC(C#N)C(=O)C1CN1	O[C@@H](C#N)C(=O)[C@H]1CN1	
InChI=1S/C5H6N2O2/c6-1-4(8)5(9)3-2-7-3/h3-4,7-8H,2H2	InChI=1S/C5H6N2O2/c6-1-4(8)5(9)3-2-7-3/h3-4,7-8H,2H2/t3-,4+/m1/s1
