17
gdb 43399	2.60985	1.78777	1.19135	4.9346	76.91	-0.2204	-0.0354	0.185	1021.9107	0.139142	-418.020456	-418.01296	-418.012016	-418.052281	29.3	
O	 0.1132307236	-0.0448894291	 0.0204225796	-0.385342
C	 0.021468694	 1.1758569203	 0.0209147902	 0.324787
C	-1.2209236077	 1.9190518952	 0.0558449476	-0.237497
C	-1.2143008016	 3.2782776563	 0.1093420408	 0.028066
N	-0.0920992075	 4.0403970973	 0.0344092821	-0.297593
C	 1.1319139944	 3.4335772815	-0.4838403061	-0.25786
C	 1.2781634431	 2.0260910146	 0.0536125359	 0.224646
C	 2.249544017	 1.6834033144	 1.135724147	-0.261438
N	 2.5359970602	 1.3537354984	-0.262541796	-0.356841
H	-2.1505626602	 1.3707613341	 0.1301543207	 0.104209
H	-2.138166125	 3.8351347945	 0.2391309912	 0.124892
H	-0.2150981886	 5.0266633096	-0.126586478	 0.255303
H	 1.0968268958	 3.3896514582	-1.5847206057	 0.118382
H	 1.9915575457	 4.046369144	-0.2020238992	 0.124219
H	 2.8639950246	 2.4714556147	 1.5642861374	 0.113925
H	 1.9776390196	 0.8777008155	 1.8113640536	 0.130942
H	 2.2991100525	 0.3706296105	-0.4131095512	 0.247199
105.4678	169.3457	264.1373	299.2809	332.8687	386.9673	423.1127	485.4919	541.1042	565.9511	665.9899	742.0897	825.1587	836.5094	856.3695	938.6172	956.031	981.1649	985.0776	1005.4244	1050.5146	1088.3929	1112.4657	1138.0061	1206.4476	1233.6363	1270.4807	1302.427	1335.7643	1364.2262	1396.7194	1435.1186	1490.9989	1500.5953	1536.5144	1657.4617	1737.7673	2974.0346	3093.6351	3105.5061	3173.778	3200.4295	3223.9392	3441.5409	3639.8039
O=C1C=CNCC11CN1	O=C1C=CNC[C@]21CN2	
InChI=1S/C6H8N2O/c9-5-1-2-7-3-6(5)4-8-6/h1-2,7-8H,3-4H2	InChI=1S/C6H8N2O/c9-5-1-2-7-3-6(5)4-8-6/h1-2,7-8H,3-4H2/t6-/m1/s1
