24
gdb 6801	5.79142	0.67907	0.63654	0.9504	83.65	-0.2453	0.088	0.3333	1881.6635	0.220692	-351.41633	-351.405407	-351.404463	-351.453342	38.305	
C	 0.0631076558	 1.561506584	-0.0156598142	-0.37857
C	-0.0766307724	 0.04055368	 0.0913251573	-0.165323
C	 0.7925095103	-0.5619561531	 1.1995039846	-0.173615
C	 0.6483216323	-2.0746187454	 1.3102254381	-0.05924
O	 1.4763750863	-2.5269787508	 2.3607365365	-0.259632
C	 1.580878407	-3.939229963	 2.4944870257	 0.16306
C	 2.8079158377	-4.1985126685	 3.3624334644	-0.386442
C	 0.3135618845	-4.5568984565	 3.0952072413	-0.392251
H	 1.0976559694	 1.849355027	-0.2328454904	 0.114866
H	-0.5694167409	 1.9659785872	-0.8120371519	 0.110295
H	-0.2251156627	 2.0515065031	 0.920888592	 0.114908
H	-1.1287323181	-0.2175369029	 0.2716683417	 0.095105
H	 0.1867762934	-0.4189357082	-0.8707056051	 0.094861
H	 1.8485417333	-0.3226472172	 1.0237678996	 0.100752
H	 0.530325221	-0.1155764471	 2.1667850963	 0.102333
H	-0.4073339425	-2.335602821	 1.4905872201	 0.083413
H	 0.939562497	-2.5573773125	 0.3605997522	 0.078883
H	 1.749234746	-4.3780880362	 1.4953764682	 0.059719
H	 2.6682367799	-3.759796973	 4.3556985832	 0.121329
H	 2.9809797569	-5.2724103595	 3.4799280597	 0.109327
H	 3.6956446098	-3.7468839988	 2.9120293716	 0.11871
H	-0.5621351035	-4.3883563452	 2.4620595823	 0.115148
H	 0.4341255542	-5.6387772812	 3.2113804292	 0.112146
H	 0.1135326754	-4.1232814912	 4.0805626673	 0.120215
33.5279	59.7207	101.8438	116.9642	140.8969	208.2719	236.59	247.7675	265.1416	287.4318	388.787	413.3261	481.9866	519.2276	742.9643	812.3528	828.0313	904.8912	925.1629	936.4772	947.5451	953.1678	1027.2145	1071.8784	1111.5637	1132.1008	1155.0592	1176.825	1192.74	1204.2365	1251.1859	1293.3041	1311.0862	1323.4194	1363.4767	1370.3246	1390.5064	1396.1847	1411.8755	1413.0133	1440.4064	1480.4746	1485.3862	1487.4251	1495.0713	1496.0028	1499.3539	1508.76	1511.6387	1529.4757	2943.3846	2951.3645	2978.7529	3012.2926	3027.9765	3032.1064	3036.329	3037.8247	3042.0653	3072.45	3097.826	3101.9809	3106.2776	3112.7404	3115.4079	3121.9544
CCCCOC(C)C	CCCCOC(C)C	
InChI=1S/C7H16O/c1-4-5-6-8-7(2)3/h7H,4-6H2,1-3H3	InChI=1S/C7H16O/c1-4-5-6-8-7(2)3/h7H,4-6H2,1-3H3
