16
gdb 19531	3.68497	1.86072	1.7393	1.6878	60.08	-0.2232	0.072	0.2952	823.1856	0.130409	-420.824284	-420.816949	-420.816005	-420.856149	26.458	
C	 0.1678463938	 0.8338802967	-0.4071882104	-0.237672
O	-0.4712002426	-0.0725662738	 0.4801467493	-0.236615
C	 0.3975476191	-0.6072113335	 1.41508722	 0.042333
C	 0.1697567592	-2.020049747	 1.9116579196	 0.009127
O	-0.6696224071	-2.8684131414	 1.181229693	-0.254069
C	-0.2109706728	-2.8835731696	-0.160200561	 0.0375
O	 1.1244926431	-2.3928638283	-0.1762556926	-0.262747
C	 1.3591599254	-1.7303835955	 1.0386231822	-0.001427
H	 0.9679035951	 0.3391199972	-0.971562865	 0.12854
H	-0.5976625339	 1.1939816399	-1.0979088099	 0.130062
H	 0.5907990646	 1.692100765	 0.1350755338	 0.108681
H	 0.7742046525	 0.0947083709	 2.1651371393	 0.088629
H	 0.1937611463	-2.2628108907	 2.9667402596	 0.114847
H	-0.2213511771	-3.9151527393	-0.5326925988	 0.111695
H	-0.8486768727	-2.2388225614	-0.7763909643	 0.11149
H	 2.3999234072	-1.750495279	 1.3385553952	 0.109625
92.9152	150.9843	175.8232	195.8811	250.433	324.1315	597.8018	651.6238	721.959	763.1563	779.4923	782.54	935.5308	947.72	1010.6611	1050.4339	1080.8265	1100.6549	1102.517	1125.0817	1151.8495	1160.0475	1182.2838	1213.7754	1216.888	1257.184	1302.6142	1342.439	1419.5675	1443.2777	1482.6434	1488.1604	1505.4884	1542.1894	2994.8228	3017.1477	3055.6858	3061.3408	3062.6834	3125.4611	3183.3887	3193.7192
COC1C2OCOC12	CO[C@H]1[C@H]2OCO[C@@H]12	
InChI=1S/C5H8O3/c1-6-3-4-5(3)8-2-7-4/h3-5H,2H2,1H3	InChI=1S/C5H8O3/c1-6-3-4-5(3)8-2-7-4/h3-5H,2H2,1H3/t3-,4+,5-
