23
gdb 94611	3.53356	0.92714	0.82483	0.9296	86.63	-0.2394	0.0866	0.3259	1509.802	0.205007	-388.259861	-388.250343	-388.249399	-388.295038	35.871	
C	 0.3345161729	 1.7187047652	-0.1113972068	-0.381541
C	-0.0060147929	 0.2412340241	 0.0682303949	-0.032402
C	 0.9065564498	-0.7263090445	-0.7470895784	-0.229691
C	 1.7588348178	-0.9677202766	 0.5303126002	-0.254872
C	 0.5715194291	-0.4022043192	 1.3571681972	 0.165553
O	 0.8323478925	 0.5028363544	 2.4046283604	-0.259149
C	 1.3369748256	-0.0995054359	 3.5559846223	 0.140344
C	 1.057858418	 0.5986866871	 4.8459925667	-0.287565
C	 0.3773158953	-0.7221960451	 4.5392916628	-0.286664
H	 1.408670394	 1.902920057	-0.0114119507	 0.11641
H	 0.0249608477	 2.0596439053	-1.1051807611	 0.105949
H	-0.1727104632	 2.3330862898	 0.6375532057	 0.123107
H	-1.0822451259	 0.0958852156	-0.06601638	 0.064578
H	 0.3784985464	-1.6271633446	-1.0703880269	 0.099269
H	 1.4197546541	-0.2973172229	-1.6112466944	 0.09791
H	 2.0914913708	-1.9869639546	 0.7398107991	 0.093282
H	 2.620162637	-0.2958561441	 0.5792776158	 0.108632
H	-0.0726005796	-1.2166212338	 1.7187737905	 0.065014
H	 2.3099092031	-0.5742263915	 3.4279685493	 0.085628
H	 1.8357779759	 0.6265538477	 5.6005300403	 0.112059
H	 0.4478150031	 1.4926379841	 4.7855747223	 0.124448
H	-0.6764132351	-0.6828564398	 4.2867601131	 0.118751
H	 0.6843251937	-1.6096555176	 5.0818672378	 0.110951
44.2466	72.6822	117.0563	145.0039	226.7858	234.5032	325.623	349.6254	426.9845	451.2328	534.8037	677.4167	756.9804	767.0318	810.4653	825.1745	840.0349	883.9778	917.0169	945.9004	954.1174	982.6821	992.6593	1024.1012	1049.962	1071.3363	1082.3732	1114.8129	1130.3534	1166.8021	1174.3951	1193.562	1196.2797	1214.6352	1241.2408	1247.6962	1261.7196	1285.2083	1301.3821	1365.2122	1369.8548	1406.9607	1417.82	1452.5755	1478.7216	1494.0374	1494.4327	1497.851	1500.9628	2994.2004	3036.0369	3049.6838	3057.7911	3064.7369	3098.0961	3102.6064	3103.4201	3114.3309	3121.2312	3134.5524	3141.5715	3219.0635	3234.1085
CC1CCC1OC1CC1	C[C@H]1CC[C@H]1OC1CC1	
InChI=1S/C8H14O/c1-6-2-5-8(6)9-7-3-4-7/h6-8H,2-5H2,1H3	InChI=1S/C8H14O/c1-6-2-5-8(6)9-7-3-4-7/h6-8H,2-5H2,1H3/t6-,8+/m0/s1
