18
gdb 106349	4.85086	0.93569	0.90226	1.1281	74.02	-0.2552	-0.0418	0.2134	1301.7388	0.147012	-439.016252	-439.007659	-439.006715	-439.050016	31.805	
O	-0.1138447385	 1.402344757	-0.0749051805	-0.415378
C	-0.029674167	-0.0054930816	 0.0223090799	-0.182508
C	-1.3974641411	-0.6257567227	-0.027254069	 0.307648
C	-2.4909959922	-0.445671143	-1.1147123111	-0.260487
C	-3.1266760725	-1.2006244023	 0.094134904	 0.245304
C	-1.8645477385	-2.0992706849	 0.1513191413	-0.326671
N	-2.4569328954	-0.1554308584	 0.9806650657	-0.402013
C	-4.5653934432	-1.5643465657	 0.2591003461	 0.032579
O	-4.9934614193	-2.6846023327	 0.1432177905	-0.24298
H	-0.8508455028	 1.6715563432	 0.4880209822	 0.294671
H	 0.5772537883	-0.3556824686	-0.8201731833	 0.117042
H	 0.4799583692	-0.322720746	 0.9487647679	 0.089003
H	-2.8413117024	 0.5741327377	-1.2685017147	 0.119255
H	-2.3771219641	-1.0134429013	-2.0383166051	 0.111861
H	-1.6965120763	-2.7964996049	-0.673199758	 0.111261
H	-1.6542076528	-2.5585781287	 1.1212327883	 0.102932
H	-2.2573040052	-0.5853947045	 1.8910711359	 0.209512
H	-5.227316826	-0.6994570129	 0.4891856698	 0.088969
62.9842	99.2297	128.442	198.1548	224.8101	341.376	398.9408	430.7255	457.8994	542.7455	598.616	668.9073	708.0055	745.3078	852.5094	897.4933	937.134	974.5367	999.1351	1046.7771	1056.3962	1059.5897	1101.3644	1114.3079	1139.7575	1152.0426	1154.9203	1220.2089	1246.6898	1281.3146	1293.6496	1352.4282	1367.2803	1409.1593	1442.8232	1480.9275	1501.627	1530.7067	1822.3842	2885.425	2956.451	3052.9186	3065.6455	3091.391	3122.9163	3173.2756	3367.4833	3773.995
OCC12CC(C1)(N2)C=O	OC[C@@]12C[C@@](C1)(N2)C=O	
InChI=1S/C6H9NO2/c8-3-5-1-6(2-5,4-9)7-5/h3,7,9H,1-2,4H2	InChI=1S/C6H9NO2/c8-3-5-1-6(2-5,4-9)7-5/h3,7,9H,1-2,4H2/t5-,6+
