19
gdb 90591	2.51547	1.51737	1.16683	1.4559	74.97	-0.239	-0.0214	0.2176	1098.4711	0.158716	-423.014688	-423.006112	-423.005168	-423.047951	32.797	
C	 0.4735766978	 1.579582942	 0.4124975947	-0.430114
C	 0.1504336238	 0.132201794	 0.0439381626	-0.113301
C	 0.7756808266	-0.6198995313	-1.1834198217	-0.106754
C	 2.2295622373	-0.3113414659	-1.6228396287	 0.161961
O	 2.6770601079	 0.999703561	-1.8421973992	-0.429909
C	 2.784483986	-1.162692272	-0.4452178919	-0.296859
C	 1.3378447441	-1.7267518745	-0.202581923	-0.157768
C	 0.6755235593	-0.9954152876	 0.9596477678	 0.400081
O	 0.5886724076	-1.1997748045	 2.1368336092	-0.308517
H	 1.5288830527	 1.7167459312	 0.6759799179	 0.112351
H	 0.2253894374	 2.2663921235	-0.4019915256	 0.134755
H	-0.1018611809	 1.875044764	 1.2946435693	 0.139978
H	-0.9406501408	 0.0232978353	-0.0163672983	 0.115091
H	 0.0627451198	-0.8376893151	-1.9786015181	 0.074854
H	 2.4186325529	-0.8347036652	-2.5655247195	 0.098965
H	 2.5506643973	 1.5082093888	-1.0362406221	 0.281702
H	 3.5399377542	-1.9058149946	-0.7060456474	 0.119209
H	 3.1668227836	-0.5715680146	 0.3925131662	 0.112105
H	 1.2009302732	-2.8010278145	-0.3167127622	 0.092169
58.7244	156.9901	187.0584	212.4941	266.6998	298.9379	338.2642	396.6994	443.6599	546.6971	592.7261	651.5441	716.816	764.155	787.6016	830.5201	894.5537	909.1986	968.073	1011.9015	1027.8974	1060.8713	1086.9837	1104.1753	1117.396	1137.066	1164.0905	1179.0599	1212.2893	1237.4735	1257.0844	1283.4566	1308.3195	1328.157	1335.6821	1406.8731	1440.8457	1484.9012	1494.3786	1512.653	1881.6819	3023.3616	3030.2108	3056.0581	3061.1507	3093.0339	3107.4667	3115.4948	3116.6013	3131.6123	3838.8472
CC1C2C(O)CC2C1=O	C[C@H]1[C@H]2[C@@H](O)C[C@H]2C1=O	
InChI=1S/C7H10O2/c1-3-6-4(7(3)9)2-5(6)8/h3-6,8H,2H2,1H3	InChI=1S/C7H10O2/c1-3-6-4(7(3)9)2-5(6)8/h3-6,8H,2H2,1H3/t3-,4+,5-,6+/m0/s1
