17
gdb 85396	1.92951	1.70134	0.93383	1.2614	72.13	-0.2573	-0.0158	0.2415	1195.2876	0.137668	-455.202515	-455.194328	-455.193384	-455.235469	31.126	
O	-0.0741344645	 1.4362443793	 0.012407653	-0.431851
C	 0.0385050172	 0.0237129294	 0.0036982659	 0.093678
C	-1.3769065728	-0.5345822184	 0.1136577703	-0.248714
C	-1.4084238039	-2.0418422358	 0.0472199735	 0.372924
N	-2.2836084354	-2.6968790585	 0.6985525211	-0.507732
N	-0.4367051512	-2.618987376	-0.7796252306	-0.365597
C	 0.621258035	-2.0002075348	-1.4333225808	 0.392852
O	 1.4147066203	-2.650648533	-2.0763833539	-0.346698
C	 0.6871314372	-0.4900789883	-1.2863012145	-0.342902
H	 0.8123243323	 1.8116908052	 0.0073193121	 0.287271
H	 0.6289116205	-0.3207497938	 0.8682192591	 0.085061
H	-1.8603808824	-0.2225847898	 1.0393251702	 0.145732
H	-1.9665620635	-0.1278728388	-0.7185010026	 0.134777
H	-2.2033006301	-3.7037605713	 0.5387503677	 0.20785
H	-0.44496443	-3.6261002835	-0.8851593795	 0.251881
H	 0.1606650782	-0.0419250377	-2.138849833	 0.143473
H	 1.7390407231	-0.2039141242	-1.3690413681	 0.127994
97.9351	122.9772	155.5073	281.998	309.5795	355.661	422.7429	428.664	478.6329	554.1591	571.0232	604.819	626.744	701.0733	865.9795	884.3516	892.2816	933.8106	941.1595	1056.5301	1086.5326	1099.4951	1139.586	1144.8182	1222.0709	1268.3984	1297.2823	1300.7969	1322.5459	1382.6612	1399.0459	1420.8956	1440.0848	1462.9321	1482.3533	1735.4631	1809.3453	2971.3623	3035.745	3041.7407	3103.6771	3138.9508	3441.7663	3578.2107	3817.9592
OC1CC(=N)NC(=O)C1	O[C@H]1C[C]([NH])NC(=O)C1	
InChI=1S/C5H8N2O2/c6-4-1-3(8)2-5(9)7-4/h3,8H,1-2H2,(H2,6,7,9)	InChI=1S/C5H8N2O2/c6-4-1-3(8)2-5(9)7-4/h3,8H,1-2H2,(H2,6,7,9)/t3-/m0/s1
