16
gdb 57029	2.20644	1.47678	1.25488	3.6932	68.83	-0.2643	0.01	0.2743	1068.2394	0.125476	-434.0903	-434.081588	-434.080644	-434.124053	31.394	
N	 0.1505081971	 1.5146762721	 0.05731929	-0.505434
C	-0.0053585913	 0.0659202205	-0.0395067765	-0.139609
C	 0.5183357819	-0.5145533947	-1.3005897701	 0.264597
N	 0.9168081607	-0.9435914875	-2.2978692574	-0.333529
C	 0.6748725919	-0.5637428914	 1.1837349115	-0.143462
C	 0.9449454133	-2.0964753968	 1.2305577604	-0.197401
N	 2.3736713578	-1.7704967121	 1.3400543246	-0.316767
C	 2.2204477699	-0.4170704717	 1.2033098659	 0.440787
O	 2.9882011011	 0.5038948277	 1.0963894076	-0.364358
H	 1.1407515817	 1.7421565584	 0.1170790846	 0.266263
H	-0.2263362335	 1.9718815754	-0.7664198643	 0.244816
H	-1.0768795099	-0.1696130109	-0.0114641186	 0.134111
H	 0.2005664814	-0.1608379772	 2.0800854656	 0.129467
H	 0.5362347171	-2.6187826493	 2.0996752548	 0.121866
H	 0.6840422389	-2.6327781576	 0.3134891705	 0.138123
H	 3.197293912	-2.3502463147	 1.2709693615	 0.26053
73.5431	101.2007	135.6715	176.7823	252.61	290.0312	347.1412	383.8709	446.402	498.9853	582.9669	596.4858	749.6392	770.3992	776.8575	869.8356	919.8722	927.88	989.353	1068.0679	1083.4573	1131.5168	1163.3736	1175.0543	1189.717	1231.3864	1302.791	1304.82	1356.0668	1391.027	1402.3436	1521.7336	1662.4721	1883.4765	2342.1347	3030.5779	3053.046	3101.5328	3114.3238	3487.0335	3579.4989	3612.456
NC(C#N)C1CNC1=O	N[C@@H](C#N)[C@H]1CNC1=O	
InChI=1S/C5H7N3O/c6-1-4(7)3-2-8-5(3)9/h3-4H,2,7H2,(H,8,9)	InChI=1S/C5H7N3O/c6-1-4(7)3-2-8-5(3)9/h3-4H,2,7H2,(H,8,9)/t3-,4+/m1/s1
