20
gdb 7011	2.38706	1.96218	1.52573	2.2769	71.02	-0.2396	0.0677	0.3073	972.0963	0.174217	-386.135933	-386.126622	-386.125678	-386.169143	34.858	
C	-1.0370462184	 1.0464287759	-1.0972431173	-0.419312
C	-0.051682249	-0.0524646439	-0.7598136327	 0.132446
O	 1.2817034966	 0.2210173222	-1.2492587127	-0.322046
C	 1.8778404424	-0.3173344627	-0.0454447752	 0.154472
C	 3.073456651	 0.47883513	 0.4305930311	-0.420701
C	 0.5087083109	-0.2748488271	 0.6809293527	 0.285641
C	 0.2969164937	 0.8630017289	 1.6680169881	-0.460536
O	 0.2108271999	-1.5256770051	 1.2703940653	-0.472849
H	-0.7108374041	 2.0161522794	-0.7123713795	 0.118589
H	-1.1381719193	 1.1321739825	-2.1838944088	 0.13053
H	-2.0265953817	 0.8178779398	-0.6861240164	 0.111984
H	-0.4122760068	-1.0176608998	-1.1473106764	 0.070429
H	 2.1606341854	-1.3700461042	-0.194356647	 0.078852
H	 2.8205819982	 1.5288444597	 0.5997535409	 0.116944
H	 3.4695279484	 0.0550737626	 1.3594349375	 0.121288
H	 3.8664022364	 0.4398410437	-0.3228952175	 0.129078
H	 0.5754176691	 1.8303425512	 1.2436966837	 0.133129
H	-0.7578849051	 0.9260452129	 1.963555933	 0.108964
H	 0.8940765878	 0.6963435991	 2.5695570967	 0.12668
H	-0.5979331755	-1.435835625	 1.7852464046	 0.276418
76.4856	197.7276	204.0114	220.3132	239.0003	245.7422	253.5738	306.2836	334.7753	392.8563	468.0065	493.7464	512.9802	649.6033	735.3245	842.0904	872.4166	905.3401	950.4816	1001.2306	1046.408	1070.2352	1083.9009	1127.9461	1142.2438	1167.9235	1196.814	1218.5475	1268.7251	1332.8659	1364.2931	1381.4998	1397.2729	1403.5455	1412.0464	1435.035	1475.6765	1480.2326	1485.4657	1498.511	1501.837	1509.9491	2984.5863	2996.7633	3027.2827	3036.9251	3039.8354	3094.8442	3103.2087	3108.3847	3118.7269	3120.1634	3129.4165	3809.2531
CC1OC(C)C1(C)O	C[C@H]1O[C@@H](C)[C@]1(C)O	
InChI=1S/C6H12O2/c1-4-6(3,7)5(2)8-4/h4-5,7H,1-3H3	InChI=1S/C6H12O2/c1-4-6(3,7)5(2)8-4/h4-5,7H,1-3H3/t4-,5+,6-
