18
gdb 19091	3.65162	2.46151	2.37655	1.5201	69.39	-0.2365	0.0746	0.311	707.0444	0.158323	-347.743999	-347.738678	-347.737734	-347.772988	23.834	
C	-0.0179267164	 1.542104023	-0.0589579318	-0.188895
C	 1.5344772078	 1.377726345	 0.0174847409	-0.048471
C	 1.2222215512	 0.1819689479	 0.966759948	-0.220814
C	-0.0032595171	-0.018510547	 0.0252365152	-0.048471
C	 0.515992562	-0.5218517003	-1.3836199949	 0.07842
C	 2.0484941148	-0.7410452634	-1.3756331204	-0.22399
C	 1.9777287074	 0.8053785736	-1.3909889378	 0.07842
O	 0.7708670724	 0.6614420433	-2.2075031123	-0.284605
H	-0.4144645518	 1.9839176379	 0.8577301768	 0.086772
H	-0.4509695073	 2.0141634873	-0.9360873023	 0.114862
H	 2.1645413045	 2.1999569363	 0.361493274	 0.058445
H	 1.948700223	-0.617349615	 1.1080814559	 0.090796
H	 0.9048657198	 0.5369493581	 1.9507962283	 0.093085
H	-0.8803844693	-0.564779892	 0.3768436663	 0.058445
H	-0.1519082559	-1.233785536	-1.8720255289	 0.076259
H	 2.5471215014	-1.2857662301	-0.5761654992	 0.097194
H	 2.3802303751	-1.1117897901	-2.3463581437	 0.106289
H	 2.7479130382	 1.3991994613	-1.8866443439	 0.076259
293.8749	475.4684	506.0074	536.7493	559.5358	587.0367	750.603	757.7548	828.926	848.6989	855.3036	876.3819	879.2888	898.3502	917.973	943.1341	987.8948	1022.5217	1042.8602	1058.7073	1076.7761	1082.4219	1107.1097	1121.9095	1133.7915	1199.2383	1234.6031	1239.2433	1247.7019	1251.2686	1295.7449	1309.3023	1315.2642	1319.5565	1353.3813	1477.0107	1499.5092	1545.8274	3065.1388	3077.3458	3084.9347	3086.2519	3090.9042	3099.4669	3106.9665	3123.8607	3152.3935	3171.6619
C1C2CC1C1CC2O1	C1[C@H]2C[C@@H]1[C@@H]1C[C@H]2O1	
InChI=1S/C7H10O/c1-4-2-5(1)7-3-6(4)8-7/h4-7H,1-3H2	InChI=1S/C7H10O/c1-4-2-5(1)7-3-6(4)8-7/h4-7H,1-3H2/t4-,5+,6-,7+
