14
gdb 26723	3.39608	1.21895	0.90138	4.8209	67.71	-0.221	-0.0452	0.1758	1192.7901	0.101001	-473.852486	-473.84435	-473.843406	-473.885202	29.88	
N	-0.0929204406	 1.3973721217	-0.0488094865	-0.609374
C	-0.0915453004	 0.0084258989	-0.0193965967	 0.172617
C	-1.1378599743	-0.8577384638	-0.0866351701	 0.173666
O	-2.4492509604	-0.5541690542	-0.2002212381	-0.438045
C	-0.6022918961	-2.1913603326	-0.0148001678	 0.081369
C	-1.3165988265	-3.4660758266	-0.0463910992	 0.066236
O	-0.7783880268	-4.5509962229	 0.0204167345	-0.284996
C	 0.754790732	-2.0202685116	 0.0926253145	-0.065503
O	 1.0889859645	-0.7233092078	 0.0925549944	-0.160066
H	 0.4012551949	 1.7900007014	-0.8439243375	 0.253801
H	 0.2667688484	 1.8246541634	 0.7989103764	 0.253798
H	-2.5138894144	 0.410555918	-0.2258629111	 0.302891
H	-2.4189536432	-3.3758444125	-0.1384945629	 0.085152
H	 1.5571555829	-2.7351211416	 0.1733038601	 0.168452
107.6942	158.7735	184.4758	255.716	269.4978	304.7646	340.7158	392.4298	493.3053	524.2485	616.0446	666.4668	701.9161	756.6289	778.5895	812.9161	825.7287	987.1925	1044.0666	1126.3074	1196.8797	1208.6375	1254.5196	1304.3458	1340.3566	1436.6896	1504.71	1572.2917	1654.7164	1721.9657	1785.491	2915.9725	3279.7936	3492.2193	3556.9693	3761.1896
NC1=C(O)C(C=O)=CO1	Nc1c(O)c(C=O)co1	
InChI=1S/C5H5NO3/c6-5-4(8)3(1-7)2-9-5/h1-2,8H,6H2	InChI=1S/C5H5NO3/c6-5-4(8)3(1-7)2-9-5/h1-2,8H,6H2
