16
gdb 110768	2.62693	1.28098	1.08445	2.2974	66.66	-0.249	0.0036	0.2526	1142.1893	0.122822	-474.972095	-474.963467	-474.962523	-475.005682	31.911	
O	 0.0909483809	 1.2947322763	-0.3244411626	-0.411991
C	 0.0512684788	-0.0062523687	 0.23813176	-0.102368
C	-1.3327692916	-0.6151064856	 0.1471286065	-0.106156
C	-1.883606502	-1.2778081161	-1.0822080094	-0.033196
O	-0.8198635662	-2.0025705794	-1.7648223053	-0.273537
C	-0.6798527997	-2.8563873539	-0.6680325815	 0.355178
N	-0.0592456039	-3.9360661152	-0.541836648	-0.555297
C	-1.648474216	-2.0993444955	 0.1885756005	 0.251017
O	-2.4428080905	-2.6225115442	 1.1706278569	-0.439462
H	-0.0659204988	 1.2048672057	-1.2703130782	 0.28811
H	 0.7897620607	-0.6719720023	-0.2270796305	 0.110391
H	 0.3294789237	 0.1100804867	 1.2899654855	 0.124058
H	-2.1036815715	-0.0590939736	 0.6793707027	 0.121276
H	-2.761984754	-1.0238012658	-1.6583708473	 0.131855
H	 0.4462161926	-4.1843246693	-1.3937312058	 0.237122
H	-2.6834329125	-3.5218209192	 0.9159665964	 0.303002
66.5592	107.8406	173.9845	225.546	276.1588	299.6726	336.7162	342.4082	440.9942	498.5634	599.8018	665.3842	728.4211	757.6113	806.5142	864.444	900.3814	921.8879	943.1295	982.8859	1000.8703	1045.7971	1071.9108	1085.3445	1164.1396	1209.8268	1225.5486	1278.6957	1342.2187	1356.6014	1398.9102	1418.5352	1489.5437	1498.6882	1830.2297	3023.9762	3087.3669	3137.8234	3224.6538	3483.3631	3786.5469	3813.1564
OCC1C2OC(=N)C12O	OC[C@H]1[C@H]2O[C]([NH])[C@@]12O	
InChI=1S/C5H7NO3/c6-4-5(8)2(1-7)3(5)9-4/h2-3,6-8H,1H2	InChI=1S/C5H7NO3/c6-4-5(8)2(1-7)3(5)9-4/h2-3,6-8H,1H2/t2-,3+,5+/m0/s1
