15
gdb 18462	3.53799	1.84533	1.51143	2.6762	62.86	-0.2562	0.0159	0.2721	865.1374	0.118131	-399.74718	-399.739886	-399.738942	-399.779108	26.65	
C	 0.2042041525	 0.8919067186	-0.3767645735	-0.243084
O	-0.4492420613	-0.0290327413	 0.4833330863	-0.228944
C	 0.401659812	-0.633416115	 1.3803615493	 0.113624
C	 0.1505587822	-2.0165033122	 1.8435092725	 0.026023
O	-0.4372638305	-2.8091698655	 0.7878841833	-0.259418
C	 0.7116503852	-2.6466419763	 0.0143136133	 0.468613
N	 1.0251087854	-3.1509386529	-1.0875818387	-0.556795
C	 1.3918077786	-1.7436064949	 0.9916393999	-0.285858
H	 0.9734327216	 0.3938308984	-0.9807667111	 0.132293
H	-0.5619699831	 1.305559166	-1.0348578105	 0.136852
H	 0.6704765293	 1.7108578157	 0.1903965133	 0.108844
H	 0.8206808569	 0.0267205192	 2.1455672658	 0.103261
H	 0.0201364708	-2.3696119718	 2.8576511311	 0.127671
H	 0.2803775096	-3.7517525227	-1.4445371211	 0.233047
H	 2.4466207106	-1.7188585854	 1.2228578901	 0.123872
72.2646	141.0113	191.4311	218.1336	306.0814	431.5985	475.2389	625.7377	693.7057	737.7827	781.4956	838.8938	868.0056	913.2709	954.7578	977.4445	988.1866	1036.758	1057.1691	1078.996	1099.1266	1178.2955	1193.2219	1199.2576	1251.2211	1297.4255	1329.0323	1425.7574	1488.096	1489.9743	1505.4647	1833.9661	2993.6867	3057.1823	3068.8515	3133.2309	3209.839	3229.827	3481.9509
COC1C2OC(=N)C12	CO[C@H]1[C@H]2O[C]([NH])[C@@H]12	
InChI=1S/C5H7NO2/c1-7-3-2-4(3)8-5(2)6/h2-4,6H,1H3	InChI=1S/C5H7NO2/c1-7-3-2-4(3)8-5(2)6/h2-4,6H,1H3/t2-,3+,4-/m0/s1
