20
gdb 86731	3.65897	1.04499	0.93875	3.1299	81.25	-0.2278	0.0118	0.2396	1322.4662	0.171099	-403.202539	-403.193014	-403.19207	-403.23788	34.794	
C	 0.1080033323	 1.6866466329	-0.0112238223	-0.40053
C	 0.0234306664	 0.1567214129	 0.0318802578	-0.001741
C	 0.7436396	-0.5449204055	-1.1527155316	-0.235512
C	 1.4201068949	-1.8074162056	-0.5673244348	-0.160744
C	 1.455674365	-1.5092939267	 0.9231848012	-0.095565
C	 0.6901565946	-0.4673229341	 1.237466051	-0.047836
C	 0.5968465414	-3.081108551	-0.8246021953	 0.410533
N	 1.2869824469	-4.2466020049	-0.6490401135	-0.524357
O	-0.5764275135	-3.0624972269	-1.1411095339	-0.360698
H	 1.1512053453	 2.0218909285	 0.0061549525	 0.111782
H	-0.3568914594	 2.0784149047	-0.922110124	 0.115572
H	-0.404650084	 2.1393431107	 0.8444008834	 0.11031
H	-1.0383493022	-0.1263176147	 0.0333274068	 0.097848
H	 0.0571887959	-0.8004196355	-1.9608051665	 0.121309
H	 1.5154308991	 0.1213110526	-1.5523818197	 0.089819
H	 2.4280883807	-1.9638734757	-0.9731774665	 0.075835
H	 2.0031467354	-2.1263937338	 1.6275266402	 0.087561
H	 0.5281740183	-0.097497164	 2.2451033225	 0.090954
H	 2.2428858906	-4.264026642	-0.3410674935	 0.256392
H	 0.7832002321	-5.1158546522	-0.714131934	 0.259067
41.9263	52.4874	113.495	151.9892	237.2824	240.3018	301.296	348.2349	402.9943	494.8204	563.9588	575.4954	691.0046	712.1906	752.061	791.3743	820.6875	850.3234	920.4017	940.0182	968.0129	980.1254	1030.4479	1064.1159	1083.0519	1112.2728	1136.5269	1145.9868	1215.3092	1264.5338	1270.6065	1306.1816	1319.4505	1334.5561	1373.6213	1386.9317	1408.5597	1474.9952	1496.6141	1499.9951	1615.702	1683.4299	1795.9231	3007.2506	3013.5525	3025.3306	3052.9214	3094.7255	3097.3251	3128.1272	3172.9537	3199.5453	3602.8187	3739.9561
CC1CC(C=C1)C(N)=O	C[C@H]1C[C@@H](C=C1)C(=O)N	
InChI=1S/C7H11NO/c1-5-2-3-6(4-5)7(8)9/h2-3,5-6H,4H2,1H3,(H2,8,9)	InChI=1S/C7H11NO/c1-5-2-3-6(4-5)7(8)9/h2-3,5-6H,4H2,1H3,(H2,8,9)/t5-,6-/m1/s1
