15
gdb 46172	1.83504	1.65853	1.29663	2.5799	78.85	-0.2415	-0.0365	0.205	1074.4794	0.108703	-383.420288	-383.411271	-383.410327	-383.454294	33.148	
O	 0.0396862562	 0.0287527097	-0.1272418141	-0.26505
C	-0.0284298798	 1.2071022722	 0.000436712	 0.372916
C	-1.1388785035	 2.2100190584	 0.3123488005	-0.335404
C	-0.0537808675	 3.2724234519	 0.6398605161	-0.268747
C	 1.0835727444	 2.3548251043	 0.028175145	-0.161998
C	 2.229991052	 2.0831067514	 0.8741670352	 0.255902
C	 3.1449827497	 1.8349687135	 1.6123758166	-0.405679
C	 1.4416560805	 2.7284438987	-1.3325686169	 0.29018
C	 1.6841581156	 3.0273863185	-2.4711536578	-0.441942
H	-1.7219335944	 2.4419664621	-0.5844118169	 0.151187
H	-1.8263930075	 1.9137973345	 1.1075108972	 0.141819
H	-0.1569488103	 4.2398895975	 0.151754406	 0.129749
H	 0.0974736376	 3.4102313579	 1.7105654197	 0.132651
H	 3.9662215492	 1.6175404063	 2.2496855349	 0.200586
H	 1.9221400178	 3.288852273	-3.4726624875	 0.20383
58.8787	112.9548	118.4116	151.3644	215.7469	360.7892	369.347	448.0386	499.5796	539.3205	563.1224	614.5946	621.4332	629.4388	649.6011	653.5697	715.4143	754.5936	883.3574	922.2712	948.7346	1029.4166	1068.9989	1103.6319	1195.8672	1215.0134	1243.7614	1264.2013	1438.0361	1483.9206	1915.2536	2232.131	2238.3179	3065.3224	3099.0079	3122.3568	3165.8053	3501.2257	3502.2799
O=C1CCC1(C#C)C#C	O=C1CCC1(C#C)C#C	
InChI=1S/C8H6O/c1-3-8(4-2)6-5-7(8)9/h1-2H,5-6H2	InChI=1S/C8H6O/c1-3-8(4-2)6-5-7(8)9/h1-2H,5-6H2
