17
gdb 84407	3.21757	1.30373	0.98519	1.5127	79.25	-0.2262	-0.0211	0.2051	1191.368	0.136804	-418.062721	-418.054382	-418.053438	-418.095801	30.903	
C	-0.098590708	 1.5745375087	 0.0331679974	-0.390975
C	 0.0271893861	 0.0436111264	-0.0298357199	-0.182414
C	 0.8341635848	-0.5066273183	-1.1797297939	-0.157789
C	 1.8459718431	-1.2396181731	-0.7130119506	-0.01151
N	 1.8411033422	-1.2693008716	 0.6999128334	-0.107296
C	 2.7565933274	-1.9265553934	 1.505272312	 0.087112
N	 3.7126552311	-2.5967405719	 1.0032052836	-0.463812
C	 0.7712368603	-0.5062765528	 1.196034819	 0.430648
O	 0.526371578	-0.3291410436	 2.364903023	-0.370098
H	 0.8859934295	 2.0489363464	-0.0130859575	 0.127994
H	-0.6967291892	 1.9466413206	-0.8030973612	 0.121637
H	-0.5807993539	 1.8681135422	 0.969201264	 0.144032
H	-0.98325838	-0.3883133352	-0.0135335893	 0.124166
H	 0.6167387138	-0.3279626015	-2.2223867844	 0.116048
H	 2.6239478041	-1.7858967991	-1.2227216578	 0.163058
H	 2.5285827141	-1.7786555019	 2.5634870763	 0.134792
H	 4.2800544666	-3.0075479217	 1.7419237659	 0.234406
74.7049	151.185	199.1221	223.5349	236.0595	254.1832	316.8064	405.0029	544.9319	579.8692	647.9096	708.208	738.5993	771.2922	827.3222	831.5406	922.7276	939.7445	983.0331	1042.0325	1076.9003	1084.0141	1105.3485	1151.5392	1159.0815	1245.515	1286.6356	1299.8763	1344.5146	1397.2189	1404.5769	1435.165	1493.878	1500.0476	1671.4402	1715.8106	1831.9174	3017.4385	3044.6247	3111.4745	3118.7992	3127.6806	3241.7278	3276.7719	3510.2246
CC1C=CN(C=N)C1=O	C[C@H]1C=CN([CH][NH])C1=O	
InChI=1S/C6H8N2O/c1-5-2-3-8(4-7)6(5)9/h2-5,7H,1H3	InChI=1S/C6H8N2O/c1-5-2-3-8(4-7)6(5)9/h2-5,7H,1H3/t5-/m0/s1
