15
gdb 5410	5.09211	1.50809	1.18244	2.6651	69.68	-0.2477	-0.0173	0.2303	967.2572	0.121165	-362.712898	-362.705871	-362.704926	-362.744894	25.685	
O	 0.1215007054	 1.1154947507	-0.819590607	-0.413865
C	-0.0367982373	 0.1310459459	 0.1884665654	-0.177791
C	-1.4257598299	-0.4522181358	 0.1013444964	 0.245129
C	-2.0113376122	-1.0658717113	 1.2105461081	-0.057522
N	-3.2151816787	-1.6397185238	 1.2067924754	-0.26553
C	-3.9010368003	-1.6088081737	 0.0604396722	 0.001552
C	-3.4213346157	-1.0134794887	-1.1022836672	-0.116575
C	-2.1608467106	-0.4268584234	-1.0820039814	-0.143832
H	 1.0471822433	 1.3735091496	-0.8436927857	 0.293029
H	 0.7046786012	-0.6762215574	 0.066026084	 0.107592
H	 0.1188401417	 0.5541091173	 1.1935311349	 0.102838
H	-1.4749706138	-1.0922544509	 2.1586955579	 0.097101
H	-4.8817905883	-2.0783907459	 0.0759485483	 0.106042
H	-4.0246460986	-1.009423602	-2.0036358213	 0.099847
H	-1.746244176	 0.0549179593	-1.9592408499	 0.121983
38.8946	179.2388	231.353	256.677	403.7981	417.7739	471.4658	599.1108	644.8945	739.0579	806.6538	825.9783	956.6159	972.4995	1005.8222	1036.7486	1047.4767	1064.5508	1080.1572	1139.7535	1204.3644	1221.4125	1253.4249	1256.0489	1307.0189	1363.4922	1442.5413	1470.3941	1509.3471	1516.0641	1615.9931	1635.4896	2958.6995	2987.0766	3129.0794	3154.2274	3189.8843	3213.9157	3838.2615
OCC1=CN=CC=C1	OCc1cnccc1	
InChI=1S/C6H7NO/c8-5-6-2-1-3-7-4-6/h1-4,8H,5H2	InChI=1S/C6H7NO/c8-5-6-2-1-3-7-4-6/h1-4,8H,5H2
