16
gdb 42669	2.57594	1.94497	1.77424	3.3551	66.92	-0.2114	-0.0183	0.193	854.3596	0.127392	-437.87784	-437.871361	-437.870417	-437.908662	26.247	
O	-0.0782715163	 0.0680496702	 0.2125579331	-0.338286
C	-0.0886863082	 1.2613700283	 0.0530269667	 0.464862
C	-1.2422540053	 2.1856579376	-0.0893875694	-0.258462
C	-0.9887934711	 3.491805713	 0.6889815784	-0.031801
N	 0.0223755584	 3.48808511	 1.7220907174	-0.318187
C	 1.3092509429	 2.8742248478	 1.3240182085	-0.163638
C	 1.135806969	 2.1960693403	-0.0421178778	-0.084552
O	 0.7488676324	 3.1950137777	-0.9924772577	-0.26431
C	-0.6251210043	 3.4214230199	-0.7546796735	 0.07943
H	-2.2420624306	 1.8143701958	-0.2664504366	 0.113058
H	-1.8845965526	 4.0359808358	 0.9677233356	 0.111955
H	 0.1720192474	 4.4355871889	 2.0452875782	 0.231295
H	 2.103641296	 3.6233392084	 1.2262663535	 0.111894
H	 1.6262351468	 2.1407955454	 2.0770402701	 0.121698
H	 2.0393718515	 1.6951195959	-0.3867821163	 0.110026
H	-1.109483686	 3.9810363849	-1.5455948604	 0.115018
121.0952	176.3286	350.312	445.0815	469.4434	518.0642	586.3825	646.7582	692.957	725.3666	756.0354	790.6039	819.1794	884.2909	905.9433	929.8449	968.8868	984.7708	1048.27	1068.7575	1077.708	1095.8762	1116.8096	1178.6871	1196.448	1211.4987	1273.1915	1285.8771	1298.6954	1330.7512	1379.0744	1429.9665	1466.0255	1506.411	1853.1525	3013.22	3052.0675	3133.6328	3172.0586	3190.5078	3216.0831	3552.7041
O=C1C2C3NCC1OC23	O=C1[C@H]2[C@H]3NC[C@@H]1O[C@@H]23	
InChI=1S/C6H7NO2/c8-5-2-1-7-4-3(5)6(4)9-2/h2-4,6-7H,1H2	InChI=1S/C6H7NO2/c8-5-2-1-7-4-3(5)6(4)9-2/h2-4,6-7H,1H2/t2-,3+,4+,6-/m0/s1
