20
gdb 103021	2.28125	1.67454	1.15544	3.9934	83.38	-0.2972	0.0291	0.3263	1128.4533	0.171867	-365.979802	-365.97139	-365.970446	-366.012821	32.578	
C	 0.8261612513	-0.495426425	 1.3011641914	-0.38882
C	 0.0592660338	-0.0359580323	 0.0556205747	-0.278935
C	-1.369390814	-0.6031100661	-0.0201021733	 0.220487
C	-2.1504651677	-0.0184247637	 1.074426682	 0.235879
N	-2.7225404124	 0.4722304557	 1.9522150447	-0.362195
C	-2.1236021091	-0.7081917341	-1.4036418182	-0.083815
C	-1.19596972	-1.9069827954	-1.7602835422	-0.24894
C	-1.6296910527	-2.1397813536	-0.2844778529	-0.067953
C	-3.067517639	-1.7553147837	-0.7429943832	-0.244496
H	 1.8207469568	-0.0412678532	 1.3293203087	 0.119418
H	 0.3010513672	-0.2117170015	 2.2180745955	 0.14453
H	 0.9548793425	-1.5828568032	 1.3088537767	 0.118642
H	-0.0121601951	 1.0579430523	 0.050605094	 0.117999
H	 0.6187620477	-0.3086563769	-0.8413607	 0.107933
H	-2.4034547511	 0.1337354714	-2.0377873858	 0.087306
H	-1.6078947514	-2.6142593981	-2.4830354855	 0.102626
H	-0.145411808	-1.712283639	-1.9708301506	 0.102809
H	-1.3413295417	-2.9576204373	 0.3763400626	 0.087821
H	-3.7594466781	-1.3970140867	 0.0200147274	 0.131249
H	-3.5494566288	-2.4569539295	-1.4265238857	 0.098456
75.972	144.3124	166.1515	200.285	227.8654	355.7553	386.9047	486.736	529.7849	546.0612	603.3199	645.8009	774.4739	797.1593	807.0953	896.3366	901.0324	902.5087	956.7275	969.6942	1013.4894	1025.9423	1051.3316	1075.0566	1092.7064	1110.5234	1118.1109	1178.014	1187.3622	1197.3989	1204.5616	1236.0223	1251.4735	1254.1065	1318.5438	1359.2757	1415.225	1481.5009	1499.1314	1506.2984	1515.4898	1549.0699	2340.3847	3039.3667	3046.0132	3074.3958	3079.3587	3097.083	3109.0612	3110.8917	3115.3582	3120.6859	3144.4908	3149.3527
CCC1(C#N)C2CC1C2	CC[C@@]1(C#N)[C@H]2C[C@@H]1C2	
InChI=1S/C8H11N/c1-2-8(5-9)6-3-7(8)4-6/h6-7H,2-4H2,1H3	InChI=1S/C8H11N/c1-2-8(5-9)6-3-7(8)4-6/h6-7H,2-4H2,1H3/t6-,7+,8-
