20
gdb 72723	2.58432	2.00932	1.55714	0.749	78.54	-0.2187	0.0425	0.2612	942.3715	0.171856	-402.997921	-402.990584	-402.98964	-403.028951	31.15	
C	-0.0457812866	 1.5105436336	-0.075016455	-0.449444
C	-0.0691573716	-0.0165637284	-0.0339410121	 0.287985
C	-1.3154195734	-0.4313211587	 0.8508015113	-0.210363
O	-0.3771552268	-0.5313679072	 2.0058806232	-0.374101
C	 0.6610791906	-0.7817959338	 0.9934216855	 0.385022
C	 1.97176748	-0.3281780491	 0.2581291955	-0.277882
N	 1.0729344468	-0.5399249026	-1.0134835604	-0.201974
C	 0.9079189009	-2.0205987362	-0.9645193259	-0.158816
C	 0.6566217777	-2.274420317	 0.5408425487	-0.272661
H	 0.8533182783	 1.9138448523	-0.5406891424	 0.129343
H	-0.8977852522	 1.8534206634	-0.6731160183	 0.118914
H	-0.1533540347	 1.9322993355	 0.9295058769	 0.134422
H	-2.0541474902	 0.3563213819	 1.0154037927	 0.118468
H	-1.8082725439	-1.3853108521	 0.654595056	 0.11652
H	 2.2546675791	 0.7141311379	 0.3629655914	 0.12622
H	 2.8501466185	-0.9793167007	 0.2792900007	 0.106978
H	 0.0667268905	-2.3102452573	-1.5994035682	 0.107196
H	 1.8102553403	-2.4991532406	-1.3543791501	 0.106446
H	 1.4632165645	-2.8239125008	 1.0336766862	 0.10211
H	-0.275861548	-2.7959314901	 0.7562966743	 0.105616
192.107	206.583	280.0058	330.7941	387.7479	435.4484	468.7013	495.492	511.0376	586.0809	658.8947	729.9052	792.2245	805.5499	833.4929	861.6648	869.6038	903.8954	951.0824	960.6868	962.3428	1001.6762	1040.7889	1066.8649	1092.9528	1129.3584	1139.8997	1165.1984	1174.3158	1201.6563	1229.3284	1242.3083	1264.583	1266.7391	1324.3464	1340.8231	1404.1467	1486.2249	1489.7118	1495.8763	1506.2784	1521.201	1537.4439	3036.39	3058.1022	3064.7388	3068.9901	3072.4061	3094.8981	3102.6101	3124.6759	3134.5336	3143.2986	3190.2046
CC12COC11CN2CC1	C[C@]12CO[C@@]31CN2CC3	
InChI=1S/C7H11NO/c1-6-5-9-7(6)2-3-8(6)4-7/h2-5H2,1H3	InChI=1S/C7H11NO/c1-6-5-9-7(6)2-3-8(6)4-7/h2-5H2,1H3/t6-,7+/m0/s1
