13
gdb 48032	6.14169	0.57907	0.53085	2.9172	71.47	-0.2698	-0.1154	0.1544	1887.4075	0.084439	-456.550438	-456.54078	-456.539836	-456.588049	30.714	
O	 0.0149239708	-0.091451315	-0.3938448318	-0.224111
C	 0.0655177713	 1.0323151416	 0.0491216377	 0.018721
C	 1.1978615932	 1.9138065361	-0.0948522907	 0.091174
C	 2.1274722936	 2.6756498847	-0.1971160647	 0.084848
C	 3.2465780595	 3.5865520283	-0.3228574972	-0.501482
C	 3.0252218266	 4.9455170288	 0.3393506551	 0.301234
O	 2.0303859982	 5.2832928035	 0.9261756652	-0.246094
C	 4.1957242154	 5.9321729385	 0.2220649574	 0.084431
O	 5.2206390705	 5.6678127811	-0.3478337586	-0.210703
H	-0.7806418584	 1.4738944063	 0.6126637633	 0.107789
H	 4.1622855755	 3.1504007347	 0.0996509151	 0.184823
H	 3.4982846411	 3.7622036511	-1.3778702611	 0.184823
H	 3.9935173527	 6.9046405104	 0.7155915004	 0.124548
21.7386	33.4238	63.1474	131.7961	171.6969	177.799	193.1193	382.7283	390.4577	457.5707	509.7567	549.6243	669.4237	807.6346	843.291	854.3643	1022.2841	1027.21	1145.4274	1161.4379	1198.7207	1348.5118	1360.9222	1409.4878	1421.0914	1770.1038	1819.9722	1826.1375	2343.7609	2928.3416	2942.9687	3028.6266	3051.8301
O=CC#CCC(=O)C=O	O=CC#CCC(=O)C=O	
InChI=1S/C6H4O3/c7-4-2-1-3-6(9)5-8/h4-5H,3H2	InChI=1S/C6H4O3/c7-4-2-1-3-6(9)5-8/h4-5H,3H2
