17
gdb 90650	3.7923	1.0831	1.01743	1.752	75.89	-0.2443	0.0317	0.276	1202.7141	0.133487	-421.746718	-421.737938	-421.736994	-421.779667	33.927	
O	 0.01947213	 1.3302974622	-0.0209413331	-0.441475
C	-0.01556925	-0.0819265303	-0.0230573189	 0.114787
C	 0.2765248505	-0.7339472731	 1.3713392475	-0.284682
C	-1.1867428104	-1.1837583956	 1.4498111886	-0.128061
C	-1.4714739269	-0.542355034	 0.0830252974	-0.109121
C	-1.527403343	-2.0349618106	 0.2391843681	 0.208976
O	-0.545508285	-2.7954436728	-0.4189576437	-0.462108
C	-2.8413224144	-2.6322593883	 0.2488531448	 0.262467
C	-3.9173302731	-3.1692588584	 0.2675258174	-0.416723
H	 0.9427953047	 1.6023768122	-0.033771309	 0.282891
H	 0.5476902875	-0.4964513955	-0.8671416043	 0.084069
H	 1.0340558919	-1.520858431	 1.4148014764	 0.094423
H	 0.502618901	 0.0477020844	 2.0994981776	 0.107946
H	-1.8049581085	-1.2160468802	 2.3386255474	 0.097218
H	-2.3212273967	 0.0299535043	-0.2666341515	 0.108056
H	-0.4838534947	-3.6455733808	 0.0311664057	 0.286968
H	-4.8719180628	-3.6345574526	 0.2709831896	 0.194369
116.4364	139.9274	164.2266	245.8106	275.9056	306.3926	337.2613	375.433	458.1021	469.2642	539.1304	578.7281	600.9957	676.2256	680.9839	744.3162	846.5073	867.7761	901.0762	965.9795	985.8489	1000.1182	1022.2214	1048.4741	1102.9621	1129.5163	1184.5137	1212.1244	1235.8396	1245.1657	1264.5296	1293.8229	1321.9979	1412.0508	1423.7673	1465.5408	2233.6876	3033.5488	3060.6729	3123.9379	3185.0017	3202.6067	3501.8607	3799.1035	3814.5542
OC1CC2C1C2(O)C#C	O[C@H]1C[C@H]2[C@@H]1[C@]2(O)C#C	
InChI=1S/C7H8O2/c1-2-7(9)4-3-5(8)6(4)7/h1,4-6,8-9H,3H2	InChI=1S/C7H8O2/c1-2-7(9)4-3-5(8)6(4)7/h1,4-6,8-9H,3H2/t4-,5-,6-,7-/m0/s1
