15
gdb 67602	2.87445	1.95061	1.84132	2.109	61.42	-0.2023	0.0617	0.264	811.9804	0.114009	-457.709995	-457.703902	-457.702958	-457.740087	25.753	
O	 0.2182539434	 1.3575320516	-0.2328022126	-0.467526
C	 0.1146705691	-0.0148063701	-0.0958537912	 0.31035
C	 0.9943614898	-0.9842878003	-0.8585099594	 0.004917
O	 0.2381405113	-2.0404254345	-1.3955632122	-0.242153
C	-0.9889615552	-2.0519248869	-0.7044854132	 0.052946
C	-0.9093750087	-1.9918309148	 0.7948240786	 0.044925
O	 0.38585697	-1.9339705852	 1.3491285297	-0.24348
C	 1.081827451	-0.9299120601	 0.6521507993	-0.042773
C	-1.2204965001	-0.727090986	 0.0079265685	-0.257319
H	 0.079171542	 1.7593895323	 0.6323344147	 0.290318
H	 1.8231403608	-0.6721261377	-1.4822387435	 0.116604
H	-1.7615038291	-2.6122299169	-1.2165463484	 0.110258
H	-1.6196531207	-2.507852301	 1.4292303125	 0.109145
H	 1.9786569792	-0.5866886227	 1.1543465493	 0.111039
H	-2.1459335128	-0.1687221478	 0.027174618	 0.10275
248.0015	300.9236	325.5376	348.1812	563.5996	582.0496	595.6586	677.7885	734.2921	735.6301	746.8523	770.3731	814.5822	881.7818	903.8389	960.4779	973.0576	987.1238	1029.0688	1047.2071	1060.5617	1101.3744	1112.9796	1120.8595	1142.3848	1198.208	1216.2384	1268.4054	1289.9062	1319.0567	1358.9448	1401.1649	1461.128	3184.7881	3187.968	3193.373	3197.0022	3215.0861	3788.6073
OC12C3OC4C(OC13)C24	O[C@@]12[C@@H]3O[C@H]4[C@@H](O[C@H]13)[C@@H]24	
InChI=1S/C6H6O3/c7-6-1-2-3(1)9-5(6)4(6)8-2/h1-5,7H	InChI=1S/C6H6O3/c7-6-1-2-3(1)9-5(6)4(6)8-2/h1-5,7H/t1-,2+,3-,4+,5-,6-
