18
gdb 74358	4.6108	0.86094	0.79819	3.58	78.28	-0.2564	0.0032	0.2596	1470.5859	0.146786	-439.095334	-439.086321	-439.085377	-439.129982	32.002	
C	 0.1671744465	 1.4317999493	 0.0369704148	-0.495242
C	 0.066546343	-0.0567551485	-0.0198435147	 0.307466
C	-0.2209770657	-0.8424757482	-1.0546545616	-0.23125
C	-0.1315274017	-2.2800909721	-0.6393298386	 0.178382
O	 0.9925041778	-2.8699911309	-1.3027939908	-0.195219
C	 1.0796393108	-4.2158399698	-1.2440740964	 0.134531
N	 2.0877833805	-4.8047177129	-1.7224008415	-0.44373
O	 0.0453808592	-2.2587414992	 0.7545901342	-0.25941
C	 0.3252165789	-0.927040973	 1.1835770619	-0.161729
H	 1.1724658633	 1.7444731856	 0.3448002786	 0.139769
H	-0.0472627064	 1.8847879379	-0.9335704081	 0.136345
H	-0.5308458219	 1.8487597824	 0.7730963188	 0.134407
H	-0.4297135084	-0.5412112837	-2.0720622172	 0.114014
H	-1.0155324995	-2.8936635309	-0.8633973838	 0.088904
H	 0.2123145388	-4.6915775208	-0.7666028415	 0.090193
H	 1.9837468132	-5.8114079431	-1.6107595956	 0.226877
H	 1.3643375626	-0.8391526219	 1.5352213856	 0.119989
H	-0.3325862911	-0.6888252002	 2.0301782658	 0.115703
59.7637	88.7161	106.3262	161.2057	175.5658	270.1859	298.3767	386.8891	450.2175	471.19	616.8019	672.7833	806.3825	825.096	848.0801	905.8745	956.94	981.6782	992.2573	1004.6028	1043.9575	1046.5748	1071.5473	1090.3945	1122.4736	1204.414	1219.5101	1285.445	1295.118	1358.9858	1386.7617	1389.8718	1417.5934	1432.5956	1479.9808	1487.571	1510.9125	1731.2036	1748.9107	2994.5682	3004.0975	3026.229	3029.2877	3032.927	3074.44	3123.7627	3231.186	3512.1595
CC1=CC(OC=N)OC1	CC1=C[C@@H](O[CH][NH])OC1	
InChI=1S/C6H9NO2/c1-5-2-6(8-3-5)9-4-7/h2,4,6-7H,3H2,1H3	InChI=1S/C6H9NO2/c1-5-2-6(8-3-5)9-4-7/h2,4,6-7H,3H2,1H3/t6-/m1/s1
