18
gdb 114414	3.29903	1.0681	1.05119	3.6636	72.08	-0.244	0.0291	0.2731	1210.4713	0.148285	-439.08208	-439.073703	-439.072759	-439.115552	31.32	
O	-0.1002988409	 1.4609791837	-0.1598592141	-0.419182
C	 0.0364127127	 0.0710416816	 0.0957458071	-0.099706
C	-1.3422635961	-0.5477272701	-0.0155028983	 0.032765
C	-2.0195495618	-0.5944196118	-1.4181790267	-0.252595
C	-2.2390842714	-2.1333141831	-1.2642318125	-0.188024
C	-1.4726192434	-2.0975520369	 0.1005819994	-0.02391
N	-0.4299259801	-2.897535615	-0.5456803239	-0.319781
C	-1.0342686586	-2.9401555828	-1.7908775024	 0.417099
O	-0.6834372982	-3.395694214	-2.8450825153	-0.359133
H	 0.7783041012	 1.8497324693	-0.2004694966	 0.289313
H	 0.7160814746	-0.4012209261	-0.6302711484	 0.086999
H	 0.4480079001	-0.1134709797	 1.1030614728	 0.082945
H	-2.0006236076	-0.0661811679	 0.7141204809	 0.087447
H	-2.9457065611	-0.0217274671	-1.4782856524	 0.115395
H	-1.3855047768	-0.308328288	-2.2603720567	 0.120985
H	-3.2367717847	-2.545344112	-1.3968222977	 0.098726
H	-1.8539395966	-2.5176206192	 1.0322812922	 0.085492
H	 0.5352850088	-3.0606505508	-0.2934047372	 0.245166
65.6175	102.5994	171.7323	199.6197	259.9868	307.435	418.3592	434.9973	479.0735	519.7048	667.6136	732.4893	788.5356	808.1869	854.1411	888.1416	896.4645	951.9465	995.2247	1031.4698	1067.5246	1086.0116	1093.2317	1134.0118	1145.9275	1162.1913	1211.5513	1225.9766	1244.776	1265.9597	1279.0195	1286.2822	1339.7626	1360.3659	1366.6249	1461.5817	1489.234	1524.8417	1889.2369	2953.1547	2995.5314	3062.9552	3076.7784	3099.7902	3128.8849	3148.5788	3587.3124	3829.372
OCC1CC2C1NC2=O	OC[C@H]1C[C@@H]2[C@H]1NC2=O	
InChI=1S/C6H9NO2/c8-2-3-1-4-5(3)7-6(4)9/h3-5,8H,1-2H2,(H,7,9)	InChI=1S/C6H9NO2/c8-2-3-1-4-5(3)7-6(4)9/h3-5,8H,1-2H2,(H,7,9)/t3-,4-,5+/m1/s1
