21
gdb 92567	3.72527	1.22843	1.02379	1.1996	85.17	-0.2344	0.0201	0.2545	1234.7133	0.184433	-387.113899	-387.105812	-387.104868	-387.146753	31.805	
C	 0.1902767591	 1.5577805595	 0.0527202931	-0.403509
C	 0.0736191242	 0.0461785831	-0.0250048003	 0.165795
C	 0.7782387873	-0.6083585489	-1.2661433932	-0.401941
C	 1.5619871371	-1.7091847243	-0.6199679856	 0.357324
C	 2.671498823	-2.4109069297	-0.8284209623	-0.233185
C	 3.0807373385	-3.1557078372	 0.4319470661	-0.248337
C	 2.2759871727	-2.420886306	 1.5474847189	-0.252398
C	 1.0689056605	-1.846802938	 0.7975510209	 0.077331
O	 0.6835262202	-0.5204240737	 1.1438120003	-0.286256
H	 1.2426572959	 1.8587536391	 0.0486776443	 0.121721
H	-0.3116088084	 2.0264754177	-0.7997676878	 0.113461
H	-0.2706188864	 1.9308248465	 0.9716735301	 0.126069
H	-0.9910143365	-0.239471088	-0.038355952	 0.065639
H	 0.0376542922	-0.9660655882	-1.9899381841	 0.112878
H	 1.4246971704	 0.1052344691	-1.7870532313	 0.115891
H	 3.2523896163	-2.4420114335	-1.7438668563	 0.089738
H	 2.8140530512	-4.2209553513	 0.3827645074	 0.105724
H	 4.1621558199	-3.1204567254	 0.6046314627	 0.103372
H	 2.0102782464	-3.068265435	 2.3866585168	 0.094749
H	 2.861415358	-1.5805910975	 1.9334597565	 0.115378
H	 0.1903080584	-2.5147506281	 0.867736126	 0.060556
54.3175	146.1933	224.2289	236.3405	293.3126	345.3763	417.4093	442.3231	560.4304	598.9111	673.4876	709.2287	815.8462	823.8496	857.1433	866.975	905.067	915.5259	934.0565	969.2149	990.9786	1062.4891	1076.4593	1088.09	1104.8915	1139.1718	1166.1268	1185.2995	1209.1355	1229.0434	1252.1576	1282.631	1288.0275	1320.7778	1348.4387	1354.5138	1371.1759	1398.2737	1416.7858	1479.6123	1483.0858	1483.6701	1497.7373	1500.1707	1744.3805	2921.8957	2959.8526	3007.9588	3037.4039	3040.7769	3053.5069	3064.2869	3079.255	3111.4691	3111.8035	3117.4878	3188.7413
CC1CC2=CCCC2O1	C[C@H]1CC2=CCC[C@H]2O1	
InChI=1S/C8H12O/c1-6-5-7-3-2-4-8(7)9-6/h3,6,8H,2,4-5H2,1H3	InChI=1S/C8H12O/c1-6-5-7-3-2-4-8(7)9-6/h3,6,8H,2,4-5H2,1H3/t6-,8+/m0/s1
