22
gdb 113826	4.0976	0.78918	0.72174	1.7287	84.4	-0.2478	0.0712	0.3191	1671.6896	0.192905	-404.308424	-404.298364	-404.297419	-404.344571	36.502	
C	-0.2856900802	 1.4712224092	 0.3027644475	-0.375464
C	 0.3581408584	 0.1752222328	-0.2061341957	-0.215461
C	 1.1655555527	-0.5069211674	 0.8720803684	 0.07187
O	 0.4416774842	-1.1913887211	 1.9038671763	-0.271969
C	 1.3049243682	-1.9625298013	 1.0559544642	 0.071319
C	 0.6584772593	-2.9899265063	 0.1867509932	-0.062875
N	 1.5794737447	-3.9245322561	-0.4891469056	-0.345551
C	 0.6448583284	-4.4454293396	 0.519584932	 0.007466
C	 1.2335892966	-5.0453719297	 1.7737436185	-0.394818
H	 0.4735150872	 2.1823679572	 0.6461270849	 0.115981
H	-0.8684865408	 1.9583155873	-0.4844710616	 0.112538
H	-0.9534301103	 1.2625722392	 1.1439028332	 0.134527
H	-0.4199163959	-0.4989680577	-0.5762067609	 0.102801
H	 1.0225864007	 0.3928418122	-1.0525645078	 0.102714
H	 1.986110804	 0.104470668	 1.2586127624	 0.084376
H	 2.2181098645	-2.3073356652	 1.5409286725	 0.092005
H	-0.2016276937	-2.6333804613	-0.3742558171	 0.083657
H	 1.2552422495	-4.1244900201	-1.4307988811	 0.232755
H	-0.227727114	-4.9792791755	 0.1431579323	 0.082932
H	 2.1341763315	-4.513595699	 2.0869601628	 0.1285
H	 0.5093458231	-5.0161198164	 2.5945369769	 0.12387
H	 1.509172162	-6.0913025991	 1.6015465746	 0.118824
29.9883	67.227	117.5005	152.4232	190.8309	210.2373	235.7987	292.053	387.5459	419.8564	449.0237	503.7041	598.335	750.6091	776.6845	813.5682	853.144	859.1678	921.9404	954.5111	967.8799	1008.6408	1018.4627	1040.0149	1060.0981	1103.3661	1110.5077	1143.7444	1158.6278	1181.8002	1223.4683	1254.1894	1267.8103	1292.2027	1303.1462	1335.3987	1356.5812	1407.4443	1410.3608	1434.1692	1454.8083	1472.6205	1487.3485	1496.9139	1498.3412	1507.2452	1522.2846	3028.822	3036.4083	3039.2554	3062.7266	3083.057	3098.8557	3101.2037	3107.209	3111.3279	3116.2774	3134.8828	3141.4596	3512.3225
CCC1OC1C1NC1C	CC[C@H]1O[C@H]1[C@H]1N[C@H]1C	
InChI=1S/C7H13NO/c1-3-5-7(9-5)6-4(2)8-6/h4-8H,3H2,1-2H3	InChI=1S/C7H13NO/c1-3-5-7(9-5)6-4(2)8-6/h4-8H,3H2,1-2H3/t4-,5+,6-,7+/m0/s1
