14
gdb 27013	2.94131	1.32733	0.91983	4.3154	75.22	-0.2138	-0.023	0.1908	1185.82	0.099671	-436.721149	-436.712743	-436.711799	-436.754127	30.79	
C	 0.1580342532	 1.5004507176	 0.0647727589	-0.501106
C	-0.0232999076	 0.0322416525	 0.0495010601	 0.253867
C	-1.1234690894	-0.7514451269	-0.0271646351	 0.090601
N	-0.652969408	-2.0778908755	 0.0032835141	-0.456128
C	 0.7140636849	-2.1007561084	 0.0969590393	 0.478582
O	 1.4796709877	-3.0207110817	 0.1477713207	-0.394644
O	 1.0953466232	-0.7600238158	 0.1250460493	-0.236134
C	-2.4831432422	-0.410875087	-0.1196282379	 0.289917
C	-3.655684829	-0.1449841919	-0.1993565274	-0.462935
H	 0.7777689306	 1.8293562937	-0.7769188625	 0.151157
H	-0.8151147341	 1.990782742	-0.0019240559	 0.151109
H	 0.6552830404	 1.8264752373	 0.9852065985	 0.151162
H	-1.2140969738	-2.9102205518	-0.036041958	 0.281061
H	-4.686941526	 0.1000373659	-0.269388104	 0.203493
122.0227	132.3632	157.7394	199.7063	260.3097	279.2462	409.4915	443.4425	477.8854	536.9793	560.4955	600.5018	649.8547	670.4708	698.0296	761.8276	819.433	925.359	992.4983	1063.4594	1095.6321	1235.7406	1249.5569	1321.5581	1410.6926	1430.2705	1468.424	1484.0252	1701.4115	1909.1596	2230.0208	3033.4941	3086.047	3138.5544	3497.7513	3697.2681
CC1=C(NC(=O)O1)C#C	Cc1c([nH]c(=O)o1)C#C	
InChI=1S/C6H5NO2/c1-3-5-4(2)9-6(8)7-5/h1H,2H3,(H,7,8)	InChI=1S/C6H5NO2/c1-3-5-4(2)9-6(8)7-5/h1H,2H3,(H,7,8)
