19
gdb 113274	4.02191	0.82309	0.79531	3.5638	73.09	-0.2311	-0.0191	0.2121	1483.8283	0.155277	-460.136653	-460.126571	-460.125627	-460.172619	35.7	
C	 0.0034623533	 1.0767356573	 0.2267063273	-0.247862
O	-0.2089436039	-0.0969741868	-0.5479105943	-0.250426
C	-1.4266957513	-0.7171084252	-0.2520929951	 0.024671
C	-1.5498847172	-2.1492611388	-0.7020863586	-0.389534
C	-1.3631342749	-1.8284961516	 0.7711390594	 0.401688
O	-0.1109101608	-2.0713090124	 1.3496107419	-0.480226
C	-2.4791556456	-2.0700925462	 1.7621199164	-0.338364
C	-2.6225329924	-3.5408762843	 2.1114189345	 0.163005
O	-3.6714726119	-4.132450816	 2.12959357	-0.24309
H	 0.9714778069	 1.484405588	-0.0721586089	 0.134709
H	-0.7763603868	 1.8254651855	 0.029364796	 0.118953
H	 0.0162293902	 0.8537688212	 1.3014385384	 0.123755
H	-2.2963989974	-0.0610193658	-0.2997425478	 0.091266
H	-2.5160697697	-2.492480681	-1.0559755185	 0.127598
H	-0.6949454554	-2.5670534774	-1.2232326102	 0.12778
H	 0.5384305264	-1.621391889	 0.7917288601	 0.290535
H	-2.2431437571	-1.5251266485	 2.6869184254	 0.128455
H	-3.4385816887	-1.7096902939	 1.3815615381	 0.119077
H	-1.6656465035	-4.0500733851	 2.3563287159	 0.098008
46.8208	68.3904	103.86	116.7889	179.3288	223.6994	264.9341	337.5349	378.777	382.3251	455.5879	470.2324	497.5779	649.8608	721.1741	802.6894	836.6017	861.1022	928.9233	983.3262	1038.5223	1055.1607	1073.9866	1081.1485	1119.2282	1156.6946	1181.4152	1193.0999	1205.1608	1244.382	1294.9305	1324.4168	1362.242	1423.5181	1428.8373	1449.5142	1473.4642	1487.7741	1492.6032	1507.9785	1831.7198	2907.5369	2999.0926	3020.4885	3058.7009	3095.1937	3106.529	3127.3433	3132.7019	3225.0638	3750.8897
COC1CC1(O)CC=O	CO[C@H]1C[C@]1(O)CC=O	
InChI=1S/C6H10O3/c1-9-5-4-6(5,8)2-3-7/h3,5,8H,2,4H2,1H3	InChI=1S/C6H10O3/c1-9-5-4-6(5,8)2-3-7/h3,5,8H,2,4H2,1H3/t5-,6+/m0/s1
