12
gdb 131897	2.95763	1.66375	1.06515	6.0122	63.55	-0.2382	-0.0671	0.1711	1000.8239	0.077975	-505.893351	-505.886116	-505.885172	-505.925227	26.538	
N	 0.0563392	 1.3756629115	 0.1184589599	-0.596427
C	-0.0422791032	 0.0420177339	 0.0413463953	 0.415854
C	-1.1150971448	-0.8268084554	 0.0178562431	 0.253224
N	-0.6612139369	-2.1317752163	-0.015644886	-0.267105
C	 0.6136003253	-2.0204364661	-0.0154337399	 0.060296
O	 1.0758117854	-0.7113894025	 0.0187016384	-0.182817
N	-2.472628836	-0.4382476466	 0.0076875769	 0.362104
O	-2.6824988146	 0.7912130311	 0.0279005561	-0.443095
O	-3.3447653448	-1.2914008057	-0.0228031779	-0.35195
H	 0.9264429079	 1.8229651868	-0.1163272926	 0.280097
H	-0.819290365	 1.8668902388	 0.0014767009	 0.300648
H	 1.3719436965	-2.7848573095	-0.0393983242	 0.169171
105.283	188.5879	223.3437	298.4896	303.8297	355.2131	454.7257	540.7206	571.9871	651.4572	711.7702	733.0322	786.4496	795.4803	851.5697	929.0987	1003.9332	1059.4697	1201.6063	1273.0645	1311.3124	1376.5283	1470.0026	1547.8708	1595.027	1613.3357	1699.3083	3296.5565	3564.6502	3713.1611
NC1=C(N=CO1)N(=O)=O	Nc1c(nco1)N(=O)=O	
InChI=1S/C3H3N3O3/c4-2-3(6(7)8)5-1-9-2/h1H,4H2	InChI=1S/C3H3N3O3/c4-2-3(6(7)8)5-1-9-2/h1H,4H2
