20
gdb 17970	2.53135	2.35352	1.41573	1.0795	76.66	-0.2358	0.0228	0.2586	937.9787	0.179429	-349.004813	-348.997377	-348.996433	-349.036092	29.531	
C	-0.1057176189	 1.5777706467	 0.0134955809	-0.178361
C	 1.2818331266	 2.2297988964	-0.0058801578	-0.066709
O	 1.9370853902	 2.0917135826	-1.2565130169	-0.234641
C	 3.054763422	 1.2328451878	-1.302189595	-0.058487
C	 2.7453367848	-0.2495793753	-0.9849895327	-0.280954
C	 1.5447213648	-0.7559054334	-1.7321579707	-0.026782
C	 0.2897215969	-0.5997584825	-1.3105807194	-0.036525
C	-0.1241841272	 0.0330387933	-0.0015419041	-0.253036
H	-0.6170479861	 1.9258186954	 0.9212293877	 0.088331
H	-0.6761787488	 1.9642399115	-0.8390168966	 0.107981
H	 1.1634304665	 3.3063413325	 0.1769586032	 0.098827
H	 1.9036445167	 1.8341567075	 0.8115260551	 0.085536
H	 3.4343500499	 1.3209287628	-2.3258306262	 0.106493
H	 3.8480281397	 1.5838293762	-0.6214909558	 0.084814
H	 3.6411736176	-0.8329510445	-1.2280342462	 0.097121
H	 2.5913997383	-0.3548400778	 0.094977424	 0.103302
H	 1.7232563041	-1.210487948	-2.7041136132	 0.082426
H	-0.5201178075	-0.9415303484	-1.9517404024	 0.082611
H	 0.5167695439	-0.3279481572	 0.8141107473	 0.101595
H	-1.1386305035	-0.2985274456	 0.2451565388	 0.096456
154.4052	180.271	231.3534	271.4012	314.7885	377.6306	448.3311	486.1584	558.2185	593.0146	734.58	777.1942	846.5272	858.8996	882.8387	924.3989	947.2452	998.8665	1005.8705	1024.2042	1058.224	1080.7605	1133.1688	1154.045	1216.4165	1243.6249	1262.0591	1275.2299	1288.909	1317.5017	1346.5355	1357.2664	1381.2385	1399.7782	1413.7923	1429.2451	1469.9679	1479.7981	1490.882	1493.7175	1507.204	1721.7125	2966.6648	2987.4018	3012.4053	3017.1232	3033.3753	3034.5925	3060.4132	3062.0903	3072.2213	3079.3372	3136.5043	3160.8776
C1COCCC=CC1	C1COCCC=CC1	
InChI=1S/C7H12O/c1-2-4-6-8-7-5-3-1/h1-2H,3-7H2/b2-1-	InChI=1S/C7H12O/c1-2-4-6-8-7-5-3-1/h1-2H,3-7H2/b2-1-
