14
gdb 131178	2.38014	1.93207	1.06641	1.8988	71.41	-0.1934	-0.0311	0.1623	1027.3264	0.102781	-470.017985	-470.010417	-470.009473	-470.049723	29.284	
O	 0.204448369	 1.3206475471	 0.0124097406	-0.422249
C	 0.0471193209	-0.0198012186	 0.008759848	 0.368702
C	-1.1371535509	-0.6823627594	-0.0238119841	 0.223514
O	-2.3166713185	-0.0232400939	-0.0569796918	-0.463699
C	-1.1626185932	-2.1212686476	-0.0230184962	 0.208683
N	-2.3364013537	-2.6738392871	-0.0559458091	-0.624607
C	 0.160979048	-2.7208921589	 0.0144697472	-0.068227
N	 1.2871999425	-2.0656050115	 0.0452549104	-0.201541
N	 1.2153947176	-0.7305520048	 0.0416906361	-0.273305
H	-0.6776824095	 1.7143713164	-0.013896916	 0.326527
H	-2.9738041967	-0.752313392	-0.0740388319	 0.308366
H	-2.2911127143	-3.6905186819	-0.0540872793	 0.210918
H	 0.2588876994	-3.8024867429	 0.017843915	 0.122234
H	 2.0954324694	-0.2403244449	 0.0664943011	 0.284684
140.4858	200.8361	258.0965	300.8911	308.0584	384.75	437.8408	504.2262	514.6191	579.1224	598.4483	603.5432	632.5617	701.6891	743.4081	768.7255	884.9012	911.5246	1071.0153	1110.0434	1157.49	1222.5325	1304.2122	1364.9832	1365.5054	1440.8174	1454.9881	1554.0413	1583.3996	1651.5053	1734.9091	3176.897	3499.874	3513.2814	3646.7161	3789.5053
OC1=C(O)C(=N)C=NN1	O[C@@H]1C(=C([NH])C=NN1)O	
InChI=1S/C4H5N3O2/c5-2-1-6-7-4(9)3(2)8/h1H,(H,6,8)(H3,5,7,9)	InChI=1S/C4H6N3O2/c5-2-1-6-7-4(9)3(2)8/h1,4-5,7-9H/t4-/m1/s1
