19
gdb 72124	2.38602	2.22427	1.72746	1.4159	78.35	-0.2297	0.0196	0.2494	886.9274	0.162214	-385.879615	-385.87287	-385.871926	-385.910141	29.089	
O	-0.0513559075	 1.3918730477	 0.0034260692	-0.491931
C	-0.0085914761	 0.0023412842	-0.0331701947	 0.438108
C	 0.1944609421	-0.8041438799	-1.3376624031	-0.303572
C	-0.4419452287	-1.9376225661	-0.4949132813	-0.052086
C	 0.6848357975	-2.2008071275	 0.5151054743	-0.208528
C	 0.7594463746	-0.7471617191	 1.12119736	-0.1462
C	-0.250842206	-0.7404884436	 2.2504368128	-0.079389
C	-1.4714117434	-0.8443509197	 1.7113127861	-0.095418
C	-1.3187329554	-0.7907111375	 0.2219974492	-0.081342
H	 0.8518772517	 1.725583292	 0.0148217216	 0.277664
H	-0.4624832105	-0.4288960281	-2.1259132113	 0.099928
H	 1.2053903063	-0.9604095844	-1.7267683981	 0.080818
H	-0.9317164721	-2.7921532232	-0.9569868829	 0.067721
H	 0.4540680041	-2.9477163651	 1.2772843996	 0.096105
H	 1.6078348561	-2.4935301612	 0.0052972806	 0.093161
H	 1.7641315672	-0.3884658924	 1.3540949593	 0.050848
H	 0.0083370088	-0.7874161327	 3.3012060355	 0.09057
H	-2.4096805187	-0.9679076191	 2.2373618693	 0.092567
H	-2.17696547	-0.4911024543	-0.3791483658	 0.070977
187.6544	256.0951	315.4532	378.0824	422.1296	468.5581	511.4614	609.9615	635.3272	725.7958	765.9765	787.7216	816.972	843.4581	864.1607	898.3923	926.0316	940.0119	959.9045	973.92	999.0909	1009.9198	1043.3493	1072.818	1078.5307	1114.4603	1135.2594	1154.6266	1162.5501	1201.786	1222.4814	1248.7007	1277.062	1294.1124	1303.4218	1318.0584	1362.4	1380.5392	1490.5646	1514.8594	1639.6593	3048.1018	3054.3263	3088.5026	3107.4869	3113.5644	3120.7444	3138.3145	3193.9512	3219.6678	3807.668
OC12CC3CC1C=CC23	O[C@@]12C[C@H]3C[C@@H]1C=C[C@@H]23	
InChI=1S/C8H10O/c9-8-4-5-3-6(8)1-2-7(5)8/h1-2,5-7,9H,3-4H2	InChI=1S/C8H10O/c9-8-4-5-3-6(8)1-2-7(5)8/h1-2,5-7,9H,3-4H2/t5-,6+,7-,8+/m1/s1
