14
gdb 132006	2.40112	1.85907	1.05468	4.0802	70.08	-0.2359	-0.036	0.1999	1048.6995	0.100813	-477.998147	-477.990445	-477.989501	-478.030582	28.23	
C	 0.0468478751	 1.5068051566	 0.0387633396	-0.487006
C	-0.0467796	 0.0228962116	 0.0712705474	 0.228417
C	-1.1392198401	-0.7261061657	-0.1453919006	 0.140994
F	-2.2980515923	-0.1381217057	-0.424924915	-0.050547
C	-1.1078096902	-2.1848762986	-0.0860222208	 0.26544
N	-2.1514283751	-2.8855989704	-0.294469361	-0.518476
N	 0.1626735493	-2.7304607658	 0.2177183848	-0.316361
C	 1.1452227704	-1.9506941204	 0.4087176658	 0.118335
O	 1.1497995549	-0.5996760505	 0.3604575283	-0.217701
H	 0.7702342721	 1.830984081	-0.717253809	 0.151023
H	-0.9274334376	 1.9363756067	-0.1936975688	 0.159425
H	 0.3863506488	 1.8929097542	 1.0060688667	 0.151009
H	-1.9060084768	-3.873701387	-0.2040802168	 0.226057
H	 2.1378564917	-2.3233982959	 0.6439375693	 0.149392
101.3486	143.189	165.3188	278.5086	317.1696	318.6675	503.0229	514.8416	519.4447	529.7457	537.9668	686.6281	777.948	877.4936	909.6092	933.5259	967.8942	994.95	1064.8165	1129.5478	1180.5261	1220.6019	1277.3238	1399.4757	1413.5272	1448.1327	1475.9132	1479.6389	1677.5822	1706.9604	1747.524	3040.659	3094.1327	3160.4239	3191.5011	3466.1731
CC1=C(F)C(=N)N=CO1	C[C@H]1C(=C([NH])N=CO1)F	
InChI=1S/C5H5FN2O/c1-3-4(6)5(7)8-2-9-3/h2,7H,1H3	InChI=1S/C5H6FN2O/c1-3-4(6)5(7)8-2-9-3/h2-3,7H,1H3/t3-/m0/s1
