17
gdb 91082	3.38136	1.50522	1.33229	2.2697	73.42	-0.2485	-0.0177	0.2308	999.0796	0.136188	-421.764696	-421.757447	-421.756503	-421.796351	28.45	
C	 0.1527476222	 1.4851875087	 0.2045347302	-0.403264
C	 0.0018442186	-0.0122186481	 0.0493079761	 0.09638
O	 1.0081093367	-0.6026120205	-0.8494861867	-0.321946
C	 1.2464440634	-1.7153947781	 0.0675888475	 0.099772
C	 2.5952234705	-2.0440113487	 0.6965372819	-0.013099
O	 3.3531099046	-0.9611066203	 1.2146290374	-0.240521
C	 2.4739386527	-1.6561004325	 2.1300555357	 0.008307
C	 1.2037070448	-0.8676625266	 2.2884250272	-0.209246
C	 0.5458576285	-0.924806427	 1.1292730536	 0.114518
H	 1.1614364069	 1.7263724594	 0.5480248965	 0.139738
H	-0.0257208566	 1.9854365176	-0.7521233661	 0.130688
H	-0.5751714251	 1.8655721815	 0.9290605065	 0.119973
H	-1.0027796407	-0.2781656007	-0.3077284958	 0.083574
H	 0.7668673643	-2.6296291557	-0.3063945882	 0.08076
H	 3.1709885081	-2.9061520868	 0.3724194088	 0.09921
H	 2.9762032739	-2.1825652783	 2.9356447014	 0.104308
H	 1.0372846074	-0.1811972839	 3.1094481041	 0.110848
106.8376	174.3989	208.7056	259.0429	378.464	454.5874	490.1969	536.4312	667.1032	698.9706	775.0158	818.4558	830.0706	845.5732	873.3065	878.9718	918.1251	966.3288	1002.9851	1031.9036	1056.1995	1077.0466	1084.1862	1113.2706	1154.8558	1221.8874	1246.9077	1273.007	1289.8952	1318.0258	1330.6113	1375.0012	1398.2006	1408.7785	1480.3003	1493.9086	1702.5543	3005.0209	3017.4062	3040.4065	3110.3677	3133.0451	3155.2785	3169.0568	3209.0462
CC1OC2C3OC3C=C12	C[C@H]1O[C@H]2[C@H]3O[C@H]3[CH][C]12	
InChI=1S/C7H8O2/c1-3-4-2-5-7(9-5)6(4)8-3/h2-3,5-7H,1H3	InChI=1S/C7H8O2/c1-3-4-2-5-7(9-5)6(4)8-3/h2-3,5-7H,1H3/t3-,5+,6-,7+/m1/s1
