20
gdb 88741	3.54825	0.89121	0.77044	3.0179	82.59	-0.2307	-0.02	0.2107	1495.9045	0.169431	-403.108027	-403.098714	-403.09777	-403.143031	34.096	
C	 2.9404911364	-0.4426670143	 0.2520171256	-0.312399
N	 1.6970946473	-1.1872698276	 0.383172353	-0.086047
C	 1.6557141325	-2.2872183566	 1.3380155597	-0.259059
C	 0.866725515	-1.0435428763	 1.5821544776	-0.002048
C	 1.2238587807	-0.1146508285	 2.7021785504	-0.012276
C	 0.4378006148	 1.1297264703	 2.9539034163	-0.315191
C	 0.3621924855	-0.002928511	 3.9693294726	-0.118582
C	-0.9045542505	-0.7542212709	 4.1148795582	 0.168903
O	-1.2798670487	-1.2550589848	 5.1466166045	-0.270509
H	 3.5574583394	-0.4046585893	 1.1637709758	 0.099294
H	 3.5415768532	-0.9120422507	-0.5330431183	 0.127959
H	 2.7204625862	 0.5838730278	-0.0578085255	 0.125972
H	 1.1726269962	-3.2020887374	 1.0044415825	 0.118865
H	 2.5292142512	-2.4420843099	 1.9722482359	 0.106393
H	-0.1956599212	-1.0672261354	 1.346136543	 0.092143
H	 2.2842680238	-0.0579398243	 2.9228093827	 0.101143
H	 0.9479884652	 2.0367309243	 3.2564833756	 0.129853
H	-0.4458107242	 1.2930643512	 2.3434361714	 0.128032
H	 0.8991247542	 0.1173384873	 4.9040483249	 0.109252
H	-1.5250080471	-0.817391224	 3.1917055841	 0.068304
35.8995	86.1272	140.082	197.7375	219.3982	242.1483	294.6746	369.0714	399.2225	438.6646	471.68	570.0927	733.0103	813.0187	834.0869	866.9042	875.3773	917.8869	977.3242	1005.4882	1033.4834	1049.2053	1076.1301	1097.5741	1121.6153	1130.1842	1138.5376	1160.2386	1188.3849	1195.3112	1204.4002	1241.0866	1319.5127	1342.8529	1343.3587	1440.6914	1450.3105	1460.9045	1486.8873	1491.7228	1504.8732	1514.5312	1815.9855	2865.4088	2974.4724	3067.6348	3081.7845	3104.2426	3115.2829	3129.4532	3167.1689	3171.5888	3178.4344	3220.4481
CN1CC1C1CC1C=O	CN1C[C@H]1[C@H]1C[C@H]1C=O	
InChI=1S/C7H11NO/c1-8-3-7(8)6-2-5(6)4-9/h4-7H,2-3H2,1H3	InChI=1S/C7H11NO/c1-8-3-7(8)6-2-5(6)4-9/h4-7H,2-3H2,1H3/t5-,6-,7-,8?/m0/s1
