23
gdb 59207	3.16363	1.19078	1.07491	0.2671	89.69	-0.2208	0.0197	0.2405	1263.1318	0.206531	-351.126383	-351.117715	-351.116771	-351.159564	34.796	
C	 0.0101987225	 1.4770780306	 0.1174501582	-0.387693
C	 0.0871320251	-0.0578796666	 0.1221058979	-0.01342
C	 0.7982757991	-0.5586103571	 1.3892166279	-0.387692
C	-1.3161543365	-0.6642442732	 0.0210159225	 0.086897
C	-2.1166682634	-0.557552304	-1.3408210733	-0.094731
C	-1.2958438055	-1.8043974387	-1.815685291	-0.21586
C	-1.4796289947	-2.2034410807	-0.3120694955	-0.094741
C	-3.0079186198	-2.3197496164	-0.2524796136	-0.088471
C	-3.4248786032	-1.24247401	-0.9258369039	-0.088469
H	 1.0093706481	 1.9197072561	 0.1881547918	 0.108381
H	-0.4598861694	 1.8562380383	-0.7950682094	 0.112972
H	-0.5751323058	 1.8414984846	 0.9701325657	 0.111706
H	 0.6894513909	-0.364280655	-0.7416019829	 0.071125
H	 0.8970338807	-1.6484037739	 1.3943373848	 0.112973
H	 1.8032365122	-0.1309656238	 1.4694586455	 0.108381
H	 0.2421734448	-0.2700715274	 2.2892049565	 0.111705
H	-1.8986832759	-0.3446024039	 0.8931489373	 0.059193
H	-2.1712627656	 0.3644079989	-1.9203344689	 0.055944
H	-1.7660734421	-2.451489768	-2.5597839306	 0.09039
H	-0.2645079614	-1.5831321671	-2.1003259	 0.0943
H	-0.8783102224	-2.9761644828	 0.1676593621	 0.055944
H	-3.5734678014	-3.0983395141	 0.2396105212	 0.095583
H	-4.4262333162	-0.8950952758	-1.1375387822	 0.095583
58.8435	159.2017	199.4871	219.2586	250.4295	299.1599	394.1069	439.1748	473.4967	518.61	552.9199	696.5931	725.6906	824.5039	841.7667	859.4921	876.6643	902.5316	909.7175	917.4171	933.234	939.9395	968.1618	976.0287	1008.0129	1052.8754	1080.5234	1109.8043	1123.713	1127.4253	1160.4767	1192.8846	1209.6362	1232.0604	1238.8105	1247.5943	1257.005	1314.109	1321.0423	1343.2366	1397.5854	1398.1179	1420.9581	1486.9882	1491.2047	1501.6265	1504.2252	1510.4369	1621.5206	3022.3513	3024.4171	3027.7273	3040.1858	3062.9075	3088.4912	3095.8145	3100.0817	3103.1958	3108.4958	3110.5895	3122.82	3217.0499	3244.3677
CC(C)C1C2CC1C=C2	CC(C)[C@H]1[C@H]2C[C@@H]1C=C2	
InChI=1S/C9H14/c1-6(2)9-7-3-4-8(9)5-7/h3-4,6-9H,5H2,1-2H3	InChI=1S/C9H14/c1-6(2)9-7-3-4-8(9)5-7/h3-4,6-9H,5H2,1-2H3/t7-,8+,9+
