17
gdb 128818	2.91411	1.30802	1.04886	1.4284	70.5	-0.2084	0.021	0.2294	1156.5612	0.137206	-455.146973	-455.138438	-455.137494	-455.180519	31.382	
C	-1.1286815124	 0.7283246191	 0.8606309869	-0.244468
O	 0.0236078914	 0.1122735076	 0.3085218045	-0.247637
C	-0.2743047127	-0.7686078328	-0.778769544	-0.205552
C	-0.8326515239	-2.0668139203	-0.2824543987	 0.208159
N	-1.7699513465	-2.7633288467	-0.9254368461	-0.291923
N	-1.9441118889	-3.8613550363	-0.1766284771	-0.186968
C	-1.1647783945	-3.8902184809	 0.9430184535	-0.12926
C	-0.4234268572	-2.7283658113	 0.9022172364	 0.219712
O	 0.4976666917	-2.3057686893	 1.8046854012	-0.452429
H	-0.7901557657	 1.3613281593	 1.68384688	 0.131481
H	-1.6341353477	 1.3534529649	 0.1108912819	 0.117609
H	-1.8456969002	-0.0102778753	 1.2426076255	 0.12669
H	-0.9639258819	-0.2995982276	-1.493427287	 0.119335
H	 0.6855151327	-0.9193383836	-1.2861834638	 0.12371
H	-2.6176117236	-4.5477071639	-0.4685368455	 0.274838
H	-1.1962354762	-4.6989398804	 1.653631994	 0.133788
H	 0.6913567155	-1.3830687324	 1.5780082284	 0.302916
67.8733	97.9886	161.8002	226.3141	244.904	331.4597	365.184	442.9895	449.9952	480.2569	591.0222	657.1098	682.9608	716.9061	756.8564	771.8782	922.5952	946.5705	1021.88	1066.266	1105.1205	1166.6726	1184.5928	1208.4937	1227.3719	1291.8204	1294.8368	1357.6111	1382.4014	1453.6441	1475.1886	1478.2322	1485.4539	1491.8464	1508.64	1536.6583	1655.0152	2996.6411	3016.7915	3055.0248	3063.7552	3123.9164	3276.7985	3684.2471	3702.8626
COCC1=NNC=C1O	COCc1n[nH]cc1O	
InChI=1S/C5H8N2O2/c1-9-3-4-5(8)2-6-7-4/h2,8H,3H2,1H3,(H,6,7)	InChI=1S/C5H8N2O2/c1-9-3-4-5(8)2-6-7-4/h2,8H,3H2,1H3,(H,6,7)
