19
gdb 99186	5.18293	0.73329	0.67674	1.7326	72.03	-0.25	-0.0307	0.2194	1642.3131	0.157259	-460.156186	-460.146635	-460.145691	-460.192518	33.318	
O	 0.3423232715	 0.9568703331	-0.7829308381	-0.419648
C	-0.0026791716	 0.056626908	 0.2255215708	-0.122621
C	-1.3608651446	-0.5815496093	-0.0385254188	 0.345463
O	-1.9985806076	-0.2254409264	-1.0095783623	-0.319887
C	-1.8564401074	-1.6396964616	 0.9212596089	-0.337586
C	-3.3072907446	-2.03120342	 0.6856175163	 0.171901
C	-3.6478151141	-2.9300907208	-0.521243564	-0.273952
C	-4.214751716	-3.8923594856	 0.5410012217	-0.071414
O	-3.7355674292	-3.0518474475	 1.6160160256	-0.29923
H	-0.4254839211	 0.9741456031	-1.3770384173	 0.294488
H	 0.7485596805	-0.74446968	 0.3205789849	 0.116044
H	-0.04953201	 0.5499999385	 1.2118958898	 0.116259
H	-1.2088400077	-2.5226487363	 0.8275366997	 0.1349
H	-1.7253606213	-1.2883632299	 1.9531439912	 0.136332
H	-3.9457876957	-1.1411899935	 0.7576063175	 0.087855
H	-4.3545948917	-2.5172253521	-1.240302135	 0.121591
H	-2.7740731196	-3.3072272784	-1.0564477389	 0.109034
H	-5.3085293753	-3.979847871	 0.5524398938	 0.104623
H	-3.7793895346	-4.8970940404	 0.5835777238	 0.10585
30.0078	65.3165	77.2646	107.6403	148.9548	265.5365	322.0991	357.687	398.5837	450.5202	492.1653	691.4498	751.7889	783.3716	835.4023	877.0297	889.7715	955.0788	970.7925	1006.1813	1022.6634	1082.1265	1110.4987	1131.5842	1149.1763	1163.3028	1202.3822	1227.9704	1256.1341	1261.6386	1278.1269	1308.1901	1342.6816	1372.2043	1402.6708	1445.2377	1453.552	1490.0244	1492.0779	1531.3967	1785.6998	2964.7283	2987.9295	3013.7906	3020.2029	3025.6454	3059.7212	3060.6931	3084.1391	3144.9393	3680.8412
OCC(=O)CC1CCO1	OCC(=O)C[C@H]1CCO1	
InChI=1S/C6H10O3/c7-4-5(8)3-6-1-2-9-6/h6-7H,1-4H2	InChI=1S/C6H10O3/c7-4-5(8)3-6-1-2-9-6/h6-7H,1-4H2/t6-/m1/s1
