18
gdb 12127	3.9863	1.66861	1.66508	3.0301	72.46	-0.1938	0.0788	0.2726	898.199	0.153008	-343.883619	-343.876001	-343.875057	-343.914836	30.127	
C	-0.0689602217	 1.5430893379	 0.0235757796	-0.508883
C	 0.0807169711	 0.055462877	 0.0120110257	 0.354629
N	-0.8271136681	-0.8663319601	 0.7338745508	-0.347268
C	 0.6366237682	-0.8977080045	 0.9998443365	-0.175381
C	 1.3573141578	-1.6883651965	-0.1481730641	 0.354629
C	 2.713672116	-2.3051158122	-0.0237507302	-0.508883
N	 0.3196853453	-2.1706336664	-1.0892874336	-0.347268
C	 0.7744339179	-0.7546613485	-1.1390464218	-0.17538
H	 0.8482801796	 2.03440266	-0.3209680348	 0.122784
H	-0.8856739324	 1.8664621673	-0.6331389382	 0.130111
H	-0.2843124052	 1.9083230309	 1.0337477519	 0.117059
H	-1.2371258227	-0.320705532	 1.4942962165	 0.219991
H	 1.0393030369	-0.7260579363	 1.991012152	 0.086958
H	 2.6731126676	-3.2472043705	 0.5363292648	 0.130111
H	 3.1404167831	-2.5177672002	-1.0101016427	 0.117059
H	 3.404436386	-1.6359190246	 0.5020338033	 0.122784
H	 0.8202942552	-2.6508642453	-1.8395066014	 0.219991
H	 1.2041429454	-0.325563876	-2.0364055841	 0.086958
154.4366	208.0397	216.693	267.2215	297.3433	324.8869	434.5941	461.3528	552.3792	575.8211	678.4119	792.739	797.4263	841.7715	843.8482	889.4822	928.2236	933.3564	975.4472	1002.6232	1025.3745	1063.7578	1084.8726	1105.3915	1115.4914	1144.7623	1231.9524	1259.7766	1292.4531	1350.491	1403.1803	1413.946	1436.4571	1451.8473	1482.5003	1483.3863	1499.34	1499.5026	3018.972	3019.7745	3079.1309	3079.5057	3092.52	3092.6462	3183.4519	3183.8401	3444.9817	3447.3709
CC12NC1C1(C)NC21	C[C@]12N[C@H]1[C@@]1(C)N[C@@H]21	
InChI=1S/C6H10N2/c1-5-3(7-5)6(2)4(5)8-6/h3-4,7-8H,1-2H3	InChI=1S/C6H10N2/c1-5-3(7-5)6(2)4(5)8-6/h3-4,7-8H,1-2H3/t3-,4+,5+,6-/m1/s1
