22
gdb 121952	4.41176	0.59267	0.54909	2.7185	79.41	-0.2463	0.0703	0.3165	2011.9641	0.192727	-441.445442	-441.434684	-441.43374	-441.482459	38.062	
O	-0.1190977125	 1.4264964198	 0.2314097005	-0.42012
C	-0.0754801198	 0.0120964957	 0.342365854	-0.075924
C	-1.4089225459	-0.5381375638	-0.1444400708	-0.166685
C	-1.4879715956	-2.064276366	-0.0635023735	-0.206924
C	-2.7989485453	-2.6316973064	-0.6246098602	 0.089424
O	-3.0048668932	-2.251430524	-1.9852832125	-0.428428
C	-2.8767862325	-4.1348859822	-0.4547327368	 0.003986
C	-3.6704920012	-4.7265847913	 0.6519505545	-0.24222
N	-4.1321529115	-4.8395581144	-0.7404550974	-0.319252
H	 0.7196295251	 1.7790144583	 0.5424131779	 0.284795
H	 0.7442586593	-0.4104841025	-0.2628442967	 0.080859
H	 0.1003178712	-0.3001864747	 1.3856104468	 0.08076
H	-2.2097951725	-0.0883661705	 0.4554915126	 0.103287
H	-1.5741823975	-0.2165097325	-1.1772081007	 0.120966
H	-0.649992279	-2.5134130712	-0.6180193444	 0.086207
H	-1.3800615398	-2.3992368113	 0.9766206331	 0.100767
H	-3.6439421687	-2.1755730931	-0.0908392571	 0.079787
H	-2.3539535602	-2.7163775651	-2.5234023849	 0.280188
H	-1.9918141002	-4.6734689291	-0.7973822048	 0.082629
H	-3.3591814218	-5.6608203014	 1.1105162498	 0.118733
H	-4.1876690657	-4.0450552156	 1.3234500131	 0.110824
H	-4.8634322729	-4.1570007587	-0.9289431124	 0.236341
51.0611	64.429	90.0362	103.3057	146.1127	209.3395	259.4178	266.3569	280.2318	319.9977	334.128	483.3088	508.3709	556.2872	760.8237	813.8677	850.941	874.5666	918.8605	951.5589	977.7557	1015.5557	1047.3739	1056.1285	1079.344	1094.8185	1113.7482	1133.3789	1156.7145	1182.6672	1204.8923	1237.2311	1248.5604	1277.8885	1281.6956	1304.5411	1310.0904	1321.6332	1349.3829	1392.5462	1412.5967	1436.8823	1464.3175	1479.7125	1502.1614	1512.7277	1529.1237	2951.7441	2975.7078	2995.6936	3019.6643	3037.6859	3046.341	3093.0752	3096.7694	3104.9517	3189.3578	3493.8503	3795.204	3830.8179
OCCCC(O)C1CN1	OCCC[C@@H](O)[C@H]1CN1	
InChI=1S/C6H13NO2/c8-3-1-2-6(9)5-4-7-5/h5-9H,1-4H2	InChI=1S/C6H13NO2/c8-3-1-2-6(9)5-4-7-5/h5-9H,1-4H2/t5-,6-/m1/s1
