15
gdb 133736	2.12328	1.33751	0.98693	3.5937	58.34	-0.3374	0.015	0.3524	1187.5967	0.107917	-548.339001	-548.329827	-548.328883	-548.373765	31.995	
C	 0.8722171221	-0.3251334282	 1.2974740488	-0.406595
C	 0.0721020729	 0.0595695589	 0.0525975768	-0.192549
C	 0.744809596	-0.3989440005	-1.2627248709	-0.287153
C	 0.873056332	-1.8567241652	-1.3309743577	 0.291814
N	 0.9746571041	-3.0067709823	-1.3487438023	-0.314324
C	-0.014592354	 0.1132625455	-2.4943776825	 0.29532
F	-0.0418994676	 1.452934757	-2.4907244103	-0.074619
F	 0.5748976333	-0.2816203386	-3.6257154799	-0.065696
F	-1.2771872398	-0.3243252437	-2.5088616132	-0.069264
H	 0.9886421071	-1.4098067684	 1.3773867753	 0.149437
H	 1.8715977844	 0.1226968643	 1.2832034526	 0.124233
H	 0.3617076337	 0.026222296	 2.1979728737	 0.130698
H	-0.9329595057	-0.3704118537	 0.0939710401	 0.135905
H	-0.0437158692	 1.1456345617	-0.0063895022	 0.128376
H	 1.7508835207	 0.0321838774	-1.3300488483	 0.154418
58.8014	87.0312	139.1134	169.8199	186.4629	258.582	324.9663	347.1766	373.3719	462.8309	531.3504	560.8627	582.9933	709.7006	771.289	846.7601	920.3028	966.2929	1051.3543	1107.6751	1125.4083	1169.7496	1223.2593	1270.7846	1275.1052	1331.5667	1356.1551	1376.8185	1419.1603	1491.6863	1498.9516	1507.1834	2368.9386	3041.4378	3052.7026	3063.2253	3098.5612	3117.9415	3124.8941
CCC(C#N)C(F)(F)F	CC[C@@H](C#N)C(F)(F)F	
InChI=1S/C5H6F3N/c1-2-4(3-9)5(6,7)8/h4H,2H2,1H3	InChI=1S/C5H6F3N/c1-2-4(3-9)5(6,7)8/h4H,2H2,1H3/t4-/m0/s1
