17
gdb 70376	2.45809	1.57073	1.341	2.3366	74.23	-0.2371	0.0279	0.265	1032.9788	0.132193	-421.739103	-421.730181	-421.729237	-421.772019	34.387	
C	-0.0605503286	 1.565276839	-0.0083147075	-0.448076
C	 0.020856177	 0.0456893614	 0.0602713973	 0.091467
O	 1.0835901329	-0.497984443	-0.8037304957	-0.32013
C	 1.6438264691	-1.2341077221	 0.2872613103	 0.05548
C	 2.174554666	-0.2874622592	 1.3304489801	-0.377518
C	 0.698811979	-0.6346090366	 1.2826604731	 0.291177
O	 0.0215085516	-1.2328895297	 2.3182835516	-0.444995
C	-1.2594260868	-0.5711752385	-0.2686957022	 0.363444
C	-2.3260474966	-1.0549271989	-0.5366053885	-0.443852
H	 0.8951626958	 2.0189647967	 0.2627295305	 0.121233
H	-0.3201827255	 1.8784722315	-1.0231635056	 0.141531
H	-0.8374417468	 1.9304712219	 0.6701402136	 0.12775
H	 1.9890518506	-2.2438353981	 0.104928629	 0.116651
H	 2.6858247677	-0.7690478818	 2.1592825417	 0.120393
H	 2.5638836507	 0.6831457992	 1.0388224286	 0.116571
H	-0.021768526	-0.613691592	 3.055602113	 0.291867
H	-3.2622485601	-1.4959153599	-0.7754989294	 0.197007
126.1272	129.0841	198.7865	217.9386	248.1153	284.4572	334.9586	382.5155	457.298	467.2574	514.3513	540.7499	628.6988	649.5996	661.1366	673.6474	822.3463	848.656	888.0975	919.1878	967.6695	991.3898	1015.9074	1049.838	1073.194	1103.7075	1170.3079	1209.7967	1241.9807	1263.2636	1314.5954	1400.8779	1413.3854	1478.4383	1486.0827	1494.6092	2236.8082	3047.702	3116.8478	3121.3372	3133.6081	3198.4175	3211.1609	3501.6085	3790.3585
CC1(OC2CC12O)C#C	C[C@]1(O[C@H]2C[C@@]12O)C#C	
InChI=1S/C7H8O2/c1-3-6(2)7(8)4-5(7)9-6/h1,5,8H,4H2,2H3	InChI=1S/C7H8O2/c1-3-6(2)7(8)4-5(7)9-6/h1,5,8H,4H2,2H3/t5-,6-,7-/m0/s1
