19
gdb 39807	2.8174	1.6358	1.59515	1.7	79.44	-0.2321	0.0191	0.2512	962.6997	0.161356	-385.863316	-385.856284	-385.85534	-385.894367	29.177	
C	 0.0064263643	 1.450680905	 0.0057860831	-0.296637
O	 1.2049118673	 0.648483128	-0.0222648547	-0.289501
C	-0.0411714061	-0.0073755992	-0.0024603056	 0.538358
C	-0.5566733857	-0.9638185664	 1.0786057477	-0.143478
C	-1.6464174634	-1.3498502358	 0.0279062972	-0.224361
C	-0.5977577629	-0.9641496489	-1.0689255562	-0.183314
C	 0.3793718126	-2.1181119535	-1.2047238801	-0.04647
C	 0.8646856531	-2.6668050301	-0.0910088732	-0.063157
C	 0.4552476591	-2.114364513	 1.2562502623	-0.251231
H	-0.1634727609	 1.9996571647	 0.9317241927	 0.113534
H	-0.1958243017	 2.0096932375	-0.9073236125	 0.114494
H	-0.8775951795	-0.5467940896	 2.0358918153	 0.066139
H	-1.9947636679	-2.3840879433	 0.0213085291	 0.100788
H	-2.4946636853	-0.6616781827	 0.0542103459	 0.099483
H	-0.941669956	-0.5608253935	-2.0218215243	 0.06507
H	 0.6588295086	-2.4678008807	-2.193078518	 0.088934
H	 1.5627249386	-3.4982536651	-0.1184551252	 0.088117
H	 1.3397293466	-1.7442022622	 1.7926786036	 0.120106
H	 0.0254926592	-2.9056864811	 1.8856743928	 0.103129
143.3314	215.3489	264.1867	340.1936	385.1709	465.169	489.9137	557.9331	588.0206	713.6133	733.4304	827.9522	840.5595	853.7354	894.5474	914.7459	931.5214	953.4179	976.9237	977.2119	1027.7472	1068.9399	1085.1852	1088.2717	1114.9775	1117.1269	1164.1753	1170.3231	1185.5801	1198.9698	1250.0203	1272.7911	1293.0078	1309.472	1359.433	1392.1371	1446.3655	1468.8059	1489.6966	1542.5778	1701.4868	3008.7635	3035.9798	3064.0933	3075.8061	3081.8974	3104.1257	3128.9767	3161.2669	3163.4137	3188.7066
C1OC11C2CC1C=CC2	C1O[C@]21[C@H]1C[C@@H]2C=CC1	
InChI=1S/C8H10O/c1-2-6-4-7(3-1)8(6)5-9-8/h1-2,6-7H,3-5H2	InChI=1S/C8H10O/c1-2-6-4-7(3-1)8(6)5-9-8/h1-2,6-7H,3-5H2/t6-,7+,8-/m0/s1
