17
gdb 16216	3.07176	2.27478	1.49868	3.6523	68.82	-0.2386	0.0336	0.2722	860.2162	0.144627	-363.903291	-363.896167	-363.895223	-363.934626	27.346	
O	 0.0676124539	-0.0108988577	-0.004776096	-0.398081
C	 0.0465133987	 1.2000459311	 0.0808768606	 0.374635
N	-1.0694312287	 1.9857968544	 0.2185036855	-0.325479
C	-0.8192501849	 3.4121650583	 0.0746634046	-0.166611
C	 0.6974755537	 3.5238820717	 0.3713868632	-0.315338
C	 1.2265767484	 2.1351765885	 0.0463663013	 0.244767
C	 2.5738936795	 1.6046610393	 0.4551755157	-0.305748
C	 2.2881072747	 1.8451909213	-0.9978324322	-0.299811
H	-1.9823181079	 1.5764407912	 0.0967565209	 0.249227
H	-1.0541892731	 3.7625974018	-0.9405054285	 0.108009
H	-1.4222049547	 3.9952489703	 0.777300802	 0.113703
H	 1.1674818192	 4.320270534	-0.2101556746	 0.10933
H	 0.8487094591	 3.7507609059	 1.4321805414	 0.115784
H	 3.2437995648	 2.2851502254	 0.9702018714	 0.111172
H	 2.5973211289	 0.5756373361	 0.7971998505	 0.137858
H	 2.1279483285	 0.9789696946	-1.6300564633	 0.134898
H	 2.7518257398	 2.6975694938	-1.4832906025	 0.111684
92.6804	170.8224	241.03	248.9433	343.06	453.6047	517.325	577.2623	694.4857	708.2908	754.3568	789.0906	827.6452	904.4235	920.6529	950.4387	963.4571	1002.9839	1061.2731	1076.1334	1087.1405	1112.8587	1176.6991	1200.5445	1216.8371	1239.9617	1306.3824	1317.8986	1337.2991	1391.6563	1445.6345	1452.0246	1489.0626	1495.2852	1535.5571	1819.7945	2998.1235	3044.5302	3070.4052	3101.8144	3129.5486	3131.6818	3216.1401	3230.1278	3639.0027
O=C1NCCC11CC1	O=C1NCCC21CC2	
InChI=1S/C6H9NO/c8-5-6(1-2-6)3-4-7-5/h1-4H2,(H,7,8)	InChI=1S/C6H9NO/c8-5-6(1-2-6)3-4-7-5/h1-4H2,(H,7,8)
