15
gdb 47249	2.53782	1.77609	1.15789	4.3616	71.23	-0.2298	-0.0452	0.1847	1017.5378	0.114822	-453.97785	-453.970289	-453.969345	-454.010317	28.419	
N	-0.1079824405	 0.7818220241	 1.1212661372	-0.50165
C	-0.0398494925	-0.0903801548	 0.1950421082	 0.212315
N	-1.1972044338	-0.3750660475	-0.5178351021	-0.316606
C	-1.4546506673	-1.3422384481	-1.473025562	 0.032685
C	-0.7746181781	-2.4863098046	-1.5964172454	-0.123753
C	 0.2942993618	-2.8237965671	-0.6123274878	-0.164811
O	 1.4332418585	-1.9265294571	-0.6821322543	-0.214728
C	 1.322833005	-0.6742991003	-0.2218319433	 0.374678
O	 2.3011870314	 0.0132486308	-0.1020380257	-0.315462
H	 0.8301512416	 0.9732049173	 1.4713320537	 0.246956
H	-1.9407222724	 0.2691228761	-0.2861341561	 0.265228
H	-2.2776080229	-1.0908080113	-2.1342520847	 0.124109
H	-0.9914235155	-3.1592340547	-2.4149805777	 0.109925
H	-0.0937317428	-2.8017958141	 0.4148760676	 0.133711
H	 0.7231616676	-3.8089242085	-0.7930255276	 0.137401
71.3842	103.8636	239.0005	301.5633	359.466	416.9187	426.4326	507.1307	575.4225	632.4248	641.1329	690.3446	768.3434	792.2566	825.6004	885.9174	954.5548	955.8282	1008.0923	1060.2741	1082.7947	1173.499	1211.4819	1265.8999	1297.5614	1402.5017	1417.2042	1443.3867	1492.1895	1499.8663	1688.3595	1717.2481	1823.0549	3019.8231	3137.3082	3184.6468	3225.665	3505.1295	3597.6513
N=C1NC=CCOC1=O	[NH][C]1NC=CCOC1=O	
InChI=1S/C5H6N2O2/c6-4-5(8)9-3-1-2-7-4/h1-2H,3H2,(H2,6,7)	InChI=1S/C5H6N2O2/c6-4-5(8)9-3-1-2-7-4/h1-2H,3H2,(H2,6,7)
