20
gdb 10063	2.55776	1.14175	0.8257	1.5226	80.21	-0.2428	0.0609	0.3037	1426.3687	0.174214	-348.984377	-348.973711	-348.972766	-349.021832	36.146	
C	-1.511178824	-0.2310616389	 0.0143691483	-0.387503
C	 0.0099508634	-0.0939983207	 0.087765998	-0.164541
C	 0.7364400314	-0.6248322207	-1.1694606691	-0.137022
C	 2.2366221419	-0.287362773	-1.1375453646	-0.087629
O	 2.364039129	 1.1264624049	-1.1374016677	-0.419951
C	 0.5552323676	-2.0651259118	-1.3470367045	 0.068428
C	 0.4260749856	-3.2564126052	-1.4724283221	 0.05315
C	 0.261403794	-4.6943722358	-1.6358116045	-0.498334
H	-1.9184945065	 0.335685439	-0.83058336	 0.112091
H	-1.8075031188	-1.2768868454	-0.1118451733	 0.124249
H	-1.9834303037	 0.1478087907	 0.9260465723	 0.108828
H	 0.291899974	 0.9557030321	 0.2104713987	 0.115374
H	 0.3920450826	-0.6343629934	 0.9629420114	 0.093452
H	 0.320258132	-0.1043090943	-2.0444831051	 0.105444
H	 2.6887957269	-0.7352776917	-0.2390153968	 0.092205
H	 2.725985644	-0.7335297425	-2.0153857036	 0.09444
H	 3.2960360632	 1.3451336307	-1.0513821979	 0.288677
H	 1.1668847562	-5.1550399167	-2.0464126485	 0.145647
H	 0.0472810242	-5.1838230166	-0.6791550217	 0.146018
H	-0.5644985129	-4.9262200209	-2.3175770094	 0.146977
14.3474	79.4325	95.1744	108.9568	156.278	205.1396	230.6091	246.6889	270.7217	328.5248	351.8974	453.7557	498.5315	543.9645	724.6028	824.9211	854.0428	981.3183	1013.1964	1045.1476	1053.6696	1054.693	1075.9324	1106.7223	1144.5034	1184.3777	1230.5364	1253.9153	1282.0517	1321.7682	1359.5009	1369.0567	1411.1272	1415.2364	1448.7469	1479.0136	1479.7176	1490.9226	1497.853	1508.7066	1519.3809	2367.4476	2977.6847	2998.1129	3018.4793	3024.8844	3031.0466	3034.0285	3084.6679	3084.9068	3085.6186	3099.6686	3112.5812	3837.4163
CCC(CO)C#CC	CC[C@@H](CO)C#CC	
InChI=1S/C7H12O/c1-3-5-7(4-2)6-8/h7-8H,4,6H2,1-2H3	InChI=1S/C7H12O/c1-3-5-7(4-2)6-8/h7-8H,4,6H2,1-2H3/t7-/m1/s1
