21
gdb 100189	1.9985	1.4389	1.05709	2.6314	75.05	-0.24	-0.0254	0.2146	1242.7606	0.177452	-461.35937	-461.348137	-461.347193	-461.395552	40.014	
C	-0.1285300315	 1.2876511474	 0.2108377945	-0.2531
O	 0.0042712985	-0.1157570778	 0.0534141532	-0.286745
C	 0.646952882	-0.5755174423	-1.1408964996	 0.258842
C	 0.059480401	 0.0117270756	-2.4210556935	-0.456473
C	 2.1366656427	-0.2164434431	-0.9941255914	 0.150336
O	 2.7262971665	 0.58258306	-1.6725819128	-0.257555
C	 0.5433704138	-2.1184433982	-1.0544219456	 0.100836
C	-0.8787169799	-2.6524091784	-1.1778140716	-0.427151
O	 1.4400937866	-2.7173594117	-1.9831730328	-0.432557
H	 0.829526983	 1.8136661556	 0.1055317821	 0.126063
H	-0.8417335513	 1.717622545	-0.5036731546	 0.11656
H	-0.5079820094	 1.4461946151	 1.2229035904	 0.132211
H	 0.3539890248	 1.0550940005	-2.5457401084	 0.142334
H	 0.4460131248	-0.5249338619	-3.2926085196	 0.115134
H	-1.0308089843	-0.0598073379	-2.4183563879	 0.124364
H	 2.6238950816	-0.7227536587	-0.1313153644	 0.085136
H	 0.9366996248	-2.3905161966	-0.0679323051	 0.101038
H	-0.8880434504	-3.7308069286	-0.9987185771	 0.126595
H	-1.5308998699	-2.165129128	-0.449110312	 0.139682
H	-1.2884071846	-2.4709300101	-2.1783445372	 0.109416
H	 1.0419406914	-2.6762269258	-2.8591631766	 0.285036
58.2228	82.1318	117.4667	165.7352	187.9655	234.8902	246.0479	247.2814	289.5432	296.3856	301.5715	337.4471	382.0071	419.0216	492.7745	537.4687	612.8411	757.9554	850.1725	904.1322	938.0244	982.9327	1032.1	1076.441	1079.6001	1120.8266	1154.6858	1184.1509	1185.4901	1222.8321	1276.5818	1296.2675	1366.6824	1393.2703	1398.3949	1413.6428	1427.7346	1475.5725	1481.1321	1490.4255	1495.0609	1497.901	1503.9757	1514.9058	1833.6509	2888.3556	3005.6449	3035.1416	3047.6709	3053.6488	3063.4359	3107.2391	3119.2577	3121.1556	3133.9652	3142.7689	3810.6071
COC(C)(C=O)C(C)O	CO[C@@](C)(C=O)[C@@H](C)O	
InChI=1S/C6H12O3/c1-5(8)6(2,4-7)9-3/h4-5,8H,1-3H3	InChI=1S/C6H12O3/c1-5(8)6(2,4-7)9-3/h4-5,8H,1-3H3/t5-,6+/m1/s1
