16
gdb 110088	2.0975	1.24565	0.96124	3.0847	70.89	-0.2693	-0.0471	0.2221	1240.1926	0.122778	-437.884724	-437.875535	-437.874591	-437.919591	32.174	
O	 0.0273300647	 1.3806346853	 0.3864873046	-0.413078
C	 0.0391173443	 0.0892057128	-0.1891489946	-0.095597
C	-1.3327096346	-0.5572672334	-0.113571892	-0.057245
C	-1.5489709984	-2.0599185774	-0.1445031466	-0.148115
C	-0.4187345154	-3.0288898283	-0.2355780313	 0.155736
O	-0.4542987486	-3.9989107873	-0.949236571	-0.253271
C	-1.7958405853	-1.2590117596	 1.1435897471	-0.197831
C	-0.8914265908	-1.3632681591	 2.2566711241	 0.283626
N	-0.1583643081	-1.4019009487	 3.1515346817	-0.335735
H	 0.0082776603	 1.2780208116	 1.3443748112	 0.298558
H	 0.312542908	 0.2219264613	-1.2407377434	 0.130345
H	 0.8047141873	-0.5484712236	 0.2701870986	 0.114206
H	-2.1061201133	 0.0219783265	-0.6090077965	 0.129044
H	-2.4410991408	-2.4106286269	-0.6520627498	 0.131542
H	 0.4620021682	-2.8135116334	 0.4039131826	 0.105502
H	-2.8347429876	-1.1471742798	 1.4344226354	 0.152313
56.8733	75.5278	125.5841	154.6115	199.6001	271.0562	322.0027	351.2957	397.4443	434.7944	492.8158	615.7005	626.9425	782.2461	823.6731	891.48	945.2288	964.9033	994.8491	1047.839	1074.8577	1118.8252	1127.3721	1150.9565	1220.6561	1245.8018	1330.1222	1351.9244	1383.3531	1411.1164	1422.8921	1455.123	1498.264	1819.4873	2347.9229	2920.1222	3029.4353	3085.2823	3161.2912	3172.7918	3183.4551	3807.9532
OCC1C(C=O)C1C#N	OC[C@H]1[C@@H](C=O)[C@H]1C#N	
InChI=1S/C6H7NO2/c7-1-4-5(2-8)6(4)3-9/h2,4-6,9H,3H2	InChI=1S/C6H7NO2/c7-1-4-5(2-8)6(4)3-9/h2,4-6,9H,3H2/t4-,5+,6-/m1/s1
