18
gdb 124644	4.2741	0.99828	0.89649	2.5607	75.71	-0.2251	0.0104	0.2355	1336.7928	0.146611	-439.085585	-439.076802	-439.075858	-439.119759	32.153	
C	-0.1427767354	 1.4872113524	 0.113794536	-0.399519
C	-0.0186558232	-0.0263130405	-0.0242581699	 0.131649
C	 0.8076763075	-0.4571538361	-1.2260468585	-0.393087
O	 0.6717682124	-0.5796428645	 1.1352689804	-0.289729
C	 0.0019992697	-0.7477822781	 2.2642259976	 0.543635
C	 0.4332282598	-1.2170149251	 3.4737971141	-0.404124
C	-0.7443370987	-1.1761623767	 4.2565472806	 0.058191
N	-1.7920592527	-0.7285211209	 3.607096634	-0.167673
O	-1.3032242907	-0.4491181092	 2.3068590965	-0.226913
H	 0.8474648182	 1.9456002915	 0.1967756299	 0.126677
H	-0.6411461659	 1.8994034218	-0.769038596	 0.123809
H	-0.7331291481	 1.754168501	 0.9926703816	 0.145856
H	-1.0131413857	-0.4807666585	-0.0676580154	 0.1155
H	 1.8176178892	-0.040070278	-1.1675494081	 0.130218
H	 0.8848168517	-1.5462083617	-1.2738375227	 0.13027
H	 0.3392170829	-0.1005252652	-2.1476389753	 0.124562
H	 1.4243958969	-1.5362487485	 3.7417693617	 0.11948
H	-0.8685957978	-1.4630788037	 5.2921432435	 0.131197
50.72	73.5931	157.8099	214.8888	250.7057	283.6545	321.8841	379.0224	449.1805	495.3601	630.4795	709.5125	714.1036	760.2177	843.5886	889.3386	923.5094	925.2281	938.1727	938.8766	952.4596	1032.0548	1061.0518	1134.894	1159.7494	1201.2673	1227.4706	1317.8248	1368.378	1377.2286	1380.8165	1405.0622	1421.3169	1481.4196	1486.5047	1496.0742	1510.7702	1542.2287	1651.3614	3044.5323	3048.5241	3067.1552	3114.9039	3124.7775	3128.1354	3137.851	3235.43	3295.6417
CC(C)OC1=CC=NO1	CC(C)Oc1ccno1	
InChI=1S/C6H9NO2/c1-5(2)8-6-3-4-7-9-6/h3-5H,1-2H3	InChI=1S/C6H9NO2/c1-5(2)8-6-3-4-7-9-6/h3-5H,1-2H3
