16
gdb 133081	3.63095	1.10928	0.85431	2.594	75.99	-0.2236	-0.0019	0.2217	1275.488	0.124609	-445.911906	-445.904227	-445.903283	-445.944258	29.333	
C	 0.0778109186	 1.3859679579	 0.0062666779	-0.246706
O	-0.0089206898	-0.026628227	 0.0036758366	-0.264978
C	-1.2431778107	-0.5938778972	 0.0115943601	 0.437367
C	-2.4456769537	 0.1193445768	 0.0221249329	-0.276798
C	-3.6534495323	-0.57930423	 0.0295482947	-0.079035
C	-3.689678576	-1.9677941745	 0.0267207513	-0.263718
C	-2.4764522978	-2.6477890747	 0.0161801728	 0.331976
F	-2.4837635918	-3.9859347951	 0.013249918	-0.084201
C	-1.2592605664	-1.9935130921	 0.0085890178	-0.369072
H	 1.1427365332	 1.6234586118	-0.0010606252	 0.137491
H	-0.3953467889	 1.8221588802	-0.882657451	 0.126639
H	-0.3821430686	 1.8180695747	 0.9040724305	 0.12664
H	-2.4532483667	 1.2007495926	 0.0245873433	 0.09865
H	-4.5841356633	-0.0218573179	 0.0377097575	 0.103592
H	-4.6192322432	-2.5227177735	 0.0323958399	 0.106985
H	-0.3295539224	-2.547955372	 0.000437433	 0.115167
86.6408	207.4221	236.0514	245.7166	272.4391	365.666	468.7011	473.1193	519.1332	584.2302	631.5107	700.5622	742.1464	780.5741	860.6719	879.3501	946.3465	950.461	1009.4353	1073.0794	1100.2566	1172.066	1177.8219	1198.5789	1219.2431	1295.2667	1321.2156	1358.3057	1472.5482	1489.7757	1493.7822	1508.4043	1525.8265	1630.0135	1654.0177	3006.6708	3067.3198	3135.7969	3183.2867	3214.7449	3217.829	3220.9331
COC1=CC=CC(F)=C1	COc1cccc(F)c1	
InChI=1S/C7H7FO/c1-9-7-4-2-3-6(8)5-7/h2-5H,1H3	InChI=1S/C7H7FO/c1-9-7-4-2-3-6(8)5-7/h2-5H,1H3
