18
gdb 34257	4.00451	1.30242	1.17513	4.6792	80.53	-0.2686	0.0236	0.2922	1074.56	0.150856	-364.818307	-364.811265	-364.810321	-364.849654	28.385	
N	 0.1040836345	-1.1254290232	-0.0706916756	-0.353961
C	 0.0488598641	 0.030515063	-0.0258614295	 0.163115
C	-0.0320804196	 1.4527815713	 0.038229509	 0.227983
C	-1.2269317628	 2.2550293372	 0.5711223371	-0.296834
C	-0.7936591025	 3.439730101	-0.3523911888	-0.046638
C	 0.0992758867	 4.4285808264	 0.4096334513	-0.207195
C	 1.2878062729	 3.552575589	 0.8959871233	-0.242865
C	 1.2315375701	 2.3253718263	-0.0133531169	-0.079305
C	 0.1939075808	 2.4805515572	-1.0778063198	-0.120599
H	-2.1684503105	 1.8066224419	 0.2484606574	 0.122454
H	-1.2684627181	 2.4439470795	 1.648882738	 0.104181
H	-1.589447263	 3.8943349218	-0.9404420987	 0.08045
H	 0.453953643	 5.213289739	-0.2675736941	 0.104387
H	-0.4317264119	 4.9161629158	 1.2329026813	 0.103946
H	 2.2459008903	 4.0682885407	 0.7864034161	 0.110057
H	 1.1928619588	 3.278403214	 1.9512964421	 0.113147
H	 2.1384217549	 1.7791478642	-0.2450379445	 0.109167
H	 0.3258063923	 2.3097744048	-2.1371963977	 0.108512
133.5147	155.752	222.9271	365.2223	372.9922	483.7665	551.6401	567.1547	663.9262	688.2016	726.5143	822.4621	853.0357	865.7916	878.8539	907.5367	930.1326	958.9293	994.3782	1007.1814	1031.1563	1053.916	1084.1277	1139.2542	1166.0146	1183.164	1214.4863	1222.804	1239.895	1267.6405	1281.7805	1302.5056	1322.5439	1342.6921	1411.6171	1486.4684	1492.5441	1508.8727	2341.4395	3042.4366	3047.0607	3055.503	3083.4929	3099.8548	3114.509	3127.6468	3189.271	3215.736
N#CC12CC3CCC1C23	N#C[C@@]12C[C@H]3CC[C@@H]1[C@@H]23	
InChI=1S/C8H9N/c9-4-8-3-5-1-2-6(8)7(5)8/h5-7H,1-3H2	InChI=1S/C8H9N/c9-4-8-3-5-1-2-6(8)7(5)8/h5-7H,1-3H2/t5-,6-,7+,8+/m1/s1
