18
gdb 102789	2.23866	1.06419	0.81092	3.1438	70.42	-0.2424	-0.0263	0.216	1415.8562	0.143825	-476.248169	-476.237401	-476.236457	-476.285683	36.115	
C	-0.1159874278	 1.5290935769	-0.3232246257	-0.24862
O	 0.1537568595	 0.1774843292	 0.0044347778	-0.228816
C	 0.653112144	-0.5923805212	-1.0529652236	 0.00997
C	 1.0531843078	-1.954751784	-0.4575305529	-0.288772
C	 2.1857705351	-1.830824287	 0.5411790643	 0.148117
O	 3.1815334979	-2.5087864706	 0.5147972178	-0.241063
C	-0.4028118297	-0.8078124987	-2.1647853069	 0.369451
N	 0.1223495964	-1.1303207368	-3.3810155558	-0.519865
O	-1.5934003826	-0.7120236356	-1.9561342001	-0.348912
H	 0.7851344315	 2.034812704	-0.7031145254	 0.102768
H	-0.9184217677	 1.6092854906	-1.0647053947	 0.137802
H	-0.4316499914	 2.0183110805	 0.6004026202	 0.13402
H	 1.5396617101	-0.1050762532	-1.4996670095	 0.072872
H	 0.1681888173	-2.3465604323	 0.0605563899	 0.150559
H	 1.3466508597	-2.6630263506	-1.2360033974	 0.118617
H	 2.0332785325	-1.0509084274	 1.3155849245	 0.100265
H	 1.1112745842	-1.213713823	-3.5399347577	 0.26449
H	-0.5085275169	-1.3574322708	-4.1323865947	 0.267117
35.8907	56.6194	75.6647	121.0836	154.5645	168.2844	194.2136	234.3565	292.7978	305.7129	435.3714	463.4917	509.0148	569.1673	649.7045	727.497	823.4081	839.2923	921.9224	1017.426	1080.9972	1087.6031	1105.9446	1166.5721	1179.7075	1203.6617	1245.9457	1272.1657	1307.1231	1344.9781	1399.5931	1418.3655	1449.8051	1480.3499	1486.3455	1511.582	1619.3188	1809.776	1828.4719	2925.4854	2930.3886	2987.9933	3038.9996	3074.226	3116.6337	3129.8419	3599.9462	3734.3699
COC(CC=O)C(N)=O	CO[C@@H](CC=O)C(=O)N	
InChI=1S/C5H9NO3/c1-9-4(2-3-7)5(6)8/h3-4H,2H2,1H3,(H2,6,8)	InChI=1S/C5H9NO3/c1-9-4(2-3-7)5(6)8/h3-4H,2H2,1H3,(H2,6,8)/t4-/m0/s1
