23
gdb 90971	3.59741	1.28039	1.18849	0.3365	89.92	-0.2603	0.0866	0.3469	1172.2863	0.208629	-351.104314	-351.09659	-351.095646	-351.136609	32.359	
C	-0.245735761	 1.5387776539	-0.0028053097	-0.402472
C	 0.0489215496	 0.0386892918	 0.0225229452	 0.075148
C	 0.7688421146	-0.4740701748	-1.2829781489	-0.305099
C	 1.5311195577	-1.6987095128	-0.7763677806	 0.032754
C	 3.061405593	-2.0396105142	-0.727351868	-0.084303
C	 3.3028159444	-0.6671569333	-0.056121377	-0.25464
C	 2.0119698438	-1.2478088744	 0.6173132852	 0.365651
C	 2.7845897389	-2.5984734981	 0.7182145205	-0.3031
C	 0.9216304699	-0.4168431055	 1.2630790899	-0.387726
H	 0.6832075951	 2.1194773792	-0.0499855768	 0.112038
H	-0.8521430301	 1.8103173396	-0.8739113394	 0.110971
H	-0.7902813149	 1.8558848979	 0.8931104982	 0.112002
H	-0.9082573041	-0.4922965962	 0.0906058394	 0.073284
H	 0.0407228661	-0.7067192318	-2.0654093996	 0.089725
H	 1.422550949	 0.3074149156	-1.6812604219	 0.099557
H	 0.8862501768	-2.585843699	-0.7645137826	 0.057314
H	 3.6733511444	-2.5176712873	-1.4944369605	 0.065827
H	 4.1835774525	-0.5893562247	 0.5881272835	 0.083157
H	 3.2013103301	 0.2247049533	-0.6755694683	 0.08972
H	 2.175720999	-3.5050225648	 0.7844534717	 0.087868
H	 3.646390182	-2.6416533009	 1.3903778801	 0.086886
H	 1.3188262184	 0.4429677551	 1.8133155024	 0.09574
H	 0.3146962147	-0.9977964285	 1.9649408871	 0.099697
44.5745	237.9468	253.1238	315.9357	350.9837	407.4116	433.894	488.8305	571.2827	618.0653	707.8046	750.3571	776.4839	814.6309	845.1744	878.3762	902.973	920.3214	938.3436	953.1761	970.2936	1006.4139	1024.3705	1058.7203	1071.1569	1086.4659	1111.4779	1129.3454	1138.7807	1144.1253	1158.2598	1195.2322	1208.7473	1215.3687	1233.6484	1259.271	1262.4497	1294.6822	1303.6903	1344.9948	1358.3745	1401.3886	1409.4273	1485.8872	1490.152	1495.8087	1498.7397	1509.7622	1546.4131	3019.6335	3022.0967	3025.1497	3040.3838	3043.6903	3052.459	3059.9014	3080.3182	3087.6483	3092.7159	3093.6491	3096.5401	3110.0963	3130.0629
CC1CC2C3CC2(C3)C1	C[C@H]1C[C@H]2[C@H]3C[C@@]2(C3)C1	
InChI=1S/C9H14/c1-6-2-8-7-4-9(8,3-6)5-7/h6-8H,2-5H2,1H3	InChI=1S/C9H14/c1-6-2-8-7-4-9(8,3-6)5-7/h6-8H,2-5H2,1H3/t6-,7-,8-,9+/m0/s1
