18
gdb 88131	2.72085	1.44838	1.0837	4.2224	73.	-0.2374	0.0131	0.2505	1144.1996	0.148142	-439.117353	-439.10883	-439.107886	-439.150736	31.59	
C	-0.0352938385	 1.5297262067	-0.1006755437	-0.427133
C	-0.0462734685	 0.0380624463	 0.1069578654	 0.0132
O	 1.1929150374	-0.661640286	-0.0707199813	-0.288661
C	 0.6170959467	-0.6157608384	 1.2406057242	 0.292417
C	 1.3755918648	 0.0492473223	 2.3765024778	-0.323401
C	 1.6459382144	-1.1050337091	 3.375665721	-0.172951
N	 0.6572359773	-2.106244218	 3.0031457873	-0.329554
C	 0.1034227347	-1.9495774546	 1.7632579603	 0.371473
O	-0.6453021146	-2.7139154945	 1.1959517968	-0.37866
H	 0.8366700019	 1.9936531075	 0.366840958	 0.123865
H	-0.0144347588	 1.763361321	-1.1699793568	 0.135411
H	-0.9411018474	 1.9786177029	 0.3210637595	 0.126095
H	-0.8986848152	-0.4985793439	-0.3113407385	 0.114398
H	 2.296147684	 0.5189596421	 2.0279417645	 0.130414
H	 0.7564210651	 0.8175648793	 2.8499207695	 0.122078
H	 2.6676758954	-1.4934088415	 3.2720043562	 0.119221
H	 1.5135586625	-0.7878855959	 4.414529605	 0.117182
H	 0.5410736788	-2.9742491663	 3.5019641847	 0.254606
71.8612	149.8521	160.6657	184.4399	192.0796	303.7316	358.1054	448.3092	514.5667	541.5649	572.099	705.3504	707.774	736.7732	795.2432	855.7234	921.756	951.5599	990.2012	1017.4347	1069.4766	1087.8583	1120.5725	1138.5864	1204.4221	1218.1289	1228.8338	1294.4245	1300.9564	1338.2247	1369.8328	1409.0123	1448.2206	1469.6983	1480.297	1490.3952	1512.4847	1537.0135	1835.4881	3014.7288	3039.1305	3056.927	3073.3021	3103.0999	3108.4654	3127.1489	3131.3007	3639.7296
CC1OC11CCNC1=O	C[C@H]1O[C@]21CCNC2=O	
InChI=1S/C6H9NO2/c1-4-6(9-4)2-3-7-5(6)8/h4H,2-3H2,1H3,(H,7,8)	InChI=1S/C6H9NO2/c1-4-6(9-4)2-3-7-5(6)8/h4H,2-3H2,1H3,(H,7,8)/t4-,6+/m1/s1
