19
gdb 29272	5.46233	0.93209	0.85418	0.5436	85.34	-0.1994	0.0264	0.2258	1406.9537	0.15979	-385.916572	-385.908094	-385.90715	-385.950113	31.925	
C	-0.1852353336	 1.5175979107	-0.0585220424	-0.499292
C	-0.0171294136	 0.0318460894	 0.0160660132	 0.270553
C	 0.1964245857	-0.8277413782	-1.0130255969	-0.121899
O	 0.2999760984	-2.1138073725	-0.5626069431	-0.196631
C	 0.1486158004	-2.0772849982	 0.7922028046	 0.411969
C	-0.0476031887	-0.7923021131	 1.1968592924	-0.412425
C	 0.2213028664	-3.3524670918	 1.5140487656	-0.102317
C	-0.3222993061	-4.6286496089	 0.8994456165	-0.264554
C	 1.1607705654	-4.4536033342	 1.0594231456	-0.264568
H	 0.5810421496	 2.0380367933	 0.5273709326	 0.128387
H	-0.1136789101	 1.8726074819	-1.0904385412	 0.122711
H	-1.1585280935	 1.8316391466	 0.335702448	 0.128406
H	 0.2963442342	-0.6952061848	-2.0779006378	 0.125196
H	-0.1970822645	-0.4621324788	 2.2137624618	 0.100211
H	 0.0921080161	-3.236325996	 2.5844754405	 0.092297
H	-0.8386989971	-5.3217527623	 1.5541264882	 0.113419
H	-0.7333427498	-4.5529640179	-0.100409092	 0.127551
H	 1.7442353653	-4.2605527166	 0.1668467297	 0.12757
H	 1.6732276756	-5.0252829986	 1.8250845347	 0.113416
56.6856	128.9114	141.8233	158.0873	266.7704	286.355	414.4629	428.1235	595.9015	622.4443	698.3283	700.0607	722.2194	792.1774	796.4832	819.8702	896.8104	908.475	968.5526	985.4013	1018.0718	1053.6529	1064.623	1066.2975	1083.4238	1126.0283	1153.2694	1164.0847	1204.1927	1219.047	1252.656	1307.6499	1371.6326	1403.2233	1420.7674	1463.5055	1482.6271	1493.9324	1499.7602	1597.5761	1662.1213	3027.5968	3077.6713	3108.8806	3137.6431	3141.0747	3171.9897	3222.2255	3237.5206	3245.9132	3273.0391
CC1=COC(=C1)C1CC1	Cc1coc(c1)C1CC1	
InChI=1S/C8H10O/c1-6-4-8(9-5-6)7-2-3-7/h4-5,7H,2-3H2,1H3	InChI=1S/C8H10O/c1-6-4-8(9-5-6)7-2-3-7/h4-5,7H,2-3H2,1H3
