19
gdb 76235	2.83478	1.50044	1.09554	1.9688	77.29	-0.2418	0.0205	0.2623	1132.7926	0.158648	-423.023361	-423.014833	-423.013889	-423.056224	32.977	
C	-0.0586152689	 1.5081732458	 0.0576620229	-0.493478
C	-0.0312819747	 0.0173043924	-0.0184587403	 0.298897
C	-0.0125123984	-0.7628275466	-1.1019719053	-0.179022
C	 0.0052944416	-2.2395665931	-0.7717696248	-0.3439
C	 0.2918214046	-2.2203794351	 0.7236107595	 0.366436
C	 0.4472849262	-3.3792754378	 1.5987353237	-0.244646
O	 1.6010552572	-2.6585559031	 1.1308969389	-0.275244
C	-0.070716228	-0.8212671205	 1.2526316412	-0.024408
O	 0.7821162722	-0.3975137396	 2.2934301964	-0.438291
H	 0.7505294754	 1.8688298169	 0.7018306018	 0.141439
H	 0.0408444691	 1.9685453801	-0.9288274974	 0.119234
H	-0.9942487046	 1.8630603329	 0.5095601718	 0.1256
H	-0.0309490839	-0.4010932588	-2.1248076215	 0.090752
H	-0.9579909943	-2.7204377188	-0.9922164176	 0.112606
H	 0.7767744593	-2.8034636255	-1.3074013698	 0.122502
H	 0.2424774098	-3.2749590064	 2.6631704242	 0.123499
H	 0.3433310689	-4.3861169776	 1.1973283585	 0.118023
H	-1.0907299031	-0.8165032584	 1.6666169281	 0.088693
H	 1.6132542117	-0.8756056469	 2.1560513996	 0.291308
80.4807	165.5382	221.9763	242.2773	259.77	285.3922	349.4398	409.6862	453.7437	487.5876	513.27	616.495	663.6744	759.4716	822.3501	858.305	882.0352	904.1861	959.4954	973.6548	1015.303	1036.6517	1068.185	1103.3569	1120.0525	1157.8683	1181.2688	1195.6437	1229.294	1263.8798	1291.8918	1310.5832	1342.0726	1408.2248	1424.9726	1443.3411	1474.3035	1477.604	1489.5615	1525.0531	1721.3527	2987.2263	3011.404	3021.5652	3065.8818	3077.3475	3085.7951	3116.8311	3174.3923	3184.5507	3724.243
CC1=CCC2(CO2)C1O	CC1=CC[C@]2(CO2)[C@H]1O	
InChI=1S/C7H10O2/c1-5-2-3-7(4-9-7)6(5)8/h2,6,8H,3-4H2,1H3	InChI=1S/C7H10O2/c1-5-2-3-7(4-9-7)6(5)8/h2,6,8H,3-4H2,1H3/t6-,7-/m0/s1
