15
gdb 29152	3.14695	1.39965	0.96941	1.9632	76.21	-0.1814	-0.0254	0.156	1134.1415	0.113574	-453.974753	-453.966847	-453.965903	-454.006743	31.218	
N	 0.0332914758	 1.3448914313	 0.0105290662	-0.57972
C	-0.0309905668	-0.0226328974	-0.005834427	 0.262817
C	-1.1666710977	-0.7711962985	 0.0038764511	-0.249043
C	-1.0760485104	-2.2004093455	 0.0505253739	 0.28279
O	-2.2659418138	-2.8722794932	 0.0649877459	-0.439196
C	 0.1321733731	-2.7930192379	 0.0805712679	-0.114756
O	 1.2894940384	-2.0501063434	 0.0566284984	-0.231149
C	 1.2805371248	-0.6901919166	-0.0001887802	 0.377934
N	 2.3554815612	-0.003333061	-0.0554869854	-0.569646
H	 0.9453867149	 1.7140880373	-0.2208737366	 0.273891
H	-0.7653810064	 1.862107177	-0.3173877685	 0.252012
H	-2.1510088607	-0.3174030899	-0.0113330241	 0.102107
H	-2.0963265179	-3.8196833487	 0.0982109952	 0.298459
H	 0.3320998112	-3.8543121948	 0.121904581	 0.112324
H	 3.1779776943	-0.6043674988	-0.0530217976	 0.221177
114.7538	197.7833	312.4972	315.5908	363.2131	366.3753	385.9305	433.847	471.9283	498.8964	527.9463	593.8359	601.4877	683.9715	712.0071	772.0054	816.4878	823.6172	855.9918	996.5155	1035.9661	1112.79	1179.0658	1202.6884	1255.9145	1288.1753	1342.4868	1434.7856	1491.06	1597.4668	1651.1337	1680.6645	1724.935	3196.7555	3229.1087	3508.0155	3560.9956	3695.8248	3820.5597
NC1=CC(O)=COC1=N	NC1=C(OC=C(C1)O)[NH]	
InChI=1S/C5H6N2O2/c6-4-1-3(8)2-9-5(4)7/h1-2,7-8H,6H2	InChI=1S/C5H7N2O2/c6-4-1-3(8)2-9-5(4)7/h2,7-8H,1,6H2
