18
gdb 64937	4.36306	0.69926	0.6585	1.5337	85.13	-0.2372	0.0243	0.2615	1727.6252	0.146648	-401.869502	-401.86026	-401.859316	-401.905171	33.763	
O	 0.3959562229	 1.224137877	 0.4125843411	-0.442972
C	 0.0527194247	-0.0984653834	 0.0830157315	 0.226237
C	-0.808710814	-0.8603481634	 1.0808715357	-0.312417
C	-1.419394309	-0.2927106688	-0.1746823886	-0.287713
C	 1.0225468918	-0.8208628088	-0.6970359363	 0.086984
C	 1.8739676618	-1.4019964538	-1.3263378306	 0.029309
C	 2.8516288638	-2.1117107694	-2.0994086465	-0.163077
C	 4.2818010588	-2.1190137574	-1.6625865701	-0.224946
N	 3.4846563508	-3.3424555072	-1.5571504134	-0.305445
H	 1.2115868494	 1.1932079627	 0.9252943477	 0.283251
H	-0.6772683181	-1.9331887486	 1.1583224619	 0.122865
H	-1.0093426423	-0.3429300275	 2.0120925924	 0.122499
H	-2.0242521411	 0.6015230638	-0.0796227813	 0.132488
H	-1.7094849122	-0.9711085835	-0.9673323419	 0.129209
H	 2.6499929946	-2.1772986025	-3.1656362228	 0.117589
H	 5.0617948169	-2.1415098453	-2.4182278121	 0.126621
H	 4.5292031535	-1.5688874458	-0.7596907426	 0.120966
H	 3.1773949877	-3.4668490279	-0.5952308643	 0.238551
21.2104	83.8192	88.6056	200.7435	211.7607	291.9376	339.4116	375.4452	467.3429	490.3354	566.9307	576.1797	619.8311	775.7219	802.8602	819.0446	879.3546	891.3434	926.3133	957.365	977.8777	997.1313	1046.5977	1054.6695	1082.2106	1114.2837	1145.5269	1193.2367	1194.7703	1237.9602	1251.8197	1296.6283	1311.7348	1370.228	1406.6576	1448.7457	1486.3826	1504.8817	2342.3135	3115.0865	3137.0295	3139.7734	3148.2081	3205.5655	3230.7816	3246.4316	3502.4752	3796.3024
OC1(CC1)C#CC1CN1	OC1(CC1)C#C[C@H]1CN1	
InChI=1S/C7H9NO/c9-7(3-4-7)2-1-6-5-8-6/h6,8-9H,3-5H2	InChI=1S/C7H9NO/c9-7(3-4-7)2-1-6-5-8-6/h6,8-9H,3-5H2/t6-/m0/s1
