18
gdb 64394	2.22449	1.63985	1.21661	3.6184	71.37	-0.2723	0.018	0.2903	1072.7615	0.146695	-439.101971	-439.092936	-439.091992	-439.13573	33.459	
C	-0.4030129338	 1.5359635148	-0.0806502579	-0.47265
C	 0.0040705003	 0.0688151996	-0.0218488776	 0.357215
O	-1.118617542	-0.7856558434	-0.2116145696	-0.463339
C	 1.0397834771	-0.3743042824	-1.0631693078	-0.25628
C	 1.5748956063	-1.6770332348	-0.4644440327	-0.075405
O	 1.4563629362	-1.5444952269	 0.9651664521	-0.259303
C	 0.7327290827	-0.3752007156	 1.2884403598	-0.061886
C	 1.6442048802	 0.6583580663	 1.8236375537	 0.2797
N	 2.3561853859	 1.471068114	 2.2341416469	-0.336301
H	 0.4581960329	 2.2013525292	 0.010461538	 0.151045
H	-0.9060866027	 1.7347240838	-1.0307001668	 0.133769
H	-1.0999079615	 1.781141654	 0.7301252073	 0.11712
H	-1.8165411869	-0.5127301402	 0.3937195016	 0.283119
H	 0.5779790893	-0.5118704708	-2.0421577689	 0.123565
H	 1.8288888045	 0.378542075	-1.1433569771	 0.124587
H	 0.9767415643	-2.5375308358	-0.7823837086	 0.121118
H	 2.6245952633	-1.864541815	-0.7083218184	 0.115714
H	-0.0030089662	-0.6144662017	 2.0659483261	 0.118213
57.7194	145.3448	155.852	221.8076	228.5983	283.604	302.5449	369.1025	395.0057	419.7194	511.2817	558.358	609.3439	702.3945	787.7618	878.9211	911.3549	935.4093	949.097	971.8286	1004.2657	1027.7944	1089.6999	1135.2054	1169.4867	1182.3786	1208.9076	1252.5598	1278.2566	1318.6559	1341.7234	1378.9755	1403.6362	1413.5018	1475.5176	1490.8191	1494.3629	1523.2944	2350.3497	3032.9638	3037.233	3045.3395	3069.0525	3091.2593	3104.0615	3132.4519	3137.5454	3807.532
CC1(O)CCOC1C#N	C[C@@]1(O)CCO[C@H]1C#N	
InChI=1S/C6H9NO2/c1-6(8)2-3-9-5(6)4-7/h5,8H,2-3H2,1H3	InChI=1S/C6H9NO2/c1-6(8)2-3-9-5(6)4-7/h5,8H,2-3H2,1H3/t5-,6+/m0/s1
