15
gdb 28537	3.23416	1.43285	0.99401	2.213	73.74	-0.1915	-0.0037	0.1878	1113.9532	0.114988	-450.200141	-450.192045	-450.191101	-450.23218	31.611	
N	-0.0148692271	 1.3479775632	-0.0713438114	-0.559898
C	 0.0105199982	-0.0285953568	-0.0658490642	 0.410766
N	-1.1666971846	-0.6562242043	-0.1099521061	-0.331885
C	-1.0982315582	-1.9955406981	-0.1630595047	-0.112443
C	 0.0864540403	-2.6942161747	-0.1741947246	 0.256542
O	 0.220092096	-4.0617283947	-0.2217746422	-0.467003
C	 1.2708058409	-1.9264485806	-0.1112573072	 0.333876
N	 2.4886890488	-2.5433105993	-0.1427916932	-0.569714
N	 1.2268951088	-0.5992529323	-0.0483203206	-0.381515
H	 0.8191995795	 1.7963144616	 0.2713033906	 0.252226
H	-0.8895221208	 1.7577337275	 0.2143479835	 0.254416
H	-2.0485088032	-2.5306145236	-0.1939490147	 0.090654
H	-0.6546847187	-4.4636017366	-0.2243864994	 0.298046
H	 2.5172370215	-3.5250110898	 0.0765671277	 0.268331
H	 3.2779761786	-1.9816109814	 0.1320291864	 0.257602
130.9956	220.323	242.5532	291.6559	335.1779	370.8282	402.9891	438.5492	449.6738	487.0149	502.6205	511.4278	552.5834	598.0215	738.7615	783.8355	792.8237	817.2685	939.9098	984.2749	1061.5831	1155.2563	1185.7332	1293.6194	1313.4299	1338.0349	1415.1089	1482.9927	1524.0175	1610.8118	1619.4272	1648.9434	1656.7968	3113.8519	3595.7929	3599.7103	3718.541	3726.4897	3822.3318
NC1=NC=C(O)C(N)=N1	Nc1ncc(O)c(N)n1	
InChI=1S/C4H6N4O/c5-3-2(9)1-7-4(6)8-3/h1,9H,(H4,5,6,7,8)	InChI=1S/C4H6N4O/c5-3-2(9)1-7-4(6)8-3/h1,9H,(H4,5,6,7,8)
