19
gdb 97864	4.64397	0.63309	0.60672	2.022	81.49	-0.2411	0.0308	0.2719	1852.6049	0.159239	-422.989398	-422.979713	-422.978769	-423.026892	33.301	
O	 0.4557253846	 0.8026192615	-0.715360176	-0.40986
C	-0.0862930663	 0.3542570641	 0.5221482686	-0.216448
C	-1.3509344755	-0.3294747461	 0.2847447028	 0.107062
C	-2.3991778466	-0.8958835819	 0.1102217594	 0.053245
C	-3.6522801238	-1.5926309526	-0.1261503204	-0.162641
C	-4.4819289685	-1.0561750102	-1.3312380642	-0.249167
C	-5.0955153461	-2.3404758047	-1.9472757505	-0.077469
O	-4.7365360233	-3.4235000036	-1.093446153	-0.241513
C	-3.5010775904	-3.0860099465	-0.4990184871	-0.089677
H	 1.2885399645	 1.2439357146	-0.5192229748	 0.289069
H	 0.6062588164	-0.3354627761	 1.0322432976	 0.115337
H	-0.2565031372	 1.1984804403	 1.210510556	 0.115355
H	-4.2716280338	-1.5401527968	 0.7768311532	 0.107832
H	-5.2414055	-0.3440961458	-1.0028627584	 0.115013
H	-3.8314265585	-0.5450675384	-2.0436396916	 0.123825
H	-6.1869864029	-2.3166019759	-2.0063223929	 0.110108
H	-4.701442778	-2.5082903113	-2.960518407	 0.097007
H	-2.6600866974	-3.2147157761	-1.1995633355	 0.097353
H	-3.3449716573	-3.7369670143	 0.3641012038	 0.115569
15.1222	37.9279	86.3501	99.5174	207.5377	225.3677	270.5737	308.5222	384.8511	506.4255	540.8982	595.0817	690.0953	798.7319	838.569	901.252	939.0142	966.311	992.6715	1027.6855	1050.3971	1060.9594	1099.3036	1132.9994	1171.0495	1224.8042	1229.7974	1246.392	1256.139	1273.9877	1288.5522	1301.7406	1330.1537	1368.4412	1401.113	1460.1184	1499.4642	1503.9801	1509.9919	1528.4679	2369.8998	2960.5987	2977.1248	2977.8533	2993.2075	3036.7602	3077.2861	3084.9125	3106.0671	3126.9712	3816.9946
OCC#CC1CCOC1	OCC#C[C@H]1CCOC1	
InChI=1S/C7H10O2/c8-4-1-2-7-3-5-9-6-7/h7-8H,3-6H2	InChI=1S/C7H10O2/c8-4-1-2-7-3-5-9-6-7/h7-8H,3-6H2/t7-/m0/s1
