22
gdb 120514	4.90201	0.65418	0.63234	4.2306	87.61	-0.2987	0.0345	0.3332	1839.297	0.194125	-367.230505	-367.22064	-367.219696	-367.266302	35.761	
C	 0.124732801	 1.6904117061	-0.0041281323	-0.380298
C	 0.1143689293	 0.1596310791	-0.0213200959	-0.16545
C	 0.6414274021	-0.4596642403	 1.2792438339	-0.19583
C	 0.6431034727	-1.9815755773	 1.2699231814	 0.054615
C	 1.6483230226	-2.7280446525	 0.3457576181	-0.238072
C	 1.914415071	-3.7530795414	 1.4992340239	-0.163082
C	 1.2522992489	-2.7330471917	 2.4856911132	-0.257979
C	 1.1753305725	-4.9984714514	 1.3591283334	 0.271832
N	 0.5792731011	-5.9833238958	 1.245850952	-0.329937
H	 1.1390666828	 2.0779873369	 0.1427111099	 0.114108
H	-0.2563763469	 2.1033279874	-0.9431420914	 0.114376
H	-0.497774413	 2.0809605789	 0.8085429586	 0.115689
H	-0.9069706233	-0.1998706794	-0.2025905357	 0.099316
H	 0.7166520971	-0.201320939	-0.8652783632	 0.099846
H	 1.6631886255	-0.0991929836	 1.4680373087	 0.087879
H	 0.0335714631	-0.1054765166	 2.1235720675	 0.097612
H	-0.3707431737	-2.3522929326	 1.0800753476	 0.089067
H	 1.2812146534	-3.134068289	-0.5976194135	 0.123818
H	 2.546441111	-2.1336350146	 0.1535743261	 0.108979
H	 2.9631275818	-3.9906809359	 1.6926102776	 0.120879
H	 2.0210034133	-2.1402104141	 2.9895276071	 0.109499
H	 0.5696716478	-3.1406756133	 3.2326002328	 0.123134
43.5162	81.3262	92.2698	129.5504	200.3224	228.1131	242.4603	316.2399	369.9338	422.3567	502.8869	568.7392	704.7846	745.4089	789.0103	814.0719	856.1507	892.988	906.12	932.576	977.8934	994.3943	1032.8353	1051.8088	1082.278	1115.3492	1140.0624	1155.0873	1186.6566	1220.1744	1255.4136	1270.2549	1271.1385	1289.4645	1316.3133	1332.8203	1345.1469	1379.6924	1401.1277	1413.0772	1472.3192	1481.3527	1491.578	1496.7315	1498.5862	1510.272	2350.3004	2998.7085	3017.1415	3026.9509	3029.9105	3042.1032	3055.8878	3061.3869	3065.4841	3083.6337	3096.0995	3103.2617	3128.9905	3130.712
CCCC1CC(C1)C#N	CCC[C@H]1C[C@@H](C1)C#N	
InChI=1S/C8H13N/c1-2-3-7-4-8(5-7)6-9/h7-8H,2-5H2,1H3	InChI=1S/C8H13N/c1-2-3-7-4-8(5-7)6-9/h7-8H,2-5H2,1H3/t7-,8-
