15
gdb 61322	6.96136	0.58717	0.55359	1.9487	91.07	-0.2436	-0.0162	0.2274	1883.922	0.108355	-383.392711	-383.382776	-383.381831	-383.428114	35.485	
O	-0.0850457899	 1.4434301957	 0.0415818599	-0.40239
C	 0.0084798821	 0.0305089549	 0.0461123265	-0.045943
C	 0.6491940455	-0.5174787635	-1.2629119587	-0.409494
C	-0.0801379158	-0.1214301912	-2.4542439691	 0.392114
C	-0.6943795081	 0.2006966623	-3.4455281708	-0.236965
C	-1.3849460169	 0.5640473398	-4.5600951331	 0.295227
C	-1.9971851891	 0.8851280186	-5.5501815298	-0.558441
C	 0.7435504414	-0.4719412509	 1.2102720086	 0.295975
C	 1.3906115313	-0.8605122652	 2.1458143552	-0.43793
H	 0.8000895825	 1.7998741241	 0.1784014996	 0.288493
H	-1.0279194862	-0.3220253115	 0.0879455956	 0.135566
H	 1.6866808229	-0.1618340192	-1.3146329169	 0.137867
H	 0.700543916	-1.6112108467	-1.1944731006	 0.149729
H	-2.536302698	 1.1691761783	-6.4194732455	 0.190648
H	 1.9407424523	-1.2068497954	 2.9861536991	 0.205543
45.7754	62.4201	153.3716	159.0089	197.0556	231.8854	301.0035	354.3397	359.102	440.92	513.4165	538.2692	547.342	569.4785	592.7809	598.1995	649.2965	678.488	747.5795	850.5022	944.5809	1025.0689	1080.8626	1180.4528	1191.6832	1274.0038	1310.9775	1351.8286	1422.097	1456.9041	2183.5018	2233.532	2366.5339	3020.5996	3052.258	3066.5097	3501.3774	3505.9738	3803.3146
OC(CC#CC#C)C#C	O[C@@H](CC#CC#C)C#C	
InChI=1S/C8H6O/c1-3-5-6-7-8(9)4-2/h1-2,8-9H,7H2	InChI=1S/C8H6O/c1-3-5-6-7-8(9)4-2/h1-2,8-9H,7H2/t8-/m1/s1
