19
gdb 106736	2.50958	1.50619	1.12761	0.7634	76.41	-0.2275	0.0201	0.2476	1120.647	0.15843	-423.010965	-423.00215	-423.001206	-423.044339	33.91	
O	-0.0348137479	 1.2707079048	-0.5065179852	-0.427108
C	-0.011085462	-0.030200595	 0.076507253	-0.17961
C	-1.4182983039	-0.5479420917	 0.1284277286	 0.317859
C	-2.0091996265	-1.1518700225	-1.134375133	-0.377708
C	-1.7186974897	-2.0374933052	 0.0556571378	 0.309207
O	-0.6875931291	-2.9794389529	 0.0014569706	-0.473117
C	-2.8664160313	-2.2557000992	 0.9909917365	-0.13386
C	-3.26020743	-1.1135473698	 1.5562518976	-0.08142
C	-2.4041406801	 0.060598738	 1.1277713909	-0.333672
H	 0.8592368405	 1.6244734773	-0.4747255013	 0.283948
H	 0.6133721606	-0.7232641951	-0.5053189316	 0.092467
H	 0.4044211007	 0.0073661657	 1.0964977666	 0.085683
H	-3.0427942785	-0.948344516	-1.3955415304	 0.109173
H	-1.3254575629	-1.2225499715	-1.975406663	 0.110727
H	-0.8776100612	-3.58984226	-0.7181677641	 0.284922
H	-3.3107409002	-3.2334419947	 1.1390799599	 0.092873
H	-4.1070273796	-1.0027134846	 2.2240307767	 0.094685
H	-1.881629481	 0.5118471034	 1.9825577956	 0.106169
H	-3.0004648478	 0.8632142291	 0.6771470249	 0.118783
60.5574	141.878	200.3949	248.0175	272.3905	286.9627	305.2867	365.7555	443.5837	468.1262	509.4092	610.5489	705.4583	741.2956	772.5183	796.9435	909.1051	927.853	942.2095	952.7034	967.4262	981.8682	1002.749	1054.7764	1058.4361	1095.66	1145.1573	1177.8863	1210.041	1230.4341	1253.4787	1269.9499	1323.2449	1329.6315	1379.1481	1396.4323	1462.8234	1467.6687	1482.7501	1519.5949	1669.5575	2968.6862	3013.1402	3015.8067	3052.546	3117.1288	3185.6133	3208.5177	3210.5147	3808.7435	3822.3598
OCC12CC1(O)C=CC2	OC[C@@]12C[C@]1(O)C=CC2	
InChI=1S/C7H10O2/c8-5-6-2-1-3-7(6,9)4-6/h1,3,8-9H,2,4-5H2	InChI=1S/C7H10O2/c8-5-6-2-1-3-7(6,9)4-6/h1,3,8-9H,2,4-5H2/t6-,7-/m1/s1
