22
gdb 115885	2.46367	1.44312	1.09229	1.8239	82.07	-0.2274	0.0803	0.3076	1213.7769	0.194193	-404.327367	-404.318152	-404.317208	-404.361179	34.972	
C	 0.1114642113	 1.3372820407	 0.1529332235	-0.235583
O	-0.1303025135	-0.0346371047	-0.060749161	-0.249551
C	 0.5510122309	-0.5688444339	-1.1786221751	 0.094814
C	 2.0701495674	-0.7799119242	-0.9759729399	-0.283343
C	 2.3677847084	-2.0520204248	-1.7979344153	-0.159481
N	 1.1229730522	-2.8434993667	-1.8921968414	-0.141238
C	 0.4664563946	-3.0447407173	-0.5901876346	-0.287239
C	 0.0086341273	-1.9583119107	-1.4961959526	 0.336137
C	-1.2955486208	-2.0459526313	-2.2461200681	-0.488637
H	 1.1643788061	 1.5423545664	 0.3974038705	 0.106114
H	-0.1599662146	 1.9398201867	-0.7285841288	 0.103445
H	-0.5096159774	 1.6482563782	 0.9966109117	 0.127054
H	 0.3749782064	 0.0835152282	-2.0518811102	 0.059842
H	 2.6700188425	 0.0722368088	-1.3037943045	 0.101448
H	 2.2652233301	-0.925634147	 0.0909842724	 0.114704
H	 2.6626836718	-1.7922364943	-2.8206692993	 0.107183
H	 3.1710846687	-2.6607340426	-1.3706502847	 0.107111
H	-0.1203917089	-3.9563812631	-0.5208623893	 0.110847
H	 0.9987257647	-2.7839735336	 0.3203221046	 0.111634
H	-2.0976562754	-1.5828566511	-1.6617624037	 0.128148
H	-1.2320074071	-1.5237443959	-3.2078629102	 0.113411
H	-1.5642453347	-3.0866741979	-2.4429362838	 0.123179
86.3896	108.1849	177.1329	194.4537	217.9358	243.4719	287.971	336.5576	429.7759	458.2039	515.4747	563.3393	651.9983	726.6472	788.2006	822.3332	881.7951	932.9863	953.6507	985.0978	995.0368	1020.8484	1058.3998	1086.7988	1106.6388	1111.5263	1150.1332	1166.1726	1182.8614	1204.9768	1226.5914	1237.2368	1271.3548	1300.4807	1340.425	1351.8105	1384.5478	1402.4546	1419.3996	1479.48	1484.5671	1486.8419	1491.6028	1497.1285	1502.0533	1509.26	1522.2801	2946.0775	2973.4972	3021.7157	3030.3208	3039.4438	3056.9096	3081.044	3093.6972	3106.9732	3111.2044	3112.7706	3121.3912	3193.4086
COC1CCN2CC12C	CO[C@H]1CCN2C[C@@]12C	
InChI=1S/C7H13NO/c1-7-5-8(7)4-3-6(7)9-2/h6H,3-5H2,1-2H3	InChI=1S/C7H13NO/c1-7-5-8(7)4-3-6(7)9-2/h6H,3-5H2,1-2H3/t6-,7-,8?/m0/s1
