14
gdb 132094	3.03119	1.41613	0.97105	3.8557	70.43	-0.2242	-0.0697	0.1545	1110.2562	0.100952	-478.033924	-478.026268	-478.025324	-478.06635	28.308	
C	-0.0340087451	 1.5391660116	 0.0516811784	-0.502979
C	 0.0174299682	 0.0470468197	-0.0345157417	 0.222084
C	 0.2212392256	-0.6690029423	-1.1771826867	 0.254966
F	 0.3941164033	-0.0323172075	-2.3390823729	-0.07661
N	 0.263417103	-2.0094935901	-1.2290524767	-0.256517
C	 0.1021816815	-2.6898824998	-0.1319806329	-0.113645
C	-0.1268202969	-2.0911849126	 1.1837799257	 0.386114
O	-0.2833153114	-2.6814546778	 2.2376052263	-0.389806
N	-0.1497814398	-0.6916247721	 1.1083105535	-0.400631
H	 0.1158860153	 1.9742944217	-0.9359185941	 0.166521
H	-1.0022351461	 1.8776501812	 0.4382637902	 0.149561
H	 0.7440361439	 1.9214062312	 0.7225260192	 0.149557
H	 0.1366943906	-3.7746149051	-0.1763179109	 0.144145
H	-0.3050999821	-0.2198042381	 1.9900703025	 0.267239
107.2648	122.1179	184.0864	275.3487	355.3199	368.5359	461.2974	487.6233	498.0913	584.1602	600.2837	709.7147	711.7844	778.6996	808.3937	921.2788	931.2029	1030.6166	1060.5917	1162.5273	1202.1934	1297.6611	1320.2964	1403.8767	1415.8261	1460.1139	1485.6645	1489.6416	1576.6327	1669.5035	1786.0202	3032.4691	3084.6058	3159.8675	3178.9351	3590.4985
CC1=C(F)N=CC(=O)N1	Cc1c(F)ncc(=O)[nH]1	
InChI=1S/C5H5FN2O/c1-3-5(6)7-2-4(9)8-3/h2H,1H3,(H,8,9)	InChI=1S/C5H5FN2O/c1-3-5(6)7-2-4(9)8-3/h2H,1H3,(H,8,9)
