16
gdb 49151	3.78429	1.12376	0.93611	3.9437	75.28	-0.2429	-0.075	0.168	1228.3101	0.123787	-437.887977	-437.880001	-437.879057	-437.921164	29.084	
O	-0.0742460711	 0.0140388237	 0.2121282092	-0.223783
C	 0.0423922399	 1.1930652747	 0.0098101644	 0.101404
C	 1.3544694661	 1.9073432508	-0.0234668485	 0.292359
N	 2.5050362057	 1.3926650024	 0.15152217	-0.301443
C	 3.4443819002	 2.4777029969	 0.0264687034	 0.327507
C	 4.6810281563	 2.4658000809	 0.8898282114	-0.309799
C	 4.7927573058	 2.2004177647	-0.5890851694	-0.31008
C	 2.6180022628	 3.7401957012	-0.2625973856	-0.180264
O	 1.2590225397	 3.2455569111	-0.268332414	-0.262529
H	-0.8238990208	 1.8613440483	-0.1719023005	 0.102133
H	 5.0290096484	 3.4204660697	 1.2718852534	 0.118762
H	 4.7937406602	 1.6291231962	 1.5689143118	 0.138183
H	 4.981339286	 1.183778193	-0.9127996646	 0.138186
H	 5.2178457028	 2.9727180073	-1.2225894093	 0.118785
H	 2.7021620415	 4.5099059345	 0.5112614937	 0.125378
H	 2.8260263465	 4.1889968448	-1.2393168357	 0.125201
71.5959	100.9959	167.1627	186.2294	295.7448	335.4067	428.6773	457.5705	533.808	642.0295	741.8838	778.9832	841.576	856.0631	934.3959	938.5338	962.7167	1006.4722	1016.9392	1030.9374	1054.752	1067.3084	1096.1475	1193.4192	1198.8399	1209.1035	1262.055	1342.8914	1389.2408	1430.1443	1454.5732	1492.1251	1521.3136	1688.2316	1830.8312	2931.916	3039.1567	3083.393	3131.2218	3134.3118	3221.843	3235.4971
O=CC1=NC2(CC2)CO1	O=CC1=NC2(CC2)CO1	
InChI=1S/C6H7NO2/c8-3-5-7-6(1-2-6)4-9-5/h3H,1-2,4H2	InChI=1S/C6H7NO2/c8-3-5-7-6(1-2-6)4-9-5/h3H,1-2,4H2
