14
gdb 5134	5.59265	1.31571	1.19412	0.8466	68.98	-0.2215	0.0142	0.2357	995.2445	0.107046	-345.396532	-345.389366	-345.388422	-345.428602	26.441	
C	-0.0169304204	-1.2503222984	 0.2984574516	-0.454451
C	 0.0072782138	-0.0611276065	 0.1323614934	 0.315911
C	 0.0368242332	 1.388203908	-0.0670739901	-0.459334
C	 1.4177106984	 1.9590343748	-0.1634038179	 0.377154
C	 2.1000704992	 2.5750846121	-1.1652753864	-0.273328
C	 3.3896343039	 2.9074244519	-0.6324721107	-0.167752
C	 3.3875752524	 2.4661249413	 0.6506580155	-0.016776
O	 2.1938341647	 1.8876452698	 0.9534238408	-0.170172
H	-0.0340801405	-2.3016242394	 0.4456915809	 0.19857
H	-0.4974789991	 1.6458862018	-0.9883616426	 0.146873
H	-0.5087869473	 1.875705268	 0.7524766849	 0.148627
H	 1.7336545657	 2.766306881	-2.1618110869	 0.10953
H	 4.2005382143	 3.4054641357	-1.1400831762	 0.111685
H	 4.1127526917	 2.4826591998	 1.4471872236	 0.133463
48.3816	101.6682	264.1381	311.0955	329.4719	451.3234	615.1422	620.664	634.6312	650.7036	744.3324	763.0135	809.2439	849.8266	900.4862	912.745	942.0986	973.3718	1035.53	1106.5191	1178.1007	1201.8577	1240.2571	1280.0807	1336.7255	1419.2564	1452.6731	1539.5679	1638.0191	2243.4597	3015.7842	3069.0227	3251.6827	3263.0511	3287.0492	3506.7547
C#CCC1=CC=CO1	C#CCc1ccco1	
InChI=1S/C7H6O/c1-2-4-7-5-3-6-8-7/h1,3,5-6H,4H2	InChI=1S/C7H6O/c1-2-4-7-5-3-6-8-7/h1,3,5-6H,4H2
