17
gdb 36304	3.85968	1.05447	1.0078	1.4478	73.42	-0.2477	0.0568	0.3045	1218.0408	0.135285	-421.759614	-421.751476	-421.750532	-421.793212	30.389	
C	 0.0064911972	-1.1302438474	-0.3045153943	-0.453455
C	-0.0218276859	 0.0473521149	-0.0663372237	 0.30731
C	-0.0318652878	 1.4757748266	 0.2319732244	-0.369058
C	 1.3536030248	 2.0932975832	 0.1368019364	-0.075406
C	 1.8574697635	 2.7469248389	-1.1359565226	 0.044061
O	 0.87633267	 3.0829739941	-2.0932309752	-0.250111
C	 0.3750835177	 4.3439658245	-1.6860424643	 0.02122
O	 0.4288846872	 4.3663090334	-0.2696407388	-0.251219
C	 1.5616337123	 3.592896874	 0.0667928086	 0.012867
H	 0.0173887902	-2.1693478587	-0.5212303374	 0.193795
H	-0.7067468876	 1.9914502628	-0.4568471675	 0.146923
H	-0.433993952	 1.6376955421	 1.2399781194	 0.133998
H	 2.1221265772	 1.5650966642	 0.6958931075	 0.103614
H	 2.8453558488	 2.5503669036	-1.537493468	 0.107321
H	 0.9914224803	 5.1569276834	-2.1061377187	 0.09603
H	-0.6650052397	 4.439329933	-2.0087330561	 0.124825
H	 2.3028456538	 4.1023848274	 0.6731443603	 0.107285
36.5274	113.3871	177.2346	208.1833	266.0562	332.5751	430.3771	544.2603	602.4186	616.4021	641.8994	728.2139	751.0327	779.2442	803.9851	900.14	946.3647	959.3702	972.5747	1045.4943	1062.6588	1066.2376	1096.7742	1111.7759	1120.8993	1175.5462	1198.9911	1225.8147	1245.4178	1300.7667	1310.5501	1361.1586	1421.9992	1423.7181	1461.1936	1536.8374	2240.3845	2959.9497	3031.4861	3089.5531	3099.3094	3143.2725	3161.4735	3173.2466	3508.487
C#CCC1C2OCOC12	C#CC[C@H]1[C@H]2OCO[C@@H]12	
InChI=1S/C7H8O2/c1-2-3-5-6-7(5)9-4-8-6/h1,5-7H,3-4H2	InChI=1S/C7H8O2/c1-2-3-5-6-7(5)9-4-8-6/h1,5-7H,3-4H2/t5-,6+,7-
