20
gdb 74474	2.9989	1.4095	1.10374	1.6439	87.2	-0.2085	0.0161	0.2246	1163.5647	0.172127	-365.989865	-365.981829	-365.980885	-366.022085	32.189	
C	-0.0194558561	 1.4958332526	 0.0722534649	-0.494745
C	-0.0150770298	 0.0022482922	 0.0026878116	 0.317861
C	-0.0020333128	-0.7666738327	-1.0943719278	-0.282579
C	-0.0121180082	-2.2200683601	-0.7598048082	 0.360474
C	-0.7218474251	-3.2183723812	-1.6055005788	-0.299378
N	 0.7488965071	-3.2129721098	-1.5515173271	-0.362835
C	 0.0454994053	-2.2857437818	 0.7496448978	-0.113972
C	 1.2610787981	-1.6931079371	 1.4145872596	-0.28585
C	 0.0115694649	-0.850537029	 1.2371064871	-0.143203
H	 0.8569025961	 1.8687788096	 0.6173902326	 0.129806
H	-0.0226329726	 1.9474011956	-0.9233871437	 0.122079
H	-0.9006414866	 1.8628068632	 0.6139915705	 0.126674
H	 0.0446933836	-0.4060304683	-2.1173359216	 0.084418
H	-1.1896922024	-4.0812845561	-1.1366528735	 0.115539
H	-1.2219745119	-2.8666402587	-2.5049652721	 0.107022
H	 1.1241656122	-2.7684711102	-2.3868118249	 0.226978
H	-0.4936222364	-3.0740217847	 1.2610113208	 0.086021
H	 1.4902038573	-2.0440586614	 2.4154398365	 0.108361
H	 2.1262087142	-1.4608248332	 0.8024006361	 0.114632
H	-0.5477078869	-0.545796829	 2.1154981605	 0.082697
119.3482	183.3195	185.956	238.6224	270.5174	356.4461	412.1715	474.8409	513.1926	596.1862	616.9136	763.58	800.9303	828.2522	842.4436	855.954	897.5477	937.7992	947.2806	955.4565	985.6453	1012.619	1040.3281	1059.6167	1061.3499	1079.1241	1086.8142	1096.3652	1132.0955	1167.1173	1197.3994	1259.4733	1266.0192	1304.9299	1339.2098	1373.3005	1411.2411	1421.2231	1477.4317	1477.7786	1489.1356	1507.5291	1698.7562	3017.2951	3062.9491	3094.3938	3111.3351	3126.0781	3161.6044	3176.4344	3179.555	3182.2079	3216.4601	3485.3639
CC1=CC2(CN2)C2CC12	CC1=C[C@]2(CN2)[C@H]2C[C@@H]12	
InChI=1S/C8H11N/c1-5-3-8(4-9-8)7-2-6(5)7/h3,6-7,9H,2,4H2,1H3	InChI=1S/C8H11N/c1-5-3-8(4-9-8)7-2-6(5)7/h3,6-7,9H,2,4H2,1H3/t6-,7-,8-/m0/s1
