18
gdb 75280	3.08599	1.45898	1.14111	3.8458	78.04	-0.2417	0.0091	0.2508	1096.7689	0.148908	-401.98334	-401.975544	-401.9746	-402.015656	29.919	
C	-0.1442958152	 1.4753865269	-0.0109765888	-0.495869
C	-0.0559140082	-0.0170518174	-0.0320896435	 0.316973
C	-0.0065637687	-0.826399172	-1.0955123125	-0.171638
C	 0.1325380876	-2.2887225797	-0.7172488502	-0.23969
N	-0.0069181021	-2.2359400767	 0.7436064408	-0.101449
C	 0.0705778296	-0.8331206969	 1.2358837515	-0.079926
C	-1.1837174153	-1.1004576099	 2.1186062004	-0.393358
C	-1.2468001063	-2.4479034213	 1.3674508007	 0.399525
O	-2.0452870702	-3.3333805013	 1.2446240837	-0.337662
H	 0.7272642427	 1.9138880903	 0.4915553355	 0.131233
H	-0.1987071199	 1.8909934031	-1.0201721271	 0.130649
H	-1.0269719495	 1.8149257021	 0.5450933262	 0.131835
H	-0.0275419993	-0.4980382174	-2.1288156109	 0.099661
H	-0.6505029503	-2.9320736381	-1.1335922575	 0.139589
H	 1.1007334274	-2.706346096	-1.0242053468	 0.117601
H	 0.98427007	-0.5953413027	 1.7945105613	 0.087058
H	-1.0107146446	-1.164618434	 3.1948204608	 0.131787
H	-2.0483092976	-0.4623454289	 1.9247146263	 0.133682
94.4503	163.417	192.3179	227.5088	283.4826	337.8624	456.1353	539.367	556.9472	577.9589	682.204	748.6887	781.5048	815.638	841.2775	939.4626	985.8226	1000.0261	1003.9757	1031.4525	1049.3944	1063.0879	1092.1002	1115.8765	1187.6242	1202.8272	1208.415	1243.2904	1279.7214	1308.7261	1335.9733	1356.2958	1417.3958	1450.1475	1479.6494	1488.1788	1503.8559	1706.3697	1884.7375	3014.4412	3020.061	3027.9669	3066.5708	3069.793	3079.6685	3117.0771	3137.2372	3197.1222
CC1=CCN2C1CC2=O	CC1=CCN2[C@@H]1CC2=O	
InChI=1S/C7H9NO/c1-5-2-3-8-6(5)4-7(8)9/h2,6H,3-4H2,1H3	InChI=1S/C7H9NO/c1-5-2-3-8-6(5)4-7(8)9/h2,6H,3-4H2,1H3/t6-/m1/s1
