19
gdb 43948	3.10589	1.53111	1.42805	2.7933	80.29	-0.2396	-0.0139	0.2257	992.8187	0.161194	-385.828497	-385.821559	-385.820615	-385.859618	28.994	
O	-0.1999735626	-0.0733674899	-0.4489777389	-0.276706
C	-0.109130597	 1.0828353812	-0.1887350714	 0.321586
C	-1.1738379965	 2.2222586264	 0.182204808	-0.436817
C	-0.0044863219	 2.8127147112	 1.00433249	 0.295556
C	 1.0376900968	 3.9797405332	 1.1242077923	-0.32103
C	 2.0695287194	 2.7654608061	 1.0741232637	-0.086331
C	 1.7875381103	 2.0608588684	 2.4048019747	-0.206953
C	 0.2303718939	 2.0678925944	 2.3484093664	-0.243681
C	 1.0080239617	 2.1471778473	 0.080656493	-0.089409
H	-1.4377067983	 2.7942073881	-0.7115974412	 0.126462
H	-2.0825548409	 1.8969479916	 0.6935598554	 0.121798
H	 1.0902190316	 4.6156048981	 0.2387167245	 0.106471
H	 1.0326962459	 4.5857407592	 2.0356942196	 0.096482
H	 3.1075258757	 2.9205427644	 0.7794986249	 0.072978
H	 2.2035566431	 1.051131793	 2.4416580845	 0.109471
H	 2.187177359	 2.6223707961	 3.2541252127	 0.099112
H	-0.2329494389	 2.601781869	 3.1832520666	 0.098517
H	-0.1848500525	 1.0551495514	 2.3372314754	 0.113182
H	 1.0486168212	 2.7139059907	-0.8595913801	 0.099312
108.658	219.0621	318.919	358.6996	416.9619	462.0073	529.628	594.0672	615.1521	710.1703	723.2066	818.0398	822.5963	851.1185	875.8873	913.755	917.4842	953.6808	968.7468	974.9079	1010.4821	1036.7054	1060.9636	1071.6051	1122.716	1126.2267	1155.8445	1174.9895	1197.7167	1221.5869	1244.7806	1252.1272	1264.5163	1314.7794	1322.2507	1358.9202	1462.1657	1492.3275	1493.938	1518.328	1894.8524	3012.9548	3048.9074	3050.5666	3061.0228	3065.6264	3086.5385	3108.3165	3117.1841	3125.8674	3128.2938
O=C1CC23CC(CC2)C13	O=C1C[C@@]23C[C@@H](CC2)[C@@H]13	
InChI=1S/C8H10O/c9-6-4-8-2-1-5(3-8)7(6)8/h5,7H,1-4H2	InChI=1S/C8H10O/c9-6-4-8-2-1-5(3-8)7(6)8/h5,7H,1-4H2/t5-,7+,8+/m1/s1
