21
gdb 76911	2.32547	1.1793	1.00836	2.1416	79.7	-0.2296	0.0675	0.297	1308.5545	0.180097	-424.188382	-424.178401	-424.177457	-424.223136	37.662	
C	-0.0959449392	 1.5735741307	-0.0395208548	-0.456851
C	 0.0078409016	 0.0692598875	 0.0347328455	 0.317644
O	-1.1569342237	-0.6203201687	-0.3529615264	-0.458608
C	 1.3269026892	-0.6319095152	-0.2453872143	-0.014804
O	 2.5003496932	 0.1090326632	-0.4303660002	-0.410992
C	 0.7463865545	-0.6284789966	 1.1535202292	-0.085232
C	 1.414251992	 0.1002720984	 2.2757433809	 0.021965
C	 0.7124054489	 0.2462966221	 3.6054867104	-0.273318
C	 1.9051051313	-0.6685958193	 3.4785364212	-0.272803
H	 0.852534716	 2.0529335884	 0.2098440316	 0.130637
H	-0.3718807804	 1.8887794085	-1.0547872811	 0.096681
H	-0.8664589134	 1.9419331856	 0.6443892708	 0.130371
H	-1.3095341293	-0.441229328	-1.2882450423	 0.274376
H	 1.2711909894	-1.5677804206	-0.8025306998	 0.084995
H	 2.4858472322	 0.479109307	-1.3191575367	 0.287965
H	 0.2807858887	-1.5677952484	 1.4409121576	 0.093666
H	 2.0396816561	 0.9297230237	 1.9672769334	 0.095377
H	 0.8292049184	 1.1765601825	 4.1508586987	 0.107378
H	-0.2662258997	-0.2100213764	 3.7120819719	 0.112639
H	 1.7276775444	-1.7389396667	 3.5017437055	 0.10932
H	 2.84119579	-0.365267708	 3.9341238188	 0.109592
56.3497	123.7495	143.474	190.764	225.9662	237.7626	295.9557	306.3181	322.0311	384.3489	399.9392	488.1685	509.5507	586.6224	718.5486	767.7667	827.1485	840.187	874.7947	914.4088	928.4277	974.404	991.0458	1034.821	1058.342	1073.1429	1081.8247	1109.1939	1139.0931	1144.3302	1196.8044	1199.1237	1228.1383	1241.8503	1281.4769	1293.0543	1304.4727	1357.1543	1408.7237	1417.9735	1468.5079	1470.3746	1491.2261	1503.4071	1512.8517	3018.8552	3088.2804	3093.559	3127.8269	3132.2109	3135.0556	3143.5133	3178.6923	3205.7017	3221.85	3779.0086	3805.1522
CC1(O)C(O)C1C1CC1	C[C@@]1(O)[C@@H](O)[C@H]1C1CC1	
InChI=1S/C7H12O2/c1-7(9)5(6(7)8)4-2-3-4/h4-6,8-9H,2-3H2,1H3	InChI=1S/C7H12O2/c1-7(9)5(6(7)8)4-2-3-4/h4-6,8-9H,2-3H2,1H3/t5-,6+,7+/m1/s1
