15
gdb 43658	3.56114	1.09	0.86125	3.9969	72.16	-0.2394	-0.0949	0.1445	1257.9894	0.110711	-420.627796	-420.619526	-420.618582	-420.66106	30.619	
O	 0.0147511457	-0.0272960267	 0.2858710233	-0.273287
C	-0.0300239312	 1.1663642587	 0.1729129241	 0.310237
C	-1.2534510954	 2.054469855	 0.0141573437	-0.337462
C	-0.773901071	 3.4711952605	 0.4392374798	-0.208312
C	 0.7164050959	 3.5251536569	-0.0009767231	-0.337458
C	 1.2217873173	 2.1009524352	 0.1632608561	 0.310231
O	 2.3545836588	 1.7195952842	 0.2677862806	-0.273286
C	-1.5860019316	 4.5534989189	-0.0925484001	 0.307399
C	-2.2529973903	 5.4419142142	-0.5509740701	-0.427854
H	-1.5350134276	 2.0614602958	-1.0470783307	 0.15141
H	-2.1101095316	 1.6852187133	 0.5800730451	 0.1485
H	-0.8013550714	 3.5192390586	 1.5357157689	 0.125991
H	 0.7792597848	 3.7893047024	-1.0648457809	 0.15141
H	 1.3194276634	 4.2456486752	 0.5537526418	 0.1485
H	-2.8440792057	 6.2291899979	-0.9497246887	 0.203982
87.3898	89.0285	138.3478	240.1678	313.6461	358.1221	447.9736	462.9018	506.3852	522.232	615.7945	640.7685	646.3225	652.3059	706.2671	836.7554	896.1556	909.796	1027.713	1036.8249	1081.9702	1135.9227	1164.5346	1192.2159	1243.9737	1270.9356	1307.4603	1365.589	1440.8973	1452.8404	1845.6727	1865.1433	2241.4296	3019.3733	3036.9628	3042.9474	3125.6414	3125.9558	3502.2366
O=C1CC(CC1=O)C#C	O=C1CC(CC1=O)C#C	
InChI=1S/C7H6O2/c1-2-5-3-6(8)7(9)4-5/h1,5H,3-4H2	InChI=1S/C7H6O2/c1-2-5-3-6(8)7(9)4-5/h1,5H,3-4H2
