14
gdb 130015	5.3881	1.3214	1.06333	4.9265	71.46	-0.2004	0.0161	0.2165	1042.0706	0.105648	-429.07621	-429.069295	-429.068351	-429.1071	27.362	
N	 0.01175558	 1.3375883703	 0.1364485883	-0.594392
C	-0.0164704053	-0.0388253443	 0.0241047671	 0.387866
N	-1.1005074628	-0.7695070181	 0.0106933704	-0.393032
C	-0.6091441449	-2.066928579	 0.0048591481	 0.3774
N	-1.1374594803	-3.2848836634	-0.0216391616	-0.349248
N	-0.033429513	-4.0753887026	-0.0444042312	-0.190808
C	 1.1678769694	-3.4070887397	-0.037962145	-0.199122
C	 0.8060554151	-2.0847094613	-0.0008116073	 0.25439
N	 1.1860735516	-0.7464990146	-0.0346256569	-0.475546
H	 0.6750914297	 1.7977586692	-0.472977858	 0.253339
H	-0.9163627504	 1.7268969963	 0.0382436537	 0.269231
H	-0.1612713379	-5.0717371672	-0.0292943705	 0.271786
H	 2.1073256303	-3.9338267033	-0.0484150063	 0.127282
H	 2.0607634084	-0.3680021324	 0.2877657193	 0.260854
163.3227	305.3294	308.8427	328.4926	351.0981	368.818	429.7965	563.5882	597.2598	624.7447	664.8682	710.8785	757.4468	770.0009	779.0233	870.5935	971.2092	987.3956	1043.2066	1127.3533	1172.5373	1210.593	1267.6874	1327.1135	1449.2038	1458.4848	1469.2751	1528.2475	1596.3507	1660.7032	1689.3176	3270.9335	3548.7158	3650.2402	3659.8667	3691.6947
NC1=NC2=NNC=C2N1	Nc1nc2n[nH]cc2[nH]1	
InChI=1S/C4H5N5/c5-4-7-2-1-6-9-3(2)8-4/h1H,(H4,5,6,7,8,9)	InChI=1S/C4H5N5/c5-4-7-2-1-6-9-3(2)8-4/h1H,(H4,5,6,7,8,9)
