15
gdb 7572	3.44454	1.81263	1.43595	3.8361	57.11	-0.2502	0.0206	0.2708	870.6945	0.117704	-436.94122	-436.932954	-436.93201	-436.974716	29.555	
N	-0.0149537833	 1.3324945689	 0.4183546408	-0.534842
C	 0.0993824951	 0.0344110236	 0.0520367842	 0.375497
O	 1.1540053413	-0.5239261051	-0.189350412	-0.375162
C	-1.2192610094	-0.7318075065	-0.0486558144	 0.251634
O	-2.2892319215	 0.1296973459	 0.2774708817	-0.499016
C	-1.3827790687	-1.5729521651	-1.3428761201	-0.11704
O	-1.5107278875	-2.7951497952	-0.5917194385	-0.269938
C	-1.216858706	-2.1198552786	 0.6460283398	-0.117047
H	 0.8201689757	 1.8872878635	 0.5011697807	 0.263622
H	-0.9188371204	 1.7315290136	 0.6033640315	 0.278619
H	-3.1153786794	-0.3596847127	 0.211922595	 0.293361
H	-2.283840896	-1.3362792596	-1.9233935515	 0.096466
H	-0.5023781025	-1.5766081441	-1.992862349	 0.128684
H	-0.2477283408	-2.4158528368	 1.0592696	 0.128693
H	-2.0068204268	-2.2493745419	 1.3970969117	 0.096467
33.2668	75.0828	232.6057	252.2368	275.8843	293.5245	383.6172	411.5322	421.675	539.2723	620.8931	653.4149	757.6324	842.5368	895.7746	938.7816	986.9291	1044.1382	1063.8506	1086.8595	1102.7252	1160.1285	1161.0057	1236.9418	1300.522	1301.4089	1368.2693	1436.4016	1490.4623	1517.1898	1599.3499	1797.8731	3011.8325	3021.9817	3086.9061	3087.8649	3606.4434	3747.2874	3822.1425
NC(=O)C1(O)COC1	NC(=O)C1(O)COC1	
InChI=1S/C4H7NO3/c5-3(6)4(7)1-8-2-4/h7H,1-2H2,(H2,5,6)	InChI=1S/C4H7NO3/c5-3(6)4(7)1-8-2-4/h7H,1-2H2,(H2,5,6)
