18
gdb 127071	2.55716	1.5364	0.98341	5.2797	77.88	-0.2081	-0.0088	0.1993	1192.1862	0.146051	-435.244417	-435.23494	-435.233996	-435.279094	33.436	
C	-0.1342924282	 1.5950028714	 0.2713540318	-0.340691
N	-0.1104169741	 0.1384525484	 0.2171274892	-0.16427
C	 0.9287738351	-0.5008557723	 1.0085281233	-0.34507
C	-1.2775813686	-0.5214289018	-0.0316383697	 0.439529
C	-1.6377860753	-1.8625170175	-0.0715690521	 0.139786
C	-0.8899703982	-3.1386607099	 0.1488608237	-0.518169
N	-2.9540082634	-1.8746328987	-0.4402253607	-0.14474
N	-3.430968001	-0.7320779859	-0.6236998778	-0.058199
O	-2.3363002922	 0.2158141008	-0.3510766746	-0.24716
H	 0.8846550841	 1.964819568	 0.1292932589	 0.128072
H	-0.7675740579	 1.986791567	-0.5239023348	 0.162446
H	-0.511514544	 1.972193677	 1.2333068332	 0.127938
H	 0.7450055186	-0.4111714376	 2.0899290203	 0.12615
H	 1.0111589833	-1.5568660285	 0.756897971	 0.150208
H	 1.886947697	-0.0240199376	 0.7838926488	 0.135311
H	-0.5117428607	-3.2435828512	 1.171923611	 0.128915
H	-1.574300005	-3.9696399197	-0.0356581376	 0.14943
H	-0.0410081096	-3.2533110517	-0.5350926537	 0.130513
46.7947	118.3056	153.5073	171.0073	201.1021	228.9876	259.0295	312.5836	341.7545	383.8092	486.5175	594.0986	614.7405	671.2677	715.3645	741.8131	956.8891	986.6994	1013.0387	1069.4331	1085.9226	1127.6997	1172.0413	1182.1983	1223.5234	1293.587	1327.1929	1406.9506	1451.8113	1456.4315	1461.4129	1482.0529	1487.2072	1491.0601	1499.8729	1502.6236	1503.5069	1526.9401	1638.1461	2992.1547	3001.133	3025.4345	3073.574	3088.7179	3091.1013	3127.0122	3156.5689	3166.549
CN(C)C1=C(C)N=NO1	CN(C)c1c(C)nno1	
InChI=1S/C5H9N3O/c1-4-5(8(2)3)9-7-6-4/h1-3H3	InChI=1S/C5H9N3O/c1-4-5(8(2)3)9-7-6-4/h1-3H3
