19
gdb 47944	2.67224	1.40237	1.02473	2.6345	72.42	-0.232	0.0574	0.2894	1165.7676	0.162347	-456.369514	-456.361014	-456.36007	-456.403013	31.955	
O	 0.1335205273	-0.2558258424	 0.0458845761	-0.411456
C	 0.0182892127	 0.9602361933	 0.0091828047	 0.399701
N	-1.2266832432	 1.5522860137	 0.0707053242	-0.325068
C	-1.6507489787	 2.8759942683	 0.5203284446	-0.174409
C	-0.7681796744	 3.6048153423	 1.5594015746	-0.079486
O	 0.0425152817	 4.6152971779	 0.9908436018	-0.241085
C	 1.2902698076	 4.2127539556	 0.4710107851	-0.055714
C	 1.2264324546	 3.1265300225	-0.6126456799	-0.1935
N	 1.1281813348	 1.7727854774	-0.0888804165	-0.323208
H	-1.9220083787	 0.8280636131	 0.1558704881	 0.250005
H	-1.7851829041	 3.5700313554	-0.3196948616	 0.118695
H	-2.6424901786	 2.7319519727	 0.9600493461	 0.111987
H	-1.4321709577	 4.1358406994	 2.2487866446	 0.113291
H	-0.1768429839	 2.8872984329	 2.1444119688	 0.112852
H	 1.7264856691	 5.1235629593	 0.0468560964	 0.107369
H	 1.9535423736	 3.8574378921	 1.2763946906	 0.092746
H	 0.4028043476	 3.3359316467	-1.3032394239	 0.132551
H	 2.1487533287	 3.1854182897	-1.2006365751	 0.115073
H	 1.9613999718	 1.2085203901	-0.1385195387	 0.249656
68.9005	93.1544	159.138	244.9492	293.0599	318.7842	385.3447	440.4844	493.9278	507.1707	548.4078	581.3179	686.9453	732.644	766.5338	841.2998	867.1818	964.9406	994.9989	1053.3136	1073.0618	1086.6397	1127.7461	1166.6301	1202.2682	1259.3144	1283.2989	1311.45	1350.7549	1361.0936	1390.907	1399.9424	1418.6204	1445.911	1461.0604	1469.6398	1481.5536	1488.6648	1496.5308	1521.325	1783.4811	2976.7692	3013.6	3018.9181	3041.03	3067.2908	3073.4876	3082.566	3089.347	3636.6585	3639.8562
O=C1NCCOCCN1	O=C1NCCOCCN1	
InChI=1S/C5H10N2O2/c8-5-6-1-3-9-4-2-7-5/h1-4H2,(H2,6,7,8)	InChI=1S/C5H10N2O2/c8-5-6-1-3-9-4-2-7-5/h1-4H2,(H2,6,7,8)
