20
gdb 110002	2.1938	1.43384	0.99147	2.8259	76.27	-0.23	-0.0266	0.2034	1247.5247	0.168588	-440.258564	-440.248615	-440.247671	-440.294104	35.24	
C	-0.2428285628	 1.4421435606	-0.2995219089	-0.257119
O	 0.1018630063	 0.0909568175	-0.0341256876	-0.236772
C	 0.6353071783	-0.5855095405	-1.1339571357	 0.11224
C	 1.2944507855	-1.9454264945	-0.7627334111	 0.01844
C	 1.5034789199	-2.2677812254	 0.7068082576	-0.376908
N	 0.1589016586	-2.6603640156	-1.4023025257	-0.333624
C	-0.3769736963	-1.4256082021	-2.0029128489	-0.1143
C	-1.8472527309	-1.1978076964	-1.707320953	 0.17
O	-2.4844763302	-0.2666686566	-2.1310675782	-0.257053
H	 0.6387451826	 2.0151107572	-0.6245255353	 0.105923
H	-1.0226004626	 1.5206594166	-1.0656854352	 0.142086
H	-0.614096281	 1.8633413938	 0.6372678681	 0.130143
H	 1.2696424667	 0.0843347037	-1.7274473647	 0.073941
H	 2.2404797785	-2.0655196749	-1.3096752168	 0.067085
H	 0.5856987775	-2.0976148083	 1.2724598058	 0.13415
H	 1.7945786287	-3.3172437428	 0.8205832459	 0.110732
H	 2.2961253479	-1.6445022536	 1.1331555443	 0.113989
H	 0.4135997575	-3.3921302359	-2.0549918481	 0.220017
H	-0.2072279043	-1.287946128	-3.0791959414	 0.087726
H	-2.2906385899	-1.9696888048	-1.0402004012	 0.089303
44.3232	80.0587	142.6585	161.4089	180.2035	203.4508	212.4897	297.4085	319.0981	405.237	448.5146	534.6292	576.9392	639.1517	804.4981	826.0999	898.027	941.2196	984.5895	994.4356	1030.4449	1086.6814	1094.3465	1098.6791	1154.0956	1157.6292	1189.2218	1195.5865	1230.0064	1259.2154	1283.1731	1328.5328	1371.5558	1383.644	1397.5342	1401.8267	1414.6263	1482.0639	1485.6112	1489.6915	1494.0799	1514.011	1821.5413	2896.6691	2990.4233	2991.3683	3010.901	3028.9212	3040.7436	3070.2699	3105.2575	3126.7929	3139.5483	3542.6013
COC1C(C)NC1C=O	CO[C@H]1[C@@H](C)N[C@H]1C=O	
InChI=1S/C6H11NO2/c1-4-6(9-2)5(3-8)7-4/h3-7H,1-2H3	InChI=1S/C6H11NO2/c1-4-6(9-2)5(3-8)7-4/h3-7H,1-2H3/t4-,5+,6+/m1/s1
