17
gdb 28518	3.14721	1.31694	0.9315	2.0373	81.33	-0.177	0.0179	0.1949	1203.1505	0.138388	-418.073582	-418.065332	-418.064387	-418.105734	32.951	
N	 0.0595546632	 1.4323673981	 0.1156263566	-0.612708
C	-0.0012866916	 0.0167970895	 0.0249217165	 0.211299
C	-1.1909137664	-0.7029452163	 0.0693724957	-0.16581
C	-1.2071365412	-2.0953630329	 0.0277167943	-0.219295
C	-0.003010846	-2.7839411814	-0.0813237342	 0.400207
O	-0.0509825824	-4.1508983839	-0.1376985929	-0.452205
C	 1.2019432326	-2.0810595549	-0.1198235406	-0.359689
C	 1.215958233	-0.6871637165	-0.0562622874	 0.300889
N	 2.4051189877	 0.0538927108	-0.1192228077	-0.606173
H	 0.582816695	 1.8343841439	-0.6569424255	 0.245217
H	-0.8634737483	 1.8481472971	 0.1294595586	 0.237576
H	-2.1308818241	-0.161386062	 0.1357836482	 0.079026
H	-2.1367480359	-2.6498543448	 0.0627103031	 0.094153
H	 0.8458426107	-4.4905696867	-0.2152354948	 0.291517
H	 2.1443083033	-2.6211339705	-0.1858999069	 0.064808
H	 3.2318097234	-0.4863438392	 0.097011281	 0.239669
H	 2.3603190371	 0.8869693198	 0.457439016	 0.251519
151.4404	191.5728	230.567	309.1406	318.3901	332.8411	366.9518	442.4304	451.4067	460.9871	509.0373	583.4611	628.0147	718.4171	726.4925	770.2616	785.5508	806.2881	829.3992	853.8198	905.5533	984.3382	1084.4775	1133.1476	1168.1013	1200.5095	1217.1399	1275.3026	1341.5409	1344.4697	1399.9592	1495.1489	1556.5296	1623.2628	1648.9185	1656.6975	1670.3412	3141.1568	3158.9109	3207.8186	3492.846	3517.213	3599.5971	3625.7911	3830.1142
NC1=CC=C(O)C=C1N	Nc1ccc(O)cc1N	
InChI=1S/C6H8N2O/c7-5-2-1-4(9)3-6(5)8/h1-3,9H,7-8H2	InChI=1S/C6H8N2O/c7-5-2-1-4(9)3-6(5)8/h1-3,9H,7-8H2
