14
gdb 10008	2.93034	1.15089	0.86151	4.3152	69.53	-0.2504	-0.0635	0.1869	1285.0404	0.102537	-382.526311	-382.516806	-382.515862	-382.563809	30.074	
C	-0.041025334	 1.4845044184	-0.0327176275	-0.49812
C	 0.0000403915	 0.030218377	-0.0022720577	 0.06564
C	 0.0468633667	-1.1725627414	 0.0442887957	 0.045574
C	 0.0706071959	-2.6268288707	 0.0454849385	-0.311226
C	-1.3713375731	-3.1818284594	 0.0554431769	 0.162528
O	-1.7157841188	-4.1091566305	 0.7311485845	-0.223881
C	 0.7858312456	-3.1482986609	-1.2208564666	 0.162434
O	 1.5633284735	-4.0596644406	-1.2102404315	-0.223898
H	 0.9689533549	 1.9075539786	-0.0527194009	 0.158197
H	-0.5720652302	 1.8463175616	-0.9195644988	 0.155496
H	-0.5535835119	 1.8834363528	 0.849081522	 0.1582
H	 0.5883123968	-3.0522537179	 0.9094353041	 0.145936
H	-2.0678066406	-2.6424272629	-0.6202513222	 0.101556
H	 0.5179996538	-2.6010180841	-2.1489396266	 0.101563
14.9242	38.6899	55.1593	113.0115	125.4707	268.3421	283.4333	308.8977	400.0205	478.7443	489.2099	519.9061	807.4099	850.6222	998.2176	1041.8823	1051.4833	1052.4505	1078.9635	1170.0377	1208.4478	1287.5822	1400.63	1414.2265	1421.9579	1475.5947	1476.1573	1818.2365	1854.6046	2367.042	2907.0431	2918.1324	3032.4416	3087.1299	3096.1711	3096.3118
CC#CC(C=O)C=O	CC#CC(C=O)C=O	
InChI=1S/C6H6O2/c1-2-3-6(4-7)5-8/h4-6H,1H3	InChI=1S/C6H6O2/c1-2-3-6(4-7)5-8/h4-6H,1H3
