18
gdb 73239	2.20755	1.90057	1.41951	3.1861	71.31	-0.2425	0.0204	0.2629	984.6231	0.14962	-439.122138	-439.114305	-439.11336	-439.154395	30.621	
O	 0.1083579801	 1.3592772675	-0.0442045055	-0.483053
C	 0.0207627388	-0.0391354356	-0.0513417613	 0.337155
C	 0.283831184	-0.7889492708	-1.3841174005	-0.292914
C	-0.9630581424	-1.6707339013	-1.0964932168	-0.233083
C	-1.374654122	-0.7094939416	 0.061178612	-0.063238
C	-1.4547817956	-1.328940102	 1.4651362286	-0.19484
N	-0.0515301049	-1.3989635842	 1.8640867672	-0.307977
C	 0.7904212498	-0.5956465344	 1.1544911623	 0.341107
O	 1.9373988586	-0.3041691862	 1.4330160245	-0.403684
H	 0.9948600288	 1.5707100474	 0.2817831784	 0.289645
H	 0.1285797169	-0.1052305443	-2.2223847528	 0.113606
H	 1.2508571404	-1.2842008754	-1.4991236371	 0.111156
H	-1.6824320509	-1.7661617062	-1.9113125372	 0.107758
H	-0.7117483675	-2.6724829554	-0.7378125508	 0.106941
H	-2.2205073941	-0.0640009945	-0.173040018	 0.089373
H	-2.0312344003	-0.7043246656	 2.160327069	 0.114588
H	-1.9106919319	-2.3251108193	 1.4473400431	 0.114718
H	 0.2409588422	-1.756004388	 2.7612708048	 0.252744
84.2705	160.7632	214.7186	269.37	289.588	394.7432	416.699	504.1569	541.8025	602.6057	649.1381	712.074	735.9412	771.9665	815.7756	837.7206	888.4568	943.1665	1003.8621	1012.1924	1059.9339	1079.5169	1117.7101	1136.4516	1150.8036	1214.9763	1231.7395	1234.1095	1255.4807	1268.0208	1301.6377	1315.853	1372.8185	1399.9195	1448.2329	1475.3025	1493.5179	1527.3202	1814.4544	3012.7177	3058.6256	3062.9357	3067.1824	3110.3014	3120.7752	3131.2208	3623.9704	3741.1697
OC12CCC1CNC2=O	O[C@]12CC[C@H]1CNC2=O	
InChI=1S/C6H9NO2/c8-5-6(9)2-1-4(6)3-7-5/h4,9H,1-3H2,(H,7,8)	InChI=1S/C6H9NO2/c8-5-6(9)2-1-4(6)3-7-5/h4,9H,1-3H2,(H,7,8)/t4-,6+/m0/s1
