18
gdb 101315	3.24185	0.86178	0.74995	3.7867	70.09	-0.2475	-0.0264	0.2211	1492.7897	0.145852	-476.188368	-476.178765	-476.177821	-476.223983	34.289	
O	 0.2227319589	 1.2674912948	-0.4485406015	-0.422388
C	 0.0910959818	-0.0983116769	-0.0646383561	-0.104802
C	-1.3756817813	-0.5345833803	-0.1501268656	 0.12053
O	-1.9019814167	-0.1976762355	-1.4180569841	-0.442036
C	-1.5160720344	-2.0274810327	 0.0358908957	-0.023986
N	-1.6744053565	-2.5128501278	 1.3997902309	-0.342056
C	-2.7955074244	-2.6954418046	 0.4504747221	-0.124931
C	-4.0405268086	-1.9325231405	 0.748660844	 0.187045
O	-5.1341600632	-2.2832754488	 0.3848256881	-0.258268
H	-0.1185840205	 1.8134402507	 0.2680995332	 0.291972
H	 0.6856441367	-0.6658052413	-0.7888887989	 0.116958
H	 0.4931589518	-0.2853209176	 0.9397241188	 0.11044
H	-1.9289184327	-0.0243788069	 0.6564295781	 0.062394
H	-1.4927635827	 0.6467507853	-1.6519928935	 0.290647
H	-0.9119380976	-2.6133817457	-0.6565690066	 0.100253
H	-1.1918426415	-3.3955836628	 1.5403800151	 0.246846
H	-2.9796415349	-3.6818231104	 0.0324005858	 0.108581
H	-3.8881228643	-1.013209549	 1.3534206046	 0.082801
34.6469	79.1244	118.9802	141.1811	224.8391	258.0273	317.9847	341.4604	394.4808	402.4745	469.588	528.1423	560.9882	575.3928	820.16	884.6648	907.0291	938.9264	983.8439	1011.5339	1022.568	1050.7486	1079.2505	1127.0836	1137.0342	1167.1174	1215.3792	1226.402	1253.0582	1293.0719	1348.5098	1361.751	1373.4928	1393.1262	1416.3931	1436.5039	1491.2073	1494.5919	1826.0103	2904.8874	2960.3977	3020.2146	3082.8524	3113.4449	3152.0458	3519.986	3751.6343	3809.2721
OCC(O)C1NC1C=O	OC[C@@H](O)[C@H]1N[C@H]1C=O	
InChI=1S/C5H9NO3/c7-1-3-5(6-3)4(9)2-8/h1,3-6,8-9H,2H2	InChI=1S/C5H9NO3/c7-1-3-5(6-3)4(9)2-8/h1,3-6,8-9H,2H2/t3-,4+,5-/m0/s1
