18
gdb 105952	3.12577	1.50536	1.20285	2.9248	74.66	-0.216	0.0583	0.2742	1062.79	0.146926	-401.825018	-401.817049	-401.816104	-401.857377	30.893	
C	 0.3061284877	 1.5462578491	 0.3458130915	-0.525773
C	 0.0467350721	 0.1049613042	 0.0572417531	 0.261482
C	 0.8828690756	-0.9120451737	-0.7386119604	-0.173242
C	 0.5408936734	-1.1617117773	 0.7101502931	-0.06248
N	-0.7210287407	-1.9393257784	 0.3443386366	-0.240484
C	-0.413429899	-1.6710903629	-1.1106575072	-0.104938
C	-1.2328627901	-0.6949933133	-0.3471557689	 0.278049
C	-2.7100291129	-0.43908918	-0.3436530804	-0.198685
O	-3.403330956	-1.6651114849	-0.4589073687	-0.416706
H	 1.3600606929	 1.69960781	 0.6025093145	 0.127762
H	 0.0817274572	 2.1786174225	-0.5208445241	 0.126729
H	-0.2946920954	 1.9048383515	 1.1893756597	 0.128079
H	 1.8352446568	-0.7727781486	-1.2302730474	 0.096957
H	 1.149687432	-1.3477122199	 1.5867872218	 0.100269
H	-0.6748578707	-2.3722456502	-1.8938925558	 0.104045
H	-2.9869032487	 0.1041619753	 0.5765474436	 0.090093
H	-3.0079905356	 0.1850255852	-1.1941920429	 0.1122
H	-2.9582862488	-2.2727106388	 0.1493163017	 0.296644
105.4308	146.16	201.6353	225.8204	252.8335	298.7731	446.1294	502.9094	586.3388	650.5776	677.3025	753.1755	791.8323	814.6908	858.5253	861.5846	901.1891	909.7368	936.651	998.468	1010.7923	1037.1267	1055.8418	1068.7712	1103.066	1113.1091	1178.0516	1192.1493	1214.3754	1247.8559	1264.0655	1366.0149	1404.628	1408.4982	1436.2031	1456.7477	1481.7199	1498.2254	1509.5296	2953.4198	3022.0502	3054.525	3082.3027	3092.7884	3181.2817	3186.3587	3218.1881	3735.6701
CC12C3C1N1C3C21CO	C[C@@]12[C@H]3[C@@H]1N1[C@H]3[C@]21CO	
InChI=1S/C7H9NO/c1-6-3-4(6)8-5(3)7(6,8)2-9/h3-5,9H,2H2,1H3	InChI=1S/C7H9NO/c1-6-3-4(6)8-5(3)7(6,8)2-9/h3-5,9H,2H2,1H3/t3-,4-,5+,6+,7+,8?/m0/s1
