15
gdb 66557	3.18973	2.07143	1.73427	1.0626	65.7	-0.2243	-0.0128	0.2114	800.5622	0.114725	-416.724638	-416.718631	-416.717687	-416.754603	25.336	
O	-0.0484005185	 1.3451204076	 0.0892401042	-0.457974
C	 0.0616877758	-0.0210286953	 0.0467575247	 0.388835
C	-1.0595204616	-1.0258180859	 0.1105486765	-0.16203
C	-0.3000570442	-0.8864963033	-1.1744499223	-0.124541
N	 0.4536872226	-2.1875986921	-1.0129887452	-0.166229
C	 1.8661604193	-1.8688195153	-0.9749875117	 0.025755
N	 2.2821607912	-1.205564811	 0.0316984787	-0.202702
C	 1.0586842303	-0.9490941647	 0.8066064215	-0.092781
C	 0.0469627885	-2.0693392091	 0.4491422579	-0.023721
H	 0.6626607564	 1.7262881108	-0.4393996671	 0.295806
H	-2.1112483686	-0.9622942075	 0.3409971384	 0.113463
H	-0.6020546324	-0.4884200587	-2.1339805582	 0.106281
H	 2.4966901877	-2.1510554276	-1.8137917986	 0.122768
H	 1.2280072255	-0.7062813348	 1.8536252005	 0.08888
H	-0.0499191021	-2.994784873	 1.0139878908	 0.08819
235.4082	285.1863	350.4928	416.4634	468.9987	586.7578	609.0796	693.1055	769.6758	792.4876	834.8405	843.6372	868.8805	893.5446	903.7332	926.1266	958.4654	965.3355	993.5436	1025.0489	1039.0379	1051.6859	1122.5386	1156.3181	1181.4628	1196.8238	1226.1628	1260.279	1277.5207	1309.1725	1319.8005	1455.8279	1645.3394	3130.699	3147.1034	3178.1804	3208.2284	3246.3955	3784.9024
OC12C3C1N1C=NC2C31	O[C@@]12[C@H]3[C@@H]1N1[CH][N][C@@H]2[C@@H]31	
InChI=1S/C6H6N2O/c9-6-2-3-4(6)7-1-8(3)5(2)6/h1-5,9H	InChI=1S/C6H6N2O/c9-6-2-3-4(6)7-1-8(3)5(2)6/h1-5,9H/t2-,3-,4-,5+,6-/m1/s1
