23
gdb 107239	2.7378	1.40657	1.08529	0.5053	89.03	-0.1991	0.0912	0.2903	1229.9191	0.205075	-351.094672	-351.085522	-351.084578	-351.128061	36.328	
C	 2.4812466852	 1.7767423181	 0.3592881415	-0.391336
C	 1.2395329399	 1.4782024883	-0.487150791	-0.280369
C	 1.3996812906	 0.3679842369	-1.4982882718	 0.307942
C	 2.3156060905	-0.8166371988	-1.3272257954	-0.361645
C	 2.5059310787	 0.1027012637	-2.5087120454	-0.104127
C	 1.4559319624	-0.0903922001	-3.6324778039	-0.098185
C	 0.4464758214	-1.1712249309	-3.3424068663	-0.353057
C	 0.331515192	 0.1594817505	-2.6409339943	 0.293049
C	-0.885045102	 1.0323418606	-2.7780338548	-0.493635
H	 2.7445114116	 0.9352721999	 1.00727393	 0.120372
H	 3.3490121682	 2.0016031387	-0.2704357631	 0.117605
H	 2.3051199479	 2.6443176598	 1.0022315895	 0.111964
H	 0.400226181	 1.2366225225	 0.1808796511	 0.097858
H	 0.9461453883	 2.3971836958	-1.0107822856	 0.098099
H	 3.0686631563	-0.6907439154	-0.5555809535	 0.107486
H	 1.9870688951	-1.8450333598	-1.4264946406	 0.105763
H	 3.4296197498	 0.6485801835	-2.6587219629	 0.082182
H	 1.5779845754	 0.3276759846	-4.624436105	 0.081397
H	-0.2896773076	-1.3077409227	-4.130283267	 0.104234
H	 0.702685618	-2.0979221595	-2.8418353805	 0.107062
H	-1.6383779497	 0.8014709956	-2.0141898751	 0.11662
H	-0.6429469154	 2.0971381867	-2.6908113999	 0.116655
H	-1.3546016674	 0.8824325819	-3.7557768962	 0.114067
81.994	129.0963	184.9771	209.4532	238.3357	301.7474	317.2149	378.8758	429.7338	466.1666	496.5909	597.9834	613.0485	755.0124	781.546	805.7403	840.8506	867.6314	902.2683	906.8637	952.6247	963.8037	977.9733	1001.9755	1007.1812	1040.7802	1055.2324	1067.5967	1097.7862	1105.8028	1118.9239	1140.7425	1160.5452	1251.8404	1261.7505	1276.688	1303.9412	1348.9412	1377.3972	1390.7974	1408.8263	1421.4861	1482.7298	1486.7616	1491.1425	1498.1915	1503.2941	1508.5252	1520.9119	3001.5634	3018.5622	3034.1747	3035.6644	3075.8518	3094.558	3101.757	3107.3289	3120.1049	3135.9596	3173.2586	3184.6574	3197.1963	3207.5601
CCC12CC1C1CC21C	CC[C@]12C[C@H]1[C@H]1C[C@@]21C	
InChI=1S/C9H14/c1-3-9-5-7(9)6-4-8(6,9)2/h6-7H,3-5H2,1-2H3	InChI=1S/C9H14/c1-3-9-5-7(9)6-4-8(6,9)2/h6-7H,3-5H2,1-2H3/t6-,7+,8-,9+/m1/s1
