26
gdb 100967	2.28303	1.05209	0.99113	1.1682	92.92	-0.2172	0.0792	0.2964	1458.4062	0.238047	-369.594101	-369.582745	-369.581801	-369.630162	42.302	
C	 3.3422222836	 0.73227121	 3.5936963649	-0.393436
C	 3.1432327569	-0.4610644476	 2.6527389117	-0.175533
C	 1.6656608986	-0.7805213923	 2.33773114	-0.017806
C	 0.9845483823	 0.3480442006	 1.5436669233	-0.41225
C	 1.5330180182	-2.1366455053	 1.6343313861	 0.351271
C	 2.1381458022	-2.2398822812	 0.2442069977	-0.455833
C	 1.5219928201	-3.3658687145	 2.4869737916	-0.29883
N	 0.3157908963	-2.9543715873	 1.7776011735	-0.127562
C	-0.8246830404	-2.5226136405	 2.568838904	-0.318035
H	 2.8135367523	 0.5820136102	 4.5420618432	 0.112016
H	 4.4028052778	 0.8725258085	 3.8251685554	 0.112099
H	 2.977659165	 1.6664202881	 3.1555781385	 0.118449
H	 3.686625171	-0.2759669612	 1.717514689	 0.097321
H	 3.6024346885	-1.3501555084	 3.1018338563	 0.09609
H	 1.1539978808	-0.8617307059	 3.304166026	 0.066757
H	-0.0433797029	 0.0833710872	 1.2784461691	 0.118305
H	 0.946413788	 1.2733904573	 2.1252041847	 0.114472
H	 1.5225293302	 0.5654852678	 0.6148670247	 0.117498
H	 3.2166650753	-2.0512824751	 0.2592078788	 0.113258
H	 1.9683615316	-3.2414197539	-0.1572035753	 0.123379
H	 1.6798711209	-1.5248545311	-0.4466606335	 0.116561
H	 1.9902051348	-4.2881225882	 2.1487685234	 0.104183
H	 1.5473242876	-3.2205533578	 3.5678683364	 0.095492
H	-0.5770342854	-1.9978187871	 3.5047495658	 0.100249
H	-1.4642386045	-1.8682346402	 1.9675087605	 0.120985
H	-1.4118738287	-3.4080717318	 2.8351475942	 0.120902
66.6834	81.1718	138.9199	179.5932	193.2667	204.3878	220.6194	250.2708	270.9397	288.5224	317.7531	365.4387	441.8913	449.5924	482.3109	529.8492	707.1051	752.6792	782.3162	846.3818	901.8528	916.2871	966.8577	983.3667	994.1633	1032.7923	1044.3939	1081.135	1098.9886	1118.0707	1144.1705	1153.321	1174.428	1191.7162	1207.6845	1287.4957	1292.4415	1304.1179	1349.5256	1367.4429	1397.959	1408.6458	1415.6232	1421.1966	1449.0853	1481.1241	1486.4243	1489.1114	1492.4146	1498.7641	1503.0096	1505.8168	1509.2954	1511.7126	1515.4577	2974.7494	3020.0855	3029.9272	3032.7947	3037.5177	3041.3536	3057.2478	3060.5966	3072.5166	3093.052	3097.3906	3100.4475	3105.3976	3107.0693	3113.8717	3124.9392	3155.8353
CCC(C)C1(C)CN1C	CC[C@@H](C)[C@@]1(C)CN1C	
InChI=1S/C8H17N/c1-5-7(2)8(3)6-9(8)4/h7H,5-6H2,1-4H3	InChI=1S/C8H17N/c1-5-7(2)8(3)6-9(8)4/h7H,5-6H2,1-4H3/t7-,8-,9?/m1/s1
