17
gdb 62248	4.483	0.59774	0.56403	3.7641	72.82	-0.2766	0.0072	0.2838	1880.4584	0.132268	-458.940237	-458.930031	-458.929086	-458.977115	34.986	
O	-0.1176353996	 1.4003387733	-0.1150921209	-0.419349
C	-0.001932185	-0.0189245171	-0.0117870422	-0.058254
C	 0.4780299742	-0.6448171793	-1.3355910154	-0.201129
C	-0.4476739108	-0.276709957	-2.4902680663	-0.094268
O	 0.0059844651	-0.8997090915	-3.6976372738	-0.177393
C	 0.4377743044	-0.1086030754	-4.697362524	 0.168582
O	 0.8524573636	-0.5389129863	-5.7305597406	-0.273075
C	 0.8603979158	-0.4136264579	 1.1028575412	 0.283861
C	 1.6077258515	-0.7089102855	 1.9966689278	-0.423658
H	 0.7649397593	 1.7721573175	-0.0066525018	 0.289935
H	-1.024205594	-0.365484934	 0.1892612008	 0.124039
H	 1.4956198451	-0.2982747859	-1.5508700437	 0.11209
H	 0.524296338	-1.7333202958	-1.2291742391	 0.131078
H	-1.4644849261	-0.6400972098	-2.3071784908	 0.124803
H	-0.4931820598	 0.8109200565	-2.6114845749	 0.128651
H	 0.3596344021	 0.9695854212	-4.452739349	 0.077284
H	 2.2518871961	-0.9759788631	 2.7982020928	 0.206803
34.6289	50.8009	105.8973	115.6609	164.6697	209.7419	256.5325	295.4814	325.8256	368.5351	434.787	558.5703	572.4096	639.5251	673.8151	682.6276	792.718	882.702	983.155	1039.1892	1047.6392	1059.6131	1084.0468	1109.4162	1156.4959	1251.0032	1269.4367	1297.3869	1331.8865	1363.9188	1403.3116	1419.697	1434.2637	1481.6417	1511.7686	1868.0854	2235.9168	2938.7839	3026.1019	3039.1864	3048.5052	3081.9124	3104.6441	3500.9617	3806.0225
OC(CCOC=O)C#C	O[C@@H](CCOC=O)C#C	
InChI=1S/C6H8O3/c1-2-6(8)3-4-9-5-7/h1,5-6,8H,3-4H2	InChI=1S/C6H8O3/c1-2-6(8)3-4-9-5-7/h1,5-6,8H,3-4H2/t6-/m1/s1
