19
gdb 114635	2.26674	1.40771	1.0062	2.6873	72.18	-0.2487	0.064	0.3127	1232.4947	0.156977	-460.102376	-460.092976	-460.092031	-460.137327	33.774	
C	-0.186869891	 1.4645232904	 0.2075277393	-0.235487
O	 0.4484204552	 0.2299708021	-0.0407309705	-0.239011
C	 0.7930521053	-0.4586611458	 1.1210621501	 0.089496
C	-0.3267945839	-1.2245849722	 1.9335454737	-0.293612
C	 0.4697863944	-2.508483939	 1.6782302607	-0.051434
O	 0.5284298559	-2.6748271821	 0.2601411728	-0.288109
C	 1.4938477509	-1.8023393184	 0.8809295674	 0.357007
C	 2.9347715593	-2.0877980384	 0.6027127545	-0.178648
O	 3.3252912334	-1.6646176884	-0.692063591	-0.410745
H	 0.4548838461	 2.1407080289	 0.7941182373	 0.105363
H	-0.3911707553	 1.9239139855	-0.7621237026	 0.131664
H	-1.1376912503	 1.3372017548	 0.7466345304	 0.108312
H	 1.3880655649	 0.1758950227	 1.7974711111	 0.071225
H	-0.3843084703	-0.9223932576	 2.9814463099	 0.105467
H	-1.3207841144	-1.2234494742	 1.4816089706	 0.117972
H	 0.5593483379	-3.3984269339	 2.290654719	 0.107389
H	 3.5698815628	-1.5379660051	 1.3058726163	 0.110407
H	 3.1135269276	-3.1636671559	 0.755097476	 0.096449
H	 2.6926594617	-2.0378150433	-1.3159005849	 0.296294
51.7242	86.6795	117.0412	150.2367	192.7054	273.7294	285.0259	358.6982	374.1048	432.1296	499.3382	564.6675	708.9005	743.6704	823.0454	886.4076	919.7482	962.3041	967.2288	1014.8022	1026.55	1062.3561	1079.1534	1143.896	1165.788	1177.7925	1183.4088	1200.9693	1236.7454	1240.2527	1263.4117	1296.2415	1360.5886	1389.5645	1420.7506	1453.0135	1474.2894	1485.0485	1487.2041	1489.3469	1507.6362	2971.3136	2979.1863	2985.8679	3022.9266	3070.4326	3071.3507	3119.6347	3133.1403	3187.0487	3807.7115
COC1CC2OC12CO	CO[C@H]1C[C@H]2O[C@@]12CO	
InChI=1S/C6H10O3/c1-8-4-2-5-6(4,3-7)9-5/h4-5,7H,2-3H2,1H3	InChI=1S/C6H10O3/c1-8-4-2-5-6(4,3-7)9-5/h4-5,7H,2-3H2,1H3/t4-,5+,6-/m0/s1
