21
gdb 81656	2.74711	1.51753	1.23861	0.9946	82.95	-0.2274	0.0196	0.247	1093.0233	0.185192	-387.083655	-387.075786	-387.074842	-387.115505	32.188	
O	 0.0158375895	 1.3376792726	 0.1295130506	-0.449255
C	 0.0023787552	-0.070719653	 0.0021985062	 0.144641
C	-1.4663464628	-0.5388438073	-0.1460237484	-0.001221
C	-1.2768102471	-0.4624734281	-1.689731245	-0.243663
C	 0.2623751747	-0.5767469565	-1.4614217133	-0.089529
C	 0.7971740531	-1.9807387157	-1.4770409616	-0.069221
C	 0.1820462718	-3.0627592781	-0.9925035048	-0.05588
C	-1.2141444412	-3.1418693983	-0.4148010257	-0.254465
C	-1.7282288523	-1.9449779802	 0.417103739	-0.221123
H	 0.9250710007	 1.6366191913	 0.0248583779	 0.279377
H	 0.6019142879	-0.553998166	 0.786416325	 0.055662
H	-2.1763279104	 0.1719155615	 0.284948588	 0.074911
H	-1.7467778226	-1.2282366544	-2.3096950369	 0.095631
H	-1.5445154363	 0.5234752822	-2.0732449184	 0.106264
H	 0.8889042518	 0.085348364	-2.0656420865	 0.054222
H	 1.7981289444	-2.10539574	-1.8841519255	 0.079583
H	 0.7068111931	-4.0137240937	-1.0581851919	 0.083927
H	-1.9155310217	-3.3239340319	-1.2420453424	 0.11612
H	-1.2844559483	-4.0394581899	 0.2101753403	 0.098682
H	-1.2945599609	-1.9942913841	 1.4243065708	 0.100258
H	-2.8085011085	-2.0806428545	 0.5459400927	 0.095079
130.5597	207.0492	248.0198	291.8545	323.5306	335.9663	367.3303	412.7462	496.3377	578.9087	668.1422	741.3679	763.8811	825.4944	842.8912	865.1559	875.6794	931.2921	962.0741	979.4689	999.5991	1024.3929	1059.6699	1078.3384	1095.3904	1109.8278	1141.4375	1152.9889	1193.3744	1218.1887	1237.215	1254.8297	1268.9751	1295.5875	1311.8062	1328.5513	1342.8162	1372.0282	1385.3212	1418.3381	1423.2149	1472.3194	1484.8587	1494.9963	1713.5481	2997.3702	2999.9312	3018.3498	3050.4526	3058.4241	3059.3755	3070.6314	3079.0409	3129.1272	3133.7263	3158.1736	3809.7479
OC1C2CC1C=CCC2	O[C@H]1[C@H]2C[C@@H]1C=CCC2	
InChI=1S/C8H12O/c9-8-6-3-1-2-4-7(8)5-6/h1,3,6-9H,2,4-5H2	InChI=1S/C8H12O/c9-8-6-3-1-2-4-7(8)5-6/h1,3,6-9H,2,4-5H2/t6-,7+,8+/m0/s1
