19
gdb 105702	3.0001	0.90509	0.78793	2.9429	73.54	-0.2478	0.0314	0.2792	1467.0218	0.15899	-456.334296	-456.324522	-456.323578	-456.370422	34.569	
O	 0.3382575573	 0.8808954939	 0.9568675554	-0.414031
C	 0.0233008099	-0.0875344953	-0.0330409924	-0.161997
C	-1.4320906255	-0.5182841613	-0.008795092	 0.308758
C	-2.4150665491	 0.5348944572	-0.5045450064	-0.214175
N	-3.7825308097	 0.1692935024	-0.208649548	-0.277635
C	-4.8151438754	 0.41776246	-1.0520136589	 0.151605
O	-4.7248126073	 0.9838407809	-2.1224104506	-0.329986
C	-1.7287697667	-1.9653237649	-0.1555261564	-0.274503
N	-1.9036706484	-1.2967940596	 1.1472767434	-0.356104
H	-0.0071160778	 1.7327585462	 0.6743186654	 0.292059
H	 0.2899771396	 0.2661833449	-1.0409438393	 0.103415
H	 0.6594589552	-0.9516200547	 0.1873156898	 0.107571
H	-2.1703741276	 1.4996725883	-0.0334617288	 0.095469
H	-2.3312258398	 0.6733675709	-1.5863894009	 0.145532
H	-3.9327105395	-0.320660213	 0.6621781949	 0.263666
H	-5.7741860435	 0.0366859365	-0.648274535	 0.074675
H	-2.6527932049	-2.2818049729	-0.6297596754	 0.126504
H	-0.8931180991	-2.6480917329	-0.2848959223	 0.11746
H	-1.1338840174	-1.5007158767	 1.7792875075	 0.241716
37.2395	49.1941	95.0498	160.9411	230.8536	248.5119	278.7147	297.4426	354.5541	367.3997	463.7938	574.0632	631.0615	712.2283	799.4125	831.0373	910.6737	927.3789	956.4049	1005.7354	1023.8203	1037.3217	1065.3267	1072.9628	1099.2553	1151.9462	1184.5108	1218.3096	1254.1872	1265.7896	1292.3665	1383.0326	1388.8549	1407.2426	1426.5156	1431.2324	1488.7804	1502.9297	1512.3841	1524.7099	1801.0569	2936.7065	2978.6005	2989.1693	3070.1554	3092.3348	3113.7057	3200.582	3507.9814	3601.7063	3833.2729
OCC1(CNC=O)CN1	OC[C@@]1(CNC=O)CN1	
InChI=1S/C5H10N2O2/c8-3-5(2-7-5)1-6-4-9/h4,7-8H,1-3H2,(H,6,9)	InChI=1S/C5H10N2O2/c8-3-5(2-7-5)1-6-4-9/h4,7-8H,1-3H2,(H,6,9)/t5-/m1/s1
