13
gdb 19506	4.39677	1.63046	1.61645	2.9614	58.39	-0.2495	-0.0288	0.2207	810.3934	0.096183	-398.593418	-398.587065	-398.586121	-398.624344	23.173	
O	-0.0020970408	-0.0175726563	-0.334037627	-0.264552
C	 0.0136626791	 1.0856350468	 0.1575944669	 0.160763
C	 1.2116952127	 1.9596429118	 0.1271079139	-0.161848
C	 1.1853513196	 3.4517356523	-0.1763834788	 0.034958
O	-0.0518197038	 4.1317554767	-0.0465455622	-0.198431
C	-0.3638587396	 4.0418060721	 1.2747050247	 0.098546
N	 0.4471028446	 3.4471174904	 2.0534888814	-0.24489
C	 1.5364954519	 3.0002317324	 1.2143858258	-0.056296
H	-0.8785859875	 1.4938047216	 0.6717489531	 0.090407
H	 2.08426581	 1.4642620375	-0.2863718827	 0.123868
H	 1.8269291308	 3.8764264335	-0.9365496919	 0.134508
H	-1.3066927393	 4.4954590369	 1.5530548396	 0.158341
H	 2.5247066022	 2.9919154242	 1.6561944872	 0.124628
94.0967	177.9	181.8276	404.2579	464.9717	486.0232	677.4323	753.213	788.3789	803.5427	883.0927	943.0639	955.58	967.2627	1006.3003	1039.6604	1081.9484	1097.8022	1104.4346	1126.5117	1194.0139	1284.9077	1320.3061	1338.5956	1366.8705	1453.5564	1663.9287	1806.2676	2934.7596	3173.3837	3195.4578	3211.0374	3239.0341
O=CC1C2OC=NC12	O=C[C@H]1[C@H]2OC=N[C@@H]12	
InChI=1S/C5H5NO2/c7-1-3-4-5(3)8-2-6-4/h1-5H	InChI=1S/C5H5NO2/c7-1-3-4-5(3)8-2-6-4/h1-5H/t3-,4+,5-/m1/s1
