21
gdb 60012	4.47935	0.70239	0.63488	2.2091	81.75	-0.2528	0.0398	0.2926	1768.119	0.179118	-424.195861	-424.185129	-424.184185	-424.231855	39.49	
C	-0.0437572462	 1.6141604681	 0.0733161475	-0.383125
C	 0.0008501145	 0.0904985052	 0.0914433336	 0.14068
O	 0.6721295895	-0.2913874758	 1.2810634503	-0.448862
C	-1.4057252195	-0.5277289003	 0.006429798	-0.218515
C	-1.4029410244	-2.0572541262	-0.1100654955	 0.111969
O	-0.7396106207	-2.6802156688	 0.9952789436	-0.421865
C	-2.8299571159	-2.6185118035	-0.2862925565	-0.391683
C	-2.8716602027	-4.0643321824	-0.4596736611	 0.308512
C	-2.8997032824	-5.2555464018	-0.613105787	-0.430893
H	 0.9681846866	 2.0157565728	 0.1722749097	 0.125137
H	-0.4779320585	 1.9860003312	-0.8597771548	 0.105943
H	-0.6399238094	 1.9881010743	 0.9121953815	 0.117065
H	 0.5706700929	-0.2523434944	-0.7921494525	 0.058581
H	 0.5754296035	-1.2514017391	 1.3526548027	 0.284404
H	-1.978075502	-0.2270217873	 0.8960665782	 0.092356
H	-1.9271936113	-0.1135749601	-0.8658849446	 0.097672
H	-0.8051069557	-2.353689642	-0.979573284	 0.108226
H	-1.2782939655	-2.5391979057	 1.7833359756	 0.287208
H	-3.43386079	-2.3281078012	 0.5860198779	 0.12302
H	-3.2956500675	-2.1270323548	-1.1497212964	 0.1367
H	-2.9239971756	-6.308746848	-0.7452769761	 0.19747
57.0077	72.6713	104.9007	147.0991	207.3169	230.2463	283.72	295.9918	329.8811	344.2216	379.1319	453.4711	464.5606	488.8509	600.5083	622.8811	638.5925	643.6103	839.0017	856.5064	890.4353	945.8944	966.2628	984.0256	1036.7313	1067.9945	1091.3524	1109.9738	1171.2987	1189.898	1219.0122	1274.0468	1319.2457	1342.1603	1349.3842	1376.4232	1386.3596	1404.0968	1421.427	1455.2622	1466.377	1475.111	1485.8554	1500.6494	2242.9309	2924.8577	3001.8764	3006.8933	3038.9538	3046.6662	3049.9469	3067.9097	3110.8114	3121.3928	3507.1287	3726.5647	3788.3012
CC(O)CC(O)CC#C	C[C@@H](O)C[C@@H](O)CC#C	
InChI=1S/C7H12O2/c1-3-4-7(9)5-6(2)8/h1,6-9H,4-5H2,2H3	InChI=1S/C7H12O2/c1-3-4-7(9)5-6(2)8/h1,6-9H,4-5H2,2H3/t6-,7+/m1/s1
