15
gdb 11446	3.78773	1.57358	1.2526	5.2817	57.18	-0.2599	0.0475	0.3074	944.7529	0.120293	-436.980362	-436.972886	-436.971941	-437.012566	26.9	
O	-0.0999183943	 1.397697541	 0.1710798452	-0.4238
C	 0.0073997193	-0.0112559963	 0.0542100138	-0.085613
C	-1.4152333176	-0.547003622	-0.1046884897	 0.004537
C	-1.503901396	-2.0849821202	-0.0357350475	-0.103327
O	-1.8516449564	-2.3779880114	 1.3206997526	-0.23844
C	-2.3279275513	-1.2449063113	 1.9316366365	 0.470313
O	-2.7324043814	-1.2248880958	 3.0590084148	-0.386611
N	-2.2614771043	-0.2063683401	 1.0239723545	-0.354575
H	 0.7601843388	 1.755670188	 0.4083223739	 0.297673
H	 0.6084073462	-0.3033443424	-0.8217849522	 0.0948
H	 0.4671634018	-0.4596215474	 0.9486674457	 0.10611
H	-1.8342968958	-0.1603298878	-1.0391153601	 0.103364
H	-2.2843578177	-2.4729396057	-0.6986022059	 0.124718
H	-0.5584651079	-2.5815326734	-0.2702661061	 0.123295
H	-2.2391333633	 0.7321358048	 1.3919064944	 0.267556
80.172	147.5099	164.3763	240.7485	261.9052	376.2131	482.3055	518.416	570.5184	718.6426	765.9478	773.8732	853.138	925.0537	969.9649	1000.5851	1086.3347	1090.1632	1115.6772	1136.5772	1211.4005	1223.4977	1247.5915	1266.6382	1307.8213	1380.6161	1410.1262	1423.1701	1456.9495	1514.8792	1518.3325	1895.5315	2970.5705	3008.3277	3044.6271	3062.3296	3098.5677	3644.6932	3838.77
OCC1COC(=O)N1	OC[C@H]1COC(=O)N1	
InChI=1S/C4H7NO3/c6-1-3-2-8-4(7)5-3/h3,6H,1-2H2,(H,5,7)	InChI=1S/C4H7NO3/c6-1-3-2-8-4(7)5-3/h3,6H,1-2H2,(H,5,7)/t3-/m0/s1
