17
gdb 82773	2.95028	1.8897	1.53009	2.3217	65.43	-0.2312	0.0615	0.2927	887.0691	0.138956	-458.930962	-458.924659	-458.923714	-458.961382	26.526	
O	-0.0225429991	 1.4650193156	-0.0631111188	-0.447032
C	 0.0333182672	 0.0643468541	 0.0217291224	 0.156441
C	-1.3537309378	-0.5803907912	-0.2113955962	 0.003479
O	-1.5955965325	-0.0954728835	-1.577003243	-0.319046
C	-0.5745664658	-1.0672014234	-1.9405890937	 0.064547
C	-1.0306065846	-1.9947897636	-0.7929222544	-0.068464
C	 0.2161757269	-2.7027732274	-0.2846863686	-0.11298
O	 1.3044585184	-1.8768905433	-0.7405382701	-0.268775
C	 0.7263279106	-0.6534787359	-1.1806529965	 0.018863
H	-0.603494437	 1.6517543301	-0.8141880836	 0.286482
H	 0.5173644499	-0.1965134803	 0.9651725298	 0.095147
H	-2.1659155228	-0.3688739577	 0.483217343	 0.090204
H	-0.5408395277	-1.3257104058	-2.9969688912	 0.094853
H	-1.9107333905	-2.6056118037	-0.9847723417	 0.095037
H	 0.2424109599	-2.8046946923	 0.8083689742	 0.107333
H	 0.3280802101	-3.7016358969	-0.7215766428	 0.113422
H	 1.4794349848	-0.0660724748	-1.7027728788	 0.090489
190.3914	279.3617	324.3094	370.5367	463.004	531.845	574.6236	618.5953	738.6892	764.5553	812.5096	856.9235	867.8734	899.2541	913.4704	940.2859	960.9709	993.608	1005.9326	1040.0241	1043.0934	1092.2377	1109.9537	1145.2895	1177.0612	1196.6517	1230.6282	1237.0472	1258.5334	1269.0579	1284.9557	1297.4001	1325.9747	1346.1248	1387.2312	1443.9772	1522.9495	3013.8389	3057.5919	3099.9948	3131.2688	3139.0667	3142.7499	3151.9631	3743.1446
OC1C2OC3C2COC13	O[C@H]1[C@H]2O[C@@H]3[C@H]2CO[C@H]13	
InChI=1S/C6H8O3/c7-3-4-2-1-8-6(3)5(2)9-4/h2-7H,1H2	InChI=1S/C6H8O3/c7-3-4-2-1-8-6(3)5(2)9-4/h2-7H,1H2/t2-,3-,4-,5+,6+/m0/s1
