16
gdb 36996	3.03749	2.78087	2.4777	2.4615	73.7	-0.21	-0.0535	0.1565	686.4518	0.126623	-363.425183	-363.419977	-363.419033	-363.454233	23.358	
C	 0.3903022637	 1.4731247299	 0.2378423295	-0.056007
C	 1.6881394618	 1.784178486	-0.3825446542	-0.106277
C	 1.1501111281	 1.0435284212	 1.5735793626	-0.064301
C	 0.4101941308	-0.3425430923	 1.5456954937	-0.05623
C	-0.0109622546	-0.0277993987	 0.0818035431	-0.049177
N	 1.2346178137	-0.7048752909	-0.4570273273	-0.171347
C	 1.6845265988	-1.0045840051	 0.9627695653	 0.003742
C	 2.4770141881	 0.3333357339	 1.0169832965	-0.069806
C	 2.2545512766	 0.4401931998	-0.5362534503	-0.023857
H	-0.3733001022	 2.2382769093	 0.3467179315	 0.087542
H	 1.2152201582	 1.7242040018	 2.4154955344	 0.095241
H	-0.2365183339	-0.7079776685	 2.3412708691	 0.073737
H	-0.9493240787	-0.3192006782	-0.389287202	 0.076175
H	 2.0936931321	-1.9913056857	 1.1832471107	 0.07607
H	 3.4352463971	 0.5238531565	 1.492402806	 0.08873
H	 3.0934429203	 0.2557327411	-1.2007014185	 0.095765
278.1899	402.8928	587.7087	642.4192	681.5783	712.2452	768.1398	801.5541	816.4302	822.4524	838.7387	861.021	873.9617	896.7001	903.8027	929.2432	964.5073	976.5968	993.9026	1014.6624	1039.9597	1098.5664	1122.306	1130.1911	1156.1307	1172.0434	1180.4069	1189.6814	1211.7661	1213.9545	1241.7444	1248.9077	1257.3596	1278.1019	1302.3052	3096.3592	3106.0631	3128.2255	3145.9392	3156.4358	3165.1527	3172.5201
C1=C2C3C4C1N1C4C3C21	[C@@H]12[C][C@@H]3N4[C@H]2[C@@H]2[C@H]1[C@H]3[C@H]42	
InChI=1S/C8H7N/c1-2-4-5-3(1)9-7(2)6(4)8(5)9/h1,3-8H	InChI=1S/C8H7N/c1-2-4-5-3(1)9-7(2)6(4)8(5)9/h2-8H/t2-,3+,4-,5+,6+,7-,8+/m1/s1
