19
gdb 52942	4.51761	0.92035	0.87516	1.5231	86.11	-0.2292	0.0427	0.2719	1413.837	0.15941	-385.846111	-385.837628	-385.836684	-385.880967	31.801	
C	 0.0329243094	 1.4611899164	-0.0318204451	-0.515343
C	 0.0160450066	 0.0068012767	-0.0087870748	 0.374101
C	 0.0093676253	-1.1971443949	 0.0027747864	-0.310574
C	-0.0308780091	-2.6342597747	 0.049819221	 0.350432
C	 0.2081741709	-3.4757350421	 1.3406572501	-0.266376
C	-0.3965850404	-4.590486986	 0.4341391227	-0.118919
C	-1.3249552805	-3.4815207076	-0.1476713083	-0.266375
C	 0.6700551555	-4.6481473265	-0.664384676	-0.072007
O	 0.8880415732	-3.2386266621	-0.8944115196	-0.324704
H	 0.749359575	 1.8330386911	-0.7724907369	 0.154547
H	-0.9514839132	 1.8676013717	-0.2890475746	 0.149286
H	 0.3192797024	 1.8723537982	 0.9425203544	 0.149288
H	 1.2439501344	-3.5734313416	 1.6735632223	 0.103466
H	-0.4476923351	-3.1870806983	 2.1626306842	 0.107212
H	-0.775816516	-5.5317524299	 0.8284452014	 0.076408
H	-2.1282423857	-3.1934223628	 0.5311892312	 0.107212
H	-1.6880343391	-3.5844962859	-1.1727432326	 0.103466
H	 1.6034298785	-5.1249278522	-0.3421073778	 0.09944
H	 0.322107378	-5.1297625394	-1.5859864878	 0.09944
15.1795	94.1075	98.2229	277.5663	305.1562	358.0766	437.6836	450.3342	485.2895	531.8399	552.8988	654.1727	828.2539	855.8232	884.6339	886.2668	938.7498	960.0375	971.0719	983.5345	1015.9491	1040.8548	1053.1508	1055.3126	1091.7045	1096.5091	1148.5286	1148.7733	1186.774	1221.2639	1246.2226	1293.4268	1345.0363	1359.8013	1413.6104	1473.1054	1476.2519	1477.3426	1504.59	1532.4399	2375.4119	3020.015	3026.9145	3059.9496	3069.6524	3075.0349	3087.482	3090.0231	3131.9109	3140.3507	3146.7479
CC#CC12CC(C1)CO2	CC#C[C@@]12C[C@@H](C1)CO2	
InChI=1S/C8H10O/c1-2-3-8-4-7(5-8)6-9-8/h7H,4-6H2,1H3	InChI=1S/C8H10O/c1-2-3-8-4-7(5-8)6-9-8/h7H,4-6H2,1H3/t7-,8+
