21
gdb 89409	2.79438	1.42679	1.19697	2.7648	77.79	-0.2537	0.0821	0.3358	1141.2512	0.182307	-424.237374	-424.228555	-424.227611	-424.270176	34.8	
C	 0.065378773	 1.602631865	-0.003831472	-0.394575
C	 0.0819936798	 0.0742194676	 0.0029454159	-0.036074
C	 0.8216638127	-0.5718780097	-1.1549427867	-0.017461
O	 2.2559640248	-0.6150859553	-0.9653952177	-0.317215
C	 1.4737401958	-1.8118750146	-0.7112012851	 0.407792
C	 1.7789382713	-2.9921186849	-1.5895536074	-0.486121
C	 1.1827227226	-1.9835533933	 0.7722272098	-0.306319
C	 0.7735653545	-0.5668767149	 1.2485396543	 0.107495
O	 1.8917823792	 0.1779488387	 1.6955711474	-0.4372
H	 1.0797903024	 2.0060087302	 0.0257513335	 0.127866
H	-0.4323628055	 1.9821577079	-0.9023520607	 0.106422
H	-0.4696188577	 1.9911607181	 0.8679917931	 0.118722
H	-0.9535315533	-0.2951286422	-0.0375651552	 0.074939
H	 0.5065193284	-0.4104652771	-2.1839859045	 0.089678
H	 1.9344017277	-2.6752723853	-2.6238238174	 0.130608
H	 2.6854987581	-3.5040917431	-1.2490641295	 0.130018
H	 0.9568924418	-3.7151748812	-1.5628312945	 0.123623
H	 0.3617136963	-2.7006135956	 0.8971857981	 0.100255
H	 2.0411078449	-2.3517166717	 1.3423057552	 0.112069
H	 0.0889105949	-0.6064353973	 2.0997790828	 0.079034
H	 2.5071076384	 0.1876619785	 0.9493860604	 0.286444
134.132	169.0818	195.2494	211.7086	233.9877	277.6	337.0055	401.6099	418.265	483.3153	523.3208	575.073	624.4522	672.5982	760.7122	830.4426	846.6874	884.2805	906.6651	926.0862	995.7418	998.2872	1008.4081	1047.0921	1063.852	1095.617	1137.1314	1149.9121	1210.7563	1226.0429	1249.3725	1268.3032	1308.172	1334.1217	1346.6289	1364.4902	1410.1979	1413.0087	1450.3402	1457.3474	1476.3342	1488.9441	1494.3705	1497.2239	1500.5026	3000.1915	3032.9716	3037.6531	3041.1801	3077.9228	3090.8531	3099.2234	3103.9585	3123.2444	3130.5103	3135.4619	3745.9723
CC1C2OC2(C)CC1O	C[C@H]1[C@H]2O[C@@]2(C)C[C@H]1O	
InChI=1S/C7H12O2/c1-4-5(8)3-7(2)6(4)9-7/h4-6,8H,3H2,1-2H3	InChI=1S/C7H12O2/c1-4-5(8)3-7(2)6(4)9-7/h4-6,8H,3H2,1-2H3/t4-,5-,6-,7+/m1/s1
