16
gdb 11808	3.42434	1.81747	1.38971	2.4176	65.6	-0.2441	-0.0291	0.215	901.1735	0.128984	-383.724546	-383.716734	-383.715789	-383.75683	28.972	
O	 0.5252928668	 0.8151683421	-0.7294813425	-0.420089
C	 0.149567547	-0.3404988124	-0.0443522162	-0.00766
C	 0.080239768	-0.3270580755	 1.4975490416	 0.339782
O	 0.6370702597	 0.3371632454	 2.3235043233	-0.294738
C	-1.193131377	-1.1980082865	 1.4983063039	-0.422497
C	-1.3301269461	-0.8054232546	 0.0171706911	 0.298743
C	-2.4546690416	-0.0181877845	-0.585818753	-0.310836
C	-2.142223965	-1.4164114392	-1.077518416	-0.334718
H	 0.3126113261	 1.5742481323	-0.1744801957	 0.294011
H	 0.7905780164	-1.1581957096	-0.3995555333	 0.11461
H	-0.9742569429	-2.2598503379	 1.6559744917	 0.130733
H	-1.9749420117	-0.8855129304	 2.1945937534	 0.132726
H	-3.3557070434	 0.1304351667	 0.0004064286	 0.116218
H	-2.1851685976	 0.8129494332	-1.2296720946	 0.124399
H	-1.6820196074	-1.5202703212	-2.0552613624	 0.122218
H	-2.8325979314	-2.213201758	-0.8198321299	 0.117098
65.956	142.8917	207.9455	227.326	282.3923	330.4633	390.5796	517.3356	538.7665	622.0723	743.426	766.0086	791.1727	855.2551	871.7495	937.7371	983.1619	1004.4103	1054.4294	1061.1837	1084.4796	1099.6716	1150.134	1162.4248	1190.6928	1216.7439	1252.5185	1308.1933	1379.3668	1416.2255	1449.5633	1461.8458	1503.3035	1884.5745	3028.8453	3050.0003	3112.6844	3123.6079	3126.9828	3203.7141	3218.6669	3798.8559
OC1C(=O)CC11CC1	O[C@H]1C(=O)CC21CC2	
InChI=1S/C6H8O2/c7-4-3-6(1-2-6)5(4)8/h5,8H,1-3H2	InChI=1S/C6H8O2/c7-4-3-6(1-2-6)5(4)8/h5,8H,1-3H2/t5-/m0/s1
