17
gdb 109191	3.74495	0.9985	0.91649	4.0868	75.36	-0.2269	0.0135	0.2404	1309.165	0.138133	-414.214461	-414.205642	-414.204698	-414.248589	31.491	
C	 0.0071368573	 1.396557358	 0.0962477916	-0.317489
N	-0.0518881851	-0.0580044434	 0.0814907652	-0.375733
C	-1.269304306	-0.6692476733	-0.023884065	 0.46702
N	-2.406221844	-0.0859579406	 0.0546373915	-0.318854
C	-3.427376477	-1.1189856558	-0.0505653025	-0.175611
C	-2.6588239643	-2.4935872425	 0.0094559317	-0.131316
N	-1.2743528409	-2.0643753617	-0.2448482101	-0.373193
C	-2.7973263326	-3.1667472243	 1.3080593254	 0.262089
N	-2.8904472308	-3.7039185123	 2.3276725817	-0.319962
H	 1.026698113	 1.7055241128	 0.3370061824	 0.123044
H	-0.2922236195	 1.8443281391	-0.8601178067	 0.127657
H	-0.6701589511	 1.7687564291	 0.866461081	 0.161907
H	 0.6967182331	-0.5233343462	-0.4088884858	 0.246213
H	-4.1702341729	-1.0399413057	 0.7483063137	 0.128684
H	-3.9606544075	-1.0389493485	-1.005907759	 0.115252
H	-3.003310814	-3.1838857044	-0.7658443508	 0.13156
H	-0.5663591378	-2.5844921703	 0.2589623457	 0.248732
53.757	119.308	141.4177	164.6563	221.4805	250.9753	288.5313	421.5886	468.6902	516.7314	594.3536	616.9761	721.0727	755.2854	793.6419	823.6446	940.4825	997.5941	1040.4836	1049.5345	1089.9195	1117.8101	1152.3471	1190.7979	1218.0101	1253.1382	1287.176	1336.8589	1362.3236	1424.0394	1453.5831	1481.4875	1507.1863	1508.7204	1554.0832	1738.4308	2349.9663	3021.7392	3026.3452	3066.2524	3081.4294	3103.4249	3147.0457	3564.5275	3616.7113
CNC1=NCC(N1)C#N	CN[C]1[N]C[C@@H](N1)C#N	
InChI=1S/C5H8N4/c1-7-5-8-3-4(2-6)9-5/h4H,3H2,1H3,(H2,7,8,9)	InChI=1S/C5H8N4/c1-7-5-8-3-4(2-6)9-5/h4H,3H2,1H3,(H2,7,8,9)/t4-/m0/s1
