23
gdb 116205	2.26889	1.41608	0.98027	1.5681	85.59	-0.2205	0.0857	0.3061	1302.4381	0.206213	-388.288452	-388.279275	-388.27833	-388.323112	35.344	
C	-0.0164151706	 1.6264500024	-0.0332600623	-0.390061
C	 0.0172552077	 0.0963691031	 0.0382613908	-0.194678
C	-1.3723853701	-0.5444387872	-0.0070653092	-0.061865
C	-2.1552116164	-0.3142649668	-1.3156393101	-0.230405
C	-3.12719328	-1.4934695124	-1.3089220877	-0.089796
O	-2.3825373314	-2.5832814556	-0.7815743272	-0.299444
C	-1.4032649461	-2.076865795	 0.1105086405	 0.458874
C	-0.2083191961	-2.962125477	 0.3032506547	-0.332149
C	-1.2367492191	-2.8042077662	 1.4125856597	-0.327359
H	 0.9918445058	 2.0458012773	 0.0374767325	 0.113146
H	-0.454834133	 1.974807285	-0.9738868547	 0.119531
H	-0.6104842007	 2.0481275801	 0.7854190294	 0.114336
H	 0.6226899946	-0.3007336726	-0.7861338097	 0.101408
H	 0.5245298611	-0.2045250385	 0.9641420695	 0.097111
H	-1.9659767205	-0.1308975593	 0.8206947194	 0.074663
H	-2.6587405871	 0.6545918035	-1.3548926655	 0.100085
H	-1.4817019265	-0.387995855	-2.1777502129	 0.104043
H	-4.0025878948	-1.2750809387	-0.6752737768	 0.087195
H	-3.4877198091	-1.7803347753	-2.3009992717	 0.105045
H	-0.2131510491	-3.8957780516	-0.2482453144	 0.11876
H	 0.771821652	-2.5184064331	 0.4368904184	 0.109922
H	-0.9580205168	-2.2346426512	 2.2944837609	 0.10438
H	-1.9041554939	-3.6380382358	 1.5991173865	 0.117257
25.9755	112.3668	176.2901	200.734	244.2008	273.6608	291.2391	400.7742	420.8314	487.3525	519.3766	617.5837	731.4324	766.1296	791.834	853.9568	871.5756	896.9955	929.6405	949.4805	956.6543	972.1893	1011.6377	1019.198	1047.6505	1071.3494	1076.0231	1101.8363	1145.3407	1171.3435	1192.0348	1202.8479	1236.2006	1243.5905	1289.2633	1314.1101	1325.4177	1353.6184	1363.9884	1391.1354	1398.0049	1414.8612	1449.751	1485.5552	1491.0319	1496.7831	1502.3363	1508.0605	1524.5058	2967.1916	2998.2019	3016.9942	3032.7119	3039.5895	3054.0423	3082.5068	3099.5495	3104.627	3108.3802	3121.8631	3135.0511	3211.1634	3227.2763
CCC1CCOC11CC1	CC[C@H]1CCOC21CC2	
InChI=1S/C8H14O/c1-2-7-3-6-9-8(7)4-5-8/h7H,2-6H2,1H3	InChI=1S/C8H14O/c1-2-7-3-6-9-8(7)4-5-8/h7H,2-6H2,1H3/t7-/m0/s1
