20
gdb 15423	5.32403	0.87249	0.81791	2.4872	73.1	-0.2539	0.0844	0.3383	1476.1348	0.174518	-386.110152	-386.100499	-386.099554	-386.145644	33.272	
C	-0.1427953055	 1.4573284897	-0.5103181545	-0.375366
C	-0.0235173941	 0.1842958366	 0.3367483761	-0.215159
C	-1.3355205317	-0.5634109112	 0.4071342373	 0.075093
O	-1.7470553295	-1.2895879954	-0.7575781713	-0.259449
C	-1.4838307243	-2.0261305879	 0.4410756435	 0.042374
C	-0.3296109076	-2.9939050541	 0.4360436754	-0.082731
O	-0.8274349871	-4.2607330107	 0.0643375083	-0.23281
C	 0.1710060865	-5.2514734858	 0.0328962383	-0.224815
H	 0.8091405725	 1.994559072	-0.5514781066	 0.11354
H	-0.4412882065	 1.2100774603	-1.5333012124	 0.136113
H	-0.894630172	 2.1386755931	-0.0972108824	 0.11611
H	 0.7554892622	-0.4628906998	-0.076847601	 0.104196
H	 0.283933743	 0.4420066488	 1.3587979603	 0.10113
H	-2.1455267187	 0.0138167836	 0.8619196714	 0.084662
H	-2.3765114848	-2.4369625033	 0.9158645454	 0.0964
H	 0.4473881375	-2.658381371	-0.2664128688	 0.097335
H	 0.1237196779	-3.0403392539	 1.4430581491	 0.086537
H	 0.9584368535	-5.0167917716	-0.7008746108	 0.10559
H	 0.6493255089	-5.381732599	 1.0172875389	 0.101643
H	-0.3091135302	-6.1901855903	-0.2534157862	 0.129606
48.824	75.4216	88.2572	112.7305	201.6532	231.2364	232.9434	292.8374	340.6539	449.7245	489.581	562.0023	748.6359	818.5411	833.7822	929.9582	968.6897	989.6246	1036.6101	1047.6686	1106.9598	1117.1502	1156.4567	1176.04	1182.5223	1189.1313	1228.6751	1265.2365	1291.511	1302.664	1339.3647	1372.5813	1407.0208	1427.8711	1472.2581	1476.0261	1484.8928	1494.816	1497.7542	1500.8034	1509.8257	1521.3641	2941.335	2967.2172	3007.8714	3011.192	3027.6171	3036.6007	3064.0409	3084.1683	3102.4445	3108.0951	3116.0499	3117.5677
CCC1OC1COC	CC[C@H]1O[C@H]1COC	
InChI=1S/C6H12O2/c1-3-5-6(8-5)4-7-2/h5-6H,3-4H2,1-2H3	InChI=1S/C6H12O2/c1-3-5-6(8-5)4-7-2/h5-6H,3-4H2,1-2H3/t5-,6+/m1/s1
