21
gdb 63758	2.87304	1.3518	1.12915	0.8079	88.71	-0.2423	0.0488	0.2912	1175.6924	0.18089	-349.898857	-349.889753	-349.888809	-349.931828	36.231	
C	-0.301991241	 1.567703464	 0.0236504856	-0.458966
C	-0.03227349	 0.0644938701	 0.0171256298	 0.320199
C	-1.3316539449	-0.7056076174	-0.2440220794	-0.427182
C	 1.123404221	-0.4832634456	-0.9028952519	-0.298284
C	 1.725336334	-1.203633134	 0.3102648786	-0.062093
C	 2.1650578508	-0.2029145202	 1.3581087797	-0.217638
C	 2.7887991679	 1.0562348667	 1.0564718829	 0.325325
C	 3.3708542003	 2.0842058479	 0.8247243199	-0.449438
C	 0.6932117804	-0.5615789647	 1.2284132498	-0.096903
H	 0.6065481845	 2.1452066821	 0.1988109887	 0.135819
H	-0.7279288946	 1.8838387867	-0.9360769319	 0.106
H	-1.0259857621	 1.8266396153	 0.8053204426	 0.107101
H	-1.7568150648	-0.4287954629	-1.2152346625	 0.11128
H	-1.1637216783	-1.7878846951	-0.2430991366	 0.110901
H	-2.0807174314	-0.4825841495	 0.5248021007	 0.10995
H	 0.7595180559	-1.155901606	-1.6824733986	 0.098724
H	 1.7737783795	 0.2698149384	-1.3569476655	 0.108129
H	 2.1189014361	-2.2130352778	 0.3174237109	 0.088969
H	 2.6037756014	-0.6892127481	 2.2277836342	 0.113275
H	 3.868945115	 2.999179619	 0.6196673217	 0.19291
H	 0.1821985802	-0.992215879	 2.0839400213	 0.08192
120.6036	136.6355	205.1898	219.2291	264.0543	283.5057	341.9225	373.7757	387.4024	425.0172	552.8513	586.1354	621.764	636.1293	649.0858	745.6443	780.9476	830.3456	859.0934	915.0412	951.97	963.42	973.1853	995.8152	1002.5444	1015.1426	1045.0183	1075.2566	1140.4268	1174.2745	1210.2049	1230.7532	1243.2055	1276.7401	1302.0762	1345.4814	1401.2618	1409.6381	1421.1178	1482.5431	1487.6344	1490.1327	1502.3012	1513.4815	2227.5049	3020.3136	3027.2563	3057.5697	3080.997	3088.5527	3095.3989	3112.9771	3122.059	3140.8814	3155.1916	3181.708	3503.0097
CC1(C)CC2C(C#C)C12	CC1(C)C[C@H]2[C@@H](C#C)[C@@H]12	
InChI=1S/C9H12/c1-4-6-7-5-9(2,3)8(6)7/h1,6-8H,5H2,2-3H3	InChI=1S/C9H12/c1-4-6-7-5-9(2,3)8(6)7/h1,6-8H,5H2,2-3H3/t6-,7+,8-/m1/s1
