16
gdb 32140	3.90786	1.13401	0.8839	2.5444	75.87	-0.2314	-0.0081	0.2233	1257.9334	0.126049	-437.951742	-437.94401	-437.943066	-437.984066	29.402	
C	-0.0159363511	 1.4119292245	-0.0720840411	-0.249008
O	 0.0244546464	-0.0041793634	-0.0011628509	-0.262009
C	 0.6294999658	-0.5771708803	 1.0620506842	 0.451815
C	 1.2293632836	 0.127963654	 2.1164539296	-0.287607
C	 1.8096137353	-0.6142188746	 3.136070975	 0.003609
N	 1.8364156454	-1.9480503615	 3.182903311	-0.376186
C	 1.2592422575	-2.591947766	 2.1684101503	 0.458697
O	 1.2831239395	-3.9411048488	 2.2100642436	-0.420819
C	 0.6439381933	-1.9697000924	 1.0871377393	-0.337628
H	 0.9922874362	 1.8418697655	-0.1075340828	 0.130823
H	-0.5422186205	 1.651188801	-0.9971109755	 0.141013
H	-0.5615738543	 1.8418268095	 0.7764975941	 0.130822
H	 1.2503360965	 1.2077239639	 2.1535550959	 0.097645
H	 2.2835883549	-0.1005848903	 3.9691892042	 0.109662
H	 1.7483915324	-4.1667823918	 3.0277025761	 0.295898
H	 0.1905291992	-2.5436405692	 0.290149847	 0.113274
90.4768	200.2886	225.3151	237.1003	263.0113	376.2018	468.0642	471.8569	538.105	568.8415	590.2331	680.3395	765.374	779.6438	810.2382	878.5894	960.7474	974.8255	1004.3764	1070.9569	1128.6255	1176.5596	1177.6232	1205.0766	1266.1352	1333.7141	1336.4669	1362.8001	1474.7088	1490.6901	1498.0848	1504.7842	1535.1891	1613.5995	1661.9336	3014.3685	3078.4743	3140.6608	3156.2236	3223.8705	3228.377	3766.5796
COC1=CC=NC(O)=C1	COc1ccnc(O)c1	
InChI=1S/C6H7NO2/c1-9-5-2-3-7-6(8)4-5/h2-4H,1H3,(H,7,8)	InChI=1S/C6H7NO2/c1-9-5-2-3-7-6(8)4-5/h2-4H,1H3,(H,7,8)
