23
gdb 61758	2.69589	0.90451	0.81876	3.2815	82.62	-0.2425	-0.0198	0.2228	1526.7751	0.201416	-425.44202	-425.430737	-425.429793	-425.478576	41.283	
C	-0.1220377562	 1.5263141191	-0.050378734	-0.406875
C	-0.0085843663	-0.0064750124	 0.0625839197	 0.246509
C	 0.7078399888	-0.3677296232	 1.3773628687	-0.429229
C	-1.4250556894	-0.6109213017	 0.0644860493	-0.416056
C	 0.7901566841	-0.5159724471	-1.1749926098	 0.111201
O	 2.0710129349	 0.1036289558	-1.282363941	-0.438937
C	 0.9441491429	-2.0469850576	-1.2749424977	-0.321135
C	 1.5503069504	-2.4693479449	-2.5988334199	 0.158796
O	 1.1498084139	-3.3935022182	-3.2603413944	-0.244869
H	 0.8646425824	 1.9888209013	-0.123440591	 0.125461
H	-0.6917890463	 1.8121358915	-0.9415846284	 0.110245
H	-0.6384103747	 1.9393899657	 0.8222528857	 0.106572
H	 0.1403939243	 0.0119159662	 2.2330195342	 0.121978
H	 0.8100454079	-1.4497473382	 1.5097624616	 0.115578
H	 1.7056483898	 0.0822443226	 1.4370335913	 0.104826
H	-1.924577088	-0.4575807909	-0.898820227	 0.11583
H	-1.4215288754	-1.6841240501	 0.2761450287	 0.116743
H	-2.0385936585	-0.1293403629	 0.8328405779	 0.115126
H	 0.2515629117	-0.1662569276	-2.0653864596	 0.094896
H	 2.6015255096	-0.181512803	-0.5303831511	 0.280199
H	 1.6208690555	-2.3909804154	-0.4782618825	 0.112853
H	-0.0032262036	-2.5763766009	-1.1548297779	 0.126793
H	 2.4122432125	-1.8514311482	-2.928691073	 0.093496
50.2642	68.7073	90.4108	168.0203	219.6739	247.774	261.6441	279.4974	292.405	320.3338	336.9992	356.2335	380.7177	437.9122	466.779	536.3146	550.7312	750.7759	813.5092	863.4918	934.4894	939.8905	953.0382	962.8667	1020.3206	1027.4353	1056.9251	1081.0486	1110.0843	1193.3287	1208.4325	1246.5525	1262.9661	1295.1585	1313.9959	1370.8368	1398.2831	1402.1171	1414.6068	1420.0339	1434.664	1454.4481	1482.5392	1487.3462	1490.7467	1507.3994	1513.4721	1521.3328	1828.8019	2913.5582	3005.0741	3027.2294	3028.7075	3030.4442	3037.5313	3091.5988	3093.8185	3097.9991	3101.9127	3106.3697	3119.6978	3127.2682	3805.0308
CC(C)(C)C(O)CC=O	CC(C)(C)[C@@H](O)CC=O	
InChI=1S/C7H14O2/c1-7(2,3)6(9)4-5-8/h5-6,9H,4H2,1-3H3	InChI=1S/C7H14O2/c1-7(2,3)6(9)4-5-8/h5-6,9H,4H2,1-3H3/t6-/m0/s1
