19
gdb 54315	2.62755	1.47361	1.10057	3.4343	76.04	-0.2323	0.036	0.2683	1135.4272	0.159316	-419.196382	-419.187632	-419.186688	-419.229757	33.797	
N	-0.0855370033	 1.0294364933	 0.6014492874	-0.544834
C	-0.0032242092	-0.0790294156	-0.1810915304	 0.376507
O	 0.9325004576	-0.3139110743	-0.9267760191	-0.385016
C	-1.1833366742	-1.0210878732	-0.0579168914	 0.232725
C	-1.4053962438	-1.9313240282	-1.251350554	-0.304885
C	-0.804628413	-2.4841421613	 0.0088881327	-0.281407
N	-2.2495819902	-0.5077148759	 0.7777722717	-0.152578
C	-3.4270839915	 0.0760176704	 0.1304036278	-0.227389
C	-3.5213918211	-1.209289766	 0.8736415522	-0.234487
H	 0.7252241891	 1.6225007849	 0.6616013673	 0.256129
H	-0.7994043321	 1.0658710529	 1.3112228778	 0.266413
H	-2.4234751463	-2.2101413742	-1.5007233869	 0.110096
H	-0.7452457107	-1.7679223962	-2.0941530708	 0.14548
H	 0.2541990566	-2.7127597675	 0.0083410398	 0.138747
H	-1.4217967407	-3.1185794094	 0.6359029667	 0.116091
H	-3.7997495504	 0.9973035109	 0.5681170979	 0.118897
H	-3.4787758717	 0.0261572734	-0.9545633492	 0.125608
H	-3.6675442892	-2.1140180058	 0.2881766053	 0.121818
H	-3.9577706559	-1.2438360083	 1.8678480449	 0.122086
75.0479	93.7067	207.3353	232.7727	271.5917	293.7067	376.361	387.915	463.3699	492.3547	534.4588	629.2819	660.6397	765.0445	776.4447	803.7237	835.7764	893.9833	923.443	947.0953	957.3921	1003.0677	1046.3345	1064.1554	1089.217	1103.9089	1117.3354	1126.3218	1173.5177	1183.8585	1201.412	1221.7048	1263.6612	1354.2518	1392.4828	1443.5526	1476.4135	1493.9124	1520.7239	1585.0311	1786.7119	3105.7408	3110.1233	3139.0533	3140.4614	3184.1948	3200.885	3229.1893	3241.2965	3584.9186	3726.9739
NC(=O)C1(CC1)N1CC1	NC(=O)C1(CC1)N1CC1	
InChI=1S/C6H10N2O/c7-5(9)6(1-2-6)8-3-4-8/h1-4H2,(H2,7,9)	InChI=1S/C6H10N2O/c7-5(9)6(1-2-6)8-3-4-8/h1-4H2,(H2,7,9)
