20
gdb 72935	2.66209	1.77915	1.47852	0.5085	77.76	-0.2092	0.055	0.2643	989.9538	0.172007	-403.076596	-403.068948	-403.068003	-403.10859	30.599	
C	-0.2547979085	 1.4681693893	-0.1257780878	-0.466591
C	 0.0280440212	-0.0008943196	 0.0709172208	 0.28854
C	-1.1253296365	-0.9230394292	 0.5182385237	-0.121716
O	-0.2929441199	-1.5645059959	 1.5152552264	-0.291363
C	 0.8024179402	-0.6677010204	 1.2485861533	 0.043523
C	 1.8220914943	-1.188920363	 0.2116932287	 0.016095
C	 1.6158789495	-2.596239556	-0.3933222466	-0.256312
C	 0.8240647956	-1.8905860794	-1.532155132	-0.175626
N	 1.0430095776	-0.5428620581	-0.9112754505	-0.183849
H	 0.6778547467	 2.0283584206	-0.2330418792	 0.127392
H	-0.8375431878	 1.621223389	-1.0420380291	 0.12256
H	-0.8229231144	 1.8825846867	 0.7137355601	 0.113486
H	-1.9517105877	-0.3741466849	 0.9893092285	 0.09995
H	-1.543217892	-1.6332107903	-0.2026998801	 0.10621
H	 1.1645630977	-0.1687910721	 2.1521374167	 0.072506
H	 2.8518076946	-0.8437298039	 0.3531777412	 0.070246
H	 2.5319114327	-3.0997003852	-0.7073398168	 0.102327
H	 1.0273336177	-3.2656371469	 0.2353665564	 0.12409
H	 1.2997631231	-1.9411582301	-2.5164465133	 0.105772
H	-0.2210285441	-2.1885671006	-1.6530804604	 0.10276
76.8995	204.6386	231.9086	255.3455	309.4018	354.2161	451.3109	508.2245	607.6518	662.3741	717.8073	767.7088	814.8854	840.3775	886.4129	910.1811	920.341	959.4262	964.4356	992.7996	1009.1823	1019.5944	1074.3202	1099.8567	1142.9345	1163.0227	1166.8682	1191.34	1209.2352	1225.059	1231.2946	1262.5733	1272.142	1302.5584	1311.1562	1339.1367	1371.5942	1409.4954	1473.4017	1481.6515	1489.9257	1500.0936	1533.9815	3011.1879	3028.7054	3040.3984	3046.6976	3067.9549	3071.9123	3080.5083	3088.3292	3093.4816	3116.7747	3139.5404
CC12COC1C1CCN21	C[C@]12CO[C@H]1[C@H]1CCN21	
InChI=1S/C7H11NO/c1-7-4-9-6(7)5-2-3-8(5)7/h5-6H,2-4H2,1H3	InChI=1S/C7H11NO/c1-7-4-9-6(7)5-2-3-8(5)7/h5-6H,2-4H2,1H3/t5-,6+,7+/m1/s1
