18
gdb 72894	3.11788	1.44876	1.19296	2.3462	72.01	-0.242	0.0486	0.2906	1062.771	0.147531	-439.012849	-439.004931	-439.003986	-439.045387	30.962	
O	 0.5194862483	 1.2870060423	-0.5528465685	-0.472897
C	 0.0769355961	 0.0795044556	-0.0273394309	 0.371172
C	 0.2046085868	-1.0903813303	-1.0210673124	-0.110028
O	-1.1836598591	-1.4719438616	-0.8504435147	-0.286603
C	-1.4073501456	-0.4255771182	 0.1115238638	-0.07819
C	-1.0665093492	-0.8682053191	 1.5406750986	 0.362719
C	-1.9979779057	-1.0011648277	 2.681948052	-0.312478
N	-1.3622963341	-2.187549553	 2.0810694417	-0.348145
C	 0.3514128728	-0.2767775702	 1.4575540648	-0.395131
H	 0.4656354707	 1.9618601271	 0.1316990513	 0.283278
H	 0.4030028814	-0.7541898548	-2.0445109187	 0.116548
H	 0.8985411786	-1.8936525525	-0.7488038765	 0.108681
H	-2.3241079368	 0.1392455457	-0.0780673259	 0.076564
H	-1.6623464314	-0.7667636428	 3.689238319	 0.117614
H	-3.0546838936	-0.8161795479	 2.5012145969	 0.113417
H	-2.0022556622	-2.6708376832	 1.4534958583	 0.240678
H	 1.1780051907	-0.9624376629	 1.6604626566	 0.117268
H	 0.4745734023	 0.6202145435	 2.0767852047	 0.095532
54.7336	216.1343	241.7748	258.1435	309.0584	349.0195	386.6744	397.6014	507.0837	548.3294	663.5582	750.0952	823.1392	860.1691	894.928	910.1448	927.5485	949.845	980.1166	1000.4411	1029.1033	1050.953	1068.1259	1099.5404	1133.6192	1142.6608	1148.9774	1161.8443	1211.1976	1249.603	1266.3547	1291.4317	1313.7149	1341.5834	1404.9416	1414.5387	1473.8222	1510.3727	1512.7693	3028.7195	3031.0655	3077.2499	3084.4694	3097.2585	3101.7486	3181.5887	3488.2439	3814.3704
OC12COC1C1(CN1)C2	O[C@]12CO[C@H]1[C@]1(CN1)C2	
InChI=1S/C6H9NO2/c8-6-1-5(2-7-5)4(6)9-3-6/h4,7-8H,1-3H2	InChI=1S/C6H9NO2/c8-6-1-5(2-7-5)4(6)9-3-6/h4,7-8H,1-3H2/t4-,5+,6+/m0/s1
