23
gdb 95940	1.96143	1.50843	1.18118	2.6202	85.17	-0.2449	-0.0156	0.2293	1212.3892	0.205254	-388.325715	-388.316013	-388.315069	-388.360743	36.745	
C	-0.127666624	 1.5332977485	-0.0575620406	-0.418719
C	 0.0807861275	 0.0192251893	-0.0217970592	-0.003419
C	 0.8633184239	-0.5481707434	-1.2190012989	-0.207232
C	 1.2234207468	-1.9691382026	-0.7716279308	-0.213647
C	 1.6397230041	-1.7897424245	 0.7005782525	-0.257813
C	 0.8365454361	-0.571934586	 1.2390884945	 0.215993
C	 1.7526459841	 0.4484321996	 1.9411138071	-0.455918
C	-0.2280122061	-0.9857650739	 2.242214604	 0.125833
O	-0.4317195736	-2.1008901378	 2.6490097445	-0.257757
H	 0.8226571773	 2.0754494794	-0.0799178101	 0.118165
H	-0.6870901053	 1.8141479102	-0.9560796368	 0.116617
H	-0.6975641354	 1.891335949	 0.8062961199	 0.115061
H	-0.9141753575	-0.4496727269	-0.0459340737	 0.080696
H	 0.2839329852	-0.5107383822	-2.1469889597	 0.094601
H	 1.7755101047	 0.0423782478	-1.3808033016	 0.093416
H	 0.3379692849	-2.6123095888	-0.8399807009	 0.104843
H	 2.006698348	-2.4312752789	-1.3786730066	 0.094193
H	 1.446099024	-2.6765850812	 1.3075209658	 0.124174
H	 2.7115035402	-1.5743348901	 0.763154463	 0.092053
H	 2.4705674813	 0.8776766009	 1.2361417011	 0.123654
H	 1.1887466294	 1.272454114	 2.3904560351	 0.117191
H	 2.3224182952	-0.0414042638	 2.7375224933	 0.126182
H	-0.8598365008	-0.1347829685	 2.5941824881	 0.071832
30.6236	70.2846	209.5783	224.8737	245.1957	277.4274	281.8962	308.2925	343.1049	387.2435	451.0044	509.2226	563.8294	616.5958	734.9924	813.489	851.2453	887.9978	909.6947	924.7082	960.0287	972.94	1002.7253	1030.2494	1053.5176	1067.0046	1106.4799	1141.7	1177.3539	1200.2439	1219.31	1256.5016	1277.6599	1317.0474	1343.0093	1344.8352	1365.7654	1372.7465	1404.8429	1412.4454	1431.0578	1485.3291	1488.6387	1491.3528	1492.1266	1505.8368	1508.6354	1509.7129	1826.358	2840.0573	2985.4068	3017.6726	3030.482	3035.049	3037.3407	3048.6941	3078.9773	3092.3613	3095.3521	3101.1262	3103.9746	3109.452	3113.5559
CC1CCCC1(C)C=O	C[C@H]1CCC[C@]1(C)C=O	
InChI=1S/C8H14O/c1-7-4-3-5-8(7,2)6-9/h6-7H,3-5H2,1-2H3	InChI=1S/C8H14O/c1-7-4-3-5-8(7,2)6-9/h6-7H,3-5H2,1-2H3/t7-,8+/m0/s1
