19
gdb 12394	2.99598	2.06648	1.2977	3.6875	72.58	-0.2317	0.0337	0.2654	964.233	0.167729	-365.116932	-365.109018	-365.108074	-365.149259	29.427	
C	-0.0600576503	 1.4576984962	 0.0244433642	-0.343568
N	 0.02975683	 0.0108688111	-0.0778313613	-0.092448
C	-1.2442340664	-0.7000770431	-0.0152224258	-0.134493
C	-1.1367655802	-2.1693244339	-0.4127491701	-0.214981
C	 0.0374981532	-2.8205978403	 0.314999512	-0.211631
C	 1.327382651	-2.1029686372	-0.0855425533	-0.296151
C	 1.270526704	-0.5780860417	-0.0232624296	 0.402154
O	 2.3009599177	 0.073780629	 0.031984832	-0.388817
H	 0.9489575009	 1.8649947982	-0.0029276664	 0.169035
H	-0.6477021848	 1.8641913828	-0.8075155303	 0.117452
H	-0.5469376564	 1.755477187	 0.963088955	 0.116516
H	-1.6561281023	-0.6216458248	 1.0047628232	 0.102819
H	-1.953170705	-0.1814196948	-0.6732749968	 0.106265
H	-2.0838216182	-2.6667714122	-0.1803933108	 0.102722
H	-0.9870253218	-2.2493708258	-1.4967423241	 0.106554
H	-0.1152813316	-2.7445431837	 1.3994585913	 0.103429
H	 0.1059732479	-3.887870184	 0.0806374221	 0.100632
H	 2.1801956594	-2.402417868	 0.5283137758	 0.12791
H	 1.5908686829	-2.3591812547	-1.1202933471	 0.126599
100.7874	114.92	148.0926	230.4226	312.2106	358.3277	401.2056	465.6822	510.2883	576.9759	660.0112	700.6002	834.9985	886.5417	916.1842	937.91	975.9534	1056.1177	1081.6266	1111.1505	1149.1874	1154.5757	1185.8691	1204.046	1260.434	1281.8967	1303.8268	1347.9381	1361.0354	1378.9387	1386.0201	1427.2608	1455.8258	1469.4796	1488.3442	1496.9431	1501.2931	1508.6488	1542.9897	1756.1593	2965.0317	3008.5419	3022.0161	3025.3428	3032.5585	3038.479	3058.2676	3074.7511	3082.7569	3104.9249	3170.9629
CN1CCCCC1=O	CN1CCCCC1=O	
InChI=1S/C6H11NO/c1-7-5-3-2-4-6(7)8/h2-5H2,1H3	InChI=1S/C6H11NO/c1-7-5-3-2-4-6(7)8/h2-5H2,1H3
