21
gdb 101106	3.22412	1.14669	1.0073	1.2427	79.42	-0.2338	0.0805	0.3142	1277.7885	0.1804	-424.148955	-424.139577	-424.138633	-424.183721	34.709	
C	-0.0338326726	 1.3696063668	-0.0756758627	-0.228584
O	-0.0201512926	-0.0200565788	 0.15735661	-0.252925
C	-1.2920874009	-0.6460664851	 0.0783418596	-0.030184
C	-1.8012442792	-0.8042491631	-1.3555949668	-0.416268
C	-1.121770943	-1.9817647293	 0.7573020268	 0.460379
C	-0.337020999	-3.2443372557	 0.3065109824	-0.253926
C	-1.217617742	-3.5921509003	 1.528100405	 0.042322
C	-0.7575975049	-2.2947375129	 2.2301896436	-0.263042
O	-2.3329446686	-2.8311718286	 0.9090440336	-0.35773
H	 0.977766689	 1.7360426709	 0.1161324013	 0.127732
H	-0.3049957927	 1.6227767013	-1.1105476867	 0.109167
H	-0.732286445	 1.8872712882	 0.6004537432	 0.104937
H	-2.0271000752	-0.0693742206	 0.6658111373	 0.073929
H	-1.0467653383	-1.3053907058	-1.9694611814	 0.124173
H	-2.711901361	-1.4091893405	-1.356882778	 0.142772
H	-2.0320326989	 0.1632382366	-1.8093659222	 0.113682
H	-0.6624497869	-3.6833181794	-0.6371461689	 0.104419
H	 0.7478791726	-3.2436204739	 0.4319673195	 0.101419
H	-1.4570008965	-4.5656367631	 1.955019029	 0.094713
H	 0.2893753724	-2.2082925436	 2.527433265	 0.101154
H	-1.4524876666	-1.8978658332	 2.9717342304	 0.101859
52.6161	68.96	138.7935	183.4649	200.2683	230.9962	312.0904	354.9403	401.1345	484.8688	529.1012	600.5079	686.3142	748.6245	798.4833	857.9567	906.1303	923.033	941.7766	973.2951	985.6853	1035.3255	1051.0041	1092.4958	1099.5692	1124.0387	1124.9859	1154.8124	1166.8024	1182.66	1210.3355	1221.2865	1236.164	1244.5824	1316.2773	1366.5618	1396.6824	1399.2379	1467.2901	1476.8893	1483.0615	1493.3506	1499.058	1511.5359	1516.7328	2959.1849	2978.869	3029.2002	3045.6015	3066.8134	3073.7943	3111.7499	3118.7905	3123.5444	3127.4208	3147.9206	3153.7373
COC(C)C12CC(C1)O2	CO[C@@H](C)[C@@]12C[C@@H](C1)O2	
InChI=1S/C7H12O2/c1-5(8-2)7-3-6(4-7)9-7/h5-6H,3-4H2,1-2H3	InChI=1S/C7H12O2/c1-5(8-2)7-3-6(4-7)9-7/h5-6H,3-4H2,1-2H3/t5-,6-,7+/m0/s1
