19
gdb 116845	6.57857	0.48032	0.45263	2.1452	84.45	-0.2538	-0.044	0.2098	2383.97	0.155753	-423.016958	-423.005885	-423.004941	-423.055415	37.034	
C	-0.0755259024	 1.5038562362	-0.1044651473	-0.384206
C	 0.0382216455	-0.0099910308	 0.0519506634	-0.27723
C	 0.7874548776	-0.4304267131	 1.3076080718	 0.211516
O	 1.245379805	 0.3665686091	 2.1002537097	-0.294787
C	 0.9219047795	-1.861855441	 1.5005686106	-0.005492
C	 1.0276821783	-3.0554858897	 1.6507682857	 0.132158
C	 1.1799606079	-4.4837663184	 1.8739385445	-0.337673
C	 1.9483759124	-4.8065613053	 3.1615395698	-0.064578
O	 2.0184116538	-6.2180416279	 3.24634949	-0.413779
H	 0.9132635231	 1.9670895654	-0.1508365409	 0.13264
H	-0.6202794649	 1.755360447	-1.0186347844	 0.109253
H	-0.6010464201	 1.9459447056	 0.7457250232	 0.132647
H	-0.9496965999	-0.4893599199	 0.0813674507	 0.12875
H	 0.5488107866	-0.4684486484	-0.8058092505	 0.128742
H	 0.194875262	-4.9641231104	 1.9219197642	 0.148563
H	 1.7038274757	-4.9431964291	 1.0266352136	 0.148553
H	 2.9464568147	-4.3470622109	 3.1150948921	 0.106151
H	 1.4199651786	-4.3683667886	 4.02074148	 0.10616
H	 2.4967366367	-6.4505354799	 4.0473472439	 0.292612
28.7314	54.4021	56.9566	83.9366	145.4121	158.8493	202.8105	240.7364	267.1875	319.7059	395.5868	431.8983	503.5817	568.6282	608.3458	742.2576	787.6199	806.9598	948.8828	999.107	1017.6666	1082.4405	1084.3592	1088.432	1090.705	1194.7671	1220.2224	1240.1509	1271.567	1304.168	1329.0822	1369.7153	1412.911	1448.782	1457.1149	1465.5607	1491.266	1497.7705	1527.9797	1761.5006	2332.1392	2989.7762	3021.8973	3023.1008	3033.0083	3050.163	3051.8069	3070.5987	3123.4201	3127.935	3835.9826
CCC(=O)C#CCCO	CCC(=O)C#CCCO	
InChI=1S/C7H10O2/c1-2-7(9)5-3-4-6-8/h8H,2,4,6H2,1H3	InChI=1S/C7H10O2/c1-2-7(9)5-3-4-6-8/h8H,2,4,6H2,1H3
