25
gdb 123147	5.72785	0.45527	0.43565	1.571	88.23	-0.2452	0.0721	0.3173	2599.8237	0.225708	-426.627996	-426.616027	-426.615083	-426.666592	41.79	
C	 0.002087948	 1.5319046226	-0.0486425498	-0.383898
C	-0.0074432069	 0.0123185644	-0.0348442196	-0.025349
O	 0.6835284621	-0.4539545735	-1.1731040951	-0.242833
C	 0.7341019463	-1.8613816734	-1.2600103463	-0.052316
C	 1.4819810336	-2.2489338948	-2.527985284	-0.199384
C	 1.6029003898	-3.7661854473	-2.6956479381	-0.168874
C	 2.3095959683	-4.1782079148	-3.9868527024	 0.129862
C	 2.4906964114	-5.6930097636	-4.0916926329	-0.402234
O	 1.5158269875	-3.6815595039	-5.0634662834	-0.432466
H	 1.0287674064	 1.9087680345	-0.0328420156	 0.124711
H	-0.4864285776	 1.9098796655	-0.9512756208	 0.125917
H	-0.5267771026	 1.9259897605	 0.824451089	 0.111422
H	 0.4699721939	-0.3684136677	 0.8850551899	 0.080537
H	-1.0440658986	-0.367354139	-0.0352297786	 0.081865
H	 1.2370025574	-2.2814246614	-0.3700079353	 0.076107
H	-0.2873683419	-2.2816149495	-1.2744608404	 0.0811
H	 0.9654321962	-1.8249375711	-3.3936166709	 0.126187
H	 2.4794806789	-1.7929545969	-2.4979165054	 0.097072
H	 2.1507669321	-4.1969903157	-1.8479805969	 0.090226
H	 0.6047076088	-4.2242552853	-2.6946569596	 0.100463
H	 3.3041321155	-3.6994230581	-4.0062563156	 0.062167
H	 2.9864352269	-5.9630413296	-5.0315313945	 0.102186
H	 3.1064762977	-6.0759713979	-3.271123411	 0.113826
H	 1.5187338109	-6.1959882201	-4.0638341721	 0.12324
H	 1.9572153658	-3.9071682934	-5.8880153205	 0.280466
44.7328	51.3512	78.5351	107.4697	116.0106	165.8548	195.5243	238.1406	249.3853	253.6867	280.3195	339.563	422.3171	458.2555	505.4484	514.7033	760.9216	821.073	842.7462	869.8799	896.6413	946.4558	1010.1325	1037.2262	1043.6274	1068.0532	1089.4192	1124.4859	1156.8839	1161.5824	1174.3075	1185.3679	1221.4055	1273.4554	1280.9482	1295.3748	1311.9283	1325.6172	1360.6186	1387.3313	1395.1861	1406.139	1409.5053	1429.3815	1454.3921	1474.4164	1483.5479	1492.1082	1498.163	1499.1872	1502.0851	1518.4068	1539.4369	2932.6279	2947.7102	2949.8624	2959.7794	2968.6846	3016.668	3026.4888	3036.8321	3043.9938	3057.6102	3091.5152	3103.3813	3110.4118	3117.9841	3120.4544	3821.4371
CCOCCCC(C)O	CCOCCC[C@@H](C)O	
InChI=1S/C7H16O2/c1-3-9-6-4-5-7(2)8/h7-8H,3-6H2,1-2H3	InChI=1S/C7H16O2/c1-3-9-6-4-5-7(2)8/h7-8H,3-6H2,1-2H3/t7-/m1/s1
