23
gdb 122436	4.6271	0.59567	0.56992	2.7979	83.71	-0.2551	0.079	0.3342	2022.0879	0.20239	-425.41559	-425.404412	-425.403468	-425.452718	39.814	
C	 0.1321195827	 1.4643641357	-0.2362834745	-0.455743
C	-0.0632617226	 0.0039228974	 0.1105565	 0.394224
C	-1.1681551127	-0.685115889	-0.6644622093	-0.451011
O	 1.1443294516	-0.7713725725	 0.2317501355	-0.300998
C	 0.3505920679	-0.5638350769	 1.4089736146	 0.018391
C	 0.984946857	 0.1879325545	 2.5550742608	-0.242415
C	 2.0189099942	-0.6728052796	 3.2931703504	-0.156254
C	 2.6691255848	 0.0576590284	 4.4598750381	-0.076004
O	 3.5868688155	-0.8318019202	 5.0770962396	-0.420782
H	 0.9885404564	 1.8963408717	 0.2827006216	 0.12794
H	 0.3044519317	 1.5714778264	-1.3129656566	 0.123994
H	-0.7613590569	 2.0461471238	 0.015802182	 0.118445
H	-0.9715997353	-0.6295325189	-1.7409113049	 0.12304
H	-1.2408604238	-1.7390910613	-0.3855270909	 0.125781
H	-2.1351792852	-0.2057847997	-0.4762743372	 0.117152
H	-0.1829725774	-1.4643477237	 1.7281297855	 0.077767
H	 1.4615313126	 1.1030117526	 2.1904291248	 0.10088
H	 0.1910215028	 0.4959035069	 3.2499008033	 0.097437
H	 1.5473470671	-1.5867047156	 3.6749828177	 0.104439
H	 2.7986582409	-0.9896199876	 2.5921068451	 0.124588
H	 3.1775652976	 0.9650750192	 4.0933653043	 0.083905
H	 1.8934429589	 0.3873466298	 5.1717256802	 0.080401
H	 4.0123721921	-0.3685890414	 5.8042866399	 0.284824
43.6771	76.5404	89.0935	124.9858	157.3646	194.9477	238.7131	256.2544	261.5359	272.8445	371.7175	420.5547	428.537	520.6389	528.2732	702.9482	756.4721	804.3614	865.6061	917.8388	944.6018	983.9263	1006.6676	1026.2631	1042.3936	1077.4511	1106.6652	1134.4645	1151.8483	1156.1115	1213.9104	1235.0262	1263.9977	1298.6485	1303.3092	1314.3532	1356.9096	1377.9005	1409.8943	1419.7647	1462.2681	1467.8935	1471.6304	1476.8485	1487.876	1500.0416	1502.7706	1522.0505	1528.7793	2952.3837	2977.0577	3015.7329	3031.7504	3035.7928	3038.0248	3056.46	3075.6526	3091.9809	3094.0823	3097.3031	3122.768	3141.4761	3831.2445
CC1(C)OC1CCCO	CC1(C)O[C@H]1CCCO	
InChI=1S/C7H14O2/c1-7(2)6(9-7)4-3-5-8/h6,8H,3-5H2,1-2H3	InChI=1S/C7H14O2/c1-7(2)6(9-7)4-3-5-8/h6,8H,3-5H2,1-2H3/t6-/m0/s1
