19
gdb 88216	3.64506	0.71664	0.65304	3.6529	90.81	-0.2484	-0.0415	0.2069	1771.8293	0.156558	-385.878032	-385.867844	-385.8669	-385.914766	35.624	
C	 0.1202220973	 1.5134031228	-0.2887466116	-0.411297
C	 0.0585237138	 0.0234255131	-0.0495762888	 0.016612
C	 1.2926040805	-0.818613621	-0.0759381848	-0.282791
C	 0.5745812412	-0.5940563275	 1.2566161822	-0.201458
C	 1.1817461529	 0.2208503795	 2.2565036692	 0.068596
C	 1.696548339	 0.921762449	 3.0985627607	 0.045623
C	 2.320856659	 1.7642696076	 4.0935946035	 0.241138
C	 2.1413652986	 1.3181698537	 5.5324020425	-0.476745
O	 2.9451673785	 2.7609203111	 3.789155032	-0.285747
H	 1.0268319524	 1.9476909689	 0.1405471168	 0.14223
H	 0.1145562074	 1.7287449767	-1.3625020357	 0.121281
H	-0.7381201055	 2.0221815845	 0.1618366425	 0.125256
H	-0.8448180127	-0.4582486791	-0.414306356	 0.097366
H	 1.2485817867	-1.8190703564	-0.4911932095	 0.123056
H	 2.2449691596	-0.3152980708	-0.1987336993	 0.134939
H	 0.005692329	-1.4382478104	 1.6345088633	 0.11531
H	 2.5442870673	 0.3086992027	 5.6677146611	 0.143313
H	 2.6521429652	 2.0166786098	 6.196925822	 0.140063
H	 1.0759753398	 1.2734598958	 5.7829072099	 0.143254
32.5966	62.852	88.4839	117.7868	157.2303	191.0654	237.7476	322.4808	377.1412	392.7029	484.8567	565.5726	608.4388	623.8903	671.7001	755.457	826.5071	866.3178	921.0865	947.8975	972.91	1036.1044	1041.8302	1072.2603	1095.935	1130.8314	1144.5107	1200.4054	1219.2527	1270.0693	1376.3663	1384.1994	1404.6613	1425.9102	1461.4679	1469.7213	1484.2338	1493.9989	1501.1316	1757.1542	2309.8953	3037.6103	3038.9332	3099.4802	3103.4097	3118.2699	3140.3121	3143.6216	3149.9739	3153.1112	3231.6086
CC1CC1C#CC(C)=O	C[C@H]1C[C@H]1C#CC(=O)C	
InChI=1S/C8H10O/c1-6-5-8(6)4-3-7(2)9/h6,8H,5H2,1-2H3	InChI=1S/C8H10O/c1-6-5-8(6)4-3-7(2)9/h6,8H,5H2,1-2H3/t6-,8+/m0/s1
