18
gdb 11032	4.09821	1.74119	1.44832	1.2179	72.44	-0.2272	0.0185	0.2457	911.8939	0.15384	-347.797928	-347.790372	-347.789428	-347.829124	29.983	
C	-0.1432082369	 1.5784354025	 0.042225831	-0.389193
C	 0.0295498365	 0.0524453053	 0.0067784507	-0.038194
C	 0.8105461373	-0.4543072664	-1.1953582162	-0.073912
C	 1.806986468	-1.2709222287	-0.8513452319	-0.162389
C	 1.9059253378	-1.4181090722	 0.6366607215	 0.372974
O	 2.1707175925	-2.6703096875	 1.1927405521	-0.471979
C	 2.2685989146	-0.1517791603	 1.3803371511	-0.344759
C	 0.8105528684	-0.5348575468	 1.1859305624	-0.094212
H	 0.8251093032	 2.0868837288	 0.0805439072	 0.116893
H	-0.6733520441	 1.933200368	-0.8480492553	 0.11087
H	-0.720645024	 1.884959646	 0.920058919	 0.115262
H	-0.9771321918	-0.3914825781	-0.0096049285	 0.08371
H	 0.5727686831	-0.1415307132	-2.2067974662	 0.091837
H	 2.4940220753	-1.7648546568	-1.5299919477	 0.090636
H	 3.1263076479	-2.781219195	 1.2361533557	 0.282031
H	 2.6449884416	-0.2764708915	 2.3911400459	 0.108558
H	 2.6983073108	 0.6764896886	 0.8265519311	 0.109719
H	 0.2722793799	-0.8455128026	 2.0733028082	 0.092148
150.3607	212.6036	234.0579	247.4871	310.7509	372.3255	390.1687	487.1808	530.9585	627.8935	701.2502	746.1879	783.6437	818.8298	878.2967	919.0361	941.7608	957.1061	972.1899	1003.6374	1043.2016	1056.8293	1071.175	1111.8745	1118.2359	1145.3288	1233.4966	1247.2041	1309.2104	1327.0554	1337.411	1359.7245	1399.7328	1415.9777	1471.7774	1497.0419	1498.9551	1670.1208	2988.6597	3033.6274	3099.8241	3109.0534	3119.6862	3176.6104	3183.538	3202.2499	3211.6794	3802.7527
CC1C=CC2(O)CC12	C[C@H]1C=C[C@@]2(O)C[C@@H]12	
InChI=1S/C7H10O/c1-5-2-3-7(8)4-6(5)7/h2-3,5-6,8H,4H2,1H3	InChI=1S/C7H10O/c1-5-2-3-7(8)4-6(5)7/h2-3,5-6,8H,4H2,1H3/t5-,6-,7+/m0/s1
