20
gdb 110840	2.69865	1.24437	1.0897	2.1511	80.41	-0.2158	0.0099	0.2258	1214.2468	0.17108	-403.123917	-403.11508	-403.114135	-403.157438	33.534	
C	-0.1183941457	 1.5147399167	 0.0575807711	-0.495107
C	-0.0468478232	 0.0232427088	-0.0009250753	 0.316564
C	-0.0437016683	-0.7711487744	-1.0747053836	-0.185167
C	 0.0786850915	-2.2012738539	-0.6796540523	-0.092412
C	 1.3168293554	-2.6474579167	 0.0296560362	-0.02604
C	 2.6237155851	-1.8932284698	 0.0558816792	-0.086529
O	 3.3868088839	-2.2106006495	 1.2158959068	-0.42559
N	 0.1210573687	-2.2436486663	 0.8061451635	-0.12893
C	 0.0662002827	-0.8306700722	 1.249796779	-0.262696
H	 0.7926851094	 1.9412293862	 0.4964736218	 0.130992
H	-0.2492183857	 1.9513229251	-0.9359594569	 0.128834
H	-0.9520694671	 1.8457755807	 0.6898731327	 0.129185
H	-0.1275670919	-0.446143878	-2.1049928678	 0.096673
H	-0.5371664157	-2.9444632186	-1.1824759186	 0.093235
H	 1.4694993101	-3.7243683378	 0.0958198604	 0.098899
H	 3.2371114607	-2.2086303542	-0.7954777958	 0.111999
H	 2.4680947239	-0.8122043809	-0.0398354514	 0.094107
H	 2.8124222817	-2.1044416898	 1.9810883677	 0.288262
H	 0.9468773106	-0.5637916247	 1.85234753	 0.099868
H	-0.804035256	-0.7013999906	 1.9082930533	 0.113851
80.5998	121.3539	163.2015	190.9027	271.9099	293.4398	310.0041	346.9585	428.6218	517.6093	572.0491	619.2966	722.1108	753.1987	806.7024	853.8054	888.6386	899.4303	973.7557	991.3937	1002.3782	1044.6189	1057.7373	1072.2828	1084.9965	1107.5813	1149.3923	1199.0959	1208.6234	1227.3918	1282.3664	1294.3049	1330.7467	1346.7735	1364.3274	1406.8295	1416.2362	1439.7434	1479.9108	1487.5895	1490.7406	1513.0037	1714.1443	2997.1221	3018.1577	3019.3559	3033.1915	3063.1432	3070.8705	3110.3124	3113.0527	3124.0315	3204.1586	3816.047
CC1=CC2C(CO)N2C1	CC1=C[C@H]2[C@@H](CO)N2C1	
InChI=1S/C7H11NO/c1-5-2-6-7(4-9)8(6)3-5/h2,6-7,9H,3-4H2,1H3	InChI=1S/C7H11NO/c1-5-2-6-7(4-9)8(6)3-5/h2,6-7,9H,3-4H2,1H3/t6-,7+,8?/m0/s1
