17
gdb 30313	3.08519	1.61234	1.10966	4.8044	74.44	-0.1883	0.0252	0.2135	1068.9639	0.1389	-418.03412	-418.026591	-418.025647	-418.066304	28.73	
C	-0.030234745	 1.6053398302	-0.0961040048	-0.397619
C	-0.0101940007	 0.082886365	 0.0824784142	-0.14761
C	 0.7968420166	-0.6434416157	-1.0662934622	-0.093766
O	 1.578877212	-1.7325843012	-0.5082219924	-0.279352
C	 1.5836334441	-1.4810635792	 0.8284583187	 0.381404
C	 0.7687773914	-0.4715224674	 1.2307834164	 0.204226
N	 0.8657724079	-0.4874724986	 2.6083023877	-0.377401
C	 1.7592850904	-1.4802861154	 2.9159721606	-0.009721
N	 2.2136414532	-2.116642415	 1.8441367636	-0.349012
H	 0.9869657049	 2.0096553738	-0.1011899755	 0.122803
H	-0.516007198	 1.8829456394	-1.0379548846	 0.119634
H	-0.5851840132	 2.0901962272	 0.7136849079	 0.112927
H	-1.0505930776	-0.276605311	 0.093531443	 0.087172
H	 0.1513937085	-1.0609043292	-1.8415284725	 0.119135
H	 1.4921980038	 0.0699711824	-1.5263413948	 0.111108
H	 0.4351595348	 0.1393596151	 3.2662443609	 0.265911
H	 2.055483017	-1.6840025204	 3.9336462639	 0.13016
82.1267	142.9383	222.9557	264.8719	314.9364	418.7054	471.9188	493.3385	601.8478	651.2424	676.6874	747.6781	748.3281	768.8313	887.6226	931.336	963.0094	981.7098	1033.7686	1094.6083	1105.3506	1131.5009	1151.7074	1235.8745	1247.1619	1297.3331	1334.7099	1365.0562	1380.9284	1405.003	1411.4034	1461.6117	1494.3616	1498.2449	1502.7049	1533.38	1640.6809	2973.2422	3024.5513	3030.559	3097.2418	3106.6763	3112.7431	3257.2148	3672.1537
CC1COC2=C1NC=N2	C[C@H]1COc2c1[nH]cn2	
InChI=1S/C6H8N2O/c1-4-2-9-6-5(4)7-3-8-6/h3-4H,2H2,1H3,(H,7,8)	InChI=1S/C6H8N2O/c1-4-2-9-6-5(4)7-3-8-6/h3-4H,2H2,1H3,(H,7,8)/t4-/m0/s1
