25
gdb 100315	1.92568	1.38936	0.99231	1.4109	88.47	-0.2611	0.0631	0.3242	1366.5516	0.226887	-389.486387	-389.475448	-389.474504	-389.521919	41.406	
C	-1.6734953544	-0.5959464922	-0.6737599535	-0.406248
C	-0.2210016555	-0.2024534078	-0.3788112024	-0.207139
C	 0.8054247906	-0.5539906188	-1.480069373	 0.313495
O	 0.508585506	 0.148335928	-2.6919427691	-0.466817
C	 2.2236675485	-0.0942799454	-1.0801783573	-0.166833
C	 2.3887765088	 1.4081775937	-0.8310279655	-0.399451
C	 0.8398118771	-2.0667740742	-1.7289094142	 0.018015
C	 0.0069620832	-2.7387289422	-2.7926906331	-0.286743
C	 1.5007976713	-2.6267442044	-2.9600942791	-0.274504
H	-2.0638457987	-0.0968214172	-1.5697219835	 0.102845
H	-1.7851309039	-1.6735578075	-0.8178614255	 0.130933
H	-2.3233765315	-0.2966669584	 0.1541183857	 0.117037
H	-0.1751050523	 0.8764419557	-0.2004838033	 0.103111
H	 0.0990752943	-0.6874893734	 0.551823697	 0.093804
H	-0.4317407026	 0.0526882134	-2.8704801164	 0.279812
H	 2.529605849	-0.6621101953	-0.1928344657	 0.086639
H	 2.8963782353	-0.3993597098	-1.8888143385	 0.103294
H	 2.0048560859	 1.9805002285	-1.6791710171	 0.132299
H	 1.8648682372	 1.7415635369	 0.0700592071	 0.110542
H	 3.4465735819	 1.6575456055	-0.7013009878	 0.105957
H	 0.9792423448	-2.6421694291	-0.8166717132	 0.076433
H	-0.4265644722	-3.7074915807	-2.5688379141	 0.106977
H	-0.6046561663	-2.1207128931	-3.4409371226	 0.097868
H	 1.8515311466	-1.9100737162	-3.6943661072	 0.123805
H	 2.1072194668	-3.5205986161	-2.8663107575	 0.104872
81.1014	96.2064	106.8215	179.3956	199.6923	216.8118	246.1157	262.8477	301.0952	323.438	357.3001	391.0682	410.4913	538.843	565.2706	687.9804	773.3358	784.8071	794.0839	826.6228	882.4683	907.5893	959.7335	965.1076	989.7695	1033.9591	1045.5538	1061.2859	1081.136	1086.3221	1091.7435	1112.841	1143.1773	1181.9775	1201.3688	1219.158	1232.7722	1287.6687	1332.038	1333.6742	1371.9042	1384.9991	1399.8818	1406.0109	1415.0943	1461.007	1477.6858	1477.7179	1499.5061	1502.1442	1502.6745	1507.588	1511.3861	3023.5585	3029.4076	3034.4195	3042.1837	3071.4114	3077.119	3089.6041	3103.8312	3121.8762	3125.9939	3129.245	3132.2463	3138.6119	3209.0228	3227.6349	3825.4609
CCC(O)(CC)C1CC1	CCC(O)(CC)C1CC1	
InChI=1S/C8H16O/c1-3-8(9,4-2)7-5-6-7/h7,9H,3-6H2,1-2H3	InChI=1S/C8H16O/c1-3-8(9,4-2)7-5-6-7/h7,9H,3-6H2,1-2H3
