18
gdb 11026	4.11315	1.72972	1.44894	1.8014	72.43	-0.2311	0.0088	0.2398	911.9449	0.154176	-347.800189	-347.792618	-347.791674	-347.831467	29.821	
C	-0.0408529115	 1.5361312347	 0.0471573833	-0.486821
C	 0.0450648744	 0.0294998871	-0.0005613678	 0.327228
C	-0.8286457408	-0.8366684958	 0.888727267	-0.332923
C	 0.6746394276	-0.8227304999	 1.0808844076	-0.107
C	 1.4963303986	-1.9283788208	 0.4119320951	 0.084063
O	 1.2422036785	-3.2462730588	 0.8835432684	-0.432743
C	 1.1908887912	-1.7301020815	-1.0660775744	-0.130242
C	 0.4251503182	-0.6602522018	-1.2797866169	-0.136243
H	 0.9047610615	 1.9987607914	-0.2568513079	 0.121261
H	-0.8242446731	 1.9096662787	-0.6229632345	 0.118171
H	-0.2765275081	 1.8856656173	 1.0569878158	 0.117124
H	-1.4154201441	-0.3414798488	 1.6566162894	 0.110343
H	-1.3127202745	-1.7013966932	 0.4440934751	 0.101037
H	 1.0543334091	-0.3742453864	 1.9913951767	 0.085488
H	 2.5650914167	-1.780264908	 0.6118082507	 0.0918
H	 0.2923377702	-3.3948873811	 0.8150311669	 0.275229
H	 1.5476749852	-2.4268211121	-1.8159139967	 0.099276
H	 0.0705342809	-0.3152406408	-2.2461219179	 0.094951
141.1798	203.3606	211.7592	269.4584	300.311	361.0733	399.3747	495.1223	533.8367	624.6414	714.9819	753.5635	793.7759	841.6206	878.4804	930.1399	957.7746	961.019	980.3983	1007.1369	1061.2143	1070.1185	1076.5774	1085.132	1117.4802	1142.3164	1252.9683	1266.2591	1278.909	1315.3796	1350.3977	1400.9779	1419.2396	1428.0518	1481.0539	1489.0183	1501.2757	1673.3031	3024.1253	3028.9673	3083.2264	3101.9222	3113.3164	3174.588	3176.8859	3200.3399	3208.4212	3795.1298
CC12CC1C(O)C=C2	C[C@]12C[C@H]1[C@@H](O)C=C2	
InChI=1S/C7H10O/c1-7-3-2-6(8)5(7)4-7/h2-3,5-6,8H,4H2,1H3	InChI=1S/C7H10O/c1-7-3-2-6(8)5(7)4-7/h2-3,5-6,8H,4H2,1H3/t5-,6-,7-/m0/s1
