16
gdb 31942	6.007	0.82017	0.73548	5.7599	80.53	-0.2205	-0.0405	0.1801	1463.8861	0.124497	-437.92925	-437.920644	-437.9197	-437.963585	30.705	
O	 0.1215309453	 1.2340064227	 0.5595294336	-0.403067
C	-0.0011475617	-0.0215823454	-0.0849080828	-0.194692
C	-1.4377863871	-0.4337222361	-0.0432757599	 0.31373
C	-2.5915015297	 0.3339445867	-0.1444728348	-0.189461
C	-3.6900950432	-0.5419197625	-0.0881227912	-0.196714
C	-3.1965538037	-1.8345680478	 0.0451518148	 0.210821
N	-1.8162206883	-1.7351035044	 0.0720788846	-0.367932
C	-3.8697915057	-3.10975597	 0.150784569	 0.068439
O	-5.0724475699	-3.2726668694	 0.137781002	-0.284966
H	 0.9782988598	 1.6050966814	 0.3280895957	 0.29382
H	 0.3409793226	 0.0410101875	-1.1314329789	 0.112429
H	 0.6175015762	-0.7942650597	 0.4041127752	 0.091742
H	-2.6091647168	 1.4081009223	-0.2364601565	 0.114929
H	-4.7383768168	-0.2914706847	-0.133079507	 0.126283
H	-1.1891517982	-2.5156228474	 0.1812318357	 0.263124
H	-3.1752653028	-3.9805015531	 0.2494345706	 0.041515
29.3939	109.1402	153.6069	216.8041	255.8588	265.1099	302.7641	375.2539	510.5013	549.0004	639.5636	655.1245	706.5041	767.4892	817.9158	893.2838	980.6695	1010.3162	1019.5259	1025.2637	1063.4722	1088.8618	1187.0365	1240.2607	1241.8391	1271.5664	1312.9383	1405.2391	1446.69	1457.9055	1471.4852	1510.612	1533.9881	1607.0801	1778.9802	2819.3809	2946.6944	2968.0342	3258.2203	3272.3283	3653.4118	3828.6219
OCC1=CC=C(N1)C=O	OCc1ccc([nH]1)C=O	
InChI=1S/C6H7NO2/c8-3-5-1-2-6(4-9)7-5/h1-3,7,9H,4H2	InChI=1S/C6H7NO2/c8-3-5-1-2-6(4-9)7-5/h1-3,7,9H,4H2
