18
gdb 110729	2.6318	1.60327	1.29224	1.5494	72.06	-0.2337	0.0191	0.2527	1052.7449	0.147007	-439.068559	-439.060082	-439.059138	-439.101536	31.413	
C	-0.4819439086	 0.9952914962	 0.0511322071	-0.240843
O	 0.5714746566	 0.0610677383	-0.135919266	-0.235895
C	 0.9666479663	-0.5489784012	 1.0376130043	 0.041367
C	 0.111844073	-1.630057576	 1.7011161342	-0.14126
N	-0.9337278972	-2.1942967112	 0.8860976162	-0.261039
C	-0.3456388402	-2.6995787843	-0.1231835819	 0.106519
O	 1.0088130379	-2.6820902117	-0.1721059137	-0.233867
C	 1.4348539162	-1.9719969787	 0.9882392886	 0.344326
C	 2.7294341143	-2.471100635	 1.5549916501	-0.481096
H	-0.1772603398	 1.8129480737	 0.7205531666	 0.105601
H	-0.713996883	 1.4103192422	-0.9320453815	 0.128676
H	-1.3729390057	 0.5063117268	 0.4631288568	 0.135921
H	 1.5056513124	 0.0896141863	 1.7408353489	 0.092574
H	-0.0420026028	-1.6241404144	 2.7741999807	 0.097947
H	-0.8249588238	-3.1781043325	-0.9678630595	 0.143156
H	 3.5447172343	-2.3473153188	 0.8346961372	 0.138695
H	 2.9853583957	-1.9084883038	 2.4568846114	 0.126432
H	 2.6575675543	-3.5309006257	 1.8178553405	 0.132787
99.5502	164.2026	181.7431	187.8308	224.2043	244.7246	310.5799	351.8298	490.9181	576.544	660.729	678.2211	746.8601	797.9921	894.0193	909.9538	936.6337	954.3943	1002.6563	1028.7833	1061.1722	1099.2829	1117.7873	1146.0731	1173.2391	1184.5793	1223.9284	1235.6128	1264.49	1323.8462	1338.0348	1413.9108	1440.9575	1477.5273	1486.8609	1489.2536	1500.6914	1504.8323	1663.8875	2994.9713	3038.7973	3064.3474	3079.5634	3106.5505	3120.7805	3126.1329	3174.2672	3234.7714
COC1C2N=COC12C	CO[C@H]1[C@H]2N=CO[C@@]12C	
InChI=1S/C6H9NO2/c1-6-4(5(6)8-2)7-3-9-6/h3-5H,1-2H3	InChI=1S/C6H9NO2/c1-6-4(5(6)8-2)7-3-9-6/h3-5H,1-2H3/t4-,5+,6-/m1/s1
