21
gdb 102721	2.84261	0.90449	0.76458	4.9442	84.14	-0.2462	0.0377	0.2839	1571.9264	0.181824	-383.258227	-383.248252	-383.247308	-383.293997	35.675	
C	 0.0920022501	 1.5133372324	 0.0924441241	-0.397353
C	-0.0248800601	-0.0079288434	-0.0181037865	-0.182724
C	 0.677536223	-0.5983711861	-1.2625557602	-0.141845
C	 0.6198729104	-2.1391804695	-1.2753669184	-0.154847
N	 1.3925737905	-2.6808454646	-2.3794598107	-0.055018
C	 2.7961507715	-2.9812419701	-2.1104034586	-0.22399
C	 1.7979487068	-4.0755547732	-2.2662246968	-0.220049
C	 0.1018577969	-0.046362085	-2.4939748607	 0.30169
N	-0.3811809592	 0.416571622	-3.4364559152	-0.337208
H	 1.1401167027	 1.8272695857	 0.1482061233	 0.117913
H	-0.3611782156	 2.0089020562	-0.7709528702	 0.148077
H	-0.4127696149	 1.8744291807	 0.9929954975	 0.120123
H	 0.4191692855	-0.4820249978	 0.8648952218	 0.104149
H	-1.0805975617	-0.3026726461	-0.0361406883	 0.117453
H	 1.7349084889	-0.3017949361	-1.2403597236	 0.123978
H	 0.9740854685	-2.5005541222	-0.2926450136	 0.085006
H	-0.4201824362	-2.4644329254	-1.3896021512	 0.122261
H	 3.4916903543	-2.747304253	-2.9105772303	 0.12661
H	 3.1751089937	-2.797551587	-1.1054069868	 0.108231
H	 1.51465159	-4.6188483502	-1.3656749804	 0.111256
H	 1.750191615	-4.6561703574	-3.1826236253	 0.126288
60.2629	70.7857	101.0512	133.4224	161.2296	223.1928	273.5567	304.196	330.6843	404.1516	435.1741	556.1883	614.628	759.2851	770.0762	824.824	849.419	896.4861	935.431	1005.0532	1012.549	1034.824	1051.7502	1086.5071	1113.8377	1120.1436	1132.6688	1142.1646	1174.1022	1187.6484	1261.4585	1279.5335	1302.1117	1327.9858	1368.1837	1376.5731	1392.0175	1418.1808	1483.6657	1489.3666	1496.5899	1499.4472	1508.3007	1523.2394	2356.7946	2935.876	3023.6386	3034.1573	3038.5231	3064.7111	3074.0312	3091.2468	3097.9737	3107.2895	3120.0792	3180.7623	3194.4459
CCC(CN1CC1)C#N	CC[C@@H](CN1CC1)C#N	
InChI=1S/C7H12N2/c1-2-7(5-8)6-9-3-4-9/h7H,2-4,6H2,1H3	InChI=1S/C7H12N2/c1-2-7(5-8)6-9-3-4-9/h7H,2-4,6H2,1H3/t7-/m1/s1
