18
gdb 44798	2.80285	1.51308	1.17212	3.2441	77.03	-0.2373	-0.0169	0.2204	1082.5734	0.148304	-401.910992	-401.903036	-401.902092	-401.943989	30.327	
O	 0.1061683217	 0.0233337105	 0.0730680921	-0.333903
C	 0.07104789	 1.2200711867	 0.1946248766	 0.348393
C	-1.1002450896	 2.2307527076	 0.273345546	-0.350255
C	-0.0685414847	 3.3198513147	-0.0532739755	-0.104803
C	 0.9455677831	 3.372267082	 1.0283285338	-0.329426
C	 1.1074081599	 2.2790392658	-0.02483739	 0.255903
C	 2.3376357802	 2.1389469833	-0.8454732861	-0.123734
C	 3.1703036477	 0.9089319187	-0.748756387	-0.24314
N	 2.3983214135	 1.1905101301	-1.9708737851	-0.32999
H	-1.8229541172	 2.0264698783	-0.5213873906	 0.135789
H	-1.6301391399	 2.3289170876	 1.2254277949	 0.122655
H	-0.1999572297	 4.1048126189	-0.7858837284	 0.115461
H	 1.701613679	 4.1480055612	 0.950596932	 0.130695
H	 0.6760103669	 3.1183488521	 2.0503420411	 0.123296
H	 2.8434555892	 3.081498221	-1.0502568511	 0.088543
H	 4.2492098476	 0.9794832987	-0.8557792099	 0.116061
H	 2.8162679345	 0.1170897953	-0.096016322	 0.134636
H	 1.566414688	 0.6039700974	-1.9665812108	 0.243818
55.5962	123.8389	165.4169	189.9835	353.8878	401.5706	443.4174	461.6181	565.4794	668.513	674.8051	786.5709	821.3941	848.3762	869.8666	894.2682	936.1053	970.0992	985.9377	1008.4119	1022.0952	1027.2178	1067.4623	1094.9683	1117.599	1141.006	1149.6242	1189.8132	1207.8969	1235.7344	1271.2494	1305.0287	1309.4941	1364.1334	1435.1249	1459.5619	1499.0738	1504.7763	1847.3942	3056.4589	3110.107	3111.6784	3113.1173	3115.9238	3196.7525	3208.0212	3212.4084	3498.9091
O=C1CC2CC12C1CN1	O=C1C[C@H]2C[C@@]12[C@H]1CN1	
InChI=1S/C7H9NO/c9-6-1-4-2-7(4,6)5-3-8-5/h4-5,8H,1-3H2	InChI=1S/C7H9NO/c9-6-1-4-2-7(4,6)5-3-8-5/h4-5,8H,1-3H2/t4-,5+,7+/m0/s1
