18
gdb 109064	4.06249	1.21286	1.09685	2.3973	76.3	-0.2076	0.0124	0.22	1135.3144	0.149086	-401.898054	-401.890501	-401.889557	-401.930311	29.408	
O	-0.0130216021	 1.4125534077	-0.0197546237	-0.412478
C	-0.0399984126	-0.0020397013	-0.0364545781	-0.194586
C	-1.451589765	-0.4722274943	 0.0604307717	 0.344796
C	-2.57160829	 0.2466386685	 0.1628826341	-0.184982
C	-3.7410976194	-0.69901255	 0.0801110137	-0.058034
C	-3.8400606224	-1.2613899183	-1.3786478828	-0.242413
C	-2.9313197364	-2.3769046992	-0.8936771552	-0.04027
C	-1.8318540179	-1.9155962202	 0.0305874549	-0.149842
N	-3.2064523051	-2.0640686193	 0.5544777619	-0.135547
H	 0.9058386958	 1.6947695571	-0.0164820909	 0.291074
H	 0.4144927813	-0.4043637707	-0.959719241	 0.100333
H	 0.5426764232	-0.4270036734	 0.8006216507	 0.10002
H	-2.6458607674	 1.3249538823	 0.1443931844	 0.115961
H	-4.6665480865	-0.3933149671	 0.5660655372	 0.079622
H	-4.8379343554	-1.6565237841	-1.5818446798	 0.113197
H	-3.5192911726	-0.6194747249	-2.2043936088	 0.098978
H	-2.9407957793	-3.3964851853	-1.269136773	 0.090634
H	-1.1293854782	-2.6761298773	 0.3628600645	 0.083536
73.4656	165.2077	188.0295	236.6398	371.4993	388.2817	434.7957	568.7013	660.3062	705.1404	753.6093	790.6444	818.6159	822.6109	878.8365	886.1262	937.1616	977.6225	1020.8106	1037.5094	1048.6647	1053.3792	1063.0865	1091.1613	1138.6649	1165.1108	1191.8769	1209.6288	1217.6299	1247.6872	1256.8967	1280.9724	1321.9753	1345.7243	1384.5575	1469.37	1487.4936	1507.0208	1707.8542	2938.0766	2949.8832	3052.0464	3110.9307	3122.0422	3137.442	3150.9941	3236.4519	3838.8597
OCC1=CC2CC3C1N23	OCC1=C[C@H]2C[C@H]3[C@@H]1N23	
InChI=1S/C7H9NO/c9-3-4-1-5-2-6-7(4)8(5)6/h1,5-7,9H,2-3H2	InChI=1S/C7H9NO/c9-3-4-1-5-2-6-7(4)8(5)6/h1,5-7,9H,2-3H2/t5-,6-,7+,8?/m0/s1
