19
gdb 40973	3.40028	1.28205	1.15306	2.0192	70.46	-0.2508	0.0742	0.325	1108.094	0.161247	-460.13438	-460.126655	-460.125711	-460.167277	29.253	
C	 0.0557894832	 1.5404749605	-0.0596223586	-0.13596
O	 1.4092482968	 1.5544937041	 0.4301465191	-0.271233
C	 1.4633683681	 0.1110822128	 0.47314383	-0.109733
C	 0.0127279303	-0.0016800504	-0.0501247421	 0.27058
C	-0.9812928673	-0.6445242637	 0.9146110334	-0.162123
O	-0.8102881422	-2.0556651588	 0.9288240182	-0.237039
C	-0.9566813262	-2.5941060326	-0.3588139883	 0.019925
O	-0.0146027067	-2.0914514791	-1.2694115169	-0.237039
C	-0.1403873848	-0.6823435134	-1.40853944	-0.162128
H	-0.6412013919	 2.0378224638	 0.6290053778	 0.098967
H	-0.033794	 2.0105154189	-1.048762238	 0.098964
H	 2.2372037688	-0.2942008593	-0.1896283532	 0.107567
H	 1.6296309129	-0.2669830017	 1.4889014016	 0.107572
H	-0.8291733287	-0.2978259605	 1.9406362821	 0.117463
H	-2.0131273458	-0.3890597261	 0.6144422006	 0.089318
H	-0.784822443	-3.6689298932	-0.2791101468	 0.122198
H	-1.9800684223	-2.3933626715	-0.7325129423	 0.07592
H	-1.1226383678	-0.4291044956	-1.8456883867	 0.089318
H	 0.6366872866	-0.3637563043	-2.1090571397	 0.117461
51.0482	116.0807	201.185	286.7699	314.5602	405.7792	425.3556	458.4116	490.7422	628.4198	761.5496	861.6099	901.9144	944.9437	951.2069	969.884	971.5214	1010.6918	1022.1342	1039.7106	1060.694	1109.0262	1131.7398	1149.5737	1159.4997	1194.3283	1234.0974	1245.5585	1307.7809	1309.7359	1328.3993	1336.6801	1371.4543	1388.5503	1414.7507	1442.7399	1492.7721	1494.6879	1509.6256	1517.5843	1541.0281	2912.5567	2947.7224	2958.4124	2993.7003	3021.15	3033.3092	3064.5235	3086.609	3088.4636	3118.8874
C1OCC11COCOC1	C1OCC21COCOC2	
InChI=1S/C6H10O3/c1-6(2-7-1)3-8-5-9-4-6/h1-5H2	InChI=1S/C6H10O3/c1-6(2-7-1)3-8-5-9-4-6/h1-5H2
