17
gdb 34804	4.03977	1.32074	1.24482	5.4879	76.01	-0.2474	0.0348	0.2822	1023.6608	0.139314	-380.829595	-380.822966	-380.822022	-380.860496	27.29	
N	-0.0438543607	-1.1624096286	-0.0706702269	-0.340969
C	-0.0298120575	-0.0062750387	-0.0330304598	 0.257306
C	-0.034651626	 1.4437970722	-0.0093080495	-0.133547
C	-0.1015345026	 2.0765078732	 1.4240707712	-0.052074
C	 1.4296247911	 1.7526339885	 1.5282666712	-0.239424
C	 1.3874574263	 2.1047682428	 0.000384692	-0.052074
C	 1.0413132548	 3.6062398029	 0.0880846551	-0.045624
N	-0.3479333562	 3.9594718401	-0.2870224354	-0.340022
C	-0.028260984	 3.5859397385	 1.1107498404	-0.045624
H	-0.7418087233	 1.8320175234	-0.7411970101	 0.147222
H	-0.8281649006	 1.7297618504	 2.1565550221	 0.086568
H	 2.0342038829	 2.3952960851	 2.173335355	 0.097389
H	 1.6393081831	 0.7001490183	 1.7266769126	 0.133181
H	 2.1583674582	 1.7864450412	-0.6989906136	 0.086568
H	 1.8254616046	 4.3522611256	 0.0418598485	 0.102689
H	-0.4236552344	 4.9727610024	-0.346102993	 0.235745
H	-0.1242117456	 4.3152569726	 1.9060252501	 0.102689
153.6086	157.4178	352.8316	379.4755	452.1097	522.3962	541.1036	580.343	667.3519	791.3215	807.8201	851.1921	864.6015	883.7983	903.2425	909.9375	929.9742	949.9773	995.944	1045.2805	1064.2978	1079.3748	1082.5925	1108.5331	1118.458	1134.7191	1189.4021	1216.6015	1235.3325	1245.7865	1258.304	1291.3577	1332.3933	1332.4765	1394.6367	1502.3139	2350.8915	3067.4484	3124.9297	3134.0457	3135.9033	3139.8485	3182.2162	3192.201	3498.0105
N#CC1C2CC1C1NC21	N#C[C@H]1[C@H]2C[C@@H]1[C@H]1N[C@@H]21	
InChI=1S/C7H8N2/c8-2-5-3-1-4(5)7-6(3)9-7/h3-7,9H,1H2	InChI=1S/C7H8N2/c8-2-5-3-1-4(5)7-6(3)9-7/h3-7,9H,1H2/t3-,4+,5+,6+,7-
