13
gdb 128050	7.34217	0.77967	0.70849	3.1516	65.85	-0.2872	-0.082	0.2052	1495.649	0.087276	-485.989937	-485.981884	-485.980939	-486.024249	27.216	
C	 0.0694713787	 1.379280228	-0.0656560519	-0.32424
N	-0.0284437094	-0.0483430299	-0.2996678376	-0.177518
C	-1.0989361284	-0.6158780251	-0.0035362383	 0.113075
O	-1.180183136	-1.9866214801	-0.20734371	-0.214398
C	-2.3486241541	-2.5832338205	-0.0100318726	 0.540533
N	-3.5024750257	-2.0310431736	 0.2423199779	-0.188838
O	-4.3433871216	-3.0987686533	 0.3491157913	-0.146978
N	-3.6249289541	-4.2644659269	 0.1414567735	 0.06715
N	-2.4243835428	-3.9595439409	-0.0740386258	-0.22285
H	 0.9068918494	 1.5711778228	 0.6127743896	 0.146074
H	 0.301938397	 1.8786703287	-1.0116055716	 0.14622
H	-0.8405472251	 1.8286349503	 0.3584981039	 0.11365
H	-2.0067341281	-0.1758888996	 0.4168109517	 0.148122
32.7667	70.5837	126.147	209.2153	290.4506	319.2297	366.9434	401.712	558.613	654.2447	748.6007	772.3281	825.0205	949.3125	961.2351	1046.4519	1061.4794	1111.0106	1134.777	1140.8123	1174.4358	1332.1008	1390.1957	1446.2859	1479.8928	1502.513	1514.3587	1619.74	1792.0437	2993.3974	3081.2141	3100.0776	3102.6442
CN=COC1=NON=N1	CN=COc1nonn1	
InChI=1S/C3H4N4O2/c1-4-2-8-3-5-7-9-6-3/h2H,1H3	InChI=1S/C3H4N4O2/c1-4-2-8-3-5-7-9-6-3/h2H,1H3
