15
gdb 26885	3.12267	1.46589	1.00379	3.4897	74.98	-0.217	-0.051	0.166	1120.5253	0.112761	-453.988942	-453.980747	-453.979803	-454.022842	29.709	
C	-0.0200943144	 1.5550434088	 0.0095165811	-0.496789
C	-0.0081215893	 0.0510670206	 0.0011229752	 0.043646
C	-1.1433580122	-0.7015657964	 0.0040050025	 0.448387
O	-2.3654485694	-0.1763012686	 0.0145096889	-0.388622
O	-1.1452524904	-2.0282542804	-0.0033298365	-0.238339
C	 0.0821727533	-2.757023662	-0.0150027242	 0.425515
N	-0.0785208449	-4.0104774799	-0.0209662716	-0.531327
N	 1.2502066598	-2.0331333177	-0.0182330469	-0.332621
C	 1.1809324348	-0.7330066011	-0.0105975321	-0.013792
H	 1.0044770177	 1.9372708582	 0.0057043762	 0.129815
H	-0.5324212816	 1.9669433419	-0.8664841513	 0.139149
H	-0.5222263541	 1.9571667295	 0.8958970215	 0.139153
H	-3.0059845976	-0.9021264509	 0.0144876723	 0.319916
H	 0.8417395399	-4.4464536403	-0.029101736	 0.236887
H	 2.1348300185	-0.2028144315	-0.0135677791	 0.119021
31.9055	75.1143	190.5003	260.8218	264.881	356.7158	436.7852	484.7563	485.5469	538.2624	583.2883	719.8142	727.8855	762.0678	800.1986	848.2065	903.9989	976.9636	997.9856	1030.5764	1071.1568	1157.1332	1243.9036	1272.1451	1331.1983	1413.1847	1427.0355	1433.7098	1482.0272	1500.8733	1576.5337	1717.2028	1749.426	3033.0598	3086.5396	3111.9866	3118.1772	3525.8975	3768.9453
CC1=C(O)OC(=N)N=C1	CC1=CN=C(O[C@H]1O)[NH]	
InChI=1S/C5H6N2O2/c1-3-2-7-5(6)9-4(3)8/h2,6,8H,1H3	InChI=1S/C5H7N2O2/c1-3-2-7-5(6)9-4(3)8/h2,4,6,8H,1H3/t4-/m1/s1
