18
gdb 11379	4.66255	1.38877	1.22921	1.5847	69.16	-0.2138	0.0636	0.2774	1044.8456	0.15509	-381.142643	-381.134447	-381.133503	-381.175308	29.823	
C	-0.004974779	 1.2863250241	-0.1411176686	-0.232454
O	-0.0806381423	-0.1271949802	 0.0604695678	-0.262562
C	-1.3181757818	-0.6240728824	 0.1252738105	 0.479677
N	-2.4083101714	 0.0335935747	 0.0200364037	-0.368069
C	-3.4745662594	-0.9652151779	 0.1730821032	-0.167373
C	-2.786102778	-2.3625907601	 0.0490603391	 0.027163
C	-2.9295336854	-2.9811762912	-1.3431493307	-0.397201
N	-1.3957475715	-1.990087902	 0.3647618518	-0.366699
H	 1.0587485708	 1.5254609377	-0.1686545975	 0.127044
H	-0.4872864538	 1.5680257516	-1.081091039	 0.138282
H	-0.4982621616	 1.8177564347	 0.6768611097	 0.141477
H	-3.9547844963	-0.8498308475	 1.153581352	 0.103147
H	-4.2520349643	-0.8283187717	-0.5866535981	 0.100491
H	-3.1636933329	-3.0615590593	 0.8020112242	 0.081018
H	-2.6019536038	-2.2756905013	-2.1143225886	 0.127791
H	-2.3352829653	-3.897100741	-1.4375331552	 0.11077
H	-3.97477608	-3.2412872625	-1.5406518354	 0.120807
H	-0.652921334	-2.5556426554	-0.023764599	 0.23669
84.0314	130.7788	153.66	229.4619	245.9359	271.5572	351.8313	414.2397	499.3943	577.1902	707.1708	738.7742	755.7581	833.2465	931.7604	940.8191	985.8215	1042.1539	1061.0683	1092.5192	1129.447	1145.0112	1183.8449	1222.9425	1231.4682	1282.8449	1310.9842	1339.7116	1388.4291	1404.6896	1444.4674	1476.4919	1490.2866	1493.6307	1497.3745	1504.1494	1509.8051	1718.5494	3013.0977	3026.3729	3047.3611	3049.2077	3058.8421	3095.7105	3106.5621	3121.5024	3151.6936	3584.8823
COC1=NCC(C)N1	CO[C]1[N]C[C@@H](C)N1	
InChI=1S/C5H10N2O/c1-4-3-6-5(7-4)8-2/h4H,3H2,1-2H3,(H,6,7)	InChI=1S/C5H10N2O/c1-4-3-6-5(7-4)8-2/h4H,3H2,1-2H3,(H,6,7)/t4-/m1/s1
