19
gdb 15180	10.61176	0.68431	0.68322	2.7734	80.42	-0.2261	0.0252	0.2512	1712.8795	0.163732	-365.047521	-365.038385	-365.037441	-365.082487	31.982	
C	 0.014456633	 1.4965159029	-0.0318540175	-0.384232
C	-0.0875113625	-0.0142263026	-0.1282622093	-0.052448
O	 0.8164573239	-0.4507373132	-1.1461458618	-0.206911
C	 0.8549168334	-1.7793903401	-1.3681102144	 0.116517
N	 1.6203383547	-2.2613085876	-2.2449971692	-0.217848
C	 1.6169037955	-3.6696092142	-2.4336279993	 0.077118
C	 1.8372253724	-4.1814079138	-3.8387722438	-0.272475
C	 2.9275090027	-4.3218773847	-2.8101538498	-0.272484
H	 1.0336617033	 1.797027428	 0.2252902186	 0.135875
H	-0.2504080399	 1.9609465707	-0.9854574934	 0.135869
H	-0.6651301779	 1.8704045223	 0.739514978	 0.119852
H	 0.1754203329	-0.4850116625	 0.8292500284	 0.106759
H	-1.1113653856	-0.3207274998	-0.3839654937	 0.10675
H	 0.178490168	-2.3710521819	-0.7320425363	 0.072537
H	 0.9441296834	-4.2533399864	-1.8002299574	 0.069367
H	 1.2938755581	-5.0676139106	-4.1473702315	 0.108973
H	 1.9656488137	-3.4297360701	-4.608307783	 0.123904
H	 3.7843764447	-3.6640847353	-2.8924740254	 0.123903
H	 3.1397090461	-5.3054319911	-2.4059078892	 0.108973
40.3257	58.7991	112.6937	130.3355	241.6743	253.0575	268.5017	323.007	452.9038	517.6681	549.5294	775.0756	818.4828	819.7357	855.4873	922.3226	935.5703	987.6951	995.06	1056.0169	1068.2783	1069.9432	1120.9756	1140.5988	1183.143	1198.301	1206.5089	1217.9824	1250.3538	1301.8726	1371.1852	1400.5981	1419.5494	1444.753	1455.4222	1483.6135	1497.0604	1499.2531	1524.051	1768.418	2988.4802	3004.6072	3035.7368	3049.115	3059.8834	3124.0163	3129.0085	3138.0761	3142.2165	3224.63	3238.5068
CCOC=NC1CC1	CCOC=NC1CC1	
InChI=1S/C6H11NO/c1-2-8-5-7-6-3-4-6/h5-6H,2-4H2,1H3	InChI=1S/C6H11NO/c1-2-8-5-7-6-3-4-6/h5-6H,2-4H2,1H3
