18
gdb 107523	2.1281	1.61484	1.11306	1.0194	78.19	-0.2213	0.0316	0.253	1139.5033	0.145699	-401.844051	-401.835086	-401.834142	-401.87782	33.563	
C	 0.2273582644	 1.3551788133	-0.1864961153	-0.259639
O	-0.2304947467	 0.0520360837	 0.1587405387	-0.281201
C	 0.5237490446	-0.5579896118	 1.1281449613	 0.414715
C	 1.9157700976	-1.0946276494	 0.9015318601	-0.331376
C	 0.8168939918	-2.0166504491	 1.3684090062	-0.118958
N	 0.6941073788	-1.8705271999	 2.8383181648	-0.320052
C	 0.2293769375	-0.4382059575	 2.6441175394	-0.262122
C	 0.9188458809	 0.5697832603	 3.4315532957	 0.361615
C	 1.4867443284	 1.4217154107	 4.0624084421	-0.455747
H	 1.2616296183	 1.3278169888	-0.5536681788	 0.116373
H	-0.4296694367	 1.7202652307	-0.9785600236	 0.127548
H	 0.1765053435	 2.0392398115	 0.6701174041	 0.125947
H	 2.1679110285	-1.1936303688	-0.1497554351	 0.117479
H	 2.7381185253	-0.8549917557	 1.5697243703	 0.125346
H	 0.5117930837	-2.9124689913	 0.8429848357	 0.107025
H	-0.0830471931	-2.4223319734	 3.1902374487	 0.225397
H	-0.8542233366	-0.3513520596	 2.7813080219	 0.110161
H	 1.9923403097	 2.1663427676	 4.6259746039	 0.197489
82.493	103.8648	131.7431	172.6406	227.3282	306.5344	356.0373	403.6068	441.0388	521.1106	544.1563	618.9593	652.5608	676.9256	720.5762	816.4139	867.451	919.7666	920.8619	979.4915	999.4846	1025.145	1056.0885	1069.4651	1083.98	1110.5191	1180.8473	1181.8107	1209.4246	1229.7672	1262.0576	1337.1239	1366.993	1398.9849	1466.4935	1488.1015	1500.9489	1507.5091	2232.0415	3006.2637	3045.367	3066.0766	3117.0345	3127.4655	3197.1569	3215.1022	3502.5318	3507.1629
COC12CC1NC2C#C	CO[C@]12C[C@H]1N[C@H]2C#C	
InChI=1S/C7H9NO/c1-3-5-7(9-2)4-6(7)8-5/h1,5-6,8H,4H2,2H3	InChI=1S/C7H9NO/c1-3-5-7(9-2)4-6(7)8-5/h1,5-6,8H,4H2,2H3/t5-,6+,7-/m0/s1
