21
gdb 58697	1.95397	1.49183	1.22811	4.7367	82.15	-0.2439	0.0228	0.2666	1183.4769	0.182118	-383.269244	-383.25949	-383.258546	-383.303526	36.309	
C	 0.7379537658	-0.4047652739	-1.2053733974	-0.407929
C	-0.1161480195	-0.0405723797	 0.0172509244	-0.032035
C	-0.0363178724	 1.4646761122	 0.307388045	-0.411553
C	-1.5837415308	-0.5181315795	-0.1401103113	 0.183572
C	-1.7620162565	-2.0714125816	-0.0531351589	-0.284653
C	-2.2900364594	-1.8366780141	 1.3814137462	-0.160152
N	-2.4364319648	-0.3963881374	 1.0708565609	-0.338256
C	-2.2007118716	 0.1125685109	-1.319904605	 0.284856
N	-2.670170247	 0.5989804885	-2.2578170696	-0.360169
H	 1.7813126544	-0.1215998439	-1.0371163061	 0.118878
H	 0.714882221	-1.477756741	-1.4185644706	 0.117919
H	 0.3870460122	 0.1225271679	-2.0981628543	 0.14513
H	 0.2732799465	-0.5851154817	 0.8885015047	 0.077559
H	-0.4229320202	 2.0456401025	-0.5361978395	 0.145662
H	-0.6047612391	 1.7499375357	 1.1986466729	 0.111811
H	 1.0026036475	 1.763775645	 0.4750567294	 0.121034
H	-2.5165640601	-2.4532448591	-0.7404033331	 0.134278
H	-0.846430884	-2.6531184348	-0.1571807249	 0.11729
H	-3.231268466	-2.3270703195	 1.6466382401	 0.114845
H	-1.5464499761	-2.0686316035	 2.1546179831	 0.100176
H	-2.0993987101	 0.256130717	 1.7697505439	 0.221738
91.3159	113.1483	147.648	184.9242	209.7459	218.3591	238.3013	319.3632	338.8245	420.5305	446.5174	534.6548	580.6634	625.7703	674.5684	771.1078	853.8501	915.849	929.5469	936.7894	963.3436	965.8529	1018.6927	1051.255	1065.9973	1110.0993	1137.2194	1172.3692	1202.4717	1209.3356	1225.2061	1269.7754	1323.1917	1344.7932	1357.9227	1384.3429	1407.3574	1426.2052	1481.1707	1485.8447	1492.504	1506.286	1510.0348	1527.5895	2348.3364	3010.6662	3016.7663	3035.9705	3040.1445	3074.6562	3096.0497	3102.2442	3108.1577	3110.4399	3114.7166	3155.6169	3536.4982
CC(C)C1(CCN1)C#N	CC(C)[C@]1(CCN1)C#N	
InChI=1S/C7H12N2/c1-6(2)7(5-8)3-4-9-7/h6,9H,3-4H2,1-2H3	InChI=1S/C7H12N2/c1-6(2)7(5-8)3-4-9-7/h6,9H,3-4H2,1-2H3/t7-/m0/s1
