18
gdb 115227	4.31711	0.98714	0.84578	4.7738	69.18	-0.2532	0.0564	0.3096	1340.3603	0.148571	-476.255512	-476.246643	-476.245699	-476.289831	31.599	
C	 0.0017889638	 1.3897076227	-0.063186827	-0.245408
O	-0.0512751935	-0.019561557	 0.0383934617	-0.24097
C	 0.63629105	-0.5554766555	 1.1466149507	 0.090484
C	 0.0462047215	-1.9350651524	 1.4178846308	-0.172009
N	 0.956085582	-2.6989031853	 2.2563649069	-0.374714
C	 2.2325741818	-2.3717577318	 2.6334835083	 0.467484
O	 2.8611723163	-2.9857349362	 3.4579235883	-0.392916
O	 2.7809830114	-1.2809157875	 2.0261931064	-0.238885
C	 2.1313388838	-0.7347988554	 0.8777612355	-0.097866
H	 1.0234266808	 1.7632031998	-0.2189658151	 0.115357
H	-0.6049842996	 1.6674996236	-0.9276919395	 0.136914
H	-0.4123057349	 1.8734199295	 0.8337336403	 0.115349
H	 0.5153264246	 0.08712496	 2.0324720319	 0.08816
H	-0.928913722	-1.8423510687	 1.907718508	 0.120332
H	-0.114658856	-2.4277826535	 0.4493906084	 0.124655
H	 0.6032764725	-3.5083751958	 2.7402172444	 0.261163
H	 2.2730766722	-1.3891426868	 0.007343151	 0.120402
H	 2.6315256752	 0.2154752004	 0.6804052691	 0.122467
73.2596	84.0115	108.402	171.8235	192.6875	282.6303	360.8229	418.885	443.2747	505.68	524.0469	584.7576	735.0277	762.7243	825.6625	914.7104	941.1654	1025.5444	1062.2629	1116.4337	1133.3668	1151.462	1170.147	1183.795	1221.4423	1238.3126	1275.8059	1287.1381	1337.3189	1381.7967	1401.8411	1428.8407	1480.0971	1483.6269	1492.5186	1508.2913	1512.3728	1529.7765	1849.2616	2984.7022	2992.1401	3014.0132	3027.8415	3041.834	3066.0704	3112.4955	3123.7631	3651.3162
COC1CNC(=O)OC1	CO[C@H]1CNC(=O)OC1	
InChI=1S/C5H9NO3/c1-8-4-2-6-5(7)9-3-4/h4H,2-3H2,1H3,(H,6,7)	InChI=1S/C5H9NO3/c1-8-4-2-6-5(7)9-3-4/h4H,2-3H2,1H3,(H,6,7)/t4-/m0/s1
