19
gdb 6720	6.84493	0.71585	0.67134	2.6341	71.36	-0.258	0.0252	0.2832	1656.9915	0.163216	-402.196441	-402.186539	-402.185595	-402.23286	33.82	
C	-0.0372674869	 1.5357289499	 0.1143475223	-0.405443
C	-0.0235468672	 0.010576337	 0.0268031069	 0.132046
O	 0.6951656163	-0.5673174418	 1.1172347331	-0.42989
C	-1.436589109	-0.5759614367	-0.0830673839	-0.207326
C	-1.4233648377	-2.0909148053	-0.2174842236	-0.073954
O	-2.780024155	-2.5404846074	-0.2747655434	-0.184313
C	-2.9770551937	-3.8644109794	-0.1457111078	 0.127299
N	-4.1376072758	-4.3478937187	-0.264725285	-0.440436
H	 0.9824694035	 1.91848038	 0.2072804043	 0.127133
H	-0.4979368137	 1.9805550363	-0.7732916251	 0.121757
H	-0.6110019749	 1.8689394991	 0.988398741	 0.110286
H	 0.5527341545	-0.2884797585	-0.8584882605	 0.091953
H	 0.2943603668	-0.2455957191	 1.9329234455	 0.278416
H	-2.0205551161	-0.3027306292	 0.8059642009	 0.102426
H	-1.9540380188	-0.1400848351	-0.9451182373	 0.114368
H	-0.8953871974	-2.3920684376	-1.1332269833	 0.106609
H	-0.9040456922	-2.5407721868	 0.6363317794	 0.118947
H	-2.0571753858	-4.4264376984	 0.071246064	 0.083036
H	-4.107526537	-5.3552816584	-0.1220822975	 0.227087
23.8083	61.4814	98.8335	122.9854	146.7441	249.3839	257.8034	296.3263	312.7353	430.2487	470.2599	495.9153	641.729	798.1371	821.9898	853.9462	941.5688	973.9024	1004.5383	1045.4016	1054.8441	1091.295	1126.4263	1143.2861	1167.0574	1217.3944	1284.6436	1299.9767	1309.692	1335.942	1379.2579	1404.5014	1409.0851	1422.0825	1433.9259	1482.2548	1493.9612	1497.0431	1521.488	1748.0771	3001.4341	3016.43	3021.6161	3025.0342	3035.7332	3060.0894	3083.0483	3098.0915	3121.8685	3516.8573	3793.4711
CC(O)CCOC=N	C[C@@H](O)CCO[CH][NH]	
InChI=1S/C5H11NO2/c1-5(7)2-3-8-4-6/h4-7H,2-3H2,1H3	InChI=1S/C5H11NO2/c1-5(7)2-3-8-4-6/h4-7H,2-3H2,1H3/t5-/m1/s1
