19
gdb 53237	2.65616	0.99666	0.95515	1.6255	80.38	-0.2516	0.0218	0.2735	1386.5403	0.156549	-422.985824	-422.975633	-422.974689	-423.022503	35.688	
C	-0.1601059638	 1.2560051559	 0.4762430034	-0.501219
C	-0.1023491069	-0.1780440341	 0.2322745409	 0.082662
C	-0.0130176718	-1.3629275682	 0.0233804677	 0.0781
C	 0.021716206	-2.7963854502	-0.2249486625	-0.118816
O	 0.4409455721	-3.5781350739	 0.9178020379	-0.295785
C	-0.8808958903	-4.1584727606	 1.0995544678	 0.106048
C	-1.5389804285	-3.7312206479	 2.3964576122	-0.392109
C	-1.3827999002	-3.4878387196	-0.2112654613	 0.0709
O	-2.5208366905	-2.6831484252	-0.185736549	-0.424303
H	 0.8303392	 1.7118443019	 0.3723131285	 0.158076
H	-0.8305032664	 1.750375209	-0.235014065	 0.155841
H	-0.5244240613	 1.4740686431	 1.4857591235	 0.154851
H	 0.6404141462	-3.0187990245	-1.1025453467	 0.102154
H	-0.8206348232	-5.2527025055	 1.0429105077	 0.076949
H	-1.6149299504	-2.6427426561	 2.4649771176	 0.114092
H	-2.5464289386	-4.1533291092	 2.4678144152	 0.123999
H	-0.9510652472	-4.0869510981	 3.2478191525	 0.124958
H	-1.506719864	-4.2000225697	-1.030206647	 0.099299
H	-2.2678903111	-1.8266954968	 0.1849071867	 0.284304
33.7123	40.5868	88.8113	133.2733	193.695	236.52	256.1095	323.4402	349.8776	390.568	401.5368	480.1426	551.5811	583.5354	731.1904	801.4684	857.2602	878.4867	932.8213	990.9556	1037.878	1050.6925	1053.8445	1078.2113	1139.2863	1163.0047	1183.8785	1203.4419	1257.807	1305.1572	1333.2218	1343.8862	1386.0643	1407.037	1413.8169	1442.9952	1475.3265	1477.1813	1481.9891	1492.2101	2352.9099	3021.5359	3030.8538	3031.5392	3042.1057	3086.675	3094.8024	3095.3348	3115.1438	3121.9298	3741.6035
CC#CC1OC(C)C1O	CC#C[C@H]1O[C@@H](C)[C@H]1O	
InChI=1S/C7H10O2/c1-3-4-6-7(8)5(2)9-6/h5-8H,1-2H3	InChI=1S/C7H10O2/c1-3-4-6-7(8)5(2)9-6/h5-8H,1-2H3/t5-,6+,7+/m0/s1
