14
gdb 27429	2.70142	1.73393	1.23345	4.7958	70.5	-0.2525	-0.1045	0.148	992.5726	0.101191	-432.896561	-432.889026	-432.888082	-432.928667	27.57	
C	-0.3084915441	 1.4299646475	 0.1457805382	-0.442508
C	 0.0275974094	-0.0106482271	-0.1114716192	 0.343808
N	-0.2239170592	-0.537976611	-1.2535851589	-0.262384
C	 0.1033642176	-1.8794899011	-1.4756687607	 0.365102
O	 0.8695490497	-2.2672322511	-2.3126396602	-0.294991
N	-0.6659130374	-2.7803984397	-0.6879824571	-0.192951
C	-0.4319357734	-2.7890915489	 0.5690567984	-0.014248
C	 0.4708363473	-1.8597791407	 1.2707687339	-0.004348
N	 0.6751888439	-0.6272796958	 0.9715887089	-0.228656
H	 0.611336625	 1.9954905043	 0.3254070792	 0.157809
H	-0.841649475	 1.8490009599	-0.7067331105	 0.152805
H	-0.9180055125	 1.5206270143	 1.0508806515	 0.143544
H	-0.9405753695	-3.5355621903	 1.1847919436	 0.138276
H	 0.9687426981	-2.2401661802	 2.1662351029	 0.138739
128.6798	136.0064	163.0896	262.5856	309.9654	363.6949	424.4842	469.9598	559.4962	657.8977	685.6157	737.153	850.1363	859.4531	889.9105	935.0628	950.7222	1025.1791	1044.0157	1068.2135	1176.8782	1244.962	1391.6717	1402.849	1411.0739	1466.6669	1472.5177	1604.2619	1673.0454	1692.4706	1838.6368	3048.5041	3091.2796	3107.0956	3107.4756	3167.094
CC1=NC(=O)N=CC=N1	Cc1nc(=O)nccn1	
InChI=1S/C5H5N3O/c1-4-6-2-3-7-5(9)8-4/h2-3H,1H3	InChI=1S/C5H5N3O/c1-4-6-2-3-7-5(9)8-4/h2-3H,1H3
