21
gdb 114657	3.3107	1.14488	1.05938	2.8932	78.1	-0.2407	0.0819	0.3226	1238.9325	0.18388	-424.199702	-424.19135	-424.190406	-424.232519	32.999	
C	-0.1138228005	 1.5378191853	-0.087344561	-0.437515
C	 0.002526645	 0.0203960637	-0.0147326034	 0.037217
C	 1.127136551	-0.696377832	-0.8111431251	 0.102101
C	 2.1062920316	-0.3148151019	 0.3224007216	-0.250867
C	 0.8262692643	-0.593738788	 1.1780388795	-0.098645
C	 0.6752550472	-2.0969615209	 0.8973618683	 0.116516
C	-0.6441796338	-2.7832044086	 1.2292702676	-0.086644
O	-0.7089804877	-4.0547709819	 0.6121443933	-0.421966
O	 0.8633008542	-2.0902469101	-0.5509058463	-0.313926
H	 0.8327052495	 2.0576637708	 0.0803921905	 0.119714
H	-0.4912901809	 1.8467846212	-1.0682966878	 0.120886
H	-0.8239542842	 1.8998756306	 0.6639752815	 0.121566
H	-0.9826924739	-0.4230663775	-0.1812628387	 0.073498
H	 1.319331607	-0.5522215486	-1.8738421112	 0.077471
H	 2.969326428	-0.9690209976	 0.4665062576	 0.102872
H	 2.4149858536	 0.7289978147	 0.3190643878	 0.106269
H	 0.7182219189	-0.2554781038	 2.2086584796	 0.072328
H	 1.4894353107	-2.6803492641	 1.3473233799	 0.0802
H	-0.7111396972	-2.9482590247	 2.3107720983	 0.102446
H	-1.4968130882	-2.1525718039	 0.9355066203	 0.084299
H	-0.4674780145	-3.9060695327	-0.3105902121	 0.292179
90.0154	159.4659	179.8323	234.0217	272.3248	313.97	393.3236	464.5903	496.559	523.645	550.834	659.2076	793.0579	819.9613	844.052	848.7005	886.5038	953.641	957.3985	1002.3146	1012.6594	1042.0456	1052.4201	1075.8421	1086.7997	1109.114	1117.5062	1136.7648	1139.8962	1214.9458	1226.3518	1247.0251	1258.7944	1267.4219	1288.53	1314.8027	1358.7566	1389.1067	1408.3457	1417.2677	1444.784	1491.2307	1497.5895	1506.3485	1512.7598	2987.3808	3017.0201	3035.255	3063.8209	3073.62	3079.3773	3092.2644	3116.499	3118.183	3129.1314	3157.7895	3783.2884
CC1C2CC1C(CO)O2	C[C@H]1[C@H]2C[C@@H]1[C@@H](CO)O2	
InChI=1S/C7H12O2/c1-4-5-2-6(4)9-7(5)3-8/h4-8H,2-3H2,1H3	InChI=1S/C7H12O2/c1-4-5-2-6(4)9-7(5)3-8/h4-8H,2-3H2,1H3/t4-,5+,6-,7-/m1/s1
