19
gdb 71301	2.71452	1.92639	1.45118	2.5426	74.24	-0.2262	0.0833	0.3096	957.5574	0.160252	-422.987586	-422.980212	-422.979267	-423.018873	30.011	
C	 0.0003956745	 1.4567227914	 0.0427435705	-0.461691
C	-0.0331543232	-0.0524650549	-0.0394534299	 0.385803
C	 0.9011175133	-0.6347344705	-1.1032857475	-0.109938
O	 1.0928494894	-2.0226607618	-0.9369506526	-0.24179
C	-0.0878034879	-2.7993025742	-0.8486804921	-0.094948
C	-1.1839622265	-2.1902521304	 0.005825362	-0.090322
C	-0.9812276908	-1.3406988544	 1.2384050719	 0.08878
O	 0.271225232	-0.6647096289	 1.2605477687	-0.319584
C	-1.4318821926	-0.70193149	-0.0484670959	-0.209239
H	 0.9999017008	 1.7998379416	 0.3276216691	 0.129684
H	-0.2570358515	 1.9030691964	-0.9244625478	 0.117483
H	-0.7133661481	 1.8145875963	 0.7897883676	 0.127298
H	 0.494840525	-0.3915045889	-2.1012340492	 0.084736
H	 1.8994582	-0.1923056386	-1.0238782675	 0.109556
H	-0.5045718022	-2.976235549	-1.8567874114	 0.085254
H	 0.2312807173	-3.7677188658	-0.4488685723	 0.113057
H	-2.0922603862	-2.7885098099	 0.0435401008	 0.092185
H	-1.4821440682	-1.5055218082	 2.1855826326	 0.103161
H	-2.356201015	-0.2198551002	-0.339174467	 0.090516
174.3613	214.9379	244.1889	273.8924	341.268	377.9582	403.1214	485.5971	582.6484	673.5136	724.3155	775.1714	813.2826	838.4898	857.9828	893.8085	915.5953	976.4064	989.456	1018.2813	1032.3089	1055.0163	1067.8308	1095.0048	1118.335	1151.2955	1173.4873	1209.0135	1238.5077	1266.3	1298.5398	1317.4068	1333.8146	1387.1539	1407.4288	1419.0027	1443.2888	1481.3813	1486.8421	1491.623	1501.254	2938.7634	2953.1601	3034.0677	3064.2262	3073.6767	3104.5916	3118.2589	3136.1916	3176.015	3194.2304
CC12COCC3C(O1)C23	C[C@@]12COC[C@H]3[C@@H](O1)[C@@H]23	
InChI=1S/C7H10O2/c1-7-3-8-2-4-5(7)6(4)9-7/h4-6H,2-3H2,1H3	InChI=1S/C7H10O2/c1-7-3-8-2-4-5(7)6(4)9-7/h4-6H,2-3H2,1H3/t4-,5+,6-,7+/m1/s1
