12
gdb 47953	10.09901	0.43334	0.41657	2.0738	91.21	-0.2797	-0.097	0.1827	2368.3994	0.075225	-398.311086	-398.301821	-398.300877	-398.347657	29.9	
O	-0.09661868	-0.0717771104	 0.0036268399	-0.21451
C	-0.0308688076	 1.135886632	 0.007499281	-0.029909
C	 1.2050605563	 1.8762144432	-0.0000936993	 0.239978
C	 2.2323030338	 2.5230881708	-0.006216334	-0.144192
C	 3.3819598502	 3.2404619537	-0.0130889698	-0.172438
C	 4.4077620382	 3.8805659811	-0.0191977215	 0.324004
C	 5.6551565217	 4.6335220548	-0.0268284311	-0.510205
C	 5.4548434851	 6.088880728	-0.0171221314	 0.284746
N	 5.3121445155	 7.2341242134	-0.0096177356	-0.286955
H	-0.9383290838	 1.7714055257	 0.0175963514	 0.113025
H	 6.2653772112	 4.3589794417	 0.8438555902	 0.198225
H	 6.2489102694	 4.3684216062	-0.9117104398	 0.19823
21.7357	48.8788	90.6019	106.2792	221.6111	223.2484	344.3443	360.2074	385.6032	422.9304	536.5291	596.9745	599.151	746.1311	910.73	926.9385	982.2253	1016.5304	1232.0011	1269.9686	1347.5963	1417.9077	1436.2341	1757.123	2260.8366	2365.8702	2376.9887	2933.7778	3024.7983	3056.32
O=CC#CC#CCC#N	O=CC#CC#CCC#N	
InChI=1S/C7H3NO/c8-6-4-2-1-3-5-7-9/h7H,4H2	InChI=1S/C7H3NO/c8-6-4-2-1-3-5-7-9/h7H,4H2
