16
gdb 97574	3.35699	0.7462	0.64458	4.3587	70.62	-0.2555	-0.0045	0.251	1691.3732	0.122596	-475.007347	-474.997415	-474.99647	-475.044156	34.295	
N	 0.2248573977	 1.5592371253	-0.0872017617	-0.501606
H	 1.1368013326	-1.5488430226	 2.7234897565	 0.313609
H	 0.8587114121	 2.3136155769	 0.1598886328	 0.236839
H	-0.2746802089	 1.862453831	-0.9182296086	 0.234947
C	-0.7401898922	 1.3581506959	 1.0032066612	-0.301501
C	-0.0700268782	 0.9137268874	 2.2231208573	 0.14412
C	 0.4847300454	 0.5876433124	 3.2421056865	 0.015426
C	 1.1940204839	 0.1290982183	 4.4377553899	-0.162743
O	 0.7589904585	 0.7619040407	 5.6098918216	-0.413722
C	 1.0715101414	-1.4056722792	 4.6048809783	 0.422827
O	 1.1708950987	-2.1390760483	 3.4937165706	-0.354508
O	 0.9384595263	-1.8926322776	 5.6957950897	-0.335044
H	-1.3415637791	 2.2489338783	 1.2548113069	 0.126923
H	-1.4546570097	 0.5892254206	 0.6830032091	 0.142055
H	 2.273919268	 0.3132901119	 4.2789694391	 0.130478
H	 0.6826375135	 0.0470132491	 6.2631810206	 0.301901
23.7181	61.0155	84.995	113.344	204.1201	245.5886	287.3057	323.8924	405.6356	443.6863	459.8581	508.4209	564.021	584.5299	616.7457	721.1144	832.5626	857.0432	892.0588	1004.5765	1041.0678	1112.3668	1164.2347	1192.2845	1222.8542	1248.0291	1302.7412	1331.5423	1362.3684	1421.0281	1443.5413	1493.0134	1654.8623	1864.3117	2359.1949	2923.1106	2952.6498	3040.1541	3490.1765	3572.6405	3684.2547	3702.6191
[NH3+]CC#CC(O)C([O-])=O	NCC#C[C@@H](O)C(=O)O	
InChI=1S/C5H7NO3/c6-3-1-2-4(7)5(8)9/h4,7H,3,6H2,(H,8,9)	InChI=1S/C5H7NO3/c6-3-1-2-4(7)5(8)9/h4,7H,3,6H2,(H,8,9)/t4-/m1/s1
