14
gdb 21193	7.14499	1.33563	1.13647	2.9499	61.22	-0.2138	0.0293	0.2431	1006.971	0.108747	-412.049408	-412.041701	-412.040757	-412.0815	27.571	
C	-0.0509214279	 1.4248245849	 0.1233183111	-0.3324
N	-0.0606049327	-0.0125778225	-0.0848961472	-0.393814
C	-1.1923991134	-0.7464064436	-0.0427316323	 0.554202
N	-1.2807905328	-2.0523286452	-0.0050492508	-0.424156
C	-2.642741489	-2.2239081872	-0.028067569	 0.418999
N	-3.1942470389	-3.4805045621	-0.0678149506	-0.5864
N	-3.3700179954	-1.129099869	-0.0583996193	-0.238899
O	-2.3614654693	-0.1060609407	-0.0737322358	-0.223484
H	 0.9155020155	 1.8188259035	-0.1969666851	 0.135941
H	-0.8314194557	 1.8867042111	-0.4844295173	 0.163679
H	-0.2187491324	 1.7055094741	 1.1714409183	 0.134054
H	 0.7792060332	-0.53552967	 0.1014165299	 0.266869
H	-2.6159200917	-4.1899291726	 0.3557400953	 0.262474
H	-4.1633061995	-3.5223988208	 0.2101957329	 0.262934
88.9326	114.9754	197.9359	226.184	317.2778	359.287	395.5864	448.0945	546.2045	578.5267	683.1695	723.1347	779.411	793.0474	907.4633	1015.9996	1036.1059	1108.3033	1130.703	1155.3377	1192.156	1384.6172	1438.3824	1458.2334	1487.6153	1501.8489	1516.6145	1605.0885	1655.5254	1694.6046	3018.4286	3103.585	3144.1631	3581.6703	3655.3066	3690.8242
CNC1=NC(N)=NO1	CNc1nc(N)no1	
InChI=1S/C3H6N4O/c1-5-3-6-2(4)7-8-3/h1H3,(H3,4,5,6,7)	InChI=1S/C3H6N4O/c1-5-3-6-2(4)7-8-3/h1H3,(H3,4,5,6,7)
