22
gdb 102106	1.76997	1.47291	0.89616	2.4964	83.43	-0.2357	-0.0223	0.2134	1373.3239	0.191271	-404.329727	-404.319211	-404.318267	-404.366022	37.588	
C	 0.5611620712	 3.3033573769	-0.7517244581	-0.393853
C	 0.5341144171	 1.8422769247	-0.2955397661	-0.176244
C	 1.0459666326	 0.8392147351	-1.353036679	-0.041753
C	 1.0047156196	-0.5479917311	-0.7266381007	 0.160623
O	 1.8924222189	-1.0200625668	-0.0648121885	-0.25972
N	 0.1791944409	 0.8414714233	-2.5266713515	-0.097905
C	 0.5422461169	 1.6806044726	-3.6666221382	-0.24924
C	 0.6269727671	 0.1989669461	-3.7737560839	 0.021836
C	 1.9587415777	-0.5055564841	-3.9206649638	-0.420549
H	 1.5704427714	 3.6101662879	-1.0477474618	 0.113379
H	-0.1077811954	 3.4710707839	-1.5994600632	 0.132716
H	 0.2398984323	 3.9611710808	 0.0617159599	 0.117302
H	 1.1565474972	 1.7195636497	 0.5980240427	 0.114206
H	-0.4891715211	 1.561714021	-0.0186256638	 0.107432
H	 2.0996605568	 1.0745201139	-1.5714245323	 0.078303
H	 0.0503880863	-1.0932502161	-0.9067334016	 0.086073
H	-0.2699728864	 2.2357347984	-4.1291797576	 0.115925
H	 1.486730675	 2.2215838161	-3.6170750887	 0.110843
H	-0.1919273089	-0.3089957918	-4.281125841	 0.093434
H	 2.7845963261	 0.0604140724	-3.4832024739	 0.128049
H	 1.9418532198	-1.4959459172	-3.4527034688	 0.133011
H	 2.1821284848	-0.6480111056	-4.9831682901	 0.126131
47.3666	63.0613	98.3256	151.6001	180.4729	210.2621	231.7181	264.8235	319.0905	340.1366	398.9952	450.2953	525.5106	546.4796	739.6124	783.3481	838.3981	866.3976	909.7258	952.2592	988.1197	1022.1573	1027.1124	1056.9352	1083.8974	1122.0936	1122.8231	1145.4583	1150.7529	1181.5245	1193.8773	1273.2598	1298.1146	1324.5445	1354.7966	1375.842	1403.2682	1408.494	1411.5241	1422.8373	1480.1789	1491.2741	1497.3158	1499.0783	1506.3885	1511.7586	1833.6448	2878.8742	2976.4222	3033.01	3037.2334	3037.4431	3075.0803	3087.4084	3096.3413	3102.0655	3106.6011	3122.9807	3127.5832	3172.277
CCC(C=O)N1CC1C	CC[C@@H](C=O)N1C[C@H]1C	
InChI=1S/C7H13NO/c1-3-7(5-9)8-4-6(8)2/h5-7H,3-4H2,1-2H3	InChI=1S/C7H13NO/c1-3-7(5-9)8-4-6(8)2/h5-7H,3-4H2,1-2H3/t6-,7+,8?/m1/s1
