18
gdb 75751	2.30045	1.57552	0.98025	3.4397	75.92	-0.2139	-0.0081	0.2058	1198.0659	0.146291	-439.139123	-439.129673	-439.128728	-439.173119	34.548	
C	 0.0943028625	 1.5294276356	 0.0911394199	-0.502472
C	-0.0457180465	 0.0459541714	 0.0457399671	 0.254148
C	-1.1288666704	-0.7372258174	-0.0769509764	 0.174492
C	-2.5659192947	-0.3591165633	-0.2145982363	-0.504361
C	-0.682288204	-2.1765613994	 0.0230990098	-0.061361
O	-1.1300051901	-2.9973821337	-1.0355274469	-0.434537
C	 0.8540734139	-2.0717580779	 0.0263162366	 0.385152
O	 1.6297910621	-2.989475698	-0.1287705001	-0.382436
N	 1.1368478774	-0.7386881219	 0.180163369	-0.381471
H	 0.7602019714	 1.8877232587	-0.7042630456	 0.134711
H	-0.8723258239	 2.019335596	-0.0325531059	 0.143753
H	 0.5247110354	 1.8570735607	 1.0453050662	 0.139278
H	-2.7027538648	 0.7213317993	-0.3077501237	 0.118689
H	-3.0023916141	-0.8345950164	-1.1003993791	 0.146874
H	-3.155803032	-0.6980311177	 0.6473011715	 0.125686
H	-0.9934663971	-2.5979265767	 0.9980804529	 0.094266
H	-0.4708910403	-3.7002798188	-1.119939401	 0.293895
H	 2.0684626852	-0.3736416705	 0.053319102	 0.255695
87.4842	149.4283	155.768	173.0441	202.6993	264.6084	271.9589	302.6496	364.116	399.8652	499.7661	551.05	571.4273	595.8025	644.9293	724.3589	822.9875	891.8489	941.8887	995.1278	1051.5349	1068.07	1100.2485	1139.0984	1200.0614	1223.1707	1259.4698	1299.614	1342.1155	1397.3192	1405.5704	1422.3079	1439.8464	1473.7902	1477.7117	1488.993	1496.2486	1746.593	1835.3075	2921.7015	3017.8931	3023.0683	3069.369	3069.6402	3112.7198	3140.506	3629.5488	3751.9465
CC1=C(C)C(O)C(=O)N1	CC1=C(C)[C@@H](O)C(=O)N1	
InChI=1S/C6H9NO2/c1-3-4(2)7-6(9)5(3)8/h5,8H,1-2H3,(H,7,9)	InChI=1S/C6H9NO2/c1-3-4(2)7-6(9)5(3)8/h5,8H,1-2H3,(H,7,9)/t5-/m1/s1
