14
gdb 42157	3.84909	1.12561	0.90024	5.8862	71.01	-0.2724	-0.109	0.1634	1216.0947	0.100095	-432.848451	-432.839951	-432.839007	-432.882421	29.585	
N	 0.0043696664	 1.2118519153	-0.2087696475	-0.481077
C	 0.0941295259	-0.0055980204	 0.1609578524	 0.24642
C	-1.1941960542	-0.794304234	 0.1865820623	 0.274382
O	-1.2656083039	-1.9648832079	 0.4620745752	-0.271093
C	-2.4027086442	-0.032203085	-0.1756492873	 0.28086
N	-3.4098201692	 0.4683983616	-0.4428745106	-0.310725
N	 1.1960752008	-0.6887276004	 0.6354345664	-0.082117
C	 1.7348465263	-1.9051615998	 0.0522510978	-0.21115
C	 2.509907863	-0.6234987385	 0.0233848668	-0.242732
H	 0.9138853683	 1.6789561809	-0.2019601992	 0.23384
H	 1.993579173	-2.6862019097	 0.7595575143	 0.144402
H	 1.3057599547	-2.2527344694	-0.8828527825	 0.143333
H	 2.593445226	-0.1063028353	-0.9304689598	 0.134109
H	 3.3400500271	-0.4728186875	 0.7064155617	 0.141548
49.0712	102.0026	140.3311	202.5438	218.7041	279.7742	315.4046	439.766	463.7919	505.4695	615.0806	730.9986	806.5246	830.2938	831.9525	917.0403	960.7326	1038.1352	1054.0814	1123.5839	1133.6309	1141.4756	1172.1386	1175.7066	1308.603	1428.4787	1494.0831	1523.3097	1688.5199	1789.6007	2343.6514	3108.1205	3125.881	3199.0749	3219.1369	3459.9022
N=C(C(=O)C#N)N1CC1	[NH][C](C(=O)C#N)N1CC1	
InChI=1S/C5H5N3O/c6-3-4(9)5(7)8-1-2-8/h7H,1-2H2	InChI=1S/C5H5N3O/c6-3-4(9)5(7)8-1-2-8/h7H,1-2H2
