14
gdb 11486	5.58618	1.06201	0.96503	3.7532	65.15	-0.2691	-0.0623	0.2068	1165.3864	0.104076	-382.48951	-382.481305	-382.480361	-382.523363	28.404	
O	-0.0516861386	-0.1160760471	 0.1910937189	-0.282623
C	-0.0067171231	 1.0860581665	 0.0553048232	 0.239611
C	 1.2764433885	 1.8419316816	-0.2710031786	-0.343431
C	 2.5144163855	 0.9922412625	-0.127491354	 0.101126
C	 3.8339690386	 1.6013295412	 0.0732246992	-0.18985
O	 3.1342564842	 0.9944717505	 1.1597220022	-0.22887
C	-1.1968779346	 1.9136566909	 0.1645111397	 0.245693
C	-2.1678649178	 2.6197006453	 0.2518994813	-0.386775
H	 1.1759373262	 2.2110346304	-1.3023158403	 0.141858
H	 1.3464881705	 2.7300667163	 0.3664233914	 0.140617
H	 2.4573114189	 0.0097245	-0.5919053735	 0.115261
H	 4.727498289	 1.0774682626	-0.2630214905	 0.119026
H	 3.9253604069	 2.6861401862	 0.1228743733	 0.111703
H	-3.0374021443	 3.225874583	 0.3344244778	 0.216655
40.5516	70.2384	121.6618	205.5188	235.671	356.4937	369.8478	485.1765	570.4972	610.4801	648.6817	708.3467	802.5483	829.866	864.5727	948.3172	967.2966	1066.2313	1098.093	1131.3446	1159.1361	1165.6716	1227.4408	1297.7372	1329.9281	1424.0397	1451.822	1532.9162	1774.2269	2211.7597	3017.9342	3079.8592	3081.1473	3138.0915	3167.3324	3493.697
O=C(CC1CO1)C#C	O=C(C[C@H]1CO1)C#C	
InChI=1S/C6H6O2/c1-2-5(7)3-6-4-8-6/h1,6H,3-4H2	InChI=1S/C6H6O2/c1-2-5(7)3-6-4-8-6/h1,6H,3-4H2/t6-/m0/s1
