23
gdb 72225	2.39566	1.85939	1.30017	0.2013	88.99	-0.2404	0.0893	0.3298	1090.688	0.20718	-351.153027	-351.144608	-351.143664	-351.185199	34.391	
C	-0.0442656734	 1.5265401327	 0.0214832225	-0.505075
C	 0.0155932897	 0.0236136825	 0.0079135798	 0.311505
C	-0.0995418265	-0.7938051034	-1.2852438471	-0.287145
C	-0.6597288158	-1.9898945465	-0.4521171014	-0.039735
C	 0.4688631189	-2.9577150875	-0.075247607	-0.203581
C	 1.4816494064	-2.0491603007	 0.6686154105	-0.289168
C	 0.6563981296	-0.8290849627	 1.1082311702	 0.31618
C	 1.0432711734	-0.1630485459	 2.4095959963	-0.496339
C	-0.7998986228	-1.0280124878	 0.7576107607	-0.168378
H	 0.8594631642	 1.9595153583	-0.4260763586	 0.115602
H	-0.9005291583	 1.8844293284	-0.5625771882	 0.113454
H	-0.1388658414	 1.9374561338	 1.0300123538	 0.116562
H	-0.863079622	-0.3646652808	-1.9414691182	 0.091957
H	 0.8084422501	-0.9722794626	-1.875249388	 0.080109
H	-1.5600073588	-2.4638019637	-0.8441318071	 0.060812
H	 0.0895689477	-3.7377882487	 0.5951753317	 0.091946
H	 0.9030927706	-3.4558167316	-0.9487598314	 0.090109
H	 1.915219329	-2.5533973723	 1.5386849707	 0.090034
H	 2.3202432193	-1.7604548156	 0.0247586911	 0.095095
H	 2.0211845003	 0.3281903427	 2.3372111747	 0.114705
H	 0.3170992953	 0.5914833988	 2.7238688555	 0.115566
H	 1.1089624163	-0.9062775908	 3.2127032892	 0.113475
H	-1.6285048121	-0.9226361666	 1.4478103006	 0.072308
161.9418	185.2679	202.1503	212.7533	285.5137	318.2404	350.3421	394.9327	430.2632	561.2047	587.9476	679.9643	701.7386	752.1702	837.1622	863.7249	876.1392	892.4588	933.5986	939.9694	952.2876	967.0775	985.5791	1025.5622	1042.7752	1069.634	1115.218	1128.5605	1169.0525	1171.525	1191.1326	1212.0997	1227.5381	1240.3462	1262.3068	1282.9047	1315.5402	1337.1911	1349.6057	1407.3219	1421.5359	1423.2382	1483.8391	1486.3296	1489.908	1492.6366	1499.3176	1508.8739	1516.2453	3016.4109	3019.3327	3023.4411	3029.0761	3037.8839	3063.6293	3070.4568	3075.9277	3076.8531	3082.6646	3102.4418	3106.2903	3114.0884	3180.4215
CC12CC3CCC1(C)C23	C[C@@]12C[C@H]3CC[C@]1(C)[C@@H]23	
InChI=1S/C9H14/c1-8-4-3-6-5-9(8,2)7(6)8/h6-7H,3-5H2,1-2H3	InChI=1S/C9H14/c1-8-4-3-6-5-9(8,2)7(6)8/h6-7H,3-5H2,1-2H3/t6-,7+,8-,9+/m1/s1
