17
gdb 86833	2.85434	1.25529	1.03477	3.4962	73.92	-0.2818	0.003	0.2848	1181.6221	0.136769	-418.04576	-418.037356	-418.036412	-418.079191	30.956	
C	-0.1681546921	 1.5621798264	-0.0046260549	-0.403607
C	 0.0659048936	 0.0551420428	 0.0316636031	-0.081908
C	 0.9081822781	-0.5285288208	-1.1141105497	-0.25304
C	 1.4943103264	-1.800167509	-0.4664851374	-0.054568
O	 1.6289862385	-1.4869318961	 0.9255176848	-0.235887
C	 0.8282819711	-0.4127750665	 1.2569860302	 0.429358
N	 0.7664076681	 0.0887830437	 2.4087874678	-0.531997
C	 0.6212960449	-2.9754247479	-0.6384692758	 0.283114
N	-0.0650308358	-3.891529368	-0.7938193469	-0.312443
H	 0.7812879489	 2.1034673276	-0.0641763377	 0.123631
H	-0.779854058	 1.8411722346	-0.867424788	 0.118542
H	-0.677247175	 1.8817082489	 0.9071224728	 0.153192
H	-0.9044443566	-0.4604154561	 0.0505198527	 0.126995
H	 0.3416444937	-0.7427426057	-2.0208739983	 0.13815
H	 1.7306173143	 0.148004316	-1.3672627067	 0.125183
H	 2.4880292329	-2.0521761306	-0.8459042055	 0.143336
H	 1.363588507	-0.4135674893	 3.0667930495	 0.23195
77.6327	84.6533	191.7889	218.1437	259.3958	275.5634	360.9726	444.7734	473.6885	563.598	602.2649	671.7288	769.1056	777.6491	824.6296	894.7613	921.7019	947.2568	978.2293	1024.9499	1041.9195	1098.5163	1129.0006	1140.1174	1210.4424	1253.1996	1277.0122	1321.647	1323.959	1369.5766	1382.4813	1413.4844	1488.6628	1494.1103	1498.115	1790.6342	2360.3953	3017.0716	3044.9368	3062.5191	3085.2821	3113.398	3134.683	3136.1483	3484.8321
CC1CC(OC1=N)C#N	C[C@H]1C[C@@H](O[C]1[NH])C#N	
InChI=1S/C6H8N2O/c1-4-2-5(3-7)9-6(4)8/h4-5,8H,2H2,1H3	InChI=1S/C6H8N2O/c1-4-2-5(3-7)9-6(4)8/h4-5,8H,2H2,1H3/t4-,5+/m0/s1
