22
gdb 57362	2.06091	1.54751	1.19329	1.9372	87.65	-0.2425	0.0438	0.2862	1183.6027	0.191142	-367.156904	-367.146582	-367.145638	-367.191508	39.925	
C	-0.3880475406	 1.5017981331	-0.0754270318	-0.438728
C	-0.0065467626	 0.0118486227	 0.0000641985	 0.16565
C	 0.9322478056	-0.1993335072	 1.2055302672	-0.405365
C	-1.2952932696	-0.8123413547	 0.1902162127	-0.40958
C	 0.7198100038	-0.4854043611	-1.2774203897	 0.101942
C	 0.4734633939	 0.1336012197	-2.617565909	-0.281835
N	 1.7590628723	 0.3431758266	-1.9417834967	-0.34911
C	 1.0525952158	-1.8952098574	-1.2667426375	 0.32887
C	 1.3103538166	-3.0698411877	-1.2646055742	-0.427378
H	 0.4768877308	 2.1559004976	-0.2303082961	 0.110143
H	-1.1212930057	 1.7046530666	-0.8610929533	 0.119271
H	-0.8409615151	 1.8029423263	 0.8741083178	 0.120813
H	 0.4367221126	 0.1014392552	 2.1343028266	 0.107658
H	 1.2234008512	-1.2488260258	 1.2975668684	 0.1318
H	 1.8470361297	 0.3942749148	 1.103332268	 0.112639
H	-1.9785689596	-0.6736187374	-0.6544328626	 0.111513
H	-1.0743223766	-1.879105922	 0.2735922843	 0.131498
H	-1.8162536702	-0.4991153616	 1.1010325992	 0.107736
H	 0.5206092094	-0.4954796278	-3.5011574537	 0.127171
H	-0.2275332707	 0.9594166714	-2.6830992752	 0.113875
H	 1.7742568213	 1.2660433107	-1.5146023566	 0.230084
H	 1.5502745376	-4.1042654521	-1.2676036363	 0.191332
41.3999	153.7746	190.2306	197.5721	259.0925	269.2989	280.4326	304.4785	315.6346	374.7182	382.9781	443.3075	453.0412	549.5583	589.0106	602.7757	608.6592	647.8242	803.5927	858.612	891.2786	931.9836	934.8661	941.0032	963.9001	981.468	1023.0587	1048.1075	1077.368	1131.6006	1210.7414	1233.3245	1239.5098	1267.1991	1308.5356	1336.5021	1400.4271	1403.4987	1433.9988	1479.4019	1483.7029	1489.7962	1500.564	1503.1906	1516.2634	1522.0749	2233.5664	3032.1661	3032.5625	3039.2717	3095.5301	3097.4378	3101.6632	3108.6567	3119.2148	3123.1579	3125.015	3209.2719	3501.2611	3503.3006
CC(C)(C)C1(CN1)C#C	CC(C)(C)[C@]1(CN1)C#C	
InChI=1S/C8H13N/c1-5-8(6-9-8)7(2,3)4/h1,9H,6H2,2-4H3	InChI=1S/C8H13N/c1-5-8(6-9-8)7(2,3)4/h1,9H,6H2,2-4H3/t8-/m1/s1
