19
gdb 43094	3.02272	1.88939	1.63655	3.0437	77.15	-0.2273	0.001	0.2282	894.1717	0.164085	-385.910135	-385.904036	-385.903092	-385.940287	26.748	
O	 0.0029119303	 0.0278611664	-0.0052367021	-0.344455
C	-0.0157200237	 1.2258007076	 0.0080390887	 0.446741
C	-1.1768968924	 2.2307010875	 0.0496591587	-0.144688
C	-0.790775647	 2.7458074518	 1.4682123008	-0.221283
C	 0.5403992043	 3.383130662	 0.9905732281	-0.041642
C	-0.0657706473	 4.442692518	 0.0429766573	-0.203425
C	-0.6390176334	 3.3856304718	-0.92762298	-0.041639
C	 0.7111650111	 2.800543065	-1.4185563985	-0.221277
C	 1.1136159917	 2.2670074255	-0.0113985528	-0.144692
H	-2.1809171646	 1.846469677	-0.1109014922	 0.080861
H	-1.4818135769	 3.4785264901	 1.8916229099	 0.100964
H	-0.674596867	 1.9236167872	 2.1823285683	 0.112808
H	 1.2336486704	 3.7226704014	 1.7587262338	 0.069653
H	-0.809068667	 5.0655535685	 0.5466271219	 0.093888
H	 0.6576285111	 5.0991637335	-0.4467689331	 0.093889
H	-1.3427544835	 3.7200555996	-1.6884484142	 0.069654
H	 0.6203607309	 1.9908407728	-2.1503998193	 0.112819
H	 1.3789277889	 3.5634238731	-1.8257327862	 0.100965
H	 2.1291599741	 1.910800411	 0.1411037908	 0.080861
163.6648	302.9084	450.8313	468.4248	505.3677	548.496	625.6436	739.6036	741.2186	770.6154	816.929	820.1527	883.1334	885.0921	907.6259	909.6799	918.9612	942.5359	943.2383	975.5371	1017.7203	1043.549	1088.9934	1099.1924	1130.8361	1137.8873	1155.8013	1182.5966	1189.7056	1213.0988	1236.5232	1267.5305	1267.9379	1279.637	1303.3875	1310.6193	1326.1511	1492.9333	1511.4134	1533.737	1878.7402	3049.44	3049.6251	3062.9529	3098.2207	3102.8511	3111.0909	3124.6519	3126.9422	3154.7809	3156.7111
O=C1C2CC3CC2CC13	O=C1[C@H]2C[C@@H]3C[C@H]2C[C@H]13	
InChI=1S/C8H10O/c9-8-6-2-4-1-5(6)3-7(4)8/h4-7H,1-3H2	InChI=1S/C8H10O/c9-8-6-2-4-1-5(6)3-7(4)8/h4-7H,1-3H2/t4-,5-,6-,7-/m0/s1
