16
gdb 54855	3.17886	1.38822	1.27757	3.8587	64.48	-0.2401	0.0272	0.2673	1015.492	0.125279	-475.022773	-475.014999	-475.014055	-475.055684	29.135	
N	 0.5110724969	 0.5077538811	-0.7494824565	-0.53756
C	-0.0344052243	 0.0552988753	 0.4088166342	 0.412446
O	 0.3356382204	 0.4128636661	 1.5105672874	-0.374558
C	-1.1763517751	-0.9297538019	 0.2782425345	-0.183853
C	-1.7835816864	-1.4964636631	-0.9951934738	 0.007785
O	-1.0287830389	-1.3674124592	-2.1882409357	-0.265768
C	-0.1158634788	-2.4633711421	-2.1678571951	 0.017392
O	 0.1807250096	-2.71992959	-0.8119570911	-0.239874
C	-0.9914743615	-2.3933019889	-0.1024980725	 0.039744
H	 1.2590034874	 1.1780312101	-0.6856508106	 0.256628
H	 0.1419744084	 0.222259646	-1.6423648527	 0.270227
H	-1.8891325841	-0.7929189609	 1.0861213361	 0.12355
H	-2.8568382489	-1.537976711	-1.1420957287	 0.119756
H	-0.5817069977	-3.3421996353	-2.642393358	 0.105565
H	 0.8003137211	-2.1770383649	-2.6898907121	 0.129557
H	-1.3968106281	-3.1885299214	 0.5125289447	 0.118962
48.1259	134.1374	167.6663	268.9826	328.7766	347.7913	437.5671	497.5206	636.301	680.7682	718.0396	744.1763	770.9762	780.4085	805.8975	909.546	950.4048	997.951	1027.4902	1061.7544	1080.6097	1097.3634	1112.0463	1135.8992	1164.6034	1197.5639	1227.7976	1301.6094	1316.9918	1385.8394	1395.6586	1424.396	1534.6068	1610.4871	1793.9096	2975.7282	3107.5271	3163.3238	3171.6251	3182.6825	3573.7133	3722.7894
NC(=O)C1C2OCOC12	NC(=O)[C@H]1[C@H]2OCO[C@@H]12	
InChI=1S/C5H7NO3/c6-5(7)2-3-4(2)9-1-8-3/h2-4H,1H2,(H2,6,7)	InChI=1S/C5H7NO3/c6-5(7)2-3-4(2)9-1-8-3/h2-4H,1H2,(H2,6,7)/t2-,3+,4-
