25
gdb 113435	4.06891	0.79042	0.74256	0.1584	94.74	-0.2504	0.09	0.3404	1700.9275	0.228185	-352.344752	-352.334661	-352.333717	-352.379948	38.477	
C	-0.1102235488	 1.6288106928	-1.0873121183	-0.369767
C	-0.0758196242	 0.4648073244	-0.0902112401	-0.194344
C	-1.4036168187	-0.2559848447	 0.0252383159	-0.061788
C	-1.7752692314	-1.3441182227	-0.962507483	-0.351028
C	-1.47963668	-1.6846474522	 0.4727700151	 0.368638
C	-0.3544999304	-2.6131455911	 0.953688935	-0.310506
C	-1.4423373573	-3.4998578224	 1.6352852978	 0.06275
C	-1.1795200642	-4.0197994062	 3.0397217735	-0.406135
C	-2.4656779294	-2.3370027417	 1.4501831131	-0.316109
H	 0.8612608498	 2.1294683418	-1.1503074227	 0.107268
H	-0.3764618984	 1.2782071157	-2.0899530635	 0.116887
H	-0.8529908028	 2.3783912565	-0.7923996181	 0.111999
H	 0.6982348224	-0.2525253288	-0.3905635526	 0.094011
H	 0.2254597008	 0.8389194347	 0.8976972395	 0.092844
H	-2.2276098913	 0.3781057521	 0.3511471875	 0.072647
H	-2.8027387912	-1.4058472057	-1.3085199028	 0.103558
H	-1.0363175322	-1.6175986095	-1.7115095311	 0.103139
H	 0.2712773573	-3.0882496433	 0.1928489085	 0.09305
H	 0.2999776852	-2.133699924	 1.6914717621	 0.09309
H	-1.7064511493	-4.3319222394	 0.9740215145	 0.071189
H	-0.9123987738	-3.2011513881	 3.7182805652	 0.109818
H	-2.0639966899	-4.5182669479	 3.4526049042	 0.11207
H	-0.3554879641	-4.7423920185	 3.0504663923	 0.111959
H	-2.5921593222	-1.754207031	 2.3705485317	 0.091682
H	-3.4562586159	-2.598319701	 1.0663308464	 0.093078
51.861	86.6556	125.1371	172.7141	236.0855	249.7284	275.4087	292.4471	337.8277	392.4589	424.3739	445.7251	589.0672	713.2294	769.9442	801.9463	832.8105	869.3364	894.2997	897.6782	919.4546	939.2618	952.3991	975.0435	1028.1469	1043.1048	1068.7787	1080.3543	1108.6312	1126.9129	1134.8162	1164.2253	1188.405	1222.3782	1232.9251	1235.7111	1259.5571	1286.9537	1295.9953	1327.0364	1357.3955	1374.4442	1409.2654	1411.2309	1433.4457	1475.3272	1483.0899	1493.501	1497.1619	1497.7966	1499.177	1500.008	1507.7892	3012.251	3020.1198	3026.8399	3030.3815	3032.3946	3042.7091	3046.4591	3083.111	3084.6567	3088.1502	3093.6021	3096.7988	3102.9758	3108.8489	3110.2147	3193.7516
CCC1CC11CC(C)C1	CC[C@H]1C[C@]21C[C@@H](C)C2	
InChI=1S/C9H16/c1-3-8-6-9(8)4-7(2)5-9/h7-8H,3-6H2,1-2H3	InChI=1S/C9H16/c1-3-8-6-9(8)4-7(2)5-9/h7-8H,3-6H2,1-2H3/t7-,8-,9+/m0/s1
