21
gdb 112610	2.95275	0.98218	0.91872	2.1663	74.71	-0.2508	0.0601	0.3108	1380.8674	0.181123	-461.346282	-461.336464	-461.335519	-461.381257	36.586	
C	 0.3171318824	 1.3469767564	 0.1119809129	-0.441255
C	-0.0651469465	-0.1055933239	-0.1046993623	 0.413048
C	-1.554651461	-0.3616637407	 0.1398009407	-0.091569
O	-1.876215145	-0.162379645	 1.5005385036	-0.420586
C	 0.5192948013	-0.8281378781	-1.3415644694	-0.385641
C	 1.1816109021	-1.7755373306	-0.3239806889	 0.135099
C	 2.6979719024	-1.8342063922	-0.2720046397	-0.06851
O	 3.1329583106	-2.3966024081	 0.9488587502	-0.419724
O	 0.6812121916	-0.9939964674	 0.7978092185	-0.368808
H	 1.4016182064	 1.4755330319	 0.0654424047	 0.116297
H	-0.1417827248	 1.9771838151	-0.657859946	 0.118576
H	-0.0394183973	 1.6849177285	 1.088610476	 0.139688
H	-2.1666015101	 0.3342832642	-0.4449863624	 0.10761
H	-1.8041176632	-1.3846142419	-0.185412168	 0.081757
H	-1.2466359481	-0.7052034228	 1.9929742801	 0.290775
H	-0.2114245946	-1.2791183691	-2.0153386798	 0.111934
H	 1.2242588455	-0.2285073063	-1.9221871226	 0.110111
H	 0.7695813376	-2.7916978428	-0.2952799328	 0.085938
H	 3.0803721969	-2.4709049282	-1.0781239439	 0.109264
H	 3.1063214382	-0.8206687778	-0.4193809849	 0.083166
H	 2.6999304555	-1.8853290714	 1.643550564	 0.292832
56.5052	89.3352	129.9318	163.6283	230.3527	260.6661	305.9283	335.9529	366.6717	450.2111	455.61	469.93	498.0003	547.6287	680.0993	800.0143	867.0196	894.2616	910.7736	924.233	970.07	991.7862	1026.3705	1055.6113	1077.0902	1094.9803	1142.1054	1157.6767	1202.9399	1226.6553	1231.7243	1271.1982	1298.8244	1307.0444	1349.4629	1382.0174	1397.4036	1410.5485	1428.9186	1437.6226	1479.7618	1491.1957	1494.4711	1498.727	1501.8106	2968.987	2972.3035	3031.7482	3039.2925	3067.974	3068.4371	3070.5843	3111.2501	3124.9471	3129.1021	3770.2875	3786.2484
CC1(CO)CC(CO)O1	C[C@@]1(CO)C[C@@H](CO)O1	
InChI=1S/C6H12O3/c1-6(4-8)2-5(3-7)9-6/h5,7-8H,2-4H2,1H3	InChI=1S/C6H12O3/c1-6(4-8)2-5(3-7)9-6/h5,7-8H,2-4H2,1H3/t5-,6-/m0/s1
