15
gdb 43540	2.65719	1.42353	1.04217	2.8156	72.71	-0.2475	-0.0464	0.2011	1115.7705	0.109697	-420.569544	-420.561222	-420.560278	-420.602802	30.78	
O	 0.0454508537	 0.3729287924	-1.2824299409	-0.292012
C	 0.008583437	 1.2662743784	-0.4906724922	 0.333022
C	-1.1016401526	 1.9167632017	 0.3625639949	-0.368863
C	-0.1069056465	 3.0824686474	 0.7146132937	-0.293434
C	 0.0502233678	 3.447042013	 2.1061152167	 0.316424
C	 0.196275479	 3.7344650301	 3.2646396121	-0.44423
C	 1.0308669657	 2.256035624	 0.0512199368	 0.337846
C	 2.3812129724	 1.9677758376	 0.556484388	-0.243359
O	 2.1609259295	 2.7665216131	-0.6078257472	-0.253973
H	-2.0046251005	 2.2015864139	-0.180307933	 0.146088
H	-1.377263842	 1.3052413109	 1.2254032043	 0.149589
H	-0.3194548093	 3.9662437883	 0.1045811615	 0.129102
H	 0.3142713969	 3.9964610639	 4.2870859905	 0.203297
H	 2.722765536	 2.5050380166	 1.4388740658	 0.141463
H	 2.8200446731	 0.9888327588	 0.374564249	 0.139042
61.9162	121.7087	188.4679	204.8017	243.4397	322.5943	404.1322	480.8136	514.0546	592.9079	620.0859	629.9361	636.2725	693.0483	794.771	838.6231	914.6168	927.1518	1013.6236	1033.6501	1058.3075	1088.3455	1133.7192	1145.07	1163.7269	1206.4546	1219.1236	1338.8899	1401.5471	1439.2916	1515.8397	1899.3648	2236.7257	3061.2065	3077.8897	3094.3444	3138.3873	3195.0936	3501.5977
O=C1CC(C#C)C11CO1	O=C1C[C@@H](C#C)[C@]21CO2	
InChI=1S/C7H6O2/c1-2-5-3-6(8)7(5)4-9-7/h1,5H,3-4H2	InChI=1S/C7H6O2/c1-2-5-3-6(8)7(5)4-9-7/h1,5H,3-4H2/t5-,7+/m1/s1
