14
gdb 42517	3.84103	1.02827	0.88102	4.1543	74.84	-0.2653	-0.0565	0.2089	1254.8487	0.09895	-399.528531	-399.520023	-399.519079	-399.562669	30.364	
O	 0.3103286901	 0.2866226231	-0.9965673639	-0.251178
C	 0.285430564	 1.3318636471	-0.4383993231	 0.403041
C	-0.8158862581	 2.3742565215	-0.1063810404	-0.284206
C	 0.3295015154	 3.4104397156	 0.1690967027	-0.257254
C	 1.4081946874	 2.2755550254	 0.1264403093	-0.278643
C	 1.9380965206	 1.863830352	 1.4121090987	 0.276532
N	 2.3294017292	 1.5341821684	 2.4493290072	-0.3119
C	-1.8266427276	 2.660024837	-1.0958885121	 0.304554
C	-2.6444714897	 2.9008620817	-1.9426843256	-0.414768
H	-1.2737857599	 2.067168034	 0.8440218667	 0.15777
H	 0.455056948	 4.111618937	-0.6555442666	 0.142344
H	 0.2525108061	 3.9523971499	 1.1096752083	 0.145746
H	 2.2242735344	 2.4260113834	-0.5853130483	 0.157926
H	-3.3743560799	 3.108865954	-2.6858981729	 0.210034
34.8824	112.6422	134.3069	169.2801	234.7428	365.0617	419.2479	442.31	467.5238	549.2661	632.1312	651.7329	660.8465	724.9202	768.3284	803.0243	908.0726	952.2977	1024.3268	1061.0083	1087.4895	1105.6172	1162.6079	1201.6477	1253.5072	1298.6205	1318.1975	1484.8164	1922.2572	2241.2147	2352.8194	3023.7547	3086.2529	3105.7026	3171.7667	3501.8937
O=C1C(CC1C#N)C#C	O=C1[C@@H](C[C@H]1C#N)C#C	
InChI=1S/C7H5NO/c1-2-5-3-6(4-8)7(5)9/h1,5-6H,3H2	InChI=1S/C7H5NO/c1-2-5-3-6(4-8)7(5)9/h1,5-6H,3H2/t5-,6+/m1/s1
