18
gdb 63027	2.25523	1.7989	1.40612	2.6467	71.09	-0.2352	-0.0209	0.2143	998.2571	0.147147	-439.090599	-439.082221	-439.081277	-439.123298	32.553	
C	 0.1463573618	 1.5793238881	-0.0606918637	-0.448486
C	 0.0673936061	 0.061415848	-0.0181199345	 0.3171
O	-1.283373012	-0.4093438935	 0.0549116317	-0.480468
C	 0.7041872694	-0.661693651	-1.1845642407	-0.075794
N	 2.1700939508	-0.5157023421	-1.1869788398	-0.346959
C	 1.5669313131	-1.7712024517	-0.6937386547	-0.042768
C	 1.5352003078	-1.8245586634	 0.8163779824	-0.324238
C	 0.7981278561	-0.5416325826	 1.2192924172	 0.355926
O	 0.7083382877	-0.0884634379	 2.3306334808	-0.329099
H	 1.1731364669	 1.9007060189	-0.253231797	 0.140361
H	-0.5065360788	 1.9678178661	-0.8477079517	 0.115986
H	-0.1662746524	 1.9947637663	 0.9029495806	 0.126729
H	-1.6747885812	-0.0216316434	 0.8467505343	 0.288802
H	 0.1560200575	-0.7271497446	-2.1182217062	 0.096827
H	 2.5283837815	-0.6434946845	-2.1293018619	 0.238466
H	 1.6922275436	-2.6799073844	-1.2718928548	 0.094854
H	 0.9624396888	-2.6867169702	 1.1789683022	 0.135579
H	 2.5232555333	-1.8565585381	 1.2829181957	 0.137182
68.4068	199.6383	207.34	241.5742	289.0846	334.9526	360.6346	375.6463	476.5655	505.1898	581.0574	602.8967	674.6963	707.5642	838.0501	850.9854	871.438	914.6672	938.5117	969.2446	999.2635	1059.7888	1069.4732	1117.3627	1128.8208	1136.3265	1170.7965	1188.3387	1222.1016	1248.0657	1296.3939	1347.5413	1394.6787	1404.8129	1435.9614	1440.8204	1487.7361	1497.907	1845.4185	3039.4618	3047.4444	3104.9076	3112.3835	3128.5505	3169.0461	3178.8177	3515.1633	3794.3282
CC1(O)C2NC2CC1=O	C[C@@]1(O)[C@H]2N[C@H]2CC1=O	
InChI=1S/C6H9NO2/c1-6(9)4(8)2-3-5(6)7-3/h3,5,7,9H,2H2,1H3	InChI=1S/C6H9NO2/c1-6(9)4(8)2-3-5(6)7-3/h3,5,7,9H,2H2,1H3/t3-,5-,6-/m0/s1
