18
gdb 108359	2.64343	1.67384	1.31237	2.4504	70.87	-0.2249	0.0546	0.2795	1010.4801	0.147768	-438.991965	-438.984117	-438.983172	-439.024311	30.548	
O	 0.0333395185	 1.3878957599	-0.1129330006	-0.422948
C	-0.0020033128	-0.0268367754	 0.0024374697	-0.185038
C	-1.4412887053	-0.4713337407	-0.056045412	 0.479372
O	-1.5684969934	-1.9027241614	 0.0155883697	-0.337691
C	-2.4393682025	-1.9278436841	-1.1500871794	-0.09501
C	-2.3673276542	-0.3913542379	-1.293342208	-0.149779
C	-3.3581859093	 0.4493547806	-0.45374722	-0.051933
N	-3.7644982578	-0.3711882475	 0.7079354057	-0.334889
C	-2.4795190351	 0.3641001088	 0.7494483676	-0.105303
H	 0.9495618039	 1.6710946773	-0.0475663684	 0.293138
H	 0.5584757521	-0.519613525	-0.8059637935	 0.096381
H	 0.4239684644	-0.3724051793	 0.9592179334	 0.099309
H	-1.9734069753	-2.4836699659	-1.9721247616	 0.093283
H	-3.4204392483	-2.3457883336	-0.9122682779	 0.119505
H	-2.037354535	 0.0451083126	-2.234074099	 0.086268
H	-3.9760619453	 1.2647904143	-0.8078685967	 0.092574
H	-4.4333425005	 0.1789169928	 1.2457301616	 0.230881
H	-2.2734184042	 1.0923441045	 1.5236877694	 0.091881
84.543	153.171	227.7866	252.4664	279.9814	318.3488	426.0976	468.8099	567.7788	627.5455	720.8182	793.6521	815.9834	835.7527	870.0264	915.8196	929.261	966.8345	985.0145	1005.2338	1053.7601	1059.2808	1064.9112	1088.6902	1104.8306	1138.4873	1143.792	1167.9901	1220.7508	1232.5489	1254.8493	1287.8632	1325.1758	1330.2552	1341.0338	1384.6305	1463.6943	1499.4782	1512.5854	2967.0161	3008.4164	3029.0766	3103.0618	3134.6842	3187.1517	3199.801	3476.9058	3836.9345
OCC12OCC1C1NC21	OC[C@]12OC[C@H]1[C@H]1N[C@@H]21	
InChI=1S/C6H9NO2/c8-2-6-3(1-9-6)4-5(6)7-4/h3-5,7-8H,1-2H2	InChI=1S/C6H9NO2/c8-2-6-3(1-9-6)4-5(6)7-4/h3-5,7-8H,1-2H2/t3-,4+,5+,6-/m0/s1
