13
gdb 19351	5.68616	1.63676	1.49827	5.0208	59.27	-0.2378	-0.0472	0.1906	816.4162	0.093798	-398.491058	-398.484565	-398.483621	-398.521818	24.381	
O	-0.2333242896	 0.3478881828	-0.8637769588	-0.253679
C	 0.0351950947	 1.1063856394	 0.0331694219	 0.055706
C	 1.2821937435	 1.8918177643	 0.1292995917	 0.335074
O	 2.1396318234	 2.034708712	-1.0000367038	-0.22354
C	 2.690471303	 1.40978615	 0.1321993363	-0.018994
C	 3.0644596028	 2.4840691022	 1.2136288546	-0.095169
N	 2.7358387912	 3.8134379957	 0.6487192717	-0.304808
C	 1.6674240967	 2.965753458	 1.2158218044	-0.165972
H	-0.6515411711	 1.2616561818	 0.8961952016	 0.076494
H	 3.069438217	 0.3990080612	 0.0370486266	 0.133434
H	 3.7619565322	 2.3487700235	 2.0283781793	 0.110414
H	 2.9764784345	 4.4999372066	 1.3645363261	 0.240206
H	 1.0370770017	 3.2795942124	 2.0369815384	 0.110835
99.8615	189.3343	213.2886	386.5475	427.3163	464.3691	655.8762	743.4885	755.83	789.2105	813.2825	848.7904	869.2037	901.9295	920.6196	976.442	1030.6378	1039.5783	1077.3775	1095.9284	1133.456	1212.4115	1277.1667	1288.9484	1343.6037	1406.8777	1433.9868	1813.7794	2872.6317	3193.7524	3205.748	3220.4864	3470.9566
O=CC12OC1C1NC21	O=C[C@]12O[C@H]1[C@H]1N[C@@H]21	
InChI=1S/C5H5NO2/c7-1-5-3-2(6-3)4(5)8-5/h1-4,6H	InChI=1S/C5H5NO2/c7-1-5-3-2(6-3)4(5)8-5/h1-4,6H/t2-,3+,4-,5+/m0/s1
