18
gdb 55128	2.63765	1.44303	1.13065	3.4454	71.58	-0.2382	0.0284	0.2665	1109.8343	0.146874	-439.085856	-439.076864	-439.07592	-439.120029	33.694	
N	 0.1125419686	 1.1942683665	-0.3825934013	-0.526147
C	 0.0286664361	-0.0167193385	 0.2367275432	 0.38745
O	 0.9257677254	-0.465391529	 0.9300618982	-0.377772
C	-1.2611805579	-0.7922033365	 0.032750822	-0.18077
C	-2.0488789129	-0.8529917268	-1.3261233652	-0.273382
C	-1.9105333241	-2.3827521766	-1.3053723557	-0.11378
C	-0.4383646537	-2.7358654964	-1.3116616501	-0.337037
C	-1.0912241078	-2.3100387983	-0.0261464629	 0.435778
O	-1.1490467106	-3.1197513524	 1.0873636741	-0.468928
H	 0.9250600398	 1.7657992055	-0.2166314045	 0.260735
H	-0.6501207819	 1.5759471358	-0.9133550751	 0.262012
H	-1.9427639946	-0.5262026064	 0.8478811992	 0.112763
H	-3.0758130089	-0.4940214227	-1.2333854302	 0.10856
H	-1.5752352389	-0.360123943	-2.1823803939	 0.09559
H	-2.6770288876	-3.0880277672	-1.5995165506	 0.096716
H	-0.2294140937	-3.7998610846	-1.3489707132	 0.117224
H	 0.2836717364	-2.110480543	-1.8332003181	 0.106073
H	-0.3053252739	-3.0124717964	 1.545048454	 0.294915
39.9433	111.6168	136.0815	178.8192	275.9705	310.7772	376.1777	409.1452	443.1355	482.5683	489.3141	608.2486	657.5433	678.5533	740.4571	808.8567	851.9608	891.4846	949.1653	989.726	1011.4155	1022.079	1028.1937	1069.1646	1084.2746	1094.4861	1157.598	1183.4007	1219.2714	1238.3822	1288.1779	1306.2774	1331.8192	1376.0871	1420.3883	1482.7504	1510.6723	1614.6077	1777.1381	3039.8616	3056.4824	3102.5244	3108.0843	3195.9415	3207.1483	3600.5252	3739.4868	3774.5007
NC(=O)C1CC2CC12O	NC(=O)[C@H]1C[C@H]2C[C@@]12O	
InChI=1S/C6H9NO2/c7-5(8)4-1-3-2-6(3,4)9/h3-4,9H,1-2H2,(H2,7,8)	InChI=1S/C6H9NO2/c7-5(8)4-1-3-2-6(3,4)9/h3-4,9H,1-2H2,(H2,7,8)/t3-,4+,6-/m0/s1
