18
gdb 111828	2.9602	1.3913	1.12556	3.914	71.61	-0.2466	-0.0117	0.2349	1108.4266	0.148996	-439.067203	-439.0592	-439.058256	-439.100032	30.169	
O	-0.1151748596	 1.5625394503	 0.0780838035	-0.419536
C	 0.0394347124	 0.2087983456	-0.2909950086	-0.079982
C	-1.295001185	-0.5283442121	-0.1482594855	-0.165136
C	-1.4292754127	-2.0767516971	-0.0851794494	-0.014209
C	-0.3409823367	-2.9639211271	 0.5934591341	-0.257116
C	-1.1930638077	-2.9190836305	 1.8979408268	-0.185064
N	-2.1374160807	-1.9506764055	 1.2456543288	-0.131247
C	-1.7795237688	-0.5872685641	 1.3116875716	 0.386643
O	-1.7041696991	 0.1700426416	 2.2447512009	-0.350729
H	-0.4813641392	 1.5659564455	 0.9737074399	 0.300379
H	 0.3797651322	 0.1954561258	-1.3316008507	 0.113638
H	 0.81456968	-0.2871913726	 0.3141117557	 0.088581
H	-2.0254907562	-0.0822426521	-0.8295817856	 0.118304
H	-1.9921473139	-2.5496514811	-0.8916525144	 0.09172
H	-0.2187799667	-3.9521165809	 0.1472550987	 0.119677
H	 0.642653358	-2.498880107	 0.6841833382	 0.123124
H	-1.6931755675	-3.8572732472	 2.1470844075	 0.12501
H	-0.7194172588	-2.5130057216	 2.7946822386	 0.135942
93.1987	124.6372	160.9945	205.6766	238.6674	357.715	435.2668	519.8208	526.0077	656.9194	707.9857	739.5763	796.5202	820.6561	861.0763	895.1445	961.2729	978.2002	1003.8533	1023.425	1070.3756	1090.9544	1134.7097	1139.6843	1176.7572	1193.9506	1215.3629	1240.6424	1241.7982	1261.9188	1303.5319	1319.3906	1344.1105	1388.2391	1450.5713	1482.7114	1508.2171	1514.8577	1849.5223	2977.7872	3066.1928	3069.547	3077.6217	3079.7665	3095.7439	3119.2668	3138.7865	3743.1218
OCC1C2CCN2C1=O	OC[C@H]1[C@H]2CCN2C1=O	
InChI=1S/C6H9NO2/c8-3-4-5-1-2-7(5)6(4)9/h4-5,8H,1-3H2	InChI=1S/C6H9NO2/c8-3-4-5-1-2-7(5)6(4)9/h4-5,8H,1-3H2/t4-,5+/m0/s1
