16
gdb 49164	4.13023	1.29098	1.15781	3.8398	71.11	-0.2596	-0.0677	0.1919	1058.7501	0.126001	-437.885912	-437.878982	-437.878038	-437.917434	26.966	
O	-0.8689600302	 1.2631222901	 0.0358417484	-0.246221
C	 0.2549847015	 0.902790453	-0.1951327063	 0.112433
C	 1.4616643846	 1.7824668247	-0.1089586647	 0.285666
N	 2.6091117636	 1.2903649071	-0.3757067119	-0.284352
C	 3.6992979308	 2.2595535064	-0.2508159178	 0.006301
C	 3.5156862827	 3.0396993693	 1.0889098339	-0.245318
C	 2.4386353864	 3.839107781	 0.316495459	 0.11191
C	 3.2699057594	 3.5806214761	-0.9634632133	-0.245344
O	 1.2237539024	 3.0598305866	 0.2563130133	-0.255154
H	 0.5204401747	-0.1287248493	-0.4993580721	 0.10703
H	 4.6546436234	 1.794388037	-0.4877797852	 0.085216
H	 3.2043021005	 2.4751613374	 1.9694184662	 0.118878
H	 4.378998959	 3.6669741404	 1.3172976279	 0.116068
H	 2.1409917167	 4.8419528422	 0.6165625714	 0.097947
H	 4.0964087333	 4.2887990847	-1.0426529058	 0.116053
H	 2.7389363412	 3.4983623133	-1.9133308129	 0.118887
93.9365	200.7473	209.4679	361.2172	404.5741	472.1143	487.2143	526.7884	671.6093	714.8468	818.7424	837.4374	870.8241	879.6908	898.0051	957.548	977.8667	998.4439	1031.6733	1054.2111	1068.5849	1126.1944	1170.2632	1184.8933	1234.7717	1250.6904	1274.189	1285.7331	1350.8091	1382.0016	1390.4811	1466.4062	1495.0035	1683.3448	1824.582	2951.7273	3075.2429	3079.8436	3123.433	3136.9752	3141.5559	3144.5623
O=CC1=NC2CC(C2)O1	O=C[C]1[N][C@@H]2C[C@@H](C2)O1	
InChI=1S/C6H7NO2/c8-3-6-7-4-1-5(2-4)9-6/h3-5H,1-2H2	InChI=1S/C6H7NO2/c8-3-6-7-4-1-5(2-4)9-6/h3-5H,1-2H2/t4-,5+
