19
gdb 36327	5.39917	0.74687	0.69356	0.5243	88.42	-0.2559	0.0433	0.2993	1604.5821	0.15707	-348.67796	-348.668545	-348.667601	-348.712606	35.324	
C	-0.5878696889	-0.9641928679	-0.7067157328	-0.445584
C	-0.3695048066	 0.1933443273	-0.4666099517	 0.302598
C	-0.0679381109	 1.5876597293	-0.1643188273	-0.366391
C	 1.3289239852	 1.7762685459	 0.4531104567	 0.010944
C	 2.5034048084	 1.5324806132	-0.5346569461	-0.233555
C	 2.6359803099	 3.0802099005	-0.7278895741	-0.147447
C	 1.7640120784	 3.2651541854	 0.5587377475	-0.251721
C	 3.9595755647	 3.6654282044	-0.7559602136	 0.298009
C	 5.0648555357	 4.1405386461	-0.7570752563	-0.446722
H	-0.7939123384	-1.9832849964	-0.9218000829	 0.195761
H	-0.1522967295	 2.1846008228	-1.0828250725	 0.128181
H	-0.8227504765	 1.9873484165	 0.5255820748	 0.130177
H	 1.3817121566	 1.2061192429	 1.3831892808	 0.083914
H	 3.3835561776	 1.1189483279	-0.0386481199	 0.114508
H	 2.2887264766	 0.940244257	-1.4268286142	 0.114603
H	 2.0760966197	 3.4002981724	-1.612843561	 0.102781
H	 0.9780786509	 4.0238348825	 0.5120098043	 0.102792
H	 2.3857831471	 3.4543392429	 1.4359231014	 0.114137
H	 6.03894054	 4.5626613672	-0.7649736231	 0.193015
53.7377	74.3843	129.7897	165.1716	211.3376	321.471	336.1303	355.2727	495.2358	511.6374	527.142	612.1304	621.0302	625.6984	634.9801	638.8192	806.5167	832.2943	864.0338	909.2054	944.2461	956.796	996.3665	1016.2902	1086.6167	1093.8031	1121.4613	1177.7466	1219.3925	1248.456	1253.1945	1270.9444	1279.593	1325.8889	1354.2429	1379.4325	1469.4864	1477.1012	1496.2737	2232.4134	2237.43	3011.6731	3040.9194	3047.8442	3062.0741	3071.7614	3082.6347	3123.0188	3130.5454	3505.1195	3506.7963
C#CCC1CC(C1)C#C	C#CC[C@H]1C[C@@H](C1)C#C	
InChI=1S/C9H10/c1-3-5-9-6-8(4-2)7-9/h1-2,8-9H,5-7H2	InChI=1S/C9H10/c1-3-5-9-6-8(4-2)7-9/h1-2,8-9H,5-7H2/t8-,9-
