17
gdb 62637	2.83014	1.92191	1.67602	1.5866	65.05	-0.2357	0.0699	0.3056	871.8343	0.136284	-458.942367	-458.935218	-458.934274	-458.973415	29.188	
C	-0.06941962	 1.5433759563	 0.0267474628	-0.460108
C	-0.0017234398	 0.0205455514	-0.0076160233	 0.42351
O	-1.2829055252	-0.5636925532	-0.1375213905	-0.477618
C	 0.9195851408	-0.5648080611	-1.0705441622	-0.206409
C	 2.2851970738	-0.6078668028	-0.4013057443	 0.032146
O	 2.1464230815	-0.1065329615	 0.9209193205	-0.248651
C	 0.8309968608	-0.5970057186	 1.170825448	 0.061919
O	 0.8852240587	-1.9727860798	 0.8527043342	-0.233839
C	 1.43708393	-1.8533346472	-0.4459444743	 0.034056
H	 0.9233757875	 1.9797018473	 0.1498459247	 0.141151
H	-0.5176825395	 1.9233570676	-0.8956253132	 0.125969
H	-0.6919373329	 1.8802201829	 0.8659484796	 0.103971
H	-1.8565702949	-0.1794153765	 0.5341592255	 0.276967
H	 0.7635391743	-0.426893446	-2.1307491567	 0.10056
H	 3.2477847537	-0.4431400419	-0.8615324068	 0.11691
H	 0.5295036903	-0.4319478524	 2.2025646033	 0.092785
H	 1.651757471	-2.7833909443	-0.9496404871	 0.116681
206.7773	218.2681	234.3536	247.1336	362.3648	380.389	545.0162	581.012	609.0713	640.9451	743.8829	772.9802	800.8383	804.3314	887.8505	902.95	932.043	970.2622	998.0673	1002.671	1018.9907	1040.714	1047.0725	1088.5661	1103.8575	1118.2071	1185.2962	1197.1922	1218.5355	1240.8981	1290.2037	1335.7288	1370.4585	1398.0211	1403.5237	1491.8133	1496.764	3024.4014	3096.3067	3141.4568	3164.3289	3223.0972	3234.6775	3245.6995	3804.5479
CC1(O)C2C3OC1OC23	C[C@@]1(O)[C@H]2[C@H]3O[C@@H]1O[C@@H]23	
InChI=1S/C6H8O3/c1-6(7)2-3-4(2)9-5(6)8-3/h2-5,7H,1H3	InChI=1S/C6H8O3/c1-6(7)2-3-4(2)9-5(6)8-3/h2-5,7H,1H3/t2-,3+,4-,5+,6-/m1/s1
