25
gdb 73858	2.4278	1.21246	1.00081	0.2226	96.05	-0.2154	0.0387	0.2541	1383.1762	0.227215	-352.397723	-352.387224	-352.38628	-352.4324	40.308	
C	-0.0388362481	 1.5229561348	 0.1185618496	-0.499997
C	 0.0267490727	 0.0315727106	 0.0017733347	 0.231506
C	 0.0130059786	-0.7218109673	-1.1066664738	 0.231505
C	-0.0717382586	-0.2806737125	-2.5350855959	-0.499998
C	 0.0469178306	-2.1964678061	-0.7681102758	-0.331669
C	 0.4383141513	-2.2509375151	 0.7377107353	 0.328134
C	-0.3028785901	-3.3562054344	 1.4981284366	-0.439515
C	 1.9574117935	-2.4607120383	 0.8614555358	-0.419138
C	 0.071910453	-0.8263857295	 1.2476670413	-0.331668
H	 0.8346378874	 1.9148244959	 0.6561003477	 0.121314
H	-0.0853376251	 2.0216288044	-0.8526389399	 0.119584
H	-0.9196088523	 1.8338293714	 0.6962741108	 0.121517
H	-0.1075101641	 0.8063620574	-2.6406384169	 0.119584
H	 0.7879197691	-0.646257264	-3.1119757488	 0.121314
H	-0.9657056202	-0.6932046353	-3.0217010471	 0.121517
H	-0.939193728	-2.6525274974	-0.9448216098	 0.09114
H	 0.7531589608	-2.7565640291	-1.3960390335	 0.088222
H	-0.0552415703	-4.3467614827	 1.0993973746	 0.107724
H	-0.0371132338	-3.352964554	 2.561552199	 0.107724
H	-1.3884440136	-3.2287769743	 1.4249771396	 0.107022
H	 2.5039199842	-1.678906297	 0.323302429	 0.113089
H	 2.2750880344	-2.4336075903	 1.9098446587	 0.105863
H	 2.256928437	-3.4291044007	 0.4451880769	 0.105863
H	 0.7951087536	-0.4568948536	 1.9874234699	 0.088221
H	-0.9057398217	-0.8185975582	 1.7534067392	 0.09114
74.3056	145.3022	149.8399	174.9252	237.2436	263.713	283.4049	289.4003	298.5786	330.2379	345.3667	415.6943	457.1998	508.313	538.3427	589.3226	737.3212	795.4714	901.4612	905.2421	926.6375	948.4537	948.473	966.6545	991.3091	1027.5321	1035.5682	1067.0991	1107.5548	1138.7724	1183.9028	1185.6143	1224.582	1238.8388	1250.1706	1294.3398	1342.2224	1343.1368	1397.4712	1409.0682	1418.5167	1420.6302	1477.8238	1481.6673	1481.679	1484.0148	1485.7877	1489.8199	1493.4386	1499.937	1504.1404	1508.941	1744.3325	2985.6205	2988.0095	3010.9349	3013.307	3018.0049	3022.0996	3022.9475	3025.9294	3052.7321	3053.0033	3083.7588	3089.9922	3090.3309	3095.8958	3108.9088	3115.7747
CC1=C(C)CC(C)(C)C1	CC1=C(C)CC(C)(C)C1	
InChI=1S/C9H16/c1-7-5-9(3,4)6-8(7)2/h5-6H2,1-4H3	InChI=1S/C9H16/c1-7-5-9(3,4)6-8(7)2/h5-6H2,1-4H3
