15
gdb 27065	3.3038	1.149	0.8659	6.5287	70.65	-0.2211	0.0063	0.2275	1261.154	0.112865	-454.009189	-454.000781	-453.999836	-454.043107	29.42	
C	-0.0501449438	 1.4994205401	 0.0260951227	-0.513728
C	 0.0575555161	 0.0160216097	-0.0282020193	 0.202148
C	 0.2181135692	-0.8594197139	-1.071545045	 0.30414
O	 0.3586339447	-0.4793998217	-2.3812580416	-0.228489
C	-0.1064832855	-1.3178143396	-3.3519354757	 0.153196
O	 0.0290659664	-1.0599572231	-4.5081124692	-0.269174
N	 0.2728868823	-2.1601188232	-0.6645732338	-0.325335
C	 0.1400006483	-2.1022151344	 0.6435784699	 0.012408
N	 0.0132071999	-0.8193311769	 1.0759843272	-0.299083
H	 0.7622887753	 1.9535668699	 0.6060690862	 0.135117
H	 0.0039448311	 1.896814574	-0.989471945	 0.162456
H	-0.9983151794	 1.8301179028	 0.4666813437	 0.133416
H	-0.592340211	-2.2128964119	-2.9376039686	 0.121375
H	 0.1365428143	-2.9467883549	 1.3150574663	 0.141074
H	-0.0836278178	-0.5204396469	 2.0322996123	 0.270482
59.3218	119.6306	124.6936	160.2725	232.532	265.	369.399	484.4998	506.9487	522.276	664.254	677.6859	729.3871	792.1351	863.0496	962.2371	987.9314	1042.3683	1066.6493	1101.6218	1133.0954	1191.0709	1262.4986	1314.5937	1383.2168	1413.1323	1423.2871	1471.0972	1484.2855	1489.6625	1523.1175	1658.7914	1866.9877	3022.5988	3048.1743	3069.677	3132.9623	3260.2511	3661.4361
CC1=C(OC=O)N=CN1	Cc1c(OC=O)nc[nH]1	
InChI=1S/C5H6N2O2/c1-4-5(9-3-8)7-2-6-4/h2-3H,1H3,(H,6,7)	InChI=1S/C5H6N2O2/c1-4-5(9-3-8)7-2-6-4/h2-3H,1H3,(H,6,7)
