16
gdb 124223	4.80031	0.95036	0.93466	2.743	71.58	-0.2491	0.008	0.2572	1286.831	0.125237	-434.086749	-434.07841	-434.077466	-434.121606	29.88	
C	-0.9393389042	 1.4314512405	-1.1171688494	-0.445907
C	-0.7793868437	-0.0506775472	-1.2693416127	 0.380113
N	-0.4565584871	-0.6095564153	-2.3528124967	-0.505872
O	-1.0433226375	-0.6647144542	-0.0528887852	-0.281204
C	-0.9172628494	-2.0264401174	 0.033401314	 0.225371
C	-1.9354630438	-2.9559364098	-0.0489083633	-0.121704
N	-1.3464882016	-4.153085449	 0.1843227002	-0.170296
N	-0.0226057067	-4.0690966231	 0.4068893288	-0.211992
C	 0.2494898291	-2.7707839535	 0.3153905842	-0.080232
H	-0.7430733085	 1.9192691432	-2.0705651447	 0.149973
H	-1.9525276771	 1.6698371714	-0.7791183155	 0.140359
H	-0.2479273104	 1.8092567785	-0.3576583102	 0.142492
H	-0.3986665043	-1.624733513	-2.2542156702	 0.223091
H	-2.9905457378	-2.847915322	-0.2389678038	 0.146882
H	-1.7858967001	-5.0575598438	 0.2089126025	 0.282437
H	 1.2564195531	-2.4085021752	 0.456876692	 0.126488
17.5724	78.7108	124.4839	146.7776	340.8992	364.961	404.2962	520.0423	551.276	558.6016	643.7736	699.4838	748.8804	802.4258	873.9432	897.8864	905.1084	939.1444	1000.8549	1029.9608	1070.5644	1076.5901	1094.436	1162.0163	1238.7042	1305.1596	1335.0424	1393.4417	1407.7819	1411.1172	1474.6496	1477.0964	1499.7324	1609.3924	1760.8635	3052.5021	3110.27	3172.0662	3256.3378	3274.7273	3466.1571	3675.0885
CC(=N)OC1=CNN=C1	C[C]([NH])Oc1c[nH]nc1	
InChI=1S/C5H7N3O/c1-4(6)9-5-2-7-8-3-5/h2-3,6H,1H3,(H,7,8)	InChI=1S/C5H7N3O/c1-4(6)9-5-2-7-8-3-5/h2-3,6H,1H3,(H,7,8)
