23
gdb 104331	2.13287	1.46504	1.15696	1.5631	87.83	-0.2234	0.0268	0.2503	1235.2673	0.20384	-388.314041	-388.303836	-388.302892	-388.348872	38.136	
C	 0.2275893633	 1.5515855067	 0.1435605969	-0.392766
C	 0.0954946727	 0.0347115009	-0.0229924893	-0.187782
C	 0.5979408469	-0.504131742	-1.3829432232	 0.293511
C	-0.2064198041	 0.0611667222	-2.5639439855	-0.421354
O	 1.9746307763	-0.1099378106	-1.5534386726	-0.310179
C	 2.8272925593	-1.2474493971	-1.6138553809	-0.131241
C	 1.9065927269	-2.4269455549	-1.5224075273	-0.215579
C	 0.6451141036	-2.0262485137	-1.3943769313	 0.299911
C	-0.5806149322	-2.8755336801	-1.2741688323	-0.503741
H	 1.2557576586	 1.8661106929	-0.0526216979	 0.135157
H	-0.4309875408	 2.0979971912	-0.5385226119	 0.112702
H	-0.0355552912	 1.8508299291	 1.1628136879	 0.106298
H	 0.6727282824	-0.4685018343	 0.7617237087	 0.094505
H	-0.9506413999	-0.2670236103	 0.1142455768	 0.08845
H	-0.0629917582	 1.1416745644	-2.6388560006	 0.127242
H	 0.1314468632	-0.390981341	-3.5005626647	 0.115375
H	-1.277371521	-0.1354079889	-2.4480911049	 0.10802
H	 3.4043355995	-1.2306352575	-2.5523644952	 0.100461
H	 3.559155485	-1.2181085686	-0.7898559056	 0.098983
H	 2.2516625856	-3.4536708475	-1.5569769357	 0.094815
H	-0.3293869074	-3.9387607109	-1.3081883645	 0.125293
H	-1.1123905577	-2.6841224751	-0.334469723	 0.131304
H	-1.2913288808	-2.670153455	-2.0837804841	 0.130613
67.5169	99.1083	158.5695	173.4799	214.1723	240.7082	252.0083	265.9931	301.0077	340.4496	398.4763	479.9796	570.6548	583.2813	680.0813	770.4893	784.4611	814.7527	877.073	902.98	948.0445	991.5531	1004.4033	1030.5979	1047.4187	1053.9008	1076.3109	1091.3785	1143.4907	1180.9283	1191.3396	1209.1358	1235.6997	1311.9815	1326.5115	1366.0523	1379.9068	1398.1797	1404.8894	1415.6551	1472.5429	1480.5813	1486.7063	1492.5042	1493.5885	1506.0596	1511.4542	1525.9887	1733.6176	2964.4108	2978.9863	3020.8638	3025.6191	3040.1511	3043.2065	3059.8593	3073.6241	3104.3254	3111.2136	3113.8636	3124.4103	3127.1466	3201.9634
CCC1(C)OCC=C1C	CC[C@@]1(C)OCC=C1C	
InChI=1S/C8H14O/c1-4-8(3)7(2)5-6-9-8/h5H,4,6H2,1-3H3	InChI=1S/C8H14O/c1-4-8(3)7(2)5-6-9-8/h5H,4,6H2,1-3H3/t8-/m1/s1
