17
gdb 34716	5.21777	1.2302	1.12721	0.6722	83.2	-0.2234	0.0013	0.2246	1080.5518	0.136625	-347.461036	-347.454147	-347.453202	-347.49206	28.643	
C	-0.0762426978	-1.2535253402	-0.1298597777	-0.439101
C	-0.0392475818	-0.0530279631	-0.0578437799	 0.302567
C	-0.0067620802	 1.3935382302	 0.0170666523	-0.207988
C	 0.0273190996	 2.0856969795	 1.4128644867	-0.039748
C	 1.5410139548	 1.6882396558	 1.5925115448	-0.067491
C	 2.2145726998	 2.8476511948	 2.3080603978	-0.107199
C	 1.650190218	 3.9302520057	 1.7681519216	-0.115349
C	 0.6672880363	 3.3641522078	 0.7566740678	-0.075134
C	 1.3678520057	 2.1241569927	 0.0886804565	-0.039751
H	-0.1089482255	-2.3128246506	-0.1932975481	 0.18995
H	-0.7172498513	 1.8362447709	-0.6893332039	 0.091288
H	-0.751737596	 2.0600986317	 2.1790101468	 0.077152
H	 1.8038136094	 0.6587441148	 1.8286544317	 0.080233
H	 2.973363669	 2.7731021906	 3.0740556729	 0.104472
H	 1.8228409867	 4.9772382961	 1.9733417432	 0.105058
H	 0.0496650651	 4.0283889461	 0.1507179023	 0.063889
H	 2.1435947184	 2.1431655472	-0.6810114849	 0.077152
130.504	147.5141	354.0456	368.1881	488.0236	494.3668	544.5806	608.3664	639.2546	678.7297	717.1568	775.8337	788.7549	816.5144	855.9778	910.6364	918.1084	928.326	932.5857	952.8014	990.2071	1025.0557	1047.7315	1081.1652	1092.0423	1138.9876	1145.2955	1175.6751	1192.7714	1206.7611	1241.2628	1254.3459	1316.5947	1325.3178	1379.4608	1633.107	2229.7919	3046.5273	3083.3455	3086.2922	3112.8806	3141.4511	3221.8608	3248.7392	3504.6779
C#CC1C2C3C=CC2C13	C#C[C@H]1[C@H]2[C@@H]3C=C[C@H]2[C@H]13	
InChI=1S/C9H8/c1-2-5-8-6-3-4-7(8)9(5)6/h1,3-9H	InChI=1S/C9H8/c1-2-5-8-6-3-4-7(8)9(5)6/h1,3-9H/t5-,6-,7+,8-,9+
