16
gdb 43786	3.87041	1.27308	1.12474	3.549	75.85	-0.2442	0.0121	0.2563	1076.5877	0.125022	-400.723732	-400.71635	-400.715406	-400.755323	29.683	
O	-0.0262888749	 0.0390506978	 0.0664894375	-0.368981
C	 0.0127759933	 1.2385499988	-0.0252700956	 0.424561
N	-1.0579674941	 2.1307982646	-0.1297503138	-0.3595
C	-0.404415974	 3.4606278565	 0.0216921491	 0.255766
C	 0.7447791991	 3.290369343	-1.0228288581	-0.24802
C	 1.2073649968	 2.2063831227	 0.0010739551	-0.19091
C	 0.6895869466	 3.1859313207	 1.1130181616	-0.264096
C	-1.3013344499	 4.5854797422	 0.0558056652	 0.06923
C	-2.0357663073	 5.5356887057	 0.1002235241	-0.332735
H	-1.9247212062	 1.93219137	 0.3501746153	 0.253241
H	 0.4467388515	 2.9722848368	-2.0229372869	 0.121763
H	 1.4124545358	 4.1524167156	-1.0560131627	 0.11762
H	 2.1976478437	 1.7606853969	 0.0055771004	 0.098015
H	 1.3548701135	 4.0353275463	 1.2791058919	 0.117852
H	 0.347604884	 2.7634654025	 2.0607014231	 0.114667
H	-2.6858792379	 6.3751860898	 0.1324358635	 0.191526
135.1474	142.8826	217.9985	397.4448	438.6091	457.3442	514.9805	529.2388	535.4399	539.3981	640.5953	669.2933	683.1993	748.8123	792.2171	851.0106	899.7814	917.6289	949.1315	994.8451	1015.9301	1061.8571	1082.7134	1119.2211	1156.1794	1204.169	1224.9454	1234.2471	1246.5859	1291.2011	1361.3336	1479.6705	1515.2979	1870.0174	2245.2684	3067.6822	3080.4858	3136.6978	3151.1214	3170.9117	3499.5123	3608.4238
O=C1NC2(CC1C2)C#C	O=C1N[C@@]2(C[C@H]1C2)C#C	
InChI=1S/C7H7NO/c1-2-7-3-5(4-7)6(9)8-7/h1,5H,3-4H2,(H,8,9)	InChI=1S/C7H7NO/c1-2-7-3-5(4-7)6(9)8-7/h1,5H,3-4H2,(H,8,9)/t5-,7+
