15
gdb 27904	2.06609	1.86035	0.97993	3.9368	73.15	-0.2142	0.0138	0.2281	1128.2623	0.115863	-450.219619	-450.211853	-450.210909	-450.251401	30.863	
N	 0.0604915555	 1.344777952	-0.133368792	-0.569725
C	-0.0034474372	-0.0242600026	-0.0809131071	 0.402804
C	-1.2194029593	-0.7090114235	-0.056399637	-0.289337
C	-1.1449062114	-2.1049560527	-0.0549066814	 0.406351
N	-2.2671259831	-2.8899035379	-0.0783614494	-0.569185
N	 0.0251407987	-2.7663748813	-0.0688342491	-0.376057
C	 1.1022967413	-1.9975898222	-0.0926121136	 0.442128
O	 2.2748722689	-2.6555583074	-0.1068922078	-0.399085
N	 1.1771771834	-0.6671793081	-0.0948600976	-0.439067
H	 0.9606410225	 1.7377491623	 0.0926693533	 0.255966
H	-0.7375512606	 1.8672156752	 0.1875148086	 0.253
H	-2.168300599	-0.1867822938	-0.0577592452	 0.072388
H	-3.1358700862	-2.4929362006	 0.2375619498	 0.252369
H	-2.1124480723	-3.8598016986	 0.1481174899	 0.260064
H	 2.9567353087	-1.9708688908	-0.1246567513	 0.297386
179.819	216.0236	224.0892	324.1539	346.3167	395.2875	411.3872	474.8601	483.7864	536.6167	565.8561	569.5155	578.9104	660.0374	713.5759	723.1179	785.9564	825.4359	988.0161	1023.2116	1039.1498	1099.456	1173.2948	1245.4132	1269.6736	1357.1592	1463.4107	1494.8646	1534.9247	1616.3154	1631.815	1644.8768	1661.6488	3193.9082	3593.8239	3595.0699	3713.7834	3717.5732	3785.692
NC1=CC(N)=NC(O)=N1	Nc1cc(N)nc(O)n1	
InChI=1S/C4H6N4O/c5-2-1-3(6)8-4(9)7-2/h1H,(H5,5,6,7,8,9)	InChI=1S/C4H6N4O/c5-2-1-3(6)8-4(9)7-2/h1H,(H5,5,6,7,8,9)
