14
gdb 8329	6.3103	1.32968	1.32021	2.6248	57.5	-0.2676	0.0003	0.2679	919.7354	0.106893	-419.677479	-419.670689	-419.669745	-419.709073	24.644	
O	 0.0001473091	 0.1312696468	-0.697720643	-0.306702
C	-0.0910648974	 1.1687438527	-0.1302094535	 0.443128
C	-1.1811633734	 2.1540413853	 0.2900986268	-0.495325
C	-0.0059728718	 2.9500616676	 0.8730033917	 0.367339
C	 0.3226372223	 4.4086528261	 0.5297307342	-0.127392
O	 0.2880310512	 4.7746155699	 1.9247630388	-0.269099
C	 0.1094076105	 3.4028164276	 2.3341599253	-0.127418
O	 0.9250120338	 1.9252665987	 0.4117867107	-0.263007
H	-1.7151296647	 2.6196870189	-0.5403455277	 0.150672
H	-1.8982931098	 1.7552722382	 1.0100305761	 0.150677
H	 1.316267378	 4.5381565742	 0.0839912871	 0.12526
H	-0.4226384009	 4.952733646	-0.0619665878	 0.113291
H	-0.7797798645	 3.2677707614	 2.9608159648	 0.113305
H	 0.9897066176	 2.9976089664	 2.8476052167	 0.125271
72.9531	98.8774	268.5965	320.683	416.7824	462.0435	520.956	525.2372	792.2935	832.0449	875.007	885.531	953.5849	965.5144	986.5111	1034.1444	1072.3724	1074.5845	1149.0296	1152.2411	1183.2317	1210.3598	1248.4042	1285.9786	1303.4846	1386.8773	1453.7976	1495.083	1521.6782	1951.4379	3017.2408	3028.362	3073.0822	3073.3618	3086.2157	3142.8775
O=C1CC2(COC2)O1	O=C1CC2(COC2)O1	
InChI=1S/C5H6O3/c6-4-1-5(8-4)2-7-3-5/h1-3H2	InChI=1S/C5H6O3/c6-4-1-5(8-4)2-7-3-5/h1-3H2
