18
gdb 125931	3.78056	1.35139	1.13955	2.1126	78.26	-0.1857	0.0278	0.2134	1095.995	0.151399	-398.145475	-398.13793	-398.136986	-398.177355	29.899	
C	 0.2324301807	 1.4736153483	 0.0676647565	-0.394148
C	-0.0518743533	-0.0264415076	-0.0483714715	 0.037801
C	 0.6782143093	-0.6646965151	-1.282089522	-0.356771
C	 1.8843436558	-1.2647296951	-0.6259305453	 0.339154
N	 3.0314705483	-1.8015046003	-1.0115022167	-0.332397
N	 3.5997091269	-2.1747381406	 0.1561144132	-0.192784
C	 2.8390490955	-1.8879563061	 1.2682126319	-0.203882
C	 1.7073882586	-1.2898286324	 0.7669121133	 0.241308
N	 0.4550982175	-0.781789468	 1.1440726331	-0.424705
H	 1.3110127643	 1.6601268694	 0.1118642883	 0.128574
H	-0.1736665378	 2.0151074057	-0.7932442503	 0.118342
H	-0.2269752286	 1.8930630009	 0.9699111016	 0.109599
H	-1.1326631582	-0.1820872909	-0.1221596832	 0.0801
H	 0.052366267	-1.4330734297	-1.7509603027	 0.119182
H	 0.902425997	 0.0854150715	-2.0460517505	 0.115813
H	 4.5151644396	-2.5882686885	 0.1388142825	 0.268581
H	 3.1809370138	-2.1276872153	 2.2613763841	 0.122197
H	 0.4474155135	-0.221792316	 1.9878138977	 0.224034
80.1984	217.8571	266.1685	281.8155	348.049	383.6175	400.647	477.9012	619.1887	642.3436	657.7703	702.9961	732.1842	738.5788	817.9522	856.9557	916.4032	943.956	972.263	1040.8716	1047.7294	1090.547	1120.4854	1139.8398	1191.7121	1207.1225	1273.9124	1303.1439	1327.1337	1362.1881	1390.8202	1405.1029	1463.5521	1475.3961	1489.62	1494.8097	1497.9903	1528.8095	1651.3282	3025.3643	3032.1878	3052.7763	3082.1785	3094.5667	3105.3964	3268.765	3547.7261	3688.7233
CC1CC2=NNC=C2N1	C[C@H]1Cc2n[nH]cc2N1	
InChI=1S/C6H9N3/c1-4-2-5-6(8-4)3-7-9-5/h3-4,8H,2H2,1H3,(H,7,9)	InChI=1S/C6H9N3/c1-4-2-5-6(8-4)3-7-9-5/h3-4,8H,2H2,1H3,(H,7,9)/t4-/m0/s1
