14
gdb 16727	4.07035	1.79732	1.76458	1.1021	61.57	-0.2425	0.0278	0.2702	793.2089	0.106267	-382.467867	-382.461115	-382.46017	-382.498769	25.892	
C	 0.3919976837	-0.8797840934	 0.5943445975	-0.454763
C	 0.1698946424	 0.250809956	 0.2543116135	 0.375986
C	-0.1334319486	 1.6132899191	-0.2140416208	-0.039892
O	-0.9096002073	 2.3325731303	 0.7369195638	-0.24609
C	-0.0534223647	 3.2480251798	 1.3789488488	 0.072468
C	 1.216121643	 2.7202017748	 2.0184578105	-0.358438
C	 1.2169546515	 3.2641223038	 0.6030210682	 0.072468
O	 1.0535067225	 2.3574472714	-0.4621172951	-0.246091
H	 0.5921676077	-1.8770782427	 0.9014055037	 0.20477
H	-0.7037772089	 1.556123841	-1.1490172913	 0.125515
H	-0.5842273019	 4.1142730211	 1.7519547988	 0.11545
H	 1.671380823	 3.3494185475	 2.7768790203	 0.119283
H	 1.3253469785	 1.6537844301	 2.1751620189	 0.143883
H	 1.7750574493	 4.1441680013	 0.3109364531	 0.115451
100.3923	164.8229	255.7007	309.0403	458.9331	513.2005	545.8	655.3761	672.0176	737.7401	753.5024	769.7405	795.8956	909.2774	935.7628	948.7999	990.0291	994.1287	1068.7939	1081.2723	1090.0687	1132.7518	1163.3738	1203.7144	1289.1336	1349.4494	1371.6257	1381.2531	1464.2896	2235.7135	3037.3082	3135.46	3195.2031	3203.6379	3233.9887	3498.754
C#CC1OC2CC2O1	C#C[C@H]1O[C@H]2C[C@H]2O1	
InChI=1S/C6H6O2/c1-2-6-7-4-3-5(4)8-6/h1,4-6H,3H2	InChI=1S/C6H6O2/c1-2-6-7-4-3-5(4)8-6/h1,4-6H,3H2/t4-,5+,6-
