19
gdb 41005	3.00128	1.93169	1.43148	2.1304	78.74	-0.2227	0.0733	0.296	939.9331	0.161396	-385.795327	-385.788879	-385.787935	-385.825766	27.785	
C	-0.0394179125	 1.5095137802	 0.2803963442	-0.257469
C	 1.4984638547	 1.5645445723	-0.0663815257	-0.36095
C	 1.2223005165	 0.3072441259	-0.9017789449	 0.404917
C	 0.0085954493	-0.0186968458	-0.0594262258	-0.005008
C	-0.8125603742	-0.9121431318	-1.0233507689	-0.307538
C	 0.2368434001	-1.0492308645	-2.1436614561	-0.033001
C	 0.7986476083	 0.3581967949	-2.4152579712	 0.01849
O	 2.0990866596	-0.1711463352	-2.8424575933	-0.321492
C	 1.7543652325	-0.9357194032	-1.638540607	-0.095259
H	-0.337243585	 1.7939130323	 1.2915953839	 0.099843
H	-0.6303302742	 2.0814464618	-0.4407915285	 0.106198
H	 1.8881070938	 2.4448161007	-0.5812627902	 0.109581
H	 2.1074862371	 1.366359122	 0.8204133225	 0.108334
H	 0.288029742	-0.5671938811	 0.8470998931	 0.074711
H	-1.1100571	-1.8645368141	-0.5754507535	 0.101723
H	-1.7199640806	-0.432500708	-1.4084670663	 0.105248
H	 0.056765952	-1.7007715825	-2.9987888011	 0.080219
H	 0.3676571724	 1.1778018393	-2.9931461667	 0.085614
H	 2.4379260182	-1.723048293	-1.3175543046	 0.085837
178.8981	284.6453	307.6472	347.6533	468.0043	575.9077	636.9327	662.7697	690.8617	739.2776	754.7188	815.8474	853.4944	876.4308	888.1681	904.9561	929.8763	954.5172	962.4035	1009.4517	1051.7065	1073.6689	1089.9127	1095.039	1142.5131	1149.9937	1166.7425	1180.9097	1211.6661	1215.8041	1228.8855	1242.2165	1249.907	1265.9593	1282.8821	1309.1786	1349.8017	1363.5099	1479.3857	1490.7473	1495.5372	3037.4859	3040.6913	3060.111	3061.8608	3089.4242	3098.5907	3108.3185	3113.6216	3125.8406	3130.3603
C1CC23C1CC1C2OC31	C1C[C@@]23[C@@H]1C[C@H]1[C@@H]2O[C@@H]31	
InChI=1S/C8H10O/c1-2-8-4(1)3-5-6(8)9-7(5)8/h4-7H,1-3H2	InChI=1S/C8H10O/c1-2-8-4(1)3-5-6(8)9-7(5)8/h4-7H,1-3H2/t4-,5-,6-,7+,8+/m0/s1
