17
gdb 102868	1.64167	1.20611	0.76021	2.5375	67.31	-0.261	-0.0372	0.2238	1451.3828	0.132238	-496.120397	-496.110329	-496.109385	-496.157605	33.634	
O	 0.0824213867	 1.4822670874	-0.0258083722	-0.408783
C	 0.1053003336	 0.0740619489	 0.0335868777	-0.0682
C	-1.3053460703	-0.5238471504	 0.0341648784	 0.05538
C	-2.1494776428	-0.0279612014	 1.2138464224	-0.272965
C	-3.5705020732	-0.5511525506	 1.1978756822	 0.14006
O	-4.0450710006	-1.2334795425	 2.0695111426	-0.232392
O	-1.947220164	-0.099457344	-1.1906076275	-0.210235
C	-2.1256170531	-1.0030104387	-2.1806470062	 0.169395
O	-2.5709837626	-0.7056893897	-3.2456398403	-0.262728
H	-0.3674080889	 1.7249812606	-0.8438230685	 0.299022
H	 0.6708747217	-0.3614524078	-0.805048215	 0.101721
H	 0.6185150725	-0.1986833993	 0.961306784	 0.124657
H	-1.2371706994	-1.6201690041	 0.0457881136	 0.102449
H	-1.6788541081	-0.3338724046	 2.1521527394	 0.130135
H	-2.1665816103	 1.0677155319	 1.1715771501	 0.144627
H	-4.1682927931	-0.2571778657	 0.3085404417	 0.09819
H	-1.8253948381	-2.02688379	-1.8860743824	 0.089667
33.3467	55.7422	74.8675	112.3499	139.3333	195.9537	232.3704	308.1396	341.063	425.9263	436.7031	515.5733	600.1803	682.6462	832.8906	893.7621	924.7574	968.1293	1027.869	1042.9753	1077.4168	1118.6165	1125.4188	1167.666	1224.6578	1235.9237	1279.7665	1347.3852	1365.6504	1402.5423	1422.203	1426.4697	1434.96	1459.6974	1494.6643	1831.1083	1869.737	2904.9046	2956.6933	2985.8692	3023.4896	3048.3129	3085.1906	3114.5783	3798.1406
OCC(CC=O)OC=O	OC[C@@H](CC=O)OC=O	
InChI=1S/C5H8O4/c6-2-1-5(3-7)9-4-8/h2,4-5,7H,1,3H2	InChI=1S/C5H8O4/c6-2-1-5(3-7)9-4-8/h2,4-5,7H,1,3H2/t5-/m1/s1
