22
gdb 86806	4.30807	0.74835	0.71586	3.478	85.25	-0.2405	0.0365	0.277	1695.0227	0.193122	-404.38369	-404.373371	-404.372427	-404.421162	36.935	
C	-0.2499564005	 1.5016813489	-0.0514860167	-0.390912
C	-0.0154682846	-0.0006333475	-0.1850711768	 0.026528
C	 1.3314399704	-0.382224098	-0.8713171053	-0.255625
C	 1.9450885598	-0.6048381658	 0.5384060405	 0.083231
C	 0.5045866052	-0.6878288813	 1.1141641677	-0.255629
N	 2.8450664734	-1.7104135782	 0.74304643	-0.32999
C	 4.0948558404	-1.5743433138	 1.2843116631	 0.405696
C	 4.886779886	-2.8673693483	 1.4150307438	-0.484415
O	 4.5512687639	-0.5025105926	 1.6392296812	-0.373616
H	 0.6172390557	 2.0077895763	 0.3875612619	 0.122076
H	-0.4395879019	 1.9588400337	-1.0287365687	 0.114454
H	-1.1135275731	 1.7097503059	 0.5895483281	 0.114454
H	-0.8993304133	-0.4700763532	-0.6254120261	 0.067814
H	 1.2534616674	-1.3236311074	-1.4254824147	 0.087987
H	 1.8065511536	 0.3630280678	-1.51518238	 0.103235
H	 2.4748952036	 0.2786301379	 0.8950200284	 0.125729
H	 0.3142536155	-0.1885277009	 2.0681901175	 0.103234
H	 0.1644551865	-1.7261278732	 1.1894887498	 0.087987
H	 2.5348449922	-2.6297532949	 0.4724250586	 0.236251
H	 4.3540473329	-3.7525757497	 1.057310927	 0.107136
H	 5.8206900629	-2.7642353299	 0.8562279097	 0.152187
H	 5.1509817941	-3.0116887254	 2.4659581911	 0.152188
20.3266	45.0995	70.3688	84.4554	202.5887	240.7425	293.4629	298.1288	397.7249	401.3457	450.4363	470.6263	578.1775	633.9277	716.671	801.9561	819.6731	892.8465	901.5237	942.0395	955.4272	962.1465	1004.1265	1041.2366	1053.3445	1056.1826	1134.5752	1140.1637	1193.2844	1217.3383	1235.2594	1265.1825	1270.9342	1279.2671	1293.3223	1364.9733	1377.3936	1396.8745	1413.5423	1470.2829	1471.0526	1486.5554	1494.5235	1497.6788	1501.1057	1536.7339	1779.5377	3025.527	3040.3753	3042.4304	3048.0602	3060.7888	3093.4934	3094.1943	3097.1713	3098.9097	3126.037	3127.44	3127.699	3634.2611
CC1CC(C1)NC(C)=O	C[C@H]1C[C@@H](C1)NC(=O)C	
InChI=1S/C7H13NO/c1-5-3-7(4-5)8-6(2)9/h5,7H,3-4H2,1-2H3,(H,8,9)	InChI=1S/C7H13NO/c1-5-3-7(4-5)8-6(2)9/h5,7H,3-4H2,1-2H3,(H,8,9)/t5-,7-
