16
gdb 24416	3.55765	1.56997	1.1311	1.9247	69.94	-0.233	0.0031	0.236	1021.3186	0.127858	-437.920415	-437.913752	-437.912807	-437.95156	25.977	
C	 0.0124440847	 1.4157967584	 0.0129216772	-0.071557
C	 1.4570314158	 1.9711026693	 0.0051070116	-0.347639
C	 2.1609624219	 1.2000823699	-1.0475541402	 0.293041
C	 1.7243315989	 0.0628942186	-1.6297496076	 0.185779
C	 0.4386401548	-0.5823346555	-1.2208209935	-0.19195
O	-0.0212225008	-0.0023935335	-0.0039508382	-0.249192
N	 2.6376488813	-0.3488884226	-2.5938571173	-0.323718
C	 3.5663900987	 0.5497202005	-2.5330932709	 0.044069
O	 3.3591127914	 1.5332265694	-1.617963381	-0.191705
H	-0.5122012366	 1.7186494855	 0.9225127348	 0.115668
H	-0.5346556161	 1.8237246366	-0.8518959226	 0.098427
H	 1.4419904244	 3.0463348281	-0.2083976665	 0.120885
H	 1.927396967	 1.838508648	 0.9875434716	 0.128015
H	-0.3234699682	-0.4818347409	-2.0120876662	 0.10801
H	 0.5682927647	-1.6508510035	-1.0228375539	 0.13265
H	 4.4746852081	 0.6143796818	-3.1109715572	 0.149215
118.413	221.8144	281.2313	328.5369	373.5464	459.4559	523.6609	643.9408	685.8942	711.6522	752.673	825.2639	856.2383	935.2558	954.7221	968.479	1029.3845	1085.1884	1105.7076	1111.6531	1145.6828	1203.9166	1223.8692	1248.4	1294.6176	1304.4414	1330.7736	1372.894	1414.6235	1419.6837	1479.0362	1491.2971	1500.8206	1541.9159	1683.7202	2964.0921	2981.7439	3025.856	3067.1807	3078.504	3098.6025	3278.966
C1CC2=C(CO1)N=CO2	C1Cc2c(CO1)nco2	
InChI=1S/C6H7NO2/c1-2-8-3-5-6(1)9-4-7-5/h4H,1-3H2	InChI=1S/C6H7NO2/c1-2-8-3-5-6(1)9-4-7-5/h4H,1-3H2
