18
gdb 112194	2.51928	1.28831	0.94622	4.364	73.56	-0.247	0.0108	0.2578	1263.5372	0.146349	-439.083191	-439.074162	-439.073218	-439.117349	32.77	
C	 0.1255524498	 1.5703732189	 0.0980236775	-0.386783
C	-0.137261637	 0.0692872426	-0.0608194783	-0.18925
C	 0.6059935716	-0.5482579871	-1.238430663	-0.018432
N	 2.075149974	-0.6300617372	-1.1065456468	-0.36856
C	 2.187071583	-1.993214193	-1.2832538161	 0.391575
O	 3.1187691103	-2.7462209742	-1.3504042826	-0.362585
C	 0.6540194001	-2.0907710256	-1.3490548765	 0.257447
C	-0.2480014897	-3.1341142046	-0.8643065774	-0.25593
O	-0.0719622792	-2.871245455	-2.2642021403	-0.2588
H	 1.1855022199	 1.7695609358	 0.2897445311	 0.115969
H	-0.161745896	 2.1218481717	-0.8038690954	 0.121433
H	-0.4423812561	 1.9827051051	 0.936846927	 0.123637
H	 0.1473086057	-0.4614910281	 0.8553610963	 0.103497
H	-1.2108873159	-0.1022361411	-0.2099469634	 0.108362
H	 0.2942798653	-0.0861624031	-2.1839233182	 0.099223
H	 2.7821700098	 0.0877380768	-1.0737224508	 0.256007
H	 0.1700512532	-4.0748288547	-0.5116296609	 0.13927
H	-1.2191635588	-2.858213527	-0.4570080621	 0.12392
73.0882	98.3088	136.6381	211.3566	225.2828	232.4723	296.3436	336.3816	385.5904	498.5492	573.9938	637.9857	730.3643	745.5174	800.3065	851.7653	911.2534	923.4966	964.1169	992.3952	1067.5112	1098.3173	1113.0822	1122.8237	1153.3911	1162.8678	1180.6366	1256.4465	1292.938	1340.7238	1366.5695	1406.6288	1414.0978	1443.8656	1478.2554	1500.4289	1505.6472	1532.884	1901.4639	3025.742	3027.4659	3033.8001	3067.2083	3091.1916	3101.18	3110.2766	3184.937	3634.2071
CCC1NC(=O)C11CO1	CC[C@H]1NC(=O)[C@]21CO2	
InChI=1S/C6H9NO2/c1-2-4-6(3-9-6)5(8)7-4/h4H,2-3H2,1H3,(H,7,8)	InChI=1S/C6H9NO2/c1-2-4-6(3-9-6)5(8)7-4/h4H,2-3H2,1H3,(H,7,8)/t4-,6-/m1/s1
