19
gdb 62840	2.62687	1.88292	1.50554	2.4684	75.74	-0.2356	0.0445	0.2801	952.1619	0.158801	-422.889345	-422.881808	-422.880864	-422.920715	31.412	
C	-0.1102377684	 1.5651755912	 0.0937260394	-0.457225
C	 0.0290058164	 0.0509406525	 0.0206319353	 0.456891
O	-1.2828390495	-0.4154368158	-0.1467763834	-0.499816
C	 1.1435720313	-0.6060491847	-0.8419790935	-0.168281
C	 2.204101168	-0.1223235299	 0.266570906	-0.333286
C	 0.9850024153	-0.700968895	 1.0557628118	 0.144582
C	 0.264700415	-1.6717104551	 2.0092421146	-0.198835
O	-0.0704462553	-2.5105500597	 0.8252836219	-0.334089
C	 1.0504373008	-1.8621320498	 0.0983698949	 0.090521
H	 0.8323265777	 2.101566545	 0.1998294808	 0.111114
H	-0.6072450772	 1.9185631377	-0.8147077824	 0.129218
H	-0.7548130826	 1.8245799079	 0.9385959122	 0.125777
H	-1.2733681655	-1.3713329844	 0.0187591059	 0.292151
H	 1.2846439043	-0.5491534077	-1.9259414616	 0.076331
H	 3.1174469673	-0.7166419543	 0.3237269065	 0.111988
H	 2.4291918443	 0.9422022748	 0.3016586233	 0.114176
H	 0.8918924343	-2.2377565606	 2.7052585853	 0.121199
H	-0.6409907996	-1.3070063835	 2.5005433991	 0.130005
H	 1.9047766934	-2.5436658287	 0.0921016539	 0.087578
146.5286	195.0581	247.4367	325.4577	399.5676	429.4056	445.8832	477.6986	515.4138	625.8221	643.0886	665.4081	717.5821	798.5311	814.3765	845.7677	877.504	888.4309	934.6148	967.8558	993.2077	1020.7973	1022.4931	1084.1361	1111.0056	1116.5046	1133.4248	1157.4627	1168.1252	1198.8852	1218.03	1242.4635	1257.1353	1293.0859	1355.4754	1403.9113	1449.9189	1480.7447	1488.1957	1499.7482	1526.3565	3044.8031	3052.4908	3060.5093	3073.2541	3090.3982	3112.1808	3115.1804	3143.2584	3161.1104	3670.0178
CC1(O)C2CC11COC21	C[C@@]1(O)[C@H]2C[C@]31CO[C@@H]23	
InChI=1S/C7H10O2/c1-6(8)4-2-7(6)3-9-5(4)7/h4-5,8H,2-3H2,1H3	InChI=1S/C7H10O2/c1-6(8)4-2-7(6)3-9-5(4)7/h4-5,8H,2-3H2,1H3/t4-,5-,6+,7-/m0/s1
