17
gdb 49586	2.26235	1.65928	1.1956	4.8022	72.87	-0.2383	-0.0357	0.2026	1058.9606	0.134503	-421.806384	-421.798125	-421.797181	-421.839878	30.192	
O	-0.7819811171	 1.0732787795	 0.3209182329	-0.246178
C	 0.2957133299	 0.9812476725	-0.2147220379	 0.150838
C	 1.4001772054	 1.9896209174	-0.0937645294	-0.117233
C	 1.4900645283	 2.9674970041	-1.2942010271	-0.07344
C	 0.2487102788	 3.8102277202	-1.3656411479	-0.288307
C	 1.3016721321	 4.1503089624	-0.3459817625	-0.066963
C	 1.2363405359	 3.2218182553	 0.8781328955	-0.101299
C	 0.0343926891	 3.3168390732	 1.7987878832	 0.156681
O	 0.1032733609	 3.1219891971	 2.986284679	-0.26171
H	 0.521433011	 0.1318659257	-0.8993777206	 0.090439
H	 2.349515284	 1.4727686551	 0.0737559006	 0.105472
H	 2.1728734282	 2.8559110996	-2.1260718163	 0.102092
H	 0.2066053114	 4.485012618	-2.2140898648	 0.123758
H	-0.7155596932	 3.4051164397	-1.0741288994	 0.136899
H	 1.8149176772	 5.1034917521	-0.3580349934	 0.102631
H	 2.1265788497	 3.2973011176	 1.5057390038	 0.102675
H	-0.9150919016	 3.6280584206	 1.3186487043	 0.083645
60.9318	97.6252	146.725	197.7889	241.5982	326.9478	394.4066	432.0715	506.3333	649.2867	734.6064	769.2928	794.4	822.5296	917.6827	925.3275	978.4298	1005.236	1010.369	1029.656	1050.3814	1069.8738	1088.4246	1105.9324	1133.3707	1164.4312	1202.6411	1244.9652	1273.8625	1298.9126	1342.5524	1357.6077	1413.6613	1429.9778	1492.5116	1811.7771	1820.6379	2873.8298	2925.7516	3070.488	3095.564	3127.7911	3189.4098	3199.8281	3214.751
O=CC1C2CC2C1C=O	O=C[C@H]1[C@H]2C[C@H]2[C@H]1C=O	
InChI=1S/C7H8O2/c8-2-6-4-1-5(4)7(6)3-9/h2-7H,1H2	InChI=1S/C7H8O2/c8-2-6-4-1-5(4)7(6)3-9/h2-7H,1H2/t4-,5+,6-,7+
