19
gdb 41031	3.2275	1.85284	1.54176	1.5526	80.37	-0.2095	0.0732	0.2828	920.6303	0.160908	-385.755595	-385.749014	-385.74807	-385.786073	28.203	
C	 0.1379644906	 1.5368365923	 0.2434663085	-0.090287
O	 1.5071993957	 1.4657098152	-0.2197059862	-0.332463
C	 1.3494962471	 0.1140294013	-0.650632396	 0.480084
C	-0.1211153333	 0.050824601	-0.0253407758	-0.186893
C	 0.4568284803	-0.8786531912	 1.1243897387	-0.35839
C	 1.7356375343	-1.0372607459	 0.2660656663	 0.246837
C	 3.2282124067	-0.7234151728	-0.0667248673	-0.316116
C	 2.4294004574	-0.6332478153	-1.4561873793	-0.175585
C	 1.6952346151	-1.9229581822	-1.0157207598	-0.244251
H	 0.0720571786	 1.8572362985	 1.2895029877	 0.102315
H	-0.4463202963	 2.221119955	-0.3845899863	 0.101731
H	-1.0522579412	-0.2382877015	-0.5099488829	 0.082272
H	 0.5828775326	-0.3363914512	 2.0655122766	 0.112175
H	-0.0884926329	-1.8043725187	 1.3237214999	 0.105765
H	 3.6167063704	 0.2191093759	 0.3194789334	 0.121628
H	 3.9632422995	-1.5314381002	 0.0050427021	 0.092012
H	 2.8636298478	-0.4169148777	-2.4361031838	 0.072791
H	 2.2953712595	-2.8350486248	-0.97848329	 0.093647
H	 0.715484218	-2.1058493478	-1.4651854659	 0.092729
176.6464	261.8727	303.4078	386.7056	457.4879	481.1289	549.9915	595.236	689.928	741.818	777.6155	819.3533	873.1691	891.4451	909.1543	940.1704	962.0953	976.8335	992.1435	1001.7251	1019.6305	1056.3889	1076.8331	1096.7636	1109.5256	1136.9769	1145.4992	1162.1417	1174.454	1190.135	1200.3148	1224.025	1238.396	1261.5189	1274.9637	1295.4675	1350.5128	1476.5037	1490.0002	1520.2745	1526.3333	3014.1192	3049.483	3053.5832	3058.1081	3064.771	3075.5573	3110.9018	3118.2349	3126.7167	3144.3531
C1OC23C1CC21CC3C1	C1O[C@]23[C@H]1C[C@@]12C[C@H]3C1	
InChI=1S/C8H10O/c1-5-2-7(1)3-6-4-9-8(5,6)7/h5-6H,1-4H2	InChI=1S/C8H10O/c1-5-2-7(1)3-6-4-9-8(5,6)7/h5-6H,1-4H2/t5-,6-,7+,8+/m0/s1
