15
gdb 46010	4.96952	1.0061	0.84826	3.8805	77.63	-0.2497	-0.0361	0.2136	1274.8344	0.111793	-420.637385	-420.629105	-420.628161	-420.671528	29.916	
O	 0.0627651927	 0.1005018806	 0.6807726126	-0.323084
C	 0.0093049927	 1.1619212521	 0.1243627734	 0.415039
C	-1.2798189355	 1.9634990138	 0.030915932	-0.403344
C	-1.2467991231	 3.1444642098	-0.8830616893	-0.155465
C	-0.1017555497	 3.6074253211	-1.393857699	 0.106475
C	 1.2142341701	 2.9414871195	-1.0751304895	-0.152158
O	 1.1272986541	 1.658826458	-0.4513748686	-0.22608
C	-0.0186277837	 4.7483856078	-2.2355171235	 0.227231
C	 0.1186023659	 5.7084712115	-2.9499146671	-0.404756
H	-2.0659909897	 1.2555682094	-0.2547594257	 0.157166
H	-1.5382385742	 2.271003556	 1.0544931751	 0.158476
H	-2.1857871169	 3.6359998687	-1.1158119006	 0.112469
H	 1.7880219976	 2.7908560041	-1.9953177803	 0.144498
H	 1.8148648585	 3.5922554776	-0.4256916669	 0.139589
H	 0.217529231	 6.5587124101	-3.5787225627	 0.203943
26.4829	97.3898	144.0376	162.6936	346.3755	396.3728	445.2297	494.2382	531.0183	563.8935	600.4897	608.137	660.479	706.9709	764.948	856.4706	924.3447	982.375	1023.4495	1028.2403	1099.9689	1182.5503	1197.9683	1218.4083	1264.0105	1344.4369	1361.9474	1426.7482	1447.1874	1504.3263	1722.5382	1848.2739	2224.5354	3018.0556	3021.2124	3066.1837	3073.7174	3184.8205	3501.0987
O=C1CC=C(CO1)C#C	O=C1CC=C(CO1)C#C	
InChI=1S/C7H6O2/c1-2-6-3-4-7(8)9-5-6/h1,3H,4-5H2	InChI=1S/C7H6O2/c1-2-6-3-4-7(8)9-5-6/h1,3H,4-5H2
