18
gdb 10842	4.12485	1.45777	1.17061	3.0273	67.72	-0.2378	-0.0147	0.223	1015.5699	0.15472	-384.978506	-384.970801	-384.969857	-385.010494	29.449	
O	-0.087866063	 1.4608509323	 0.0323043101	-0.438684
C	 0.0199968949	 0.0459020035	-0.0039379865	 0.14149
C	 0.7885476332	-0.5033026389	 1.2047244698	-0.234337
C	 0.8257780301	-2.0430661936	 1.2034036826	-0.305511
C	-0.5702829293	-2.6425648417	 1.0699506278	 0.397951
O	-0.9702907746	-3.5259157061	 1.7908856947	-0.305269
C	-1.4138709551	-2.0481287142	-0.0518149799	-0.309481
C	-1.40371422	-0.5087828922	-0.0316251816	-0.201203
H	 0.8002286685	 1.8288467421	 0.0816255583	 0.281143
H	 0.5393750395	-0.2730862429	-0.9260021977	 0.060978
H	 1.8119950522	-0.1075556375	 1.2131261063	 0.090809
H	 0.2991789005	-0.1383986761	 2.1161502563	 0.116384
H	 1.4149334486	-2.3900234615	 0.3419326448	 0.116853
H	 1.2943162373	-2.4434682847	 2.105101176	 0.122112
H	-0.9876940467	-2.4008209045	-1.0025146713	 0.116925
H	-2.4267054274	-2.4499292283	 0.0226280183	 0.122731
H	-1.930530733	-0.1404165051	 0.8571415746	 0.115432
H	-1.9346145359	-0.1113070207	-0.9017900827	 0.111676
80.6008	171.4967	210.2979	282.5134	329.7031	374.4661	425.5178	439.9427	506.7618	509.2122	691.763	751.0701	757.8647	842.1455	917.3339	944.928	963.5253	1017.2222	1064.2315	1090.2091	1105.9792	1125.874	1150.0299	1220.3829	1243.6566	1262.4297	1289.6275	1312.7461	1335.9933	1349.9845	1352.7055	1396.593	1438.4869	1462.7476	1470.621	1488.5815	1507.9404	1821.0505	2933.2281	3008.1118	3015.0145	3021.7079	3039.9849	3066.2481	3089.0364	3108.7108	3110.3937	3815.3424
OC1CCC(=O)CC1	OC1CCC(=O)CC1	
InChI=1S/C6H10O2/c7-5-1-2-6(8)4-3-5/h5,7H,1-4H2	InChI=1S/C6H10O2/c7-5-1-2-6(8)4-3-5/h5,7H,1-4H2
