18
gdb 62026	4.1284	0.76605	0.74117	1.338	69.07	-0.2445	-0.0388	0.2057	1530.9199	0.143912	-476.253932	-476.243488	-476.242543	-476.291099	35.956	
C	-0.3337160497	 0.5879634917	 1.2429276698	-0.402813
C	 0.2174805458	-0.1721372302	 0.0401673832	 0.029927
O	 1.2399238167	-1.1122703216	 0.3425822162	-0.269182
C	 2.5157058914	-0.5678649155	 0.6389225889	-0.178805
C	 2.8795365349	-0.5682217394	 2.1295767822	 0.364224
N	 2.0736001105	-1.3402413608	 2.9011944059	-0.504679
O	 3.8393630386	 0.0559511926	 2.5353685981	-0.359892
C	-0.8623307421	-0.9660073336	-0.6911028309	 0.144432
O	-2.0154966535	-0.6336641154	-0.7565410078	-0.23774
H	 0.4251618705	 1.2386427202	 1.6840328413	 0.132728
H	-1.1794429018	 1.1986884428	 0.9180598696	 0.147072
H	-0.6880499814	-0.1063324174	 2.0095805804	 0.125456
H	 0.6049497734	 0.5518135284	-0.7002071746	 0.108044
H	 3.2662328273	-1.1811935586	 0.125846088	 0.141753
H	 2.6210448379	 0.4582348244	 0.2692954442	 0.131445
H	 1.3252080855	-1.8628550413	 2.479827957	 0.267009
H	 2.2857896335	-1.447120814	 3.878825462	 0.264865
H	-0.4753560877	-1.8860172722	-1.1808808333	 0.096157
33.4833	44.5094	72.5859	102.5801	212.9727	221.4523	259.1438	290.3779	294.7189	357.8725	437.8375	503.2665	533.89	565.6078	611.3357	679.8605	817.8148	863.7723	904.1857	930.8008	1019.1345	1078.6656	1093.2332	1119.9869	1141.8474	1156.8275	1276.5104	1333.4483	1341.6575	1363.2293	1376.8793	1393.4163	1409.3354	1469.4041	1487.2844	1489.5944	1594.9075	1810.6165	1842.1001	2905.2883	2942.8988	3033.3577	3052.9487	3082.2204	3129.4036	3138.0346	3604.5878	3745.0442
CC(OCC(N)=O)C=O	C[C@@H](OCC(=O)N)C=O	
InChI=1S/C5H9NO3/c1-4(2-7)9-3-5(6)8/h2,4H,3H2,1H3,(H2,6,8)	InChI=1S/C5H9NO3/c1-4(2-7)9-3-5(6)8/h2,4H,3H2,1H3,(H2,6,8)/t4-/m1/s1
