19
gdb 70686	2.21475	1.89532	1.25477	4.332	75.07	-0.256	0.0094	0.2654	1051.672	0.160453	-423.062891	-423.054721	-423.053777	-423.095591	31.473	
C	 0.116644262	 1.530796815	 0.0023445872	-0.460653
C	 0.0842605046	 0.0159136718	 0.0117043838	 0.173266
C	-0.8630958147	-0.6817041514	 0.9787714957	-0.306913
C	 0.6207300925	-0.7685662162	 1.1960217899	-0.080132
C	 1.3395042344	-2.0822471605	 0.9074201398	-0.244433
C	 1.8680067265	-2.0802465972	-0.5192429718	-0.075408
O	 0.837069128	-1.7808823649	-1.4769366217	-0.236017
C	 0.1576531856	-0.6081865754	-1.3546804052	 0.378981
O	-0.3904554859	-0.1425826991	-2.3176518182	-0.334514
H	 1.0835246355	 1.9073849331	-0.3484450309	 0.121084
H	-0.6564008363	 1.9201172436	-0.6645013343	 0.148622
H	-0.0545872137	 1.9257261844	 1.008202225	 0.110796
H	-1.4547472617	-0.0406507936	 1.6233775521	 0.120248
H	-1.3762146357	-1.5761737362	 0.6403515177	 0.127937
H	 1.0272839405	-0.1679347026	 2.0035927133	 0.09288
H	 2.1786517615	-2.2223169992	 1.5964833518	 0.111545
H	 0.6663928985	-2.9350841911	 1.0473827593	 0.116383
H	 2.676963455	-1.3466191282	-0.6300939548	 0.113245
H	 2.2542465834	-3.0578612124	-0.8167142687	 0.123083
69.0924	170.3841	208.986	234.4734	289.2119	301.5424	414.2487	428.2242	474.1547	532.6243	620.1153	696.7441	758.1889	795.1844	861.8011	878.7447	908.2028	963.4604	971.5669	990.711	1058.6879	1075.4759	1099.5259	1115.2562	1128.1704	1143.8416	1151.687	1246.1377	1269.3795	1286.4275	1343.5851	1365.0604	1406.2611	1412.5229	1423.5184	1478.622	1485.2902	1495.7694	1504.1665	1511.417	1835.7948	3024.6639	3037.0907	3042.7034	3085.521	3101.2231	3106.0486	3126.3013	3129.4683	3155.8509	3217.4982
CC12CC1CCOC2=O	C[C@]12C[C@H]1CCOC2=O	
InChI=1S/C7H10O2/c1-7-4-5(7)2-3-9-6(7)8/h5H,2-4H2,1H3	InChI=1S/C7H10O2/c1-7-4-5(7)2-3-9-6(7)8/h5H,2-4H2,1H3/t5-,7+/m1/s1
