17
gdb 46110	4.28399	0.91534	0.854	1.6466	72.61	-0.2528	0.0187	0.2715	1328.9725	0.137869	-418.073797	-418.065485	-418.064541	-418.107471	30.415	
O	-0.1076309901	 0.3035842309	 0.910684702	-0.370132
C	-0.1126054028	 1.3741479539	 0.3481725171	 0.40503
C	-1.2720630045	 2.0144308951	-0.4281765928	-0.359357
C	-0.8448052136	 3.4787545301	-0.6388554083	-0.005648
C	-1.4081125562	 4.3763438451	 0.4878987826	-0.346424
C	-1.0127942701	 5.7757730344	 0.3450070929	 0.259093
N	-0.682006296	 6.8748696652	 0.2098524356	-0.304716
C	 0.7031564338	 3.4021055256	-0.5906325027	-0.185389
N	 0.9338933104	 2.2573652055	 0.2721530365	-0.297333
H	-1.3731330078	 1.4839642518	-1.3810775742	 0.136609
H	-2.2124579094	 1.8917029638	 0.1134407282	 0.131951
H	-1.1789241398	 3.8764595269	-1.5990188511	 0.105326
H	-2.5020865133	 4.3209632004	 0.4953080469	 0.156851
H	-1.06427182	 4.0123297121	 1.4634535666	 0.164991
H	 1.1168299462	 3.2488087556	-1.5970194882	 0.11563
H	 1.1511500883	 4.3135077188	-0.1830500233	 0.136444
H	 1.8484632351	 1.9851154748	 0.5965776822	 0.257076
61.4334	90.0075	150.1594	166.9629	323.3299	348.5229	398.1601	466.8058	494.4616	546.7605	592.6658	678.8411	725.4079	828.699	858.0212	897.8264	937.7508	957.6175	999.7895	1035.3715	1082.1263	1110.1555	1183.3118	1213.5637	1224.0787	1257.3386	1271.79	1305.5228	1326.081	1368.5629	1380.0905	1446.3483	1464.3486	1469.1165	1534.7529	1839.2633	2361.0192	3006.2446	3043.6574	3059.0873	3077.1153	3081.0096	3097.674	3115.3959	3641.307
O=C1CC(CC#N)CN1	O=C1C[C@@H](CC#N)CN1	
InChI=1S/C6H8N2O/c7-2-1-5-3-6(9)8-4-5/h5H,1,3-4H2,(H,8,9)	InChI=1S/C6H8N2O/c7-2-1-5-3-6(9)8-4-5/h5H,1,3-4H2,(H,8,9)/t5-/m1/s1
