15
gdb 17030	4.37077	1.59248	1.34423	2.108	67.71	-0.2557	0.0327	0.2884	905.8493	0.119142	-362.55073	-362.543915	-362.542971	-362.581538	27.04	
O	 0.0824589731	 1.500286056	-0.035593583	-0.447557
C	 0.0664159608	 0.1170596654	-0.0325339034	 0.20628
C	 0.0145652723	-0.6350037037	 1.3359770935	-0.085642
N	-1.391448219	-0.0718200744	 1.4658109188	-0.366834
C	-1.3073001323	-0.6225141364	 0.0513969684	-0.085632
C	-0.5545104046	-1.8851112565	 0.5869476382	-0.174741
C	 0.2786008124	-2.6949321142	-0.2781846808	 0.290918
C	 0.9639868536	-3.3803353337	-0.9904658347	-0.4318
H	-0.5666523685	 1.7619918968	 0.6349010905	 0.291181
H	 0.7784749597	-0.2514437535	-0.7688416671	 0.106132
H	 0.7244841522	-0.616633761	 2.1638867488	 0.09255
H	-1.9670249917	-0.6827335108	 2.0521553406	 0.213944
H	-2.1549283338	-0.5894253599	-0.6343057535	 0.092548
H	-1.1857900014	-2.5062039806	 1.2305059561	 0.099995
H	 1.5700653971	-3.9825068536	-1.6213731826	 0.198659
137.6601	160.6883	303.2589	356.5079	421.0588	489.6835	534.6077	598.0572	629.9359	646.6306	672.1533	776.8385	818.0459	872.6222	879.094	901.6725	914.3616	1020.3151	1047.3052	1103.4708	1105.3276	1137.3076	1148.3258	1186.6232	1191.92	1237.0113	1266.213	1281.806	1341.3157	1371.512	1464.1105	2230.1643	3055.1508	3109.8964	3113.9814	3147.4869	3401.4946	3501.5513	3722.1636
OC1C2NC1C2C#C	O[C@H]1[C@H]2N[C@@H]1[C@H]2C#C	
InChI=1S/C6H7NO/c1-2-3-4-6(8)5(3)7-4/h1,3-8H	InChI=1S/C6H7NO/c1-2-3-4-6(8)5(3)7-4/h1,3-8H/t3-,4-,5+,6-
