19
gdb 75741	2.42375	1.51888	1.17134	3.9276	77.61	-0.2387	-0.0473	0.1914	1114.0126	0.157576	-423.065579	-423.05644	-423.055495	-423.099036	34.911	
C	-0.3438940791	 1.5016967383	-0.0483734489	-0.419524
C	 0.0796535851	 0.0371507936	-0.000445604	-0.126489
C	 1.0151433131	-0.3669539292	-1.1526333791	 0.371993
O	 0.979352389	 0.072916006	-2.2782370493	-0.337458
C	 1.9475125071	-1.388994418	-0.6163919026	-0.190495
C	 1.8018970924	-1.47918634	 0.7079228676	-0.092553
C	 0.7770761712	-0.5071367239	 1.274642042	 0.321202
C	 1.466026345	 0.5599572334	 2.1352805085	-0.439466
O	-0.2132288883	-1.1920813721	 2.0464802666	-0.467692
H	 0.5022288885	 2.1779407846	 0.1046698642	 0.117971
H	-0.761915699	 1.7201734118	-1.0342883976	 0.139645
H	-1.1020254707	 1.7213294205	 0.7086153351	 0.120075
H	-0.8120951778	-0.5921054905	-0.1199629397	 0.126157
H	 2.6332372504	-1.943533293	-1.2447343077	 0.119837
H	 2.3526792066	-2.147252523	 1.3642630989	 0.108497
H	 2.1902233767	 1.1408567756	 1.5575865102	 0.131279
H	 0.7234764235	 1.2414676308	 2.5587706638	 0.134162
H	 2.0096133653	 0.0865028999	 2.9621890461	 0.105917
H	 0.1787060609	-1.4360262448	 2.892489966	 0.276943
61.8124	191.8179	210.0744	243.4361	261.2097	270.3246	279.247	348.17	362.2494	372.9987	515.4132	550.8588	559.5525	676.0296	698.976	756.8012	801.8238	852.909	924.6473	947.0889	999.2393	1016.9965	1046.8008	1065.8952	1120.865	1138.2296	1146.4603	1161.7862	1227.378	1280.8552	1335.676	1346.3713	1379.2307	1399.4445	1410.5094	1483.9693	1486.6316	1501.7158	1503.6909	1653.5051	1816.0202	3027.3067	3031.9183	3046.2537	3096.6372	3115.3061	3124.9501	3126.6096	3172.8605	3221.0631	3798.356
CC1C(=O)C=CC1(C)O	C[C@H]1C(=O)C=C[C@]1(C)O	
InChI=1S/C7H10O2/c1-5-6(8)3-4-7(5,2)9/h3-5,9H,1-2H3	InChI=1S/C7H10O2/c1-5-6(8)3-4-7(5,2)9/h3-5,9H,1-2H3/t5-,7-/m0/s1
