15
gdb 24671	4.5291	1.17547	0.99469	1.6741	74.86	-0.2496	-0.0527	0.1969	1145.5227	0.11486	-416.827652	-416.820678	-416.819734	-416.859671	25.979	
C	 0.9098570891	 0.8455439242	-0.2604106333	-0.174469
O	-0.2462757744	 0.2662724826	-0.8582275515	-0.224647
C	-0.3522534841	 0.7133841748	 0.4937017496	-0.001456
C	-0.5349271694	-0.3301440066	 1.5392326989	 0.293648
N	-0.9257371523	 0.0937646007	 2.7453160716	-0.307144
C	-1.0677002832	-0.8412966734	 3.6852917499	-0.020987
C	-0.8300458166	-2.1888133381	 3.4283775994	-0.009231
N	-0.4583742274	-2.6206293977	 2.2206694684	-0.23673
C	-0.3162165899	-1.6881370969	 1.2798792821	-0.054759
H	 1.7263883746	 0.1558071343	-0.0526794743	 0.123205
H	 1.200662426	 1.821207944	-0.6463913241	 0.128703
H	-0.9529215775	 1.6082055244	 0.6486368915	 0.113983
H	-1.386285983	-0.5072394688	 4.6694527451	 0.118073
H	-0.9497031176	-2.9366954402	 4.2076380785	 0.118759
H	-0.0351120342	-2.0157094134	 0.2838867782	 0.133052
70.6934	143.2623	193.9006	313.2146	417.6163	429.1911	563.8155	588.8026	648.2315	794.3013	801.7577	867.8222	879.6097	915.2012	981.3282	993.9057	1005.4132	1031.6526	1079.0328	1092.7716	1151.704	1168.3227	1198.2024	1236.9162	1260.1418	1274.1504	1320.354	1415.4553	1436.3416	1507.9438	1523.9687	1581.2085	1616.9202	3086.5274	3131.7981	3156.5768	3175.3619	3179.6291	3184.863
C1OC1C1=NC=CN=C1	C1O[C@H]1c1nccnc1	
InChI=1S/C6H6N2O/c1-2-8-5(3-7-1)6-4-9-6/h1-3,6H,4H2	InChI=1S/C6H6N2O/c1-2-8-5(3-7-1)6-4-9-6/h1-3,6H,4H2/t6-/m1/s1
