17
gdb 27812	1.94145	1.83111	0.95347	3.0634	79.68	-0.2338	-0.0358	0.1979	1210.1038	0.136727	-418.102758	-418.09425	-418.093306	-418.13604	31.323	
C	 0.0196427006	 1.5012850253	 0.05845054	-0.464814
C	-0.0217644158	 0.0015944609	 0.0015244696	 0.326916
C	-1.1891948441	-0.6926138309	-0.1145572849	-0.290682
C	-1.1946555633	-2.135630049	-0.1669988942	 0.417583
O	-2.1462751686	-2.8869712103	-0.2684639034	-0.391837
N	 0.1180010993	-2.6597234414	-0.083316344	-0.373403
C	 1.2438018106	-1.9058199737	 0.0318965393	 0.394146
C	 2.5515885556	-2.6399835521	 0.1077482055	-0.488919
N	 1.2161569864	-0.6070333629	 0.0764202982	-0.363196
H	 0.633008538	 1.8895899478	-0.7614558934	 0.142532
H	-0.9785613609	 1.9387846724	-0.0038026223	 0.125418
H	 0.4960665796	 1.8272386513	 0.9891445537	 0.142518
H	-2.1486854828	-0.194591066	-0.1714067433	 0.111268
H	 0.1753949475	-3.6693741327	-0.1151851634	 0.260401
H	 2.7102317973	-3.2497621829	-0.788575462	 0.145137
H	 3.3606715719	-1.9163802041	 0.1962557622	 0.161756
H	 2.5733052487	-3.3119154519	 0.9728822825	 0.145178
100.3229	132.608	161.5485	185.4961	212.6332	278.5475	327.8223	509.0901	539.618	540.8222	563.2677	613.7758	622.321	733.2431	774.7591	880.3483	923.1052	968.513	987.0457	1040.3906	1057.6738	1058.8183	1067.7766	1202.6665	1227.997	1265.2334	1391.8956	1402.0908	1419.7139	1455.3898	1471.408	1478.843	1483.4033	1494.1118	1605.8364	1652.5959	1800.0142	3039.3483	3041.0167	3095.5348	3098.6774	3136.5756	3167.2208	3216.5126	3590.5571
CC1=CC(=O)NC(C)=N1	Cc1cc(=O)[nH]c(C)n1	
InChI=1S/C6H8N2O/c1-4-3-6(9)8-5(2)7-4/h3H,1-2H3,(H,7,8,9)	InChI=1S/C6H8N2O/c1-4-3-6(9)8-5(2)7-4/h3H,1-2H3,(H,7,8,9)
