20
gdb 50560	4.22637	1.00516	0.91033	4.2549	81.03	-0.2356	0.0287	0.2642	1319.5805	0.172517	-403.173723	-403.16528	-403.164336	-403.207432	31.801	
O	 0.1137379485	 0.0041158407	 0.6370382032	-0.343646
C	 0.1245325572	 1.2059973073	 0.4535979036	 0.139391
N	 1.2175151155	 1.9213446846	 0.1016246772	-0.046707
C	 2.5303242263	 1.2927495609	-0.081898776	-0.150651
C	 3.3798305031	 2.4178364699	-0.6963179347	-0.312557
C	 2.7352283318	 3.6771756758	-0.133498889	 0.36638
C	 3.3795164936	 4.4349886119	 1.000527556	-0.302326
C	 3.262967727	 5.0584321672	-0.3734741781	-0.331987
C	 1.2447811491	 3.3711354362	-0.1091671031	-0.239513
H	-0.7779721909	 1.8425223173	 0.5595298736	 0.064196
H	 2.9292358278	 0.9632830359	 0.8853702954	 0.119304
H	 2.4423368761	 0.4079779703	-0.7171903656	 0.128942
H	 4.4392776693	 2.3285846156	-0.445292959	 0.108319
H	 3.2922749043	 2.4029138653	-1.7894475593	 0.110126
H	 2.7436555917	 4.8206696798	 1.7907331426	 0.115665
H	 4.3618462585	 4.1171291514	 1.3345718561	 0.116173
H	 4.1653170542	 5.1645592681	-0.9666828242	 0.116777
H	 2.5493007174	 5.8652517347	-0.5071917069	 0.115847
H	 0.772904953	 3.6404828259	-1.0657037391	 0.110257
H	 0.7150446665	 3.9028731512	 0.6881794975	 0.11601
38.3635	136.0652	175.4765	195.5315	285.5808	329.6337	340.2396	381.0147	450.3279	564.0082	717.1027	761.1121	781.009	834.9672	877.6227	906.1957	914.189	947.9528	984.8344	999.5349	1032.0573	1040.8231	1057.398	1083.272	1118.7774	1171.7516	1186.6749	1197.3437	1208.7956	1241.3671	1290.1675	1316.7043	1327.9481	1362.4478	1393.6546	1413.4397	1447.0501	1467.7073	1491.7812	1507.9816	1520.0331	1527.0189	1789.0739	2920.0239	2988.6885	3029.7076	3036.9055	3061.4705	3094.3245	3105.2328	3125.3017	3129.3231	3203.3624	3217.9597
O=CN1CCC2(CC2)C1	O=CN1CCC2(CC2)C1	
InChI=1S/C7H11NO/c9-6-8-4-3-7(5-8)1-2-7/h6H,1-5H2	InChI=1S/C7H11NO/c9-6-8-4-3-7(5-8)1-2-7/h6H,1-5H2
