13
gdb 21663	3.48113	2.37813	1.41358	3.9912	65.25	-0.2045	-0.0243	0.1802	803.3092	0.09856	-394.820475	-394.813899	-394.812955	-394.850879	25.547	
N	-0.0072588223	 1.2969272371	 0.1054687292	-0.539088
C	-0.0399861662	-0.0552445302	 0.0384983068	 0.300709
N	-1.1843076845	-0.6906696124	 0.0204229611	-0.308344
N	-1.1012350697	-2.0448640287	-0.0023269479	-0.219155
C	 0.0407342191	-2.7509485445	-0.0135811945	 0.046644
C	 1.2579566977	-2.1261217522	-0.0113304011	-0.269623
C	 1.3117182731	-0.6959685342	 0.0060332365	 0.345664
O	 2.318134903	 0.0148408114	-0.0121545752	-0.418139
H	 0.9053283466	 1.6960235808	-0.0599749067	 0.27469
H	-0.8370501887	 1.8285523809	-0.09153087	 0.259692
H	-1.9976508816	-2.5015126897	-0.0088018508	 0.278691
H	-0.0786232888	-3.8286940837	-0.0282272608	 0.133626
H	 2.1766104423	-2.6971360848	-0.0296734266	 0.114632
146.9284	292.3087	302.7605	343.3499	450.9148	487.3633	506.6383	541.7109	579.0055	587.0486	604.2473	749.0104	780.672	850.7005	935.6888	940.5482	998.3675	1098.8364	1161.6394	1238.7528	1330.5706	1410.6478	1424.2076	1546.0368	1579.6007	1618.5543	1650.9493	1721.1247	3193.6858	3226.6856	3577.2602	3661.2884	3725.6556
NC1=NNC=CC1=O	Nc1n[nH]ccc1=O	
InChI=1S/C4H5N3O/c5-4-3(8)1-2-6-7-4/h1-2H,(H2,5,7)(H,6,8)	InChI=1S/C4H5N3O/c5-4-3(8)1-2-6-7-4/h1-2H,(H2,5,7)(H,6,8)
