21
gdb 53333	4.29396	0.89221	0.87094	0.1678	91.65	-0.236	0.0613	0.2973	1458.5305	0.184113	-349.92712	-349.918474	-349.91753	-349.962085	32.65	
C	 0.0580179952	 1.499022498	-0.062279937	-0.499273
C	 0.036513612	 0.0437972117	-0.0080541637	 0.087771
C	 0.0241373786	-1.1606822932	 0.0314399842	 0.042187
C	-0.0017923017	-2.614900349	 0.0833066891	-0.160528
C	 0.452008937	-3.2350465085	 1.4640073839	-0.227533
C	-0.8145627058	-4.0433460331	 1.7988777738	-0.005705
C	-1.1482797319	-4.7070084117	 0.4310288835	-0.231192
C	-1.4265191886	-3.2355632564	 0.0140044922	-0.007057
C	-1.9477008973	-3.0298031805	 1.4635724193	-0.220679
H	 0.7656404915	 1.8599075642	-0.8172552608	 0.14511
H	-0.9282647001	 1.9040508408	-0.3156299669	 0.144967
H	 0.3541416446	 1.9316126793	 0.900106098	 0.144285
H	 0.6144845035	-3.0114225423	-0.7318862541	 0.091698
H	 1.3400318734	-3.8641565515	 1.3562855461	 0.095795
H	 0.6668924092	-2.4601574833	 2.2031900056	 0.106969
H	-0.806621619	-4.6126257825	 2.7289866069	 0.057294
H	-0.3538189096	-5.2525623155	-0.0888356277	 0.084712
H	-2.0587216431	-5.3097092127	 0.4647574013	 0.094322
H	-2.021142257	-2.9771539835	-0.8619283881	 0.06427
H	-2.9447282832	-3.4511671806	 1.6107869168	 0.093506
H	-1.8908813776	-2.0249230896	 1.8902544774	 0.099082
17.7054	84.2378	99.1893	221.9329	285.3741	336.7398	410.9733	438.8962	499.216	536.4073	660.0705	752.0306	826.3574	835.9068	855.2209	865.5058	908.3397	946.6042	950.4223	967.3546	1016.341	1034.7059	1052.6977	1054.0311	1071.0607	1089.0357	1096.1884	1108.442	1167.1317	1195.163	1218.0048	1238.2435	1244.7735	1268.4365	1289.2099	1302.1479	1325.5439	1356.1329	1415.3397	1479.3773	1479.7168	1486.2213	1495.0887	1523.3601	2365.5012	3023.1301	3029.2539	3044.1449	3058.4584	3060.4862	3082.0925	3082.6254	3105.7874	3109.056	3111.9672	3117.1253	3121.781
CC#CC1CC2CC1C2	CC#C[C@H]1C[C@@H]2C[C@H]1C2	
InChI=1S/C9H12/c1-2-3-8-4-7-5-9(8)6-7/h7-9H,4-6H2,1H3	InChI=1S/C9H12/c1-2-3-8-4-7-5-9(8)6-7/h7-9H,4-6H2,1H3/t7-,8-,9+/m0/s1
