18
gdb 10709	2.45344	2.04684	1.42049	2.8384	67.89	-0.2364	0.0282	0.2646	951.1726	0.153961	-381.139892	-381.131245	-381.130301	-381.173008	32.098	
C	-0.2345248644	 1.2862017079	 0.4518696078	-0.387147
C	 0.256049824	-0.1421668287	 0.1855213161	-0.260663
C	 0.7473862303	-0.3536712389	-1.2335394262	 0.228656
C	 0.5273423833	-1.6743005978	-1.8944836286	-0.266692
N	-0.2195437261	-0.4914210566	-2.3448223409	-0.367246
C	 2.0159621399	 0.4053200172	-1.5849157517	 0.366906
N	 2.1501401993	 0.6910109427	-2.9072546498	-0.533598
O	 2.8429147162	 0.6894132181	-0.7362662406	-0.379002
H	 0.579106122	 2.0032576445	 0.314076703	 0.143572
H	-1.0532985548	 1.5641510627	-0.221278534	 0.107754
H	-0.5993196829	 1.3845353517	 1.4784947726	 0.115106
H	 1.0814155421	-0.3761019486	 0.8642121131	 0.132506
H	-0.5470676376	-0.8616484014	 0.3889113681	 0.083049
H	 1.2554424415	-2.0521512568	-2.6059497509	 0.129449
H	 0.0044304866	-2.4368425449	-1.3231141372	 0.120023
H	-1.1682061227	-0.5072269744	-1.9786986427	 0.23644
H	 1.3448555169	 0.5909692116	-3.5057310054	 0.27321
H	 2.9342656463	 1.2523318017	-3.1942032129	 0.257678
71.416	91.5912	189.9727	217.0016	271.8786	292.9937	353.886	379.8507	461.7977	495.6476	517.0748	648.4791	682.527	755.4401	776.8288	866.4364	884.9863	932.7016	980.3017	995.8113	1045.7251	1083.1995	1109.801	1116.2385	1146.7704	1253.8442	1258.7234	1295.644	1335.5809	1382.7777	1408.3313	1421.3429	1470.2368	1497.2413	1506.2079	1510.1705	1586.4904	1788.5556	3029.2079	3035.7268	3087.2347	3105.8533	3110.9069	3123.1423	3200.7638	3501.5373	3579.263	3723.7347
CCC1(CN1)C(N)=O	CC[C@]1(CN1)C(=O)N	
InChI=1S/C5H10N2O/c1-2-5(3-7-5)4(6)8/h7H,2-3H2,1H3,(H2,6,8)	InChI=1S/C5H10N2O/c1-2-5(3-7-5)4(6)8/h7H,2-3H2,1H3,(H2,6,8)/t5-/m0/s1
