20
gdb 22168	2.26552	1.48529	1.11928	0.4853	83.47	-0.236	0.0125	0.2485	1176.5616	0.169354	-403.131114	-403.121784	-403.120839	-403.164787	35.74	
C	-0.0539608125	 1.5603198799	 0.0317808109	-0.411337
C	-0.0301132961	 0.0179439836	 0.0110962713	 0.148164
C	-1.4729237039	-0.5282213193	-0.0015008491	-0.411291
C	 0.7834077837	-0.5164292148	-1.1539740794	-0.076384
C	 1.8376737843	-1.2396406575	-0.7815508464	-0.105048
C	 1.9598205837	-1.347158078	 0.7177349152	-0.354534
C	 0.7672753503	-0.5429080336	 1.1932442074	 0.369035
N	 0.4076626859	-0.3162878865	 2.3905398386	-0.22858
O	 1.2816799591	-0.9253008265	 3.3110825678	-0.392812
H	 0.9599494396	 1.9707605545	 0.0373661459	 0.115025
H	-0.5741489651	 1.9494184961	-0.8504033883	 0.107424
H	-0.5727005076	 1.9175192215	 0.9258622895	 0.129569
H	-2.0131801143	-0.168856512	-0.8842391205	 0.107436
H	-1.4808667102	-1.6218901597	-0.0197494064	 0.115024
H	-2.0093588471	-0.1968797599	 0.8920986871	 0.129545
H	 0.4973190525	-0.3052143585	-2.1792213714	 0.092934
H	 2.5441000431	-1.7092534916	-1.4566983535	 0.096617
H	 1.9155109908	-2.3798495944	 1.0889298099	 0.132338
H	 2.8985859625	-0.9361739055	 1.1126496237	 0.132354
H	 0.8942541614	-0.6741481678	 4.1563269777	 0.304519
67.329	161.0497	196.2878	222.1919	240.2219	260.4162	321.1617	330.5565	340.5937	418.694	487.2537	534.8949	587.5565	589.2727	718.7773	751.8038	801.7126	883.8711	947.7306	950.0207	962.9304	970.7309	981.8716	988.2553	1027.948	1106.6799	1143.5812	1157.4672	1173.6828	1235.514	1268.1612	1294.5378	1367.9944	1390.9723	1396.1003	1421.1644	1458.9678	1481.3334	1483.7119	1498.1802	1507.8995	1685.0525	1757.6695	3020.142	3030.456	3034.3793	3038.8255	3101.2627	3104.8342	3115.9675	3119.2219	3178.986	3205.1479	3816.8553
CC1(C)C=CCC1=NO	CC1(C)C=CCC1=NO	
InChI=1S/C7H11NO/c1-7(2)5-3-4-6(7)8-9/h3,5,9H,4H2,1-2H3	InChI=1S/C7H11NO/c1-7(2)5-3-4-6(7)8-9/h3,5,9H,4H2,1-2H3
