20
gdb 95035	2.56872	1.79926	1.27524	1.7149	77.6	-0.2458	0.0244	0.2702	1040.1122	0.17415	-403.190771	-403.183145	-403.182201	-403.222876	30.097	
C	-0.0883650455	 1.5507580618	 0.0329427907	-0.405504
C	 0.1322436772	 0.0408315392	-0.0332709302	 0.022056
C	 1.0646488188	-0.4465216379	-1.1603205091	-0.223076
C	 1.3947941161	-1.8936793328	-0.7611704599	-0.218641
C	 1.5488003525	-1.8421969099	 0.7755257018	-0.007584
N	 2.939567162	-1.5560427766	 1.1816077678	-0.269087
C	 2.9180048523	-0.4092140759	 1.7182270911	 0.113723
O	 1.7524785245	 0.2688995399	 1.8333004809	-0.231781
C	 0.7369122247	-0.5877234723	 1.2376742376	 0.071176
H	 0.85617522	 2.0731104781	 0.20536337	 0.127302
H	-0.5190071278	 1.9193785216	-0.9034435685	 0.111869
H	-0.7713578345	 1.8207250917	 0.8451542074	 0.113729
H	-0.8409098568	-0.4521805405	-0.1725074501	 0.075574
H	 0.6024623158	-0.3687489917	-2.1483715229	 0.095829
H	 1.9772912064	 0.1619383647	-1.1799782062	 0.108466
H	 0.5613892789	-2.5552322415	-1.0255414137	 0.095347
H	 2.2972615995	-2.2879722984	-1.2328169475	 0.114347
H	 1.2297263197	-2.7750849917	 1.247644626	 0.082969
H	 3.7790490644	 0.1132291179	 2.1215355202	 0.137613
H	-0.0084457481	-0.7723813459	 2.0148237646	 0.085672
83.759	183.0382	221.2239	233.7373	302.6774	372.6424	482.5545	518.5661	578.2321	622.6445	779.2935	810.94	841.1884	859.2586	893.1449	920.2026	948.3218	954.3547	963.247	985.6467	991.4321	1048.0831	1077.4209	1128.1766	1137.0147	1150.9911	1191.314	1209.9726	1263.3395	1295.3363	1303.4024	1319.2687	1329.7127	1342.051	1353.2175	1369.8344	1379.6874	1411.6242	1484.7792	1495.2174	1500.2573	1501.0005	1702.9116	2999.9248	3034.9094	3038.3656	3040.8695	3066.3791	3083.3141	3093.0441	3101.2836	3113.0775	3121.1925	3209.9865
CC1CCC2N=COC12	C[C@H]1CC[C@H]2N=CO[C@@H]12	
InChI=1S/C7H11NO/c1-5-2-3-6-7(5)9-4-8-6/h4-7H,2-3H2,1H3	InChI=1S/C7H11NO/c1-5-2-3-6-7(5)9-4-8-6/h4-7H,2-3H2,1H3/t5-,6+,7-/m0/s1
