20
gdb 15990	3.27016	1.66056	1.26482	1.0322	76.21	-0.2426	0.0841	0.3267	1037.5667	0.176459	-348.969789	-348.961409	-348.960465	-349.002742	31.306	
C	 0.1584467111	 1.4931276349	-0.234598606	-0.23704
O	-0.3228625336	 0.2187346109	-0.5962301615	-0.242295
C	 0.6514862592	-0.6001633323	-1.1844505274	 0.095956
C	 1.695439474	-1.3145137749	-0.2717258826	-0.251298
C	 1.429605945	-2.6288365105	-1.0660199578	-0.307919
C	 0.1542548249	-1.9785124375	-1.6174244864	 0.333549
C	-1.2479211207	-2.4612103024	-1.3897582817	-0.303459
C	-0.6980612476	-2.3405636971	-2.79354024	-0.339776
H	 0.9524481976	 1.4341031061	 0.5249267835	 0.107848
H	 0.556179633	 2.0392158235	-1.1048224656	 0.103186
H	-0.6824974238	 2.0541466552	 0.1803563144	 0.125557
H	 1.1466754629	-0.062026036	-2.0105567189	 0.057996
H	 2.7163553558	-0.9268929814	-0.2599710724	 0.092736
H	 1.316786893	-1.3778190602	 0.7517876113	 0.110278
H	 2.1831663002	-2.8092581192	-1.8392355004	 0.101004
H	 1.3064026093	-3.5428696354	-0.479888286	 0.101443
H	-1.3830003491	-3.4558733084	-0.9761646152	 0.105547
H	-1.9758496119	-1.7278930917	-1.0621444823	 0.128036
H	-1.0718308277	-1.5356110715	-3.4191370765	 0.111397
H	-0.4621691117	-3.2528852019	-3.3326259784	 0.107256
83.6738	95.644	163.2988	197.4445	245.6723	294.6983	351.4236	442.0933	504.4716	545.3328	731.7743	780.0259	786.8936	866.6826	897.4773	910.9086	931.4245	968.7012	998.3707	1039.8046	1053.8839	1073.1802	1106.9442	1123.1653	1162.3821	1183.3533	1188.1795	1191.3017	1225.1306	1236.2316	1251.104	1276.2927	1291.8725	1378.2805	1396.7534	1460.8769	1474.6764	1481.1934	1487.9423	1497.9124	1504.2404	1509.5387	2953.0719	2973.9263	3020.9818	3048.5161	3063.2698	3097.4818	3112.7686	3119.8486	3123.6089	3129.4482	3200.6654	3222.753
COC1CCC11CC1	CO[C@H]1CCC21CC2	
InChI=1S/C7H12O/c1-8-6-2-3-7(6)4-5-7/h6H,2-5H2,1H3	InChI=1S/C7H12O/c1-8-6-2-3-7(6)4-5-7/h6H,2-5H2,1H3/t6-/m0/s1
