19
gdb 80662	2.70479	1.76829	1.29174	4.0016	75.62	-0.2216	0.0583	0.2799	1018.7073	0.161897	-419.237499	-419.229527	-419.228582	-419.270174	30.867	
C	-0.040287756	 1.4286832208	 0.0222505922	-0.347595
N	-0.0055105234	-0.0114421893	 0.1639613935	-0.097425
C	-1.2428035143	-0.7894158765	 0.1110444133	 0.00548
C	-1.1636210911	-1.9463710395	 1.1471829465	-0.222944
C	-0.2813799507	-2.6466541808	 0.0760938328	 0.00438
C	-1.1252182908	-1.8853302631	-0.992699383	-0.240001
N	 1.051171177	-2.0603234837	 0.1602509844	-0.345053
C	 1.201814359	-0.6819664785	 0.0761837946	 0.440016
O	 2.2873450557	-0.1392622359	-0.0411183733	-0.429121
H	 0.9875037848	 1.7888311319	 0.0646652512	 0.168557
H	-0.4829682028	 1.7353022866	-0.9357618424	 0.114171
H	-0.6196755096	 1.8880737665	 0.8319533698	 0.116856
H	-2.096440674	-0.111487146	 0.1172159591	 0.076991
H	-0.7069583194	-1.7321908414	 2.1146531982	 0.11143
H	-2.1267740936	-2.4451672472	 1.2704668002	 0.105524
H	-0.2083218445	-3.7342278326	 0.0510710509	 0.07677
H	-2.083323533	-2.3746497645	-1.1797249517	 0.106271
H	-0.6387210061	-1.6153760072	-1.9324532948	 0.10582
H	 1.8471525028	-2.5779118993	-0.1747936215	 0.249875
61.9234	137.8477	154.6428	329.02	356.2416	362.7722	422.422	451.2732	495.8041	538.4763	646.0148	729.774	765.2383	797.0853	860.4301	872.9121	903.0125	977.6489	985.6917	1006.8366	1073.474	1094.6885	1107.6718	1117.6321	1145.1791	1159.899	1223.0488	1229.3174	1257.3424	1258.2209	1261.8406	1303.6816	1372.0145	1426.8958	1428.6454	1464.9062	1470.4185	1497.9117	1498.7492	1524.8911	1790.8228	3001.7385	3054.2217	3066.1438	3075.3476	3108.4739	3111.3661	3132.972	3142.5548	3156.6507	3652.954
CN1C2CC(C2)NC1=O	CN1[C@@H]2C[C@@H](C2)NC1=O	
InChI=1S/C6H10N2O/c1-8-5-2-4(3-5)7-6(8)9/h4-5H,2-3H2,1H3,(H,7,9)	InChI=1S/C6H10N2O/c1-8-5-2-4(3-5)7-6(8)9/h4-5H,2-3H2,1H3,(H,7,9)/t4-,5+
