19
gdb 93730	2.51486	1.25015	1.09269	1.9143	71.67	-0.2408	-0.0267	0.214	1193.8887	0.156979	-460.175394	-460.165912	-460.164967	-460.210316	34.44	
C	 0.1652533044	 1.5002018512	 0.1981491405	-0.441641
C	 0.0396713944	-0.017095414	 0.0529464208	 0.289459
C	 0.678499352	-0.5972627297	-1.212085313	-0.286754
C	 1.2312614774	-1.9436401382	-0.7390220529	 0.089465
O	 2.3098220384	-2.3462766282	-1.5592113219	-0.427805
C	 1.6314170169	-1.6142076725	 0.7100163254	-0.104663
O	 0.6867598812	-0.6579292573	 1.176532021	-0.306446
C	-1.4387038491	-0.4020964221	 0.1804973908	 0.138536
O	-2.1654398316	-0.6908624299	-0.7337904379	-0.254981
H	 1.2221729938	 1.7801680456	 0.2224439662	 0.130043
H	-0.3180557289	 2.0100036881	-0.6410796542	 0.13278
H	-0.300168112	 1.840592189	 1.1283648655	 0.128021
H	-0.0508192426	-0.6877482706	-2.017901599	 0.134882
H	 1.5143502196	 0.0225630683	-1.5511080862	 0.112828
H	 0.4305334698	-2.6975973888	-0.7441145608	 0.085113
H	 2.5348861102	-3.2558986096	-1.3417748886	 0.288088
H	 1.6102899891	-2.4770831126	 1.3843512568	 0.101464
H	 2.6492580423	-1.1960094649	 0.7057938278	 0.100241
H	-1.7900219152	-0.3979705839	 1.2364273796	 0.091369
41.9302	80.1066	122.2186	229.3962	243.5354	257.9201	298.7297	307.533	365.2961	412.763	471.412	528.8922	566.7271	653.6996	809.4905	863.2405	903.2754	910.386	938.5386	980.4844	1034.7834	1063.1459	1088.0114	1097.7138	1148.9679	1162.617	1197.9076	1234.5033	1265.1528	1296.7047	1313.5459	1343.144	1365.7873	1394.7173	1406.0321	1438.9836	1483.0141	1484.0923	1493.7375	1524.4575	1833.0686	2892.358	2990.3449	2999.6058	3037.459	3064.8271	3069.1317	3113.7105	3119.7413	3136.1994	3826.8885
CC1(CC(O)CO1)C=O	C[C@]1(C[C@@H](O)CO1)C=O	
InChI=1S/C6H10O3/c1-6(4-7)2-5(8)3-9-6/h4-5,8H,2-3H2,1H3	InChI=1S/C6H10O3/c1-6(4-7)2-5(8)3-9-6/h4-5,8H,2-3H2,1H3/t5-,6+/m1/s1
