19
gdb 107255	2.47002	1.74757	1.26218	0.3842	74.85	-0.2063	0.0705	0.2768	1048.033	0.157379	-422.931254	-422.922667	-422.921723	-422.963916	33.679	
C	 0.0082818695	 1.4121849014	 0.0062960903	-0.260837
O	-0.0615480791	-0.0066994349	 0.1173818807	-0.278645
C	-1.3311728168	-0.5277765816	 0.0726453154	 0.361139
C	-1.6270928253	-1.7379621059	-0.7488741318	-0.357176
C	-2.4253381783	-0.4658651661	-0.9868395763	-0.154197
C	-3.4783832987	-0.1678371201	 0.121774523	-0.109146
C	-3.5545128583	-1.2201071163	 1.2163839913	-0.364944
C	-2.4154441735	-0.2352544792	 1.181072817	 0.313328
O	-2.1862195852	 0.6882174382	 2.1870807973	-0.450495
H	 1.0694292405	 1.6716063892	 0.0158978497	 0.122169
H	-0.4371694689	 1.7537801871	-0.9377523368	 0.107256
H	-0.5003514941	 1.9053779354	 0.8405424644	 0.135259
H	-0.8740947546	-1.9107888984	-1.5126668531	 0.11882
H	-2.0602245277	-2.6494078238	-0.3511637605	 0.109232
H	-2.4391693519	 0.0157933639	-1.9557123873	 0.093726
H	-4.2577031453	 0.5728127852	-0.0011772861	 0.097884
H	-4.285319379	-0.9789402209	 1.9836476652	 0.115456
H	-3.4507082023	-2.283004731	 1.028601416	 0.11163
H	-1.7190285809	 0.2406322779	 2.9022230016	 0.289541
125.9821	141.1276	179.5902	222.6935	265.0535	315.4577	376.8792	431.0555	459.3064	475.2779	517.1377	593.3061	629.9282	785.1803	791.8848	834.762	900.8243	917.3827	953.6601	954.868	985.4635	1000.65	1021.9375	1048.3073	1078.3628	1080.5055	1095.6963	1155.6462	1180.6908	1215.7676	1223.6411	1243.1851	1283.5005	1300.4289	1363.323	1401.2957	1467.9759	1484.3413	1498.487	1512.8473	1517.1508	3009.0426	3085.8597	3116.4789	3126.0415	3130.0241	3191.4272	3201.0772	3201.5037	3209.2751	3780.1352
COC12CC1C1CC21O	CO[C@]12C[C@H]1[C@H]1C[C@@]21O	
InChI=1S/C7H10O2/c1-9-7-3-5(7)4-2-6(4,7)8/h4-5,8H,2-3H2,1H3	InChI=1S/C7H10O2/c1-9-7-3-5(7)4-2-6(4,7)8/h4-5,8H,2-3H2,1H3/t4-,5+,6+,7-/m1/s1
