13
gdb 129226	3.32265	1.45534	1.08052	2.933	72.7	-0.2506	-0.0971	0.1535	1035.5945	0.090001	-448.889107	-448.88178	-448.880836	-448.921573	26.963	
N	-0.0914593482	 1.3103313743	-0.1721553675	-0.494543
C	-0.0446908913	 0.0376390208	-0.0535969827	 0.359168
N	 1.1714181826	-0.6862037058	-0.1208074664	-0.314757
N	 1.5535498426	-1.888492424	 0.4490483722	-0.051656
N	 0.8213912361	-2.8908293595	 0.4595190976	-0.164515
C	-0.4768613938	-2.9924497388	-0.1619889721	 0.362632
O	-0.6949770349	-3.9687139453	-0.8334526791	-0.277994
C	-1.5153451001	-1.988772057	 0.1405555811	-0.175973
C	-1.3081867585	-0.6690347923	 0.1625720127	-0.022924
H	 0.8289220906	 1.728628966	-0.3198552866	 0.220854
H	 1.9816522272	-0.080315844	-0.1081520382	 0.26514
H	-2.5200744224	-2.3879111807	 0.2367780475	 0.146679
H	-2.1397730399	 0.0142615362	 0.2919275215	 0.147887
69.7381	83.1975	256.878	337.3261	354.0944	428.6648	441.5637	553.6053	617.465	659.8288	685.7985	732.2635	761.6643	843.2406	861.8821	890.1031	919.1197	1014.6989	1029.3532	1116.0357	1149.3598	1231.4328	1348.1393	1395.1003	1469.7457	1629.0529	1662.8284	1716.2895	1803.8368	3186.0375	3211.6618	3461.7972	3584.0772
N=C1NN=NC(=O)C=C1	[NH]C1=C[CH]C(=O)N=NN1	
InChI=1S/C4H4N4O/c5-3-1-2-4(9)7-8-6-3/h1-2H,(H2,5,6,7,9)	InChI=1S/C4H4N4O/c5-3-1-2-4(9)7-8-6-3/h1-2H,(H2,5,6,7,9)
