16
gdb 6323	4.47132	1.12116	1.10536	6.4665	63.47	-0.2402	0.014	0.2542	1113.1093	0.129117	-417.113353	-417.104042	-417.103098	-417.148567	31.432	
C	-0.0474861911	 1.451627327	 0.0773163563	-0.352342
N	 0.0606605184	 0.0042545933	-0.0160780256	-0.002631
C	-0.0627708947	-0.7746841988	 1.183866736	-0.309202
C	-1.4951749833	-0.7790691177	 1.7592727193	 0.401518
N	-1.5817418211	-1.2853883879	 3.0219242445	-0.518428
O	-2.4520154935	-0.3738483525	 1.1354096154	-0.340302
C	 0.154626025	-0.5978778378	-1.2386535667	 0.16424
O	 0.2157951495	-0.0257268538	-2.3039930355	-0.337465
H	 0.7258841211	 1.8505195529	 0.7448511681	 0.115147
H	 0.0936625029	 1.856173911	-0.9247514905	 0.168584
H	-1.0336157996	 1.7402403547	 0.4525295958	 0.150752
H	 0.2136150843	-1.8129595409	 0.9637152487	 0.141215
H	 0.6385786554	-0.4140482147	 1.9495401298	 0.120599
H	-0.787541976	-1.6598002541	 3.5111253193	 0.262523
H	-2.4938605971	-1.3860301738	 3.4362342602	 0.268528
H	 0.1874999998	-1.702196817	-1.146385065	 0.067264
35.9568	52.5209	134.0897	146.8363	160.9474	281.3312	305.9166	346.2854	381.5165	401.7449	490.6807	598.8933	642.1273	748.9756	818.5006	889.8706	987.9486	1024.9792	1085.0682	1106.2079	1156.164	1227.6878	1290.2648	1302.1686	1397.7721	1425.8401	1442.7986	1444.7264	1470.2551	1495.4794	1522.6356	1620.0337	1803.4594	1817.2659	2926.8432	3006.2066	3027.7782	3063.3991	3096.8652	3161.1648	3601.6512	3735.0603
CN(CC(N)=O)C=O	CN(CC(=O)N)C=O	
InChI=1S/C4H8N2O2/c1-6(3-7)2-4(5)8/h3H,2H2,1H3,(H2,5,8)	InChI=1S/C4H8N2O2/c1-6(3-7)2-4(5)8/h3H,2H2,1H3,(H2,5,8)
