17
gdb 9646	4.27408	1.20638	1.07722	4.3017	70.17	-0.2927	0.0076	0.3003	1140.6965	0.139945	-363.865434	-363.8565	-363.855555	-363.899123	31.554	
C	 0.2845000357	 1.5093509034	 0.1395239564	-0.377343
C	-0.2997600448	 0.1168135093	-0.1344556273	-0.227707
C	 0.3328263948	-0.5132672128	-1.3504824922	 0.04651
O	 1.6643105398	-1.0259826218	-1.2271530004	-0.27108
C	 0.6168748571	-1.9621318536	-1.509263194	 0.218959
C	 0.3257815576	-3.0179603399	-0.4648678891	-0.46843
C	 0.6346748936	-2.4741202367	-2.8746853628	 0.254555
N	 0.625794622	-2.8997807669	-3.9492140715	-0.331299
H	 1.3613609696	 1.4466845774	 0.3209778211	 0.138981
H	 0.1245905535	 2.1811717621	-0.7102708972	 0.123859
H	-0.1847196234	 1.9614312529	 1.0175375011	 0.121661
H	-0.1585220053	-0.5221964117	 0.7411137971	 0.110369
H	-1.3804007243	 0.1896765421	-0.31011508	 0.114136
H	 0.1753114393	 0.0416887977	-2.2778981644	 0.110388
H	 0.3399524962	-2.5859894248	 0.5357047116	 0.140778
H	-0.6516062689	-3.4750397564	-0.6454087333	 0.144513
H	 1.0834630576	-3.8052418204	-0.5115875051	 0.151149
67.0322	126.8555	140.5368	159.0841	221.2177	232.0692	284.9413	370.1105	414.8548	466.6683	576.2114	604.6401	687.3619	760.8789	838.7524	888.9643	924.0055	985.5655	1035.9407	1083.7257	1104.6084	1146.5607	1161.0316	1238.3052	1291.0626	1335.8475	1351.2711	1410.2098	1415.1787	1459.2653	1472.176	1484.4081	1496.8858	1498.4589	1509.5084	2356.2031	3037.3186	3041.1557	3054.2191	3084.7153	3097.1315	3115.5658	3120.4889	3121.6103	3156.0036
CCC1OC1(C)C#N	CC[C@H]1O[C@]1(C)C#N	
InChI=1S/C6H9NO/c1-3-5-6(2,4-7)8-5/h5H,3H2,1-2H3	InChI=1S/C6H9NO/c1-3-5-6(2,4-7)8-5/h5H,3H2,1-2H3/t5-,6-/m1/s1
