17
gdb 65913	2.66625	1.38436	1.16084	1.0525	69.03	-0.2467	-0.1065	0.1403	1102.6627	0.133541	-458.966212	-458.95735	-458.956405	-459.000275	32.384	
O	 0.646279245	 1.5134279438	 0.4311747873	-0.482391
C	 0.214505977	 0.181602069	 0.3109361693	 0.307346
C	-0.1476517914	-0.4873717194	 1.6559887029	-0.256162
C	-1.4190411372	-1.0890409324	 0.9994390811	-0.212242
C	-1.2603622445	-0.0835049001	-0.1704231659	-0.284799
C	 1.184148303	-0.6432308207	-0.522028727	 0.244454
O	 1.4908943148	-1.7926627077	-0.3040055921	-0.280539
C	 1.7680377019	-0.0045893265	-1.7975745435	 0.098261
O	 1.4820128464	 1.091526351	-2.2109753564	-0.240361
H	 0.7528358441	 1.869515118	-0.4620166394	 0.294708
H	 0.5874674567	-1.1817005281	 2.0645731741	 0.117889
H	-0.37725683	 0.2887690291	 2.3886777111	 0.118478
H	-1.2608664166	-2.1210887554	 0.6801236145	 0.120956
H	-2.3475332166	-1.0345119533	 1.5697185206	 0.107042
H	-1.8357878019	 0.8335513762	-0.0203036343	 0.120354
H	-1.4170138919	-0.4422630957	-1.1913334065	 0.102176
H	 2.4663861313	-0.685992948	-2.3256469258	 0.124831
50.6554	119.2407	120.1118	181.1289	234.6036	281.4607	354.6175	397.5053	489.1388	520.573	569.6741	619.5775	643.8698	685.6862	784.4596	810.8549	883.0953	940.3016	972.7009	976.5261	1038.5949	1047.7789	1095.7767	1193.7801	1203.94	1208.8565	1246.3156	1273.7837	1277.3208	1300.3578	1365.9241	1406.5035	1459.1214	1476.1714	1498.2866	1794.0592	1809.0549	2938.6967	3056.5212	3077.2211	3081.4127	3111.933	3129.9744	3146.1877	3744.3633
OC1(CCC1)C(=O)C=O	OC1(CCC1)C(=O)C=O	
InChI=1S/C6H8O3/c7-4-5(8)6(9)2-1-3-6/h4,9H,1-3H2	InChI=1S/C6H8O3/c7-4-5(8)6(9)2-1-3-6/h4,9H,1-3H2
