16
gdb 43866	3.51788	1.04607	0.90521	4.0525	74.77	-0.258	-0.0379	0.2202	1255.2889	0.123027	-400.756963	-400.748784	-400.74784	-400.790568	30.423	
O	 0.0582036401	 0.1230069228	-0.6661913342	-0.27658
C	 0.0180944907	 1.1993438691	-0.1517698854	 0.413351
C	-1.1282887164	 2.1224916128	 0.3082242217	-0.42382
C	-0.0478766661	 3.1211021233	 0.7612778951	 0.334689
C	-0.1123289887	 4.6076232723	 0.7006650333	-0.341952
C	-0.0637008284	 3.9110322179	 2.0577121585	-0.233813
C	-1.2386241217	 3.8756715919	 2.8807568088	 0.294395
N	-2.1955262325	 3.8225462058	 3.5295348091	-0.3374
C	 1.1007099263	 2.2051038041	 0.2989211941	-0.428625
H	-1.7782876162	 2.4589013391	-0.5055894264	 0.142129
H	-1.7549043213	 1.7048551193	 1.1028504686	 0.159129
H	 0.7757211051	 5.1595729072	 0.4117665421	 0.134447
H	-1.0509457383	 5.0703968466	 0.416422973	 0.145303
H	 0.8694712584	 3.9726003219	 2.6085438022	 0.136412
H	 1.7641028178	 1.8260407174	 1.0825394779	 0.141431
H	 1.7128417313	 2.5891525184	-0.5235544883	 0.140902
38.7279	113.1379	146.8619	283.2005	303.1621	357.937	418.2418	466.2732	490.8435	547.0701	610.4408	666.4537	721.7584	794.9819	844.8056	895.1036	900.7139	957.3682	1032.5898	1052.9768	1057.3033	1075.654	1085.1633	1120.9922	1189.4538	1197.301	1213.7382	1230.0641	1322.1477	1408.7989	1425.5878	1445.4568	1486.4409	1906.9186	2351.2422	3050.6117	3055.8912	3103.8979	3106.0724	3135.8507	3164.1916	3227.1764
O=C1CC2(CC2C#N)C1	O=C1CC2(C[C@H]2C#N)C1	
InChI=1S/C7H7NO/c8-4-5-1-7(5)2-6(9)3-7/h5H,1-3H2	InChI=1S/C7H7NO/c8-4-5-1-7(5)2-6(9)3-7/h5H,1-3H2/t5-/m0/s1
