19
gdb 35495	3.22131	1.3483	1.13593	0.8721	86.13	-0.2364	0.0211	0.2575	1125.1109	0.160345	-348.723907	-348.716109	-348.715165	-348.756242	31.137	
C	-0.8585959303	-0.9173798865	-1.1097955817	-0.461864
C	-0.5189465103	 0.1189873967	-0.6014355971	 0.324066
C	-0.0957988836	 1.3569983043	 0.0187965609	-0.168986
C	-0.0301427639	 1.4397290058	 1.5793315789	-0.246112
C	 1.3347980969	 2.1803628045	 1.485662015	-0.010677
C	 2.5239569683	 1.5262575938	 2.2138268687	-0.274559
C	 3.0102055093	 0.5082884317	 1.2052543958	-0.061246
C	 2.4202687001	 0.6323960834	 0.0153828536	-0.066785
C	 1.4249941447	 1.7592690373	-0.019053968	-0.078501
H	-1.1631748201	-1.8303222037	-1.5579343785	 0.191231
H	-0.6949125804	 2.1861052731	-0.3729675163	 0.098423
H	-0.8548628204	 1.9693994611	 2.0605998445	 0.103261
H	 0.0662869232	 0.4508185479	 2.0328660685	 0.113855
H	 1.2491996946	 3.2533971735	 1.6646786557	 0.066835
H	 3.3139299681	 2.2484483988	 2.4624416566	 0.102565
H	 2.2201932559	 1.0653383379	 3.1630243284	 0.103502
H	 3.7700457688	-0.2281429686	 1.4453794602	 0.091487
H	 2.621142775	 0.0101669719	-0.8493070354	 0.099005
H	 1.669204464	 2.5142895869	-0.7733872799	 0.0745
75.5121	129.978	209.3895	266.9898	347.3512	422.7592	495.561	525.679	612.3829	622.9666	653.5694	694.7189	750.6156	782.4191	783.4499	860.7166	894.934	925.5563	942.2044	958.5648	981.5543	1020.7929	1044.4502	1061.752	1090.1685	1102.7203	1134.7073	1197.3414	1199.1449	1223.5748	1244.5626	1264.0869	1298.8783	1310.0363	1333.1066	1342.4967	1387.6708	1480.415	1486.8385	1676.3959	2229.4639	3008.034	3037.0388	3039.0504	3051.7391	3068.6101	3092.5868	3126.8729	3180.8514	3207.7693	3505.1833
C#CC1CC2CC=CC12	C#C[C@H]1C[C@H]2CC=C[C@@H]12	
InChI=1S/C9H10/c1-2-7-6-8-4-3-5-9(7)8/h1,3,5,7-9H,4,6H2	InChI=1S/C9H10/c1-2-7-6-8-4-3-5-9(7)8/h1,3,5,7-9H,4,6H2/t7-,8+,9-/m0/s1
