13
gdb 20464	4.90163	2.06862	1.50068	3.4815	58.51	-0.2581	-0.0467	0.2114	772.8265	0.098623	-394.724016	-394.718225	-394.717281	-394.753986	22.023	
C	-0.000229924	 1.5177089642	 0.21747446	-0.292812
N	 1.2657650663	 1.9611123466	-0.4345465103	-0.30546
C	 2.2098936431	 0.8092012212	-0.5133193966	-0.292812
C	 1.3092021789	-0.3867799923	-0.3854792907	 0.321219
N	 1.331956618	-1.6742097758	-0.5318689534	-0.200133
O	 0.0489247591	-2.0785027435	-0.1981877093	-0.158559
N	-0.753265342	-1.0057433298	 0.1576851774	-0.200133
C	 0.0223732869	 0.0257433192	 0.0400283717	 0.321219
H	 0.0089978377	 1.7796458964	 1.2828271547	 0.144488
H	-0.8623704045	 2.012031403	-0.2352695951	 0.141985
H	 1.0445604041	 2.2474374788	-1.3811209667	 0.234527
H	 2.7847607188	 0.8428580019	-1.4412270269	 0.141985
H	 2.9237039877	 0.84526475	 0.3190550852	 0.144488
142.9041	250.391	282.0007	445.8227	603.3592	618.7127	675.9849	724.4609	763.4879	812.8293	822.9418	886.1416	899.5211	991.8339	1039.9892	1058.4806	1063.5944	1178.7967	1195.8727	1261.6339	1306.9544	1342.8753	1412.667	1472.0334	1489.3071	1496.3693	1561.5852	1666.1293	3032.4203	3033.2651	3107.8622	3108.3422	3541.974
C1NCC2=NON=C12	C1NCc2nonc12	
InChI=1S/C4H5N3O/c1-3-4(2-5-1)7-8-6-3/h5H,1-2H2	InChI=1S/C4H5N3O/c1-3-4(2-5-1)7-8-6-3/h5H,1-2H2
