23
gdb 83116	2.09761	1.60801	1.38157	0.1264	90.4	-0.2322	0.0355	0.2677	1133.7309	0.206813	-351.168624	-351.159647	-351.158702	-351.201579	35.53	
C	 0.1546544945	 1.621270856	 0.1359114361	-0.425628
C	 0.109544101	 0.1080203805	 0.1033174454	-0.041651
C	 1.2838385998	-0.7545060556	-0.3213698153	-0.092088
C	 2.6347711547	-0.1607758457	-0.6879958415	-0.279237
C	 3.377175044	 0.4720873294	 0.4554139219	-0.056704
C	 2.9560926677	 0.4731570073	 1.7176444402	-0.043101
C	 1.679730033	-0.1605106408	 2.197305504	-0.335113
C	 0.7996042707	-0.7847216335	 1.1171748815	 0.326904
C	 0.0386705498	-2.0104776865	 1.5870979625	-0.468343
H	 1.1261265524	 2.0044980603	 0.4544635546	 0.130023
H	-0.05742713	 2.0362287053	-0.8562769862	 0.111963
H	-0.6026194393	 2.0190286981	 0.82147385	 0.111748
H	-0.8553900259	-0.2736400961	-0.2256153331	 0.072329
H	 1.0189895011	-1.622133666	-0.9204199447	 0.0721
H	 3.2658088886	-0.9549186014	-1.1120753646	 0.108136
H	 2.5241833603	 0.572628183	-1.5013063833	 0.105148
H	 4.323587223	 0.9468224974	 0.2060611659	 0.080971
H	 3.5643673899	 0.9482324081	 2.4843756916	 0.081076
H	 1.942445468	-0.9423120986	 2.9249971755	 0.105139
H	 1.101975671	 0.5749353336	 2.7780788117	 0.104384
H	-0.6076044114	-1.7730306198	 2.4415452989	 0.111152
H	-0.5987091377	-2.4127575585	 0.7930530689	 0.109588
H	 0.7229156047	-2.8078566465	 1.9019994201	 0.111204
121.4733	158.9316	181.0652	212.2228	227.9697	262.3721	335.2494	383.7013	458.2094	461.1824	483.441	568.5044	661.5688	682.2812	777.3684	781.3153	873.7525	902.9761	927.0341	946.9901	963.1556	1003.9422	1011.326	1020.2261	1038.2181	1081.4903	1114.2708	1123.1173	1139.8627	1159.5007	1205.2019	1222.0724	1240.015	1261.511	1319.4835	1361.8727	1372.2201	1377.6177	1415.3878	1416.4985	1422.3772	1455.662	1474.7429	1479.5906	1492.7214	1499.2247	1503.858	1509.171	1736.9373	2987.3021	2989.2948	3007.3446	3011.7706	3014.3287	3028.614	3071.6595	3078.1846	3092.373	3109.0357	3128.652	3134.9021	3137.0444	3161.1609
CC1C2CC=CCC12C	C[C@H]1[C@H]2CC=CC[C@@]12C	
InChI=1S/C9H14/c1-7-8-5-3-4-6-9(7,8)2/h3-4,7-8H,5-6H2,1-2H3	InChI=1S/C9H14/c1-7-8-5-3-4-6-9(7,8)2/h3-4,7-8H,5-6H2,1-2H3/t7-,8+,9-/m0/s1
