18
gdb 23440	3.94555	1.13997	1.00177	1.0404	81.4	-0.2381	0.004	0.2421	1201.0943	0.148468	-401.908501	-401.90073	-401.899785	-401.940993	30.369	
O	-0.0834126083	 1.3738264266	 0.6102033304	-0.395971
N	 0.0198039722	-0.0327534772	 0.6412394911	-0.244336
C	-0.960826869	-0.5704769664	 0.0496447094	 0.429678
C	-2.243929209	-0.0965250958	-0.6026455731	-0.336232
C	-2.7331681325	-1.5833389011	-0.6178822873	-0.011916
C	-2.9624883353	-2.2298560053	-1.9975552037	-0.275232
C	-1.5979969427	-2.7734671477	-2.3575230925	-0.055573
C	-0.7175894547	-2.6824908375	-1.36088866	-0.077987
C	-1.3045807441	-2.0397903504	-0.1269059419	-0.162185
H	 0.6993083802	 1.6430669497	 1.1023867189	 0.304731
H	-2.8272917282	 0.6068992361	-0.0026594837	 0.126674
H	-2.1010024076	 0.3402585273	-1.5967218176	 0.123572
H	-3.5438575194	-1.7649470544	 0.0878770424	 0.076876
H	-3.7118915138	-3.0322505886	-1.9641506001	 0.106241
H	-3.3294592494	-1.5020756867	-2.733261573	 0.106521
H	-1.3849836947	-3.2004079182	-3.3320650605	 0.094915
H	 0.3150178105	-3.010252966	-1.4003811117	 0.102574
H	-1.2135861543	-2.6579630145	 0.7716892928	 0.087649
67.9745	150.578	187.71	308.3444	345.0822	376.3594	422.6058	459.8851	542.534	677.0547	711.1844	754.2032	787.5936	790.6703	855.8843	890.0743	941.4441	946.757	964.5348	977.2833	1009.8154	1041.6044	1052.607	1101.0077	1130.788	1164.0792	1189.7735	1195.6377	1240.5492	1243.9085	1267.2029	1306.7732	1322.73	1369.7706	1399.5086	1454.5708	1486.7347	1677.073	1780.3991	3011.8142	3038.2979	3050.4339	3059.1928	3097.2599	3112.3342	3180.7381	3208.1872	3819.3753
ON=C1CC2CC=CC12	ON=C1C[C@H]2CC=C[C@@H]12	
InChI=1S/C7H9NO/c9-8-7-4-5-2-1-3-6(5)7/h1,3,5-6,9H,2,4H2	InChI=1S/C7H9NO/c9-8-7-4-5-2-1-3-6(5)7/h1,3,5-6,9H,2,4H2/t5-,6-/m1/s1
