17
gdb 57088	3.60509	1.1148	1.04299	2.0965	75.65	-0.2427	0.0073	0.25	1191.9884	0.134418	-421.782522	-421.773806	-421.772861	-421.816361	32.289	
O	 0.2949574612	 1.5268229699	-0.0076628313	-0.414657
C	 0.1013203393	 0.1270639835	-0.0382512102	-0.083883
C	 0.6238042931	-0.4813974482	-1.2686799635	 0.328939
C	 1.062948981	-0.978236284	-2.270989789	-0.453364
C	 0.7318385024	-0.5316885726	 1.2184721863	 0.071844
O	 2.085378071	-0.0770291649	 1.3201242975	-0.288079
C	 2.345263211	 0.4103172559	 2.6392689261	-0.120831
C	 1.0087003743	 0.4073663117	 3.3242640309	-0.096532
C	 0.0968153947	-0.1230115376	 2.5199294357	-0.088771
H	 1.2459353094	 1.644463409	 0.1192632282	 0.288983
H	-0.9831271324	-0.0332453741	 0.0029272507	 0.114946
H	 1.4461822139	-1.4123069946	-3.1612624857	 0.197004
H	 0.7109760054	-1.6243766234	 1.0794218772	 0.095858
H	 3.0731716923	-0.24420715	 3.1448202913	 0.111598
H	 2.7960579055	 1.4107661423	 2.5753333077	 0.112393
H	 0.8578352828	 0.7770862995	 4.3301970267	 0.112568
H	-0.9534696051	-0.2756499823	 2.7322627413	 0.111983
59.7479	90.2511	134.5442	204.3346	245.599	289.386	387.5593	425.7944	454.2111	564.928	627.0751	667.0474	689.2463	710.5476	774.9496	817.2407	877.6893	931.5195	947.7864	957.4789	989.8716	1042.7414	1049.8027	1076.7632	1111.3291	1133.926	1201.1181	1247.1733	1272.7086	1321.4046	1350.1142	1366.9105	1384.666	1425.7964	1519.2571	1693.861	2233.3688	2975.1077	2979.1085	3014.2592	3039.5576	3210.791	3234.8679	3503.829	3767.4996
OC(C#C)C1OCC=C1	O[C@@H](C#C)[C@H]1OCC=C1	
InChI=1S/C7H8O2/c1-2-6(8)7-4-3-5-9-7/h1,3-4,6-8H,5H2	InChI=1S/C7H8O2/c1-2-6(8)7-4-3-5-9-7/h1,3-4,6-8H,5H2/t6-,7-/m0/s1
