25
gdb 103465	2.23909	1.4602	1.10417	0.2166	93.06	-0.2366	0.0853	0.3219	1272.8999	0.228163	-352.339911	-352.329833	-352.328889	-352.374062	39.224	
C	 0.3102165385	 1.372270211	 0.3550624094	-0.378105
C	-0.186347041	 0.0169080063	-0.1685431412	-0.258392
C	 0.6312275981	-0.5398585902	-1.3318997866	 0.313372
C	 0.4554229242	 0.263219058	-2.6148677359	-0.468239
C	 2.0321612261	-1.091032328	-1.1553687971	-0.141955
C	 2.207870712	-1.8096326576	 0.1859205484	-0.24278
C	 1.0267825312	-2.7573134028	-0.189166686	-0.288102
C	 0.8650939162	-2.0278181679	-1.5362641406	 0.291945
C	 0.5469543333	-2.792279713	-2.793747567	-0.496507
H	 1.3554418033	 1.3089613229	 0.6758234148	 0.11901
H	 0.2454103496	 2.156922274	-0.4049898416	 0.114857
H	-0.2849629304	 1.6995461495	 1.2135742281	 0.108018
H	-0.1999899209	-0.691598231	 0.6640023599	 0.097838
H	-1.2317065186	 0.1124260183	-0.4924297705	 0.088055
H	 0.6712258421	 1.3225104659	-2.4432123718	 0.116285
H	 1.1276539603	-0.0741365548	-3.4078652006	 0.114854
H	-0.5715847647	 0.1923786847	-2.9926130895	 0.111346
H	 2.8465723785	-0.730722596	-1.7758979541	 0.071811
H	 3.157125801	-2.3452677817	 0.2590222757	 0.098473
H	 2.0917592147	-1.1986969808	 1.0871181812	 0.094496
H	 1.3644130714	-3.7873600867	-0.3333063616	 0.096001
H	 0.1582022853	-2.7789884747	 0.4770931409	 0.092312
H	-0.4682070612	-3.2076880828	-2.7458136833	 0.115707
H	 0.6040508257	-2.1774035449	-3.6947946241	 0.117165
H	 1.2351688054	-3.6360228978	-2.9235030267	 0.112533
88.4618	147.0883	164.0946	196.8644	211.5173	237.464	274.148	316.3288	324.538	358.3595	371.2549	453.1083	525.6787	645.6676	648.9748	737.1597	787.827	795.3188	858.3555	927.0775	937.134	950.9282	958.0158	991.1277	1007.0037	1020.8515	1041.0269	1064.667	1113.0915	1124.5702	1128.8246	1188.4588	1200.6329	1223.9216	1235.2725	1252.3862	1284.2571	1290.4181	1331.5546	1362.9077	1406.1548	1412.1263	1422.3432	1435.5337	1478.8106	1487.8077	1488.3678	1493.1228	1497.7108	1505.4744	1507.8876	1511.4066	1515.6974	3016.971	3017.9365	3029.0552	3036.0991	3041.2825	3048.4563	3067.4021	3080.5264	3084.2095	3090.0323	3101.8184	3104.0061	3107.003	3111.0293	3120.5189	3157.0157
CCC1(C)C2CCC12C	CC[C@@]1(C)[C@H]2CC[C@@]12C	
InChI=1S/C9H16/c1-4-8(2)7-5-6-9(7,8)3/h7H,4-6H2,1-3H3	InChI=1S/C9H16/c1-4-8(2)7-5-6-9(7,8)3/h7H,4-6H2,1-3H3/t7-,8+,9-/m1/s1
