23
gdb 119700	2.90598	0.94526	0.84397	1.2281	86.13	-0.2419	0.0808	0.3227	1489.1745	0.205374	-388.261199	-388.251394	-388.25045	-388.296015	36.9	
C	-0.0257009203	 1.5606867892	 0.1146796125	-0.420203
C	 0.0786186853	 0.0505788471	 0.1725728198	-0.039384
C	 1.2909697704	-0.7582603212	-0.2170940456	-0.140818
C	 2.5921499923	-0.0694403041	 0.2100497208	-0.225422
C	 2.079965	-0.0505036047	 1.6847943036	-0.291414
C	 0.7848867291	-0.7562232282	 1.2366982907	 0.355591
C	 0.1056050338	-1.8458130554	 2.0206564599	-0.301203
C	-0.6613801989	-1.3157995952	 3.229902406	-0.066423
O	-1.224304894	-2.4274070735	 3.9110956518	-0.419699
H	 0.8956617914	 2.0569568644	 0.4297694658	 0.119418
H	-0.2463801932	 1.8962652843	-0.9049175485	 0.1155
H	-0.8315056274	 1.922946633	 0.7631974147	 0.11273
H	-0.8387265343	-0.4456605367	-0.1430596134	 0.079384
H	 1.2234191535	-1.5529118297	-0.9524197988	 0.077999
H	 3.4676815636	-0.7109491464	 0.0888562618	 0.101229
H	 2.8106272628	 0.8970144932	-0.2560258116	 0.093901
H	 2.6868118701	-0.6837291094	 2.3375084815	 0.100148
H	 1.9706406809	 0.9274672292	 2.1650055009	 0.090864
H	-0.5952953286	-2.3928182134	 1.3784778971	 0.101685
H	 0.8425769144	-2.577421011	 2.3767112408	 0.10035
H	 0.0219355197	-0.7515593831	 3.8854801487	 0.085876
H	-1.4414780024	-0.6144533317	 2.8928064509	 0.085886
H	-1.7015149781	-2.0997221466	 4.6787538706	 0.284004
72.0251	99.555	111.9039	186.9464	248.8696	257.6196	262.8694	287.158	340.5012	344.5399	450.0677	534.0046	695.1002	723.8095	760.7282	793.304	806.4208	907.4693	924.2235	955.2094	965.7266	990.1485	1005.6644	1025.0667	1061.05	1071.2321	1087.8592	1121.9547	1143.6368	1163.7577	1208.7169	1217.9236	1237.9198	1243.2763	1255.7524	1263.399	1300.1189	1322.0472	1339.8323	1351.5138	1413.7746	1458.3022	1464.1291	1477.2616	1487.4281	1502.4071	1505.5922	1511.2198	1527.1573	2962.8183	2988.8172	3021.453	3030.4575	3040.374	3048.8057	3065.6872	3084.6728	3087.1348	3105.1199	3107.9771	3123.5286	3165.2407	3830.3628
CC1C2CCC12CCO	C[C@H]1[C@H]2CC[C@@]12CCO	
InChI=1S/C8H14O/c1-6-7-2-3-8(6,7)4-5-9/h6-7,9H,2-5H2,1H3	InChI=1S/C8H14O/c1-6-7-2-3-8(6,7)4-5-9/h6-7,9H,2-5H2,1H3/t6-,7+,8+/m0/s1
