15
gdb 64554	2.29173	1.95972	1.22962	4.1281	66.16	-0.2633	-0.0509	0.2124	986.6203	0.109198	-457.702291	-457.694087	-457.693143	-457.735307	30.016	
C	 0.1185403467	 1.6413538408	-0.2035165348	-0.48837
C	-0.0190037972	 0.1269547171	-0.106955257	 0.228041
C	-1.3647116763	-0.364676312	-0.5885621824	 0.086613
O	-1.9947563602	-1.2428999034	-0.0558102081	-0.236717
C	 1.2367220207	-0.7028634038	-0.584567926	-0.117938
O	 1.947720415	-0.2482958435	 0.6307772983	-0.30412
C	 0.5834908373	-0.5630357837	 1.1532430061	-0.103289
C	 0.7716266694	-1.8710296005	 0.3370653962	 0.485517
O	 0.7932590583	-3.0486343415	 0.4360295985	-0.301637
H	 1.1198815506	 1.9504798755	 0.0982496661	 0.156579
H	-0.0598533636	 1.9807816491	-1.2292542686	 0.129499
H	-0.6109800622	 2.139246952	 0.4434221928	 0.135213
H	-1.7464033376	 0.1480817686	-1.5002744876	 0.087859
H	 1.7720840155	-0.6617389201	-1.5313185426	 0.119124
H	 0.3877852737	-0.3760737846	 2.2063521893	 0.123625
63.7327	141.6378	183.8735	223.4649	251.2428	310.8076	326.9889	465.0788	477.8628	581.135	684.8477	690.1159	759.7914	794.3435	810.5122	892.5009	935.2211	941.1829	996.9824	1055.3263	1111.1948	1122.6657	1133.5103	1159.2236	1214.2701	1243.7283	1286.3407	1399.9102	1425.1918	1491.9566	1502.2974	1819.3477	1954.3138	2878.765	3041.6389	3101.3284	3147.4957	3149.1749	3163.1733
CC1(C=O)C2OC1C2=O	C[C@@]1(C=O)[C@H]2O[C@@H]1C2=O	
InChI=1S/C6H6O3/c1-6(2-7)4-3(8)5(6)9-4/h2,4-5H,1H3	InChI=1S/C6H6O3/c1-6(2-7)4-3(8)5(6)9-4/h2,4-5H,1H3/t4-,5+,6+
