20
gdb 78275	2.56081	1.42803	1.14418	1.2914	80.12	-0.216	0.0613	0.2773	1172.9335	0.16918	-403.058524	-403.04952	-403.048576	-403.091466	34.911	
C	 0.026805289	 1.5223308774	-0.0309988695	-0.413826
C	-0.0309761146	 0.0141670462	-0.0538425538	 0.00527
C	 0.7036657014	-0.7020138688	-1.1219235534	-0.111081
N	 1.2777159299	-0.6201958234	 0.264516332	-0.164343
C	 1.1690669236	-2.12084833	 0.3508351911	-0.123312
C	-0.1210163272	-2.8265759895	 0.0116016803	 0.031291
O	-1.441459197	-2.482209296	 0.3391581392	-0.418624
C	 0.6687702627	-2.2451646021	-1.1093658695	 0.279558
C	 1.1821016012	-3.031324986	-2.2821514893	-0.494326
H	 0.9783378302	 1.8816318813	-0.4336201127	 0.124263
H	-0.7879556629	 1.9478994274	-0.626452396	 0.116703
H	-0.0670994039	 1.8962358926	 0.993635505	 0.121321
H	-0.9313735312	-0.4330383219	 0.341964335	 0.115375
H	 1.1930754851	-0.1770797211	-1.9386465138	 0.088821
H	 1.9758147095	-2.6276918455	 0.8700430623	 0.095235
H	 0.049745775	-3.9066529303	 0.0578360727	 0.091521
H	-1.5634537409	-2.6608650771	 1.2786804414	 0.286626
H	 0.4761013374	-2.9905424215	-3.1210520088	 0.126321
H	 2.1404792392	-2.634938636	-2.6364053767	 0.123828
H	 1.3289095433	-4.0838939556	-2.0218365155	 0.119378
164.936	186.6616	194.5238	205.7601	227.804	246.2472	292.2963	313.8733	339.8672	447.0368	518.4176	584.1032	638.3605	729.2615	738.8895	821.616	849.7422	896.4765	952.4076	960.0159	978.3536	1012.2282	1032.2815	1040.9983	1089.5957	1103.4342	1138.6644	1153.7508	1170.5664	1213.4546	1248.7618	1265.241	1285.9519	1326.2963	1358.0574	1409.8691	1415.9482	1430.346	1483.0807	1487.21	1488.7953	1495.1979	1503.0815	3020.0989	3034.8225	3053.7075	3078.2469	3101.5394	3102.9575	3112.7948	3136.6332	3161.5708	3226.3909	3793.2989
CC1C2N1C1C(O)C21C	C[C@H]1[C@H]2N1[C@H]1[C@@H](O)[C@@]21C	
InChI=1S/C7H11NO/c1-3-4-7(2)5(6(7)9)8(3)4/h3-6,9H,1-2H3	InChI=1S/C7H11NO/c1-3-4-7(2)5(6(7)9)8(3)4/h3-6,9H,1-2H3/t3-,4+,5-,6+,7-,8?/m0/s1
