16
gdb 78435	3.52445	1.41037	1.37236	2.2057	66.76	-0.2489	0.0164	0.2653	970.5331	0.126076	-437.850696	-437.843882	-437.842937	-437.881789	27.203	
O	-0.0392493104	 1.3090564763	-0.0614041577	-0.436675
C	-0.0173308214	-0.0881864332	-0.0055355297	 0.088153
C	-0.4801843882	-0.6873336019	 1.3021370678	-0.127139
C	-1.3818700582	-0.6825177689	 0.0344216153	-0.063245
C	-1.3261453442	-2.2231157379	-0.005223022	-0.048221
N	-0.4968037059	-2.8642875816	-1.0336148818	-0.260805
C	 0.5946659167	-3.1503192321	-0.4493146357	 0.107441
O	 0.782588507	-2.8572730683	 0.8684960411	-0.23334
C	-0.4500865116	-2.2107628472	 1.2781163717	 0.05552
H	 0.7558872999	 1.6344767813	 0.3734188568	 0.290259
H	 0.776721041	-0.5555927164	-0.5854846646	 0.101638
H	-0.5532300014	-0.0680874951	 2.1876970654	 0.093325
H	-2.2514240902	-0.0722312437	-0.172500683	 0.10538
H	-2.3072115557	-2.6961745992	 0.0630160054	 0.09116
H	 1.446325503	-3.6339833405	-0.9166760791	 0.138675
H	-0.8172827904	-2.7050636117	 2.1776105101	 0.097874
156.9882	183.1349	292.2015	300.128	353.7588	459.9871	507.1396	640.5015	668.5998	769.8958	795.4463	838.1896	881.5277	891.9237	911.4354	945.6899	974.9993	979.6346	1006.6681	1049.9572	1054.005	1092.2902	1097.5301	1134.4788	1164.2369	1221.9654	1231.2488	1261.0412	1295.7535	1306.6264	1319.9395	1333.8554	1358.9661	1460.4359	1672.1374	3093.8886	3112.3428	3112.8865	3189.1936	3204.4146	3206.8297	3809.3076
OC1C2C1C1N=COC21	O[C@H]1[C@H]2[C@@H]1[C@H]1N=CO[C@@H]21	
InChI=1S/C6H7NO2/c8-5-2-3(5)6-4(2)7-1-9-6/h1-6,8H	InChI=1S/C6H7NO2/c8-5-2-3(5)6-4(2)7-1-9-6/h1-6,8H/t2-,3-,4-,5-,6+/m1/s1
