14
gdb 28842	3.45477	1.37938	1.01492	4.2084	79.28	-0.2293	-0.0808	0.1486	1093.0254	0.102672	-432.906782	-432.899203	-432.898259	-432.939238	28.327	
N	 0.0304296195	 1.3240004947	-0.2204447435	-0.501163
C	-0.0504202882	 0.0014369494	 0.0490554482	 0.452542
N	-1.248380708	-0.5212503323	 0.1352482911	-0.337288
C	-1.5156584706	-1.8464593508	 0.1588733457	 0.016102
C	-0.7337037469	-2.9454422239	-0.064280295	-0.19907
C	 0.6997135217	-2.984952011	-0.2431064348	 0.31521
O	 1.3250098887	-3.9741333264	-0.6038889369	-0.359448
C	 1.5004849765	-1.7865286451	 0.1820562389	-0.043123
N	 1.2062685704	-0.5448722362	 0.27653854	-0.267913
H	 0.9120696688	 1.792103974	-0.1067172951	 0.276648
H	-0.8220747248	 1.8506232246	-0.3033633652	 0.275261
H	-2.5732646321	-2.0456503889	 0.3310972598	 0.116598
H	-1.2212063857	-3.9151254574	-0.097572147	 0.112451
H	 2.5314593408	-2.0595208408	 0.423112464	 0.143192
51.368	165.9244	295.6762	303.968	341.4765	368.6372	384.084	455.6912	516.2786	592.5081	624.1153	715.4712	765.3797	793.8084	848.6406	859.7617	922.9322	990.1628	1005.5534	1027.3214	1150.0104	1287.8081	1343.2057	1386.8919	1412.4502	1462.7917	1540.9627	1601.1779	1633.331	1704.6917	1724.6444	3103.2485	3128.4848	3181.3359	3618.49	3759.5934
NC1=NC=CC(=O)C=N1	N[C]1N=C[CH]C(=O)C=N1	
InChI=1S/C5H5N3O/c6-5-7-2-1-4(9)3-8-5/h1-3H,(H2,6,7)	InChI=1S/C5H5N3O/c6-5-7-2-1-4(9)3-8-5/h1-3H,(H2,6,7)
