20
gdb 119712	3.247	1.02353	0.91165	1.8608	75.65	-0.2244	0.0666	0.291	1368.5909	0.170037	-440.218312	-440.209088	-440.208143	-440.25285	34.356	
C	-0.0645329154	 1.5378996506	 0.0706124643	-0.387143
C	-0.0424028162	 0.0281709081	 0.2261822557	-0.060164
O	-1.2868463896	-0.4868460579	-0.2525998011	-0.285715
C	-1.4121649295	-1.8491570429	-0.1245924667	 0.353446
C	-0.9738624878	-2.8718289383	-1.1829064748	-0.250763
N	-2.1278235727	-3.764997597	-0.8035964136	-0.356124
C	-2.6675551561	-2.6973073573	 0.0752459015	-0.179949
C	-1.6724176903	-2.5573998793	 1.1918116911	 0.077676
O	-0.9465455941	-3.6499485811	 1.6550560402	-0.439541
H	 0.8755540232	 1.9698905358	 0.4264571591	 0.117302
H	-0.1987193773	 1.8153038792	-0.9788148063	 0.12649
H	-0.8867537772	 1.9716313102	 0.6469497244	 0.127044
H	 0.7894062752	-0.409142668	-0.346223636	 0.095676
H	 0.0967095301	-0.2604290714	 1.2777399782	 0.103547
H	-1.0743000101	-2.4622348007	-2.192046992	 0.113401
H	 0.0069535536	-3.3440796534	-1.066517636	 0.110813
H	-2.7327620092	-3.9362357976	-1.5986226881	 0.231118
H	-3.7243999728	-2.4655230815	 0.1329965691	 0.101287
H	-1.9737056392	-1.880487267	 1.9870325223	 0.106263
H	-1.1652961046	-4.3719275001	 1.0445411689	 0.295333
62.0824	74.7877	119.3748	212.6344	239.6771	262.7885	325.9015	348.344	372.7977	496.2594	520.3789	637.9039	688.6536	769.8513	816.7772	823.382	832.9431	901.1298	944.9795	956.5215	987.3435	1001.7081	1042.554	1070.4552	1096.8003	1128.9387	1138.9089	1153.3237	1184.2704	1213.5467	1258.4866	1273.125	1293.0714	1304.9039	1355.3436	1394.7462	1406.7264	1426.231	1478.175	1482.8915	1499.6477	1503.7177	1526.3527	2988.3822	3024.1218	3042.9341	3044.9712	3099.0726	3119.7828	3121.4436	3155.3387	3184.4829	3539.4544	3689.3764
CCOC12CNC1C2O	CCO[C@]12CN[C@H]1[C@H]2O	
InChI=1S/C6H11NO2/c1-2-9-6-3-7-4(6)5(6)8/h4-5,7-8H,2-3H2,1H3	InChI=1S/C6H11NO2/c1-2-9-6-3-7-4(6)5(6)8/h4-5,7-8H,2-3H2,1H3/t4-,5+,6+/m0/s1
