22
gdb 26175	3.86286	0.89866	0.87132	1.5995	90.99	-0.1898	0.0538	0.2436	1497.9589	0.194003	-367.267715	-367.25767	-367.256726	-367.302946	37.269	
C	 0.0535104073	 1.4510588357	-0.2899687135	-0.38009
C	 0.0222492124	-0.0396269239	 0.1000094218	-0.083509
C	 0.690107842	-0.2643881333	 1.4706145651	-0.380135
C	-1.3656630171	-0.6117228282	 0.0442617308	 0.345695
C	-1.8957620243	-1.6114930813	-0.7410905251	-0.351202
C	-3.2740384345	-1.7751836233	-0.4019549427	 0.294614
C	-4.2428092829	-2.748972116	-1.0025218166	-0.499044
C	-3.5405300679	-0.8598347596	 0.5892220682	-0.185172
N	-2.3844612418	-0.16199581	 0.8532102402	-0.31092
H	 1.0814264643	 1.8286716553	-0.3057042065	 0.11012
H	-0.3875392408	 1.6077797941	-1.2782492189	 0.122632
H	-0.5087762186	 2.0621578782	 0.4260595632	 0.101287
H	 0.6035213813	-0.5916439631	-0.6479923523	 0.08667
H	 0.1568515096	 0.2694711833	 2.266172601	 0.101285
H	 0.7009962874	-1.3259372666	 1.7328832908	 0.122633
H	 1.7222633727	 0.1017852545	 1.4662878498	 0.110136
H	-1.349096912	-2.171747548	-1.4863675484	 0.08065
H	-3.9178803155	-3.7869846515	-0.8622077829	 0.120273
H	-5.2337869982	-2.6510647909	-0.5489032892	 0.114214
H	-4.3586795572	-2.595937358	-2.0822822614	 0.120264
H	-4.4532617964	-0.650166736	 1.1249640966	 0.106452
H	-2.2992455697	 0.5701492987	 1.53568156	 0.253149
40.4979	98.8471	121.8267	176.5842	225.8887	248.7999	252.4769	283.5224	351.784	384.3299	473.921	474.5794	605.9248	638.8812	694.6087	699.7552	717.5956	806.2853	877.493	927.1749	958.0528	985.2439	988.2024	1005.426	1063.7739	1064.2091	1120.1548	1138.162	1151.038	1198.5075	1270.6437	1316.1325	1336.3879	1342.3516	1396.5488	1411.3192	1418.7752	1425.8161	1462.6064	1482.9983	1484.6239	1491.0437	1502.1541	1503.2631	1504.8794	1548.1287	1636.2191	3020.0996	3024.7598	3028.2129	3037.4323	3066.3006	3085.8841	3094.4423	3099.1631	3111.8439	3113.9095	3229.6816	3253.0621	3685.4225
CC(C)C1=CC(C)=CN1	CC(C)c1cc(C)c[nH]1	
InChI=1S/C8H13N/c1-6(2)8-4-7(3)5-9-8/h4-6,9H,1-3H3	InChI=1S/C8H13N/c1-6(2)8-4-7(3)5-9-8/h4-6,9H,1-3H3
