25
gdb 104167	3.06509	1.01178	0.97506	1.4221	88.73	-0.2382	0.0794	0.3176	1428.5076	0.228012	-389.518346	-389.507993	-389.507049	-389.553648	39.293	
C	-0.1431437622	 1.5665915106	 0.0522591256	-0.392505
C	-0.0142933838	 0.0421658008	-0.009286916	-0.20298
C	 0.7498155663	-0.4935941383	-1.2346865379	 0.408066
C	 2.1731261107	 0.0662161143	-1.3245231436	-0.424832
C	 0.7361173378	-2.0442071407	-1.2776693199	-0.288686
C	 0.3802654328	-2.3821440231	-2.735716172	 0.027144
C	-0.25410158	-3.7540300455	-2.9478122877	-0.412988
C	-0.5227797849	-1.1935125498	-3.0804256437	-0.08128
O	 0.0570339626	-0.072868713	-2.4361519956	-0.301038
H	 0.8253924119	 2.055046677	 0.1972748437	 0.112973
H	-0.5794160126	 1.9476337152	-0.8750813402	 0.13335
H	-0.7889692338	 1.8665757814	 0.8833093279	 0.106037
H	 0.4756832461	-0.3349989279	 0.8982851434	 0.089381
H	-1.0170942767	-0.4028852775	-0.0244124069	 0.090648
H	 2.723316847	-0.1079862316	-0.3935659901	 0.107232
H	 2.7202247347	-0.4117791792	-2.1426743879	 0.109833
H	 2.1547200964	 1.1410063817	-1.5205930153	 0.125533
H	 1.6904063594	-2.4729087456	-0.9602173539	 0.099046
H	-0.0392374144	-2.4366729697	-0.6087627708	 0.091823
H	 1.2867471934	-2.3055033109	-3.3495807064	 0.077424
H	-1.1650556383	-3.8624742405	-2.3477887836	 0.114631
H	-0.5242461824	-3.9109049357	-3.9977415402	 0.115157
H	 0.4312631363	-4.5577322617	-2.6601121844	 0.117165
H	-0.579891442	-0.9787261982	-4.1526671943	 0.100911
H	-1.5497471442	-1.3780416523	-2.7179359803	 0.077955
39.7766	104.4392	139.8969	211.4979	220.1953	232.2713	269.5413	274.5561	328.9289	358.0027	408.4566	434.8329	459.2482	566.2141	633.2108	768.6772	779.5198	860.8692	872.6255	892.6679	923.3822	936.0062	969.5411	997.7278	1007.5949	1064.0516	1083.4981	1088.3022	1112.3645	1150.1802	1185.3778	1192.0182	1212.5306	1250.8892	1268.6091	1307.1806	1324.6345	1336.3017	1358.9316	1370.3773	1402.1052	1407.2444	1409.9188	1413.8265	1472.5411	1485.6768	1491.8905	1494.6324	1496.2759	1498.9828	1506.1942	1511.7744	1521.7441	2944.1209	3013.8452	3021.8652	3026.2207	3034.8966	3038.2348	3041.7353	3050.3159	3067.3174	3090.402	3095.495	3098.8793	3103.7901	3105.2471	3121.2332	3124.4415
CCC1(C)CC(C)CO1	CC[C@@]1(C)C[C@@H](C)CO1	
InChI=1S/C8H16O/c1-4-8(3)5-7(2)6-9-8/h7H,4-6H2,1-3H3	InChI=1S/C8H16O/c1-4-8(3)5-7(2)6-9-8/h7H,4-6H2,1-3H3/t7-,8+/m1/s1
