20
gdb 9920	4.89398	0.86253	0.8251	1.7889	71.68	-0.253	0.0745	0.3275	1433.2885	0.175151	-386.118906	-386.10943	-386.108486	-386.153483	34.498	
O	-0.0268518114	 1.4220600534	-0.2276998025	-0.422254
C	 0.0342956351	 0.031668567	 0.0533262452	-0.076245
C	-1.373061784	-0.5349599105	-0.0734228526	-0.176989
C	-1.4426369382	-2.0367678939	 0.2276576145	-0.249691
C	-2.8425632965	-2.6075443929	 0.096751347	 0.429185
O	-3.7807725031	-2.0677292895	 0.9951147615	-0.472333
C	-3.3566411604	-3.0477183204	-1.2531961338	-0.319443
C	-3.0361560456	-4.0665322736	-0.1734554483	-0.306362
H	 0.8586639207	 1.7861807501	-0.139462827	 0.285291
H	 0.7084533134	-0.4875685359	-0.6480924304	 0.083305
H	 0.4188923979	-0.1539102773	 1.0697024886	 0.086168
H	-2.0220747346	 0.0174427577	 0.617074505	 0.101221
H	-1.7402720482	-0.3345847568	-1.0874316759	 0.106035
H	-0.7734674234	-2.5816912206	-0.4499365729	 0.092183
H	-1.0845354788	-2.2260697965	 1.2481405688	 0.103227
H	-3.9944375796	-1.1762481511	 0.6995422792	 0.283401
H	-4.4044854918	-2.8676397687	-1.4660930338	 0.112567
H	-2.6981909669	-2.9788169567	-2.112837844	 0.108661
H	-2.158870622	-4.6927566227	-0.2946873639	 0.109687
H	-3.8736876625	-4.5421125311	 0.3232369252	 0.122385
64.	82.8935	121.4125	141.904	262.6413	274.1917	290.4505	319.325	346.8213	431.316	442.3429	528.8249	732.635	766.2957	777.7637	863.9721	908.5737	924.4047	938.9608	981.8343	1029.9685	1043.8685	1048.9323	1075.4283	1081.7069	1110.2137	1188.1302	1206.5012	1230.7124	1264.1106	1291.346	1312.1818	1316.0086	1326.3796	1365.5612	1405.9426	1452.3815	1462.4343	1476.6364	1498.2338	1501.9386	1528.6626	2957.7272	2983.2351	3016.6794	3029.8005	3052.1911	3078.3076	3129.5203	3137.3979	3215.3003	3231.3088	3803.4566	3829.8291
OCCCC1(O)CC1	OCCCC1(O)CC1	
InChI=1S/C6H12O2/c7-5-1-2-6(8)3-4-6/h7-8H,1-5H2	InChI=1S/C6H12O2/c7-5-1-2-6(8)3-4-6/h7-8H,1-5H2
