23
gdb 104988	2.27867	1.38513	1.16181	2.1453	81.32	-0.2418	0.0779	0.3196	1225.4319	0.202273	-425.402316	-425.391766	-425.390822	-425.437202	40.539	
C	 0.0482073118	 1.2468737197	-0.6036404356	-0.253006
O	-0.1238847011	-0.0805692129	-0.1633506538	-0.311428
C	-1.4305946391	-0.5535634187	 0.1151810559	 0.426767
C	-2.2662525268	 0.1358501061	 1.1556485749	-0.323884
C	-2.6484239158	 0.2153210536	-0.3139247476	-0.351432
C	-1.3485439652	-2.0893831448	 0.0287547588	 0.314397
C	-0.4431560252	-2.6124509866	 1.160128698	-0.411271
C	-2.7073089998	-2.7875929663	 0.0702437471	-0.427121
O	-0.7865785477	-2.4304392938	-1.2385098989	-0.47364
H	 1.1265760294	 1.4050638434	-0.6825648828	 0.130935
H	-0.4066574131	 1.4198262069	-1.5879178148	 0.118849
H	-0.354708894	 1.9825985426	 0.1065522231	 0.114074
H	-2.8724035312	-0.4644972825	 1.8247236902	 0.117506
H	-1.8630141582	 1.0329196866	 1.6139400226	 0.113894
H	-2.5195648334	 1.1715839308	-0.8060224326	 0.114064
H	-3.513948496	-0.3369418112	-0.657991567	 0.121341
H	-0.8960006249	-2.4442478384	 2.1426919069	 0.105673
H	-0.2799909297	-3.6854783366	 1.0283558586	 0.113178
H	 0.5246628501	-2.1058435516	 1.1411060504	 0.122015
H	-3.3116064342	-2.5144120389	-0.7975062709	 0.124675
H	-2.5473059068	-3.8685297538	 0.0340185545	 0.125031
H	-3.2612457818	-2.5592643483	 0.984615017	 0.111534
H	-0.0334894873	-1.8370967053	-1.3508431341	 0.277849
57.3348	90.4065	209.3676	214.5228	233.4736	245.8396	264.6546	316.1944	335.465	356.393	365.2749	397.9772	454.6742	481.9606	517.6651	553.5878	635.1732	757.4163	808.9016	874.9895	902.5873	931.5109	961.8424	966.8028	976.4134	1016.3456	1050.4464	1074.9004	1104.3804	1159.2755	1179.5454	1183.6381	1190.8057	1211.4139	1214.8598	1262.6804	1336.7417	1384.4056	1400.9974	1418.8008	1455.897	1477.9573	1480.3076	1489.4155	1492.114	1500.4958	1503.5468	1510.9679	1514.7219	2994.8593	3041.215	3050.2865	3051.7597	3112.4492	3114.1446	3121.6046	3129.5132	3130.0429	3133.9106	3154.5249	3212.9691	3235.8947	3779.4747
COC1(CC1)C(C)(C)O	COC1(CC1)C(C)(C)O	
InChI=1S/C7H14O2/c1-6(2,8)7(9-3)4-5-7/h8H,4-5H2,1-3H3	InChI=1S/C7H14O2/c1-6(2,8)7(9-3)4-5-7/h8H,4-5H2,1-3H3
