22
gdb 100275	1.88369	1.35383	1.12962	2.6352	78.09	-0.2324	0.0333	0.2657	1271.4228	0.191852	-441.532542	-441.521509	-441.520565	-441.568266	40.732	
C	-0.1124126842	 1.5888211051	-0.1227944296	-0.401968
C	 0.0423957796	 0.0653551614	-0.0705941136	-0.178922
C	 0.7322977775	-0.4590986533	 1.2022596546	 0.255516
O	-0.034084803	 0.0226576376	 2.3174976509	-0.475976
C	 0.8309430951	-1.9985360251	 1.2316219458	-0.21814
C	-0.506875726	-2.7396103198	 1.1517144301	-0.400922
C	 2.1765640514	 0.1016808904	 1.234764417	 0.362198
N	 2.4187689331	 0.9906467112	 2.2355366282	-0.526622
O	 3.0137251899	-0.252304178	 0.4246017569	-0.386249
H	 0.8583170266	 2.0946116069	-0.1242652282	 0.122188
H	-0.6393774932	 1.8857506773	-1.0344010992	 0.112295
H	-0.686545727	 1.9531655006	 0.7332633447	 0.128003
H	-0.946191047	-0.39850691	-0.13641008	 0.100985
H	 0.6306165077	-0.282264626	-0.9254263912	 0.121137
H	 0.1698537213	-0.5339434307	 3.0769391996	 0.282541
H	 1.5007443458	-2.3036609968	 0.4235840526	 0.133896
H	 1.3459356918	-2.2777297125	 2.1632873298	 0.089047
H	-1.2177938984	-2.3586105004	 1.891654661	 0.116912
H	-0.9694950213	-2.6439277395	 0.165718434	 0.125966
H	-0.3603639203	-3.8069393972	 1.342063395	 0.114884
H	 1.6373458725	 1.3607076141	 2.7504839408	 0.264687
H	 3.299667558	 1.4786116945	 2.2330335306	 0.258545
70.6607	90.2499	113.638	179.1561	187.7274	211.8824	239.7075	283.2548	301.7904	327.7573	363.7843	380.1225	435.463	480.3114	518.7516	590.0293	659.4718	685.3724	763.1989	787.0125	792.8486	932.4249	946.1335	971.0946	1035.9692	1058.0429	1082.8931	1094.1089	1118.6671	1168.8099	1195.4446	1270.5946	1314.2916	1345.4119	1358.5136	1374.8737	1391.1951	1409.7578	1411.9639	1473.3805	1488.37	1497.6791	1499.8773	1507.7033	1511.8289	1584.0598	1789.8583	2997.9398	3042.1675	3042.4561	3054.7787	3092.646	3097.1312	3108.6653	3111.3999	3118.8351	3124.408	3590.999	3729.9198	3806.9143
CCC(O)(CC)C(N)=O	CCC(O)(CC)C(=O)N	
InChI=1S/C6H13NO2/c1-3-6(9,4-2)5(7)8/h9H,3-4H2,1-2H3,(H2,7,8)	InChI=1S/C6H13NO2/c1-3-6(9,4-2)5(7)8/h9H,3-4H2,1-2H3,(H2,7,8)
