18
gdb 115686	2.39877	1.35057	0.93744	6.5283	68.85	-0.2475	0.014	0.2615	1245.6532	0.147531	-476.217246	-476.208277	-476.207332	-476.252057	31.934	
C	-0.1718573318	 1.6688304715	 0.2500380273	-0.333346
N	-0.1078654358	 0.2066693044	 0.1858055149	-0.312571
H	 0.5918691709	-0.0723925976	-0.4966578107	 0.241971
H	 0.4507341431	-1.1665370963	 1.3438733654	 0.301721
C	-1.3699662942	-0.4540806895	-0.0984361958	-0.029438
C	-1.7657560137	-0.8658379135	-1.5397758739	-0.085548
O	-1.9588347198	-2.2352509743	-1.1359334706	-0.260763
C	-1.4595270598	-1.9816757883	 0.1868053758	-0.038663
C	-0.1829078288	-2.7653207667	 0.5206106232	 0.375445
O	 0.0191441494	-3.8768095276	 0.122695739	-0.31459
O	 0.6542856398	-2.1300744494	 1.362987771	-0.376674
H	 0.8260535836	 2.0632426046	 0.4569249203	 0.137649
H	-0.5453191765	 2.1362682806	-0.6732136484	 0.118274
H	-0.8293378767	 1.9656855137	 1.0724981635	 0.139963
H	-2.1583327592	 0.0985538434	 0.417056304	 0.103401
H	-2.6790144923	-0.4240919155	-1.9530270244	 0.1136
H	-0.9524783969	-0.7633607487	-2.2734672364	 0.101108
H	-2.1970424312	-2.2528987108	 0.9550877958	 0.118462
55.1874	60.5952	118.2976	186.8382	218.7539	252.0924	323.9886	378.8777	407.2958	523.6456	579.1203	694.202	726.8407	805.9135	845.9804	901.5696	933.3259	989.9457	1008.9985	1044.9666	1057.9417	1071.0377	1148.099	1157.0784	1169.5948	1202.7227	1233.0138	1255.8813	1263.4235	1337.4277	1342.795	1386.4824	1438.0065	1462.9175	1493.913	1499.0549	1517.8877	1521.164	1876.0373	2992.7002	2995.4183	3012.8602	3062.6687	3082.9211	3092.7352	3123.6354	3401.9508	3502.8652
C[NH2+]C1COC1C([O-])=O	CN[C@H]1CO[C@H]1C(=O)O	
InChI=1S/C5H9NO3/c1-6-3-2-9-4(3)5(7)8/h3-4,6H,2H2,1H3,(H,7,8)	InChI=1S/C5H9NO3/c1-6-3-2-9-4(3)5(7)8/h3-4,6H,2H2,1H3,(H,7,8)/t3-,4+/m0/s1
