21
gdb 81918	2.26034	1.68675	1.18997	3.1062	81.55	-0.2317	-0.0089	0.2228	1121.7276	0.183104	-387.1182	-387.109479	-387.108535	-387.151255	34.024	
C	 0.4472538616	 1.3781938509	-0.5309326784	-0.397039
C	 0.2723458048	-0.106261611	-0.1981791983	-0.00965
C	 0.9768671175	-1.0389106365	-1.1914405097	-0.04095
C	 2.4647908136	-1.1356317168	-1.1205852185	-0.291475
C	 1.6043694479	-2.1956724533	-0.4366445659	-0.153186
C	 1.3583892897	-1.9656898339	 1.0176317352	 0.412961
O	 1.5613066751	-2.7565293482	 1.907054329	-0.344575
C	 0.7414398826	-0.5635417934	 1.2198809288	-0.122227
C	 1.6982156265	 0.3524277371	 2.0017609952	-0.407548
H	 1.4990081758	 1.6785612847	-0.5108437188	 0.117538
H	 0.0627417361	 1.5911254334	-1.5339888773	 0.113262
H	-0.0978570445	 2.0140602362	 0.17406204	 0.115797
H	-0.798429737	-0.3343248856	-0.2666777738	 0.081304
H	 0.4972107146	-1.2122214475	-2.1488221448	 0.091404
H	 2.9937421713	-1.4708141043	-2.0058000529	 0.124701
H	 3.0279059348	-0.4394771393	-0.5096963976	 0.124228
H	 1.6442417192	-3.2147111048	-0.7999390215	 0.104214
H	-0.1356720837	-0.7179695058	 1.8573007314	 0.104106
H	 2.6163947926	 0.5766241018	 1.4509754629	 0.119874
H	 1.2194492198	 1.3038212021	 2.2501354593	 0.118291
H	 1.9820222317	-0.1413956557	 2.9352045156	 0.13897
73.4067	173.6108	218.0526	243.4368	254.2154	264.2653	269.5422	398.7061	462.1114	480.9498	562.8131	653.8125	697.8397	751.6286	775.981	832.8445	859.9829	920.2348	928.2797	954.8954	998.6173	1032.9032	1049.002	1066.0962	1075.4219	1087.2718	1107.6298	1151.7275	1169.7857	1201.8706	1212.7233	1254.2673	1317.4681	1326.6533	1347.6543	1363.4841	1382.2507	1401.6743	1419.1249	1486.2225	1492.7068	1493.2732	1506.7696	1510.3074	1824.3947	3018.465	3034.9775	3043.7975	3051.1774	3098.5904	3108.356	3113.9425	3120.0833	3140.4035	3165.8551	3198.1206	3223.6954
CC1C2CC2C(=O)C1C	C[C@H]1[C@H]2C[C@H]2C(=O)[C@H]1C	
InChI=1S/C8H12O/c1-4-5(2)8(9)7-3-6(4)7/h4-7H,3H2,1-2H3	InChI=1S/C8H12O/c1-4-5(2)8(9)7-3-6(4)7/h4-7H,3H2,1-2H3/t4-,5+,6-,7-/m1/s1
