19
gdb 57799	3.95929	0.62344	0.597	3.3997	81.87	-0.2476	-0.0181	0.2295	1940.2469	0.154554	-423.018445	-423.007218	-423.006274	-423.057962	37.999	
C	 0.9057597898	 0.0295108228	-0.4101939862	-0.383589
C	-0.1443845328	 0.2852473953	 0.6809377318	-0.008779
O	-0.7803563154	 1.5499594562	 0.5082799901	-0.417147
C	-1.1280293674	-0.800415615	 0.7460883478	 0.128821
C	-1.9730139204	-1.6575439382	 0.7346396428	 0.028641
C	-3.0073489389	-2.676240509	 0.7149121641	-0.489091
C	-4.0926816432	-2.4562808444	-0.3579124637	 0.392244
C	-5.2108305653	-3.4832831235	-0.352655871	-0.478282
O	-4.055723117	-1.5396784526	-1.1381610766	-0.269994
H	 1.6111185428	 0.8642030881	-0.4373061997	 0.123563
H	 1.4540571121	-0.8968792963	-0.2144814271	 0.120294
H	 0.4242832713	-0.0585156015	-1.3890941646	 0.121812
H	 0.3676168215	 0.3644844544	 1.6480293435	 0.113532
H	-1.4152905848	 1.4532494818	-0.2107085091	 0.288415
H	-2.5741764535	-3.6721711644	 0.5425216416	 0.150181
H	-3.5097296271	-2.7508426314	 1.6898342991	 0.149023
H	-5.7561216481	-3.4435998908	 0.5972746106	 0.143596
H	-5.8980652759	-3.282225692	-1.1747387411	 0.147427
H	-4.8071093176	-4.4974986795	-0.4458301424	 0.139332
18.0784	21.0147	53.931	95.0674	124.7046	186.3187	252.1653	286.8867	296.761	326.3589	362.6824	416.3364	466.3558	536.3906	552.4903	622.3382	748.5052	798.2665	829.2915	898.6218	962.5145	1019.0517	1053.2376	1074.2488	1096.7759	1169.6855	1179.7497	1225.4736	1282.2706	1331.7432	1343.3083	1382.7372	1397.2124	1419.4498	1438.9432	1464.7075	1476.7478	1487.2633	1492.1506	1830.4395	2370.727	3008.1794	3033.141	3033.8598	3037.957	3039.6678	3097.9562	3115.8497	3125.9379	3156.3657	3801.4443
CC(O)C#CCC(C)=O	C[C@@H](O)C#CCC(=O)C	
InChI=1S/C7H10O2/c1-6(8)4-3-5-7(2)9/h7,9H,4H2,1-2H3	InChI=1S/C7H10O2/c1-6(8)4-3-5-7(2)9/h7,9H,4H2,1-2H3/t7-/m1/s1
