14
gdb 132948	2.38455	1.79424	1.02493	6.5291	70.54	-0.1935	-0.0182	0.1753	1053.2403	0.102314	-478.020198	-478.012652	-478.011708	-478.051943	29.398	
N	 0.0092668003	 1.3869832473	 0.1461069143	-0.58027
C	-0.0546594795	 0.0092774053	 0.0530123956	 0.163202
C	-1.2067998282	-0.7221704824	 0.0351246542	-0.08498
N	-1.1661472735	-2.0955201195	-0.007885072	-0.316662
C	 0.0105539788	-2.7741146349	-0.0267435917	-0.099602
C	 1.1884687456	-2.0919053044	-0.0125142021	 0.122414
F	 2.3322848936	-2.7772879357	-0.0474776932	-0.068518
C	 1.2638436757	-0.6498010262	 0.0165964788	 0.244951
O	 2.3070637839	 0.0079357701	 0.0019229998	-0.425126
H	 0.950383185	 1.7055810202	-0.0607259048	 0.265055
H	-0.7184786648	 1.9148964361	-0.3098224286	 0.244204
H	-2.1941266778	-0.2791089345	 0.0582135108	 0.120134
H	-2.0296593172	-2.6099900795	-0.0170647272	 0.272011
H	-0.0300194918	-3.8545197819	-0.056646614	 0.143187
121.4193	255.9855	295.1469	315.2181	327.507	366.4941	418.0984	471.1319	513.2121	519.1337	554.6218	581.6832	663.4853	705.1684	778.7296	812.6148	853.6667	882.463	1029.5837	1085.0434	1158.0189	1245.1485	1292.9609	1350.0216	1390.5641	1431.1398	1565.1113	1601.5109	1653.3321	1681.1116	1702.2804	3210.0945	3227.4618	3518.0916	3658.745	3674.5251
NC1=CNC=C(F)C1=O	Nc1c[nH]cc(F)c1=O	
InChI=1S/C5H5FN2O/c6-3-1-8-2-4(7)5(3)9/h1-2H,7H2,(H,8,9)	InChI=1S/C5H5FN2O/c6-3-1-8-2-4(7)5(3)9/h1-2H,7H2,(H,8,9)
