15
gdb 30588	6.90652	0.62341	0.59574	1.557	81.47	-0.2212	-0.0099	0.2113	1793.399	0.112446	-420.614777	-420.606228	-420.605284	-420.649951	29.969	
O	 0.2335293636	 0.8873849551	 0.9735655242	-0.408814
C	-0.0617874724	 0.1638317843	-0.2164980415	-0.230772
C	-1.4081623498	-0.3841268664	-0.1422864586	 0.244441
C	-2.5223780374	-0.8449489748	-0.1079721002	-0.118508
C	-3.8195664689	-1.4031543623	-0.0538864178	 0.133812
C	-4.9881364506	-0.8177626084	-0.460828841	-0.115721
O	-6.0365224545	-1.6463728037	-0.2581075129	-0.135546
C	-5.5421722417	-2.7917530657	 0.2908194855	 0.009175
C	-4.1993986148	-2.7067601623	 0.4406781264	-0.308896
H	 1.128348739	 1.2314081806	 0.8838096676	 0.288837
H	 0.0121217745	 0.8126297083	-1.1048232512	 0.117172
H	 0.6525791268	-0.6623124374	-0.3670396994	 0.116989
H	-5.2114630848	 0.1432415059	-0.8925777104	 0.145814
H	-6.2698556051	-3.5547452218	 0.5110225392	 0.141547
H	-3.5381348339	-3.4543842615	 0.8475179201	 0.12047
21.1459	79.7805	95.3225	201.8621	226.8225	302.3949	392.4435	474.1585	518.5766	600.7452	617.0928	663.2538	738.6126	795.3173	842.3369	889.6294	910.932	1014.6732	1025.665	1048.6076	1072.5354	1112.8343	1203.5716	1246.5665	1249.8142	1254.4944	1320.7948	1373.2055	1456.6211	1500.5165	1543.1491	1611.4112	2358.7006	2960.4753	2978.7571	3265.6326	3284.0107	3291.5763	3814.2618
OCC#CC1=COC=C1	OCC#Cc1cocc1	
InChI=1S/C7H6O2/c8-4-1-2-7-3-5-9-6-7/h3,5-6,8H,4H2	InChI=1S/C7H6O2/c8-4-1-2-7-3-5-9-6-7/h3,5-6,8H,4H2
