20
gdb 10681	2.30279	1.86912	1.48633	0.6781	80.86	-0.2402	0.0549	0.2951	1004.9679	0.174743	-311.833819	-311.824636	-311.823692	-311.866902	35.005	
C	-0.3791191876	 1.3988880005	 0.0701496674	-0.394789
C	 0.0875653305	-0.057860688	-0.0477033371	-0.032842
C	 0.9896251579	-0.2631770984	-1.2716046622	-0.394789
C	 0.7733765599	-0.5331227206	 1.2406273628	 0.179641
C	-0.1106580415	-1.0310505529	 2.3752077237	-0.306357
C	 0.6994536474	-2.0148028931	 1.5810412131	-0.306356
C	 1.9790506207	 0.1647891856	 1.6060007445	 0.294351
C	 2.9854270412	 0.756627265	 1.899374002	-0.475254
H	 0.4751013056	 2.0680577806	 0.2151007469	 0.128424
H	-0.9054633357	 1.7130002087	-0.8368543815	 0.107911
H	-1.0566458324	 1.5318304709	 0.9196385121	 0.111705
H	-0.8013032354	-0.6920794338	-0.1688298557	 0.06755
H	 1.9023183322	 0.3349914559	-1.1839798707	 0.128425
H	 1.2853011085	-1.3119861743	-1.3761174808	 0.111705
H	 0.4741370533	 0.0377427388	-2.1892537792	 0.107911
H	 0.2001317041	-0.810581344	 3.3893400618	 0.125402
H	-1.1825173753	-0.9939880873	 2.210717528	 0.116263
H	 0.1838843299	-2.6532718545	 0.8712102848	 0.116264
H	 1.5639131764	-2.4666771559	 2.0524007767	 0.125402
H	 3.8733925903	 1.2755528365	 2.1624883134	 0.189433
82.5883	142.5347	191.4942	231.7268	236.2331	248.0308	276.6447	327.6777	421.0833	445.0387	559.8251	564.6456	589.7097	644.0852	645.986	783.8689	858.8584	894.5956	931.486	932.7778	951.1892	970.6231	980.9123	1060.9056	1085.4805	1089.2164	1145.0436	1192.7288	1195.0086	1264.7711	1301.9763	1346.934	1378.4472	1398.7575	1419.4219	1466.2854	1487.5131	1492.5514	1494.6553	1501.8497	1512.5905	2227.6695	3009.3956	3031.7057	3035.9594	3101.4463	3104.5105	3105.5821	3110.4864	3134.2871	3138.5865	3220.0309	3234.3833	3503.5511
CC(C)C1(CC1)C#C	CC(C)C1(CC1)C#C	
InChI=1S/C8H12/c1-4-8(5-6-8)7(2)3/h1,7H,5-6H2,2-3H3	InChI=1S/C8H12/c1-4-8(5-6-8)7(2)3/h1,7H,5-6H2,2-3H3
