19
gdb 107832	3.24913	1.49525	1.28768	2.5268	73.73	-0.2454	0.085	0.3304	1029.7924	0.160896	-422.99452	-422.987032	-422.986088	-423.02635	30.148	
O	-0.0133559838	 1.4090102958	 0.0054906233	-0.422301
C	 0.0199975899	-0.0041890175	-0.066975742	-0.150117
C	-1.3667978032	-0.5898026753	 0.0453791796	 0.395551
C	-2.1580343659	-0.4446407703	 1.3903148691	-0.277383
C	-2.6430363131	-1.8815612907	 1.1892705826	-0.078392
C	-3.0741829182	-2.0872615149	-0.2543892746	-0.069765
C	-3.3475934478	-0.8514649788	-1.1043993594	-0.111727
O	-2.1392640038	-0.0842052805	-1.0488606587	-0.317755
C	-1.6156438894	-2.1191016127	 0.0906853826	-0.141817
H	-0.6779568915	 1.6899439546	-0.6346261057	 0.292711
H	 0.4760181003	-0.3520325711	-1.0082022978	 0.091216
H	 0.6446114285	-0.3536574324	 0.7609580069	 0.107409
H	-1.480053668	-0.3608050842	 2.2435742165	 0.107419
H	-2.8967533543	 0.3614615553	 1.4358864324	 0.097156
H	-2.9599103748	-2.566043399	 1.9672170584	 0.08681
H	-3.5848047183	-3.0142888401	-0.4867999058	 0.094411
H	-3.5493293742	-1.1098573615	-2.1502988544	 0.106688
H	-4.1925645388	-0.2581832704	-0.7288621539	 0.100427
H	-0.9247872936	-2.9299575165	-0.096899029	 0.08946
98.8145	162.9848	221.0846	322.7404	360.7962	421.4717	441.6152	454.854	652.6025	671.8195	735.5667	753.3217	790.3189	829.345	885.0929	925.0426	952.8117	961.1783	993.4971	1003.1131	1030.755	1040.6023	1058.1897	1075.7406	1080.3267	1107.9779	1132.6599	1152.3024	1215.0243	1221.5602	1243.3176	1248.2446	1307.1293	1326.3511	1364.7869	1379.722	1400.123	1444.9495	1487.1414	1497.912	1526.0869	2975.7786	3007.5707	3049.1997	3054.9365	3081.5368	3106.1018	3178.6564	3189.0336	3207.0989	3796.3916
OCC12CC3C(CO1)C23	OC[C@@]12C[C@H]3[C@@H](CO1)[C@@H]23	
InChI=1S/C7H10O2/c8-3-7-1-4-5(2-9-7)6(4)7/h4-6,8H,1-3H2	InChI=1S/C7H10O2/c8-3-7-1-4-5(2-9-7)6(4)7/h4-6,8H,1-3H2/t4-,5+,6-,7+/m0/s1
