12
gdb 10801	5.22506	1.64005	1.30219	2.3749	51.04	-0.2731	-0.0561	0.217	849.0184	0.083641	-455.661402	-455.65474	-455.653796	-455.692943	23.548	
O	 0.0059290881	-0.0216775398	 0.4120236139	-0.275587
C	-0.0138966468	 1.121874443	 0.0418190494	 0.357594
C	-1.2853097123	 1.8874828069	-0.2821774887	-0.1884
O	-1.0941737665	 3.3015772926	-0.1680177928	-0.239178
C	-0.0615387747	 3.8657922228	-0.8437644206	 0.463164
O	-0.0813482538	 4.9976389139	-1.2095496912	-0.340394
O	 0.9951682185	 3.0458291281	-1.0725274085	-0.23916
C	 1.2293759699	 1.9722445122	-0.1550597592	-0.188474
H	-1.6149224526	 1.6281557378	-1.2974337452	 0.157813
H	-2.0790902495	 1.619639186	 0.416502555	 0.167383
H	 1.5561378016	 2.3660209288	 0.8169606847	 0.157879
H	 2.0385390782	 1.3717583076	-0.5729622966	 0.16736
57.9619	159.9064	202.4278	375.8492	413.7122	463.6381	503.7378	606.0876	708.7943	766.578	795.7709	840.3932	929.321	1040.1593	1060.1221	1146.1151	1149.3625	1223.2872	1239.8348	1276.4603	1362.2448	1375.5858	1466.4378	1471.4582	1852.739	1903.6898	3027.045	3027.2529	3133.5221	3134.5797
O=C1COC(=O)OC1	O=C1COC(=O)OC1	
InChI=1S/C4H4O4/c5-3-1-7-4(6)8-2-3/h1-2H2	InChI=1S/C4H4O4/c5-3-1-7-4(6)8-2-3/h1-2H2
