19
gdb 50687	1.75806	1.61794	0.91729	4.3769	76.94	-0.2518	-0.0366	0.2152	1267.5601	0.158561	-423.055706	-423.046714	-423.04577	-423.091279	32.023	
O	-0.34514744	 0.1016835834	-0.060458841	-0.243363
C	-0.1422142058	 1.2844416323	-0.1444974005	 0.144495
C	 1.2200328202	 1.9407801631	-0.013639822	-0.086189
C	 1.4824056338	 2.8788583562	-1.2321947242	-0.237307
C	 2.0109737225	 4.2016259473	-0.6504792647	-0.205971
C	 1.3004285056	 4.3061822462	 0.7046129143	-0.22829
C	 1.3771332455	 2.8643651363	 1.2561264203	-0.079039
C	 0.3800965676	 2.6235095076	 2.3670311443	 0.14755
O	 0.6758495437	 2.3766110769	 3.5067343493	-0.24622
H	-0.9772542552	 1.9919450236	-0.3653852373	 0.075514
H	 1.9457605554	 1.1276086565	 0.0463963618	 0.1072
H	 2.1634082727	 2.4194360399	-1.9519503423	 0.118781
H	 0.5397049264	 3.0636400864	-1.7632282481	 0.107844
H	 3.0944056279	 4.1436976987	-0.495072376	 0.110749
H	 1.8188081224	 5.0574797573	-1.3031685299	 0.106731
H	 1.7527037335	 5.0304141825	 1.3869301038	 0.118849
H	 0.2520053663	 4.6002643449	 0.5601157837	 0.105523
H	 2.3690346478	 2.6915690027	 1.6830225458	 0.106748
H	-0.6892773502	 2.7263766083	 2.0663151027	 0.076394
29.3933	54.6521	78.6671	185.3526	256.4956	313.3105	346.2297	393.9826	401.7247	456.5694	569.2639	677.3542	833.6596	858.6414	870.2552	911.054	915.5842	975.2258	1018.7693	1029.1326	1034.7835	1037.1218	1102.2654	1129.7956	1177.5457	1197.2949	1240.2613	1270.6292	1294.0384	1306.9441	1324.6377	1340.1728	1348.9592	1354.1376	1426.7443	1437.5339	1487.3266	1492.024	1507.0711	1827.0835	1837.1875	2835.8695	2857.7435	3021.3449	3025.4237	3043.3464	3069.7055	3090.9517	3096.9338	3100.654	3109.5299
O=CC1CCCC1C=O	O=C[C@H]1CCC[C@H]1C=O	
InChI=1S/C7H10O2/c8-4-6-2-1-3-7(6)5-9/h4-7H,1-3H2	InChI=1S/C7H10O2/c8-4-6-2-1-3-7(6)5-9/h4-7H,1-3H2/t6-,7+
