19
gdb 33216	5.34642	0.65843	0.63888	2.3018	78.38	-0.2163	0.0333	0.2497	1755.7207	0.16085	-419.244477	-419.235385	-419.23444	-419.279997	32.651	
O	 0.1735320887	 1.3440426289	-0.4031955937	-0.418759
C	 0.0668801841	-0.0105004201	 0.0018774265	-0.057202
C	-1.3534323139	-0.560795841	-0.130231239	-0.192795
C	-1.4480799826	-2.0516486745	 0.2488160064	-0.317118
C	-2.8418187152	-2.5887433352	 0.1835794734	 0.346601
N	-3.6963814587	-2.6414670067	 1.1838418969	-0.298181
C	-4.858913363	-3.1587005828	 0.6588686455	-0.087753
C	-4.7101718519	-3.4230284153	-0.6750448412	-0.11368
N	-3.4146175775	-3.0530983879	-0.9688676221	-0.274577
H	-0.3762674315	 1.8705580462	 0.1859774223	 0.282051
H	 0.7485982324	-0.5671995476	-0.6517958339	 0.107925
H	 0.42724321	-0.1517392697	 1.0341679982	 0.090211
H	-2.03121893	 0.009286443	 0.5182685092	 0.108981
H	-1.6975871953	-0.4054728301	-1.1596493637	 0.100792
H	-0.7874603714	-2.6388941956	-0.4026749521	 0.099949
H	-1.0928204105	-2.1926837407	 1.2740696064	 0.133116
H	-5.7324194853	-3.3154963473	 1.2732893881	 0.104122
H	-5.3708083108	-3.8321700475	-1.4209919802	 0.124329
H	-2.9700867775	-3.1206274163	-1.8689757471	 0.261987
28.6326	82.0694	89.3585	130.7348	239.3211	307.5104	326.576	344.5264	458.6397	537.1888	646.8934	706.1031	725.1876	752.384	775.4992	850.0361	855.5532	929.0962	985.4289	1024.1717	1038.0991	1063.798	1083.7686	1106.171	1138.324	1146.3224	1192.1367	1259.8934	1265.6555	1308.7871	1321.0186	1365.0744	1395.9247	1399.2638	1425.1256	1464.7169	1476.5256	1493.5	1511.0169	1515.9905	1591.058	2971.365	3019.686	3028.9957	3052.6957	3072.5472	3095.3956	3248.1583	3280.8282	3663.2294	3814.8086
OCCCC1=NC=CN1	OCCCc1ncc[nH]1	
InChI=1S/C6H10N2O/c9-5-1-2-6-7-3-4-8-6/h3-4,9H,1-2,5H2,(H,7,8)	InChI=1S/C6H10N2O/c9-5-1-2-6-7-3-4-8-6/h3-4,9H,1-2,5H2,(H,7,8)
