17
gdb 106350	4.80337	0.95634	0.92221	1.2176	70.1	-0.2584	-0.0453	0.2131	1271.6199	0.13343	-458.894759	-458.886042	-458.885098	-458.928941	31.73	
O	-0.1842257825	 1.4310988467	-0.0010345119	-0.412164
C	-0.0530222494	 0.0239075136	 0.0168087654	-0.189446
C	-1.3922488751	-0.6425911134	-0.0894398506	 0.37896
C	-2.5261536631	-0.4168990194	-1.1223406359	-0.279979
C	-3.0783412809	-1.220604649	 0.0924198946	 0.312467
C	-1.820674331	-2.1252389748	 0.0525658211	-0.30421
O	-2.3664378079	-0.2903485761	 0.9969896922	-0.387347
C	-4.5002784716	-1.5534986784	 0.4107516488	 0.039025
O	-5.072748621	-2.512652888	-0.0380649189	-0.245329
H	-0.8391897819	 1.6558135708	 0.6705818321	 0.296803
H	 0.5689471619	-0.2543653092	-0.840660659	 0.121656
H	 0.4510262271	-0.3329047815	 0.9291547287	 0.104173
H	-2.8871044645	 0.6079633337	-1.1997232773	 0.120797
H	-2.4617816022	-0.932549797	-2.0822833661	 0.113412
H	-1.6951762086	-2.7833796432	-0.8084959443	 0.114981
H	-1.5669656436	-2.5975290047	 1.0018536369	 0.118079
H	-4.9932688758	-0.8240472802	 1.0905436541	 0.098122
46.2626	90.1013	131.3488	175.8918	223.9042	323.9717	389.7261	428.1942	457.215	526.9683	596.31	669.1872	685.9899	728.1303	819.2941	898.2481	945.714	963.7928	990.1354	1036.8005	1060.0355	1089.0912	1105.2424	1123.7313	1140.1817	1151.6083	1168.2566	1229.7243	1259.7144	1350.7806	1378.9054	1404.6606	1437.6208	1466.7133	1488.994	1518.2474	1826.2137	2895.4757	2983.5189	3076.6109	3077.211	3084.2764	3161.4614	3168.4327	3795.3158
OCC12CC(C1)(O2)C=O	OC[C@@]12C[C@@](C1)(O2)C=O	
InChI=1S/C6H8O3/c7-3-5-1-6(2-5,4-8)9-5/h3,8H,1-2,4H2	InChI=1S/C6H8O3/c7-3-5-1-6(2-5,4-8)9-5/h3,8H,1-2,4H2/t5-,6+
