18
gdb 50225	4.95557	1.18509	1.08544	4.2189	78.43	-0.2319	0.0363	0.2682	1121.7911	0.150331	-401.933255	-401.926315	-401.925371	-401.965252	27.403	
O	-0.0251068572	-0.0280177375	 0.1512825274	-0.345786
C	 0.0218814399	 1.1854084368	 0.0989087746	 0.132206
N	 1.160697243	 1.909711824	 0.0362221738	-0.03747
C	 2.5221683973	 1.3651719453	 0.0179093139	-0.198335
C	 3.2766925195	 2.6930075192	-0.0640313876	-0.03933
C	 2.5520033041	 3.7360368525	 0.8596109151	-0.069015
C	 2.9087763008	 4.8518010165	-0.1478661691	-0.249947
C	 2.4933999957	 3.6527396054	-1.0292744182	-0.069039
C	 1.3316549417	 3.3448098324	-0.0324987661	 0.03136
H	-0.8806950285	 1.8300738079	 0.0976925654	 0.064954
H	 2.7373113041	 0.7904093397	 0.924847437	 0.126164
H	 2.6820634732	 0.7126529049	-0.8468527075	 0.126226
H	 4.3657597132	 2.6702036183	-0.0968663319	 0.079308
H	 2.576678285	 3.7699533157	 1.949725316	 0.079897
H	 2.256992382	 5.7297435393	-0.1663194898	 0.097054
H	 3.9604925509	 5.1441191012	-0.1933938702	 0.101143
H	 2.4506439221	 3.5906356741	-2.1175972196	 0.079901
H	 0.4073097933	 3.9209473445	-0.029178933	 0.09071
41.6581	198.5861	274.9034	360.564	404.5339	420.4617	472.6354	689.2595	749.6718	784.0657	800.5733	866.4634	885.48	910.5874	921.7374	967.3286	983.0474	987.8242	1007.5601	1029.9178	1065.2241	1088.2493	1107.8988	1124.5205	1158.6377	1182.9765	1198.679	1207.6811	1230.9542	1249.1047	1255.7118	1273.003	1324.5845	1351.8774	1422.1701	1466.7916	1516.1427	1522.1495	1788.2017	2922.9139	3045.3178	3054.7459	3083.708	3103.8374	3105.2368	3116.3344	3125.7677	3138.5863
O=CN1CC2C3CC2C13	O=CN1C[C@@H]2[C@H]3C[C@@H]2[C@@H]13	
InChI=1S/C7H9NO/c9-3-8-2-6-4-1-5(6)7(4)8/h3-7H,1-2H2	InChI=1S/C7H9NO/c9-3-8-2-6-4-1-5(6)7(4)8/h3-7H,1-2H2/t4-,5+,6-,7+
