19
gdb 36521	3.96853	0.97587	0.8298	0.5669	77.8	-0.2378	0.0548	0.2926	1378.3355	0.158993	-422.98725	-422.978586	-422.977642	-423.020895	32.763	
C	-0.0302774191	-1.2309516362	-0.0384732174	-0.437088
C	-0.008505833	-0.0310100589	 0.0144957596	 0.310136
C	 0.0198201937	 1.4251736099	 0.0581824139	-0.383331
C	 1.4377431279	 2.0078650667	 0.029931692	 0.117464
C	 1.4313369791	 3.5336797416	-0.0961152351	-0.093794
O	 2.7471914556	 4.0530846542	-0.015376415	-0.253144
C	 3.3808610951	 3.6645469297	 1.194097302	-0.079462
C	 3.3987806828	 2.1458546467	 1.3185275571	-0.078583
O	 2.0787116616	 1.6301850139	 1.240294098	-0.259126
H	-0.0493774379	-2.2917036347	-0.0760866829	 0.194343
H	-0.5435295832	 1.8304754057	-0.7922600536	 0.130446
H	-0.4784326274	 1.7812744838	 0.9683483088	 0.13923
H	 1.9932493118	 1.5895786054	-0.8253898205	 0.083119
H	 1.0316570825	 3.844581032	-1.0662469942	 0.109939
H	 0.7986501081	 3.9611235918	 0.7008847538	 0.089352
H	 4.3962379493	 4.0710693741	 1.1636990972	 0.109379
H	 2.8510785893	 4.0983571476	 2.0581584497	 0.093771
H	 4.0237652568	 1.7171033895	 0.5186240367	 0.097537
H	 3.8034432271	 1.8330314873	 2.2857927498	 0.109813
62.2075	96.1285	168.4665	257.4325	284.0318	340.5257	353.4242	388.4813	456.2305	483.5163	537.2501	615.5779	633.0275	645.9511	821.538	874.6101	892.5817	939.7413	949.4915	1009.0956	1073.5799	1084.555	1104.2795	1135.1083	1140.8476	1148.2339	1236.1834	1252.2951	1286.8763	1304.794	1327.159	1359.4368	1383.751	1392.5816	1415.1492	1424.8957	1456.7172	1479.0753	1486.7937	1493.0369	2244.0917	2959.3059	2973.6177	2978.0627	2985.9259	3024.4672	3062.2226	3084.2751	3087.8777	3088.2203	3507.3198
C#CCC1COCCO1	C#CC[C@H]1COCCO1	
InChI=1S/C7H10O2/c1-2-3-7-6-8-4-5-9-7/h1,7H,3-6H2	InChI=1S/C7H10O2/c1-2-3-7-6-8-4-5-9-7/h1,7H,3-6H2/t7-/m0/s1
