19
gdb 55654	3.10865	0.9989	0.91429	3.4738	73.	-0.2547	-0.034	0.2207	1333.3973	0.156509	-456.397022	-456.386564	-456.38562	-456.432511	37.881	
C	-0.0133182304	 1.6396227905	-0.0648818355	-0.410084
C	-0.0382924837	 0.1082708428	-0.0052032467	 0.17899
C	 0.8178601917	-0.4310206938	 1.1648465811	-0.41479
N	-1.4023643847	-0.440911302	 0.0648919114	-0.389245
C	-2.2510790988	-0.1925866185	 1.1307613619	 0.461532
N	-3.5566944829	-0.6079590546	 0.8948194699	-0.561245
O	-1.9174828118	 0.3509382357	 2.1671769836	-0.38768
C	 0.5814345778	-0.5050328642	-1.2633858367	 0.132476
O	 1.3216100027	 0.0671276672	-2.0169841245	-0.243912
H	 1.0099771951	 1.9964070628	-0.200473187	 0.130988
H	-0.6069830738	 2.0028170892	-0.9093302402	 0.110624
H	-0.4247299594	 2.0482300123	 0.8594783007	 0.147479
H	 0.3946629997	-0.0941000364	 2.1104196011	 0.170518
H	 0.8363695144	-1.5255503297	 1.1610122695	 0.115552
H	 1.8427367268	-0.0624069607	 1.0697903663	 0.126874
H	-1.8712249246	-0.52178743	-0.8266524138	 0.239336
H	-3.6918959578	-1.419567397	 0.310535948	 0.250217
H	-4.1152433329	-0.6103691846	 1.7350315547	 0.263013
H	 0.3094117824	-1.5769074688	-1.4127950836	 0.079356
63.5141	79.0996	102.5134	177.5331	224.2105	247.6119	263.5439	315.346	331.3176	360.058	393.2434	424.3312	446.2705	476.823	563.8398	602.2478	711.2219	775.2832	790.0843	880.6469	934.1427	957.4101	1026.2185	1042.1997	1055.29	1111.687	1186.7831	1226.3015	1266.839	1334.4234	1385.7572	1396.1369	1419.4953	1474.445	1490.6075	1494.6821	1513.9252	1533.6629	1625.4457	1798.8783	1842.5721	2855.5383	3045.9977	3052.0308	3116.4638	3123.7995	3150.7262	3164.2145	3573.0328	3584.2768	3687.6015
CC(C)(NC(N)=O)C=O	CC(C)(NC(=O)N)C=O	
InChI=1S/C5H10N2O2/c1-5(2,3-8)7-4(6)9/h3H,1-2H3,(H3,6,7,9)	InChI=1S/C5H10N2O2/c1-5(2,3-8)7-4(6)9/h3H,1-2H3,(H3,6,7,9)
