19
gdb 15599	3.20827	1.70862	1.27034	4.215	72.53	-0.2356	0.0299	0.2655	1000.4325	0.167009	-365.109928	-365.101874	-365.100929	-365.14267	29.673	
C	 0.1142284527	 1.6404349022	-0.0326033559	-0.384359
C	 0.0158575941	 0.1106070408	 0.0230744419	 0.028464
C	 0.6700046788	-0.5878297193	-1.1872069914	-0.220349
C	 2.1292264608	-0.7975208223	-0.7441350613	-0.232326
C	 2.0063758063	-1.1319517348	 0.7498106891	-0.145407
N	 0.767120497	-0.459883177	 1.1520434701	-0.03396
C	 0.3171685331	-0.5164018193	 2.4275107912	 0.133109
O	 0.9103923231	-1.0450029607	 3.3479525317	-0.345064
H	 1.1502376683	 1.9668622398	-0.1682107969	 0.122029
H	-0.4819585584	 2.0311988266	-0.8639353338	 0.117467
H	-0.2591749297	 2.0886337638	 0.8929225913	 0.124171
H	-1.0396003533	-0.1704534831	 0.1117698518	 0.088947
H	 0.1879429885	-1.5557039458	-1.3601101728	 0.109228
H	 0.5769385082	 0.0007088707	-2.103050905	 0.105732
H	 2.6352089385	-1.5861901982	-1.305009967	 0.109704
H	 2.7056634546	 0.1229469482	-0.8815479215	 0.11234
H	 1.9179742313	-2.2112529549	 0.9257059355	 0.119265
H	 2.850296857	-0.7781742778	 1.3480834602	 0.12696
H	-0.668608451	-0.0220417491	 2.5492452729	 0.064049
58.3391	132.2988	205.2307	219.5768	245.6571	322.6177	348.0059	429.5059	515.1919	603.466	718.5584	816.2098	838.8205	871.5142	908.2169	941.8716	978.6406	1016.883	1032.7741	1043.4222	1105.0237	1155.9899	1188.8876	1199.4365	1220.4408	1263.552	1298.2672	1328.1609	1346.2251	1367.44	1381.2079	1402.5536	1409.9446	1442.467	1485.1122	1493.5079	1497.4458	1505.815	1525.9395	1786.1514	2918.0161	3029.7083	3034.6183	3035.1919	3054.3459	3057.7354	3087.6406	3103.8609	3108.9955	3111.6359	3116.2364
CC1CCCN1C=O	C[C@H]1CCCN1C=O	
InChI=1S/C6H11NO/c1-6-3-2-4-7(6)5-8/h5-6H,2-4H2,1H3	InChI=1S/C6H11NO/c1-6-3-2-4-7(6)5-8/h5-6H,2-4H2,1H3/t6-/m0/s1
