22
gdb 6615	3.23919	1.55194	1.41385	1.5274	77.47	-0.2407	0.0771	0.3177	1034.3474	0.198724	-350.198604	-350.189293	-350.188349	-350.232148	34.895	
C	-0.0519248858	 1.5665806664	-0.0227162809	-0.418652
C	-0.0362693034	 0.0284886794	-0.0028377384	 0.235872
C	 0.808879227	-0.4533497694	 1.1921986353	-0.409281
C	-1.4695791275	-0.5181696511	 0.1101312923	-0.412001
C	 0.5994386319	-0.542957935	-1.2795247981	 0.175044
C	 0.1213161718	-0.0918478883	-2.6810347992	-0.309978
C	 1.596810008	 0.2925105008	-2.9000471842	-0.062407
O	 1.9316408615	-0.0280377841	-1.5345166748	-0.300616
H	 0.9558103719	 1.9596053845	-0.180993658	 0.128557
H	-0.7022855275	 1.9614127697	-0.8102122467	 0.10447
H	-0.4248787113	 1.9550493989	 0.9306381049	 0.107812
H	 0.4110678689	-0.0613578276	 2.1342499894	 0.104997
H	 0.8122828146	-1.5471335895	 1.2589786579	 0.10518
H	 1.8453071886	-0.1184862826	 1.0918839849	 0.133067
H	-2.0916560451	-0.1922290329	-0.7307717226	 0.1105
H	-1.4795238245	-1.6138165442	 0.1316235501	 0.109482
H	-1.9455074313	-0.1643635593	 1.030750816	 0.113246
H	 0.6340341742	-1.6394192719	-1.1855654325	 0.064164
H	-0.2746085307	-0.8783913863	-3.3248305339	 0.107366
H	-0.5710713279	 0.7511927561	-2.6808463585	 0.110687
H	 2.1395521092	-0.3432966241	-3.6116004577	 0.099504
H	 1.8024570177	 1.3430323404	-3.1359852952	 0.102987
77.0966	93.054	192.3185	210.8086	247.9748	257.5901	285.757	317.6893	350.819	385.5189	462.4706	517.493	688.0694	782.2588	823.2945	872.6144	936.1603	939.8725	954.841	959.4247	978.8057	1009.5207	1025.1938	1055.8287	1068.4034	1107.1408	1167.8874	1212.7358	1233.8988	1241.1685	1253.059	1286.1812	1300.1533	1361.0389	1381.4812	1395.3489	1397.3075	1430.5231	1475.7066	1486.1649	1488.6375	1491.2326	1505.3533	1506.8148	1522.2666	1531.1001	2976.0481	3012.5647	3023.5599	3028.4394	3037.5749	3055.2665	3083.0103	3089.6938	3093.3445	3094.8622	3099.3124	3112.5579	3119.2445	3136.3066
CC(C)(C)C1CCO1	CC(C)(C)[C@H]1CCO1	
InChI=1S/C7H14O/c1-7(2,3)6-4-5-8-6/h6H,4-5H2,1-3H3	InChI=1S/C7H14O/c1-7(2,3)6-4-5-8-6/h6H,4-5H2,1-3H3/t6-/m1/s1
