17
gdb 45187	2.95435	1.90318	1.62291	3.6299	71.15	-0.2247	0.0102	0.2349	874.2043	0.139953	-417.989812	-417.983533	-417.982589	-418.020208	26.416	
O	-0.0245126089	-0.0187255358	 0.1064776891	-0.374518
C	 0.0019554079	 1.1891824343	 0.0128145282	 0.385767
N	-1.1113548935	 1.9951504596	-0.1242465609	-0.296862
C	-0.89563377	 3.3982184629	 0.2135346597	-0.042693
C	-0.0950505899	 3.4621158889	 1.542136661	-0.174309
N	 1.1784929633	 3.3505295944	 0.7625099452	-0.147168
C	 0.4367982528	 3.8973121091	-0.4550450796	 0.022118
C	 1.1562075432	 2.8931079315	-1.349935844	-0.244157
C	 1.2654092194	 2.0462403747	-0.049256076	-0.11342
H	-2.0005311365	 1.5682792837	 0.0963628209	 0.247512
H	-1.8134383611	 3.9724400679	 0.0761144595	 0.082606
H	-0.1126678135	 4.4455107421	 2.0219274908	 0.115097
H	-0.2901935095	 2.6813364495	 2.2836208203	 0.115641
H	 0.4890731976	 4.97201957	-0.6436689752	 0.08038
H	 0.6375691655	 2.4566048687	-2.2039248455	 0.12125
H	 2.1288669415	 3.2869846416	-1.6511996421	 0.122978
H	 2.1529645417	 1.4476440269	 0.1462199487	 0.099777
142.1976	338.5459	361.0092	417.5248	466.8393	499.6599	551.723	640.9236	699.3204	742.6526	794.4365	803.5192	820.9672	856.7877	918.3667	954.7898	975.4695	989.8198	999.2243	1049.4032	1080.4491	1097.5941	1106.7811	1170.8123	1198.0661	1221.745	1234.7598	1245.2345	1267.601	1289.1959	1297.961	1318.7223	1369.6299	1431.5444	1478.2627	1491.2515	1820.1343	3045.0589	3076.43	3085.8248	3097.2634	3106.2888	3138.0897	3143.8829	3596.344
O=C1NC2CN3C2CC13	O=C1N[C@H]2CN3[C@H]2C[C@H]13	
InChI=1S/C6H8N2O/c9-6-5-1-4-3(7-6)2-8(4)5/h3-5H,1-2H2,(H,7,9)	InChI=1S/C6H8N2O/c9-6-5-1-4-3(7-6)2-8(4)5/h3-5H,1-2H2,(H,7,9)/t3-,4-,5+/m0/s1
