14
gdb 66549	3.19203	1.77736	1.46713	2.6604	64.18	-0.2362	-0.0321	0.2041	872.3716	0.1012	-436.588783	-436.582374	-436.581429	-436.619441	25.891	
O	 0.0082850222	 1.3116079067	-0.0443376064	-0.45784
C	 0.0063958196	-0.0519078224	 0.0588753712	 0.382623
C	 1.1655957377	-0.9765475503	-0.4660989522	-0.177234
C	-0.2322762189	-1.0524251782	-1.0130008942	-0.073133
N	-0.5624992764	-2.0849714426	 0.0695745207	-0.181214
C	 0.9473198426	-2.1921252153	 0.4316271722	-0.142418
C	 0.5994402508	-1.6469244384	 1.8275485888	 0.45266
O	 0.9962379343	-1.7979581499	 2.9426807418	-0.313988
C	-0.5932526117	-0.963903124	 1.1435389775	-0.221411
H	 0.7200126515	 1.6728197776	 0.4970784934	 0.29722
H	 2.0671703523	-0.5620772844	-0.8979664097	 0.106186
H	-0.660057682	-1.016676056	-2.0057952189	 0.116736
H	 1.4733851841	-3.1315293676	 0.2711805121	 0.104364
H	-1.530112226	-0.7139825653	 1.6365200138	 0.10745
129.593	266.7245	322.7551	365.6946	422.1077	576.7955	589.0826	611.8144	671.0928	763.2185	788.4064	824.4892	835.4498	887.2667	902.3248	930.7586	937.9241	968.7257	1037.629	1060.3764	1078.1112	1119.8653	1131.5494	1154.6889	1181.1685	1203.9829	1228.9034	1279.656	1298.4643	1465.0061	1905.262	3137.243	3151.8061	3198.6288	3211.6443	3783.2737
OC12C3C1N1C3C(=O)C21	O[C@]12[C@@H]3[C@H]1N1[C@@H]3C(=O)[C@@H]21	
InChI=1S/C6H5NO2/c8-3-2-1-4-6(1,9)5(3)7(2)4/h1-2,4-5,9H	InChI=1S/C6H5NO2/c8-3-2-1-4-6(1,9)5(3)7(2)4/h1-2,4-5,9H/t1-,2-,4+,5-,6+/m0/s1
