18
gdb 126498	3.42436	1.33571	1.02151	3.8198	77.52	-0.252	0.0216	0.2737	1171.639	0.149939	-398.124944	-398.117005	-398.116061	-398.158149	29.166	
C	-0.1348664899	 1.5649696561	-0.0985164278	-0.391478
C	-0.3498052613	 0.0732404691	 0.177065713	-0.192838
C	 0.6941547086	-0.5010779885	 1.1187651222	 0.050117
C	 0.7939929868	-2.083653135	 1.2620114245	-0.406894
C	 2.1941436027	-1.9136914955	 0.691591056	 0.377867
N	 3.395421635	-2.3287339958	 0.3301389926	-0.37798
C	 3.9655901542	-1.1261819752	-0.0205150645	 0.023994
N	 3.2118413368	-0.0267434311	 0.1111342766	-0.295515
N	 2.0730722804	-0.5993223169	 0.5644227935	 0.081691
H	 0.8517889916	 1.7410063512	-0.5375955784	 0.153133
H	-0.8896186788	 1.9454735868	-0.7922483647	 0.121591
H	-0.2011139451	 2.151751431	 0.8239712176	 0.11992
H	-1.3365853302	-0.093601959	 0.6269427067	 0.110403
H	-0.3280122405	-0.4926200561	-0.7620222822	 0.112148
H	 0.6893961495	 0.0165202989	 2.0835260239	 0.111604
H	 0.7416094789	-2.4527118179	 2.2881830237	 0.139592
H	 0.0873278854	-2.6332660127	 0.6363972055	 0.137203
H	 4.9780271958	-1.0578392793	-0.3909327682	 0.125443
60.2943	102.3677	146.4697	216.2624	262.5575	352.2924	408.7908	514.2102	667.0445	686.9044	704.0863	757.9548	813.9898	862.5579	885.7597	953.1379	963.1716	993.3273	1052.2704	1080.6865	1102.7191	1127.7258	1161.394	1184.0215	1209.5687	1231.7358	1248.47	1287.8785	1302.0461	1337.3993	1388.9856	1402.7776	1417.1517	1471.1405	1479.3658	1499.9807	1505.6413	1508.4539	1571.3677	3028.5914	3038.8835	3056.5214	3074.0128	3077.4981	3108.9776	3119.6842	3132.4874	3256.9234
CCC1CC2=NC=NN12	CC[C@H]1Cc2ncnn12	
InChI=1S/C6H9N3/c1-2-5-3-6-7-4-8-9(5)6/h4-5H,2-3H2,1H3	InChI=1S/C6H9N3/c1-2-5-3-6-7-4-8-9(5)6/h4-5H,2-3H2,1H3/t5-/m0/s1
