19
gdb 74227	2.20224	1.57071	0.99948	5.637	82.	-0.2042	-0.0225	0.1817	1189.5715	0.162085	-419.230112	-419.22165	-419.220706	-419.263078	32.964	
N	 0.0149844471	 1.4110495832	-0.0215947676	-0.551903
C	-0.0177765999	 0.0386143172	 0.0573539527	 0.37674
C	-1.19176788	-0.6412803799	 0.1456953249	-0.283064
C	-1.3760131684	-2.0824848421	 0.3012100646	 0.352176
O	-2.467110378	-2.6014356924	 0.117793992	-0.359512
C	-0.2072408196	-2.9565005652	 0.8013014658	-0.286608
N	 0.6337758743	-2.3367229554	 1.8223607906	-0.271398
C	 1.6675609224	-1.4376742846	 1.3354275917	-0.153049
C	 1.3330297881	-0.6324615466	 0.049394452	-0.323413
H	 0.81484505	 1.8412266871	-0.456885467	 0.25628
H	-0.8575196291	 1.8881659066	-0.1910128238	 0.258701
H	-2.1246914295	-0.0924066923	 0.038456155	 0.076539
H	-0.6695402266	-3.8660240353	 1.1966290431	 0.124039
H	 0.4226336121	-3.2701488219	-0.0405123847	 0.115038
H	 0.0400437861	-1.8489175675	 2.4821892249	 0.223177
H	 1.9182581325	-0.7446311788	 2.1447446906	 0.11011
H	 2.5793500124	-2.011075756	 1.1179263296	 0.107426
H	 1.376115409	-1.3091451913	-0.8098965222	 0.133122
H	 2.1249583072	 0.1091609054	-0.1038434522	 0.095599
78.1192	152.0165	185.3837	260.4305	314.5668	336.9722	393.2615	405.0039	485.8785	515.4938	553.2037	564.5958	627.1834	700.1811	716.6966	796.4012	840.9217	862.0015	876.028	968.464	996.3849	1008.5788	1092.4946	1111.152	1156.7434	1208.7725	1240.2883	1275.7151	1302.3311	1319.3694	1329.1589	1356.9713	1383.8619	1427.7332	1465.7679	1487.9277	1498.2143	1513.3419	1640.3118	1670.3687	1733.0205	3006.8609	3033.649	3043.1603	3068.7307	3086.1873	3090.0234	3151.7627	3543.2771	3579.9673	3692.1182
NC1=CC(=O)CNCC1	NC1=CC(=O)CNCC1	
InChI=1S/C6H10N2O/c7-5-1-2-8-4-6(9)3-5/h3,8H,1-2,4,7H2	InChI=1S/C6H10N2O/c7-5-1-2-8-4-6(9)3-5/h3,8H,1-2,4,7H2
