18
gdb 98986	5.22577	0.74021	0.65628	4.7064	71.69	-0.2544	-0.0073	0.2471	1710.4143	0.14525	-476.297005	-476.286529	-476.285585	-476.334235	34.956	
C	-0.159078071	 1.4242818599	-0.2634329981	-0.372049
C	 0.0524541548	-0.0534345705	 0.0541080055	-0.315943
C	 0.8204151133	-0.2639952427	 1.3576365546	 0.432024
O	 1.2146891752	 0.6327766041	 2.0567919262	-0.303675
N	 1.0139633565	-1.6206343468	 1.6472148938	-0.437172
C	 1.6686938046	-2.1601227909	 2.7502099206	 0.541059
O	 2.1882803758	-1.5663676122	 3.6519703518	-0.359043
O	 1.6186844568	-3.5112544558	 2.6296419933	-0.271505
C	 2.2551361027	-4.2246551489	 3.6957962166	-0.23672
H	 0.7979967065	 1.9427265305	-0.3563196505	 0.13814
H	-0.7107302626	 1.5387658681	-1.2004562523	 0.111026
H	-0.7199806484	 1.9167831593	 0.5342079761	 0.138153
H	-0.9086159519	-0.5794987163	 0.131510562	 0.124944
H	 0.6023657435	-0.5536334921	-0.7544565629	 0.124964
H	 0.6443269193	-2.2991339652	 0.998853712	 0.261165
H	 3.3155061515	-3.9670174447	 3.7538675088	 0.145356
H	 1.7829912809	-3.9904298666	 4.6530536158	 0.145377
H	 2.1315430325	-5.2811366192	 3.4576332164	 0.133901
38.9275	60.8395	77.0934	102.0157	123.5063	174.3515	207.5232	258.0936	309.1225	345.7321	411.3602	547.7659	623.6876	657.5228	727.6478	782.2096	816.994	887.3223	973.3021	1008.5518	1063.6739	1098.0151	1111.8018	1168.4213	1183.2948	1215.8573	1237.8374	1284.9942	1368.5865	1416.4852	1461.8137	1469.1811	1481.195	1492.1446	1497.2982	1498.9102	1517.7405	1815.5921	1883.3433	3018.5096	3049.9641	3053.5043	3055.4917	3127.6577	3129.1623	3134.9865	3159.498	3628.8595
CCC(=O)NC(=O)OC	CCC(=O)NC(=O)OC	
InChI=1S/C5H9NO3/c1-3-4(7)6-5(8)9-2/h3H2,1-2H3,(H,6,7,8)	InChI=1S/C5H9NO3/c1-3-4(7)6-5(8)9-2/h3H2,1-2H3,(H,6,7,8)
