18
gdb 29827	3.64107	1.06205	0.83077	6.0756	85.23	-0.217	-0.0209	0.1961	1362.7951	0.147387	-402.009988	-402.000903	-401.999959	-402.044036	32.586	
C	 0.0017968821	 1.4389479388	 0.0190964524	-0.34016
N	 0.0114528589	-0.0102189919	 0.0182408973	-0.045254
C	-0.0018415073	-0.7968978456	-1.0927542723	-0.175317
C	 0.0136506105	-2.1229628696	-0.6922808382	 0.180325
C	 0.0064710174	-3.2711306976	-1.5816790784	 0.076443
O	 0.020112162	-4.4322337458	-1.2280394565	-0.298366
C	 0.0374062798	-2.1201098802	 0.7367368915	-0.364966
C	 0.0357311695	-0.8152148606	 1.1549057112	 0.326546
C	 0.054942524	-0.2323716574	 2.5288867663	-0.501136
H	 0.8961087375	 1.8392299641	 0.5074444221	 0.145176
H	-0.0184700149	 1.794315939	-1.0120954392	 0.146344
H	-0.8803349371	 1.8273276652	 0.5382223449	 0.145185
H	-0.0211522146	-0.3636420297	-2.0811815653	 0.133001
H	-0.0133412044	-3.0076731005	-2.6654158373	 0.047501
H	 0.0536693892	-2.9955929345	 1.3665903334	 0.120896
H	 0.9373955425	 0.3955118797	 2.70479718	 0.129579
H	-0.8283081368	 0.38552327	 2.7337278421	 0.129546
H	 0.0715605716	-1.0386418733	 3.2649553458	 0.144657
85.9421	114.2695	155.8647	159.2069	198.8797	228.1642	269.8751	339.7558	399.4105	494.5142	623.1943	627.9849	652.992	727.3445	745.0461	800.9925	835.9155	1001.64	1010.8386	1036.4342	1063.1672	1081.8116	1150.4371	1162.07	1183.6783	1230.3006	1372.7661	1396.3682	1412.7204	1430.378	1451.0105	1472.3529	1475.4688	1488.5649	1489.2674	1516.745	1568.1739	1613.1393	1782.1486	2849.7705	3017.5179	3038.0415	3061.5481	3095.2091	3128.6666	3142.7281	3250.6319	3262.372
CN1C=C(C=O)C=C1C	Cn1cc(C=O)cc1C	
InChI=1S/C7H9NO/c1-6-3-7(5-9)4-8(6)2/h3-5H,1-2H3	InChI=1S/C7H9NO/c1-6-3-7(5-9)4-8(6)2/h3-5H,1-2H3
