16
gdb 33589	3.91376	1.54094	1.39274	2.0595	79.37	-0.2309	0.0295	0.2605	945.6288	0.124942	-363.488661	-363.482085	-363.481141	-363.519378	27.338	
C	 0.0040034087	-1.1215406412	-0.014349892	-0.352476
C	 0.0000138363	 0.0814929714	 0.0001376038	 0.066086
C	 0.0461274733	 1.499474912	 0.0444511946	 0.301496
C	-0.7925519623	 2.5006849002	 0.768799908	-0.124234
C	 0.3041973795	 3.5559147763	 0.4932073202	-0.083784
C	-0.1316714895	 3.5508115889	-1.0049622055	 0.012467
C	 1.2507957843	 3.0444544021	-1.4438083121	-0.248718
C	 1.2850708837	 2.4284489704	-0.0260578193	-0.139821
N	-0.9923777103	 2.326887093	-0.6967650379	-0.188693
H	-0.0051786973	-2.1829604873	-0.0343895755	 0.181277
H	-1.5823254817	 2.3756821315	 1.4996456223	 0.105926
H	 0.6093206841	 4.4126046512	 1.0867559154	 0.079801
H	-0.6876957666	 4.334298629	-1.5171046179	 0.083884
H	 1.3152345372	 2.3800361296	-2.3093071486	 0.114529
H	 1.9613877308	 3.8711961018	-1.5421405481	 0.106661
H	 2.1922977995	 2.1185264912	 0.4868581725	 0.085599
136.9501	163.4583	383.4245	442.3371	504.4288	529.5546	592.2104	603.3964	658.6611	721.6203	742.8476	772.5654	819.3864	833.8619	855.0199	898.2668	921.0854	946.7891	960.4398	996.843	1020.8788	1051.8497	1079.8184	1083.8267	1128.4656	1169.6276	1179.956	1203.1829	1238.8335	1252.7191	1267.0738	1280.1125	1380.6838	1480.2827	2238.4307	3053.8507	3115.2293	3130.3352	3149.9101	3161.3433	3189.9017	3503.7459
C#CC12C3C4C(CC14)N23	C#C[C@@]12[C@H]3[C@@H]4[C@@H](C[C@H]14)N23	
InChI=1S/C8H7N/c1-2-8-4-3-5-6(4)7(8)9(5)8/h1,4-7H,3H2	InChI=1S/C8H7N/c1-2-8-4-3-5-6(4)7(8)9(5)8/h1,4-7H,3H2/t4-,5+,6-,7+,8-,9?/m0/s1
