20
gdb 86071	2.31303	1.26578	0.84336	5.3649	86.9	-0.2103	-0.028	0.1824	1372.1287	0.17101	-403.194286	-403.184998	-403.184054	-403.228157	35.052	
C	-0.7627585801	 1.2742870548	-0.0695055631	-0.404564
C	 0.1869977098	 0.0811180123	 0.0066308319	 0.034739
C	 1.21059276	 0.0060256623	-1.1521165279	-0.30753
C	 2.3939488946	-0.7015675425	-0.5356146329	 0.279296
N	 3.396332815	-1.1547204726	-1.3406373966	-0.588181
C	 2.3119538779	-0.6980856328	 0.827603094	 0.152599
C	 1.0630383234	 0.0253411852	 1.2835852928	-0.314329
C	 3.2678263355	-1.2712583914	 1.7390361062	 0.043721
O	 3.1906954202	-1.2308052435	 2.9547648618	-0.303122
H	-0.2077467793	 2.2193075453	-0.0477633918	 0.115032
H	-1.3587460623	 1.2571905294	-0.9885689276	 0.109822
H	-1.4571781035	 1.2775303914	 0.7768613611	 0.119675
H	-0.4051069824	-0.8421419599	-0.0248765321	 0.079902
H	 0.8251301501	-0.5090022571	-2.0410450153	 0.101071
H	 1.518947761	 1.0098181761	-1.4800991801	 0.121567
H	 3.1763109439	-1.3507047793	-2.303240177	 0.259325
H	 4.1216700476	-1.7305295447	-0.9445690959	 0.264132
H	 1.3001437874	 1.0379740442	 1.6413670954	 0.102172
H	 0.566691937	-0.4842804137	 2.1145948706	 0.115358
H	 4.130586244	-1.7980533836	 1.2591307567	 0.019314
89.9903	127.4138	166.5148	189.604	247.4373	271.5848	336.9634	363.4412	384.423	414.0367	454.3168	518.635	563.1925	612.6907	636.857	811.9731	845.4972	902.5102	932.3142	956.2173	969.1775	1015.9095	1063.6707	1108.5817	1133.5462	1149.3238	1209.3269	1233.4409	1256.5414	1273.9008	1309.4372	1344.9073	1376.4468	1412.7672	1415.2657	1460.8767	1474.8507	1497.4849	1498.055	1503.3752	1632.1113	1684.1151	1753.8653	2796.4098	2999.3107	3002.3539	3020.5091	3027.2122	3048.1009	3079.4361	3093.0214	3100.1547	3592.7754	3703.0227
CC1CC(N)=C(C1)C=O	C[C@H]1CC(=C(C1)C=O)N	
InChI=1S/C7H11NO/c1-5-2-6(4-9)7(8)3-5/h4-5H,2-3,8H2,1H3	InChI=1S/C7H11NO/c1-5-2-6(4-9)7(8)3-5/h4-5H,2-3,8H2,1H3/t5-/m1/s1
