17
gdb 54429	2.55504	1.59848	1.21913	3.2306	69.51	-0.2155	0.0099	0.2254	1042.1404	0.136163	-455.12451	-455.116036	-455.115092	-455.157507	32.617	
N	 0.0499287037	 1.1839866064	 0.1983596156	-0.547057
C	-0.0081686171	-0.1657879856	-0.0068581261	 0.317419
O	 0.9907516921	-0.8716458492	-0.1079570191	-0.395573
C	-1.3481021925	-0.772670408	-0.0082385583	 0.161367
C	-1.7113081393	-1.9086757123	-0.9569081391	-0.359469
C	-1.602293509	-2.1861784218	 0.5061009898	 0.358198
O	-0.7080059154	-3.0642587108	 1.0708913329	-0.465724
C	-2.8004212054	-1.6092142457	 1.2622505493	-0.223507
N	-2.5985972584	-0.2536450486	 0.6042421638	-0.396093
H	 0.9576261028	 1.6168793066	 0.121068174	 0.265251
H	-0.7543043966	 1.755088875	-0.0076587134	 0.268862
H	-2.6719073171	-1.8453101098	-1.4616050382	 0.119244
H	-0.8788214616	-2.2780745667	-1.5455022478	 0.137691
H	 0.1746348021	-2.7475123606	 0.8183545049	 0.303635
H	-3.7821768185	-2.049503955	 1.0645559839	 0.113952
H	-2.6129411867	-1.5861039617	 2.3386079761	 0.120277
H	-2.3649421131	 0.4167730977	 1.3325789217	 0.221526
81.0422	107.6038	172.6184	259.0738	358.2643	379.7067	398.5094	412.4519	436.7177	475.422	548.6395	589.7107	634.3554	723.8813	730.6351	801.4217	828.1072	853.054	943.6231	950.2766	990.5829	1021.0998	1071.3412	1093.6381	1133.866	1164.8305	1194.9575	1229.6857	1282.5149	1346.84	1379.3158	1420.5137	1439.5006	1478.6589	1506.6358	1617.3487	1742.0259	3052.6368	3111.8442	3114.4166	3225.1128	3490.7236	3578.4467	3689.8806	3706.9609
NC(=O)C12CC1(O)CN2	NC(=O)[C@@]12C[C@]1(O)CN2	
InChI=1S/C5H8N2O2/c6-3(8)5-1-4(5,9)2-7-5/h7,9H,1-2H2,(H2,6,8)	InChI=1S/C5H8N2O2/c6-3(8)5-1-4(5,9)2-7-5/h7,9H,1-2H2,(H2,6,8)/t4-,5-/m0/s1
