25
gdb 93743	2.53335	1.21688	0.86469	0.0637	96.75	-0.2166	0.0378	0.2544	1453.3875	0.228888	-352.397373	-352.387187	-352.386243	-352.431962	38.906	
C	-0.0347035456	 1.5383386992	-0.2720142673	-0.403084
C	 0.0218608138	 0.0127968807	-0.1616881227	 0.03151
C	 0.7853950062	-0.6312812175	-1.3223472355	-0.198812
C	 0.723073801	-2.157490327	-1.2308570632	-0.289889
C	 0.9876536448	-2.7065491097	 0.1581294854	 0.226555
C	 1.2509864956	-4.1915812232	 0.1645893631	-0.481235
C	 0.969712607	-1.9203400613	 1.2454793961	 0.202035
C	 1.2590528706	-2.3794514167	 2.6528542321	-0.482058
C	 0.6554646972	-0.4382646944	 1.160371743	-0.26595
H	 0.9740354186	 1.9685787699	-0.2822334034	 0.110148
H	-0.5386403806	 1.8515898566	-1.1926952281	 0.10756
H	-0.5746331005	 1.9804913881	 0.5725332021	 0.107709
H	-1.0084808933	-0.3720036434	-0.1874810146	 0.068352
H	 0.384209519	-0.2937458221	-2.2853973359	 0.084703
H	 1.832871101	-0.3009586332	-1.2857768313	 0.09081
H	-0.2633696057	-2.5113493627	-1.5702236722	 0.099602
H	 1.4403595944	-2.6047481277	-1.9328246854	 0.093419
H	 0.4515165925	-4.7206828605	-0.3709815886	 0.118363
H	 2.1820908881	-4.4266593241	-0.3685403143	 0.119144
H	 1.3185223346	-4.6247396375	 1.1629096255	 0.117694
H	 1.6083546276	-3.4102037752	 2.718761188	 0.11811
H	 2.0269025694	-1.7410112124	 3.1097390295	 0.118471
H	 0.3670695512	-2.284574048	 3.2866659336	 0.119144
H	 1.5820619243	 0.1335532296	 1.3344424825	 0.095841
H	-0.0039267312	-0.1663814276	 1.9970193617	 0.091857
95.6363	129.044	134.4403	147.7077	219.5611	238.8639	262.9065	326.4323	349.4592	371.0017	405.8394	443.7044	480.4953	532.8158	615.7497	698.117	808.255	867.3127	876.6619	908.6383	957.1227	971.2528	996.1032	1032.4216	1045.5291	1052.0259	1068.4142	1124.5548	1147.3379	1155.6264	1168.1616	1182.5275	1240.8501	1260.0231	1285.9424	1330.5025	1339.3214	1375.7601	1383.758	1401.5438	1405.3129	1412.4863	1421.9134	1472.9978	1476.3538	1479.4168	1486.887	1488.4343	1494.1694	1498.5374	1500.2508	1502.5486	1743.8335	2971.575	2982.1916	2990.7701	3007.5722	3011.6845	3013.5093	3018.0366	3021.8329	3026.4265	3051.7108	3052.2303	3056.1002	3088.003	3094.1833	3126.8317	3142.8763
CC1CCC(C)=C(C)C1	C[C@H]1CCC(=C(C)C1)C	
InChI=1S/C9H16/c1-7-4-5-8(2)9(3)6-7/h7H,4-6H2,1-3H3	InChI=1S/C9H16/c1-7-4-5-8(2)9(3)6-7/h7H,4-6H2,1-3H3/t7-/m0/s1
