15
gdb 26773	3.55684	1.16817	0.88533	2.0392	83.4	-0.1985	-0.0301	0.1685	1257.6729	0.11162	-416.813561	-416.804719	-416.803774	-416.84712	32.048	
C	 0.1789348388	 1.4794886841	-0.0353337552	-0.50972
C	-0.0292802375	 0.0119262469	-0.0026843113	 0.277566
C	-1.1206495471	-0.8047516422	 0.1101584316	 0.172833
N	-2.4646064672	-0.4773043909	 0.2822892533	-0.610617
N	-0.7160891103	-2.1219546423	 0.1018715426	-0.354076
C	 0.5834137382	-2.0679662427	-0.0176250796	 0.217397
O	 1.0714310652	-0.8061848106	-0.0953428174	-0.204607
C	 1.4968445725	-3.1392387975	-0.0740331308	 0.25211
C	 2.2795228044	-4.0518855359	-0.124113096	-0.365869
H	 0.9341276254	 1.7909112555	 0.6949173593	 0.146427
H	 0.507321891	 1.8356316123	-1.0197973013	 0.13899
H	-0.7560183293	 1.9879288772	 0.2149040148	 0.136088
H	-2.7774044695	 0.2903765301	-0.2962502537	 0.247393
H	-3.0517448193	-1.2883621475	 0.1377395692	 0.256448
H	 2.9662687747	-4.8608537463	-0.1669107555	 0.199636
94.331	124.3378	142.532	176.2808	239.8742	248.359	325.3799	396.2804	457.8205	554.4648	580.4704	588.8789	642.9126	668.9888	691.5401	736.1336	767.2241	804.9357	980.3859	1021.0222	1061.3803	1088.6047	1186.7912	1274.6361	1312.447	1404.7394	1440.5488	1472.2547	1491.744	1549.1058	1640.6827	1683.0975	2238.8241	3021.6621	3073.854	3117.5294	3502.5153	3549.3988	3643.3854
CC1=C(N)N=C(O1)C#C	Cc1c(N)nc(o1)C#C	
InChI=1S/C6H6N2O/c1-3-5-8-6(7)4(2)9-5/h1H,7H2,2H3	InChI=1S/C6H6N2O/c1-3-5-8-6(7)4(2)9-5/h1H,7H2,2H3
