18
gdb 22567	2.20464	1.55095	1.06963	1.7422	71.18	-0.2592	-0.0112	0.248	1148.641	0.145678	-476.163256	-476.153933	-476.152989	-476.197091	35.015	
C	-0.7785054819	 1.23464216	 0.180248083	-0.39951
C	-0.1057790882	-0.1010333838	-0.0941195195	-0.090583
C	 0.8862843129	-0.2230012461	-1.3121230416	 0.085857
O	 1.4780625506	 1.0011168399	-1.6496260326	-0.433441
C	 1.8506784616	-1.0711423814	-0.405584641	 0.024413
O	 3.2024526416	-0.6915151523	-0.510001116	-0.443672
C	 1.0611062857	-0.5329221363	 0.772715546	 0.346697
N	 1.3562919696	-0.2468050902	 1.9697995894	-0.240399
O	 2.6628757716	-0.7292529656	 2.2741624727	-0.411765
H	-0.0480338096	 2.0430431797	 0.1138863964	 0.138039
H	-1.5696605642	 1.4258632075	-0.5512357341	 0.117594
H	-1.224040128	 1.2438789045	 1.1789293158	 0.12586
H	-0.8460717151	-0.9094280688	-0.1506505874	 0.094005
H	 0.4885275899	-0.7243958781	-2.2012462598	 0.072103
H	 2.4240394175	 0.8958459026	-1.4633256225	 0.294202
H	 1.7184091082	-2.1515190917	-0.5507343816	 0.098724
H	 3.5340451951	-0.6085954905	 0.3946579644	 0.308249
H	 2.8115412729	-0.3783949295	 3.1584914784	 0.313626
70.8572	150.4078	181.6579	192.2057	226.2629	293.3381	301.5255	347.2662	398.7958	411.4821	498.3633	516.3916	521.556	593.4141	631.1269	769.643	819.3986	839.0014	912.9797	930.6632	1008.5032	1021.758	1085.4504	1128.7592	1155.7852	1161.941	1182.2222	1249.5975	1257.9511	1328.1829	1360.9952	1369.97	1380.4104	1392.1467	1406.4354	1420.5344	1488.8301	1498.3546	1778.4891	3015.5613	3025.242	3044.7096	3048.3816	3113.6894	3140.158	3694.0652	3754.3869	3826.3799
CC1C(O)C(O)C1=NO	C[C@H]1[C@@H](O)[C@@H](O)[C]1[N]O	
InChI=1S/C5H9NO3/c1-2-3(6-9)5(8)4(2)7/h2,4-5,7-9H,1H3	InChI=1S/C5H9NO3/c1-2-3(6-9)5(8)4(2)7/h2,4-5,7-9H,1H3/t2-,4-,5+/m1/s1
