18
gdb 46723	3.11438	1.69937	1.27164	3.9648	76.29	-0.234	0.0289	0.2629	994.2888	0.151746	-401.948752	-401.942043	-401.941098	-401.97985	27.358	
O	-0.0334488993	-0.0739621674	 0.0272442704	-0.381206
C	-0.0322102142	 1.1438209737	 0.0192610559	 0.370708
N	-1.1738127806	 1.8902300627	 0.0620634957	-0.321868
C	-1.1803278398	 3.3411505025	 0.0532998086	-0.202608
C	 0.2389394198	 3.8794734294	-0.0096758871	 0.013648
C	 1.2546392494	 3.2125588646	-0.9894490556	-0.062926
C	 2.3890117277	 3.7861195841	-0.0992946892	-0.238919
C	 1.3335029962	 3.2245803045	 0.8900063496	-0.062924
C	 1.2322911046	 1.9684161616	-0.0391366792	-0.088829
H	-2.0413475754	 1.3770038603	 0.1020025915	 0.24531
H	-1.751336053	 3.7168899588	-0.8083625955	 0.110848
H	-1.677265456	 3.727900652	 0.9550631652	 0.110843
H	 0.2329960343	 4.9736663029	-0.0164220843	 0.071184
H	 1.2040899588	 3.1936482799	-2.0791065685	 0.079533
H	 3.3473645281	 3.2624779056	-0.136158225	 0.099471
H	 2.5215960368	 4.8717435633	-0.1117995019	 0.092728
H	 1.3744254693	 3.2196091527	 1.9802209863	 0.079532
H	 2.1014250733	 1.3102406287	-0.0713928268	 0.085474
112.4241	185.1326	312.6536	369.4794	468.7129	498.2727	542.1393	563.5297	712.4646	729.1195	783.5776	819.8011	852.4935	892.2481	904.6198	956.53	980.0299	1003.1474	1015.4632	1029.7484	1078.4503	1093.0417	1105.5331	1120.7404	1153.3232	1170.2258	1209.0875	1226.9638	1240.5709	1258.4611	1279.8613	1303.2164	1338.2316	1370.9655	1419.9879	1486.0371	1517.4212	1529.3281	1798.0625	2989.6134	3012.179	3050.2981	3066.1986	3101.5636	3102.9818	3114.3658	3118.951	3621.6933
O=C1NCC2C3CC2C13	O=C1NC[C@@H]2[C@H]3C[C@@H]2[C@@H]13	
InChI=1S/C7H9NO/c9-7-6-3-1-4(6)5(3)2-8-7/h3-6H,1-2H2,(H,8,9)	InChI=1S/C7H9NO/c9-7-6-3-1-4(6)5(3)2-8-7/h3-6H,1-2H2,(H,8,9)/t3-,4+,5-,6+
