15
gdb 30490	3.10799	1.36821	0.9556	3.6946	74.09	-0.2201	-0.0432	0.1769	1168.0376	0.11512	-450.181533	-450.173666	-450.172722	-450.214461	28.66	
C	 0.0990945307	 1.4196845307	 0.0734494762	-0.329602
N	 0.0001600528	-0.0268249408	 0.1226222992	-0.355664
C	-1.1474854903	-0.5655732886	 0.0583020472	 0.450312
N	-1.1739933447	-1.9894568712	 0.1119640407	-0.313453
C	-2.3199372761	-2.6736451141	 0.053491841	 0.119909
N	-3.489257097	-2.1148274475	-0.0553198586	-0.380356
C	-3.4280976318	-0.7317354817	-0.1048432681	 0.437012
O	-4.6226369	-0.146136039	-0.2165944951	-0.379927
N	-2.3876725479	 0.0338192851	-0.0573764596	-0.349172
H	 0.7332264177	 1.7101787751	-0.7731480267	 0.116257
H	-0.8671850169	 1.9268925666	-0.0183511971	 0.13512
H	 0.602671522	 1.7786823025	 0.9794144906	 0.116258
H	-0.2772119571	-2.4458125181	 0.1965210354	 0.275815
H	-2.2456216683	-3.7576339233	 0.1013951862	 0.147568
H	-5.2749683231	-0.8596638258	-0.2372220315	 0.309923
76.4692	110.0757	194.3311	212.2837	249.703	423.5893	433.0115	512.1156	572.4328	584.3741	603.4376	675.2399	738.2752	784.7686	806.2624	968.6298	979.9637	1002.0326	1069.0935	1136.3262	1140.3484	1190.912	1241.6572	1285.165	1380.3704	1423.5572	1437.0906	1487.5949	1497.8198	1505.99	1596.8786	1712.9478	1766.2355	3011.7605	3061.6691	3091.0895	3167.2361	3620.1509	3780.9321
CN=C1NC=NC(O)=N1	C[N]C1=NC(=NCN1)O	
InChI=1S/C4H6N4O/c1-5-3-6-2-7-4(9)8-3/h2H,1H3,(H2,5,6,7,8,9)	InChI=1S/C4H7N4O/c1-5-3-6-2-7-4(9)8-3/h2H2,1H3,(H2,6,7,8,9)
