20
gdb 95735	2.73888	1.16312	0.85935	4.7423	88.52	-0.2584	-0.035	0.2234	1359.391	0.172736	-366.062452	-366.0538	-366.052856	-366.095752	33.008	
C	-0.0460725632	 1.5714006971	-0.0077958735	-0.402634
C	 0.0153610929	 0.0351603743	-0.0086060138	-0.01846
C	 0.6747298265	-0.5144205369	-1.2844473606	-0.202941
C	 0.9842017342	-2.0095321405	-1.157063004	-0.227094
C	 1.9668320692	-2.2718706067	-0.0087673212	-0.289655
C	 1.5887003254	-1.4886760017	 1.234641925	 0.140347
C	 0.7072814822	-0.4767425787	 1.2271686037	-0.10397
C	 2.2206843733	-1.8762682932	 2.4577982266	 0.214113
N	 2.7528165458	-2.2166482348	 3.4291850447	-0.338498
H	 0.960210363	 2.0035115639	-0.0210942671	 0.124469
H	-0.5818827221	 1.9352760476	-0.8900840003	 0.119249
H	-0.5628294216	 1.9493076549	 0.8801896669	 0.119325
H	-1.023373	-0.33181153	 0.0283449549	 0.096094
H	 0.0246621313	-0.3251038828	-2.1453110218	 0.098908
H	 1.6074688189	 0.0360445836	-1.468283355	 0.101369
H	 0.0527291468	-2.5585871595	-0.969634527	 0.10641
H	 1.3971610245	-2.4001475087	-2.0924198284	 0.10266
H	 2.0039035523	-3.339467394	 0.233635761	 0.125403
H	 2.9882887667	-1.9980984147	-0.3060292452	 0.12587
H	 0.4721279039	 0.021806011	 2.1644843651	 0.109034
96.7667	121.5811	154.3403	241.8928	269.1597	303.4313	341.0193	402.4671	446.9939	523.3193	549.0862	574.9393	592.5943	766.7537	840.3944	867.3107	903.2801	919.4579	950.2848	990.887	996.3474	1041.1223	1078.4392	1120.8737	1149.2174	1162.3136	1194.4537	1237.0314	1284.1505	1307.9859	1333.3274	1353.7493	1374.293	1381.9344	1389.1451	1412.932	1477.1461	1489.0493	1496.1423	1498.8698	1500.6647	1692.3698	2332.9484	2970.319	3018.1648	3019.4893	3030.0128	3032.7669	3066.8313	3072.1273	3081.0815	3103.9859	3106.7745	3160.511
CC1CCCC(=C1)C#N	C[C@H]1CCCC(=C1)C#N	
InChI=1S/C8H11N/c1-7-3-2-4-8(5-7)6-9/h5,7H,2-4H2,1H3	InChI=1S/C8H11N/c1-7-3-2-4-8(5-7)6-9/h5,7H,2-4H2,1H3/t7-/m0/s1
