17
gdb 91555	2.79668	1.40897	1.19592	1.2212	68.13	-0.2536	0.0582	0.3118	1075.0906	0.134903	-458.893939	-458.885923	-458.884979	-458.926903	30.262	
O	 0.0570381711	 1.4235961267	-0.1072119055	-0.436522
C	 0.0986214063	 0.0281009878	 0.002974312	 0.068287
C	 0.3221806551	-0.6245364926	 1.4241992722	-0.292117
C	-1.0477873647	-1.2866180747	 1.2731917363	-0.059034
O	-2.000656594	-0.2231697199	 1.077117918	-0.3101
C	-1.2590031233	-0.6980624377	-0.0627445479	 0.425956
C	-2.0216715505	-1.1217772038	-1.2569429779	-0.081557
C	-1.9646042226	-0.3235166407	-2.4912799516	-0.184551
O	-1.2263952848	-1.5420452846	-2.3680414378	-0.234125
H	-0.6623507355	 1.7158584073	 0.4676626151	 0.288503
H	 0.8079081397	-0.3405073143	-0.7400206685	 0.114603
H	 1.1576215134	-1.3280475749	 1.4379167688	 0.115542
H	 0.4118292691	 0.0757599576	 2.2580665562	 0.111858
H	-1.4258209632	-2.2107764694	 1.6941294963	 0.113683
H	-2.9054839324	-1.7275478593	-1.0581975604	 0.101263
H	-2.802221902	-0.3534382472	-3.1857536015	 0.121466
H	-1.3669906819	 0.5859327397	-2.5023044839	 0.136845
73.235	126.8817	160.7062	176.1979	332.3816	394.1407	423.295	485.2232	508.1306	598.2669	690.4487	724.8466	819.579	865.3405	883.3898	889.933	921.127	939.5978	999.088	1006.4561	1041.2056	1096.4085	1116.3821	1146.0295	1157.0636	1170.2928	1187.7504	1198.5235	1252.1903	1261.7421	1291.9023	1317.266	1366.0612	1437.6758	1465.397	1497.44	1527.3054	3068.5754	3091.2231	3108.5321	3117.4724	3130.2081	3186.0669	3193.9658	3770.5576
OC1CC2OC12C1CO1	O[C@H]1C[C@H]2O[C@@]12[C@H]1CO1	
InChI=1S/C6H8O3/c7-3-1-4-6(3,9-4)5-2-8-5/h3-5,7H,1-2H2	InChI=1S/C6H8O3/c7-3-1-4-6(3,9-4)5-2-8-5/h3-5,7H,1-2H2/t3-,4+,5+,6-/m0/s1
