17
gdb 43346	2.86693	1.75241	1.44275	2.5711	73.21	-0.2427	-0.0574	0.1853	934.4651	0.139126	-421.860432	-421.853666	-421.852722	-421.891556	27.123	
O	-0.0051723496	-0.034899037	 0.057874448	-0.34293
C	-0.0350502921	 1.1770065193	 0.005070717	 0.390085
C	-1.3026298608	 1.9505029452	 0.0080890785	-0.159137
C	-1.2808048976	 3.2874892354	-0.0830138697	-0.047397
C	 0.0444083686	 4.0245529768	-0.1774825034	 0.054181
C	 1.0253615952	 3.2044269562	-1.0207874354	-0.252189
C	 1.2271031859	 2.0385740116	-0.0307002058	-0.155489
C	 1.362089132	 2.8237192739	 1.301811619	-0.090012
O	 0.664865438	 4.0606003974	 1.119031814	-0.263599
H	-2.2214725925	 1.3791962353	 0.0928428251	 0.113204
H	-2.1987339686	 3.8674688047	-0.049633372	 0.11405
H	-0.0866952186	 5.0586375881	-0.5002427799	 0.085371
H	 0.6187298496	 2.8943545666	-1.9852416381	 0.116937
H	 1.9555955282	 3.7568035193	-1.1823648115	 0.111879
H	 2.0883825735	 1.4007368659	-0.2307361061	 0.094115
H	 0.9441904876	 2.277927971	 2.1556970406	 0.116714
H	 2.4148486112	 3.0440710302	 1.5147378799	 0.114217
107.2028	213.0994	286.8007	392.0278	409.3087	442.2582	468.7505	617.647	716.9105	730.2263	746.8589	846.6592	858.4684	887.2078	918.979	936.4253	957.7835	988.4829	1021.1445	1042.7116	1053.5929	1069.2498	1120.0626	1161.1232	1197.2182	1229.3983	1253.214	1300.2568	1308.927	1334.2207	1360.1582	1375.0489	1393.9026	1491.1117	1522.553	1665.5053	1785.8149	3025.362	3061.9079	3064.1491	3103.3388	3117.9302	3122.8056	3168.6788	3194.718
O=C1C=CC2CC1CO2	O=C1C=C[C@@H]2C[C@H]1CO2	
InChI=1S/C7H8O2/c8-7-2-1-6-3-5(7)4-9-6/h1-2,5-6H,3-4H2	InChI=1S/C7H8O2/c8-7-2-1-6-3-5(7)4-9-6/h1-2,5-6H,3-4H2/t5-,6+/m0/s1
