20
gdb 108609	2.86237	1.21733	0.874	6.0016	88.16	-0.2016	-0.0041	0.1975	1338.5623	0.17073	-403.205609	-403.195784	-403.19484	-403.24064	35.09	
C	-0.5018847001	-0.7708021418	 1.2024437538	-0.328363
N	-0.0077636994	-0.08339211	 0.0250120706	-0.365337
C	 0.6865119488	-0.6739777996	-0.9829358378	 0.330709
C	 1.3602816274	-0.0259726399	-1.9748303446	 0.074836
C	 1.5152278227	 1.4516290833	-2.1582812288	-0.540971
C	 1.9466441568	-0.9939735623	-2.8898627521	 0.342312
O	 2.6152794284	-0.7589706525	-3.8796551926	-0.377085
C	 1.5828650639	-2.4037976426	-2.3911228572	-0.338012
C	 0.742907698	-2.1802426374	-1.1209111006	-0.324225
H	-1.0012605183	-1.7006904746	 0.9199993762	 0.146025
H	 0.2892312901	-1.0128308494	 1.9269723376	 0.127659
H	-1.238594853	-0.1369586079	 1.7018211969	 0.135288
H	 0.0926933539	 0.9164646613	 0.1037663509	 0.250159
H	 1.974462983	 1.9379729327	-1.2867404746	 0.109662
H	 2.1610230335	 1.6306432716	-3.0221949599	 0.155322
H	 0.5570414364	 1.9544395774	-2.3445373689	 0.116938
H	 1.0353851622	-2.9390174606	-3.172200851	 0.124837
H	 2.4973338996	-2.972361536	-2.1995666191	 0.124434
H	 1.1925937251	-2.639419507	-0.2324020865	 0.11635
H	-0.2665975092	-2.6005930948	-1.2062987725	 0.11946
79.3498	111.3456	117.4002	122.4603	158.1966	190.759	261.8428	267.1578	390.2357	474.4309	532.2648	571.6124	592.1257	611.3184	655.3994	708.9919	847.2708	887.849	1008.9489	1012.9041	1041.9378	1058.0931	1062.9224	1094.5336	1145.335	1155.857	1203.289	1237.0009	1263.7988	1297.0207	1334.9793	1390.0104	1421.3417	1461.9102	1469.618	1480.4564	1485.6943	1495.6982	1497.0324	1498.9041	1526.1842	1681.9414	1782.0024	2997.7746	3003.4395	3027.3528	3046.7213	3054.7229	3064.8858	3088.7032	3104.8658	3114.1294	3128.6163	3623.0963
CNC1=C(C)C(=O)CC1	CNC1=C(C)C(=O)CC1	
InChI=1S/C7H11NO/c1-5-6(8-2)3-4-7(5)9/h8H,3-4H2,1-2H3	InChI=1S/C7H11NO/c1-5-6(8-2)3-4-7(5)9/h8H,3-4H2,1-2H3
