17
gdb 19368	4.4111	1.69959	1.52516	2.3806	67.76	-0.2205	0.0696	0.29	884.2778	0.141355	-363.75257	-363.745267	-363.744323	-363.784085	28.045	
C	 0.0272794016	 1.3416140376	 0.228346108	-0.257543
O	-0.0445311613	-0.0100483021	-0.2018761064	-0.273852
C	-1.3020080312	-0.5487044619	-0.0831205926	 0.4395
C	-1.8842859273	-1.053322827	 1.2098335917	-0.371131
C	-1.7020609738	-1.9860681294	 0.0257837716	-0.100721
N	-2.6914510126	-1.8777424765	-1.1242516187	-0.136142
C	-3.7215730221	-0.8569832799	-0.8402569755	-0.248243
C	-2.3613969919	-0.4114815264	-1.2064273109	-0.109141
H	 1.0610385526	 1.6645306766	 0.0893967134	 0.130209
H	-0.6328930294	 1.9908931611	-0.3635856136	 0.114258
H	-0.2455016692	 1.4379782366	 1.2880871486	 0.113729
H	-1.1194257524	-1.2251859652	 1.9620686684	 0.124025
H	-2.8417540398	-0.7529826459	 1.6215084145	 0.11208
H	-1.1187479476	-2.8952762585	 0.0852752247	 0.114446
H	-4.4759615418	-0.8227825607	-1.6220727548	 0.123935
H	-4.1216121197	-0.7265589283	 0.1583691223	 0.12049
H	-2.1132693141	 0.0392868399	-2.1625956308	 0.104101
84.2102	167.2528	175.7121	307.9721	364.7474	425.5355	464.7073	514.0187	647.399	679.6497	757.3498	800.061	848.9498	894.5022	951.2827	973.5276	993.3305	1023.6396	1039.5435	1059.3911	1075.674	1095.8934	1110.1704	1134.1277	1179.7594	1188.2069	1220.7537	1232.7947	1256.7208	1324.2111	1390.3711	1464.6596	1487.279	1495.4932	1505.3589	1518.9281	2995.0426	3050.2298	3118.229	3126.4703	3130.2433	3157.4352	3199.0757	3204.9138	3212.877
COC12CC1N1CC21	CO[C@]12C[C@H]1N1C[C@@H]21	
InChI=1S/C6H9NO/c1-8-6-2-4(6)7-3-5(6)7/h4-5H,2-3H2,1H3	InChI=1S/C6H9NO/c1-8-6-2-4(6)7-3-5(6)7/h4-5H,2-3H2,1H3/t4-,5+,6-,7?/m1/s1
