15
gdb 125653	3.45863	1.61733	1.10961	0.4244	73.5	-0.218	-0.008	0.21	1027.6727	0.116357	-413.002543	-412.995223	-412.994279	-413.034168	27.678	
C	-0.0184067937	 1.5044475075	-0.0527160812	-0.507133
C	-0.0073162287	 0.0131587088	 0.0336685652	 0.226764
N	-0.0358516478	-0.7412501782	-1.0636408972	-0.268873
N	-0.0165040508	-2.0407989289	-0.6688073943	-0.375531
C	 0.0247093883	-2.1473083778	 0.6895204263	 0.309035
C	 0.0316643055	-0.8395080874	 1.1691787546	 0.273357
N	 0.0730303299	-0.9434604046	 2.5291932825	-0.377617
N	 0.0924372362	-2.2366756302	 2.9309223732	-0.201633
C	 0.0637713513	-2.984068588	 1.8293200748	-0.142798
H	 0.8763868748	 1.9416005105	 0.4054444956	 0.127806
H	-0.0522116487	 1.8103226753	-1.1001398868	 0.148134
H	-0.8883693076	 1.9315912027	 0.4595097584	 0.127789
H	-0.0343485605	-2.7581034312	-1.3704361776	 0.272002
H	 0.0903511511	-0.2231492381	 3.228376709	 0.272402
H	 0.0723631108	-4.0594614404	 1.9119236474	 0.116293
127.6337	184.1673	248.2949	273.0543	297.3255	351.2433	435.8207	521.0322	619.2758	663.7381	672.3574	688.804	754.2362	837.3306	844.2752	975.2228	1000.8381	1065.4835	1098.2897	1115.052	1159.2089	1241.0514	1281.9466	1351.0475	1372.0344	1411.3983	1423.6701	1466.6147	1483.3313	1496.445	1518.3339	1575.7509	1623.1187	3028.9541	3077.2191	3135.2614	3258.8725	3695.7708	3701.3861
CC1=NNC2=C1NN=C2	Cc1n[nH]c2c1[nH]nc2	
InChI=1S/C5H6N4/c1-3-5-4(8-7-3)2-6-9-5/h2H,1H3,(H,6,9)(H,7,8)	InChI=1S/C5H6N4/c1-3-5-4(8-7-3)2-6-9-5/h2H,1H3,(H,6,9)(H,7,8)
