20
gdb 94031	4.3082	0.83864	0.76607	3.9255	86.21	-0.2498	0.004	0.2539	1525.28	0.171438	-366.052867	-366.043732	-366.042787	-366.087512	33.583	
C	 0.0647258332	 1.6555586601	-0.1821858363	-0.397437
C	 0.028297885	 0.1373049616	 0.0244008555	 0.002151
C	 0.6888653627	-0.6727125751	-1.1261468356	-0.221998
C	 1.3793848463	-1.8829984223	-0.4522280491	-0.308059
C	 1.521789241	-1.4327721317	 0.9863191421	 0.326333
C	 2.3769705579	-2.1769101704	 1.981277852	-0.445726
C	 1.962272302	-3.5743705853	 2.1467587943	 0.264701
N	 1.6268636328	-4.6740690883	 2.2624067909	-0.312907
C	 0.7871861278	-0.3501586311	 1.2386188659	-0.172873
H	 1.0965326222	 2.0126173592	-0.2736719631	 0.114839
H	-0.4721169028	 1.9393621972	-1.0934430811	 0.11688
H	-0.4012865719	 2.1841048121	 0.6562339988	 0.113599
H	-1.0261583474	-0.1613758064	 0.1312760063	 0.084833
H	-0.0252688674	-0.9658824405	-1.8996009904	 0.101947
H	 1.4467952691	-0.0445137192	-1.6076420171	 0.102326
H	 0.7676252529	-2.7937339738	-0.5060929706	 0.126573
H	 2.3409840901	-2.1348806072	-0.9155161151	 0.103184
H	 3.4272616845	-2.1807387551	 1.6583799953	 0.155952
H	 2.3460974415	-1.6856951834	 2.9593346335	 0.155035
H	 0.6986429703	 0.1271748596	 2.2100882338	 0.090648
43.7823	91.7686	114.1701	185.4447	234.0416	268.8684	356.3048	387.8833	396.0225	473.3308	506.9166	601.5815	689.029	813.125	846.0922	866.1786	879.0405	928.27	940.1261	962.0492	973.1086	999.3498	1048.1786	1106.7059	1125.9791	1174.7212	1196.8311	1214.5892	1244.315	1288.8752	1309.0632	1320.6198	1321.3208	1345.5014	1377.3018	1410.9509	1453.9788	1484.272	1497.3891	1498.4342	1502.3402	1721.1399	2360.8518	2979.1267	3017.8868	3020.2138	3027.3883	3038.9064	3054.6365	3080.6624	3095.9726	3099.328	3101.7368	3176.909
CC1CCC(CC#N)=C1	C[C@H]1CCC(=C1)CC#N	
InChI=1S/C8H11N/c1-7-2-3-8(6-7)4-5-9/h6-7H,2-4H2,1H3	InChI=1S/C8H11N/c1-7-2-3-8(6-7)4-5-9/h6-7H,2-4H2,1H3/t7-/m0/s1
