17
gdb 62374	2.5956	1.87256	1.37178	3.3904	76.12	-0.2359	-0.0184	0.2175	961.1611	0.137289	-380.833626	-380.826102	-380.825157	-380.865207	29.922	
C	-0.1169451233	 1.528201803	-0.0142826707	-0.462426
C	-0.009519791	 0.0012233438	 0.0018097171	 0.189334
C	-1.3039608679	-0.5889394272	-0.3308516214	 0.227597
N	-2.3527113325	-0.9943545755	-0.6000641876	-0.345891
C	 1.273479078	-0.623610683	-0.7027104419	-0.08041
N	 2.0154633083	-0.1499547337	 0.514409885	-0.308104
C	 0.7846809147	-0.6376898079	 1.2240457016	-0.080406
C	 0.7321278722	-2.1344840258	 0.8638233812	-0.091741
C	 1.0608899099	-2.1250287147	-0.4316570334	-0.091739
H	 0.8472596307	 1.9703523935	 0.2335608311	 0.153052
H	-0.4328225525	 1.8768177195	-1.0023540279	 0.133718
H	-0.8668363111	 1.8643160389	 0.7084114331	 0.133716
H	 1.6103472806	-0.2842401442	-1.6817514634	 0.084189
H	 2.8156606766	-0.7504237852	 0.7130257668	 0.211903
H	 0.6129463227	-0.3129698861	 2.2498322829	 0.084189
H	 0.4383445633	-2.947418894	 1.5109757555	 0.12151
H	 1.1140380414	-2.9279848215	-1.1516669479	 0.12151
146.9854	163.4862	222.1626	278.283	293.5946	448.275	473.6595	527.9959	570.6978	601.1838	625.8029	722.4351	783.3654	835.1366	841.1472	871.5094	908.1997	918.3929	933.8134	966.814	998.3543	1084.9723	1100.4587	1124.3185	1140.3462	1164.64	1227.3071	1235.3758	1270.2578	1280.0793	1296.7538	1328.421	1399.7505	1487.409	1500.1132	1610.8675	2352.2765	3047.1833	3108.9216	3126.9355	3129.1092	3162.0145	3235.1906	3261.3641	3457.4612
CC1(C#N)C2NC1C=C2	C[C@@]1(C#N)[C@H]2N[C@@H]1C=C2	
InChI=1S/C7H8N2/c1-7(4-8)5-2-3-6(7)9-5/h2-3,5-6,9H,1H3	InChI=1S/C7H8N2/c1-7(4-8)5-2-3-6(7)9-5/h2-3,5-6,9H,1H3/t5-,6+,7+
