18
gdb 128462	3.75755	0.99883	0.9461	3.7734	75.22	-0.2578	-0.0123	0.2455	1317.3429	0.146583	-439.069243	-439.060231	-439.059287	-439.104086	31.895	
C	-0.0083054775	 1.3871303503	-0.0523923339	-0.232867
O	-0.1673885625	-0.005341715	-0.2093006915	-0.24705
C	 0.7063779112	-0.5934586038	-1.1652182632	 0.006873
C	 2.1296341921	-0.7725378001	-0.621476195	-0.409359
C	 0.0946445393	-1.9020660317	-1.5650136085	 0.47565
C	-0.4859094966	-2.3409969436	-2.7143901642	-0.35755
C	-0.8386058358	-3.6831909587	-2.4153631689	 0.034069
N	-0.4996799422	-4.0238058534	-1.1965114753	-0.136073
O	 0.0981154643	-2.8907814702	-0.6538127518	-0.211787
H	 0.9648273797	 1.6585727671	 0.3809251221	 0.11052
H	-0.1207429889	 1.9184206188	-1.0107827373	 0.10448
H	-0.7949248451	 1.7202019943	 0.6285327922	 0.134981
H	 0.734646586	 0.0342442825	-2.0702860122	 0.080003
H	 2.7688557295	-1.2435306898	-1.3741523175	 0.125972
H	 2.5702907568	 0.1930377575	-0.3608206121	 0.119446
H	 2.1116070593	-1.406285335	 0.2679163486	 0.149388
H	-0.6418873638	-1.7922025658	-3.6278626289	 0.120312
H	-1.3280948959	-4.4125299535	-3.0453155326	 0.132991
44.069	68.7528	119.5668	182.377	211.5123	241.3329	326.198	363.0457	383.289	502.4314	650.2523	704.0245	751.5882	817.2769	859.0358	916.4274	927.3807	947.0589	989.7139	1027.5768	1053.4329	1067.7337	1113.2636	1143.1539	1180.8029	1211.0764	1216.5066	1273.8926	1331.5248	1361.3979	1396.9966	1404.4233	1476.177	1482.4909	1489.7422	1500.1163	1508.9217	1517.4098	1639.1198	2974.9555	2980.8427	3029.4248	3051.0278	3118.1214	3120.6277	3140.1308	3244.7465	3281.3267
COC(C)C1=CC=NO1	CO[C@@H](C)c1ccno1	
InChI=1S/C6H9NO2/c1-5(8-2)6-3-4-7-9-6/h3-5H,1-2H3	InChI=1S/C6H9NO2/c1-5(8-2)6-3-4-7-9-6/h3-5H,1-2H3/t5-/m0/s1
