12
gdb 133410	3.1296	1.39476	0.96479	1.137	62.47	-0.2244	-0.0653	0.1591	1071.2158	0.077343	-518.055023	-518.047987	-518.047043	-518.086737	26.585	
F	 0.0530224855	 0.0243202721	 0.0024251407	-0.041229
C	-0.0475797304	 1.3442623364	 0.0111319953	 0.192855
C	-1.226428267	 1.9887283568	 0.0302887799	-0.267469
C	-1.2636095825	 3.4443686851	 0.0389070325	 0.414826
N	-2.3702977078	 4.0903342589	 0.0572353193	-0.557842
N	 0.0182179129	 4.0180450428	 0.0252392103	-0.323211
N	 1.207262416	 3.3820648784	 0.0060070255	-0.236439
C	 1.1768171013	 2.1042852985	-0.0007880998	 0.232294
F	 2.321878679	 1.4417543256	-0.0194834174	-0.04521
H	-2.1697803847	 1.4599433048	 0.0397940553	 0.155604
H	-2.2239714999	 5.1006705	 0.0610255251	 0.203497
H	 0.1003973274	 5.0232698006	 0.0298755034	 0.272326
101.599	205.6064	286.356	366.8283	367.5041	393.7667	461.611	526.4712	562.354	602.1778	673.7999	710.2832	730.4131	787.3918	805.2576	920.1356	945.3029	1111.0528	1195.5797	1231.0182	1291.6846	1348.5388	1458.0139	1489.2153	1635.0591	1686.6152	1725.1619	3237.6072	3466.8504	3626.3431
FC1=CC(=N)NN=C1F	F[C@@H]1C=C([NH])NN=C1F	
InChI=1S/C4H3F2N3/c5-2-1-3(7)8-9-4(2)6/h1H,(H2,7,8)	InChI=1S/C4H4F2N3/c5-2-1-3(7)8-9-4(2)6/h1-2,7-8H/t2-/m1/s1
