15
gdb 97380	3.36087	0.8049	0.67026	4.384	71.76	-0.2795	-0.065	0.2144	1611.1093	0.108379	-453.938518	-453.928586	-453.927642	-453.975244	32.456	
C	 0.1402802529	 1.4006332315	-0.1578217889	-0.321379
N	-0.0251547321	-0.0342235493	-0.0430808663	-0.189635
C	 0.57041473	-0.6224581751	 0.8849683466	 0.136543
O	 0.4198438415	-1.9743582915	 1.0339814708	-0.207427
C	 1.1691951371	-2.5846249747	 2.0638127253	-0.137816
C	 0.4422189302	-3.9018031398	 2.4164604465	 0.154493
O	 0.9762577444	-4.8345651675	 2.9375995275	-0.206718
C	 2.5727643152	-2.8065813207	 1.690573521	 0.299703
N	 3.6764081854	-2.9545132219	 1.3858263785	-0.297726
H	 0.7957118874	 1.8390536455	 0.6107430235	 0.105985
H	 0.5534509009	 1.6371439426	-1.1438425522	 0.14282
H	-0.840680697	 1.8835793908	-0.097160007	 0.138792
H	 1.2262167757	-0.1575821093	 1.6356790048	 0.096408
H	 1.150895928	-1.970923587	 2.9801193049	 0.157528
H	-0.6339857497	-3.8636359536	 2.1534953349	 0.128429
40.2433	60.6857	67.5384	142.3344	147.4732	205.3804	243.852	283.5183	311.0598	392.6389	426.3707	525.4834	597.1489	719.2229	790.3985	962.2315	1015.3563	1035.6002	1047.3435	1109.1071	1141.3715	1158.8754	1210.8694	1274.4723	1323.2777	1389.0034	1410.4315	1449.8866	1480.1717	1504.3555	1792.6679	1860.9436	2367.3682	2946.1077	2978.0283	2981.7647	3012.8983	3073.409	3093.9814
CN=COC(C=O)C#N	CN=CO[C@@H](C=O)C#N	
InChI=1S/C5H6N2O2/c1-7-4-9-5(2-6)3-8/h3-5H,1H3	InChI=1S/C5H6N2O2/c1-7-4-9-5(2-6)3-8/h3-5H,1H3/t5-/m1/s1
