18
gdb 79004	3.85621	1.67034	1.42525	1.6771	79.67	-0.2184	-0.0068	0.2116	949.9578	0.148728	-364.687536	-364.680893	-364.679948	-364.718086	28.065	
C	-0.215934693	 1.6292757026	-0.1103441232	-0.424574
C	-0.0277986228	 0.1284708487	 0.0174661242	-0.095215
C	 1.1988628417	-0.5651779331	-0.6541761194	-0.054584
C	 2.1937309997	-0.132829118	 0.4451153792	-0.064504
C	 2.5108990427	-1.5633209438	 0.9253878767	-0.089818
C	 2.2347949243	-1.5705526327	 2.4380361921	-0.07635
C	 1.1169136245	-0.8461444756	 2.5937139449	-0.223115
C	 0.8326616986	-0.4504607136	 1.1594513945	 0.307014
N	 1.0894831536	-1.7436437412	 0.3368511767	-0.160634
H	 0.7229666209	 2.1705329885	 0.0449199736	 0.118191
H	-0.5919614692	 1.8878541227	-1.1057279756	 0.12122
H	-0.9409443763	 1.9989007024	 0.622535509	 0.121649
H	-0.9619538464	-0.4232321009	-0.1364828815	 0.08698
H	 1.3756105973	-0.7324381789	-1.7172358973	 0.077137
H	 2.8034975646	 0.7743976908	 0.5218494014	 0.065076
H	 3.3173289126	-2.1860556945	 0.5343093005	 0.065178
H	 2.8131185197	-2.0906796984	 3.1888501835	 0.109596
H	 0.5528334176	-0.6155937451	 3.4846035505	 0.116752
203.3089	216.9549	227.7079	420.1215	467.9792	495.1131	560.4549	667.5768	695.0089	737.7191	766.2446	785.7965	832.5621	845.0804	874.9353	894.9704	912.2209	916.8751	944.7513	981.3675	1040.7123	1059.7363	1068.0428	1106.5674	1132.2307	1143.2238	1149.9914	1174.1992	1197.8354	1218.426	1265.0975	1273.3962	1280.0862	1319.4628	1388.4331	1415.5408	1494.9571	1499.6296	1590.308	3032.3033	3039.0125	3052.4944	3098.0584	3100.5588	3104.6324	3108.459	3226.6472	3257.2976
CC1C2C3C4C=CC13N24	C[C@H]1[C@H]2[C@@H]3[C@H]4C=C[C@@]13N24	
InChI=1S/C8H9N/c1-4-7-6-5-2-3-8(4,6)9(5)7/h2-7H,1H3	InChI=1S/C8H9N/c1-4-7-6-5-2-3-8(4,6)9(5)7/h2-7H,1H3/t4-,5+,6-,7-,8+/m0/s1
