23
gdb 123153	2.14984	1.09904	0.81189	2.5368	80.02	-0.2427	0.0766	0.3193	1515.7646	0.203103	-462.540222	-462.529146	-462.528201	-462.57714	39.347	
C	 1.0003428506	 0.259235099	 0.7808373653	-0.239005
O	 0.3469004207	-0.9473166041	 0.4304092982	-0.246966
C	-1.070364739	-0.8223676909	 0.4271939452	-0.071034
C	-1.712307892	-2.103160351	-0.0935667581	-0.089934
O	-1.7418685133	-3.1668956089	 0.8286981773	-0.246103
C	-0.5790533427	-3.9760582344	 0.929080436	-0.100748
C	 0.0130019449	-3.9338773119	 2.3399140319	 0.142551
C	 1.1845752527	-4.9129790582	 2.4664542179	-0.392682
O	 0.4011999117	-2.6244994026	 2.7194486882	-0.454959
H	 2.0753243036	 0.0694166379	 0.7449580769	 0.134921
H	 0.752340212	 1.0616943175	 0.0711755809	 0.115956
H	 0.7265425415	 0.5880256888	 1.7934652151	 0.125461
H	-1.4363935426	-0.6120313446	 1.4424311989	 0.118066
H	-1.3612272991	 0.0133666948	-0.2299595674	 0.091812
H	-2.7590212614	-1.8760266654	-0.3281360289	 0.108773
H	-1.2152568387	-2.3963489884	-1.030860301	 0.10018
H	-0.8582990414	-5.0118492533	 0.6889442895	 0.09475
H	 0.18133918	-3.659800804	 0.2010786607	 0.098906
H	-0.7787783593	-4.2335815053	 3.0403646617	 0.082006
H	 1.9755196586	-4.6703232432	 1.7471576798	 0.107271
H	 1.6116010919	-4.8454177961	 3.4701301231	 0.123677
H	 0.867500477	-5.9474085145	 2.2933772023	 0.105615
H	 0.6359955641	-2.135150821	 1.9173843666	 0.291486
50.6841	69.7194	90.4806	123.9278	159.3918	214.7418	225.2307	237.6445	277.1577	345.6901	356.6275	420.3928	473.6171	496.3335	523.9227	538.6041	827.2585	844.2155	884.5923	924.5737	940.9145	1013.9949	1041.3898	1095.1323	1108.7738	1131.6865	1135.797	1164.8725	1180.9401	1185.5176	1227.7466	1265.0036	1290.2301	1327.984	1338.9931	1379.6614	1397.6302	1401.766	1418.2726	1424.7087	1455.1257	1473.3529	1476.8238	1486.2862	1488.2308	1493.0352	1496.4068	1503.6351	1514.3691	2972.9983	2988.2683	2991.0972	2997.6635	3012.012	3028.4152	3033.6103	3041.2002	3045.2009	3064.1668	3095.0729	3120.0637	3123.5709	3695.4222
COCCOCC(C)O	COCCOC[C@@H](C)O	
InChI=1S/C6H14O3/c1-6(7)5-9-4-3-8-2/h6-7H,3-5H2,1-2H3	InChI=1S/C6H14O3/c1-6(7)5-9-4-3-8-2/h6-7H,3-5H2,1-2H3/t6-/m1/s1
