19
gdb 77448	1.93091	1.53177	1.45669	2.5828	78.87	-0.2295	0.0147	0.2442	1096.8782	0.15793	-419.180225	-419.170839	-419.169895	-419.213793	35.366	
C	 0.0062726114	 1.600288045	-0.0777868614	-0.426634
C	 0.103701267	 0.0904866961	-0.0845072774	-0.093758
C	 0.7069959903	-0.7637671739	-1.1790659774	 0.238866
C	 0.0196329925	-1.8686282725	-1.9171459006	-0.482274
N	 1.934884725	-0.1486204861	-1.7259922162	-0.388958
C	 2.5453701492	-0.1004136439	-0.4343306422	 0.283005
N	 3.691317595	 0.2062477137	-0.0014147441	-0.552047
C	 1.35146027	-0.7110126884	 0.2297596774	 0.276628
O	 1.3611143102	-1.584791449	 1.2883934168	-0.451248
H	 0.8804916282	 2.0684874095	-0.5394823052	 0.115555
H	-0.883503771	 1.9372767699	-0.6207317059	 0.118719
H	-0.0627647409	 1.9781465615	 0.9470964615	 0.133927
H	-0.7547512122	-0.4084412924	 0.3660130709	 0.101699
H	-0.5721979487	-1.4872142663	-2.7579962402	 0.122912
H	 0.7502247461	-2.5793506843	-2.3157154959	 0.129474
H	-0.6610718997	-2.4045914807	-1.2486224169	 0.13105
H	 1.863400151	 0.7163154526	-2.2556658767	 0.227292
H	 4.2906676247	 0.5552197558	-0.752319323	 0.2171
H	 2.1842838818	-2.0860272266	 1.2489491964	 0.298692
111.946	154.9443	179.3306	192.8916	215.4314	223.6013	249.7054	333.7924	349.6669	438.8389	520.2797	564.7188	589.6565	671.8374	703.9591	740.0635	760.0423	817.4196	878.8111	918.8952	943.5617	1006.0943	1036.6328	1098.1016	1105.1944	1120.8042	1126.2047	1214.5404	1268.3546	1290.3831	1327.5173	1362.8745	1378.4721	1413.8545	1420.8266	1476.4448	1486.2539	1490.4558	1499.1442	1514.2453	1793.0803	3026.3664	3035.5011	3087.1371	3098.7282	3105.0916	3112.5016	3123.1486	3455.2208	3496.743	3793.8174
CC1C2(C)NC(=N)C12O	C[C@H]1[C@@]2(C)N[C]([NH])[C@@]12O	
InChI=1S/C6H10N2O/c1-3-5(2)6(3,9)4(7)8-5/h3,9H,1-2H3,(H2,7,8)	InChI=1S/C6H10N2O/c1-3-5(2)6(3,9)4(7)8-5/h3,9H,1-2H3,(H2,7,8)/t3-,5+,6-/m0/s1
