17
gdb 26469	3.48788	1.36256	1.22593	2.5855	74.79	-0.2192	0.0347	0.2538	1060.9629	0.136635	-418.008476	-418.000339	-417.999395	-418.041372	30.51	
C	-0.2354942584	 1.5504977154	 0.0577488085	-0.446382
C	-0.0363424964	 0.0413586269	 0.0163739437	 0.217401
O	-1.2444562546	-0.6556301544	 0.2443717907	-0.453765
C	 0.6623687098	-0.5413158806	-1.2838987341	-0.19537
N	 1.7531445254	-0.9901919636	-0.39613216	 0.008769
C	 2.982172728	-1.5124045415	-0.0791577534	-0.174248
C	 3.0674539319	-1.3057944934	 1.2879566407	-0.094076
N	 1.9513734173	-0.6621467487	 1.8019433773	-0.38527
C	 1.2046421997	-0.5061574466	 0.734214238	 0.340111
H	 0.6853089222	 2.081344857	-0.2003464258	 0.128962
H	-1.0282513579	 1.8449607409	-0.6363257987	 0.128226
H	-0.5264208131	 1.8628109434	 1.066513191	 0.12897
H	-1.5230509384	-0.4789140005	 1.1496680559	 0.28966
H	 0.1048461223	-1.3559919485	-1.7495613425	 0.139807
H	 0.9716088491	 0.1981080746	-2.0268325062	 0.127993
H	 3.6507473958	-1.9728822217	-0.7859097319	 0.132154
H	 3.8833220574	-1.5939472287	 1.934498067	 0.107059
60.7879	129.3867	199.7131	229.2428	279.0638	324.4142	360.47	448.6788	544.0486	624.6986	630.7733	722.6326	734.412	767.0687	835.8658	855.2459	923.0827	939.0998	974.0543	1046.5466	1090.824	1097.2857	1136.5417	1140.5082	1208.5882	1219.1567	1252.6761	1279.9263	1351.1075	1402.7805	1408.9506	1435.7989	1466.2103	1486.3825	1489.8668	1507.377	1568.8879	3036.4531	3065.1819	3106.7975	3120.9433	3132.0196	3244.1789	3287.4932	3810.7457
CC1(O)CN2C=CN=C12	C[C@@]1(O)Cn2ccnc12	
InChI=1S/C6H8N2O/c1-6(9)4-8-3-2-7-5(6)8/h2-3,9H,4H2,1H3	InChI=1S/C6H8N2O/c1-6(9)4-8-3-2-7-5(6)8/h2-3,9H,4H2,1H3/t6-/m1/s1
