21
gdb 76659	2.77904	0.94476	0.90961	3.8476	79.98	-0.2236	0.0436	0.2672	1426.7516	0.181048	-420.417132	-420.406732	-420.405787	-420.45335	37.7	
C	-0.2228592956	 1.4848591849	 0.5607019184	-0.416856
C	 0.3463670686	 0.0860838732	 0.4756622203	 0.002266
C	 0.5095079245	-0.6672532589	-0.8070670808	-0.002326
C	 0.1079706422	-0.1218842793	-2.1596942863	-0.420325
N	 1.6853981689	-0.1914621617	-0.058997389	-0.127195
C	 2.5178241974	 0.885651489	-0.5804029182	-0.25351
C	 3.8935252274	 0.3915196658	-1.054677555	 0.380231
N	 4.2101675249	-0.8575465785	-0.6348084656	-0.506699
O	 4.6172776259	 1.100316712	-1.7279101728	-0.37099
H	 0.2108309741	 2.0245930197	 1.4097929634	 0.127989
H	-0.0428608817	 2.0800922566	-0.3362133573	 0.125954
H	-1.3050982742	 1.4378207212	 0.7212784767	 0.125056
H	 0.1276508604	-0.5082729193	 1.3633628458	 0.088089
H	 0.4033981786	-1.7505585084	-0.748726259	 0.087855
H	 0.0639459871	 0.9676984602	-2.2001294938	 0.127028
H	 0.8043509618	-0.4576024883	-2.9361065561	 0.134734
H	-0.8854258229	-0.5000374007	-2.4225504229	 0.125848
H	 2.0933837193	 1.4519757168	-1.416880076	 0.120714
H	 2.7080611626	 1.6068597574	 0.223531762	 0.132457
H	 3.5464561934	-1.359301655	-0.06649819	 0.263907
H	 5.1095222873	-1.2430901168	-0.865936364	 0.255773
38.5875	51.4111	136.4763	160.5271	176.5082	231.9613	246.8261	287.7075	303.8817	414.5009	448.4383	504.1647	526.6454	560.5337	570.3616	707.9901	746.5118	771.9893	858.9506	878.0325	960.2203	999.0004	1038.1559	1048.2774	1053.8213	1098.6282	1128.8992	1166.9637	1185.3768	1200.256	1261.8544	1338.6716	1353.1899	1359.2212	1383.018	1417.6244	1420.9545	1440.4199	1466.147	1489.3139	1491.0465	1501.3476	1512.893	1576.9228	1806.2667	3032.1378	3038.2057	3042.1179	3073.6034	3087.9544	3094.5327	3097.1856	3099.9852	3129.1416	3139.3838	3582.7927	3733.476
CC1C(C)N1CC(N)=O	C[C@H]1[C@@H](C)N1CC(=O)N	
InChI=1S/C6H12N2O/c1-4-5(2)8(4)3-6(7)9/h4-5H,3H2,1-2H3,(H2,7,9)	InChI=1S/C6H12N2O/c1-4-5(2)8(4)3-6(7)9/h4-5H,3H2,1-2H3,(H2,7,9)/t4-,5+,8?
