18
gdb 75062	2.37896	1.83347	1.13425	3.2697	79.27	-0.2007	0.0012	0.2019	1079.21	0.148161	-401.994921	-401.986529	-401.985585	-402.027605	32.141	
C	-0.0289724489	 1.5157476222	 0.01334746	-0.506058
C	-0.0099382926	 0.0239586267	-0.0079143146	 0.168235
C	-0.0256174737	-0.7812504854	-1.0820872389	-0.134865
N	 0.0011917493	-2.1373905466	-0.7082080531	-0.364867
C	 0.0368279414	-2.2762129837	 0.6649167003	 0.386444
O	 0.0656147161	-3.3140099577	 1.294600345	-0.398439
C	 0.0308729389	-0.8615689058	 1.1872028891	 0.145668
C	 0.8033473337	-0.5897587347	 2.4718897194	-0.292063
C	-0.6850265264	-0.6093871843	 2.5081618747	-0.292052
H	 0.859179147	 1.9295409224	 0.5081758749	 0.126903
H	-0.0595110842	 1.9204371682	-1.00235348	 0.126758
H	-0.9019958612	 1.9064539601	 0.5519259576	 0.126898
H	-0.0547576398	-0.5156833919	-2.1291005435	 0.125749
H	-0.0039512338	-2.9221536047	-1.3370404278	 0.258609
H	 1.3318605966	-1.4429639431	 2.8827617314	 0.141786
H	 1.3151696037	 0.3630196118	 2.5473209092	 0.119748
H	-1.2175047829	 0.3296147614	 2.6090628974	 0.119755
H	-1.1702256334	-1.4759684349	 2.9437295488	 0.141792
96.8946	173.1295	215.0883	220.1225	234.9454	287.6443	295.5965	466.8603	504.1499	539.6968	591.4798	649.3315	747.9576	760.2025	790.7039	809.095	849.4341	886.7681	971.6789	993.6376	1011.7372	1064.2459	1066.2492	1081.6308	1092.0477	1146.5888	1180.5268	1205.7322	1300.3108	1344.6925	1384.5024	1402.7524	1421.5098	1451.3074	1480.0035	1484.6597	1496.4217	1696.2035	1819.5976	3013.5315	3056.0412	3104.7823	3135.964	3137.2264	3223.2265	3237.7812	3237.9226	3673.6001
CC1=CNC(=O)C11CC1	CC1=CNC(=O)C21CC2	
InChI=1S/C7H9NO/c1-5-4-8-6(9)7(5)2-3-7/h4H,2-3H2,1H3,(H,8,9)	InChI=1S/C7H9NO/c1-5-4-8-6(9)7(5)2-3-7/h4H,2-3H2,1H3,(H,8,9)
