16
gdb 42582	2.97526	2.17404	1.67344	4.321	70.43	-0.2461	-0.0089	0.2372	825.4979	0.126981	-400.712829	-400.706947	-400.706003	-400.742919	24.844	
O	-0.031941599	 0.0174808536	 0.0256175237	-0.315357
C	-0.0766366596	 1.2130464375	 0.0188248235	 0.424784
C	-1.3149498532	 2.0970715834	 0.0596448784	-0.172314
C	-1.5345505986	 2.5636246059	-1.4224892631	-0.247461
C	-0.5365875564	 3.6995993077	-1.1208805276	-0.040624
C	 0.9435531233	 3.2874560779	-0.8921128798	-0.068072
C	 0.7990701445	 3.3360077384	 0.586312129	-0.072331
C	-0.7412079518	 3.5070122591	 0.4127379678	-0.060105
N	 1.1018668071	 2.0507476558	-0.057303999	-0.16256
H	-2.1465292496	 1.6544475615	 0.6047917743	 0.097773
H	-1.3038505565	 1.8472364747	-2.2158733725	 0.119351
H	-2.5466870423	 2.949901719	-1.5696210149	 0.111905
H	-0.6364385808	 4.6719528467	-1.6037724354	 0.08277
H	 1.7859238272	 3.5138741415	-1.5343685273	 0.112008
H	 1.4517165512	 3.69491197	 1.3723805755	 0.107212
H	-1.3134810256	 4.1916130172	 1.0315562873	 0.083021
139.2719	303.5702	433.0511	464.6952	563.6816	646.13	691.915	744.9793	766.928	780.4098	815.4381	859.7318	872.5344	896.1137	918.9775	939.2385	948.3995	970.3158	993.2131	1037.3934	1047.4679	1084.1039	1102.506	1127.4094	1184.1065	1189.4757	1214.6916	1231.6654	1254.3823	1272.6798	1286.9759	1301.9917	1339.2241	1492.4229	1872.5524	3054.3154	3107.1255	3112.3103	3133.6228	3162.1879	3183.9637	3197.2387
O=C1C2CC3C4C(C23)N14	O=C1[C@@H]2C[C@@H]3[C@H]4[C@@H]([C@H]23)N14	
InChI=1S/C7H7NO/c9-7-3-1-2-4(3)6-5(2)8(6)7/h2-6H,1H2	InChI=1S/C7H7NO/c9-7-3-1-2-4(3)6-5(2)8(6)7/h2-6H,1H2/t2-,3+,4-,5-,6+,8?/m0/s1
