16
gdb 13995	4.26265	1.49781	1.29166	1.4544	71.89	-0.2253	0.0461	0.2714	964.6261	0.129094	-346.534115	-346.526457	-346.525513	-346.566185	28.797	
C	-0.0673247284	-1.2226718667	 0.1299817635	-0.469571
C	-0.061474852	-0.0192142699	 0.0940064455	 0.338199
C	-0.0122109576	 1.4087188144	 0.0414629934	-0.28814
C	 0.5598026827	 2.219500982	 1.2175145785	-0.359083
C	 1.3278398148	 2.1170724023	-0.0460821597	 0.466942
C	 2.690318831	 1.5173266243	-0.3578347366	-0.356619
C	 2.8001154384	 2.7042011535	-1.3406771008	-0.073599
O	 1.5119139152	 3.2227150407	-0.9197417551	-0.305291
H	-0.0904766086	-2.2833406227	 0.1667304048	 0.194883
H	-0.8134920019	 1.8975236355	-0.5056194022	 0.123032
H	 0.0712869713	 3.1640882442	 1.4306276443	 0.130403
H	 0.9092551965	 1.6679503608	 2.0835501433	 0.12879
H	 3.4031894613	 1.534487085	 0.4685512025	 0.117294
H	 2.6665959715	 0.5209808324	-0.8014290942	 0.1301
H	 3.6028841958	 3.4218517444	-1.1436084294	 0.110891
H	 2.7993961299	 2.4398508098	-2.4037456879	 0.11177
87.3654	120.2064	149.5765	286.8173	322.4042	388.7276	507.846	512.9764	566.7054	613.2538	648.0433	788.9951	798.7586	853.9314	876.2455	893.7325	943.1926	966.9634	1013.8013	1053.8003	1074.99	1097.988	1121.8706	1163.0508	1197.533	1212.2071	1247.3535	1317.0473	1365.3332	1397.8851	1472.504	1491.301	1531.8411	2230.1474	3034.947	3079.0215	3082.7912	3133.6507	3136.5046	3150.3117	3228.7375	3505.4979
C#CC1CC11CCO1	C#C[C@H]1C[C@]21CCO2	
InChI=1S/C7H8O/c1-2-6-5-7(6)3-4-8-7/h1,6H,3-5H2	InChI=1S/C7H8O/c1-2-6-5-7(6)3-4-8-7/h1,6H,3-5H2/t6-,7-/m0/s1
