21
gdb 56816	2.26432	1.33944	0.9802	4.4885	83.48	-0.2366	0.0345	0.2711	1285.0109	0.180493	-383.259395	-383.249044	-383.2481	-383.294683	37.498	
C	-0.0505972227	 2.5396566004	 2.7768283846	-0.389782
C	 0.1529676487	 1.6685640733	 1.5264067518	-0.104695
C	 1.1248631733	 2.2993674732	 0.6156106336	 0.30703
N	 1.8723884595	 2.8032364185	-0.1070274216	-0.332452
N	 0.6693164124	 0.360795476	 1.9256110104	-0.109123
C	-0.2590937489	-0.7479545267	 2.2084877169	-0.008169
C	-1.7672560242	-0.6370771285	 2.1347121054	-0.421418
C	 0.6237248317	-0.7819398214	 1.0004014174	 0.002442
C	 0.1054355785	-0.6909147617	-0.4194667784	-0.426358
H	 0.884929886	 2.6145413063	 3.3347444823	 0.148022
H	-0.3875530638	 3.542050159	 2.5009224272	 0.13241
H	-0.8050064877	 2.08060239	 3.4206855199	 0.126753
H	-0.7987782961	 1.6273514824	 0.9752733415	 0.10528
H	 0.0699247264	-1.3296416035	 3.0692882351	 0.095498
H	-2.130012807	-0.116015148	 1.2470382627	 0.123837
H	-2.2027415256	-1.6418150718	 2.1214596725	 0.130368
H	-2.1664140286	-0.1218252342	 3.0152377808	 0.128359
H	 1.5260472181	-1.3882438829	 1.0738192647	 0.097133
H	-0.8366131621	-0.1465476052	-0.5094843407	 0.118278
H	 0.8391105851	-0.1969971147	-1.0640705675	 0.150429
H	-0.0588155728	-1.6990278705	-0.8142464287	 0.126156
53.0289	112.7126	163.1143	170.1333	182.6066	206.2678	222.987	253.0131	282.7518	324.2425	452.4962	499.45	505.8886	553.4504	600.4254	733.4285	782.3879	811.6962	858.9757	959.7747	981.4057	1021.5009	1049.0607	1060.9771	1103.3007	1117.4055	1136.6969	1163.1083	1182.5598	1202.5048	1325.8292	1340.414	1346.2493	1383.3213	1405.2871	1416.6503	1422.412	1439.7265	1485.1724	1487.1766	1490.8251	1495.1457	1502.0421	1512.4567	2360.1872	2983.8327	3040.3926	3045.5743	3053.8543	3095.6294	3095.9938	3104.6553	3106.8008	3127.475	3130.9805	3138.0468	3143.8487
CC(C#N)N1C(C)C1C	C[C@@H](C#N)N1[C@@H](C)[C@H]1C	
InChI=1S/C7H12N2/c1-5(4-8)9-6(2)7(9)3/h5-7H,1-3H3	InChI=1S/C7H12N2/c1-5(4-8)9-6(2)7(9)3/h5-7H,1-3H3/t5-,6-,7+,9?/m0/s1
