22
gdb 119387	3.25485	0.99454	0.88231	2.6117	83.81	-0.2223	0.0826	0.3049	1433.5686	0.193664	-404.257116	-404.24768	-404.246735	-404.291913	34.867	
C	 0.5393713482	 1.5979189958	-0.2717807788	-0.218251
O	 0.3829886003	 0.2021764195	-0.183762769	-0.236882
C	 0.8697538496	-0.4800038051	-1.320270692	-0.222986
C	 0.6469345525	-1.9557190132	-1.1198081019	 0.309103
C	 1.1955011745	-2.8805962453	-0.0095970986	-0.196449
N	 0.3614935817	-3.8616577125	-0.8542540168	-0.165044
C	-0.6740540113	-2.7199710831	-0.8727980223	-0.212308
C	 1.0133602758	-3.1380596796	-2.0614325292	 0.03954
C	 0.4150330301	-3.3497152219	-3.4396008066	-0.443398
H	 1.5986347501	 1.8859466749	-0.3663177903	 0.103535
H	-0.0060435501	 2.0173749968	-1.1323157697	 0.103352
H	 0.1364405281	 2.0315208378	 0.6467853489	 0.127772
H	 0.349858471	-0.1356529955	-2.2321425225	 0.085861
H	 1.9455571953	-0.2751830135	-1.4664911867	 0.084652
H	 2.266140995	-3.1068701065	-0.0073600462	 0.093315
H	 0.8108094842	-2.744098132	 1.0032881841	 0.105001
H	-1.1671300399	-2.5707680594	 0.0903945192	 0.106703
H	-1.4103777707	-2.7903125035	-1.6741385866	 0.097236
H	 2.0859695881	-3.3648738869	-2.0995793778	 0.067243
H	-0.6342273626	-3.0583078583	-3.5205230003	 0.120185
H	 0.9790303567	-2.7732521158	-4.180907663	 0.11841
H	 0.4921689135	-4.4071492827	-3.7137585938	 0.13341
61.9657	88.7378	108.0035	162.4818	218.1371	234.4172	309.8351	343.4262	370.5998	426.1737	578.3215	609.4162	694.0849	752.9376	787.7661	835.5998	901.9203	913.4602	951.4202	994.7336	1005.0364	1032.2142	1056.7456	1107.6258	1132.8432	1150.9635	1163.2008	1169.6612	1176.6282	1191.3929	1193.5432	1206.0438	1230.945	1262.2067	1278.5266	1329.5957	1404.8416	1419.446	1433.5706	1479.791	1484.7336	1489.8761	1495.0973	1500.0855	1521.0627	1521.8185	1559.3246	2936.8152	2963.8079	2969.2005	3011.74	3025.7456	3039.688	3050.4379	3074.3346	3099.1426	3113.2223	3120.4663	3124.6596	3139.1444
COCC12CN(C1)C2C	COC[C@@]12CN(C1)[C@H]2C	
InChI=1S/C7H13NO/c1-6-7(5-9-2)3-8(6)4-7/h6H,3-5H2,1-2H3	InChI=1S/C7H13NO/c1-6-7(5-9-2)3-8(6)4-7/h6H,3-5H2,1-2H3/t6-/m0/s1
