13
gdb 132277	2.09963	1.78436	0.97039	5.8801	64.41	-0.2678	-0.0701	0.1977	1103.6934	0.087942	-497.922295	-497.914717	-497.913773	-497.954872	27.425	
C	 0.0591900785	 1.4894332667	 0.013190519	-0.474409
C	-0.0697464733	 0.0038451332	 0.0051236722	 0.436118
C	-1.2240272519	-0.6945697665	-0.1423927771	-0.393736
C	-1.0799430357	-2.1066498492	-0.1143418055	 0.37639
F	-2.1871116363	-2.8122967757	-0.2546820219	-0.046486
N	 0.0146874141	-2.7637719503	 0.0332475549	-0.386558
C	 1.1865119045	-2.0663076394	 0.1816975107	 0.447336
O	 2.2802632716	-2.5137051888	 0.3263276675	-0.319649
O	 1.0943080708	-0.6269380164	 0.1619809832	-0.251061
H	 0.7318340277	 1.8099068458	-0.7888583997	 0.166254
H	-0.9125982921	 1.9671940677	-0.1171700701	 0.145516
H	 0.502643083	 1.8203648038	 0.9578030648	 0.166252
H	-2.1836333507	-0.2182982408	-0.2715410479	 0.134032
101.3775	134.2278	177.5315	220.5497	285.639	384.8578	498.9678	527.2271	582.9319	607.5981	634.5745	735.1711	779.8912	788.2858	810.9797	965.618	1008.8794	1032.1166	1062.8737	1170.3183	1175.9578	1348.8567	1412.3594	1434.1447	1466.3121	1484.6046	1608.1968	1700.128	1898.4318	3048.3503	3109.0529	3151.0846	3254.8088
CC1=CC(F)=NC(=O)O1	Cc1cc(F)nc(=O)o1	
InChI=1S/C5H4FNO2/c1-3-2-4(6)7-5(8)9-3/h2H,1H3	InChI=1S/C5H4FNO2/c1-3-2-4(6)7-5(8)9-3/h2H,1H3
