16
gdb 12392	2.92862	2.26947	1.39125	3.4469	61.31	-0.2518	0.0059	0.2576	880.6504	0.130901	-420.910822	-420.903382	-420.902438	-420.942802	27.305	
C	 0.1848286227	 1.5519240522	-0.0888168526	-0.397943
C	 0.0787780964	 0.0347424211	-0.0099700043	-0.01501
O	 0.6098000166	-0.5102445834	-1.2082623379	-0.251741
C	 0.7858277842	-1.9074164447	-1.1080937633	-0.104265
C	 1.8422761289	-2.1919422479	-0.0618887365	-0.06671
O	 1.5003839506	-1.6078211182	 1.2068681413	-0.229748
C	 0.7308410693	-0.4982369194	 1.2761247871	 0.399407
O	 0.5221267891	 0.0111825214	 2.3433506211	-0.326
H	 1.230331494	 1.8544049517	-0.1939211095	 0.129721
H	-0.3707229501	 1.9136908778	-0.9571379536	 0.126618
H	-0.2224653909	 1.9971852303	 0.8193951452	 0.149814
H	-0.9845514031	-0.2525717941	 0.0796113817	 0.107283
H	-0.1619063769	-2.4082055064	-0.8501815625	 0.103867
H	 1.1122748102	-2.2687711975	-2.0874120309	 0.123394
H	 1.9594418991	-3.2640858318	 0.120361755	 0.124846
H	 2.8064206099	-1.7800793212	-0.3812893904	 0.126467
68.3264	147.0452	217.0286	276.6619	310.0448	400.3933	439.4887	485.8224	511.098	642.5117	686.1247	780.5192	880.783	919.2863	952.72	1042.4833	1081.6438	1113.9041	1121.3004	1156.3406	1165.0286	1227.1511	1270.0279	1303.3457	1346.9394	1350.8989	1400.9789	1408.2602	1427.0266	1486.6263	1490.8325	1497.9738	1503.3137	1841.6557	2945.6611	2977.7348	3042.3028	3057.3212	3094.5506	3099.5678	3129.8703	3158.2639
CC1OCCOC1=O	C[C@H]1OCCOC1=O	
InChI=1S/C5H8O3/c1-4-5(6)8-3-2-7-4/h4H,2-3H2,1H3	InChI=1S/C5H8O3/c1-4-5(6)8-3-2-7-4/h4H,2-3H2,1H3/t4-/m1/s1
