19
gdb 39323	2.49842	1.96377	1.39655	3.1371	73.29	-0.2187	0.0581	0.2767	966.5579	0.163627	-419.150212	-419.143174	-419.142229	-419.181767	28.549	
C	 0.2704577522	 1.396511242	 0.5270792891	-0.085052
O	 1.4662496669	 1.4807502298	-0.2784215053	-0.280472
C	 1.3456574891	 0.1089757547	-0.7065426023	 0.105492
C	 2.3520754097	-0.8444817846	-0.0860083466	-0.055978
N	 2.8354596161	-0.5298918102	 1.2633801088	-0.312657
C	 1.9528963096	-1.6894926686	 1.0873620811	-0.048496
C	 0.5544428319	-1.5381002506	 1.6831126907	-0.182603
N	-0.4820375888	-1.0667624205	 0.7536506671	-0.298038
C	-0.0929977707	 0.0313484009	-0.098742581	-0.03887
H	 0.506250777	 1.360178604	 1.5969777557	 0.111515
H	-0.4188919241	 2.2260053156	 0.334587781	 0.098254
H	 1.4003297643	 0.0301409016	-1.7991955407	 0.06461
H	 3.0677060349	-1.2811728833	-0.7791910346	 0.079816
H	 3.8055140015	-0.8156641496	 1.3601502994	 0.232812
H	 2.3973731325	-2.6807107228	 1.1494815931	 0.082473
H	 0.2141929879	-2.4958885871	 2.0875110729	 0.101423
H	 0.6164665594	-0.839844824	 2.5245831472	 0.124865
H	-0.7929723918	-1.8396126266	 0.1756368139	 0.216641
H	-0.8532982076	 0.1397356591	-0.8751890494	 0.084265
77.9057	197.9839	250.3426	376.9185	402.7688	442.1738	516.3254	575.3447	691.8624	716.7267	757.7339	805.642	812.1661	863.8968	897.0045	929.4991	943.3243	985.8328	1001.6407	1023.2327	1028.5738	1038.0594	1108.3553	1129.5012	1154.1899	1165.9589	1184.5887	1219.1313	1248.4418	1252.867	1265.0453	1285.1607	1340.279	1362.78	1372.7342	1404.1804	1417.6446	1450.1705	1479.6464	1501.6189	1521.6816	3021.0975	3028.8527	3045.2818	3069.2921	3087.3688	3089.5802	3117.66	3128.7965	3510.8284	3526.373
C1OC2C3NC3CNC12	C1O[C@H]2[C@H]3N[C@H]3CN[C@@H]12	
InChI=1S/C6H10N2O/c1-3-5(8-3)6-4(7-1)2-9-6/h3-8H,1-2H2	InChI=1S/C6H10N2O/c1-3-5(8-3)6-4(7-1)2-9-6/h3-8H,1-2H2/t3-,4-,5-,6+/m0/s1
