16
gdb 46155	4.81224	1.0218	0.86902	3.4495	72.09	-0.2422	0.0159	0.2581	1262.5343	0.124468	-437.877403	-437.86915	-437.868206	-437.910439	30.799	
O	-0.0212169045	-0.0709496318	 0.0772620983	-0.371119
C	-0.0078837983	 1.1434508302	 0.0286463792	 0.383506
C	-1.3074441037	 1.9482552558	 0.0026669412	-0.191914
O	-1.1724499156	 3.3104164696	-0.3650293944	-0.255049
C	-0.1173127421	 3.9393186786	 0.3502409493	-0.070273
C	 1.2173435327	 3.3249406945	-0.0943655552	-0.155991
N	 1.1404380138	 1.88007269	 0.050279125	-0.330233
C	-0.1528650097	 5.375165058	 0.1029320622	 0.294099
C	-0.1420798293	 6.5599373744	-0.090097192	-0.397187
H	-1.9769109029	 1.4844206793	-0.724000678	 0.14912
H	-1.7713900697	 1.8504352572	 0.9979001688	 0.12528
H	-0.244827352	 3.7549249209	 1.4313113691	 0.107053
H	 1.4095668183	 3.6205911759	-1.1337659336	 0.129045
H	 2.0297902475	 3.7152549408	 0.5270642367	 0.12643
H	 1.9920810146	 1.3375038193	 0.0288630637	 0.252303
H	-0.1488166791	 7.6086034172	-0.2599362103	 0.204931
73.3262	138.9339	166.2115	179.7775	313.2507	393.4068	428.3729	454.1561	494.1838	539.5917	572.2889	638.2325	640.9587	684.966	704.2494	804.7767	903.9052	1003.3888	1023.5021	1049.1567	1090.3043	1115.7007	1131.0541	1252.7169	1262.5277	1290.6831	1357.0291	1365.7618	1381.1699	1402.133	1467.4814	1477.629	1515.9142	1801.4207	2250.2878	2952.852	2982.4954	3022.539	3078.0267	3121.8571	3502.633	3606.0761
O=C1COC(CN1)C#C	O=C1CO[C@@H](CN1)C#C	
InChI=1S/C6H7NO2/c1-2-5-3-7-6(8)4-9-5/h1,5H,3-4H2,(H,7,8)	InChI=1S/C6H7NO2/c1-2-5-3-7-6(8)4-9-5/h1,5H,3-4H2,(H,7,8)/t5-/m1/s1
