14
gdb 30483	3.09042	1.41312	0.97555	4.886	69.7	-0.2598	-0.0586	0.2011	1133.2099	0.101705	-470.064604	-470.05655	-470.055606	-470.098402	28.088	
C	 0.0389151495	 1.4565203228	-0.274993777	-0.338463
N	-0.0266003181	 0.0052792401	-0.2633182211	-0.347917
C	-1.0590682141	-0.5797641848	 0.1480195114	 0.518319
N	-1.1147030363	-1.9773884562	 0.1561386745	-0.342147
C	-2.2073183911	-2.6377634342	 0.5918100246	 0.117556
N	-3.2871668263	-2.0886271845	 1.0342217538	-0.334518
C	-3.3365738934	-0.7057634934	 1.0677304539	 0.445191
O	-4.252899421	-0.0473203883	 1.4446304096	-0.306414
O	-2.1918553451	 0.0109330739	 0.611994866	-0.260231
H	 0.8931622586	 1.7781493362	 0.3306761501	 0.133604
H	 0.2297718469	 1.7950966042	-1.2991840968	 0.133638
H	-0.8646108157	 1.9487486379	 0.0979053892	 0.140665
H	-0.2928863115	-2.4551538829	-0.18072326	 0.286564
H	-2.1411425725	-3.7233493609	 0.554347262	 0.154154
55.8824	91.0888	95.4258	196.4039	250.0952	407.9177	442.3928	521.1264	562.9737	583.6834	617.545	714.2352	759.412	793.1483	918.2264	985.4184	1003.9737	1009.4286	1081.5653	1137.5076	1146.1004	1185.3076	1331.0282	1416.3761	1442.9999	1492.5204	1495.9013	1514.115	1678.547	1798.0765	1895.1817	3026.5773	3084.6706	3104.2332	3163.2189	3641.0491
CN=C1NC=NC(=O)O1	CN=c1[nH]cnc(=O)o1	
InChI=1S/C4H5N3O2/c1-5-3-6-2-7-4(8)9-3/h2H,1H3,(H,5,6,7,8)	InChI=1S/C4H5N3O2/c1-5-3-6-2-7-4(8)9-3/h2H,1H3,(H,5,6,7,8)
