15
gdb 46593	2.67725	1.91802	1.48212	2.8202	64.61	-0.2433	-0.0399	0.2034	894.3407	0.112303	-457.698885	-457.69193	-457.690986	-457.730317	27.023	
O	 0.0172605138	 0.0104302899	-0.0524921909	-0.295217
C	 0.0140128386	 1.2107969189	-0.033933163	 0.312255
C	-1.262340328	 2.1010501947	-0.1623906324	-0.204992
O	-0.8521707655	 3.38908262	-0.6458476483	-0.296019
C	 0.5362902743	 3.4618766748	-0.5324285189	 0.284741
C	 1.1706217926	 3.4183434362	 0.8180048934	-0.384727
C	 1.1535322244	 2.1745017626	-0.0554763134	 0.215193
O	 2.1934062081	 2.2059337942	-1.0430278832	-0.314254
C	 1.5557764091	 3.3659495818	-1.67170078	-0.141705
H	-1.9511839744	 1.6433429285	-0.8781231744	 0.151809
H	-1.7784027107	 2.1890914275	 0.8034135659	 0.134577
H	 2.1469724606	 3.8592674513	 0.9888941077	 0.14449
H	 0.4894510518	 3.4404597949	 1.6606145824	 0.141983
H	 1.0917726125	 3.0911871728	-2.6242348936	 0.129934
H	 2.256918643	 4.194791222	-1.8080169213	 0.121933
103.2507	148.7099	287.2928	345.3147	376.8541	462.0765	527.6471	571.7261	633.5819	652.779	715.9843	784.1902	867.103	906.6435	918.9203	958.3618	971.8191	986.9262	1032.6448	1045.2187	1057.0086	1114.362	1146.8577	1191.3318	1258.4446	1264.0818	1320.6908	1335.3031	1369.9715	1462.7968	1486.9318	1506.1213	1846.2979	3019.9369	3043.2672	3093.7545	3104.1517	3138.9921	3238.0571
O=C1COC23CC12OC3	O=C1CO[C@@]23C[C@@]12OC3	
InChI=1S/C6H6O3/c7-4-1-8-5-2-6(4,5)9-3-5/h1-3H2	InChI=1S/C6H6O3/c7-4-1-8-5-2-6(4,5)9-3-5/h1-3H2/t5-,6-/m1/s1
