16
gdb 116730	3.08957	0.63229	0.52832	3.3517	79.98	-0.2634	-0.0663	0.1972	1965.4903	0.120559	-437.846509	-437.836059	-437.835114	-437.88468	33.368	
C	-0.6648820252	 0.8939977742	 0.4694506584	-0.252859
O	 0.5212007871	 0.1204992455	 0.3154771443	-0.191991
C	 0.596813839	-0.9838519764	 1.0764146017	 0.151883
N	 1.6124427955	-1.7257190447	 1.0029801397	-0.238363
C	 1.6952577553	-2.9221071336	 1.8244278471	-0.266528
C	 0.5834249181	-3.2346866974	 2.7248072249	 0.095915
C	-0.3322867693	-3.496679596	 3.4699504383	-0.008022
C	-1.4297947607	-3.7961485054	 4.3531536911	 0.022121
O	-1.4775495215	-4.7576121585	 5.0851670856	-0.226161
H	-0.7696094467	 1.2670135338	 1.4951449087	 0.131076
H	-0.5672618474	 1.7406978582	-0.2104690099	 0.150836
H	-1.5573439575	 0.3172263853	 0.1992553879	 0.131046
H	-0.2698631177	-1.1583640074	 1.7271070922	 0.087751
H	 1.8494341587	-3.7824496752	 1.1583783171	 0.158163
H	 2.6146705525	-2.8608851428	 2.4231683384	 0.158155
H	-2.2571763103	-3.0580683196	 4.3142289045	 0.096976
39.0756	43.8884	54.461	102.9858	151.9888	152.1436	191.8128	224.5874	279.0676	392.3523	409.8371	479.5269	573.8253	674.4867	826.0029	945.4195	1010.4567	1016.7785	1020.6223	1066.6689	1133.9946	1177.0757	1181.615	1262.0857	1287.649	1343.8422	1410.851	1423.2073	1452.2395	1487.8287	1495.4951	1499.9037	1768.1416	1777.0283	2314.7079	2913.5841	3013.3601	3016.4414	3031.6879	3039.675	3083.3906	3149.2946
COC=NCC#CC=O	COC=NCC#CC=O	
InChI=1S/C6H7NO2/c1-9-6-7-4-2-3-5-8/h5-6H,4H2,1H3	InChI=1S/C6H7NO2/c1-9-6-7-4-2-3-5-8/h5-6H,4H2,1H3
