19
gdb 35919	3.02931	1.37108	1.05748	4.3259	79.27	-0.2455	0.0285	0.274	1147.4708	0.162789	-382.072511	-382.064734	-382.06379	-382.104808	30.508	
N	-0.111972917	-1.122680198	-0.248810139	-0.323413
C	-0.0552081313	 0.0245517516	-0.1252432231	 0.275251
C	 0.0029191686	 1.4902123897	 0.0021044903	-0.133032
N	-0.6910979183	 1.9076086983	 1.2212479855	-0.305583
C	-0.7023314058	 3.3674161002	 1.3372526983	-0.160256
C	 0.70074372	 3.8681020248	 1.6985553741	-0.202693
C	 1.7890871258	 3.1879552388	 0.8674935042	-0.048404
C	 2.2841259468	 1.8137688699	 1.2545981615	-0.275428
C	 1.4478136755	 1.9801621634	 0.017549775	-0.003863
H	-0.4788982859	 1.9041892557	-0.9053701993	 0.101842
H	-1.6344476531	 1.5375872804	 1.2167298241	 0.235352
H	-1.0379012482	 3.84844407	 0.3992814971	 0.083839
H	-1.4167005159	 3.6440619398	 2.1176982679	 0.106019
H	 0.7407734477	 4.9511801525	 1.5445970507	 0.100949
H	 0.8839480386	 3.6924157017	 2.7640734546	 0.112445
H	 2.5319784836	 3.8566405287	 0.4448238703	 0.090517
H	 3.3357524224	 1.5819146928	 1.1303523357	 0.113431
H	 1.8090223733	 1.3473213523	 2.1107388838	 0.13365
H	 1.9440642531	 1.8832388075	-0.9421944817	 0.099377
94.3608	142.339	197.4754	283.5261	349.0776	369.2516	438.6406	446.8179	557.774	609.8679	636.6963	757.5212	797.6088	819.4515	859.4933	870.7032	922.307	945.2982	992.0696	1011.7514	1075.4373	1082.7369	1093.0121	1114.4567	1135.993	1139.8976	1171.9588	1235.2307	1245.788	1267.9831	1317.2512	1343.714	1359.8472	1374.5616	1403.48	1416.1894	1477.4143	1481.8632	1495.2412	1501.4288	2361.4264	2902.7692	2923.8922	3040.8247	3079.1945	3086.1586	3137.5829	3152.77	3166.2698	3227.602	3542.1538
N#CC1NCCC2CC12	N#C[C@H]1NCC[C@H]2C[C@@H]12	
InChI=1S/C7H10N2/c8-4-7-6-3-5(6)1-2-9-7/h5-7,9H,1-3H2	InChI=1S/C7H10N2/c8-4-7-6-3-5(6)1-2-9-7/h5-7,9H,1-3H2/t5-,6+,7+/m0/s1
