18
gdb 51629	4.72459	1.02915	1.0016	3.2016	74.38	-0.2597	0.0232	0.2829	1232.2501	0.149015	-439.062781	-439.055158	-439.054214	-439.095727	28.999	
N	-0.0793495962	 1.231179943	 0.1457343512	-0.440832
C	-0.0600800284	-0.0287185958	 0.0987604872	 0.123743
O	-1.2203656591	-0.713767002	-0.0126106126	-0.195682
C	-1.1198841346	-2.123804136	 0.0174317821	 0.239533
O	-0.8171789715	-2.6031067308	 1.3267503095	-0.29513
C	-2.0117146016	-3.3587126525	 1.6472263435	 0.104637
C	-2.2280326175	-4.1853639233	 0.3561803354	-0.23475
C	-2.493538666	-2.7547815341	-0.212885161	-0.105333
C	-3.1565065816	-2.4380195474	 1.1684945251	-0.232131
H	 0.8716166809	 1.5882183205	 0.2144386055	 0.229591
H	 0.8278548561	-0.6726105154	 0.1330498799	 0.097679
H	-0.3362366429	-2.4465948241	-0.6797882268	 0.084578
H	-1.9207869445	-3.7741887767	 2.6485013558	 0.087941
H	-1.3723485646	-4.750196089	-0.0217504387	 0.103839
H	-3.1290426427	-4.8003767428	 0.3707650921	 0.109406
H	-2.9735430343	-2.5634714017	-1.1701524925	 0.088568
H	-4.1424140468	-2.8946758494	 1.2644618473	 0.105253
H	-3.1558590147	-1.4049274423	 1.5152172071	 0.129087
60.8512	97.2602	136.0444	258.8238	375.6911	419.8031	511.5391	532.5955	672.3319	710.2093	826.6953	839.6117	845.2772	859.2148	883.6214	928.5823	951.9991	976.7047	1006.1095	1033.103	1041.5544	1044.2228	1064.9622	1102.2449	1111.2211	1118.7719	1153.4134	1215.7251	1246.9924	1252.8774	1278.7758	1290.0646	1309.5339	1357.0664	1393.5626	1431.8913	1474.7851	1509.7584	1750.5986	3023.1757	3043.1955	3069.604	3089.5689	3138.2648	3146.435	3150.444	3160.131	3515.2415
N=COC1OC2CC1C2	[NH][CH]O[C@H]1O[C@@H]2C[C@H]1C2	
InChI=1S/C6H9NO2/c7-3-8-6-4-1-5(2-4)9-6/h3-7H,1-2H2	InChI=1S/C6H9NO2/c7-3-8-6-4-1-5(2-4)9-6/h3-7H,1-2H2/t4-,5+,6-/m0/s1
