18
gdb 103722	2.97534	1.21493	1.01368	4.1914	74.15	-0.2635	0.0135	0.277	1211.5049	0.143837	-439.064433	-439.054383	-439.053439	-439.099084	36.266	
C	 0.1906519759	 1.2170289645	 0.2943227007	-0.24795
O	-0.2455300284	-0.0101072339	-0.2629731455	-0.269628
C	 0.5483791522	-0.4982755858	-1.2936059351	 0.393488
C	 0.389713547	 0.2093296502	-2.6220520007	-0.460395
C	 1.875199334	-1.1153401958	-0.9141906798	-0.410255
C	 0.6872656221	-2.0166313708	-1.2551434008	 0.19407
O	 0.0234790913	-2.6728928427	-0.2248076305	-0.430666
C	 0.7211815847	-2.7471540252	-2.5061521371	 0.247166
N	 0.7595420993	-3.3553169392	-3.4896494931	-0.355052
H	 1.2273876941	 1.1536002302	 0.6533321127	 0.109641
H	 0.1178658684	 2.0478466796	-0.420290094	 0.115066
H	-0.467715125	 1.4237108313	 1.1403842271	 0.137596
H	 0.7727643961	 1.2327963754	-2.561593529	 0.124566
H	 0.9339055385	-0.3037707472	-3.4177633345	 0.14379
H	-0.6681019397	 0.2505087544	-2.8972216079	 0.141875
H	 2.7068133474	-1.0623714535	-1.6076977665	 0.135196
H	 2.1328077742	-1.1124375233	 0.1390240807	 0.134422
H	 0.5490583678	-3.4405889883	 0.0292154433	 0.29707
82.1991	112.923	136.2464	180.8155	201.7232	225.789	259.923	290.7053	310.4304	381.2187	403.8793	452.2212	470.8702	580.8039	628.0655	717.3061	732.7014	877.8095	909.8594	923.0739	958.4395	1049.4521	1084.1925	1118.6713	1129.9104	1180.679	1217.5312	1226.4377	1291.4619	1304.9167	1381.1149	1416.8461	1457.6051	1475.2385	1481.0751	1491.9715	1503.729	1509.8229	2344.3202	2997.0199	3044.6247	3052.2873	3112.9414	3127.5874	3133.8582	3138.3246	3236.779	3791.9611
COC1(C)CC1(O)C#N	CO[C@@]1(C)C[C@]1(O)C#N	
InChI=1S/C6H9NO2/c1-5(9-2)3-6(5,8)4-7/h8H,3H2,1-2H3	InChI=1S/C6H9NO2/c1-5(9-2)3-6(5,8)4-7/h8H,3H2,1-2H3/t5-,6-/m0/s1
