18
gdb 49015	2.94127	1.57868	1.30064	3.1682	75.46	-0.2344	-0.0318	0.2025	1011.7113	0.147869	-401.884522	-401.87703	-401.876086	-401.916407	29.549	
O	-0.7846656081	 1.0231410017	 0.4952126396	-0.263904
C	 0.2660632502	 0.8552617646	-0.0754112949	 0.090838
C	 1.4190133173	 1.8072800785	-0.0070961255	 0.270198
C	 1.4294271763	 2.8567926402	 1.1348798951	-0.302111
C	 1.5727458084	 4.0093620481	 0.0903459357	-0.243482
C	 1.5532919834	 2.9628273903	-1.0572882378	-0.077153
C	 2.8758951699	 2.3054085356	-1.4747574537	-0.036014
C	 3.8163789929	 2.0930352147	-0.3617285996	-0.246684
N	 2.6981098513	 1.1439069576	-0.4990493223	-0.191843
H	 0.4443576518	-0.0244819672	-0.7307326475	 0.087345
H	 0.4654146471	 2.8532530578	 1.6467870148	 0.136796
H	 2.2238395563	 2.7523324773	 1.8771450837	 0.111857
H	 0.7169501952	 4.6868852183	 0.0727928397	 0.114983
H	 2.4850751439	 4.6078141048	 0.1523275825	 0.106845
H	 0.8255158046	 3.0853724681	-1.8582237749	 0.089488
H	 3.1608317427	 2.1252605274	-2.5068580092	 0.100535
H	 4.768371307	 1.6311637721	-0.6066505315	 0.128543
H	 3.8618698501	 2.7719005199	 0.4828611758	 0.123764
96.5958	178.2972	210.607	267.2146	327.2696	390.1203	441.6098	548.6242	654.5301	708.3825	726.7562	740.1127	773.8984	855.981	868.5193	918.3177	936.5219	951.9823	970.3516	1023.3296	1062.8301	1095.4596	1104.718	1109.246	1117.2329	1142.9681	1162.6979	1228.8697	1231.6953	1239.5618	1259.4106	1294.607	1313.9155	1365.8978	1406.3179	1469.992	1482.5242	1509.6078	1810.7996	2904.9122	3066.1703	3074.1606	3112.2266	3123.5883	3127.8836	3135.3695	3156.0179	3209.2528
O=CC12CCC1C1CN21	O=C[C@]12CC[C@H]1[C@H]1CN21	
InChI=1S/C7H9NO/c9-4-7-2-1-5(7)6-3-8(6)7/h4-6H,1-3H2	InChI=1S/C7H9NO/c9-4-7-2-1-5(7)6-3-8(6)7/h4-6H,1-3H2/t5-,6+,7+,8?/m0/s1
