18
gdb 47080	3.04692	1.53571	1.06788	3.9641	79.55	-0.237	-0.0244	0.2126	1105.7094	0.15131	-402.005434	-401.998158	-401.997214	-402.037153	28.696	
O	 0.0462648235	 0.0035298082	 0.3209549594	-0.378986
C	 0.0295350997	 1.1809164807	 0.0304224537	 0.326961
N	-1.1042580237	 1.9479834168	-0.1868158233	-0.33071
C	-0.8689113135	 3.3900498424	-0.2974376898	-0.196943
C	 0.6173495101	 3.4325658618	-0.7170114447	-0.060811
C	 1.6060749107	 4.4792705479	-0.1656957166	-0.243349
C	 2.9124678576	 3.659738389	 0.072151679	-0.248605
C	 2.3976380258	 2.2503196761	 0.3012645066	-0.220021
C	 1.1460236939	 2.1448594627	-0.1384338557	 0.241995
H	-2.0050897003	 1.5649241198	 0.0557593653	 0.249324
H	-1.5428649921	 3.841120593	-1.0317676174	 0.112396
H	-1.0217786364	 3.9004497146	 0.6654252824	 0.105987
H	 0.6655277925	 3.3964356255	-1.8147421717	 0.091554
H	 1.7555214423	 5.3361072053	-0.8275965313	 0.100767
H	 1.2418512552	 4.8600273766	 0.7955105951	 0.105652
H	 3.5747681932	 3.6984067744	-0.8051129386	 0.1156
H	 3.499916768	 4.0366092469	 0.9159707628	 0.111222
H	 2.9703409036	 1.4664843483	 0.7823820848	 0.117967
124.3531	183.3177	186.6777	293.4737	322.6791	463.8354	523.337	575.7285	591.3917	658.9673	706.8231	754.7408	810.3528	847.4888	895.2422	908.2428	954.724	969.8333	988.6622	1032.607	1080.8157	1086.4093	1118.3967	1167.8668	1203.1174	1216.0688	1250.7636	1259.2673	1298.347	1302.4976	1329.0341	1348.8544	1361.4273	1434.9593	1479.6195	1494.7482	1526.8619	1728.4368	1818.8376	2986.5923	2999.9196	3005.5646	3041.2978	3069.1843	3073.1123	3101.2458	3210.0303	3631.548
O=C1NCC2CCC=C12	O=C1NC[C@H]2CCC=C12	
InChI=1S/C7H9NO/c9-7-6-3-1-2-5(6)4-8-7/h3,5H,1-2,4H2,(H,8,9)	InChI=1S/C7H9NO/c9-7-6-3-1-2-5(6)4-8-7/h3,5H,1-2,4H2,(H,8,9)/t5-/m1/s1
