19
gdb 72504	2.25821	1.8628	1.66132	2.6544	79.19	-0.2344	0.0004	0.2348	960.8889	0.160587	-385.924264	-385.916472	-385.915528	-385.956113	30.993	
C	-0.0034367505	 1.5328877545	 0.0094913528	-0.489652
C	 0.0415393402	 0.0184880383	 0.0153104501	 0.1695
C	 0.6503442911	-0.6672987805	-1.2566965815	-0.243078
C	 0.1250485084	-2.1380833944	-1.1975641457	-0.222624
C	-0.7378457868	-2.1693532126	 0.1062450679	-0.170783
C	 0.1805383842	-1.9359388614	 1.2841005607	-0.097209
C	 0.6365381636	-0.673808874	 1.2261388178	-0.110538
C	-1.3187835259	-0.7356900811	 0.0340022484	 0.408409
O	-2.4389558075	-0.3235167538	 0.0022448737	-0.328779
H	 1.0038170133	 1.9599632493	-0.0396394604	 0.114055
H	-0.5685789358	 1.9002592605	-0.8524136577	 0.126799
H	-0.4908362841	 1.9150371612	 0.911569461	 0.127846
H	 0.2962042461	-0.1564115913	-2.1580737072	 0.106471
H	 1.7412412532	-0.6107272388	-1.2473385161	 0.105402
H	-0.4942008885	-2.3741912334	-2.067966706	 0.110131
H	 0.9341052308	-2.8699107949	-1.1519102326	 0.1076
H	-1.4504735755	-2.9883856535	 0.1798005684	 0.081228
H	 0.4245360643	-2.6862960919	 2.0253954811	 0.104264
H	 1.3219247494	-0.1924445521	 1.9135283952	 0.100959
137.7853	167.9032	197.2748	226.5099	310.3141	351.0698	436.6192	505.8143	610.3184	649.4177	669.6957	721.174	756.212	783.9213	833.6447	866.0586	872.7479	919.9327	944.4742	945.6852	985.0664	1019.2049	1044.3955	1107.4962	1124.2899	1144.4845	1170.921	1211.5526	1234.9841	1251.1046	1269.8581	1297.4762	1330.2791	1376.9513	1414.6904	1483.7259	1491.0107	1493.329	1501.8759	1621.7985	1889.0208	3036.0389	3046.5241	3061.4643	3095.0286	3102.5829	3110.87	3114.3569	3140.0406	3193.734	3218.9195
CC12CCC(C=C1)C2=O	C[C@@]12CC[C@@H](C=C1)C2=O	
InChI=1S/C8H10O/c1-8-4-2-6(3-5-8)7(8)9/h2,4,6H,3,5H2,1H3	InChI=1S/C8H10O/c1-8-4-2-6(3-5-8)7(8)9/h2,4,6H,3,5H2,1H3/t6-,8+/m1/s1
