17
gdb 33257	5.49377	0.80889	0.73675	4.1111	71.5	-0.2029	0.027	0.2298	1499.5877	0.137232	-455.166298	-455.157761	-455.156817	-455.200778	30.949	
O	-0.0343389868	 1.4189884741	-0.0800579203	-0.422608
C	-0.0115217132	 0.0078100806	 0.0151916077	-0.064835
C	-1.4105648159	-0.5803478676	 0.0529020127	-0.073856
O	-2.0295649838	-0.1929657048	-1.1798554922	-0.302956
C	-3.325119234	-0.5370803213	-1.3397919808	 0.380074
C	-4.1108279362	-0.1983177642	-2.4150423398	-0.222628
N	-5.3347491351	-0.7808150396	-2.1335651093	-0.232925
C	-5.2253678169	-1.4166787945	-0.9425757649	 0.018632
N	-4.015099846	-1.2888499374	-0.4328905284	-0.334953
H	-0.624983065	 1.6242506525	-0.8137407189	 0.289313
H	 0.5485902276	-0.4432324294	-0.8196715784	 0.09169
H	 0.51104981	-0.2445092158	 0.9437724399	 0.109619
H	-1.3867639355	-1.6729174834	 0.1403923215	 0.110981
H	-1.9826120487	-0.1786553491	 0.8963176537	 0.120359
H	-3.9241999709	 0.3699699219	-3.3083312388	 0.130524
H	-6.1555227171	-0.7349942388	-2.7129520191	 0.269311
H	-6.0451031422	-1.9537196531	-0.4908385645	 0.134258
43.6214	56.1151	136.2865	182.9249	289.2815	325.7259	412.1174	472.0719	493.1525	504.2801	647.4046	663.083	731.1372	738.4795	793.2227	889.7848	903.4315	947.3954	999.5523	1065.2568	1086.8062	1101.2041	1130.1654	1151.3643	1230.9434	1251.2283	1260.347	1327.2317	1354.4219	1384.2416	1393.6689	1440.0543	1481.9167	1497.9035	1502.2077	1520.9635	1622.604	2980.0029	3033.8476	3078.449	3085.9814	3258.1379	3294.8155	3672.29	3802.9354
OCCOC1=CNC=N1	OCCOc1c[nH]cn1	
InChI=1S/C5H8N2O2/c8-1-2-9-5-3-6-4-7-5/h3-4,8H,1-2H2,(H,6,7)	InChI=1S/C5H8N2O2/c8-1-2-9-5-3-6-4-7-5/h3-4,8H,1-2H2,(H,6,7)
