16
gdb 52573	4.5895	0.59678	0.5491	4.6524	79.48	-0.2522	-0.0357	0.2165	1957.9063	0.120817	-437.896715	-437.886259	-437.885314	-437.93531	34.021	
C	-0.0766585356	 1.445503348	-0.0780013906	-0.505684
C	-0.0090145425	-0.0059521495	-0.0638362042	 0.160142
C	 0.0377116672	-1.2103220788	-0.0570465355	-0.056715
C	 0.0445097257	-2.660991764	-0.0774776783	 0.266129
O	-0.8183932164	-3.3270201834	-0.620382172	-0.354724
N	 1.1194413876	-3.2136676935	 0.5747386106	-0.326813
C	 1.2894527179	-4.6436585262	 0.6946475519	-0.251236
C	 2.4805411885	-5.1565127095	-0.1032418668	 0.15372
O	 3.1835665547	-6.0660612826	 0.2470691143	-0.229675
H	 0.853450749	 1.8785872453	-0.4612141279	 0.160176
H	-0.8991223907	 1.7949351237	-0.7104643891	 0.165397
H	-0.236475029	 1.8388281113	 0.9316946387	 0.16132
H	 1.7723690308	-2.5926586579	 1.0247540125	 0.259429
H	 1.389662831	-4.9638382369	 1.7366179077	 0.132736
H	 0.3821752958	-5.0968385929	 0.2755103517	 0.17806
H	 2.6470592962	-4.6120395031	-1.060715763	 0.08774
21.1733	46.5912	48.7312	83.2342	100.3765	167.899	272.9971	309.2363	353.3595	389.1519	419.9849	481.2478	521.1406	603.4837	740.7607	763.3893	856.5834	1006.827	1048.7722	1052.0076	1052.3193	1114.0407	1148.4383	1241.8137	1270.6657	1337.4463	1410.8778	1411.5534	1444.7489	1471.057	1474.022	1523.5312	1755.6577	1840.346	2356.3029	2880.4685	3033.5737	3040.6729	3095.9931	3097.0399	3101.6379	3643.5733
CC#CC(=O)NCC=O	CC#CC(=O)NCC=O	
InChI=1S/C6H7NO2/c1-2-3-6(9)7-4-5-8/h5H,4H2,1H3,(H,7,9)	InChI=1S/C6H7NO2/c1-2-3-6(9)7-4-5-8/h5H,4H2,1H3,(H,7,9)
