17
gdb 102766	1.69016	1.10842	0.74305	3.554	75.14	-0.2639	-0.0025	0.2614	1542.1793	0.132186	-458.95089	-458.940201	-458.939257	-458.991396	35.01	
C	 0.3733920802	 1.2350601823	-0.1576298346	-0.498731
C	 0.1503506529	-0.2001308035	-0.0773094047	 0.037715
C	-0.0428743333	-1.3867142224	-0.0167737957	 0.148802
C	-0.2709617805	-2.8227615375	 0.0703620047	-0.126367
C	-1.7569854831	-3.2118737855	 0.0981036867	-0.062256
O	-2.4389934949	-2.7988837191	-1.0582060276	-0.409943
O	 0.2566120574	-3.5158414297	-1.0957477409	-0.199953
C	 1.5981190755	-3.5841364168	-1.221352702	 0.179515
O	 2.1257947004	-4.1232070038	-2.1462284931	-0.270003
H	 1.4424274617	 1.470063257	-0.1938469262	 0.155161
H	-0.0948284493	 1.6566287691	-1.0532471708	 0.160596
H	-0.0514000559	 1.7460122884	 0.7130509014	 0.156902
H	 0.2135814927	-3.2326367736	 0.9675695502	 0.113255
H	-1.8129090761	-4.3013237957	 0.2466062957	 0.102006
H	-2.2352559724	-2.7218703955	 0.9508151303	 0.12391
H	-1.971284284	-3.1776317488	-1.8117283899	 0.299009
H	 2.1350811485	-3.1006644448	-0.3846703034	 0.090383
2.0293	45.5074	85.8619	89.4741	121.4581	162.0215	221.5515	286.0719	304.3283	357.1364	416.5464	424.6111	490.5636	627.2931	688.4683	807.2663	921.9891	975.8386	1033.8225	1041.9531	1051.3412	1053.1956	1113.6855	1163.7691	1172.9285	1248.772	1306.6629	1344.862	1403.776	1413.2799	1427.0208	1434.9726	1474.1465	1476.5429	1492.8891	1867.0394	2372.2921	2973.167	2989.5626	3014.1258	3032.8769	3096.0857	3096.8731	3098.0454	3801.1517
CC#CC(CO)OC=O	CC#C[C@@H](CO)OC=O	
InChI=1S/C6H8O3/c1-2-3-6(4-7)9-5-8/h5-7H,4H2,1H3	InChI=1S/C6H8O3/c1-2-3-6(4-7)9-5-8/h5-7H,4H2,1H3/t6-/m0/s1
