17
gdb 55998	3.33065	1.13011	0.87742	7.7867	70.84	-0.2428	0.0093	0.2521	1261.6863	0.136773	-455.181833	-455.173519	-455.172575	-455.215234	30.776	
O	 0.1339269695	 0.036496775	-0.8880479284	-0.37927
C	 0.0793786068	 1.0962770663	-0.0800681277	 0.388871
O	 1.0129306792	 1.4069528533	 0.6154544594	-0.330383
C	-1.2167981616	 1.9254692653	-0.084770004	-0.347512
C	-2.5033693631	 1.1079979198	 0.0222956262	-0.098136
C	-3.8765270369	 1.8570360422	-0.0415883306	-0.190886
N	-4.2187787873	 0.9756794324	-1.1727216115	-0.326645
C	-2.9641022766	 0.4279443125	-1.2643430789	 0.434209
N	-2.3058180174	-0.2937284355	-2.0769077597	-0.590237
H	-2.8114354161	-0.5674804956	-2.9163830336	 0.224428
H	-0.6930649541	-0.1216720819	-1.4182785601	 0.335895
H	-1.1344350842	 2.6215222125	 0.7525159249	 0.134808
H	-1.2369927439	 2.5207701053	-1.0071796019	 0.123745
H	-2.4568829175	 0.4123092379	 0.8645052619	 0.123055
H	-4.5338697431	 1.7489876308	 0.8248804352	 0.124642
H	-3.7883923118	 2.91441157	-0.31238293	 0.122037
H	-4.9050391519	 1.1121555997	-1.9000739212	 0.251379
79.3483	106.1566	157.4531	212.7226	242.2209	304.7876	401.8198	451.0036	482.1361	593.7536	654.192	711.8512	771.0268	797.0055	828.2905	887.41	888.3291	900.2675	988.5276	998.2028	1057.7461	1094.4018	1128.6734	1155.441	1183.8078	1242.2653	1250.8623	1293.4673	1305.1403	1349.7134	1361.6623	1398.9329	1452.0811	1471.3457	1522.3655	1788.0285	1844.6261	3030.8565	3045.1295	3080.487	3103.3939	3114.0148	3187.9426	3507.8216	3609.5166
[O-]C(=O)CC1CNC1=[NH2+]	OC(=O)C[C@H]1CNC1=N	
InChI=1S/C5H8N2O2/c6-5-3(2-7-5)1-4(8)9/h3H,1-2H2,(H2,6,7)(H,8,9)	InChI=1S/C5H8N2O2/c6-5-3(2-7-5)1-4(8)9/h3H,1-2H2,(H2,6,7)(H,8,9)/t3-/m0/s1
