19
gdb 101089	2.15225	1.3716	0.96163	1.6119	72.33	-0.2611	-0.0432	0.2178	1267.2019	0.156098	-460.151153	-460.14136	-460.140416	-460.186033	35.432	
C	 0.0170437879	 1.4916171997	-0.0386846967	-0.38562
C	-0.0174604276	-0.0368982822	-0.1010847057	-0.206056
C	-1.418882083	-0.6052022153	 0.1696750611	 0.041157
O	-2.3807731323	-0.0873604718	-0.7369057416	-0.432792
C	-1.4301707177	-2.1323660927	 0.1237768613	 0.277622
C	-2.626618239	-2.858282571	-0.358857193	-0.221812
O	-1.4874833484	-2.7013662451	-1.1989167805	-0.279117
C	-0.5584798814	-2.9060426865	 1.0638042135	 0.11986
O	-0.0606343567	-2.4514385314	 2.0621685318	-0.260012
H	 1.0157960068	 1.8696349715	-0.2753682401	 0.112308
H	-0.6941144425	 1.9275061643	-0.74472498	 0.127256
H	-0.2464124892	 1.848841748	 0.9629487391	 0.118333
H	 0.3110260896	-0.3843161408	-1.0906274396	 0.096819
H	 0.6778393322	-0.4595434292	 0.6306343333	 0.125757
H	-1.74962725	-0.2943314872	 1.1671153999	 0.110198
H	-2.137637037	-0.4213514088	-1.6102554511	 0.288409
H	-2.8184276505	-3.8764412771	-0.0236603951	 0.125839
H	-3.4928542886	-2.2589771945	-0.6235407355	 0.146864
H	-0.4205533325	-3.96697964	 0.7573098288	 0.094989
66.3522	97.1908	135.1893	173.1053	196.7388	225.5246	274.8674	318.3702	352.567	420.477	427.8129	473.9295	508.5314	634.053	759.252	793.6623	864.0961	888.3762	901.4154	980.2069	997.2186	1034.3857	1073.2103	1107.6748	1132.572	1142.661	1169.1847	1242.0413	1273.0474	1312.3367	1335.9646	1346.3708	1385.1353	1407.4627	1418.0355	1426.4478	1487.3017	1496.5761	1506.9779	1508.7609	1822.6365	2891.4952	3016.7369	3039.8073	3058.9224	3088.3907	3098.1686	3105.6956	3126.0781	3204.4486	3771.4506
CCC(O)C1(CO1)C=O	CC[C@@H](O)[C@]1(CO1)C=O	
InChI=1S/C6H10O3/c1-2-5(8)6(3-7)4-9-6/h3,5,8H,2,4H2,1H3	InChI=1S/C6H10O3/c1-2-5(8)6(3-7)4-9-6/h3,5,8H,2,4H2,1H3/t5-,6-/m1/s1
