17
gdb 103589	3.51263	1.06938	1.02856	4.5997	71.08	-0.2392	-0.0466	0.1926	1198.6403	0.134978	-458.98926	-458.980627	-458.979683	-459.022716	32.554	
O	-0.0813573812	 1.4426225673	-0.1128801714	-0.436659
C	 0.0200938645	 0.0301310599	 0.0426419312	-0.1373
C	-1.4155061261	-0.5062563318	 0.0297029742	 0.367257
O	-2.0413012116	-0.0987879481	-1.1821550275	-0.478193
C	-1.4797737167	-2.0360387222	 0.1616514351	-0.403676
C	-2.1810677202	-2.3147783735	 1.5002107491	 0.379151
O	-2.3329604611	-3.3997843311	 2.0087326263	-0.326702
C	-2.6213537217	-1.0025087033	 2.0340598641	-0.192943
C	-2.2056641415	-0.0145581301	 1.2371793653	-0.085109
H	 0.7879228488	 1.7989223297	-0.3151773657	 0.299831
H	 0.5699464655	-0.4224013141	-0.7945283375	 0.105792
H	 0.5224780364	-0.2382218766	 0.9830642362	 0.102124
H	-1.7786540975	 0.8219180593	-1.3159863865	 0.286819
H	-2.0786338449	-2.4439634554	-0.6569245974	 0.152873
H	-0.5036694946	-2.5289178456	 0.1343446805	 0.122542
H	-3.1960753424	-0.9128211422	 2.9474715822	 0.118795
H	-2.3842443556	 1.0450894378	 1.3805373419	 0.125397
55.4833	131.4587	191.2317	247.7896	251.7049	349.4037	365.3713	383.5955	427.7862	474.4283	521.5592	600.2921	672.3071	692.8263	812.006	829.7022	839.1309	902.2487	952.8763	1007.1963	1038.561	1078.4428	1080.2928	1124.9122	1134.6323	1190.1394	1209.1709	1250.1536	1269.9073	1294.0919	1352.65	1405.9132	1440.9202	1446.7372	1506.1301	1652.5678	1821.4003	2991.7624	3037.0926	3067.0058	3115.5548	3199.6386	3225.0232	3762.5637	3844.9371
OCC1(O)CC(=O)C=C1	OC[C@@]1(O)CC(=O)C=C1	
InChI=1S/C6H8O3/c7-4-6(9)2-1-5(8)3-6/h1-2,7,9H,3-4H2	InChI=1S/C6H8O3/c7-4-6(9)2-1-5(8)3-6/h1-2,7,9H,3-4H2/t6-/m0/s1
