19
gdb 60893	3.31775	1.17758	1.05813	2.2419	76.58	-0.2676	-0.0378	0.2298	1185.9565	0.158807	-422.982447	-422.974189	-422.973245	-423.015893	31.506	
O	-0.0059258149	 1.4640335474	 0.1461504756	-0.429518
C	 0.042763823	 0.0636325416	 0.0749504781	-0.098988
C	 0.6944631064	-0.3768433549	-1.2204239396	 0.134693
O	 1.1109364875	 0.421527644	-2.0252929949	-0.264579
C	 0.7774758462	-0.5143411486	 1.2729553468	 0.349541
C	 2.2625682126	-0.2613135374	 1.6779248786	-0.253301
C	 1.6704935631	-1.1826647982	 2.7823282207	-0.047436
C	 0.406447116	-0.2754359618	 2.7662465714	-0.255465
C	 1.0056512394	-2.0130207226	 1.6462020768	-0.274568
H	 0.4102215439	 1.7791196266	-0.6720551806	 0.294828
H	-0.9802161002	-0.358844145	 0.0681728632	 0.091562
H	 0.7700964368	-1.4694858927	-1.3895031527	 0.102833
H	 3.0309131776	-0.6989370866	 1.033314294	 0.090209
H	 2.5155032344	 0.7601319479	 1.970054128	 0.10404
H	 2.1884634219	-1.5727390103	 3.6583217151	 0.077062
H	 0.523879828	 0.7462366191	 3.1333870274	 0.106064
H	-0.5276816659	-0.7260922322	 3.1138265563	 0.089262
H	 0.1175751021	-2.5923890496	 1.9150737354	 0.093061
H	 1.6785453721	-2.5876792766	 1.0027503603	 0.090701
56.1169	88.5195	160.8399	233.6762	300.2527	360.2055	401.442	457.3289	540.4913	553.1614	665.6278	779.8987	789.8135	801.3928	863.7621	891.7369	937.031	953.899	962.4299	978.4247	995.8965	1021.1938	1096.4533	1100.4284	1136.4287	1139.2799	1146.9977	1159.1341	1173.5347	1227.1031	1230.3791	1237.9204	1265.3087	1299.4597	1335.4537	1392.5222	1435.6271	1497.9427	1500.0291	1555.7128	1810.1302	2925.4201	2943.5901	3042.15	3050.0392	3056.2955	3107.0701	3114.1201	3121.2824	3126.2859	3688.8931
OC(C=O)C12CC(C1)C2	O[C@@H](C=O)[C@@]12C[C@@H](C1)C2	
InChI=1S/C7H10O2/c8-4-6(9)7-1-5(2-7)3-7/h4-6,9H,1-3H2	InChI=1S/C7H10O2/c8-4-6(9)7-1-5(2-7)3-7/h4-6,9H,1-3H2/t5-,6-,7-/m0/s1
