17
gdb 20899	4.89259	1.39476	1.17257	2.746	70.85	-0.2473	0.0175	0.2648	1059.7664	0.14347	-360.086016	-360.077937	-360.076993	-360.119173	28.437	
C	-0.1965252603	 1.5238719055	 0.1623994779	-0.373659
C	 0.1364099729	 0.0431537923	-0.0173288471	-0.145231
N	 0.7673259713	-0.5314178068	 1.1589427163	 0.060068
C	 0.2974568983	-1.4448440371	 2.0302450039	-0.000434
N	 1.1799775056	-1.6800694774	 2.9819851525	-0.316893
C	 2.2164160044	-0.8560501487	 2.6432333933	 0.352439
C	 3.4794348442	-0.7656758218	 3.4319384134	-0.480399
N	 2.0085914316	-0.1406205957	 1.5446280463	-0.304512
H	 0.7111802098	 2.0895133207	 0.3837844715	 0.152672
H	-0.6426974303	 1.9211570736	-0.7540041189	 0.122012
H	-0.9041878151	 1.6687992748	 0.9838828348	 0.127301
H	-0.7665581713	-0.5431644234	-0.2115419687	 0.122417
H	 0.813845058	-0.0971947869	-0.8652266074	 0.13519
H	-0.6749749881	-1.9041073271	 1.9274790959	 0.136093
H	 3.9764977942	-1.7396594528	 3.4800826925	 0.138332
H	 4.158236111	-0.0435189889	 2.9752308878	 0.136549
H	 3.2715317039	-0.4572411404	 4.461313006	 0.138053
58.9917	95.43	119.5302	200.4562	266.7573	295.4868	394.7566	431.8944	623.1985	667.586	720.674	738.7938	797.2076	855.9763	972.0843	992.369	1043.2725	1051.5541	1069.2649	1097.8463	1123.3597	1224.5399	1263.2844	1339.8482	1355.0301	1389.9938	1405.1455	1409.8272	1459.8069	1478.2517	1480.5692	1481.4389	1488.4646	1503.6108	1509.3248	1565.8981	3046.4292	3047.9446	3056.2223	3098.8015	3102.1615	3121.2725	3139.6903	3143.5674	3248.3459
CCN1C=NC(C)=N1	CCn1cnc(C)n1	
InChI=1S/C5H9N3/c1-3-8-4-6-5(2)7-8/h4H,3H2,1-2H3	InChI=1S/C5H9N3/c1-3-8-4-6-5(2)7-8/h4H,3H2,1-2H3
