19
gdb 71702	3.58358	1.50222	1.42329	1.2256	77.76	-0.2228	0.0904	0.3132	1012.2693	0.159178	-385.846276	-385.838702	-385.837758	-385.877735	30.838	
C	-0.0884847128	 1.4407250932	-0.0144711272	-0.492122
C	-0.0024668678	-0.0542112082	 0.0066956073	 0.45
O	-0.3020914419	-0.6826130567	-1.215025121	-0.267272
C	-0.1386560504	-2.0306347931	-0.8840035575	 0.009186
C	-0.5315104022	-2.3174071444	 0.5562650435	-0.188113
C	-0.4319328916	-0.9171431131	 1.1839782662	-0.165945
C	 1.0413179922	-0.8400333639	 0.7813737194	-0.242008
C	 0.9455630082	-2.2501525168	 0.1543428833	 0.310814
C	 2.0168492869	-3.2955237973	 0.1213034685	-0.517171
H	 0.6155689629	 1.8611876725	-0.7392868312	 0.130079
H	-1.0970835273	 1.7675993782	-0.2857990609	 0.130775
H	 0.15035825	 1.8478515775	 0.9717163664	 0.123482
H	-0.3235973376	-2.7208155442	-1.6967395815	 0.101202
H	-1.1401543506	-3.149307624	 0.8838316814	 0.08579
H	-0.9418715497	-0.5507822247	 2.0644060588	 0.085996
H	 1.8931538106	-0.4088579248	 1.2908035438	 0.08323
H	 2.3639859139	-3.5519472522	 1.1288217336	 0.120881
H	 1.6503067075	-4.216144117	-0.3452877857	 0.118768
H	 2.8856621198	-2.9546009211	-0.4549388573	 0.122427
184.8187	198.4462	207.3331	227.4697	296.7633	326.8783	524.7668	579.9619	626.1257	630.3058	719.8367	757.3368	792.7746	803.6828	831.1807	871.3835	883.0495	900.9302	916.6431	945.2158	977.2098	1004.4746	1030.6163	1059.2342	1098.426	1101.5403	1117.8916	1154.9023	1182.2762	1196.1905	1215.4852	1281.2883	1317.4647	1387.7934	1413.8342	1428.9512	1440.2085	1478.82	1484.8925	1499.4452	1503.2082	3018.7821	3040.5975	3077.3121	3091.7543	3106.3519	3119.9784	3194.679	3200.3712	3208.4042	3213.9725
CC12OC3C4C1C2C34C	C[C@]12O[C@@H]3[C@@H]4[C@H]1[C@H]2[C@]34C	
InChI=1S/C8H10O/c1-7-4-3-5(7)8(3,2)9-6(4)7/h3-6H,1-2H3	InChI=1S/C8H10O/c1-7-4-3-5(7)8(3,2)9-6(4)7/h3-6H,1-2H3/t3-,4-,5-,6+,7+,8-/m0/s1
