19
gdb 26321	3.86007	1.03061	0.86237	1.5856	78.36	-0.203	0.0342	0.2372	1370.3356	0.159666	-419.25635	-419.247218	-419.246274	-419.290221	34.339	
C	-0.6907251983	 1.5401796173	-0.2690632826	-0.396831
C	 0.0534618528	 0.2130646032	-0.080284462	-0.077345
C	-0.8959278407	-0.906799099	 0.3844703777	-0.381728
C	 0.7928308735	-0.201184623	-1.3174378435	 0.272611
C	 0.8072587402	 0.3477556009	-2.552223804	-0.153337
O	 1.6457791242	-0.4159320177	-3.3529947193	-0.187457
C	 2.0840444636	-1.3853333356	-2.5243769159	 0.447529
N	 2.8971650334	-2.3446630042	-3.0747448255	-0.588737
N	 1.6311803348	-1.3245175998	-1.3113789633	-0.388778
H	-0.008736471	 2.3453943869	-0.5598185268	 0.114273
H	-1.4610923014	 1.4510487117	-1.0435815768	 0.115662
H	-1.1882930052	 1.8367899482	 0.6590397212	 0.112145
H	 0.8067947139	 0.3485566478	 0.7086015322	 0.08967
H	-1.6963143911	-1.063141711	-0.3473098254	 0.111768
H	-0.3534191963	-1.8480451904	 0.4995562108	 0.135757
H	-1.3570553287	-0.6487947352	 1.3435351569	 0.104585
H	 0.350189341	 1.1972373004	-3.0256559305	 0.137077
H	 3.4735418229	-2.0225802635	-3.8383185818	 0.263295
H	 3.4052100022	-2.8718272571	-2.3803294014	 0.269839
55.0571	136.168	174.36	234.8845	260.9966	284.7282	300.0789	325.1194	382.1268	442.2899	496.0009	592.2109	617.3442	676.1332	718.521	756.1904	774.4368	884.3616	929.3257	967.7148	971.3917	997.0678	1093.8277	1107.4859	1126.0871	1140.6234	1181.6474	1242.4323	1260.897	1336.2814	1371.0571	1393.9159	1416.0116	1446.887	1488.2012	1492.5644	1500.8321	1514.4953	1604.5443	1636.0136	1684.7386	3005.0831	3029.8532	3033.9626	3095.4553	3100.5164	3108.201	3126.1165	3308.5119	3576.7862	3685.5678
CC(C)C1=COC(N)=N1	CC(C)c1coc(N)n1	
InChI=1S/C6H10N2O/c1-4(2)5-3-9-6(7)8-5/h3-4H,1-2H3,(H2,7,8)	InChI=1S/C6H10N2O/c1-4(2)5-3-9-6(7)8-5/h3-4H,1-2H3,(H2,7,8)
