16
gdb 34270	3.767	1.53497	1.24359	0.9205	83.98	-0.2174	-0.0435	0.1739	990.9023	0.123438	-363.450296	-363.443077	-363.442133	-363.481503	29.259	
C	 0.0444865443	-1.1339054371	 0.2099149715	-0.368311
C	 2.6469*^-6	 0.0512835002	 0.0099704896	 0.2467
C	-0.1348151172	 1.4602378798	-0.1967404966	 0.142852
C	-1.3845145714	 2.1912647064	 0.3611056052	-0.32865
C	-1.067972167	 3.6070789156	-0.0772500108	-0.124286
C	-0.076596895	 3.5804436483	-0.9957196549	 0.002455
C	 1.3346175281	 3.6672528743	-0.4084795339	-0.171415
N	 1.2945597633	 2.1306792861	-0.4061735969	-0.173669
C	 0.2411982739	 2.1527946941	-1.4450511921	-0.121273
H	 0.1017139188	-2.1805157073	 0.3794721358	 0.19195
H	-2.2774133809	 1.6942314664	-0.0421951548	 0.129916
H	-1.4686267171	 2.1611316864	 1.452689882	 0.128013
H	-1.1361147122	 4.4143080257	 0.6470584643	 0.10106
H	 2.1564815754	 3.9313449066	-1.0814431337	 0.12292
H	 1.4513519219	 4.1589743463	 0.5604243661	 0.11684
H	 0.3707364582	 1.7406589581	-2.4395132509	 0.104897
147.855	154.2033	268.033	359.465	411.8207	466.769	508.6787	529.5035	555.3994	614.0068	654.6029	676.5806	730.5414	793.0975	807.549	861.3563	920.6437	929.2379	958.5084	1005.7537	1034.656	1058.1379	1068.7859	1107.9306	1153.4126	1172.7518	1192.3101	1256.0706	1258.6737	1306.242	1346.3659	1466.8553	1506.2925	1579.0392	2236.0794	3014.2045	3045.1203	3074.7351	3114.3263	3159.3456	3174.477	3503.6871
C#CC12CC=C3CN1C23	C#C[C@@]12C[CH][C]3CN1[C@@H]23	
InChI=1S/C8H7N/c1-2-8-4-3-6-5-9(8)7(6)8/h1,3,7H,4-5H2	InChI=1S/C8H7N/c1-2-8-4-3-6-5-9(8)7(6)8/h1,3,7H,4-5H2/t7-,8+,9?/m1/s1
