20
gdb 10066	3.33995	1.23471	0.97427	0.7199	77.6	-0.2399	0.0498	0.2897	1244.6294	0.173479	-348.966541	-348.956318	-348.955373	-349.002524	35.805	
C	-0.4772074542	 1.0937196387	 0.5254572887	-0.391923
C	-0.191258876	-0.3352870949	 0.0606847328	-0.174008
C	 0.5469709668	-0.3937590226	-1.2810748512	 0.12565
C	 0.8596038378	-1.8634600309	-1.6645413866	-0.3543
C	 1.8114405616	-2.0354281694	-2.7555440547	 0.288302
C	 2.6187698062	-2.192594578	-3.6330431239	-0.43773
O	-0.2873963701	 0.2268530584	-2.2441161767	-0.249566
C	 0.3721936238	 0.8821225407	-3.3096008307	-0.242684
H	 0.4526255756	 1.6519255948	 0.683760122	 0.109461
H	-1.0678640948	 1.6273192667	-0.2227299438	 0.133402
H	-1.0311867699	 1.0964707898	 1.468913914	 0.11047
H	 0.4068427446	-0.8641834235	 0.812332873	 0.093308
H	-1.1327478291	-0.8897523348	-0.0424943497	 0.104845
H	 1.4956724147	 0.1601991871	-1.198219801	 0.07331
H	 1.248342706	-2.3794284722	-0.7773569877	 0.126931
H	-0.0918521096	-2.3468990682	-1.917780415	 0.137374
H	 3.3251781549	-2.3292034925	-4.413785289	 0.194212
H	 1.0924275661	 1.6274444604	-2.9390361831	 0.102673
H	 0.9021532414	 0.1823087843	-3.9653105002	 0.128713
H	-0.3997260259	 1.3987777661	-3.8864001972	 0.12156
26.3789	82.935	104.0993	130.2304	182.5087	218.5196	244.492	300.812	343.1882	364.4718	402.874	487.0295	557.7216	613.0012	629.7582	764.2367	837.8861	911.9098	951.7385	965.5608	1031.3883	1065.4089	1114.0519	1130.296	1157.5252	1184.0865	1216.201	1244.7653	1280.799	1312.9962	1353.389	1382.0967	1395.7825	1406.5402	1454.1363	1476.9565	1481.431	1490.7607	1495.6929	1510.5395	1515.1588	2233.2976	2977.9022	2989.3981	3020.8158	3028.7758	3036.19	3059.5244	3067.3776	3069.1795	3100.7163	3111.7631	3128.7084	3505.6006
CCC(CC#C)OC	CC[C@@H](CC#C)OC	
InChI=1S/C7H12O/c1-4-6-7(5-2)8-3/h1,7H,5-6H2,2-3H3	InChI=1S/C7H12O/c1-4-6-7(5-2)8-3/h1,7H,5-6H2,2-3H3/t7-/m0/s1
