14
gdb 48517	2.83178	1.69786	1.21488	3.3396	67.12	-0.2467	-0.0498	0.197	974.9199	0.100086	-436.631554	-436.624317	-436.623373	-436.66374	26.636	
O	 0.0965103266	-0.0697851954	 0.4666292807	-0.248392
C	 0.0673709598	 1.0945419575	 0.1580356607	 0.055547
C	 1.2576349714	 1.9751823368	 0.0972671766	 0.092878
C	 2.6269694705	 1.6910481374	-0.5370113419	-0.065183
C	 2.933668104	 3.2354263576	-0.4538094987	-0.218001
C	 3.2462330495	 2.9424085642	 1.0258663249	-0.160955
N	 2.4877496433	 1.6366137391	 0.907356658	-0.147332
C	 1.3991792113	 3.3868047458	-0.4074479973	 0.39358
O	 0.6215388157	 4.1988804084	-0.8180653727	-0.324889
H	-0.8736114129	 1.6043339242	-0.1362476235	 0.10468
H	 2.8723444322	 0.8739436571	-1.2012993667	 0.144688
H	 3.5417640568	 3.8522905958	-1.1087808211	 0.110624
H	 4.2914011331	 2.6951354093	 1.2199834882	 0.135531
H	 2.8684863887	 3.6360530724	 1.7835038927	 0.127225
76.0015	151.0733	176.387	225.7179	344.445	424.1988	572.7021	585.6034	683.0009	729.1907	773.3416	807.4665	835.514	885.3581	906.077	973.4996	979.4217	1017.9884	1034.2187	1064.3249	1137.1185	1156.8431	1175.8779	1205.1695	1221.6614	1301.2261	1349.9349	1431.532	1508.2306	1814.4642	1884.0002	2919.1142	3058.0124	3127.6112	3171.3316	3224.8401
O=CC12C3C(CN13)C2=O	O=C[C@]12[C@H]3[C@H](CN13)C2=O	
InChI=1S/C6H5NO2/c8-2-6-4-3(5(6)9)1-7(4)6/h2-4H,1H2	InChI=1S/C6H5NO2/c8-2-6-4-3(5(6)9)1-7(4)6/h2-4H,1H2/t3-,4+,6+,7?/m0/s1
