23
gdb 108042	3.49146	1.29846	1.17473	0.1933	88.62	-0.2519	0.084	0.3358	1179.373	0.207376	-351.125604	-351.11748	-351.116536	-351.158004	33.124	
C	-0.0514941343	 1.5857860249	 0.0263812751	-0.380387
C	 0.0156120872	 0.0531897741	 0.0059091295	-0.295675
C	 0.7361539622	-0.5265122185	 1.2061229087	 0.396831
C	 2.274109156	-0.3158826787	 1.3157955508	-0.277298
C	 2.447855246	-1.7527435685	 1.8671936428	-0.030782
C	 2.0439492515	-1.8884217553	 3.3565814957	-0.224197
C	 0.546603785	-1.8511377411	 2.9611190197	-0.030774
C	 0.0461524124	-0.431180627	 2.597710645	-0.277305
C	 0.9619843861	-2.0672891193	 1.4600322862	-0.110356
H	 0.9511846414	 2.0266435415	 0.0346708997	 0.118012
H	-0.5770953539	 1.9716329821	-0.8525398688	 0.110245
H	-0.5792372218	 1.9478830884	 0.9152940125	 0.118009
H	-1.0026179458	-0.3570409561	-0.0373807508	 0.088686
H	 0.5184728878	-0.2787547172	-0.9127319851	 0.088689
H	 2.7191256636	-0.2249931581	 0.3187229916	 0.091284
H	 2.6368338073	 0.512841557	 1.9340353375	 0.085522
H	 3.3160620037	-2.3183010658	 1.5268474057	 0.059533
H	 2.3164318462	-2.8762697603	 3.7413006591	 0.095561
H	 2.4081581289	-1.1289455612	 4.0578936548	 0.084788
H	-0.1368739593	-2.496999012	 3.5135637786	 0.059533
H	 0.3340780437	 0.39366152	 3.2590038764	 0.085521
H	-1.0434846731	-0.4196904787	 2.4836422476	 0.091283
H	 0.628684169	-2.8728064302	 0.8082994076	 0.053276
86.4142	148.808	205.1995	277.0262	294.3766	351.218	384.1297	417.0202	593.2456	619.9521	697.4251	783.7895	791.8379	823.8983	847.4299	870.9872	887.3518	927.7579	938.5495	939.7925	954.0714	984.5576	1016.9999	1034.4755	1056.8933	1065.5378	1104.718	1105.2594	1138.0168	1158.0196	1178.7194	1200.9319	1230.3675	1233.2325	1239.8505	1247.1845	1286.4622	1302.1132	1308.6164	1326.7363	1345.6146	1367.1602	1404.6835	1475.6702	1476.9949	1483.961	1496.6186	1499.1592	1506.9346	3004.7339	3024.5993	3028.077	3031.1501	3032.7327	3036.0759	3074.9227	3078.0078	3080.9714	3092.7801	3096.3106	3098.5365	3102.5521	3130.1618
CCC12CC3CC(C1)C23	CC[C@@]12C[C@H]3C[C@@H](C1)[C@@H]23	
InChI=1S/C9H14/c1-2-9-4-6-3-7(5-9)8(6)9/h6-8H,2-5H2,1H3	InChI=1S/C9H14/c1-2-9-4-6-3-7(5-9)8(6)9/h6-8H,2-5H2,1H3/t6-,7+,8+,9-
