15
gdb 30504	2.79194	1.39489	0.93555	2.9158	73.35	-0.2171	-0.0297	0.1874	1187.6434	0.112187	-453.982958	-453.974517	-453.973573	-454.017682	29.312	
C	 0.0024802346	 1.4291058745	 0.0680478954	-0.334028
N	-0.0228652915	-0.0216961214	 0.0956795675	-0.36941
C	-1.1122085639	-0.6382610885	 0.011092642	 0.541372
O	-2.3840584666	-0.1110548408	-0.1136800076	-0.231775
C	-3.2781682265	-1.1664877699	-0.1731299658	-0.045356
C	-2.6409327205	-2.332888425	-0.0919355755	-0.103841
N	-1.2721304553	-2.0377477136	 0.0255409549	-0.175315
C	-0.2492887761	-2.966711795	 0.1365527294	 0.160717
O	-0.4445904629	-4.157773499	 0.1432320418	-0.308162
H	 0.6478043467	 1.7627217452	-0.7522699214	 0.13103
H	-0.9827955786	 1.8933537733	-0.0526345533	 0.126362
H	 0.4507655286	 1.8007524182	 0.9965277611	 0.131065
H	-4.3171576469	-0.9056626173	-0.2720793769	 0.162207
H	-2.9854509328	-3.3510462985	-0.1022809676	 0.180891
H	 0.7318823316	-2.4763595623	 0.2149313359	 0.134245
19.5332	111.2378	160.0226	169.7641	240.3919	254.0946	312.6615	418.8233	582.9081	588.96	709.2619	716.1887	750.1416	822.4247	828.1382	898.937	1027.0259	1041.0599	1058.5504	1093.6547	1135.8481	1139.5199	1166.7163	1268.9756	1310.8798	1413.3512	1422.2661	1447.188	1493.6126	1501.381	1673.0533	1796.6126	1826.3684	3017.2072	3046.2643	3076.8533	3087.5799	3295.5317	3321.4694
CN=C1OC=CN1C=O	CN=c1occn1C=O	
InChI=1S/C5H6N2O2/c1-6-5-7(4-8)2-3-9-5/h2-4H,1H3	InChI=1S/C5H6N2O2/c1-6-5-7(4-8)2-3-9-5/h2-4H,1H3
