17
gdb 7985	3.55123	1.71976	1.25634	2.8907	65.76	-0.266	0.0212	0.2871	970.1869	0.142743	-401.027851	-401.020106	-401.019162	-401.059835	29.282	
C	-0.0745926238	 1.5005616109	 0.135239291	-0.398713
C	 0.0145802118	 0.0138825226	-0.1492266663	 0.122967
C	 1.0994812532	-0.4189502547	-1.1460731455	-0.261359
C	 1.4232389933	-1.8358822735	-0.663242372	 0.069846
O	 2.7087122511	-2.2903466361	-0.9822517756	-0.441369
C	 1.2130304324	-1.6932815029	 0.833182171	 0.389234
N	 1.8117104146	-2.4208382529	 1.6738294009	-0.569758
O	 0.3572886208	-0.6783938849	 1.090266191	-0.246866
H	 0.8896404311	 1.8843877271	 0.4812158804	 0.130271
H	-0.3563363546	 2.0381587187	-0.7755523493	 0.125768
H	-0.826495057	 1.7058457478	 0.9019559689	 0.132837
H	-0.9660613436	-0.3667621064	-0.4639948401	 0.093595
H	 0.7603665179	-0.3696511115	-2.1822981909	 0.115415
H	 1.9937528259	 0.2041579544	-1.0376458474	 0.120641
H	 0.6566661448	-2.5339388068	-1.0447958597	 0.092141
H	 3.0246972306	-2.7452452159	-0.1868803693	 0.296843
H	 1.5863588114	-2.1697582959	 2.636028973	 0.228507
107.6096	119.2275	228.0151	274.807	293.7167	395.9544	402.5911	457.5956	491.6786	569.9909	628.2751	691.846	814.4079	859.7582	876.5667	926.5829	953.5553	1008.7841	1057.5797	1098.8585	1117.3428	1150.0948	1171.1993	1202.781	1263.0989	1273.3194	1309.7716	1365.5372	1390.6508	1404.9512	1414.1475	1436.0577	1484.2681	1493.034	1498.4693	1781.0962	2943.6638	3019.067	3042.9091	3059.0507	3117.1557	3122.3596	3126.4123	3496.0744	3716.8908
CC1CC(O)C(=N)O1	C[C@H]1C[C@@H](O)[C]([NH])O1	
InChI=1S/C5H9NO2/c1-3-2-4(7)5(6)8-3/h3-4,6-7H,2H2,1H3	InChI=1S/C5H9NO2/c1-3-2-4(7)5(6)8-3/h3-4,6-7H,2H2,1H3/t3-,4+/m0/s1
