16
gdb 112138	3.29191	1.20015	0.933	3.4829	68.01	-0.283	-0.0602	0.2228	1236.3776	0.124228	-475.078833	-475.070526	-475.069582	-475.112462	29.947	
C	 0.0025366509	 1.5280209058	 0.0190517156	-0.39422
C	 0.0032868563	-0.0025840676	-0.0018760724	-0.201796
C	-1.3954747633	-0.5864793189	 0.0161031569	 0.211597
O	-1.351033628	-2.0119983551	-0.0587838846	-0.220399
C	-1.9908635422	-2.5397290429	 1.0094133188	 0.273919
N	-2.1240251734	-3.7751731816	 1.2024631713	-0.499201
C	-2.4662375046	-1.3873762461	 1.8609291429	 0.35618
O	-3.0628041096	-1.4310710169	 2.8935920196	-0.323579
O	-2.0791082054	-0.2532389091	 1.2300990717	-0.22588
H	 1.026047474	 1.9097392126	-0.0097036486	 0.13042
H	-0.5303154109	 1.9378101554	-0.8456679646	 0.124848
H	-0.4779468579	 1.9090666139	 0.9239178487	 0.144691
H	 0.4956695087	-0.3807785976	-0.9043699717	 0.128529
H	 0.5485342084	-0.4082975939	 0.8577029473	 0.121032
H	-2.0049533747	-0.2175916222	-0.8178184155	 0.120303
H	-2.6373559881	-3.9121353956	 2.0751590447	 0.253555
64.5491	106.6228	126.5133	217.7687	244.5128	319.3855	389.3474	439.4979	463.4337	610.0786	638.0515	738.4287	766.0808	795.6393	840.3739	900.9318	910.2528	980.5685	1022.4912	1040.3039	1086.5051	1140.5805	1163.8702	1192.6608	1283.7759	1327.4227	1368.6332	1397.6065	1411.9464	1421.9345	1476.8752	1500.0163	1508.9765	1780.3139	1900.7996	3040.9668	3044.0857	3049.6507	3089.4807	3115.5878	3130.0937	3483.0613
CCC1OC(=N)C(=O)O1	CC[C@H]1O[C]([NH])C(=O)O1	
InChI=1S/C5H7NO3/c1-2-3-8-4(6)5(7)9-3/h3,6H,2H2,1H3	InChI=1S/C5H7NO3/c1-2-3-8-4(6)5(7)9-3/h3,6H,2H2,1H3/t3-/m0/s1
