23
gdb 39678	3.76649	1.01336	0.96481	1.5168	85.61	-0.2383	0.0838	0.3221	1360.8142	0.207947	-388.291977	-388.283265	-388.282321	-388.326324	33.023	
C	-0.059431669	 1.5461571956	-0.0789688772	-0.212811
C	 1.4916748803	 1.4930470176	-0.0980266236	-0.236589
C	 1.4133695137	 0.0988974322	 0.5892135379	 0.034802
C	-0.0752750549	 0.0101038051	 0.145279226	-0.223714
C	 2.3823768663	-0.9866080474	 0.1508853674	 0.120753
C	 2.1070469317	-2.3822061109	 0.7293642161	-0.238134
C	 2.7057964695	-3.2998845585	-0.3442878551	-0.232766
C	 2.3802655535	-2.5279743878	-1.6302744086	-0.057806
O	 2.3270453117	-1.1469171645	-1.2739346978	-0.276642
H	-0.4372269131	 2.0874936798	 0.7936123269	 0.096087
H	-0.5629344543	 1.9310337827	-0.9689297774	 0.09432
H	 1.8800301161	 1.3980046388	-1.1148833064	 0.119123
H	 2.0378052804	 2.2854527131	 0.4202410671	 0.087316
H	 1.4870053471	 0.2057293236	 1.6780689726	 0.062953
H	-0.8005882309	-0.3948392559	 0.855470246	 0.086465
H	-0.1581605963	-0.5309821549	-0.8009277653	 0.109905
H	 3.4053534952	-0.6731590987	 0.4231021083	 0.060298
H	 2.5491975602	-2.519306561	 1.7191739945	 0.10034
H	 1.0262080207	-2.5443072017	 0.8144111651	 0.106635
H	 3.7898750564	-3.3834958338	-0.2119594266	 0.106034
H	 2.2885105031	-4.3099306408	-0.3422215827	 0.101621
H	 3.134094889	-2.6666674106	-2.4139569529	 0.099651
H	 1.4073531437	-2.835317322	-2.0413473242	 0.092157
46.8976	85.0908	112.9521	165.4502	229.196	258.3803	372.5043	538.0359	571.9812	646.1223	681.6289	767.4342	789.6612	856.8287	877.9313	892.8212	907.2703	931.5393	936.3477	953.8605	956.8286	984.1047	1019.4798	1040.7234	1066.0108	1130.7848	1145.961	1152.1233	1196.5224	1199.9948	1212.0028	1246.9186	1256.5512	1257.2758	1260.2444	1275.5229	1284.0565	1308.7265	1337.3093	1345.9357	1371.5065	1389.8177	1404.4811	1474.396	1484.937	1485.3539	1498.0518	1508.4433	1531.6117	2943.1588	2991.3158	3035.0993	3040.8441	3044.0916	3052.0603	3056.5733	3057.4689	3063.7688	3097.2529	3100.7595	3109.2537	3114.2381	3124.8894
C1CC(C1)C1CCCO1	C1CC(C1)[C@H]1CCCO1	
InChI=1S/C8H14O/c1-3-7(4-1)8-5-2-6-9-8/h7-8H,1-6H2	InChI=1S/C8H14O/c1-3-7(4-1)8-5-2-6-9-8/h7-8H,1-6H2/t8-/m1/s1
