15
gdb 132983	3.37853	1.35276	0.97179	1.9574	72.24	-0.2188	-0.0389	0.1799	1122.7236	0.114369	-458.140846	-458.133366	-458.132422	-458.172895	28.234	
C	-0.0295701248	 1.4337309196	 0.0231080429	-0.326397
N	-0.0065303804	-0.0251580979	 0.0170970922	-0.092954
C	-0.0352055138	-0.7205657569	-1.139408916	 0.117268
N	-0.0184333338	-2.0146626336	-1.254697305	-0.356128
C	 0.0328147908	-2.6859849087	-0.0787459998	 0.343357
F	 0.0494139496	-4.0040442368	-0.2105121462	-0.059422
C	 0.0662736245	-2.1242358246	 1.1526514	-0.366567
C	 0.0476367007	-0.6845138671	 1.2757660473	 0.395381
N	 0.07209927	 0.0593669603	 2.3209181113	-0.581487
H	 0.8639975798	 1.8154784499	 0.5212127427	 0.162992
H	-0.0728186515	 1.7914828726	-1.0066397038	 0.128712
H	-0.8962385981	 1.7871519879	 0.5854302365	 0.163136
H	-0.0760460951	-0.1164050488	-2.0418808399	 0.139437
H	 0.1068318163	-2.7320456093	 2.0466651078	 0.116253
H	 0.1102609759	-0.5166925265	 3.1594318697	 0.21642
120.3556	160.5816	191.6467	289.8529	346.316	375.3767	453.2478	453.7037	548.5714	612.9201	706.6611	744.679	761.5254	796.7917	804.7761	854.0359	971.3534	979.8527	1091.1295	1105.0323	1157.59	1200.2997	1243.2679	1323.6378	1385.5362	1396.8569	1455.1853	1461.1983	1472.9413	1516.4808	1610.2439	1645.1525	1713.4105	3061.4616	3134.6855	3153.3969	3173.9653	3221.4985	3506.7969
CN1C=NC(F)=CC1=N	CN1C=N[C@@H](F)C=C1[NH]	
InChI=1S/C5H6FN3/c1-9-3-8-4(6)2-5(9)7/h2-3,7H,1H3	InChI=1S/C5H7FN3/c1-9-3-8-4(6)2-5(9)7/h2-4,7H,1H3/t4-/m1/s1
