19
gdb 56223	4.9494	0.63127	0.56575	5.1623	74.11	-0.2565	0.0219	0.2784	1905.173	0.156896	-456.391381	-456.380448	-456.379504	-456.430268	36.771	
C	-0.0119105796	 1.4464644243	-0.2075961654	-0.442299
C	-0.010069702	-0.0262625383	 0.0898469887	 0.409603
N	-0.0250782264	-0.4705520277	 1.2770692137	-0.520403
O	 0.0096304367	-0.7332351803	-1.0764484683	-0.248057
C	 0.0141633695	-2.1559483782	-0.9937152979	-0.082291
C	 0.036196194	-2.6842554588	-2.4199152301	-0.341838
C	 0.0425804414	-4.2100595119	-2.4425412102	 0.419308
N	 0.0618137475	-4.7620996825	-3.6890158384	-0.526436
O	 0.0313105796	-4.8821420875	-1.4286398969	-0.356369
H	 0.8762569391	 1.717215213	-0.7871700353	 0.135405
H	-0.8855059384	 1.7099639523	-0.8121151171	 0.135396
H	-0.0274250553	 2.007016362	 0.7257943139	 0.147205
H	-0.0213558163	-1.4884803284	 1.3218208117	 0.222254
H	 0.89233179	-2.5071645946	-0.4403189068	 0.128835
H	-0.8762869762	-2.5142343116	-0.465029644	 0.128827
H	-0.8355833129	-2.3097588781	-2.9693238273	 0.133061
H	 0.9200114876	-2.3028347264	-2.9447839472	 0.133081
H	 0.0709799098	-4.2080457394	-4.5269236996	 0.260809
H	 0.0668156018	-5.7655482579	-3.7681090233	 0.263908
13.0836	52.284	89.3674	99.6387	100.03	141.264	165.0656	237.3852	287.0304	428.0526	472.2129	506.1925	560.8177	602.1228	630.4097	641.034	821.4395	838.7438	884.7645	910.4472	986.9746	1069.9855	1075.6459	1080.0423	1084.0837	1113.9363	1141.6187	1213.1518	1257.6471	1310.1988	1326.687	1380.9254	1404.2823	1434.6976	1472.4413	1475.2023	1478.6627	1518.623	1619.0301	1737.3342	1794.6152	3033.9297	3041.815	3049.8915	3067.7556	3090.4087	3107.0597	3169.9534	3503.6175	3605.4662	3742.1912
CC(=N)OCCC(N)=O	C[C]([NH])OCCC(=O)N	
InChI=1S/C5H10N2O2/c1-4(6)9-3-2-5(7)8/h6H,2-3H2,1H3,(H2,7,8)	InChI=1S/C5H10N2O2/c1-4(6)9-3-2-5(7)8/h6H,2-3H2,1H3,(H2,7,8)
