25
gdb 117689	3.80611	0.7329	0.72076	0.6671	95.31	-0.2587	0.0513	0.31	1738.8573	0.225154	-352.339531	-352.327921	-352.326976	-352.37598	43.196	
C	-0.1562957467	 1.67233041	 0.0125793019	-0.375843
C	 0.0165477385	 0.1496806674	 0.0027259564	-0.196062
C	-1.3300042157	-0.5856325145	 0.0116266944	-0.168413
C	-1.28678465	-2.134256375	 0.0028903258	 0.24591
C	-0.5965440087	-2.6606956824	-1.2673140313	-0.411547
C	-0.5724708394	-2.6742417802	 1.2539555819	-0.411548
C	-2.7728637547	-2.6118651793	 0.0145129852	-0.378749
C	-2.957776895	-4.0580520976	 0.0084074852	 0.311153
C	-3.1055634957	-5.251745361	 0.0033003509	-0.450123
H	 0.8114458056	 2.183518449	 0.0060958174	 0.110645
H	-0.7190365452	 2.0131520265	-0.8637263015	 0.113308
H	-0.7021715288	 2.0036337593	 0.9030881837	 0.113308
H	 0.5961630232	-0.1401221979	-0.881465435	 0.099704
H	 0.6129172291	-0.1495702324	 0.8725111895	 0.099704
H	-1.8970097555	-0.2608039005	 0.8959696822	 0.086037
H	-1.9137543912	-0.251370408	-0.8581872435	 0.086037
H	 0.4629307647	-2.3899444043	-1.28936864	 0.112442
H	-0.6630945622	-3.7512163989	-1.3189303489	 0.126768
H	-1.0662427801	-2.2530967485	-2.1700848264	 0.105273
H	-1.0248163558	-2.276426826	 2.1698570362	 0.105274
H	-0.6381266688	-3.7652610036	 1.2951044928	 0.126768
H	 0.4872580408	-2.4036261431	 1.2586981881	 0.112443
H	-3.2703067087	-2.1926452927	 0.8991342962	 0.123055
H	-3.2871035519	-2.183110724	-0.8558197427	 0.123058
H	-3.2448682775	-6.3041414223	-0.0014785184	 0.1914
69.3659	77.9474	112.0135	112.3639	196.3614	234.6673	251.7904	259.277	312.1496	315.8307	321.0347	355.111	393.3707	401.0386	425.5533	602.0864	609.7552	635.1381	744.7198	754.403	859.6898	868.2732	892.2794	934.6345	948.9319	979.2323	991.6211	1014.619	1054.0444	1081.9308	1109.9201	1187.8231	1203.4119	1240.8111	1256.4027	1309.4052	1323.9844	1334.8031	1357.2588	1395.5197	1399.0516	1410.8677	1422.8582	1461.4585	1478.0871	1484.331	1493.0483	1495.0029	1499.7162	1507.2979	1509.0484	1514.489	2232.0152	2993.2412	3011.6332	3025.6063	3028.0771	3028.2827	3031.6357	3035.5771	3045.6648	3066.081	3096.0505	3097.9777	3099.5913	3101.5401	3111.7149	3115.5842	3506.8669
CCCC(C)(C)CC#C	CCCC(C)(C)CC#C	
InChI=1S/C9H16/c1-5-7-9(3,4)8-6-2/h1H,6-8H2,2-4H3	InChI=1S/C9H16/c1-5-7-9(3,4)8-6-2/h1H,6-8H2,2-4H3
