21
gdb 107267	2.88636	1.55781	1.29108	1.8457	80.7	-0.2448	0.0837	0.3285	1076.8503	0.184084	-387.052597	-387.044897	-387.043953	-387.084651	31.485	
C	-0.4407234976	 1.4293172819	 0.0238716617	-0.384998
C	 0.2780160962	 0.0743519305	 0.0391402838	-0.288783
C	 0.8046656446	-0.3701961417	-1.2990458664	 0.440057
O	 1.847308682	-1.3702539451	-1.2663848032	-0.306356
C	 2.1172030537	-0.1061559836	-1.8961304065	-0.026553
C	 1.7692593174	-0.0327294501	-3.400810307	-0.074509
C	 0.7929100334	-1.2300334799	-3.5725140579	-0.216291
C	-0.0767329205	-0.4110884276	-2.5793338044	-0.109794
C	 0.4797293352	 0.8567772397	-3.3230035655	-0.222502
H	 0.2354701189	 2.2370923462	-0.2736835134	 0.119458
H	-1.2876022261	 1.4298568069	-0.669449286	 0.122761
H	-0.8280164369	 1.6674239523	 1.018886501	 0.116744
H	 1.118285082	 0.0981084978	 0.7410682248	 0.109667
H	-0.4106763771	-0.6960669652	 0.4118496223	 0.105927
H	 2.9046960181	 0.494091764	-1.4509641674	 0.093376
H	 2.5770123731	 0.1689351769	-4.1039237759	 0.062913
H	 0.3536761238	-1.2489024198	-4.5715706491	 0.091965
H	 1.1302151854	-2.2190246067	-3.2698714746	 0.117685
H	-1.1447258447	-0.5918199699	-2.4545486494	 0.059312
H	 0.5410766446	 1.7957323533	-2.7656964782	 0.093905
H	 0.0120299542	 1.0257090899	-4.2967113287	 0.096016
84.6715	162.0855	211.5456	288.7461	347.245	413.9727	511.4066	511.9771	551.9821	607.7019	711.9357	782.2073	824.8168	844.651	847.4238	867.525	880.1107	927.6597	931.8837	955.528	1001.9396	1012.343	1026.9365	1057.8697	1070.1689	1085.2371	1097.5409	1112.9634	1134.7059	1204.6293	1225.8194	1234.0081	1245.9413	1267.4572	1286.802	1293.7466	1316.1932	1358.8513	1411.9856	1456.4596	1478.3073	1485.6416	1499.8843	1507.9007	1516.6304	3018.5422	3038.2333	3053.1121	3069.5245	3085.022	3107.361	3108.0554	3111.4916	3113.5399	3118.6049	3161.4491	3163.7008
CCC12OC1C1CC2C1	CC[C@]12O[C@H]1[C@H]1C[C@@H]2C1	
InChI=1S/C8H12O/c1-2-8-6-3-5(4-6)7(8)9-8/h5-7H,2-4H2,1H3	InChI=1S/C8H12O/c1-2-8-6-3-5(4-6)7(8)9-8/h5-7H,2-4H2,1H3/t5-,6+,7-,8+/m0/s1
