20
gdb 105026	2.65217	1.19955	0.9381	2.4162	75.06	-0.2524	-0.0449	0.2075	1279.3096	0.169133	-440.258677	-440.248858	-440.247914	-440.293987	35.831	
C	 0.1780872221	 1.662501221	-0.0935615369	-0.425949
C	-0.0054685678	 0.1397102116	 0.0323727899	-0.1354
C	 0.4688957979	-0.5195738353	-1.2589878629	 0.127259
O	 0.0571237489	-1.564618047	-1.6924879022	-0.243678
C	 0.6960940126	-0.4730782823	 1.2558082752	 0.275772
C	 0.437140404	 0.2376942076	 2.5862143651	-0.118377
O	 1.1523626297	-0.3546977856	 3.6450713969	-0.420255
C	 0.966261336	-1.9299039897	 1.3004970614	-0.27356
N	 2.0877707953	-0.96994894	 1.1772159279	-0.379203
H	 1.2382869936	 1.9375454666	-0.0832934903	 0.129751
H	-0.2521200039	 2.0223600819	-1.0340794436	 0.125123
H	-0.3170839338	 2.199148977	 0.7175522101	 0.139043
H	-1.0729784134	-0.0979394187	 0.1230290008	 0.113771
H	 1.2556360394	 0.0506647775	-1.8080765764	 0.082309
H	 0.69669161	 1.3030076854	 2.4889654535	 0.089366
H	-0.6292590295	 0.1785322169	 2.8361434522	 0.109049
H	 2.0453030066	-0.4989261239	 3.2974947524	 0.29449
H	 0.9231820832	-2.436994818	 2.2582576058	 0.133536
H	 0.7017045956	-2.5270685094	 0.4345915169	 0.142617
H	 2.4527536834	-0.9564391755	 0.2287053141	 0.234337
40.0603	75.2874	125.5756	192.0279	223.9677	257.9575	274.8928	311.481	362.037	383.3579	459.0177	514.5463	547.2681	596.2384	684.5041	823.3333	863.9736	922.1747	936.2275	962.5449	967.8696	1037.846	1043.7754	1075.5	1099.2954	1123.4296	1141.7955	1165.0765	1218.6805	1253.7899	1264.3784	1302.5766	1322.4495	1359.1744	1400.265	1409.8463	1431.9751	1446.8655	1492.9188	1501.4421	1506.9711	1511.502	1826.0806	2848.4879	2984.1672	3033.7947	3038.6637	3053.5702	3101.2849	3132.8322	3133.7079	3227.2505	3507.4872	3719.6566
CC(C=O)C1(CO)CN1	C[C@@H](C=O)[C@@]1(CO)CN1	
InChI=1S/C6H11NO2/c1-5(2-8)6(4-9)3-7-6/h2,5,7,9H,3-4H2,1H3	InChI=1S/C6H11NO2/c1-5(2-8)6(4-9)3-7-6/h2,5,7,9H,3-4H2,1H3/t5-,6-/m0/s1
