18
gdb 52925	4.42347	0.93652	0.91334	1.6753	89.14	-0.2207	0.0279	0.2486	1375.6318	0.147943	-364.714283	-364.706048	-364.705104	-364.748775	30.543	
C	 0.0009416793	 1.4698896943	 0.0006550489	-0.516028
C	 0.027047774	 0.0161439121	-0.0011804413	 0.362402
C	 0.0428138006	-1.1904656071	-0.0032201397	-0.44625
C	 0.0520062984	-2.5974571454	-0.0064561858	 0.374742
C	 0.7291608723	-3.6678208402	 0.8253269402	-0.142836
C	-0.6354132541	-4.2694180135	 1.1008397447	-0.177283
N	-1.1775512308	-3.5641318993	-0.1262357403	-0.213912
C	-0.4133907352	-4.2626154261	-1.2331407557	-0.177283
C	 0.8744320374	-3.6633691134	-0.7018161877	-0.142837
H	 0.5811047335	 1.8843418574	-0.8316341321	 0.148452
H	-1.0261498433	 1.8390636107	-0.0973385935	 0.154819
H	 0.4110707854	 1.8790889224	 0.9309315759	 0.148448
H	 1.5850626923	-3.5408574941	 1.4761767809	 0.101145
H	-0.7603315607	-5.3581280081	 1.0872609668	 0.097725
H	-1.1071624489	-3.8530265879	 1.9940408065	 0.114913
H	-0.5380299632	-5.3513168615	-1.2496470486	 0.097725
H	-0.7085006648	-3.840812218	-2.1968468729	 0.114913
H	 1.8376276581	-3.5331174324	-1.1788716363	 0.101145
19.0951	93.5236	100.9203	249.7055	304.7036	406.5985	421.1057	501.0908	520.5548	529.0826	729.6053	773.8662	810.6896	837.177	904.1977	914.9848	916.4699	968.3577	1004.3263	1007.4145	1012.3523	1050.8195	1054.9963	1087.6109	1091.3962	1098.8161	1159.8959	1191.4718	1256.7628	1259.4399	1301.0435	1304.2646	1409.951	1450.3923	1473.8228	1478.4208	1500.8812	1521.6738	2354.8438	3023.1608	3031.9357	3041.616	3081.9971	3086.3616	3103.1275	3106.3174	3191.5955	3201.2365
CC#CC12C3CN1CC23	CC#C[C@@]12[C@H]3CN1C[C@@H]23	
InChI=1S/C8H9N/c1-2-3-8-6-4-9(8)5-7(6)8/h6-7H,4-5H2,1H3	InChI=1S/C8H9N/c1-2-3-8-6-4-9(8)5-7(6)8/h6-7H,4-5H2,1H3/t6-,7+,8-
