17
gdb 67402	2.72335	1.55849	1.29161	4.8076	78.29	-0.2441	0.0089	0.253	1029.9555	0.13721	-380.825521	-380.817852	-380.816908	-380.857558	29.643	
C	-0.1075707221	 1.5274792541	-0.0946622058	-0.529497
C	 0.0158607104	 0.044254055	-0.0113401864	 0.291666
C	 0.6116425754	-1.0205985978	-0.9023142443	-0.171945
C	 1.3627343446	-1.6565523347	 0.260557094	-0.248116
C	 0.2954431737	-0.977793037	 1.1702086807	-0.083911
N	-1.0039379612	-1.6464840819	 0.8705287568	-0.349761
C	-0.8963341928	-1.0703821222	-0.4688411383	 0.21069
C	-1.9568768022	-1.0349648174	-1.4196753379	 0.18454
N	-2.8070221377	-1.0017934467	-2.2047740543	-0.352862
H	 0.8463042148	 2.0179256496	 0.1278904479	 0.130273
H	-0.4125162071	 1.8290710124	-1.1018705556	 0.143111
H	-0.8561668062	 1.9023788726	 0.6106471566	 0.141973
H	 0.8854769489	-0.9466803817	-1.9469466172	 0.109766
H	 1.447978357	-2.7477857181	 0.316487935	 0.098174
H	 2.3477435362	-1.199118243	 0.3847347879	 0.115799
H	 0.4918268144	-0.7410345914	 2.2137847379	 0.091785
H	-0.943638136	-2.6668529918	 0.8874732532	 0.218317
113.6384	160.4238	202.6209	223.8568	278.7288	429.3001	478.0727	527.6929	550.6441	575.7124	669.7774	717.1593	776.7743	823.1493	897.3988	921.4314	945.8316	948.9888	995.0473	1008.3371	1069.8767	1106.5847	1110.9827	1117.0689	1141.8711	1191.0911	1220.0389	1256.9254	1262.5824	1317.3305	1357.3757	1410.941	1459.0683	1481.7799	1492.0561	1496.1201	2345.3535	3031.9879	3037.2771	3096.997	3105.8293	3106.7836	3141.8241	3206.3781	3419.5507
CC12C3CC1NC23C#N	C[C@@]12[C@H]3C[C@@H]1N[C@@]23C#N	
InChI=1S/C7H8N2/c1-6-4-2-5(6)9-7(4,6)3-8/h4-5,9H,2H2,1H3	InChI=1S/C7H8N2/c1-6-4-2-5(6)9-7(4,6)3-8/h4-5,9H,2H2,1H3/t4-,5+,6-,7-/m1/s1
