22
gdb 14091	2.94238	1.63366	1.40122	0.1157	82.46	-0.2561	0.0906	0.3468	1046.7622	0.199721	-313.05598	-313.047177	-313.046233	-313.089007	33.69	
C	-0.0511172638	 1.5348713828	-0.0463865734	-0.405832
C	 0.0452536761	 0.0265351152	 0.008335141	-0.045696
C	 1.3755938724	-0.6672698156	-0.1879076817	-0.362857
C	 0.7130402274	-0.6820814793	 1.1586383262	 0.357695
C	 1.1867669292	-0.037499034	 2.4694974513	-0.299982
C	 0.30324706	-1.0614247088	 3.2382061126	-0.224746
C	 0.1476020551	-1.8938514096	 1.9297183077	-0.019514
C	-1.2290948912	-2.4376226424	 1.5786072716	-0.411028
H	 0.8428624331	 2.0064364211	 0.3742616681	 0.115158
H	-0.1516298497	 1.8851210057	-1.079792627	 0.114964
H	-0.9163652162	 1.9054911383	 0.5156670162	 0.112475
H	-0.8127659983	-0.4888554181	-0.4182924162	 0.078955
H	 1.4013071086	-1.5900178485	-0.7608482067	 0.102469
H	 2.2569714296	-0.0435978191	-0.3133701426	 0.102417
H	 2.2567816091	-0.1831606798	 2.6499493164	 0.0974
H	 0.9544648754	 1.0202899878	 2.6199074393	 0.096536
H	 0.7546040318	-1.5645189289	 4.0965994531	 0.092511
H	-0.649761488	-0.625321015	 3.5533060258	 0.096618
H	 0.8779429718	-2.7129528926	 1.9174944874	 0.066878
H	-1.9845034181	-1.6443249315	 1.5963869391	 0.112464
H	-1.2435915465	-2.891433347	 0.5807655058	 0.111635
H	-1.5371605081	-3.2087902806	 2.2935374159	 0.111483
71.7814	141.3099	183.9489	193.7724	231.817	243.1794	346.183	404.0411	444.9115	477.8669	536.7182	686.7854	769.6179	785.8931	859.7524	886.1426	895.117	907.6739	936.7356	954.9643	992.6464	1039.5864	1057.1162	1090.0012	1117.7558	1126.7404	1147.2556	1175.2246	1184.4097	1196.9699	1234.678	1256.621	1274.1435	1284.7257	1330.5382	1369.8922	1406.2857	1407.1229	1425.7968	1477.305	1485.3598	1492.5576	1495.0404	1496.4526	1499.0108	1504.7152	3017.1706	3022.0614	3023.9414	3043.8614	3052.5769	3083.0785	3085.8739	3088.4087	3093.416	3094.9968	3107.9832	3110.3252	3127.034	3190.398
CC1CC11CCC1C	C[C@H]1C[C@]21CC[C@H]2C	
InChI=1S/C8H14/c1-6-3-4-8(6)5-7(8)2/h6-7H,3-5H2,1-2H3	InChI=1S/C8H14/c1-6-3-4-8(6)5-7(8)2/h6-7H,3-5H2,1-2H3/t6-,7+,8-/m1/s1
