23
gdb 57550	3.69007	0.66623	0.65114	4.179	87.59	-0.2465	0.0223	0.2688	1826.7753	0.203693	-384.483122	-384.472046	-384.471102	-384.519648	40.169	
C	-0.0606637886	 1.5621267594	 0.103318308	-0.415197
C	-0.0025084638	 0.0242558317	 0.0326229813	 0.24211
C	 0.7050158267	-0.5300557652	 1.2813745654	-0.395655
C	-1.4356629653	-0.531194086	-0.0423588903	-0.406006
C	 0.7429427207	-0.4291431014	-1.2418915262	-0.134099
N	 2.1191142993	 0.0606171059	-1.3060019534	-0.306122
C	 2.8517957572	-0.4819701753	-2.4423407261	-0.25706
C	 4.2081909618	 0.07032735	-2.5087873794	 0.253264
N	 5.2688865615	 0.5223904951	-2.5755581468	-0.297973
H	 0.9319049136	 2.0044371773	 0.240061066	 0.117638
H	-0.5057525035	 1.9884631436	-0.8034029794	 0.108193
H	-0.6718069053	 1.8835427392	 0.9530756056	 0.117695
H	 0.2054634947	-0.1893277272	 2.1944491989	 0.10702
H	 0.6924127355	-1.6258541127	 1.2841642531	 0.105291
H	 1.7484289879	-0.2075595693	 1.3145045802	 0.130088
H	-1.9728756353	-0.1397154842	-0.9134744902	 0.109537
H	-1.4341636783	-1.6246891989	-0.1113280732	 0.110464
H	-2.0047197243	-0.2554254227	 0.8514319582	 0.113976
H	 0.7867145573	-1.5263934826	-1.2512647305	 0.100239
H	 0.1528188003	-0.1327781852	-2.1302024502	 0.077625
H	 2.1253363889	 1.0733130162	-1.3630024875	 0.232599
H	 2.9282242556	-1.5706129721	-2.3279059453	 0.156564
H	 2.3673151935	-0.3064903555	-3.4213261484	 0.129809
48.4927	79.2235	95.8446	141.6063	219.1191	223.6585	262.1299	264.1117	293.8641	330.5376	340.6632	394.2576	410.5051	421.8221	482.7278	590.2735	750.933	782.4917	906.3451	915.8951	940.1923	944.8793	960.2459	968.8059	1000.8194	1028.639	1067.3741	1113.4529	1144.1015	1205.267	1238.0719	1269.4381	1279.9885	1323.3768	1351.8238	1396.2732	1397.9416	1404.5965	1436.8664	1478.8936	1483.1979	1486.1062	1489.1453	1492.5128	1503.9826	1510.267	1515.4276	1523.2764	2368.2201	2917.6464	2929.4064	3022.1845	3025.252	3029.6256	3034.6935	3046.6185	3089.2145	3092.2812	3093.7985	3094.9899	3100.6507	3123.7624	3533.1218
CC(C)(C)CNCC#N	CC(C)(C)CNCC#N	
InChI=1S/C7H14N2/c1-7(2,3)6-9-5-4-8/h9H,5-6H2,1-3H3	InChI=1S/C7H14N2/c1-7(2,3)6-9-5-4-8/h9H,5-6H2,1-3H3
