20
gdb 64452	2.18187	1.77145	1.27291	2.5086	76.47	-0.2506	0.0218	0.2724	1080.1434	0.170544	-440.300339	-440.29131	-440.290366	-440.334172	34.341	
C	 0.170704317	 1.4911542701	-0.1305041803	-0.401361
C	-0.0077344833	-0.0213980199	 0.0057111438	 0.262527
C	-1.5009158192	-0.3856832134	 0.1146328183	-0.41055
O	 0.5464669115	-0.5726214722	-1.1984133703	-0.285628
C	 0.8660499052	-1.9438348431	-1.1204086975	-0.105203
C	 1.929136217	-2.1363143953	-0.0624902023	-0.07784
O	 1.4710546185	-1.6534511891	 1.2068983166	-0.26358
C	 0.712109792	-0.5233018987	 1.2691957721	 0.35791
N	 0.5177448158	 0.067590152	 2.3715916684	-0.508369
H	 1.2285588047	 1.7376060242	-0.2518223442	 0.117705
H	-0.3698434061	 1.8413118491	-1.0143190149	 0.11595
H	-0.2073220749	 1.9956613861	 0.7587282418	 0.146405
H	-2.020846452	-0.0455026005	-0.7853094387	 0.120559
H	-1.6516957237	-1.4644768726	 0.2156524269	 0.115238
H	-1.9361453965	 0.0952201048	 0.9926544803	 0.144664
H	-0.0163086688	-2.5607901627	-0.8924361574	 0.101764
H	 1.2434618171	-2.2400348379	-2.1039281941	 0.116697
H	 2.1764343019	-3.1909220556	 0.0884418817	 0.117273
H	 2.8402854943	-1.5936890372	-0.3447221677	 0.11761
H	 1.0255617495	-0.4075417681	 3.1203880376	 0.218227
37.8908	148.7874	198.0259	240.2793	247.3183	306.2961	315.0488	348.1316	425.1258	449.5528	480.757	518.4636	636.1833	675.7771	700.1915	850.4168	894.42	903.2713	931.06	940.3552	981.5079	1018.7405	1023.3182	1127.6113	1135.704	1159.7945	1189.9976	1209.5377	1226.409	1274.2237	1294.6954	1338.585	1386.7382	1400.8349	1412.436	1428.5195	1473.6654	1480.5718	1489.7077	1497.7099	1502.0239	1508.4576	1737.4629	2996.5792	3028.5184	3046.2376	3053.7611	3087.1095	3097.0261	3115.7428	3123.7289	3141.0003	3159.9607	3464.7174
CC1(C)OCCOC1=N	CC1(C)OCCO[C]1[NH]	
InChI=1S/C6H11NO2/c1-6(2)5(7)8-3-4-9-6/h7H,3-4H2,1-2H3	InChI=1S/C6H11NO2/c1-6(2)5(7)8-3-4-9-6/h7H,3-4H2,1-2H3
