22
gdb 89405	2.69109	1.44736	1.19289	2.4079	81.8	-0.2215	0.0673	0.2888	1155.8102	0.194204	-404.341573	-404.332436	-404.331492	-404.374561	36.024	
C	-0.0328704553	 1.5561828488	 0.0378135929	-0.390235
C	 0.1228244165	 0.0404116635	 0.0142331626	 0.048275
C	 0.8400378079	-0.5388358928	-1.234489804	 0.064007
O	 1.8190836947	 0.3917591759	-1.6946849546	-0.419094
C	 1.4544657861	-1.8506575327	-0.7012791885	-0.299923
C	 1.6410986151	-1.6246248338	 0.7980950497	 0.343163
C	 1.690908369	-2.8346878773	 1.69825775	-0.474679
C	 2.2782775291	-0.3385217724	 1.1922198916	-0.30412
N	 0.8068001905	-0.4804109619	 1.2172983896	-0.139176
H	 0.9383021341	 2.0538852996	 0.0039855781	 0.132083
H	-0.613989673	 1.8982845609	-0.8239351823	 0.110963
H	-0.5524188373	 1.8609023859	 0.9501899587	 0.119027
H	-0.8767162605	-0.4138898678	 0.0358935652	 0.078614
H	 0.1161634048	-0.7325379627	-2.0382855452	 0.066691
H	 2.2699782056	-0.0028724233	-2.4474574112	 0.283366
H	 0.7569725925	-2.6829406936	-0.8579136883	 0.099526
H	 2.3843449204	-2.1059423307	-1.2217819621	 0.093232
H	 2.5759572617	-3.4455578751	 1.4853980802	 0.112548
H	 1.7281373594	-2.5336497975	 2.7483748971	 0.126072
H	 0.8061413764	-3.4666694468	 1.5581834683	 0.112947
H	 2.7286197876	-0.2523751725	 2.1779345055	 0.102767
H	 2.7314902448	 0.2731556563	 0.4198301767	 0.133948
142.3038	163.4411	200.2674	214.1005	245.5804	275.9709	279.1961	340.945	397.3025	418.5178	465.1745	532.9949	602.7196	686.7498	765.2166	779.0951	810.383	883.3261	899.6442	931.1986	962.8104	996.2407	1014.0763	1029.7337	1073.4119	1094.2671	1120.8991	1129.222	1148.3479	1188.1439	1215.6611	1232.5523	1259.68	1293.8747	1347.0375	1351.4222	1372.8867	1391.5685	1406.5024	1419.9022	1422.761	1477.7628	1488.1816	1489.8169	1493.9314	1496.7107	1509.9612	2993.8071	3015.7738	3024.9991	3032.6201	3049.3539	3070.3884	3084.5795	3110.6269	3116.5352	3117.1852	3135.9363	3211.0937	3821.4104
CC1C(O)CC2(C)CN12	C[C@H]1[C@@H](O)C[C@@]2(C)CN12	
InChI=1S/C7H13NO/c1-5-6(9)3-7(2)4-8(5)7/h5-6,9H,3-4H2,1-2H3	InChI=1S/C7H13NO/c1-5-6(9)3-7(2)4-8(5)7/h5-6,9H,3-4H2,1-2H3/t5-,6-,7-,8?/m0/s1
