15
gdb 54494	2.5975	1.59463	1.09651	2.7492	67.05	-0.2509	-0.0485	0.2024	1070.3604	0.109164	-457.752007	-457.74347	-457.742526	-457.786156	30.3	
C	-0.068011936	 1.4092477238	 0.0531537131	-0.496856
C	-0.3431589873	-0.0763073672	 0.0267223301	 0.270175
O	-0.7445276361	-0.7075408851	 0.9743329662	-0.29156
C	-0.0583538976	-0.7566698358	-1.2813939094	 0.197904
O	-0.7229811723	-2.0068429018	-1.5693043209	-0.247566
C	 0.6814512041	-2.0383509464	-1.5560555762	-0.023033
C	 1.1466417068	-1.5866749931	-2.9479848809	-0.368975
C	 0.4176743945	-0.2437735703	-2.6442625313	 0.364867
O	 0.3985073789	 0.8267563204	-3.1733038805	-0.295287
H	 1.0001393116	 1.5940181857	-0.1143490297	 0.147502
H	-0.5959936089	 1.9100973464	-0.7647199432	 0.164766
H	-0.3642436124	 1.8208771706	 1.0181839842	 0.146006
H	 1.1792797615	-2.6579135473	-0.8199704867	 0.142435
H	 2.2227220331	-1.4205172859	-3.0536741279	 0.141852
H	 0.7747229402	-2.1893638439	-3.7783700468	 0.14777
38.5096	117.1399	121.3079	165.4508	206.2006	340.2968	358.5093	434.2443	563.0309	576.1217	591.4264	639.391	690.9915	820.0221	847.848	907.644	943.5416	976.6604	993.668	1018.2206	1051.0658	1124.3505	1155.8639	1186.2662	1225.776	1263.7914	1380.0951	1399.9823	1442.8615	1453.6048	1467.58	1811.7414	1893.1933	3037.4614	3071.7052	3099.8046	3135.683	3160.6177	3205.9567
CC(=O)C12OC1CC2=O	CC(=O)[C@]12O[C@H]1CC2=O	
InChI=1S/C6H6O3/c1-3(7)6-4(8)2-5(6)9-6/h5H,2H2,1H3	InChI=1S/C6H6O3/c1-3(7)6-4(8)2-5(6)9-6/h5H,2H2,1H3/t5-,6+/m0/s1
