19
gdb 116228	2.39474	1.40871	1.04522	2.604	70.76	-0.2545	0.0688	0.3233	1176.8335	0.158994	-460.13203	-460.123312	-460.122367	-460.165865	32.263	
O	-0.0350517655	 1.4338456583	-0.2272107627	-0.421361
C	 0.0599080311	 0.016790363	-0.2299871242	-0.085219
C	-1.3193635542	-0.5359583803	 0.1285564042	-0.085072
C	-2.3425233436	-0.2298108911	-0.9771356588	-0.102078
O	-2.1480949656	-1.2640686407	-1.9412344948	-0.257236
C	-1.9474934615	-2.4712229349	-1.2234873343	-0.145158
C	-1.3557105513	-2.0641127368	 0.1315191998	 0.375937
C	-0.5066346591	-2.9310487782	 0.9549469446	-0.252338
O	-1.8840209725	-2.7266981348	 1.2828874913	-0.273651
H	 0.7896920695	 1.7932137631	-0.5662868402	 0.289579
H	 0.3572890193	-0.3624523944	-1.2196398041	 0.099929
H	 0.8049206718	-0.331543783	 0.5013625548	 0.085914
H	-1.6221502076	-0.1461453893	 1.103474591	 0.099398
H	-3.3686733184	-0.2537341889	-0.5789511592	 0.094992
H	-2.1703687852	 0.7293723015	-1.4674517479	 0.125833
H	-2.8948612519	-3.0027701158	-1.0449613193	 0.109438
H	-1.290321492	-3.1153862382	-1.8154319266	 0.110643
H	-0.2520724599	-3.930298447	 0.6014503235	 0.114673
H	 0.2089502966	-2.4970494924	 1.6527046028	 0.115776
59.9069	106.5628	173.2126	199.4264	255.6722	293.6386	321.8805	330.7417	467.0414	485.902	527.9124	697.7345	817.1389	844.1478	865.1828	904.9325	944.5284	967.1033	980.8268	1031.5332	1061.3071	1091.5758	1111.4506	1127.1861	1137.5861	1166.0257	1196.798	1229.308	1235.3923	1251.9334	1267.8739	1285.1177	1336.6049	1355.2587	1374.3838	1430.4605	1454.6655	1504.7688	1518.9355	1519.7083	1533.3568	2976.3137	2985.4882	2992.0614	3010.2669	3074.5112	3076.861	3091.7641	3125.7522	3157.9723	3834.7008
OCC1COCC11CO1	OC[C@H]1COC[C@]21CO2	
InChI=1S/C6H10O3/c7-1-5-2-8-3-6(5)4-9-6/h5,7H,1-4H2	InChI=1S/C6H10O3/c7-1-5-2-8-3-6(5)4-9-6/h5,7H,1-4H2/t5-,6+/m0/s1
