20
gdb 102768	2.32172	0.87581	0.6863	3.8637	86.49	-0.2445	0.0255	0.2699	1698.7861	0.168271	-403.157917	-403.146692	-403.145748	-403.19733	37.723	
C	 0.3808352949	 1.5220647129	-0.0372459371	-0.389463
C	 0.2079517621	 0.0029386769	-0.0115046155	-0.164082
C	-1.2715584767	-0.4479657989	-0.0144009921	-0.162761
N	-1.9876730937	 0.0133201933	-1.2078181959	-0.269339
C	-2.9413274024	 0.9817743448	-1.1662594985	 0.159184
O	-3.2394600533	 1.6308509476	-0.1857460524	-0.325833
C	-1.3843491658	-1.9017732786	 0.1129396706	 0.035244
C	-1.4454328931	-3.1015913337	 0.1958774082	 0.118601
C	-1.5351840671	-4.5499133614	 0.3143880202	-0.499806
H	 1.4412947089	 1.7884898687	-0.0002560586	 0.111059
H	-0.042416851	 1.9553315839	-0.9478518772	 0.123493
H	-0.1184054365	 1.9934772449	 0.8149904117	 0.1322
H	 0.7156448621	-0.4569254677	-0.8682826002	 0.096802
H	 0.6748438965	-0.4182819963	 0.8856621406	 0.111618
H	-1.7840385328	 0.0405328059	 0.8223200848	 0.144028
H	-1.8758745016	-0.5181823474	-2.057184835	 0.249606
H	-3.4216716162	 1.1249958703	-2.1546017843	 0.076735
H	-2.3219652258	-4.9522367458	-0.3331341159	 0.15041
H	-0.5934831102	-5.0340731073	 0.0335853972	 0.14897
H	-1.7690257482	-4.8483081221	 1.3421599094	 0.153334
11.1907	35.8269	81.9057	91.2184	114.2913	187.6195	220.921	233.8466	281.3628	321.2973	341.2863	433.3286	493.1066	529.8026	540.335	711.2889	783.9517	859.9563	899.2825	972.0589	1030.0748	1051.2985	1053.8053	1060.2992	1106.4959	1128.192	1180.1881	1200.0233	1287.0176	1309.7695	1353.5246	1376.6152	1413.4302	1414.6431	1427.5877	1477.2316	1478.5821	1478.9535	1494.5616	1504.3146	1516.5482	1800.4488	2370.91	2935.0443	3028.094	3030.9591	3042.2454	3054.7831	3074.4355	3089.3395	3090.1804	3111.356	3117.3315	3630.2873
CCC(NC=O)C#CC	CC[C@@H](NC=O)C#CC	
InChI=1S/C7H11NO/c1-3-5-7(4-2)8-6-9/h6-7H,4H2,1-2H3,(H,8,9)	InChI=1S/C7H11NO/c1-3-5-7(4-2)8-6-9/h6-7H,4H2,1-2H3,(H,8,9)/t7-/m1/s1
