20
gdb 64711	3.6824	1.08274	1.0147	4.0648	82.46	-0.2691	0.0328	0.3019	1239.796	0.170991	-366.005242	-365.996572	-365.995627	-366.038418	33.506	
C	-0.043995618	 1.6397384667	 0.1460626392	-0.462222
C	 0.0350195298	 0.1177969075	 0.061717535	 0.327389
C	-1.3647382534	-0.4959106718	-0.1634198016	-0.398125
C	-1.9761397368	-0.0885850669	-1.4277274247	 0.269154
N	-2.4400632407	 0.2394442521	-2.4342997686	-0.316946
C	 1.0883445394	-0.507878385	-0.9267622501	-0.288156
C	 1.7034914416	-1.2889472643	 0.2408062177	-0.033539
C	 2.1973509188	-0.3329021107	 1.2867984612	-0.300608
C	 0.7264226264	-0.6328847146	 1.2197068968	-0.081318
H	 0.9417899404	 2.0796586877	 0.3173571309	 0.119592
H	-0.4429422405	 2.0654555606	-0.780624526	 0.140925
H	-0.6970421785	 1.9538365982	 0.9687653363	 0.114962
H	-1.29662934	-1.5897031604	-0.1486015031	 0.14875
H	-2.0347720869	-0.208493604	 0.6563397977	 0.145466
H	 0.6261723395	-1.1323963684	-1.694514813	 0.114944
H	 1.7570485426	 0.2036456639	-1.4212053058	 0.102696
H	 2.0364689989	-2.3185038248	 0.2013076639	 0.089599
H	 2.7121364735	-0.7843176657	 2.1289760999	 0.116215
H	 2.5889374812	 0.6403683748	 1.0019251518	 0.109311
H	 0.1999789826	-1.070806105	 2.0613532226	 0.081912
76.5684	125.4188	185.0837	236.0839	252.1204	329.9865	365.857	402.7604	413.9263	438.7212	543.5741	666.645	758.9223	791.2565	832.8675	859.5836	901.2472	931.2397	950.0048	957.1442	978.7065	993.6447	1007.43	1048.6535	1069.0293	1090.4935	1138.7429	1149.3634	1162.8329	1205.2048	1237.6922	1258.1027	1296.9055	1302.1685	1333.7252	1364.257	1418.7725	1463.7394	1485.1922	1492.371	1499.5695	1506.1869	2358.4668	3030.6359	3034.5579	3051.6389	3074.3992	3096.503	3108.7388	3112.298	3117.1222	3160.7831	3186.9462	3202.6796
CC1(CC#N)CC2CC12	C[C@@]1(CC#N)C[C@H]2C[C@@H]12	
InChI=1S/C8H11N/c1-8(2-3-9)5-6-4-7(6)8/h6-7H,2,4-5H2,1H3	InChI=1S/C8H11N/c1-8(2-3-9)5-6-4-7(6)8/h6-7H,2,4-5H2,1H3/t6-,7-,8-/m1/s1
