24
gdb 123190	9.98102	0.37728	0.36932	4.2716	92.05	-0.3094	0.0383	0.3478	2910.092	0.216317	-368.449127	-368.437829	-368.436885	-368.487011	39.303	
C	-0.0471609055	 1.603698422	 0.0600193529	-0.38003
C	-0.007746892	 0.0738052173	 0.0181211114	-0.164754
C	 0.699920102	-0.477401288	-1.22450737	-0.160543
C	 0.7429378536	-2.0083710606	-1.2726026129	-0.184775
C	 1.4507801317	-2.5580428252	-2.5157529358	-0.186113
C	 1.4889549946	-4.0884283588	-2.5552929231	-0.180281
C	 2.2050552612	-4.6190246313	-3.8136374722	-0.341837
C	 2.2496197153	-6.0785574875	-3.8661929239	 0.256581
N	 2.2753235573	-7.23367984	-3.8905163729	-0.305741
H	 0.9638566887	 2.0261944371	 0.0593691422	 0.113715
H	-0.5744062838	 2.0103663666	-0.8102102843	 0.113711
H	-0.5581763108	 1.9661033453	 0.9573901052	 0.112685
H	 0.4947850458	-0.3051297507	 0.917942844	 0.095412
H	-1.0317832161	-0.3208544009	 0.0555430957	 0.095413
H	 0.1976726232	-0.0989244863	-2.125929126	 0.092241
H	 1.7251561027	-0.083115462	-1.2630664869	 0.092242
H	 1.2457446009	-2.3870591248	-0.3720657566	 0.097086
H	-0.2818225462	-2.4028709753	-1.2348444111	 0.097086
H	 0.948265074	-2.1823996066	-3.4179678516	 0.09798
H	 2.476873867	-2.1665817367	-2.554601986	 0.09798
H	 1.998526877	-4.4751240969	-1.6653984547	 0.120181
H	 0.4699401361	-4.4909261165	-2.5286790708	 0.12018
H	 1.7026391581	-4.2548376583	-4.717699355	 0.150788
H	 3.2329297851	-4.2391436018	-3.8534657677	 0.150792
42.7938	65.1542	76.269	102.9565	146.9289	148.9473	160.0628	245.0306	248.0132	281.7243	400.9505	413.6402	461.9598	562.0622	733.1234	737.504	766.4834	833.275	898.7358	922.1845	933.8876	998.1398	1015.5775	1036.2761	1042.744	1063.7705	1071.8172	1136.0174	1143.7273	1220.7352	1243.5182	1267.3786	1296.1834	1309.8134	1326.4941	1337.8976	1340.1922	1345.0136	1381.0414	1401.6195	1403.9716	1414.032	1468.8029	1484.0352	1484.7714	1489.7204	1498.8754	1499.332	1508.6528	1515.9514	2361.9749	3001.3939	3003.4404	3010.8144	3018.7361	3023.3526	3029.4512	3030.8236	3034.4692	3044.7838	3046.1699	3061.1227	3068.6656	3091.451	3095.496	3102.1569
CCCCCCCC#N	CCCCCCCC#N	
InChI=1S/C8H15N/c1-2-3-4-5-6-7-8-9/h2-7H2,1H3	InChI=1S/C8H15N/c1-2-3-4-5-6-7-8-9/h2-7H2,1H3
