18
gdb 59899	4.61337	0.74965	0.70025	5.6639	73.83	-0.2914	-0.0051	0.2863	1624.2279	0.144666	-439.144217	-439.134016	-439.133072	-439.18093	35.163	
C	-0.2175397836	 1.5380027587	 0.0951130838	-0.394086
C	 0.0181899899	 0.0377539733	 0.0215104122	 0.140183
C	 0.7462650797	-0.5294097167	 1.2340919458	-0.398682
O	-1.3066714047	-0.5717297466	-0.0772665407	-0.261482
C	-1.3854382871	-1.7630805145	-0.6837132108	 0.46937
O	-0.4683699642	-2.379684732	-1.1534911031	-0.335595
C	-2.8490739775	-2.2138558191	-0.6895689557	-0.48064
C	-3.0460690671	-3.5220784318	-1.300631008	 0.293303
N	-3.2378296193	-4.5556758338	-1.7769514454	-0.296147
H	 0.741106848	 2.0625767726	 0.1406372413	 0.127456
H	-0.7620385178	 1.8911762929	-0.7845097288	 0.127398
H	-0.7946580719	 1.7982589223	 0.9877524732	 0.128421
H	 0.5599047705	-0.22651683	-0.8905438609	 0.117946
H	 1.7316206717	-0.0626793103	 1.3265419114	 0.126362
H	 0.1835341623	-0.3288299621	 2.1512319027	 0.123872
H	 0.8886778975	-1.6071740919	 1.1299639948	 0.14585
H	-3.2179314047	-2.2229532163	 0.3416119103	 0.182923
H	-3.4441403216	-1.4613549448	-1.218378362	 0.183548
24.3016	64.3028	96.7333	114.3854	209.0549	216.0049	258.9094	285.5948	369.283	392.233	409.3671	444.6504	482.7903	590.9724	730.8543	820.6656	906.5676	933.6065	935.5419	952.4475	957.2376	1003.817	1134.2184	1164.63	1204.1411	1213.7652	1217.5348	1343.2008	1365.9154	1389.8413	1402.6746	1419.1841	1437.8034	1481.8265	1485.8233	1496.0773	1510.3487	1833.8335	2380.0577	3042.8595	3046.7353	3058.6435	3080.3381	3095.398	3113.6292	3123.7897	3124.7057	3134.9036
CC(C)OC(=O)CC#N	CC(C)OC(=O)CC#N	
InChI=1S/C6H9NO2/c1-5(2)9-6(8)3-4-7/h5H,3H2,1-2H3	InChI=1S/C6H9NO2/c1-5(2)9-6(8)3-4-7/h5H,3H2,1-2H3
