18
gdb 31252	1.91167	1.75429	0.95828	4.0629	76.35	-0.179	0.045	0.224	1216.0309	0.149328	-435.28873	-435.279678	-435.278734	-435.322923	33.007	
C	 0.0435698743	 1.2782818086	 0.3757974739	-0.339493
N	 0.0020722115	-0.0764891195	-0.1522305851	-0.387042
C	-1.1825103429	-0.7951857568	-0.0676070247	 0.314344
C	-1.4001587928	-2.1565337995	 0.0090185821	 0.141338
C	-0.350525013	-3.2177166711	 0.0710084933	-0.190958
O	 0.7440514931	-2.8446331254	 0.925332142	-0.419164
N	-2.75695672	-2.4184801042	 0.0112707157	-0.304645
C	-3.3491197142	-1.2566013409	-0.0656159108	-0.019514
N	-2.434346979	-0.2270999653	-0.1132731454	-0.311241
H	 1.0706321587	 1.6454997014	 0.3209099764	 0.136519
H	-0.5666733479	 1.9491763862	-0.2408516777	 0.121576
H	-0.3017073882	 1.3636283202	 1.4192406529	 0.111849
H	 0.7639818844	-0.6609463181	 0.1715471569	 0.252683
H	-0.8112042034	-4.161985579	 0.3895176789	 0.114288
H	 0.1196764439	-3.3951027287	-0.9039524544	 0.115485
H	 0.3686605696	-2.6971956147	 1.8007439571	 0.280125
H	-4.4127320958	-1.0748661455	-0.0782230133	 0.122423
H	-2.6410258384	 0.7554620123	-0.1662907678	 0.261426
55.7576	115.3133	152.8767	178.6501	211.5667	259.4772	330.3162	376.7452	441.2862	469.6334	493.3959	636.8756	668.0442	710.13	732.0548	755.6163	818.4561	952.799	965.4282	1022.6433	1056.4725	1099.5942	1131.7375	1149.4542	1176.3872	1211.4184	1279.4045	1297.2758	1369.2337	1378.4319	1414.3917	1462.3764	1467.5502	1491.5317	1502.6014	1507.1776	1517.2676	1549.4309	1648.6854	2968.0654	3017.2388	3049.0183	3054.2834	3120.5386	3255.7948	3554.0399	3672.6966	3798.1733
CNC1=C(CO)N=CN1	CNc1c(CO)nc[nH]1	
InChI=1S/C5H9N3O/c1-6-5-4(2-9)7-3-8-5/h3,6,9H,2H2,1H3,(H,7,8)	InChI=1S/C5H9N3O/c1-6-5-4(2-9)7-3-8-5/h3,6,9H,2H2,1H3,(H,7,8)
