18
gdb 120709	2.6233	1.19737	0.93105	6.3022	69.61	-0.2512	0.006	0.2573	1278.5936	0.147219	-476.225914	-476.216998	-476.216054	-476.260081	32.114	
C	 0.0103734278	 1.3662361425	 0.5130690998	-0.325259
N	 0.5456577788	 0.0208775614	 0.7207261142	-0.297722
H	 0.8611442121	-0.381094614	-0.1566944563	 0.251691
H	 1.8753645988	-0.201638716	 1.7274886787	 0.327591
C	-0.4073893855	-0.9022612326	 1.337713952	-0.203717
C	 0.1999310883	-2.2888565375	 1.5076940156	 0.02655
O	 1.3674309302	-2.5708830953	 0.7442133247	-0.248966
C	 1.4808765989	-2.6057584814	 2.1788087367	-0.070652
C	 2.3951530003	-1.6435204325	 2.920552993	 0.38784
O	 2.9720554352	-2.0477768725	 3.9002772732	-0.335472
O	 2.5227363052	-0.4043443408	 2.4696793777	-0.393017
H	-0.1901756341	 1.8309327476	 1.4831577883	 0.143345
H	 0.7538089298	 1.9744424302	-0.0074033822	 0.139988
H	-0.9226472416	 1.3732536952	-0.0706389394	 0.116679
H	-0.7045385879	-0.499875995	 2.3140236919	 0.137541
H	-1.3293337203	-0.9953097472	 0.740595881	 0.110804
H	-0.5405132341	-3.0903523932	 1.5098871356	 0.109875
H	 1.5885961882	-3.6084138888	 2.5869050856	 0.122901
71.1813	105.8786	134.2055	185.7342	238.1209	252.5988	305.7156	342.299	378.1356	471.5382	611.182	681.0153	756.1965	790.1454	821.6414	852.0867	926.7673	951.8643	1010.6636	1016.7347	1050.2331	1111.8243	1131.4596	1145.051	1180.8249	1198.5339	1268.1579	1291.1875	1333.1461	1376.032	1387.1483	1449.8697	1462.7247	1474.5099	1493.283	1505.3532	1514.1802	1518.2774	1837.4292	2960.8261	2982.1203	3009.3364	3053.0251	3083.9125	3098.8063	3126.8357	3146.5573	3527.5112
C[NH2+]CC1OC1C([O-])=O	CNC[C@H]1O[C@H]1C(=O)O	
InChI=1S/C5H9NO3/c1-6-2-3-4(9-3)5(7)8/h3-4,6H,2H2,1H3,(H,7,8)	InChI=1S/C5H9NO3/c1-6-2-3-4(9-3)5(7)8/h3-4,6H,2H2,1H3,(H,7,8)/t3-,4-/m1/s1
