13
gdb 133373	3.17048	1.40226	0.97316	3.9995	65.52	-0.2178	-0.0559	0.1619	1086.4354	0.090408	-494.069176	-494.061826	-494.060882	-494.100923	28.18	
N	-0.0342319587	 1.3817768702	 0.1499912597	-0.566834
C	-0.0324872515	 0.002337531	 0.0397409037	 0.284585
N	-1.1558290696	-0.6529872478	 0.0251380939	-0.27824
N	-1.0783560205	-2.0025065686	 0.0072809951	-0.287584
C	 0.0514179156	-2.8154236855	-0.0209658512	 0.445959
O	-0.0383083351	-4.0311557195	-0.0408680832	-0.398052
C	 1.2883899743	-2.0402909609	-0.0288645032	-0.374301
C	 1.2269426439	-0.6970904303	 0.0034621727	 0.295816
F	 2.3234150854	 0.063247594	-0.0118133027	-0.068089
H	 0.7550543965	 1.8440148497	-0.2757506592	 0.262975
H	-0.9237737214	 1.80446828	-0.0740052979	 0.264212
H	-1.9711607558	-2.4751765254	 0.0060033468	 0.274355
H	 2.2292270268	-2.5732364068	-0.0613048845	 0.145199
119.1996	205.3827	282.8848	323.1122	370.0492	386.6637	423.3919	467.8663	523.7156	579.0875	614.5065	645.2273	726.1732	735.5282	754.8831	824.9016	904.9117	947.6672	1082.3472	1203.7453	1228.8674	1287.815	1298.1578	1435.6216	1500.406	1606.0174	1625.9529	1696.6339	1784.5536	3232.6627	3570.6446	3613.9452	3681.8616
NC1=NNC(=O)C=C1F	Nc1n[nH]c(=O)cc1F	
InChI=1S/C4H4FN3O/c5-2-1-3(9)7-8-4(2)6/h1H,(H2,6,8)(H,7,9)	InChI=1S/C4H4FN3O/c5-2-1-3(9)7-8-4(2)6/h1H,(H2,6,8)(H,7,9)
