22
gdb 62944	1.90773	1.80615	1.51167	2.495	81.36	-0.2271	0.0677	0.2948	1070.4747	0.191569	-404.308436	-404.298758	-404.297814	-404.341591	38.337	
C	 0.0860853925	 1.5770743655	-0.2449828182	-0.457197
C	 0.1125598156	 0.0630611034	-0.0676911867	 0.365346
O	-1.1957439584	-0.4579728163	-0.2537591106	-0.471381
C	 1.1692725834	-0.7361466201	-0.8438153823	-0.086683
C	 2.5439182883	-0.4366142994	-0.404984097	-0.263045
N	 1.7421274059	-1.369990285	 0.4058167807	-0.152775
C	 0.7450866591	-0.5663494845	 1.2363450279	 0.267414
C	 1.3695677505	 0.3697596069	 2.2665633597	-0.443883
C	-0.167596123	-1.5709904697	 1.9338899629	-0.40414
H	 1.0667674809	 2.0385542859	-0.1119720769	 0.118174
H	-0.2565823393	 1.8296988905	-1.2568654556	 0.105214
H	-0.6091592784	 2.0287785556	 0.4694462255	 0.126599
H	-1.5248080605	-0.1255799617	-1.0957141192	 0.276305
H	 0.9419615416	-1.3292075771	-1.7255292203	 0.08842
H	 3.3555399526	-0.9361964582	-0.9264741889	 0.120141
H	 2.8061154333	 0.544899775	-0.0219869973	 0.106428
H	 2.0233009602	 1.1292452219	 1.8321520372	 0.108604
H	 0.5878926714	 0.8912278575	 2.8287125692	 0.119876
H	 1.9623022334	-0.2136046422	 2.9788287479	 0.125972
H	 0.4080463062	-2.1046470951	 2.6966725661	 0.10894
H	-1.0095575485	-1.0669612927	 2.416852843	 0.110724
H	-0.5645654367	-2.2985192803	 1.226587963	 0.130947
141.2581	184.4925	210.6994	228.6054	255.6139	257.7464	284.5816	317.0688	340.2685	357.0635	405.9217	464.2447	513.3799	522.4929	621.9296	659.8671	756.4656	778.8839	858.3177	921.0638	945.9394	964.5942	973.3981	993.1648	1017.074	1052.1412	1089.0094	1109.0959	1117.6089	1164.2322	1175.1771	1200.3679	1234.5159	1254.1579	1259.5386	1335.9803	1377.9048	1400.0593	1404.25	1419.4786	1474.1371	1478.4841	1484.4247	1491.5351	1493.4352	1507.9081	1514.9799	3022.5624	3038.8346	3047.4589	3090.8733	3102.6439	3113.8924	3114.1498	3118.4422	3127.0975	3145.6665	3153.3568	3196.8545	3804.5461
CC1(O)C2CN2C1(C)C	C[C@@]1(O)[C@H]2CN2C1(C)C	
InChI=1S/C7H13NO/c1-6(2)7(3,9)5-4-8(5)6/h5,9H,4H2,1-3H3	InChI=1S/C7H13NO/c1-6(2)7(3,9)5-4-8(5)6/h5,9H,4H2,1-3H3/t5-,7-,8?/m1/s1
