15
gdb 61731	4.68736	0.58954	0.53466	2.9712	85.51	-0.2499	-0.0416	0.2083	1924.2985	0.108134	-420.569835	-420.559853	-420.558909	-420.605959	34.469	
O	-0.3126120702	 1.3850630179	 0.1397756516	-0.409823
C	-0.0102812908	-0.0018289436	 0.0160495296	-0.12867
C	 0.7974488846	-0.2922571306	-1.2717080599	-0.282119
C	 0.0609021989	 0.1461812473	-2.524131277	 0.149239
O	 0.035434887	-0.493636133	-3.5437017654	-0.238064
C	 0.6808073934	-0.52173622	 1.1939311384	 0.36847
C	 1.2864563978	-0.9241691516	 2.1618382275	-0.196646
C	 1.9623895748	-1.3772014892	 3.2519974042	 0.281639
C	 2.5634572023	-1.7786236559	 4.2189866275	-0.541356
H	 0.4830623886	 1.8337711676	 0.4483724176	 0.291124
H	-0.9885703558	-0.4929818471	-0.0646030902	 0.138235
H	 1.7406502579	 0.2693855805	-1.2157605313	 0.128614
H	 1.0463807506	-1.3532876206	-1.355493277	 0.139316
H	-0.4575389986	 1.1240896519	-2.4373085639	 0.101015
H	 3.0904756795	-2.1333590338	 5.0700146882	 0.199027
56.0597	59.7914	79.4635	129.7332	196.4913	244.3952	270.0819	308.0739	385.0147	423.1803	500.4835	516.6662	548.4907	567.2964	599.6753	617.885	758.6026	802.3462	896.5676	1032.102	1067.7898	1087.6999	1167.8839	1201.6196	1262.6855	1293.1668	1345.5348	1411.671	1423.4468	1448.6802	1831.7527	2181.712	2359.212	2919.365	3019.9004	3036.2954	3111.0135	3503.2134	3800.509
OC(CC=O)C#CC#C	O[C@@H](CC=O)C#CC#C	
InChI=1S/C7H6O2/c1-2-3-4-7(9)5-6-8/h1,6-7,9H,5H2	InChI=1S/C7H6O2/c1-2-3-4-7(9)5-6-8/h1,6-7,9H,5H2/t7-/m1/s1
