14
gdb 45772	3.06909	1.23953	0.96773	2.7325	67.71	-0.269	-0.0348	0.2342	1158.6538	0.101939	-432.91859	-432.910743	-432.909799	-432.952184	27.59	
O	-0.0685654374	-0.0197389264	-0.3228091203	-0.36006
C	-0.0859362247	 1.1702515313	-0.1296470182	 0.40339
C	-1.2404273527	 2.1690256944	-0.0424847353	-0.292748
N	-0.642392521	 3.4847928616	 0.2004726944	-0.243414
C	 0.6168917087	 3.2940463408	 0.2497259268	 0.076292
N	 1.0424642981	 1.9751579027	 0.0666254934	-0.110746
C	 2.389479472	 1.4512837099	 0.0554065704	-0.305133
C	 3.098884681	 1.6684606911	 1.3226017786	 0.266225
N	 3.6620588476	 1.8634204577	 2.3116247793	-0.288976
H	-1.8223647613	 2.1680501773	-0.9701977136	 0.162028
H	-1.9262013637	 1.8963870009	 0.7667953459	 0.164835
H	 1.3520495391	 4.0726294197	 0.4257965671	 0.157895
H	 2.2927734685	 0.3763975981	-0.1364424271	 0.198779
H	 2.9809987358	 1.886129611	-0.7589796113	 0.171635
41.4124	86.8081	174.2594	235.9068	266.0583	373.9139	432.767	463.4643	551.467	600.8271	689.5152	751.9819	875.7928	920.878	926.5866	972.8251	986.92	991.7108	1086.0327	1178.4068	1184.4598	1262.6859	1302.897	1336.044	1374.8534	1406.2435	1435.2197	1467.3735	1682.394	1842.6695	2368.7276	3038.0107	3058.8063	3084.7456	3095.0312	3198.491
O=C1CN=CN1CC#N	O=C1CN=CN1CC#N	
InChI=1S/C5H5N3O/c6-1-2-8-4-7-3-5(8)9/h4H,2-3H2	InChI=1S/C5H5N3O/c6-1-2-8-4-7-3-5(8)9/h4H,2-3H2
