17
gdb 87331	1.90041	1.46014	0.96454	3.7604	76.5	-0.281	-0.0016	0.2795	1253.7411	0.134047	-418.001006	-417.991588	-417.990644	-418.035841	33.281	
C	-0.0071784949	 1.5178392983	 0.0818283555	-0.409549
C	 0.109644799	 0.0110792988	 0.0398810006	-0.056653
C	 1.4486025447	-0.6731296251	-0.0249025448	-0.339975
C	 0.6237709796	-0.7441297498	 1.2514520828	 0.250218
O	 1.01016773	 0.0487401971	 2.3427447615	-0.223831
C	 2.0620257273	-0.4063659263	 3.0811502668	 0.115814
N	 2.4898047873	 0.299995918	 4.0292130186	-0.428118
C	-0.0044524078	-1.9960306282	 1.6087575979	 0.257724
N	-0.4978275317	-3.0036620464	 1.8903616074	-0.337256
H	 0.7948962098	 1.963497553	 0.6728741277	 0.145246
H	 0.0418502588	 1.9234618442	-0.9335211881	 0.128668
H	-0.9600453481	 1.8226668372	 0.5243592443	 0.137995
H	-0.6967901657	-0.4985200409	-0.4786632805	 0.122149
H	 1.5604558229	-1.5775253678	-0.6111763945	 0.143665
H	 2.3332598605	-0.0481718949	 0.0392660106	 0.141572
H	 2.4323738972	-1.3852565536	 2.755818837	 0.112819
H	 3.264314541	-0.1682462835	 4.4951292871	 0.239511
66.9591	95.0626	137.7672	146.4212	163.8361	193.1572	282.1596	354.656	407.3578	488.5192	507.875	574.3852	602.0066	752.9384	807.5457	824.352	901.9495	925.7384	956.2537	1008.0447	1043.6567	1065.9327	1070.6831	1099.4301	1139.5088	1196.3136	1248.7896	1268.3945	1283.7199	1402.3295	1418.5382	1423.5559	1474.16	1491.7847	1501.576	1751.9881	2348.5924	3047.4811	3059.0502	3111.1727	3136.4853	3139.6044	3163.3251	3234.3663	3522.3368
CC1CC1(OC=N)C#N	C[C@H]1C[C@]1(O[CH][NH])C#N	
InChI=1S/C6H8N2O/c1-5-2-6(5,3-7)9-4-8/h4-5,8H,2H2,1H3	InChI=1S/C6H8N2O/c1-5-2-6(5,3-7)9-4-8/h4-5,8H,2H2,1H3/t5-,6-/m0/s1
