18
gdb 90136	2.80235	1.7128	1.46969	2.3258	76.06	-0.2188	0.0162	0.2349	960.3118	0.149006	-401.891089	-401.883745	-401.882801	-401.922476	29.918	
O	 0.1624845778	 1.3885170016	-0.1032645405	-0.425434
C	 0.0739136404	-0.015213535	-0.0510904754	 0.051404
C	 0.3382108977	-0.6379263089	 1.3721637715	-0.332676
C	-1.1386527372	-1.0759591312	 1.4219441183	 0.222139
C	-2.2783925049	-0.6943242797	 2.3529415602	-0.336051
C	-3.1709213359	 0.1375077184	 1.4293960508	-0.058853
C	-2.667452047	 0.3019282411	 0.1978665593	-0.134067
C	-1.396769484	-0.4571705794	 0.0771959288	 0.202432
N	-1.5031123697	-1.9079554011	 0.2776679247	-0.381466
H	 1.0924629704	 1.6331618548	-0.0587346792	 0.286291
H	 0.6245053005	-0.4790990706	-0.8848754369	 0.059001
H	 1.0904541719	-1.4296420462	 1.4679212872	 0.089194
H	 0.5629347402	 0.1642256823	 2.0800596438	 0.111054
H	-2.8103450039	-1.5633114743	 2.7571301579	 0.118955
H	-1.9272923363	-0.1061353001	 3.2104413155	 0.108165
H	-4.1376527024	 0.51011532	 1.7542460593	 0.093813
H	-3.1341126468	 0.8646040139	-0.6010844773	 0.100375
H	-0.6964882908	-2.4042202855	-0.0985497181	 0.225723
126.4272	189.6004	262.263	317.2351	352.6954	435.9709	479.5811	503.1248	559.0065	658.3792	679.5582	744.2252	774.3722	806.6802	867.0907	871.5644	916.9366	933.1705	961.588	966.4695	1033.7574	1055.7826	1101.2373	1104.8431	1130.0921	1170.7501	1182.4352	1191.9574	1233.0225	1246.1845	1260.9436	1307.2037	1332.4794	1384.4498	1406.3521	1425.0533	1465.2022	1475.3754	1636.8608	2962.8056	3025.6475	3029.9672	3063.2435	3104.8418	3177.7625	3213.369	3462.7651	3815.853
OC1CC23CC=CC12N3	O[C@H]1C[C@@]23CC=C[C@@]12N3	
InChI=1S/C7H9NO/c9-5-4-6-2-1-3-7(5,6)8-6/h1,3,5,8-9H,2,4H2	InChI=1S/C7H9NO/c9-5-4-6-2-1-3-7(5,6)8-6/h1,3,5,8-9H,2,4H2/t5-,6-,7+/m0/s1
