16
gdb 30675	4.23494	0.92781	0.918	1.5467	66.9	-0.2508	-0.0133	0.2375	1290.6388	0.124954	-475.0401	-475.031787	-475.030843	-475.073851	30.124	
O	 0.1564268497	 1.3732000529	-0.2303605359	-0.420155
C	 0.1308018742	-0.0212729629	-0.0394072683	-0.067749
C	-1.3197894729	-0.514893821	 0.1018308289	-0.03528
O	-2.0819455263	-0.0291964359	-1.0110865086	-0.438172
C	-1.4222913149	-1.9907318153	 0.2552841653	 0.342301
C	-1.8330731701	-2.8445600726	 1.2236598802	-0.200767
N	-1.6808929526	-4.1561567209	 0.786908888	-0.252991
C	-1.2004275622	-4.0362973243	-0.404587256	 0.075629
O	-1.005746423	-2.7580500125	-0.8101803181	-0.196187
H	-0.5428244335	 1.5581887289	-0.8712551439	 0.287229
H	 0.6106409901	-0.5618544852	-0.8733718564	 0.088117
H	 0.6954940516	-0.2457977844	 0.8713537543	 0.116757
H	-1.7635854651	-0.0445323097	 0.9845275542	 0.116694
H	-1.8733768492	-0.5874545133	-1.7697634211	 0.293563
H	-2.2271136082	-2.6136117096	 2.2004995532	 0.134839
H	-0.9409110778	-4.812148964	-1.1076017658	 0.156173
54.7647	109.93	117.1164	210.2802	292.1115	337.7722	367.594	415.2579	511.5863	530.6251	665.1085	710.962	783.2615	840.2222	869.2916	882.2437	938.6826	968.7979	1055.0901	1069.7381	1096.3545	1118.8259	1130.9959	1196.0963	1231.9533	1244.9731	1287.6779	1299.1094	1354.6215	1380.9768	1417.9421	1437.1069	1506.3381	1549.388	1639.5173	2961.8834	3073.3621	3085.4001	3267.3868	3278.7993	3763.6626	3795.608
OCC(O)C1=CN=CO1	OC[C@@H](O)c1cnco1	
InChI=1S/C5H7NO3/c7-2-4(8)5-1-6-3-9-5/h1,3-4,7-8H,2H2	InChI=1S/C5H7NO3/c7-2-4(8)5-1-6-3-9-5/h1,3-4,7-8H,2H2/t4-/m1/s1
