17
gdb 70224	3.42986	1.30674	1.12039	4.8558	68.2	-0.2602	0.0067	0.2669	1088.0455	0.136163	-458.98481	-458.97701	-458.976065	-459.016968	30.59	
O	 0.0034885552	 1.4345281257	-0.1088350761	-0.463837
C	 0.0446223483	 0.0377538569	-0.0479007293	 0.356798
C	-0.5246207837	-0.744828736	-1.2219597212	-0.386284
C	-1.2856496589	-0.6219186185	 0.0788484816	 0.090245
O	-1.4880415106	-1.7220907924	 0.9398014094	-0.223619
C	-0.4544593719	-2.4165518951	 1.4877850267	 0.416898
O	-0.6961137631	-3.3045298057	 2.256973016	-0.319579
C	 0.9540824607	-2.0424523432	 1.0499402594	-0.367761
C	 1.1624819139	-0.5451682976	 0.7898328018	-0.28337
H	 0.7140333888	 1.7286335703	-0.6904027295	 0.285409
H	-0.9080036289	-0.1708634384	-2.0580602613	 0.1269
H	-0.0915769665	-1.7033277335	-1.4852141285	 0.123649
H	-2.1674768124	 0.0064444968	 0.0887318111	 0.130628
H	 1.631298296	-2.4142131096	 1.8203038109	 0.143068
H	 1.1691101097	-2.621625651	 0.1436903711	 0.139488
H	 2.1370385867	-0.3801022939	 0.3140893428	 0.103118
H	 1.1746334668	 0.0020823752	 1.7394919753	 0.12825
86.7319	196.5875	242.1532	291.3178	350.6025	364.9735	386.7355	456.4385	493.1456	533.1633	595.0715	683.3632	718.3355	742.9098	875.8374	894.4947	921.8696	927.6268	996.6668	1021.7824	1040.1287	1066.2412	1110.4932	1138.7216	1183.4118	1202.1241	1242.2094	1265.4517	1294.0344	1341.2175	1368.919	1383.729	1414.8262	1472.4602	1482.7667	1508.6699	1850.9545	3026.7253	3043.9772	3070.8728	3124.2922	3139.0792	3196.9474	3230.6803	3789.7562
OC12CC1OC(=O)CC2	O[C@]12C[C@H]1OC(=O)CC2	
InChI=1S/C6H8O3/c7-5-1-2-6(8)3-4(6)9-5/h4,8H,1-3H2	InChI=1S/C6H8O3/c7-5-1-2-6(8)3-4(6)9-5/h4,8H,1-3H2/t4-,6-/m1/s1
