18
gdb 107044	3.58867	1.22675	1.03443	4.0269	72.53	-0.2307	0.004	0.2347	1160.6505	0.148414	-439.053113	-439.044796	-439.043852	-439.085864	32.057	
O	 0.3374508039	-0.0249023437	 1.0693421293	-0.421788
C	-0.2142417489	 0.3655270578	-0.1792925481	-0.201806
C	-1.5357091441	-0.3366103555	-0.3534004454	 0.327369
N	-2.4147276971	-0.5398102263	 0.8370049125	-0.394624
C	-1.821014299	-1.7042545251	 0.127731638	-0.121595
C	-2.8475641209	-2.3453705236	-0.8151823889	 0.092006
O	-4.0602519227	-2.6728101868	-0.1575886995	-0.438265
C	-3.0381854239	-1.2645070023	-1.8757362294	-0.116106
C	-2.3308610916	-0.1653264681	-1.6142345976	-0.143232
H	 1.1312536989	 0.4926436106	 1.2291434393	 0.297258
H	-0.371842388	 1.4558053373	-0.2189893811	 0.09835
H	 0.4513464658	 0.0981463823	-1.0151986532	 0.103868
H	-1.8422749005	-0.3694878103	 1.6639596562	 0.24191
H	-1.082777014	-2.303069356	 0.6464851817	 0.101702
H	-2.4753641297	-3.2829502053	-1.2433369827	 0.084921
H	-4.2516566255	-1.900960956	 0.3950360401	 0.288083
H	-3.7534678307	-1.3861102262	-2.6811404298	 0.104503
H	-2.3421900419	 0.7559360073	-2.1866560912	 0.097446
107.9699	142.1181	175.7053	207.3714	260.209	333.7608	397.4163	450.8347	502.8729	528.7546	578.0531	660.9994	715.4646	767.1014	831.293	859.2934	882.8479	941.556	975.1996	1003.1111	1016.1098	1031.5177	1075.6044	1079.5528	1116.1416	1119.7149	1164.4567	1205.8472	1250.7296	1271.0547	1286.4902	1320.1845	1335.272	1372.5566	1430.0166	1444.3352	1468.9438	1518.8667	1670.5577	2965.5569	2995.3622	3047.9015	3182.1437	3192.5769	3210.76	3474.4785	3732.6729	3844.8802
OCC12NC1C(O)C=C2	OC[C@]12N[C@H]1[C@@H](O)C=C2	
InChI=1S/C6H9NO2/c8-3-6-2-1-4(9)5(6)7-6/h1-2,4-5,7-9H,3H2	InChI=1S/C6H9NO2/c8-3-6-2-1-4(9)5(6)7-6/h1-2,4-5,7-9H,3H2/t4-,5-,6-/m0/s1
