19
gdb 47608	2.27461	1.92869	1.18029	4.3834	74.44	-0.2561	0.0137	0.2699	1058.6611	0.161799	-423.061823	-423.054283	-423.053339	-423.094223	29.426	
O	-0.2558219301	 0.6063508551	 1.2049576234	-0.331687
C	-0.1546764823	 1.4199473571	 0.326680141	 0.411818
O	-1.2722457244	 1.8563862943	-0.3099444281	-0.227418
C	-1.1573877267	 2.9048033428	-1.288052096	-0.067057
C	-0.3060655792	 4.0519566951	-0.7514520447	-0.25169
C	 1.1084518564	 3.5231130165	-0.5038889932	 0.017212
C	 1.8470358011	 3.820209867	 0.8338736616	-0.237677
C	 2.1791508375	 2.306729305	 0.9764758602	-0.226116
C	 1.1620449094	 2.0011079078	-0.1535042965	-0.17539
H	-0.7311283278	 2.4993304336	-2.2157716297	 0.110161
H	-2.1853474908	 3.2105491765	-1.4948298271	 0.124138
H	-0.3187825662	 4.8889994802	-1.4570995587	 0.107101
H	-0.7603690371	 4.4062490918	 0.1812818532	 0.115509
H	 1.7491951887	 3.7328850557	-1.3650557754	 0.077439
H	 2.6908032897	 4.5118489001	 0.7864068326	 0.103097
H	 1.1591351595	 4.1694377592	 1.6099770214	 0.108896
H	 3.2041979862	 2.066901392	 0.6857964613	 0.103743
H	 1.9629639701	 1.8325942729	 1.9343851174	 0.130124
H	 1.5193669358	 1.3473552173	-0.9565204327	 0.107796
74.1714	104.4003	245.7448	271.4391	362.3204	446.3766	459.076	523.9189	590.6816	652.7237	693.4745	759.6206	785.7051	879.9831	909.5104	932.6985	959.6591	976.804	1003.2998	1006.05	1085.3769	1094.0429	1112.0987	1135.8791	1175.8544	1196.9008	1220.0085	1247.5198	1257.556	1266.4452	1276.7782	1288.6883	1331.1144	1351.181	1374.2997	1413.6816	1479.5744	1485.4013	1498.4968	1513.6936	1840.6446	3016.5637	3038.2921	3046.1411	3056.9182	3059.3762	3077.9057	3087.6466	3105.4281	3111.4084	3138.9173
O=C1OCCC2CCC12	O=C1OCC[C@H]2CC[C@@H]12	
InChI=1S/C7H10O2/c8-7-6-2-1-5(6)3-4-9-7/h5-6H,1-4H2	InChI=1S/C7H10O2/c8-7-6-2-1-5(6)3-4-9-7/h5-6H,1-4H2/t5-,6-/m1/s1
