12
gdb 25099	3.16842	1.55746	1.19143	2.6869	64.61	-0.2785	-0.1003	0.1782	967.9636	0.078252	-468.823702	-468.816659	-468.815715	-468.855856	25.491	
N	 0.0072030006	 1.3462670829	 0.2751371888	-0.453274
C	 0.0197802457	 0.0934537912	 0.1018643743	 0.347245
N	 1.1831922145	-0.7054716088	 0.1990258058	-0.261417
C	 1.5262369258	-1.508858338	-0.7071361677	 0.132479
O	 0.9254122802	-1.7978250399	-1.9040699483	-0.210899
C	-0.4307610595	-1.7131832455	-2.1706404567	 0.405751
O	-0.8134995676	-1.969496603	-3.2703826032	-0.273658
C	-1.3774822807	-1.3823576197	-1.0483256888	-0.094434
N	-1.2075203137	-0.5823705378	-0.0813427482	-0.159656
H	 0.9595837059	 1.68324289	 0.4240372006	 0.239429
H	 2.456310353	-2.0667334761	-0.6370149844	 0.162996
H	-2.3475940142	-1.8643463351	-1.1725108621	 0.165438
65.4586	113.41	264.0733	316.29	363.0539	437.9264	484.9781	564.9333	639.6102	717.2346	727.9102	819.0943	844.7774	859.6598	909.7471	951.0597	976.7619	1019.2265	1131.594	1163.9387	1313.2062	1391.4265	1420.44	1719.4481	1726.4662	1738.6037	1860.1733	3137.5006	3185.3877	3485.3569
N=C1N=COC(=O)C=N1	[NH][C]1N=COC(=O)C=N1	
InChI=1S/C4H3N3O2/c5-4-6-1-3(8)9-2-7-4/h1-2,5H	InChI=1S/C4H3N3O2/c5-4-6-1-3(8)9-2-7-4/h1-2,5H
