23
gdb 89069	4.51496	0.62857	0.59363	1.3705	86.86	-0.2516	0.0822	0.3338	1937.9182	0.205082	-388.258855	-388.248969	-388.248025	-388.294643	36.96	
O	-0.0729052495	 1.4583511043	 0.0945248282	-0.417366
C	-0.0309312743	 0.0606846546	 0.031989132	 0.087367
C	-0.613463987	-0.754564135	 1.1607609748	-0.326054
C	-1.3360931407	-0.6517205137	-0.1717784277	-0.013268
C	-2.6386045339	 0.1134160794	-0.2805517545	-0.194207
C	-3.8575106533	-0.7140424062	 0.1536600629	-0.200452
C	-5.1616006638	 0.0462740472	 0.0361308727	 0.038451
C	-5.9025197656	 0.0956045361	-1.2772844516	-0.253404
C	-6.4706134758	-0.6844924247	-0.1157793225	-0.278387
H	 0.5563559169	 1.7427233378	 0.7651224672	 0.286804
H	 0.8436920492	-0.3410090763	-0.4803894515	 0.082059
H	-0.135373179	-1.6867032537	 1.4422655571	 0.106856
H	-1.0399861273	-0.1937981803	 1.9870030467	 0.110266
H	-1.2821765379	-1.5362839641	-0.8026768126	 0.081415
H	-2.5714202389	 1.0249943945	 0.3224600035	 0.104705
H	-2.7801898671	 0.4472966208	-1.3166120139	 0.099037
H	-3.9175374977	-1.6262979432	-0.4562374878	 0.084724
H	-3.7158413443	-1.051117421	 1.1893655371	 0.094696
H	-5.1987676401	 0.9583540605	 0.628044834	 0.077842
H	-6.3911778939	 1.019224223	-1.5674322083	 0.108024
H	-5.49127223	-0.4670172245	-2.109681574	 0.106748
H	-6.4411997452	-1.7681081047	-0.1716474233	 0.106858
H	-7.346386741	-0.2922370409	 0.3896889115	 0.107285
52.1726	67.0025	95.0035	122.374	209.3617	239.2921	301.0633	348.4719	383.3099	407.501	465.8412	580.203	750.5465	770.6457	779.3724	819.9834	831.1787	839.24	887.4009	916.9015	943.5576	972.5723	996.8831	1038.8453	1047.189	1062.4478	1071.2761	1079.2399	1093.8196	1134.9881	1141.7446	1177.95	1198.3007	1201.518	1228.5722	1238.775	1248.5817	1280.4101	1300.4742	1317.2972	1361.12	1403.9295	1418.0162	1425.5517	1469.0287	1479.8808	1489.0772	1499.9465	1508.4449	3004.9416	3025.5634	3039.4774	3079.0893	3090.7266	3124.504	3125.778	3127.144	3130.9433	3132.1248	3203.0323	3213.2989	3218.4517	3809.2972
OC1CC1CCC1CC1	O[C@H]1C[C@H]1CCC1CC1	
InChI=1S/C8H14O/c9-8-5-7(8)4-3-6-1-2-6/h6-9H,1-5H2	InChI=1S/C8H14O/c9-8-5-7(8)4-3-6-1-2-6/h6-9H,1-5H2/t7-,8+/m1/s1
