12
gdb 7034	8.38528	1.00157	0.8947	2.4783	56.69	-0.2767	-0.0423	0.2344	1176.9144	0.082894	-451.851556	-451.84366	-451.842716	-451.884823	26.03	
N	-0.3210880872	 1.3654254068	 0.014349952	-0.420593
C	-0.0519553588	 0.1388130899	 0.0038847613	 0.123713
O	-1.1062919587	-0.7447180602	 0.0095024297	-0.236767
C	-0.8026436022	-2.0881318228	-0.0023714905	 0.569998
O	 0.2959225902	-2.5568092977	-0.0167234709	-0.337245
N	-2.0121699333	-2.76543785	 0.0066072379	-0.398781
C	-2.1930136763	-4.1484397313	 0.0007334925	 0.167333
O	-1.3270805917	-4.9753831753	-0.012757991	-0.243349
H	 0.5404341123	 1.9091843395	 0.0082678476	 0.244943
H	 0.9156694109	-0.3628244956	-0.0098849242	 0.153063
H	-2.8379202793	-2.1840475826	 0.0190413543	 0.27751
H	-3.2747269258	-4.3852170908	 0.0115932513	 0.100175
57.5158	121.4713	126.1593	147.4472	238.552	258.7307	380.844	532.9508	616.6633	635.6986	776.6062	851.1861	876.4401	972.5362	1020.1425	1030.2698	1069.7663	1169.6602	1184.3564	1267.4843	1387.1619	1444.2705	1512.9939	1752.559	1829.272	1902.5229	2949.2972	3142.9926	3513.4293	3617.4647
N=COC(=O)NC=O	[NH][CH]OC(=O)NC=O	
InChI=1S/C3H4N2O3/c4-1-8-3(7)5-2-6/h1-2,4H,(H,5,6,7)	InChI=1S/C3H4N2O3/c4-1-8-3(7)5-2-6/h1-2,4H,(H,5,6,7)
