19
gdb 78491	2.57878	1.50432	1.2879	1.0085	75.38	-0.2366	0.0733	0.3099	1066.6376	0.158214	-422.971387	-422.962812	-422.961868	-423.003909	33.665	
C	-0.1341308843	 1.5350465216	-0.0091821903	-0.529012
C	 0.0156805174	 0.0503290888	 0.0369327391	 0.275491
C	 0.0594594316	-1.0381566327	-1.0401531482	-0.243057
C	 1.3370956203	-1.6342744519	-0.4601273585	 0.159088
O	 2.5304027718	-1.145288431	-1.0344088458	-0.446361
C	 0.923437319	-0.9546979026	 0.8777052334	-0.155263
C	-0.3664348014	-1.7082154307	 1.3108041769	-0.306706
C	-0.998870221	-1.0526619332	 0.0859878575	 0.34681
O	-2.3421432249	-0.8959180009	-0.1885132553	-0.467206
H	 0.7775890429	 2.0347844428	-0.3569184625	 0.112832
H	-0.9473337204	 1.8115322452	-0.688231632	 0.136191
H	-0.3769240942	 1.9419964804	 0.9793212845	 0.126327
H	-0.2470962835	-0.9607998191	-2.0772344009	 0.084442
H	 1.4481537998	-2.724096653	-0.4405278017	 0.076174
H	 2.415034749	-0.1993678373	-1.1824500908	 0.277811
H	 1.6865782397	-0.6756264768	 1.601885628	 0.07593
H	-0.3151974654	-2.8022848834	 1.3716239259	 0.085643
H	-0.790858767	-1.304678455	 2.2347069849	 0.104366
H	-2.6602372594	-1.6901125511	-0.6321485241	 0.2865
143.7559	178.4425	192.7915	235.4207	262.3463	294.1571	342.8831	378.7909	424.0416	450.9344	525.117	615.4975	662.4084	740.9863	803.8771	841.5581	897.7217	910.0126	928.6732	938.1656	991.7994	1027.3496	1062.8369	1093.1946	1109.7314	1133.1342	1137.0199	1179.5728	1195.3463	1224.6359	1242.4646	1271.1203	1283.4058	1298.8914	1348.846	1414.2322	1433.2324	1475.7074	1483.4376	1495.08	1516.1512	3019.9563	3024.9541	3050.0435	3075.5417	3093.5949	3097.8326	3137.1959	3182.5782	3790.4483	3791.1353
CC12C3C(O)C1CC23O	C[C@@]12[C@H]3[C@@H](O)[C@@H]1C[C@@]23O	
InChI=1S/C7H10O2/c1-6-3-2-7(6,9)5(6)4(3)8/h3-5,8-9H,2H2,1H3	InChI=1S/C7H10O2/c1-6-3-2-7(6,9)5(6)4(3)8/h3-5,8-9H,2H2,1H3/t3-,4-,5+,6-,7-/m0/s1
