21
gdb 71711	2.24599	2.03344	1.72392	0.2217	85.25	-0.2289	0.0884	0.3173	962.6438	0.182733	-349.897289	-349.889491	-349.888547	-349.928796	32.318	
C	-0.0188955796	 1.4883218931	 0.0057651467	-0.510683
C	-0.0028227892	-0.0175007012	-0.0549174642	 0.297108
C	 0.562401079	-0.8213590374	-1.2561880725	-0.297033
C	-0.3134578459	-1.975915936	-0.7165063073	-0.108459
C	 0.14114578	-2.2501129297	 0.7343117978	-0.06803
C	 0.3733111121	-0.8192011795	 1.217373848	-0.104798
C	-0.9868277666	-1.464161109	 1.3652740726	-0.177028
C	-1.307971391	-0.9305223638	-0.067827953	 0.337248
C	-2.6404684414	-0.5322736304	-0.6270019414	-0.535598
H	 0.9982101936	 1.89055965	 0.0904006556	 0.115253
H	-0.4721473217	 1.9231080077	-0.8918146989	 0.11187
H	-0.5852146099	 1.8431017543	 0.8748530634	 0.115384
H	 0.1876671807	-0.4361796022	-2.2111351791	 0.089858
H	 1.6451448263	-0.9722708039	-1.3202890418	 0.086113
H	-0.6418540404	-2.8117621512	-1.3344942516	 0.057286
H	 0.6846385051	-3.0978912114	 1.1306251922	 0.080156
H	 1.094257763	-0.5645818059	 1.9843751869	 0.075852
H	-1.5919074121	-1.6612418607	 2.2410790311	 0.080044
H	-3.0803723011	 0.2973189217	-0.0605800501	 0.118582
H	-2.5542618418	-0.2125997279	-1.6721560537	 0.117756
H	-3.349788139	-1.3677750065	-0.5942771706	 0.11912
177.1131	209.4315	213.3328	229.8068	287.4304	328.4098	428.3729	553.1154	577.9508	611.2858	735.4497	744.9249	788.7971	795.5397	832.224	848.1225	858.0209	895.575	915.0266	935.6738	958.9202	998.2606	1006.3251	1019.4534	1037.2493	1074.5237	1106.6292	1138.848	1152.3606	1160.1281	1191.5261	1201.4051	1222.5063	1243.5293	1275.5395	1317.3769	1344.7953	1357.908	1409.4238	1414.1122	1483.1989	1487.7465	1488.2103	1493.8788	1495.6068	3015.1394	3017.9957	3034.0282	3077.0718	3078.8443	3081.5791	3086.8844	3089.8918	3111.7877	3182.028	3187.1395	3202.893
CC12CC3C4C1C4C23C	C[C@@]12C[C@H]3[C@H]4[C@@H]1[C@H]4[C@@]23C	
InChI=1S/C9H12/c1-8-3-4-5-6(8)7(5)9(4,8)2/h4-7H,3H2,1-2H3	InChI=1S/C9H12/c1-8-3-4-5-6(8)7(5)9(4,8)2/h4-7H,3H2,1-2H3/t4-,5-,6+,7-,8+,9-/m0/s1
