18
gdb 13823	4.2561	1.43826	1.10932	3.0101	75.74	-0.2382	-0.0437	0.1945	1077.5634	0.153739	-347.847185	-347.839074	-347.83813	-347.880168	29.513	
C	-0.0098186693	 1.4987620834	 0.0202300618	-0.488294
C	 0.1197927101	-0.0145531344	 0.0226272253	 0.286714
O	 0.332742122	-0.6279481794	 1.0506139447	-0.31081
C	-0.0227125395	-0.7103505763	-1.284975244	 0.238686
C	 0.0113929692	-2.0444709358	-1.4082953664	-0.121575
C	-0.2062551636	-2.5001832215	-2.8236898426	-0.256322
C	-0.0598227921	-1.1914093291	-3.6429829124	-0.210958
C	-0.2786881478	-0.0415665758	-2.6249881371	-0.325984
H	 0.7790939801	 1.9490800931	-0.5935117284	 0.137834
H	-0.9653351649	 1.8068920182	-0.4192898235	 0.13504
H	 0.0656594095	 1.8726512682	 1.0416479224	 0.138646
H	 0.1448344588	-2.7163562458	-0.5684029748	 0.121369
H	 0.4991677147	-3.2792677169	-3.1337480456	 0.112626
H	-1.2080276811	-2.9429272369	-2.9262658871	 0.116329
H	 0.9557876777	-1.1298520762	-4.0460725182	 0.110278
H	-0.7464784469	-1.1416566914	-4.4912545836	 0.102018
H	-1.3045122495	 0.3504727049	-2.6715007439	 0.108833
H	 0.3817934125	 0.8105278618	-2.8174467067	 0.10557
58.9144	122.1994	152.2511	193.2149	201.1462	369.4156	403.2107	465.3104	594.6632	613.0326	652.0821	813.4454	838.3722	873.8079	913.4677	916.0309	943.0822	985.2248	1029.2363	1042.0359	1066.9089	1076.1578	1153.7691	1212.1727	1231.4153	1267.8615	1279.5832	1323.3933	1329.4984	1358.4374	1381.548	1461.3008	1475.0344	1476.3772	1487.0182	1505.2478	1666.4867	1773.5377	3002.9044	3007.7037	3032.6704	3048.0951	3058.1436	3067.2127	3091.5947	3105.4773	3152.8381	3211.0905
CC(=O)C1=CCCC1	CC(=O)C1=CCCC1	
InChI=1S/C7H10O/c1-6(8)7-4-2-3-5-7/h4H,2-3,5H2,1H3	InChI=1S/C7H10O/c1-6(8)7-4-2-3-5-7/h4H,2-3,5H2,1H3
