14
gdb 18541	4.14695	2.05202	1.60188	1.7304	62.09	-0.245	-0.0388	0.2061	777.965	0.108989	-378.720679	-378.714467	-378.713522	-378.751316	23.322	
O	-0.0338175679	-0.0191905829	-0.4500655868	-0.271402
C	-0.0393652	 1.1285030525	-0.1277174382	 0.387011
C	-1.1379783045	 2.1449227922	 0.265115858	-0.308583
N	-0.0473481393	 3.1278185235	 0.5840970374	-0.111705
C	 0.253171751	 3.278349142	 1.9549355849	 0.035964
N	 1.3429082266	 2.7999071934	 2.4039475652	-0.213558
C	 2.0216260094	 2.1091222328	 1.2951142812	-0.193154
C	 1.0377838878	 2.2060947634	 0.100127743	-0.125667
H	-1.7696150522	 2.4600946689	-0.5709035297	 0.145482
H	-1.7709393216	 1.8596913985	 1.1120128155	 0.142381
H	-0.4561103243	 3.8161928002	 2.5785642043	 0.13179
H	 2.966741888	 2.6124093874	 1.0674838409	 0.128086
H	 2.2605662451	 1.0798354917	 1.5814603809	 0.134262
H	 1.5114235518	 2.5347882864	-0.8289371765	 0.119093
84.8984	197.6627	260.6022	407.5891	505.8348	543.4578	630.5222	728.9748	758.5343	802.9931	884.9882	931.041	948.0894	972.0983	999.4539	1030.4876	1054.9517	1078.6345	1108.9116	1180.1248	1202.0668	1241.0972	1253.7758	1286.7205	1311.3161	1342.1575	1465.5241	1493.8834	1685.0802	1910.5392	3046.5211	3048.6289	3073.2341	3087.4215	3102.3391	3180.586
O=C1CN2C=NCC12	O=C1CN2C=NC[C@@H]12	
InChI=1S/C5H6N2O/c8-5-2-7-3-6-1-4(5)7/h3-4H,1-2H2	InChI=1S/C5H6N2O/c8-5-2-7-3-6-1-4(5)7/h3-4H,1-2H2/t4-/m0/s1
