17
gdb 40042	3.58819	1.48608	1.25605	0.6761	71.96	-0.2422	0.0136	0.2558	1002.0045	0.138416	-417.978262	-417.971289	-417.970345	-418.00998	27.415	
C	-0.3156013405	 1.3940488478	 0.0354450899	-0.298261
N	 1.0845752003	 0.9250551145	-0.039890473	-0.368463
C	 0.0020946358	-0.047516197	 0.0354140246	 0.356861
C	-0.119421815	-1.0995822986	 1.1539803269	-0.322556
C	-0.531841913	-2.1458785504	 0.0912333618	 0.080831
O	-1.9407003606	-2.4683461933	 0.0806300147	-0.228572
C	-2.48295636	-1.6918191879	-0.8923351383	 0.11593
N	-1.7505945524	-0.9151200736	-1.5792276117	-0.258074
C	-0.3943144579	-1.0773012268	-1.0413432263	-0.118588
H	-0.5776333236	 1.8910247042	 0.9658780056	 0.119181
H	-0.7849976505	 1.8052293468	-0.8538423936	 0.129907
H	 1.4261913476	 0.9986438909	-0.9959072164	 0.232858
H	 0.8311186207	-1.3194915827	 1.6464449514	 0.1206
H	-0.883540238	-0.9109613099	 1.911940556	 0.116683
H	 0.030903714	-3.0784703612	 0.054038581	 0.09668
H	-3.5540567588	-1.8130709568	-1.0111742556	 0.143676
H	 0.333464432	-1.237810526	-1.8418159768	 0.08131
62.4956	198.3148	276.9012	318.6702	351.7159	458.9809	506.3603	596.6472	737.0658	783.5888	825.7756	851.5713	877.3	896.4435	924.0428	937.9083	966.8607	976.7695	1000.0147	1024.4882	1046.8517	1082.9704	1110.8868	1126.1306	1148.8618	1201.5795	1241.7416	1260.548	1262.1009	1285.8149	1292.2609	1321.2783	1356.8027	1409.259	1463.2453	1513.0721	1683.6422	3064.4525	3067.5591	3108.9269	3111.9671	3124.4514	3197.1478	3216.0246	3488.0251
C1NC11CC2OC=NC12	C1N[C@]21C[C@H]1OC=N[C@@H]21	
InChI=1S/C6H8N2O/c1-4-5(7-3-9-4)6(1)2-8-6/h3-5,8H,1-2H2	InChI=1S/C6H8N2O/c1-4-5(7-3-9-4)6(1)2-8-6/h3-5,8H,1-2H2/t4-,5-,6+/m1/s1
