21
gdb 110884	2.30375	1.59669	1.30164	2.7218	77.77	-0.2385	0.0684	0.307	1095.973	0.18388	-424.212891	-424.204358	-424.203414	-424.245946	33.176	
C	 0.0839643511	 0.7856878035	 0.6411327008	-0.246324
O	-0.4616065172	-0.3128291615	-0.0743125597	-0.251042
C	 0.3387267986	-0.6942924784	-1.1605916251	 0.120545
C	 1.4736484529	-1.6822507734	-1.0329592976	-0.104636
C	 1.5550649214	-2.573960667	 0.2024287462	-0.246703
C	 0.165125995	-3.2521420112	 0.3797954598	 0.115953
O	-0.6202552791	-2.6664288359	 1.398937787	-0.445496
C	-0.4984715708	-3.1734859955	-1.0229833366	-0.245054
C	 0.1911875163	-2.0477698189	-1.7834915983	-0.112351
H	 1.0778563914	 0.5518499358	 1.0436483292	 0.123707
H	 0.1648197319	 1.6708240262	-0.0053568024	 0.117146
H	-0.5994201937	 1.0065030479	 1.4637738934	 0.135076
H	 0.5050242073	 0.1302565445	-1.8553626939	 0.088418
H	 2.3944189556	-1.4591124054	-1.5625101969	 0.0811
H	 2.3278036026	-3.3315482527	 0.0285679757	 0.099393
H	 1.8244153214	-2.0445086557	 1.1216656288	 0.104838
H	 0.2881933165	-4.2937944335	 0.6900157182	 0.080924
H	-0.8102471796	-1.7644865273	 1.1014129756	 0.288315
H	-0.3382695965	-4.1068946539	-1.5745717541	 0.099402
H	-1.5793293125	-3.0412304225	-0.9161920996	 0.111837
H	 0.1623429975	-2.0826798953	-2.8676932103	 0.084952
100.9738	125.8374	161.2762	179.1233	246.5674	322.8399	405.0177	421.1137	507.4753	555.5419	598.8625	705.3548	729.5123	757.4885	791.8334	806.1471	878.8116	906.2094	962.8056	1001.2032	1013.4743	1058.1238	1064.8651	1096.0783	1098.154	1114.7679	1120.1093	1184.1341	1189.7371	1206.9171	1224.8953	1240.7919	1257.8783	1308.9569	1320.1722	1344.9566	1354.7863	1372.3857	1432.7328	1473.5218	1478.1516	1484.6713	1494.1074	1495.9902	1509.7838	2999.7054	3037.4234	3038.303	3059.0182	3068.955	3085.2901	3088.9744	3089.5157	3127.4428	3151.8119	3162.3146	3701.1652
COC1C2CC(O)CC12	CO[C@H]1[C@H]2C[C@@H](O)C[C@@H]12	
InChI=1S/C7H12O2/c1-9-7-5-2-4(8)3-6(5)7/h4-8H,2-3H2,1H3	InChI=1S/C7H12O2/c1-9-7-5-2-4(8)3-6(5)7/h4-8H,2-3H2,1H3/t4-,5+,6-,7+
