22
gdb 14984	4.14545	1.31384	1.07234	0.2479	84.26	-0.2342	0.03	0.2642	1185.2534	0.202208	-313.097851	-313.089559	-313.088615	-313.130517	32.055	
C	-0.1547515782	 1.5749511869	-0.0373315042	-0.391835
C	 0.0106791623	 0.0524841752	-0.0042500178	-0.177451
C	 0.7840415733	-0.4861649385	 1.2181979207	 0.002157
C	 0.6351122333	-2.0132879284	 1.3366040071	-0.206556
C	 1.5939944432	-2.5994711438	 2.3788731547	-0.213921
C	 3.0541285382	-2.3269666375	 1.9911119214	-0.235184
C	 3.2474407571	-0.9128467145	 1.5091443422	-0.06772
C	 2.2443399895	-0.0953277826	 1.1883261655	-0.038693
H	 0.8076190707	 2.0936369932	-0.0903611861	 0.119196
H	-0.7401172652	 1.8858803956	-0.9084188777	 0.111627
H	-0.6749046588	 1.934550798	 0.857721781	 0.113185
H	-0.9839187232	-0.4120758321	-0.0103832949	 0.090491
H	 0.5124661523	-0.2871478755	-0.9198826237	 0.095267
H	 0.3260338719	-0.0283918934	 2.1113494567	 0.073575
H	-0.403350246	-2.2649050381	 1.5814012905	 0.087161
H	 0.8445556309	-2.4669752341	 0.357652795	 0.092876
H	 1.388158367	-2.1404313771	 3.3545905465	 0.096881
H	 1.42573249	-3.6755212649	 2.4960971984	 0.088503
H	 3.7182549102	-2.5232303118	 2.8426221999	 0.09864
H	 3.3747601685	-3.0282243522	 1.2056613245	 0.10438
H	 4.2727504728	-0.5571258236	 1.4304369202	 0.079122
H	 2.4733262503	 0.9201622092	 0.8733435201	 0.078298
79.2316	110.8493	205.6623	230.4955	282.2616	306.5691	366.0234	461.814	470.5307	540.1786	674.8794	731.8283	762.7838	815.9202	865.2266	898.4082	921.3372	935.0248	993.7554	1005.5191	1021.9484	1047.7243	1073.8909	1085.3799	1128.5143	1130.5201	1166.5272	1220.2159	1253.4182	1276.3027	1279.771	1313.2711	1349.3833	1364.7081	1373.7223	1378.1755	1384.4066	1412.7928	1426.4263	1474.9044	1482.6093	1490.8441	1497.218	1502.0151	1506.9498	1719.9105	2956.137	2993.2112	3009.0199	3015.9358	3019.9274	3032.3934	3037.9107	3048.0439	3059.7148	3068.8344	3097.9544	3103.4753	3135.9397	3160.8046
CCC1CCCC=C1	CC[C@H]1CCCC=C1	
InChI=1S/C8H14/c1-2-8-6-4-3-5-7-8/h4,6,8H,2-3,5,7H2,1H3	InChI=1S/C8H14/c1-2-8-6-4-3-5-7-8/h4,6,8H,2-3,5,7H2,1H3/t8-/m1/s1
