19
gdb 57316	3.06544	1.0101	0.9135	4.7526	74.33	-0.2434	-0.0319	0.2115	1347.5571	0.156851	-456.39234	-456.381791	-456.380846	-456.428589	37.294	
C	-0.7693876091	 1.2952030723	-0.2250154021	-0.421073
C	-0.2217198462	-0.1191412024	 0.033541543	 0.11005
C	 1.0828875371	-0.05753436	 0.8542653306	-0.386723
N	-1.2128103428	-0.8504281949	 0.8200313326	-0.513121
C	 0.0781649242	-0.8758494014	-1.2955839634	 0.398325
O	-0.3047755304	-2.0008559365	-1.4932711641	-0.316511
N	 0.8537236067	-0.1629775976	-2.2227248047	-0.34397
C	 1.3201950873	-0.5932464049	-3.4641983881	 0.165789
O	 1.1362135951	-1.6644765594	-3.9689716149	-0.249169
H	-0.0234168124	 1.9694684587	-0.6574210224	 0.107222
H	-1.6343189501	 1.2727373702	-0.8965013287	 0.127742
H	-1.0884992574	 1.725035739	 0.7280212164	 0.144546
H	 0.8863678595	 0.4507037161	 1.801539051	 0.13582
H	 1.4438770867	-1.0664409456	 1.0771380253	 0.132129
H	 1.8799327148	 0.475996511	 0.3269809661	 0.102956
H	-2.1111754649	-0.8079888206	 0.3436008068	 0.227528
H	-0.96621742	-1.8379017286	 0.8004603135	 0.240131
H	 1.1154562379	 0.7777383654	-1.9701604029	 0.253925
H	 1.9078844943	 0.2157558592	-3.946158264	 0.084403
34.504	56.1985	161.0693	185.3631	186.5589	229.8124	239.2559	250.7278	284.8346	332.1932	366.3603	416.2189	469.4642	553.6506	621.6152	654.7918	766.7645	851.0616	917.9564	938.2428	946.4152	1011.8159	1026.9563	1039.6854	1055.6013	1077.6405	1159.7858	1232.4863	1266.8131	1347.4304	1398.0806	1420.319	1446.4263	1474.4728	1485.4649	1493.1572	1495.796	1515.4762	1675.907	1803.2048	1871.1218	2914.7141	3034.9012	3039.3704	3101.2398	3108.0538	3120.099	3125.65	3476.6474	3543.5407	3624.8107
CC(C)(N)C(=O)NC=O	CC(C)(N)C(=O)NC=O	
InChI=1S/C5H10N2O2/c1-5(2,6)4(9)7-3-8/h3H,6H2,1-2H3,(H,7,8,9)	InChI=1S/C5H10N2O2/c1-5(2,6)4(9)7-3-8/h3H,6H2,1-2H3,(H,7,8,9)
