19
gdb 51730	3.30909	0.95472	0.81764	1.503	76.73	-0.2498	-0.0242	0.2256	1403.0316	0.157318	-423.002282	-422.993341	-422.992397	-423.037171	32.391	
O	-0.7231538588	 0.8409117762	 0.64903677	-0.237668
C	 0.0190714338	 1.0013861099	-0.2846904238	 0.163953
C	 1.3503173135	 1.7168523784	-0.2245213661	-0.31068
C	 1.3984412775	 2.8988856002	-1.192655967	-0.0693
C	 0.6054627876	 4.202609722	-0.8620921241	-0.238019
C	 1.8151097503	 5.0455960845	-1.3653667978	-0.318609
C	 2.6587401441	 3.7736378077	-1.2604417127	 0.4459
C	 3.9471668639	 3.5837427174	-0.5916859971	-0.263254
O	 3.8118594543	 3.4791896438	-2.0188858524	-0.272126
H	-0.2477839923	 0.6233803969	-1.3004397016	 0.072842
H	 1.5342379715	 2.0329658183	 0.8065607931	 0.118506
H	 2.1274276437	 0.9930811661	-0.5121188966	 0.125497
H	 1.1560041011	 2.5599768766	-2.2078360207	 0.091741
H	-0.3464961223	 4.3448618722	-1.3755070403	 0.111087
H	 0.4451250971	 4.3137174197	 0.2134740071	 0.116126
H	 1.6988426894	 5.358940742	-2.4069068959	 0.119542
H	 2.1209524415	 5.9068414111	-0.7676904817	 0.110503
H	 4.5024697677	 4.4518555087	-0.2383756477	 0.117406
H	 4.1696779163	 2.6501311685	-0.0766969946	 0.116553
47.6738	74.1412	99.2214	144.681	252.6251	275.2404	340.8981	418.9875	459.2764	538.1291	550.8543	722.8195	763.9118	848.9794	851.1717	888.4319	902.4856	917.1537	955.1277	988.9411	1046.7453	1083.5206	1115.4673	1129.9691	1144.3518	1161.1221	1166.7166	1214.0084	1216.8456	1243.5127	1261.5251	1275.6133	1294.5316	1381.9005	1427.0891	1429.1975	1461.9405	1478.2541	1497.5839	1536.5972	1835.9048	2849.6566	3008.5365	3031.5712	3062.7489	3070.6691	3079.989	3096.2023	3114.202	3131.2369	3166.4584
O=CCC1CCC11CO1	O=CC[C@H]1CC[C@]21CO2	
InChI=1S/C7H10O2/c8-4-2-6-1-3-7(6)5-9-7/h4,6H,1-3,5H2	InChI=1S/C7H10O2/c8-4-2-6-1-3-7(6)5-9-7/h4,6H,1-3,5H2/t6-,7-/m1/s1
