20
gdb 97394	3.26145	0.85924	0.79507	3.0633	79.99	-0.2425	0.0167	0.2591	1540.0104	0.168027	-440.255408	-440.245082	-440.244138	-440.291339	36.526	
C	 0.1633444337	 1.0325619792	-0.3542881611	-0.315743
N	-0.1919131624	-0.0977557499	 0.4782785621	-0.203759
C	-1.1074852377	-0.8529596107	 0.0713780582	 0.135558
O	-1.4869372926	-1.9249991649	 0.8129600664	-0.225915
C	-2.5411819079	-2.7059981085	 0.3020541408	 0.014845
C	-2.2427136083	-3.7823756346	-0.7287484713	-0.086769
C	-0.8766448137	-3.926896405	-1.3594310048	-0.406117
C	-2.4548603325	-4.1429389751	 0.7329376397	 0.089417
O	-1.3664995887	-4.5312563217	 1.5094784905	-0.425997
H	 1.2236331961	 0.970054312	-0.623534009	 0.131292
H	-0.4257902748	 1.1096816947	-1.2825674522	 0.098149
H	 0.0339602059	 1.9604381525	 0.2140385396	 0.131315
H	-1.6715671036	-0.7364785948	-0.8650680544	 0.085829
H	-3.499696674	-2.1930188706	 0.2924273358	 0.1053
H	-3.0810767763	-4.0035074073	-1.385067645	 0.089992
H	-0.0843074277	-3.8036129935	-0.6193275326	 0.136709
H	-0.7670694618	-4.9252415401	-1.7943138069	 0.125872
H	-0.7208885975	-3.1944532632	-2.1585465452	 0.1133
H	-3.3735187832	-4.6516742815	 1.0128911503	 0.101167
H	-0.9372259429	-3.7269408769	 1.8279034692	 0.305557
54.5192	81.4115	105.0951	152.6538	182.9792	211.5542	225.0601	262.3425	319.8187	338.5805	392.8419	476.0079	530.3003	644.9024	684.2804	767.5269	778.8785	906.9727	981.6207	984.2863	1012.274	1063.693	1073.5496	1121.3903	1138.0482	1141.0861	1142.5165	1164.8589	1178.1977	1219.8842	1261.2596	1346.3883	1351.7796	1380.6365	1403.8037	1419.7321	1447.2189	1451.8012	1480.753	1492.4887	1502.868	1505.0108	1781.8886	2971.3322	3017.9615	3041.2481	3062.2508	3081.8336	3098.5048	3126.9405	3130.4251	3140.2338	3148.9309	3772.8955
CN=COC1C(C)C1O	CN=CO[C@H]1[C@@H](C)[C@H]1O	
InChI=1S/C6H11NO2/c1-4-5(8)6(4)9-3-7-2/h3-6,8H,1-2H3	InChI=1S/C6H11NO2/c1-4-5(8)6(4)9-3-7-2/h3-6,8H,1-2H3/t4-,5+,6-/m0/s1
