18
gdb 73200	2.49406	1.42157	1.26627	1.8426	72.15	-0.2367	-0.03	0.2067	1076.5907	0.146177	-439.046856	-439.038153	-439.037209	-439.08099	32.253	
O	 0.3643464067	 1.1656166167	 0.1340775192	-0.475001
C	 0.0288341095	-0.179950364	 0.0650974066	 0.390254
C	 0.4464629905	-0.9770826873	-1.2109589828	-0.300093
C	-1.056900546	-1.3080476059	-1.488123556	-0.201507
C	-1.4415636735	-0.6430929103	-0.1464430521	-0.040182
N	-1.3006793576	-1.5839847056	 1.0033508753	-0.341853
C	-0.0078003837	-0.9866641429	 1.410114845	-0.122736
C	 1.1177133773	-1.9569988102	 1.6685153996	 0.138754
O	 2.2430327165	-1.606395554	 1.9284654101	-0.262055
H	 1.3249293319	 1.2335584233	 0.1959899343	 0.289425
H	 0.8999676865	-0.3254190911	-1.9609477905	 0.110351
H	 1.1060447547	-1.8317712591	-1.0469869527	 0.109754
H	-1.4501504807	-0.7800748254	-2.360340412	 0.1049
H	-1.3161105025	-2.3655960881	-1.5555189681	 0.10983
H	-2.2909108922	 0.0412484082	-0.1073872199	 0.078378
H	-2.033456057	-1.5003721377	 1.6973148483	 0.226952
H	-0.0618724264	-0.2676225538	 2.2376360581	 0.101743
H	 0.8409704059	-3.030028493	 1.5587982976	 0.083088
44.2361	70.7467	160.5785	197.6912	250.6916	330.3736	388.5249	412.0946	452.9534	494.4255	627.3159	639.5964	728.7638	738.5227	869.3159	880.003	900.0176	946.1998	951.8291	1007.8833	1039.0145	1058.2669	1082.5279	1109.4382	1154.0277	1162.3319	1180.665	1219.3544	1239.4546	1261.1953	1265.8116	1301.2838	1346.0041	1369.9566	1392.8901	1404.7252	1461.0302	1481.9239	1814.1989	2881.0672	3026.3127	3066.2828	3071.3435	3095.9374	3118.9046	3136.6963	3548.2935	3783.5601
OC12CCC1NC2C=O	O[C@]12CC[C@H]1N[C@H]2C=O	
InChI=1S/C6H9NO2/c8-3-5-6(9)2-1-4(6)7-5/h3-5,7,9H,1-2H2	InChI=1S/C6H9NO2/c8-3-5-6(9)2-1-4(6)7-5/h3-5,7,9H,1-2H2/t4-,5+,6-/m1/s1
