25
gdb 101606	3.00139	0.80584	0.75913	2.3416	85.22	-0.2542	0.0562	0.3104	1661.2006	0.226049	-426.6326	-426.621197	-426.620253	-426.669045	42.973	
C	 0.3821479385	 1.4183514419	 0.263829399	-0.407099
C	-0.0536261233	-0.0545492189	 0.1551167538	 0.270293
C	 0.305488353	-0.7936831493	 1.4585164377	-0.413722
C	-1.5818881886	-0.1083905263	-0.0374909873	-0.402978
C	 0.5933877526	-0.731919171	-1.0825423945	-0.225145
C	 2.1149090169	-0.6871506637	-1.2358246511	 0.076419
O	 2.8203816331	-1.4250168371	-0.2247460567	-0.43342
C	 2.5720788296	-1.2017886478	-2.6068670801	-0.055879
O	 3.979250804	-1.2260631979	-2.6919033933	-0.426709
H	 1.4484557	 1.5137205497	 0.4898346743	 0.121496
H	 0.1822558725	 1.9646422501	-0.6652394749	 0.106332
H	-0.1673011523	 1.9208789608	 1.0670834949	 0.110356
H	-0.2016048058	-0.3308189723	 2.3124306729	 0.105707
H	-0.0165711296	-1.8413938787	 1.4171854367	 0.0954
H	 1.3808232345	-0.7773738075	 1.6455376973	 0.134613
H	-1.8920261579	 0.4405167867	-0.9336700767	 0.107578
H	-1.9327889081	-1.1415311734	-0.1399498073	 0.106605
H	-2.0983249641	 0.3344223706	 0.8209925177	 0.1095
H	 0.2725593731	-1.7847765829	-1.1164436321	 0.082248
H	 0.1692597847	-0.2668654629	-1.9833263771	 0.098975
H	 2.4854147281	 0.3372751089	-1.1249215823	 0.100317
H	 2.4082598259	-2.2947369765	-0.1578184768	 0.281515
H	 2.1389776312	-2.2055577066	-2.7775467711	 0.068735
H	 2.2019698565	-0.547170436	-3.403684565	 0.1053
H	 4.2765009157	-1.5352328797	-1.825499298	 0.283562
35.3421	90.2468	135.2768	167.0943	231.9171	259.3014	273.068	280.1216	297.7971	309.0792	344.96	361.7552	389.2435	415.2289	464.1613	484.1956	526.962	597.433	747.9011	848.6745	877.738	918.026	935.7621	940.8991	961.8332	1004.212	1031.3926	1068.2619	1079.9855	1098.3361	1113.1121	1161.7587	1213.2484	1228.4261	1268.0202	1281.5862	1296.6214	1343.6896	1377.5022	1389.2418	1399.0359	1403.53	1421.9019	1433.9397	1446.2413	1468.3735	1481.1593	1486.5814	1491.2792	1506.3368	1507.9185	1511.5136	1521.6012	2926.6384	2988.8868	3020.0111	3023.8856	3030.4469	3033.3491	3060.6832	3074.8714	3082.2499	3089.5273	3090.9758	3096.2699	3103.4576	3131.0405	3755.0181	3787.8689
CC(C)(C)CC(O)CO	CC(C)(C)C[C@@H](O)CO	
InChI=1S/C7H16O2/c1-7(2,3)4-6(9)5-8/h6,8-9H,4-5H2,1-3H3	InChI=1S/C7H16O2/c1-7(2,3)4-6(9)5-8/h6,8-9H,4-5H2,1-3H3/t6-/m1/s1
