19
gdb 126656	6.38891	0.7044	0.64401	1.4297	78.83	-0.2018	0.0228	0.2245	1737.5984	0.161391	-415.417918	-415.408811	-415.407867	-415.452885	32.582	
C	-0.0092759363	 1.5195426771	-0.042059629	-0.379689
C	-0.0528685488	-0.0004356316	 0.1300910329	-0.191337
C	-1.4528185233	-0.5731974783	-0.0847454517	-0.106022
N	-1.4533762898	-2.0165841529	 0.0957355281	-0.390617
C	-2.6333355983	-2.7130698301	 0.0473838462	 0.450166
N	-3.8272826386	-2.1439534966	 0.184755586	-0.314975
N	-4.6526768742	-3.2336787046	 0.1262889277	-0.187324
C	-3.9367283088	-4.3543011452	-0.0506723335	 0.023418
N	-2.6492930963	-4.0752559873	-0.108043937	-0.34036
H	 1.0025396741	 1.9056585953	 0.1120437848	 0.115203
H	-0.3296988208	 1.8159167001	-1.0468137615	 0.117537
H	-0.6693041246	 2.0180285204	 0.6760839605	 0.119638
H	 0.6419627469	-0.4695529336	-0.580559048	 0.092678
H	 0.2941387913	-0.2796184708	 1.1317671414	 0.109632
H	-2.1515256886	-0.1449721354	 0.6416104892	 0.128272
H	-1.8294747599	-0.2858720802	-1.0808874814	 0.093503
H	-0.6904008895	-2.5162463744	-0.3370804389	 0.242275
H	-5.6473991519	-3.1103669052	 0.2038919483	 0.276696
H	-4.3808765125	-5.3353763467	-0.1312862142	 0.141306
51.0186	67.7269	99.6423	153.4092	229.1628	279.0099	334.701	341.4723	452.9549	472.233	570.3714	659.869	756.8482	777.5211	801.8956	853.3616	893.9642	914.7441	991.3861	1001.0725	1049.4489	1090.1185	1110.6466	1149.4951	1167.5911	1195.1033	1256.4544	1284.4652	1310.9654	1321.6532	1348.4643	1409.0706	1413.179	1458.8801	1480.2789	1491.3966	1498.4118	1505.8586	1525.0384	1565.318	1615.6093	2962.5827	3012.4127	3033.1983	3056.4245	3073.7869	3100.4855	3107.8384	3254.6062	3609.3432	3681.96
CCCNC1=NNC=N1	CCCNc1n[nH]cn1	
InChI=1S/C5H10N4/c1-2-3-6-5-7-4-8-9-5/h4H,2-3H2,1H3,(H2,6,7,8,9)	InChI=1S/C5H10N4/c1-2-3-6-5-7-4-8-9-5/h4H,2-3H2,1H3,(H2,6,7,8,9)
