23
gdb 106975	3.81355	1.04622	0.93478	0.2257	91.83	-0.2152	0.0317	0.2469	1385.1842	0.205803	-351.171495	-351.162209	-351.161265	-351.205179	36.105	
C	 0.0541915043	 1.4819372626	 0.3439996308	-0.373995
C	-0.0268154101	 0.0193985719	-0.1130029484	-0.277827
C	-1.4407914004	-0.5199412832	-0.1488435602	 0.382411
C	-2.0518689205	-1.0697655187	 1.1168387804	-0.322993
C	-1.7498704672	-2.0052774141	-0.0416211303	-0.199373
C	-2.9015444785	-2.2643677747	-0.9620222169	 0.346845
C	-3.5058344534	-3.6252529523	-1.1109982446	-0.49596
C	-3.2887642959	-1.1305044806	-1.5575697635	-0.191189
C	-2.4223874257	 0.0512756501	-1.1831695592	-0.330527
H	 1.0906546906	 1.833168813	 0.3644519402	 0.107995
H	-0.5059883085	 2.1403288997	-0.3283929856	 0.117616
H	-0.3636382522	 1.6022461634	 1.3490803734	 0.116312
H	 0.4225515883	-0.0758532656	-1.1109376244	 0.093294
H	 0.5795473109	-0.6041762109	 0.5558537669	 0.090591
H	-1.4037867124	-1.1259025818	 1.9867862636	 0.102308
H	-3.0946631043	-0.8660675498	 1.3406458048	 0.105038
H	-0.9690410358	-2.7507887248	 0.0779944716	 0.075742
H	-3.8719137376	-4.0055381606	-0.1488773749	 0.125789
H	-4.3402966104	-3.6206611534	-1.8175769655	 0.120877
H	-2.7633412678	-4.3503256298	-1.4685095705	 0.122905
H	-4.139804678	-1.0412484545	-2.2247022523	 0.080965
H	-3.0095692335	 0.8888549312	-0.7842361212	 0.10472
H	-1.8836805019	 0.4467637329	-2.057346404	 0.098456
81.3202	119.8778	182.3717	205.5276	223.4639	272.3675	289.057	366.6419	382.4965	396.5907	561.5879	605.2278	633.5576	745.7835	785.6361	805.6481	824.3907	871.7799	916.2981	949.1002	954.9693	988.2523	1006.399	1012.6673	1030.2734	1061.4261	1067.9737	1075.8181	1095.5604	1117.9897	1174.3601	1186.2226	1242.8703	1249.8912	1289.6943	1333.9087	1348.5111	1369.5954	1403.2683	1410.536	1413.672	1473.486	1478.5805	1479.2256	1490.1635	1493.5013	1497.9515	1507.8986	1708.5117	2993.3963	3011.0052	3016.1043	3030.9139	3033.4367	3046.5196	3061.4136	3101.2663	3103.0239	3109.3499	3113.2126	3149.4093	3184.6414	3201.2761
CCC12CC1C(C)=CC2	CC[C@]12C[C@H]1C(=CC2)C	
InChI=1S/C9H14/c1-3-9-5-4-7(2)8(9)6-9/h4,8H,3,5-6H2,1-2H3	InChI=1S/C9H14/c1-3-9-5-4-7(2)8(9)6-9/h4,8H,3,5-6H2,1-2H3/t8-,9-/m0/s1
