19
gdb 102393	1.88202	1.46575	1.10158	2.4902	73.53	-0.2519	0.0248	0.2767	1202.4405	0.155722	-460.099735	-460.089182	-460.088238	-460.135306	38.082	
C	 0.0948506885	 1.3685620913	-0.0491112567	-0.251607
O	-0.0803032384	-0.021477057	 0.1707942341	-0.2878
C	-1.4002434345	-0.558799005	-0.0160158956	 0.111575
C	-1.145705518	-2.0976159732	-0.1400084759	-0.096533
O	-2.2316008833	-2.8836655726	 0.2859733834	-0.418666
C	-2.2502767087	-0.2665429971	 1.2381964937	-0.104316
O	-1.6898237477	-0.9023792598	 2.3757059994	-0.433545
C	-2.072490905	-0.0328839975	-1.2041792911	 0.315013
C	-2.6552925921	 0.3910338617	-2.1666408516	-0.461776
H	 1.148340376	 1.5754613241	 0.1527289426	 0.130848
H	-0.1380245429	 1.6460245173	-1.0831659364	 0.130563
H	-0.519393842	 1.9823352174	 0.6236925225	 0.111395
H	-0.9524171989	-2.3448655637	-1.1860410886	 0.122817
H	-0.2335425045	-2.3039130104	 0.4332334182	 0.100936
H	-2.2552239395	-2.8040832531	 1.2478531964	 0.296992
H	-2.3416428151	 0.8186219156	 1.3824942229	 0.10403
H	-3.2518436354	-0.6766025242	 1.0992268523	 0.135726
H	-0.7578676694	-0.6502226147	 2.3932854248	 0.292044
H	-3.1692878389	 0.7537702312	-3.0227999544	 0.202304
67.7662	91.5339	124.2546	139.3496	165.5843	192.6584	250.5961	275.8356	330.4786	417.1498	421.2187	465.1745	502.8866	537.8631	587.8121	623.7546	630.6519	674.7722	750.6267	846.5524	932.5968	1032.3098	1067.9956	1092.6331	1114.8714	1132.0164	1144.4662	1184.2271	1217.7933	1236.8563	1263.3745	1359.3019	1393.0603	1422.2162	1428.343	1475.2824	1484.3784	1493.7748	1503.0435	1512.8402	2227.63	3004.5724	3019.2734	3027.6294	3074.3256	3111.1423	3122.7213	3123.0487	3498.0645	3777.3906	3780.1572
COC(CO)(CO)C#C	COC(CO)(CO)C#C	
InChI=1S/C6H10O3/c1-3-6(4-7,5-8)9-2/h1,7-8H,4-5H2,2H3	InChI=1S/C6H10O3/c1-3-6(4-7,5-8)9-2/h1,7-8H,4-5H2,2H3
