18
gdb 70208	3.55553	1.34661	1.1528	3.7481	71.98	-0.2368	0.0063	0.2431	1089.5659	0.148199	-439.099684	-439.091667	-439.090723	-439.132068	30.828	
C	-0.2388184144	 1.5581355741	 0.1151359005	-0.460763
C	-0.063724568	 0.0577875875	 0.037783831	 0.293322
C	-0.8306220346	-0.8585028755	 0.9257586689	-0.296617
N	 0.5936019393	-0.5856893782	 1.1772239196	-0.126764
C	 1.5425686028	-1.642414846	 0.8308360897	-0.296046
C	 1.2169521755	-2.4902076761	-0.3977970469	 0.388066
O	 1.5110924226	-3.6470628354	-0.5094891083	-0.320734
O	 0.5266287248	-1.8697361611	-1.3902707834	-0.219035
C	 0.3554455355	-0.4498226001	-1.3286335461	-0.141295
H	 0.6698759959	 2.0785526458	-0.2081147056	 0.122789
H	-1.065452282	 1.8915108409	-0.5218930365	 0.123045
H	-0.4497975074	 1.8582251832	 1.1437585967	 0.137795
H	-1.5098143074	-0.4454184798	 1.6658200685	 0.120816
H	-1.117580853	-1.8333898916	 0.5394785691	 0.136324
H	 2.524394046	-1.1779510179	 0.670494236	 0.139218
H	 1.6516787769	-2.3317904985	 1.6712572404	 0.148715
H	-0.3967496819	-0.2144292306	-2.0864720876	 0.133744
H	 1.2926567194	 0.0407566694	-1.6290431759	 0.117419
91.5061	182.7771	205.5428	224.5272	298.7683	359.093	388.4223	439.4232	496.4239	524.5631	592.5901	690.4683	752.6974	778.9264	810.2133	905.527	922.2627	981.5942	994.2891	1033.3786	1095.1889	1097.4817	1123.011	1133.3141	1184.0996	1201.9584	1254.4838	1287.2986	1301.4564	1338.4974	1383.1677	1415.9856	1431.5234	1464.0325	1487.0981	1493.9731	1509.0551	1521.278	1855.4039	3004.8316	3031.613	3033.2221	3089.071	3094.5475	3109.1859	3111.5175	3129.405	3197.0577
CC12CN1CC(=O)OC2	C[C@]12CN1CC(=O)OC2	
InChI=1S/C6H9NO2/c1-6-3-7(6)2-5(8)9-4-6/h2-4H2,1H3	InChI=1S/C6H9NO2/c1-6-3-7(6)2-5(8)9-4-6/h2-4H2,1H3/t6-,7?/m1/s1
