16
gdb 43335	3.00986	1.8539	1.40322	3.4013	73.83	-0.2427	-0.064	0.1787	917.4162	0.127122	-400.730289	-400.723826	-400.722882	-400.761034	26.224	
O	 0.0289506568	-0.0041491225	 0.0843705809	-0.334818
C	-0.0368040266	 1.2074774205	 0.0121081061	 0.38595
C	-1.3128723395	 1.9375251588	-0.1028050112	-0.177404
C	-1.3207006108	 3.2734518681	-0.0330750198	-0.032994
C	-0.0589574441	 4.0360403057	 0.2259574417	-0.048249
C	 0.5556101855	 3.8150312915	 1.6485410746	-0.266511
C	 1.6695132739	 3.0621433092	 0.9429672003	-0.029777
C	 1.2159859495	 2.0405600946	-0.044848315	-0.136356
N	 1.1948679885	 3.4682763894	-0.4340598428	-0.15718
H	-2.2074516947	 1.3409576642	-0.2439034262	 0.118055
H	-2.250022726	 3.8335338586	-0.0982148301	 0.114952
H	-0.1598824392	 5.0858844343	-0.0480875345	 0.097048
H	 0.9129788127	 4.7515101023	 2.0807577592	 0.122987
H	-0.0438640148	 3.2795636042	 2.3885746556	 0.117245
H	 2.7183925034	 3.1054423679	 1.2193655009	 0.106466
H	 2.0295254852	 1.4984070632	-0.5194350099	 0.120583
116.529	265.2509	312.9283	395.5709	448.5595	494.2784	532.8351	687.6886	697.705	749.4618	765.7807	798.3675	827.8082	872.5461	907.0937	938.507	996.9359	1018.4268	1033.5339	1040.3664	1067.659	1108.1822	1147.2235	1168.3894	1192.6272	1246.5782	1264.2546	1280.3259	1334.9369	1356.2801	1396.4712	1408.2388	1491.6836	1679.0692	1773.0513	3067.7377	3107.2381	3126.6298	3153.0468	3162.2703	3165.883	3202.0476
O=C1C=CC2CC3C1N23	O=C1C=C[C@H]2C[C@H]3[C@@H]1N23	
InChI=1S/C7H7NO/c9-6-2-1-4-3-5-7(6)8(4)5/h1-2,4-5,7H,3H2	InChI=1S/C7H7NO/c9-6-2-1-4-3-5-7(6)8(4)5/h1-2,4-5,7H,3H2/t4-,5-,7-,8?/m0/s1
