21
gdb 117231	2.44463	1.10804	0.91292	1.2148	82.22	-0.2313	0.0165	0.2477	1397.9299	0.181417	-420.384272	-420.37421	-420.373265	-420.419971	36.172	
C	-2.7110248613	 1.8434879315	-3.1580115774	-0.394489
C	-2.0597167721	 1.183635879	-1.9574150677	-0.032963
O	-2.7458010272	-0.0575029413	-1.7178595179	-0.244796
C	-2.3168256598	-0.7938225594	-0.6727694744	 0.408958
N	-1.3621145718	-0.3903820351	 0.0651709375	-0.547276
C	-3.0760251489	-2.070728439	-0.4950759828	-0.087092
C	-4.4125474466	-2.2912340352	-1.1335831811	-0.24956
N	-3.2694079662	-3.0782329807	-1.5483039107	-0.085484
C	-2.7198425788	-2.8778766718	-2.8849298244	-0.322023
H	-2.2229194836	 2.8007914213	-3.3638214484	 0.122828
H	-2.6231638637	 1.2156319162	-4.0495458254	 0.126914
H	-3.7725220655	 2.0318140693	-2.97306834	 0.127233
H	-0.9974619298	 0.9777293916	-2.1237066554	 0.121027
H	-2.1296272304	 1.8038550443	-1.0583280644	 0.123987
H	-1.1671473624	-1.0701156182	 0.7971821105	 0.222315
H	-2.8856218942	-2.5155158204	 0.4793054364	 0.09467
H	-5.187554952	-2.8210709901	-0.5849557646	 0.115791
H	-4.7641300026	-1.5024583317	-1.7947031075	 0.126792
H	-2.8196788874	-1.855210221	-3.2668851386	 0.125234
H	-1.658817055	-3.1470418494	-2.8760607044	 0.124565
H	-3.2354188607	-3.5621255999	-3.5661132891	 0.123369
48.2311	85.9438	105.9704	137.5544	178.2303	234.5462	263.783	280.0729	354.7568	389.8694	406.1412	487.098	611.3349	711.4864	775.396	807.2835	846.3376	860.1334	892.2693	917.7952	1005.3318	1037.7803	1066.3693	1099.9398	1116.4063	1124.813	1134.4212	1145.6626	1173.5065	1182.5039	1212.137	1289.3782	1332.8568	1367.5963	1378.5444	1408.5474	1434.7614	1449.628	1485.5806	1488.6281	1495.9076	1505.4592	1509.6044	1520.8377	1704.0144	3022.3067	3044.4725	3052.0506	3087.7926	3091.0473	3098.8139	3103.2275	3118.9717	3122.9982	3127.3097	3187.435	3512.1984
CCOC(=N)C1CN1C	CCO[C]([NH])[C@H]1CN1C	
InChI=1S/C6H12N2O/c1-3-9-6(7)5-4-8(5)2/h5,7H,3-4H2,1-2H3	InChI=1S/C6H12N2O/c1-3-9-6(7)5-4-8(5)2/h5,7H,3-4H2,1-2H3/t5-,8?/m1/s1
