19
gdb 71070	3.38305	1.62451	1.29709	1.0358	82.05	-0.2244	-0.0145	0.2099	1016.6154	0.160018	-385.814436	-385.807027	-385.806083	-385.845713	30.384	
C	-0.2044635568	 1.4745785432	-0.0999705382	-0.488003
C	 0.0606006498	-0.0058439948	-0.0414810861	 0.279986
C	 0.7818109429	-0.7617365427	-1.2022475477	-0.325951
C	 0.1032012302	-1.993439013	-0.6308147931	 0.165808
C	 0.733382935	-2.9949420146	-0.0091188754	-0.151574
C	 0.4018013666	-3.0734325834	 1.456153462	-0.113111
O	 0.6442674624	-1.7295907819	 1.9718695391	-0.270658
C	-0.141383619	-0.7716372367	 1.3118566765	 0.084813
C	-0.9348285623	-1.1625487812	 0.1207205669	-0.251408
H	 0.7240922383	 2.0460094713	 0.0152016218	 0.125352
H	-0.654887919	 1.7610428782	-1.0576342554	 0.117272
H	-0.8874577545	 1.7890569477	 0.6964160736	 0.119713
H	 0.373077546	-0.398516607	-2.152909686	 0.104357
H	 1.875881963	-0.7628894524	-1.2445776735	 0.100304
H	 1.7004485757	-3.351504591	-0.3537349484	 0.096335
H	-0.6368832073	-3.3574927812	 1.6623296975	 0.109451
H	 1.0690689313	-3.7294365705	 2.0165065076	 0.114394
H	-0.6253192012	-0.1215422559	 2.0395005456	 0.092366
H	-2.0138346111	-1.1967613041	 0.0221356034	 0.090553
185.9547	188.0977	247.224	278.4999	332.3471	394.1773	468.7136	519.1534	543.0504	624.1552	682.0584	748.1131	792.3239	831.5887	877.4663	888.2021	904.4306	921.309	971.6361	999.5359	1005.4433	1032.4263	1061.1279	1074.9433	1102.8783	1130.0787	1154.4676	1199.9298	1217.8396	1248.7343	1255.7159	1314.9996	1319.7443	1356.2215	1409.0845	1412.2061	1482.3777	1491.1787	1492.3907	1497.7484	1678.5117	3018.8093	3023.9225	3033.534	3079.3258	3081.4657	3092.1692	3116.5389	3126.4185	3161.8357	3169.8334
CC12CC3=CCOC1C23	C[C@@]12C[C]3[CH]CO[C@@H]1[C@@H]23	
InChI=1S/C8H10O/c1-8-4-5-2-3-9-7(8)6(5)8/h2,6-7H,3-4H2,1H3	InChI=1S/C8H10O/c1-8-4-5-2-3-9-7(8)6(5)8/h2,6-7H,3-4H2,1H3/t6-,7+,8-/m0/s1
