18
gdb 32449	3.11569	1.23039	0.89193	0.9025	75.79	-0.1717	0.0593	0.231	1280.5053	0.14582	-439.108594	-439.098448	-439.097504	-439.144541	35.525	
C	 0.1117501222	 1.3568364315	-0.1138163474	-0.2415
O	 0.0964961269	-0.0533067256	-0.0563745769	-0.26258
C	 0.6585653904	-0.592344239	 1.058540763	 0.295027
C	 1.2425388951	 0.0332048167	 2.133473937	-0.243857
N	 1.6518896935	-0.9816623981	 2.9977308664	-0.318813
C	 1.3271372571	-2.188513887	 2.4630991025	 0.33644
O	 1.6510967606	-3.3002345912	 3.1743914308	-0.438589
C	 0.7010373811	-2.0121248545	 1.2496666947	-0.004874
C	 0.1699263678	-3.0538991657	 0.3159673312	-0.51228
H	 1.1400503653	 1.7451462871	-0.0979290639	 0.114584
H	-0.3687692218	 1.6429756323	-1.051244957	 0.126954
H	-0.4413151168	 1.7959717597	 0.7286136548	 0.114637
H	 1.4052168776	 1.068320813	 2.3718077588	 0.11434
H	 2.1219864345	-0.8604634099	 3.8761572092	 0.262293
H	 1.38991075	-4.0708900539	 2.660997217	 0.304141
H	 0.2295409695	-4.058710016	 0.7524495465	 0.089782
H	-0.8827512351	-2.8763302622	 0.0688059838	 0.134183
H	 0.7193771022	-3.0826643574	-0.6327796106	 0.130112
23.7943	89.7218	141.8585	188.6142	190.5736	210.4616	245.8622	257.0453	281.4854	364.5489	421.9144	529.2383	570.1041	603.6615	641.2279	700.1561	740.8565	760.4584	941.9169	1056.7233	1061.5637	1082.3815	1152.7188	1182.8072	1185.858	1216.8151	1234.7546	1288.3246	1370.6334	1423.0589	1426.5688	1471.5363	1474.743	1481.5015	1504.5496	1510.7496	1568.8948	1598.9722	1665.2248	2989.4911	3012.8039	3041.0446	3064.8508	3075.5563	3127.208	3293.6954	3701.1625	3840.0889
COC1=CNC(O)=C1C	COc1c[nH]c(O)c1C	
InChI=1S/C6H9NO2/c1-4-5(9-2)3-7-6(4)8/h3,7-8H,1-2H3	InChI=1S/C6H9NO2/c1-4-5(9-2)3-7-6(4)8/h3,7-8H,1-2H3
