14
gdb 30996	3.8521	0.89626	0.72988	3.8334	64.34	-0.2718	-0.0825	0.1893	1472.8974	0.097051	-511.027576	-511.017736	-511.016792	-511.063309	33.224	
N	-1.306993032	 0.0446978326	-0.5247095382	-0.720998
H	-2.1217072296	-0.544347014	-0.376790166	 0.240113
H	-0.8241236713	-0.3377626002	-1.332907777	 0.240111
H	-1.6564830668	 0.9599121251	-0.801363188	 0.268208
C	 0.111038347	 1.9117925559	 1.8047740427	-0.416227
C	-0.2458347234	 3.1711073785	 1.5933411991	 0.2428
C	-1.1152159344	 3.7219350789	 0.532192706	 0.383209
O	-1.6995277501	 3.2101042882	-0.3723166318	-0.305104
O	-1.1570229025	 5.0880256596	 0.772116486	-0.226121
C	-0.3918748208	 5.3886722431	 1.8763955906	 0.508416
O	-0.2377208568	 6.472679573	 2.3211150229	-0.333086
O	 0.1553437564	 4.2447851403	 2.3711955417	-0.240294
H	-0.2545151488	 1.1299899756	 1.1388763106	 0.209349
H	 0.7614960929	 1.6576371034	 2.6330210814	 0.149624
43.9033	104.9727	128.8543	142.4422	149.2822	171.6519	223.022	304.1656	342.2138	409.3425	410.0767	626.2119	656.7468	674.1523	765.645	775.902	810.4624	825.8524	944.4708	986.4166	1018.4315	1037.5408	1115.4493	1262.664	1295.3509	1447.1704	1673.5566	1694.6739	1732.4541	1886.1497	1975.0562	3096.3876	3241.5998	3462.2543	3578.645	3587.3952
[NH3+]CC1=C([O-])OC(=O)O1	N.C=C1C(=O)OC(=O)O1	
InChI=1S/C4H5NO4/c5-1-2-3(6)9-4(7)8-2/h6H,1,5H2	InChI=1S/C4H2O4.H3N/c1-2-3(5)8-4(6)7-2;/h1H2;1H3
