18
gdb 35290	3.34343	0.91277	0.82722	3.7307	76.76	-0.2848	-0.0025	0.2823	1423.5058	0.146923	-401.922544	-401.913745	-401.912801	-401.957235	31.889	
N	-0.0060298489	-1.1078040014	 0.4307835073	-0.327779
C	 0.0673410632	 0.0435258074	 0.3586142208	 0.302632
C	 0.130735249	 1.4855447505	 0.2477978771	-0.109687
O	 0.9800800305	 2.1645209518	 1.1741110159	-0.227824
C	 1.3662559179	 2.1672848877	-0.2011824544	 0.089123
C	 2.6331060564	 1.435235715	-0.5727786786	-0.272434
C	 3.8741647609	 2.2452666643	-0.2514917128	 0.02774
C	 4.4095735169	 2.2761369457	 1.1580003955	-0.247958
C	 5.16932523	 1.5476777443	 0.0773437065	-0.279905
H	-0.8333311924	 1.9583533788	 0.0688987149	 0.139614
H	 1.2150588446	 3.1312470791	-0.6912164601	 0.107981
H	 2.6605208428	 0.4780414532	-0.0415486168	 0.12626
H	 2.5977591732	 1.2040715407	-1.6458643822	 0.114423
H	 3.9623752222	 3.170647696	-0.8158639644	 0.084605
H	 4.8151475569	 3.2083631278	 1.5345436604	 0.113829
H	 3.8901770029	 1.6847229998	 1.9037616396	 0.127383
H	 5.1685026983	 0.462727805	 0.0986721527	 0.117179
H	 6.0931169657	 1.9821597444	-0.2878511915	 0.114817
49.9344	70.2724	100.102	180.3207	229.9756	317.1701	343.8162	384.9705	475.7498	578.7542	610.6164	771.8342	794.5247	810.3706	822.2116	839.2722	911.8646	944.1106	963.9888	1012.6669	1033.4938	1058.2119	1079.5772	1092.2798	1135.4307	1148.7955	1180.6685	1197.1474	1230.7731	1272.2563	1279.5529	1323.0758	1380.9189	1414.7196	1460.9003	1466.352	1474.3998	1508.9703	2359.5969	3024.5837	3078.3857	3098.2789	3131.9264	3132.7277	3133.93	3141.4026	3212.2362	3228.4057
N#CC1OC1CC1CC1	N#C[C@H]1O[C@H]1CC1CC1	
InChI=1S/C7H9NO/c8-4-7-6(9-7)3-5-1-2-5/h5-7H,1-3H2	InChI=1S/C7H9NO/c8-4-7-6(9-7)3-5-1-2-5/h5-7H,1-3H2/t6-,7+/m0/s1
