16
gdb 124394	3.29901	1.16566	0.91521	2.998	75.07	-0.2584	-0.0125	0.2459	1236.5085	0.123417	-400.708122	-400.699721	-400.698777	-400.741846	30.825	
C	-0.4263208231	 1.3386457488	 0.0449977064	-0.382359
C	 0.0539804075	-0.12951754	-0.0645088701	-0.302328
C	 0.8817920911	-0.3164558173	-1.2569491286	 0.329882
C	 1.5642269348	-0.4450330718	-2.2377271114	-0.459563
C	 0.7752162077	-0.5730755622	 1.1849237956	 0.162299
C	 2.0745626068	-0.9338152095	 1.3541294881	-0.003388
O	 2.3201434404	-1.2500101702	 2.6338414406	-0.168908
N	 1.1485666973	-1.1031077523	 3.3676730074	-0.133704
C	 0.2489533648	-0.7049673759	 2.5039038996	-0.050752
H	 0.4281925166	 2.01090329	 0.1544268362	 0.135913
H	-0.9833120874	 1.6243319891	-0.8507391169	 0.130842
H	-1.0772991492	 1.4613540552	 0.9151719933	 0.121584
H	-0.8399879588	-0.75910147	-0.1787219292	 0.123422
H	 2.1576818363	-0.5680332897	-3.1099494414	 0.20216
H	 2.9051675368	-1.0148476959	 0.6716501545	 0.16354
H	-0.7603179317	-0.5243861982	 2.8481411158	 0.13136
42.8278	120.7787	160.6957	201.7226	237.7122	318.7924	388.0232	458.0818	536.9198	622.8367	632.1251	649.4608	666.0244	714.3722	855.7398	866.0052	904.224	910.1234	939.3183	990.1285	1040.2102	1077.7484	1112.5271	1149.8389	1194.2506	1277.344	1301.1889	1315.7528	1400.1232	1408.2367	1477.003	1491.7345	1497.5184	1649.61	2239.0629	3002.679	3047.5355	3124.3567	3133.2925	3237.0381	3278.6158	3502.2402
CC(C#C)C1=CON=C1	C[C@@H](C#C)c1conc1	
InChI=1S/C7H7NO/c1-3-6(2)7-4-8-9-5-7/h1,4-6H,2H3	InChI=1S/C7H7NO/c1-3-6(2)7-4-8-9-5-7/h1,4-6H,2H3/t6-/m0/s1
