21
gdb 79705	2.84243	1.70815	1.36876	1.9814	81.81	-0.2131	0.0772	0.2903	1032.5757	0.184296	-383.185536	-383.177583	-383.176639	-383.217462	32.265	
C	-0.1401670769	 1.630213599	-0.0267737364	-0.410047
C	 0.0661578781	 0.1139384965	-0.0139842863	 0.061726
C	 1.0588236697	-0.6953741317	-0.913133076	-0.057649
C	 2.4692005911	-0.2172526485	-0.4891067558	-0.044967
N	 2.5120366706	 1.0565746416	 0.2705065131	-0.334136
C	 2.3018902787	-0.2275753138	 0.9834535721	-0.044969
C	 0.8330912618	-0.709313816	 1.0736270035	-0.05765
N	 0.7812926245	-1.8237155401	 0.0536707691	-0.076396
C	 1.6969093325	-2.9499607598	 0.1497997409	-0.329853
H	 0.4034217003	 2.1117852915	-0.8410849075	 0.124217
H	-1.2054023268	 1.8566313526	-0.1460450717	 0.091439
H	 0.2064514254	 2.0996482294	 0.8951697112	 0.124229
H	-0.8937789907	-0.3895300898	-0.1265933708	 0.093942
H	 0.873482454	-0.8873703898	-1.9713298431	 0.062366
H	 3.3603472753	-0.5661485177	-0.9971576546	 0.092212
H	 3.4896347102	 1.3241033857	 0.3834565738	 0.225217
H	 3.0569041501	-0.5848656926	 1.673586745	 0.092212
H	 0.4153998026	-0.9156603119	 2.0605155055	 0.062366
H	 1.3989027214	-3.5726170619	 1.0005060425	 0.117825
H	 1.5983106141	-3.5603085076	-0.7546137963	 0.117825
H	 2.760589584	-2.6940402752	 0.272444882	 0.09009
126.0379	202.7493	208.702	240.7164	290.7678	301.1715	419.6129	472.1888	547.2926	654.0389	701.6993	720.6593	749.2616	768.1734	833.1805	865.232	898.7624	911.5118	912.2446	923.485	1033.7423	1055.7948	1078.076	1078.2302	1096.2466	1102.2268	1144.7738	1152.2476	1153.61	1205.3321	1207.2664	1221.5639	1237.8088	1264.675	1272.5566	1318.1566	1340.8209	1377.7844	1410.5559	1428.2607	1440.4012	1482.1773	1486.8767	1496.3416	1510.8116	2981.7367	3039.381	3057.6464	3091.7187	3096.7786	3100.9854	3105.9998	3119.9589	3137.2386	3175.5186	3185.8039	3460.0692
CC1C2C3NC3C1N2C	C[C@H]1[C@H]2[C@H]3N[C@H]3[C@@H]1N2C	
InChI=1S/C7H12N2/c1-3-6-4-5(8-4)7(3)9(6)2/h3-8H,1-2H3	InChI=1S/C7H12N2/c1-3-6-4-5(8-4)7(3)9(6)2/h3-8H,1-2H3/t3-,4-,5+,6-,7+
