18
gdb 92062	2.85211	1.58546	1.11408	3.3603	72.69	-0.2309	0.0239	0.2548	1089.79	0.14848	-439.106173	-439.098119	-439.097175	-439.138783	31.122	
C	 0.0377272587	 1.5264481635	-0.0663247869	-0.392251
C	 0.0393132192	 0.010448055	 0.0064484757	-0.004618
O	 0.7314363904	-0.4898430886	-1.1447274723	-0.262045
C	 0.7283552513	-1.8808030206	-1.2124011067	 0.101744
C	 2.0528440981	-2.5803364728	-1.0742938745	-0.322031
C	 1.0447341267	-2.6080800754	 0.0629874314	-0.024367
N	 1.2243410512	-1.7596078548	 1.1972671918	-0.32383
C	 0.7151754018	-0.4939169711	 1.2949605293	 0.409015
O	 0.8053991649	 0.1755899516	 2.3052856056	-0.374401
H	 1.0627414711	 1.9024575908	-0.1176918508	 0.132368
H	-0.5047510173	 1.8581382934	-0.954747247	 0.117357
H	-0.4331987437	 1.937773126	 0.8273823623	 0.143011
H	-0.9966713886	-0.3672138613	 0.0022462578	 0.093503
H	-0.0262953396	-2.3012075153	-1.8757161957	 0.097148
H	 2.2181100451	-3.493234338	-1.6352084934	 0.11936
H	 2.9170287532	-1.9399266733	-0.9437298228	 0.132868
H	 0.527286315	-3.5430444135	 0.2618102225	 0.107378
H	 1.7472811025	-2.0855723356	 1.9977274937	 0.249794
79.4508	137.5704	190.593	275.5957	311.45	366.3958	427.4337	470.2624	491.8781	522.4736	562.9059	691.9293	733.1184	801.4616	826.001	830.6831	881.883	937.426	1020.5608	1042.4992	1056.3713	1070.4624	1116.1186	1123.2731	1147.1135	1169.4055	1186.6305	1241.386	1301.6163	1338.4543	1366.5203	1397.3112	1405.2945	1411.3246	1448.1553	1479.8037	1480.8905	1494.6994	1797.8607	2968.1958	3059.4359	3109.2737	3132.3445	3133.5861	3143.3975	3154.0511	3240.9372	3599.6532
CC1OC2CC2NC1=O	C[C@H]1O[C@H]2C[C@H]2NC1=O	
InChI=1S/C6H9NO2/c1-3-6(8)7-4-2-5(4)9-3/h3-5H,2H2,1H3,(H,7,8)	InChI=1S/C6H9NO2/c1-3-6(8)7-4-2-5(4)9-3/h3-5H,2H2,1H3,(H,7,8)/t3-,4-,5+/m1/s1
