20
gdb 108000	3.41793	1.52902	1.3903	1.5789	81.09	-0.2234	0.0795	0.3029	1022.8191	0.172148	-365.933411	-365.926044	-365.9251	-365.96509	30.049	
C	-0.0286699168	 1.5111637738	-0.0666144379	-0.382827
C	-0.0177434645	-0.0194943512	 0.0340595757	-0.298731
C	-1.4011594946	-0.6035816664	 0.1421060727	 0.3922
C	-2.3644196918	-0.3777554561	 1.3277050817	-0.286121
C	-3.1246729859	-1.5824462717	 0.7291249114	-0.075617
C	-3.4769253041	-1.1674675972	-0.7142128284	-0.046882
C	-2.3456363335	-1.9016372448	-1.3279596208	-0.061005
C	-1.778325253	-2.1227484582	 0.0947711341	-0.144994
N	-2.2423618738	-0.4227480893	-1.1304128868	-0.179446
H	 0.9838048779	 1.903039705	-0.2010891124	 0.108702
H	-0.638238266	 1.8318365269	-0.9158424013	 0.140861
H	-0.4451110583	 1.9657806838	 0.8384763774	 0.113775
H	 0.472425378	-0.4442423002	-0.8513446108	 0.101555
H	 0.5724226747	-0.3396650704	 0.9021699036	 0.092229
H	-1.882030667	-0.6327316964	 2.277278144	 0.098821
H	-2.8809528376	 0.5827212842	 1.4107471034	 0.10176
H	-3.8213880051	-2.200162813	 1.2922025572	 0.072124
H	-4.42446981	-0.8481058049	-1.1301120643	 0.092583
H	-2.2177329948	-2.3846889471	-2.289149215	 0.091724
H	-1.1935551538	-2.9477604667	 0.4939399364	 0.069291
95.4039	166.0045	199.321	304.9039	348.1303	427.5472	552.7831	605.3835	724.1788	754.6665	780.5118	796.709	818.1167	834.5576	857.159	880.3437	902.865	940.8815	949.4107	967.0263	984.6552	1008.5072	1025.1348	1039.504	1075.5986	1085.3201	1118.6863	1151.2067	1181.2343	1187.8559	1210.4191	1212.2021	1248.9229	1280.8474	1296.1178	1320.2847	1334.0903	1383.2629	1404.944	1477.8636	1481.1381	1497.058	1510.447	3019.8398	3038.9472	3044.9444	3053.8802	3103.7041	3105.7764	3121.5199	3135.6222	3146.875	3178.5927	3193.5435
CCC12CC3C4C(C13)N24	CC[C@]12C[C@H]3[C@@H]4[C@H]([C@@H]13)N24	
InChI=1S/C8H11N/c1-2-8-3-4-5(8)7-6(4)9(7)8/h4-7H,2-3H2,1H3	InChI=1S/C8H11N/c1-2-8-3-4-5(8)7-6(4)9(7)8/h4-7H,2-3H2,1H3/t4-,5+,6-,7+,8+,9?/m1/s1
