19
gdb 119804	5.33988	0.78021	0.73238	2.9941	77.32	-0.2373	0.0036	0.2409	1538.1143	0.159043	-423.008317	-422.99965	-422.998706	-423.042442	32.163	
O	-0.1895902271	 1.4765415488	-0.0794319539	-0.416987
C	-0.0118692392	 0.0714960323	-0.1545974278	-0.067636
C	-1.3537128518	-0.5766045638	 0.196521432	-0.290088
C	-1.3276239488	-2.0739437111	 0.147712737	 0.311909
C	-1.5776526593	-2.9117543225	 1.1627534197	-0.208554
C	-1.5793918896	-4.3278816298	 0.6979255275	 0.013001
O	-2.5968412708	-4.5987595586	-0.2991617332	-0.259672
C	-1.2736410976	-4.2981811872	-0.7424038793	 0.0398
C	-1.0576634662	-2.8440510234	-1.1420506222	-0.337489
H	 0.6492780047	 1.8984646885	-0.2863303273	 0.286912
H	 0.3038342546	-0.2358982686	-1.1640972669	 0.08783
H	 0.7590951126	-0.2767642934	 0.5509059096	 0.090876
H	-1.6506420227	-0.2369278735	 1.1939191807	 0.113492
H	-2.1026526081	-0.1884915852	-0.5071273199	 0.117657
H	-1.8055998802	-2.6133241546	 2.179133164	 0.096592
H	-1.3481886406	-5.1619530438	 1.3532157467	 0.09467
H	-0.7607909781	-5.1010406601	-1.2653545342	 0.093575
H	-1.734850121	-2.537287715	-1.9488016022	 0.124672
H	-0.0351359808	-2.686644209	-1.5089055302	 0.10944
57.3437	86.4756	112.1226	216.6259	257.9775	330.0313	340.5787	369.4964	486.643	528.6255	686.5665	722.3641	790.2474	816.9101	851.391	869.1097	874.5288	927.7607	962.0859	998.4006	1019.5982	1025.0882	1069.794	1080.4009	1113.2892	1180.084	1195.5093	1221.1088	1236.8468	1256.8389	1283.5732	1307.8165	1311.0005	1338.0773	1357.2084	1412.5449	1455.9519	1458.3849	1481.9436	1528.2442	1690.8389	2967.7731	2995.0799	3021.616	3026.5682	3060.88	3083.368	3146.2677	3165.5852	3203.7351	3831.5004
OCCC1=CC2OC2C1	OCCC1=C[C@H]2O[C@H]2C1	
InChI=1S/C7H10O2/c8-2-1-5-3-6-7(4-5)9-6/h3,6-8H,1-2,4H2	InChI=1S/C7H10O2/c8-2-1-5-3-6-7(4-5)9-6/h3,6-8H,1-2,4H2/t6-,7+/m1/s1
