16
gdb 46279	3.1853	1.49391	1.24419	5.0493	67.98	-0.2344	-0.0022	0.2323	1010.4037	0.125106	-437.849465	-437.842203	-437.841259	-437.881416	27.921	
O	-0.1543317222	 0.082468098	-0.3165604687	-0.322678
C	-0.0425144562	 1.2296668013	-0.0348477326	 0.44317
O	-1.0144556631	 2.077813077	 0.455526489	-0.24861
C	-0.0785700958	 3.1943256715	 0.5546387277	-0.14688
C	 1.0382352028	 2.3267226415	-0.0582102965	 0.130049
N	 2.3468606906	 2.1292376351	 0.6195370022	-0.371949
C	 3.0374427533	 2.6771542739	-0.5769740754	-0.006284
C	 2.7985923297	 1.7363054008	-1.7109571474	-0.268971
C	 1.7330402396	 2.7516166842	-1.3532623782	-0.154553
H	-0.4185897473	 4.0458436332	-0.039519194	 0.127172
H	 0.0695382852	 3.4867426034	 1.5981439139	 0.121888
H	 2.4246864553	 2.7487500108	 1.4201089031	 0.226047
H	 3.8728221051	 3.36143368	-0.5006541426	 0.103437
H	 3.3284038173	 1.9612262118	-2.6310911996	 0.11931
H	 2.641490336	 0.6820307114	-1.5059135117	 0.145524
H	 1.3434471396	 3.4768244159	-2.0559505791	 0.10333
107.6022	125.0683	179.807	315.3885	339.7455	440.5308	462.9261	632.5148	702.4754	744.7889	765.8439	801.7937	818.0109	871.8011	918.8327	949.4081	964.8498	975.0052	984.9043	1020.9516	1041.2821	1086.5403	1091.9824	1141.6777	1143.325	1159.6924	1177.8384	1234.7799	1287.9533	1321.734	1349.2958	1397.8795	1478.7943	1509.3905	1942.8495	3054.7542	3117.1739	3126.8459	3187.2381	3198.6707	3221.0791	3522.3742
O=C1OCC11NC2CC12	O=C1OC[C@]21N[C@H]1C[C@@H]21	
InChI=1S/C6H7NO2/c8-5-6(2-9-5)3-1-4(3)7-6/h3-4,7H,1-2H2	InChI=1S/C6H7NO2/c8-5-6(2-9-5)3-1-4(3)7-6/h3-4,7H,1-2H2/t3-,4+,6+/m1/s1
