19
gdb 90849	2.97505	1.85829	1.52151	1.2352	78.34	-0.2135	0.0142	0.2277	937.9089	0.16159	-385.885374	-385.878492	-385.877548	-385.916223	28.911	
C	-0.0476601447	 1.5461843698	-0.0633563127	-0.409844
C	 0.0470042595	 0.035947203	 0.0467105064	 0.158223
O	 0.8119991125	-0.4668161404	-1.069029586	-0.268046
C	 1.2891251323	-1.7347840507	-0.7150854021	 0.093955
C	 2.5244337307	-1.855661332	 0.1983794713	-0.132448
C	 3.0846927455	-0.6007480923	 0.7738670628	-0.06225
C	 2.1489885038	 0.097976054	 1.4190544362	-0.083342
C	 0.7835252615	-0.5588906385	 1.2793092892	-0.128917
C	 1.1104574252	-1.9771649226	 0.7449762636	-0.125183
H	 0.9464118269	 1.9993925402	-0.0676761652	 0.127354
H	-0.5553480364	 1.8252321942	-0.9908721664	 0.12637
H	-0.6212660887	 1.9537580084	 0.7754224497	 0.11199
H	-0.9665061596	-0.3979901555	 0.0055058605	 0.063079
H	 1.1227275717	-2.4992261593	-1.467832504	 0.0951
H	 3.1503894685	-2.7307618621	 0.0587113833	 0.082311
H	 4.1188866552	-0.3051356274	 0.6428921174	 0.097514
H	 2.2907664348	 1.0691612678	 1.8775107041	 0.095852
H	 0.1647176919	-0.5373987104	 2.1803027487	 0.070457
H	 0.6943627294	-2.8774990262	 1.1787040831	 0.087825
150.7635	235.4722	267.9778	311.5897	393.3583	503.8192	562.2675	639.4585	706.6658	738.6471	753.0117	794.4701	803.3965	811.3608	838.9256	896.9263	925.6938	934.1925	963.6126	994.7766	998.9964	1042.0981	1055.9579	1070.8765	1086.4899	1113.6966	1130.654	1155.5939	1158.6591	1228.0605	1271.9364	1276.4224	1309.2285	1362.623	1368.3723	1382.0114	1394.2847	1411.8943	1484.0152	1502.7349	1665.1016	2954.6886	3044.4583	3074.8066	3113.878	3129.4366	3152.0178	3165.7184	3188.133	3192.9023	3217.659
CC1OC2C3C=CC1C23	C[C@H]1O[C@H]2[C@H]3C=C[C@@H]1[C@@H]23	
InChI=1S/C8H10O/c1-4-5-2-3-6-7(5)8(6)9-4/h2-8H,1H3	InChI=1S/C8H10O/c1-4-5-2-3-6-7(5)8(6)9-4/h2-8H,1H3/t4-,5+,6+,7-,8+/m1/s1
