19
gdb 115468	4.11453	0.86948	0.74523	3.3662	82.22	-0.2499	-0.0595	0.1904	1508.8246	0.15837	-423.042854	-423.03373	-423.032786	-423.07746	32.61	
C	-0.1189960161	 1.3823861755	 0.0007273888	-0.240924
O	 0.1067007135	-0.0078025743	 0.0566994614	-0.239777
C	 0.6819058567	-0.5511665786	-1.1180494291	 0.113126
C	 1.2467533452	-1.956411634	-0.8153709653	-0.256609
C	 0.9730291395	-2.8026362839	-2.0816176357	-0.319513
C	-0.141502204	-2.0386672131	-2.7612331749	 0.243711
C	-0.9312134241	-2.5744976451	-3.8749737441	 0.075482
O	-0.7609073796	-3.6697744734	-4.3630898445	-0.267511
C	-0.3033449984	-0.8160145099	-2.237570508	-0.18928
H	 0.8121107083	 1.9367481021	-0.1956823434	 0.107837
H	-0.8524848281	 1.660283143	-0.7711740157	 0.105942
H	-0.5114071614	 1.6842275758	 0.974698073	 0.132383
H	 1.4722990748	 0.1323877203	-1.4782726672	 0.076297
H	 2.2995551808	-1.9319768214	-0.5275773577	 0.105943
H	 0.6775555252	-2.3477610224	 0.0331105079	 0.126803
H	 1.8512742524	-2.854594098	-2.7369150701	 0.120679
H	 0.691971609	-3.8368764985	-1.8652076718	 0.126927
H	-1.7246260057	-1.8914711453	-4.2532841962	 0.067669
H	-1.0288441379	-0.0844987888	-2.5780707573	 0.110811
68.1696	88.7677	121.6481	159.0678	201.9697	234.9582	270.6351	405.1017	427.9933	445.729	557.3014	622.1622	719.7717	837.5941	863.0725	897.1403	901.2647	967.548	997.3313	1031.1592	1047.6998	1086.0139	1137.6732	1162.8501	1179.7621	1189.7338	1230.425	1245.6608	1280.639	1299.2781	1319.7176	1359.2129	1382.628	1421.2577	1479.0611	1483.3123	1490.2718	1498.2086	1508.6151	1681.327	1786.2222	2879.0994	2931.4245	2975.2644	3021.4017	3036.9491	3066.3179	3090.5557	3116.3964	3120.0183	3190.9618
COC1CCC(C=O)=C1	CO[C@H]1CCC(=C1)C=O	
InChI=1S/C7H10O2/c1-9-7-3-2-6(4-7)5-8/h4-5,7H,2-3H2,1H3	InChI=1S/C7H10O2/c1-9-7-3-2-6(4-7)5-8/h4-5,7H,2-3H2,1H3/t7-/m0/s1
