15
gdb 25230	3.13304	1.67601	1.10679	7.0735	73.6	-0.2301	-0.0207	0.2094	1021.8086	0.116323	-416.875377	-416.868597	-416.867652	-416.90681	26.07	
O	-0.0115815454	-0.0334220261	 0.0043497906	-0.331721
C	 0.034048481	 1.1727092297	 0.0101935584	 0.299052
C	-1.2160710831	 2.1042776076	 0.0314523351	-0.31352
C	-0.7224070998	 3.5850759749	 0.0313604085	-0.371844
C	 0.7557952374	 3.3856427162	 0.0092450966	 0.329012
C	 1.1829829911	 2.0838907447	-0.0027076909	 0.16148
N	 2.5609613832	 2.003020698	-0.0233860455	-0.326887
C	 2.9483735191	 3.2519762881	-0.0230796278	-0.000423
N	 1.8865935813	 4.1452305098	-0.0035277451	-0.378201
H	-1.8380066455	 1.8776778562	-0.8389129989	 0.136048
H	-1.8138822844	 1.8697457509	 0.9164856645	 0.135965
H	-1.0864783038	 4.1408065072	-0.840515231	 0.125265
H	-1.0613162866	 4.1325685601	 0.9184602724	 0.125263
H	 3.9717125027	 3.5991271153	-0.036371527	 0.138868
H	 1.9566972729	 5.1496827975	 0.0000379901	 0.271644
100.7143	171.5881	239.3945	306.4882	514.7043	539.0552	551.8335	601.7916	636.7575	655.3122	716.7599	731.9266	826.4342	851.3387	954.9144	967.9141	1010.2438	1030.0236	1063.4759	1109.9158	1156.0275	1226.8687	1246.8898	1258.4188	1306.3919	1370.5453	1386.4942	1445.7311	1456.0949	1491.2628	1531.3349	1601.2243	1824.9417	3032.2884	3060.5459	3069.981	3113.0753	3245.0519	3656.0676
O=C1CCC2=C1N=CN2	O=C1CCc2c1nc[nH]2	
InChI=1S/C6H6N2O/c9-5-2-1-4-6(5)8-3-7-4/h3H,1-2H2,(H,7,8)	InChI=1S/C6H6N2O/c9-5-2-1-4-6(5)8-3-7-4/h3H,1-2H2,(H,7,8)
