19
gdb 107787	2.59244	1.67281	1.32676	2.1328	73.81	-0.2338	0.0608	0.2946	1026.5006	0.158647	-422.957559	-422.949344	-422.9484	-422.990173	32.088	
C	-0.0522049177	 1.5644705796	 0.0594344568	-0.423868
C	 0.0345563535	 0.0486363145	-0.0227023375	-0.000158
C	 0.8357398563	-0.6340720683	-1.1366579193	-0.138423
C	 2.2695676976	-0.7211427713	-0.58571302	 0.096893
O	 2.2981504206	-0.0723243633	 0.6859092753	-0.343129
C	 0.9998244015	-0.7156774335	 0.9395550695	 0.396921
C	 0.7572202413	-0.924197706	 2.4053306061	-0.195796
O	 0.7632866988	 0.3146688876	 3.0955872509	-0.414879
C	 1.2763413137	-1.7615363331	-0.2073544304	-0.223438
H	 0.9467462299	 2.0056793521	 0.0213643125	 0.125163
H	-0.6385622788	 1.9674117073	-0.7735416906	 0.106531
H	-0.5280273518	 1.8746378112	 0.9945406112	 0.127816
H	-0.9555417923	-0.4162363691	 0.0435386623	 0.075259
H	 0.6150333288	-0.6923751576	-2.1952522508	 0.089019
H	 3.1712694419	-0.749690251	-1.1825638642	 0.109673
H	-0.2291871103	-1.3731277077	 2.5629949201	 0.113012
H	 1.5131267664	-1.6163653965	 2.8076203309	 0.098256
H	 1.5933204649	 0.7506192913	 2.8689559545	 0.299858
H	 1.2438872957	-2.8395430864	-0.2763714971	 0.101289
86.0959	143.9701	200.5961	233.9053	273.9476	311.9032	378.4334	418.554	573.2291	582.5828	688.9326	724.0389	773.4797	775.4864	811.405	844.1374	900.9882	932.8736	951.7804	987.2232	1011.5104	1027.2019	1041.316	1045.5742	1071.5328	1107.9909	1121.9194	1135.2521	1180.5068	1201.9366	1229.7672	1289.5816	1323.073	1356.4744	1382.9737	1384.9142	1403.6767	1438.7664	1487.881	1495.5187	1506.1501	2987.1951	3037.7441	3049.4677	3076.1071	3104.0671	3127.6572	3193.7325	3205.9368	3221.2599	3797.8886
CC1C2C3OC1(CO)C23	C[C@H]1[C@H]2[C@H]3O[C@]1(CO)[C@@H]23	
InChI=1S/C7H10O2/c1-3-4-5-6(4)9-7(3,5)2-8/h3-6,8H,2H2,1H3	InChI=1S/C7H10O2/c1-3-4-5-6(4)9-7(3,5)2-8/h3-6,8H,2H2,1H3/t3-,4+,5-,6+,7-/m0/s1
