16
gdb 34544	4.36169	1.28649	1.17658	1.6122	82.86	-0.2156	-0.0329	0.1827	1056.2704	0.125569	-363.540293	-363.533412	-363.532468	-363.571422	27.987	
C	 0.0807905367	-1.1511512168	 0.0989019431	-0.415251
C	-0.0162048595	 0.0486727543	 0.0414336466	 0.196821
C	-0.0746260725	 1.4568474453	-0.0346737967	 0.238966
C	-1.1537230759	 2.2556993366	-0.0988755877	-0.205185
C	-0.6874166273	 3.6807012749	-0.0084630216	-0.053188
C	-0.1624445027	 3.9454786981	 1.4452333234	-0.244884
C	 1.1928777437	 3.5114740068	 0.9180426095	-0.035736
C	 1.1391769328	 2.3394148396	-0.024443076	-0.16301
N	 0.7633596584	 3.6787149514	-0.5203426537	-0.13478
H	 0.1498812608	-2.2092631579	 0.1533164309	 0.193899
H	-2.1887377683	 1.9430660292	-0.0601048284	 0.113706
H	-1.3202708803	 4.4403505795	-0.4638631584	 0.086694
H	-0.1544584984	 5.0150419719	 1.6655791425	 0.119142
H	-0.6229550211	 3.3984295448	 2.2728762213	 0.105243
H	 2.1485512939	 3.8826905155	 1.2760451583	 0.097676
H	 2.0853917898	 1.9523028367	-0.3879636432	 0.099886
121.8718	153.1612	327.5782	385.8729	460.8785	496.0233	547.7921	588.026	634.5297	643.5355	704.2552	757.9323	788.0894	815.6192	837.7242	879.1339	887.5015	931.3012	978.0133	1020.8481	1047.5552	1055.4087	1070.9264	1136.9946	1165.511	1194.6121	1217.7295	1247.22	1269.9098	1320.0592	1345.3347	1370.689	1485.8597	1650.9748	2224.3228	3055.0271	3115.7949	3128.7704	3155.0558	3172.1125	3225.6399	3503.0151
C#CC1=CC2CC3C1N23	C#CC1=C[C@H]2C[C@H]3[C@@H]1N23	
InChI=1S/C8H7N/c1-2-5-3-6-4-7-8(5)9(6)7/h1,3,6-8H,4H2	InChI=1S/C8H7N/c1-2-5-3-6-4-7-8(5)9(6)7/h1,3,6-8H,4H2/t6-,7-,8+,9?/m0/s1
