23
gdb 78054	2.79877	1.14767	1.06778	1.575	86.18	-0.2409	0.0704	0.3113	1302.3766	0.204146	-388.266695	-388.256837	-388.255893	-388.300446	38.387	
C	-0.0930959118	 1.5167781715	 0.061104536	-0.40851
C	-0.010171511	-0.0037834459	-0.0156303849	-0.047892
C	 0.7629244419	-0.5323480931	-1.2387502944	-0.096152
C	 1.8265001512	-1.159066362	-0.3209656993	-0.149674
C	 1.077819642	-0.6564682156	 0.9223399967	 0.121264
O	 1.809596819	 0.2244045443	 1.746345043	-0.432171
C	 0.9675934174	-2.0265028852	-1.2136039809	 0.320505
C	-0.0659161952	-3.0020601239	-0.6774645316	-0.461346
C	 1.7072599443	-2.5647647026	-2.4302559163	-0.450733
H	 0.8744268802	 1.9927273836	-0.1363361317	 0.097558
H	-0.7941267534	 1.8965979377	-0.689503158	 0.11451
H	-0.4331904186	 1.8466378886	 1.0466482227	 0.12684
H	-1.0171970393	-0.4199454345	 0.1053330102	 0.064805
H	 0.9032078291	 0.0329785442	-2.1553514603	 0.073104
H	 2.9089869342	-1.1609902754	-0.4074621889	 0.077118
H	 0.7058605256	-1.428208019	 1.6032671376	 0.080842
H	 2.2539417445	 0.865480682	 1.1815063592	 0.277998
H	-0.6165292746	-2.6180028251	 0.183510959	 0.121862
H	-0.799934272	-3.2464346534	-1.4543016639	 0.112746
H	 0.4127237536	-3.939681036	-0.3717417918	 0.114673
H	 2.2350179843	-3.4945852458	-2.1892889048	 0.115739
H	 1.009022813	-2.7813539627	-3.247002754	 0.11458
H	 2.4455573756	-1.8470837615	-2.8015725936	 0.112333
111.5867	183.6675	195.1844	203.9027	220.3021	257.6568	266.0574	293.6173	324.1515	342.6724	398.0103	460.9551	482.0349	555.2403	685.723	772.6273	804.2247	851.9347	864.8326	925.3794	952.6423	970.1415	982.646	1022.1904	1034.6179	1046.1701	1051.2386	1102.134	1104.8576	1128.9079	1156.7204	1201.0047	1226.1615	1244.9288	1284.9093	1294.5777	1297.3611	1364.2771	1399.9187	1410.6116	1411.6384	1426.32	1438.2702	1484.0808	1490.0322	1492.5763	1502.9399	1504.1251	1513.7877	3022.4256	3027.1506	3028.9854	3030.3799	3058.9225	3080.3643	3085.3007	3089.1839	3099.4671	3113.3322	3124.6999	3144.4698	3157.5018	3807.9948
CC1C2C(C1O)C2(C)C	C[C@H]1[C@H]2[C@@H]([C@H]1O)C2(C)C	
InChI=1S/C8H14O/c1-4-5-6(7(4)9)8(5,2)3/h4-7,9H,1-3H3	InChI=1S/C8H14O/c1-4-5-6(7(4)9)8(5,2)3/h4-7,9H,1-3H3/t4-,5-,6-,7-/m0/s1
