23
gdb 92461	2.45757	1.61087	1.58957	0.1132	87.99	-0.2352	0.0283	0.2635	1045.4163	0.210091	-351.185957	-351.178233	-351.177289	-351.217665	32.451	
C	-0.2016074667	 1.552637631	 0.0083541968	-0.419254
C	 0.0220328043	 0.0365372497	 0.0001760477	 0.068529
C	 0.7796877	-0.4537686802	-1.2695235421	-0.218881
C	 1.9528652272	-1.3847662084	-0.8615464513	-0.045522
C	 2.9614242322	-0.5277233506	-0.0489727705	-0.195512
C	 2.256479238	 0.01465582	 1.2248027199	-0.203769
C	 0.7871782192	-0.4915409076	 1.2542713661	-0.04933
C	 0.8223726343	-1.9988959865	 1.154110747	-0.083767
C	 1.418865509	-2.4620065607	 0.053607947	-0.070746
H	 0.7417289183	 2.1067617859	-0.0442902782	 0.114527
H	-0.8047867754	 1.8580842554	-0.8535125275	 0.111829
H	-0.7289961572	 1.8739201094	 0.9136178305	 0.107248
H	-0.9650928392	-0.4384318049	 0.0202810291	 0.067936
H	 0.1001499985	-0.9793359436	-1.9468747852	 0.092756
H	 1.1834997668	 0.4011659317	-1.8258880442	 0.085514
H	 2.4359687266	-1.7994233484	-1.7501914522	 0.053825
H	 3.8325115191	-1.1337814054	 0.2158582984	 0.093182
H	 3.3228217787	 0.2950272315	-0.6764973281	 0.087861
H	 2.7693840918	-0.3276645854	 2.1279731326	 0.095053
H	 2.2786142191	 1.1085125866	 1.2498632897	 0.093229
H	 0.2873046071	-0.1516919653	 2.1660621048	 0.051048
H	 0.3893444653	-2.6293139806	 1.9237635906	 0.081811
H	 1.5331510328	-3.5153767635	-0.179779991	 0.082431
94.3079	230.0964	267.5218	300.8798	354.6526	364.7893	410.167	466.5224	597.3594	616.5857	641.1416	714.8807	765.2329	811.4606	820.1414	854.8563	898.4542	941.0824	954.9441	966.5457	972.0547	987.6142	1008.1448	1036.937	1057.1625	1075.9929	1113.3104	1132.7657	1152.1964	1166.3274	1194.0728	1245.425	1256.3997	1284.6032	1293.404	1323.2852	1332.8992	1340.9055	1362.2619	1372.8874	1381.0037	1399.7857	1412.4192	1482.494	1490.8474	1496.4372	1502.6483	1510.9692	1680.999	3023.6036	3026.8073	3028.7696	3031.613	3048.54	3062.571	3068.7678	3071.9178	3077.7753	3091.4001	3091.9137	3098.4765	3167.3249	3191.9935
CC1CC2CCC1C=C2	C[C@H]1C[C@H]2CC[C@@H]1C=C2	
InChI=1S/C9H14/c1-7-6-8-2-4-9(7)5-3-8/h2,4,7-9H,3,5-6H2,1H3	InChI=1S/C9H14/c1-7-6-8-2-4-9(7)5-3-8/h2,4,7-9H,3,5-6H2,1H3/t7-,8+,9-/m0/s1
