12
gdb 50793	5.5591	0.63287	0.56819	1.3626	85.58	-0.2761	-0.0879	0.1882	1795.7733	0.074743	-435.449825	-435.440919	-435.439975	-435.484614	30.265	
N	-0.2461942168	 1.3101465575	 0.0123278525	-0.422383
C	-0.0633637964	 0.067512097	 0.003262116	 0.127557
O	-1.1807844612	-0.7393168777	 0.0097070454	-0.184552
C	-0.9891549749	-2.093445643	 0.00006885	 0.18705
O	 0.0818035209	-2.6412219291	-0.013638389	-0.327244
C	-2.255669144	-2.7714763124	 0.0086996626	 0.272728
C	-3.2812058987	-3.4153203971	 0.0151892112	 0.004448
C	-4.4385019348	-4.123838444	 0.0226046956	 0.269664
C	-5.4673896894	-4.7555016567	 0.0292514052	-0.532252
H	 0.6517930302	 1.7920380933	 0.0061797386	 0.243737
H	 0.8690642076	-0.4959092661	-0.0093060675	 0.150584
H	-6.3746615826	-5.3086600416	 0.0350946995	 0.210664
63.3384	76.9433	105.4339	151.3042	200.0027	281.012	312.0749	416.052	485.8828	515.9897	574.6033	595.8541	618.2267	645.5939	769.0929	851.9531	859.5672	978.0628	1070.7573	1098.0071	1254.7686	1262.167	1391.0951	1746.4682	1798.2019	2182.9814	2349.3393	3146.3131	3498.0973	3509.3046
N=COC(=O)C#CC#C	[NH][CH]OC(=O)C#CC#C	
InChI=1S/C6H3NO2/c1-2-3-4-6(8)9-5-7/h1,5,7H	InChI=1S/C6H3NO2/c1-2-3-4-6(8)9-5-7/h1,5,7H
