19
gdb 68572	2.33486	1.8411	1.47531	2.753	80.04	-0.2221	-0.0052	0.217	992.1298	0.160108	-385.912289	-385.904449	-385.903505	-385.944143	31.239	
C	-0.0253532831	 1.5708345893	 0.0541207087	-0.476624
C	 0.011970003	 0.0570540708	-0.0204079209	 0.175043
C	 0.6624763968	-0.661766216	-1.2563637998	-0.26746
C	-0.4016682851	-1.7940558511	-1.0934183115	-0.189259
C	 0.0330929499	-2.6890235118	 0.0559591898	-0.061265
C	 0.5026137649	-2.1151084364	 1.1647154831	-0.07219
C	 0.5413759883	-0.6093632064	 1.2774359085	-0.284984
C	-1.2684178037	-0.6914158507	-0.4510013719	 0.417439
O	-2.4339838979	-0.4228216472	-0.4351955188	-0.329809
H	 0.9732697894	 1.9813034069	 0.2417360751	 0.116108
H	-0.4030400952	 2.0033971247	-0.877219482	 0.122025
H	-0.6827722545	 1.9016500956	 0.8649587294	 0.130466
H	 0.5220913096	-0.0864472959	-2.1751610351	 0.107606
H	 1.7049319253	-0.9693238507	-1.1518054088	 0.105808
H	-0.7734898934	-2.330784466	-1.9650394976	 0.083005
H	-0.0550881875	-3.765077639	-0.0497981949	 0.099953
H	 0.8461014961	-2.704543152	 2.0095201688	 0.096115
H	 1.5599762931	-0.2535143882	 1.4918503019	 0.10797
H	-0.0752549561	-0.2797570262	 2.1257748857	 0.120052
136.5386	178.5991	210.0626	240.3527	312.9911	361.7743	432.9098	453.419	506.4553	599.0899	670.5264	696.688	750.4614	822.0736	835.767	874.3694	900.4466	945.0688	962.8315	972.8422	992.2865	1011.4943	1039.5035	1087.4762	1106.2345	1160.911	1173.6411	1204.8309	1222.8447	1251.8811	1261.5083	1292.6156	1367.8673	1383.4205	1410.477	1473.0754	1487.6103	1490.5032	1492.0307	1695.125	1885.5697	2994.9251	3023.5673	3030.2107	3060.4963	3096.7859	3107.5117	3123.973	3127.3018	3167.7422	3192.5913
CC12CC(C=CC1)C2=O	C[C@@]12C[C@@H](C=CC1)C2=O	
InChI=1S/C8H10O/c1-8-4-2-3-6(5-8)7(8)9/h2-3,6H,4-5H2,1H3	InChI=1S/C8H10O/c1-8-4-2-3-6(5-8)7(8)9/h2-3,6H,4-5H2,1H3/t6-,8+/m1/s1
