22
gdb 87195	3.53666	0.90066	0.85219	1.6093	83.69	-0.223	-0.0099	0.2131	1492.7644	0.190142	-404.345599	-404.334771	-404.333827	-404.382325	38.778	
C	-0.4303256799	 1.2554189078	-0.339793912	-0.312863
N	 0.0039583237	-0.1164172946	-0.129803086	-0.12706
C	 1.3991928178	-0.4447965315	-0.4044107907	-0.274405
C	 0.8854711247	-0.4626158742	 0.9966677371	 0.356682
C	 1.3657306873	 0.5857449708	 1.9820382116	-0.479944
C	 0.5290396226	-1.8027553108	 1.6185238585	-0.374929
C	 1.7109185586	-2.625375765	 2.1202906179	 0.382383
C	 1.3779802266	-4.0219204521	 2.619281293	-0.469218
O	 2.8465203809	-2.2058945805	 2.1200542229	-0.294182
H	 0.3489803157	 2.0174173958	-0.1864709859	 0.100819
H	-0.7894295673	 1.35117088	-1.3698153084	 0.12361
H	-1.2666171104	 1.4818400326	 0.3299603794	 0.119299
H	 1.5791997418	-1.3690088782	-0.9490349797	 0.105628
H	 2.073197756	 0.3693134234	-0.669951182	 0.104057
H	 1.6465818715	 1.5198873636	 1.4918877296	 0.116746
H	 0.5896304357	 0.8113304879	 2.7237760772	 0.109386
H	 2.2441151092	 0.2076959165	 2.5102821352	 0.150979
H	-0.1617230014	-1.6620365414	 2.463729097	 0.11676
H	-0.0308019675	-2.4005614866	 0.8893265645	 0.128465
H	 0.5965714491	-3.9844467259	 3.3862151118	 0.135692
H	 0.9844969197	-4.6301333439	 1.7966325478	 0.140883
H	 2.2737399055	-4.4941257738	 3.0242772511	 0.14121
29.8149	71.3784	107.4356	128.6649	170.5112	194.3172	233.114	294.7032	303.0866	338.8212	406.3024	436.585	471.2943	493.8536	594.7441	721.6635	767.6829	830.475	843.4217	901.1622	926.2283	961.1323	1012.319	1023.9018	1068.0882	1091.5306	1121.5111	1146.3152	1168.7405	1179.1757	1196.4121	1226.1638	1295.9965	1354.6813	1383.0328	1392.8376	1408.0829	1442.6196	1450.3351	1464.313	1476.6036	1485.6366	1489.9471	1499.6224	1513.4332	1517.2571	1807.201	2982.6443	3005.8186	3032.7301	3036.7786	3062.1606	3063.6493	3082.3013	3096.5452	3097.4339	3108.553	3135.7813	3151.9188	3164.4427
CN1CC1(C)CC(C)=O	CN1C[C@]1(C)CC(=O)C	
InChI=1S/C7H13NO/c1-6(9)4-7(2)5-8(7)3/h4-5H2,1-3H3	InChI=1S/C7H13NO/c1-6(9)4-7(2)5-8(7)3/h4-5H2,1-3H3/t7-,8?/m0/s1
