15
gdb 5546	3.17896	2.01877	1.30773	0.505	64.49	-0.1835	0.0316	0.2151	915.9271	0.119133	-399.804863	-399.797002	-399.796058	-399.837319	28.336	
C	 0.0803350587	 1.1890202558	-0.3149559136	-0.251968
O	-0.163653293	 0.0909174397	 0.5733540452	-0.275735
C	-1.2526576702	-0.6416390146	 0.2886499218	 0.343588
C	-1.3756783934	-1.9478643989	-0.0775359119	 0.114184
N	-0.3405762812	-2.8513311426	-0.3813585371	-0.616768
C	-2.7910278064	-2.1863293557	-0.1703948308	-0.234766
C	-3.4005009143	-1.0126717529	 0.1360576093	-0.012129
O	-2.4808990953	-0.0504476217	 0.418784745	-0.182313
H	 1.0145505412	 1.6489805089	 0.0119538632	 0.132156
H	 0.1798769784	 0.8366569451	-1.3484287894	 0.124344
H	-0.7296032874	 1.923273039	-0.2577000259	 0.136082
H	 0.5544926663	-2.4876494358	-0.0749276489	 0.244302
H	-0.4847127928	-3.7550630652	 0.0541856686	 0.242416
H	-3.2746019831	-3.1120401968	-0.4420374757	 0.104945
H	-4.4315684174	-0.7067410343	 0.1927429603	 0.131661
66.4006	153.3824	165.4379	219.8714	275.7396	288.7797	404.294	506.2406	615.3616	637.6167	667.2524	718.0956	747.9531	805.7326	828.9301	900.6024	1011.1575	1068.1539	1072.6437	1160.5723	1173.6466	1202.3264	1218.2358	1303.6355	1321.5149	1449.1479	1483.819	1491.3391	1504.9888	1554.6791	1649.2062	1717.0402	3022.0506	3095.6951	3138.0516	3249.7966	3285.6204	3515.5975	3602.5316
COC1=C(N)C=CO1	COc1c(N)cco1	
InChI=1S/C5H7NO2/c1-7-5-4(6)2-3-8-5/h2-3H,6H2,1H3	InChI=1S/C5H7NO2/c1-7-5-4(6)2-3-8-5/h2-3H,6H2,1H3
