12
gdb 132892	3.0519	1.36456	0.94295	2.4386	63.41	-0.2213	-0.0592	0.1621	1083.4205	0.076241	-521.885804	-521.878806	-521.877861	-521.917517	26.487	
F	 0.0043573691	 0.0086939965	 0.0031157829	-0.069534
C	-0.0302599916	 1.3424124185	 0.0104666629	 0.194806
C	-1.1947924512	 2.005419131	 0.0298377284	-0.059651
O	-1.2316236712	 3.3658753964	 0.0373545833	-0.236721
C	-0.0875723527	 4.1499238473	 0.0257670935	 0.315756
N	-0.137021797	 5.4153781735	 0.0329901811	-0.527484
C	 1.1670138882	 3.4016992024	 0.0046993681	 0.223815
F	 2.2669946952	 4.1329101654	-0.0066095164	-0.038643
C	 1.2129981313	 2.0568774312	-0.0028783449	-0.332917
H	-2.1749179034	 1.551482635	 0.0409208229	 0.152589
H	-1.1031337104	 5.7421190459	 0.0479143214	 0.231857
H	 2.1551043337	 1.5235759769	-0.0185469032	 0.146126
100.3964	215.7546	310.9157	342.1926	360.1348	406.5306	454.0186	501.546	577.75	578.9691	676.4998	747.9214	820.826	833.4687	843.9907	894.0384	992.8137	999.0683	1182.7955	1195.6096	1231.8516	1309.9144	1382.369	1439.1269	1644.1203	1708.5973	1746.9876	3221.8091	3246.8999	3499.0202
FC1=COC(=N)C(F)=C1	FC1=COC(=C(F)C1)[NH]	
InChI=1S/C5H3F2NO/c6-3-1-4(7)5(8)9-2-3/h1-2,8H	InChI=1S/C5H4F2NO/c6-3-1-4(7)5(8)9-2-3/h2,8H,1H2
