15
gdb 62416	2.49016	1.53612	1.38116	4.5584	71.03	-0.254	-0.0303	0.2236	993.5986	0.112941	-412.936519	-412.928352	-412.927408	-412.969143	30.424	
N	-0.0576877504	 1.5154190043	 0.1555337826	-0.553281
C	-0.0354867765	 0.0746086733	 0.0010105765	 0.027704
C	 0.8518401723	-0.5033513553	 1.0129373113	 0.278644
N	 1.574408658	-0.9496457646	 1.7963311816	-0.319492
C	-1.3881422625	-0.6553204923	-0.0515489932	-0.019231
C	-2.1008240035	-0.4020719282	-1.3135748637	-0.263608
N	-1.0062554272	-1.4107108596	-1.3259891785	-0.127939
C	 0.2109943848	-0.6347402295	-1.3840118763	 0.322874
N	 1.0766057081	-0.6467844501	-2.2883981402	-0.493441
H	 0.8821075824	 1.8928679718	 0.2194998839	 0.251015
H	-0.517343362	 1.9537135082	-0.6348996251	 0.243795
H	-1.8328147236	-1.1715034294	 0.789631212	 0.136178
H	-3.0821368841	-0.8508360608	-1.4258065078	 0.150902
H	-1.9631973915	 0.5209925716	-1.870165039	 0.130275
H	 1.8570556957	-0.0256347093	-2.0667453242	 0.235606
106.9472	141.8254	188.0797	207.6289	238.1668	279.6777	412.6487	469.3221	511.6187	564.8649	658.5409	706.4048	734.4109	759.5736	802.4292	848.6421	878.303	934.5923	964.8411	1013.9124	1039.5982	1064.9963	1113.2305	1132.8064	1202.1945	1223.3607	1269.7048	1292.3146	1373.3613	1506.8654	1653.7045	1802.8618	2359.7549	3120.567	3204.1889	3214.7045	3467.42	3512.1273	3599.2737
NC1(C#N)C2CN2C1=N	N[C@@]1(C#N)[C@H]2CN2[C]1[NH]	
InChI=1S/C5H6N4/c6-2-5(8)3-1-9(3)4(5)7/h3,7H,1,8H2	InChI=1S/C5H6N4/c6-2-5(8)3-1-9(3)4(5)7/h3,7H,1,8H2/t3-,5+,9?/m1/s1
