18
gdb 13166	2.88161	1.79777	1.3867	1.5154	72.68	-0.2435	0.0535	0.2971	968.6914	0.152372	-347.75377	-347.745225	-347.744281	-347.786955	31.149	
C	-0.0990315717	 1.5553622059	-0.0922252572	-0.390237
C	-0.037767798	 0.0171538032	 0.0026811811	-0.1744
C	-1.3785430186	-0.5660439395	 0.0112971985	 0.346904
C	-2.4836417563	-1.0398994029	 0.0235480932	-0.491502
C	 0.8326105196	-0.5466353612	-1.1334122363	 0.164559
C	 0.8092641694	-2.0642151713	-1.416670311	-0.310894
C	 0.2698808704	-1.6499995771	-2.8001175715	-0.053913
O	 0.2922399057	-0.2511650415	-2.4385982729	-0.289207
H	 0.9066009881	 1.9800884631	-0.0106600512	 0.112315
H	-0.5237526114	 1.8496884525	-1.0546529822	 0.149353
H	-0.7180053693	 1.9710864467	 0.7061083663	 0.123657
H	 0.461706798	-0.2580233286	 0.9436498548	 0.103472
H	-3.4619296449	-1.4526095779	 0.0372709402	 0.196012
H	 1.8415357994	-0.1228347407	-1.0249741947	 0.072552
H	 1.7829280977	-2.555770708	-1.4134698432	 0.107238
H	 0.1082559882	-2.6286042578	-0.8008507002	 0.123274
H	 0.9323534659	-1.8591222867	-3.6489146638	 0.099852
H	-0.7433232322	-1.9893122183	-3.0415964398	 0.110965
77.4825	92.2257	155.998	197.8838	215.8878	251.5715	361.9458	394.6899	550.3355	618.8995	638.6489	659.0205	705.2324	796.7362	835.7305	893.1981	936.5474	979.6527	1004.9937	1030.4532	1045.0031	1085.8442	1124.2215	1155.5387	1170.7083	1221.7524	1262.9142	1275.0036	1305.8675	1322.7654	1367.2456	1387.0367	1405.3353	1485.3454	1490.9919	1502.9751	1528.051	2232.3818	2990.9701	3002.6585	3021.9023	3045.0486	3067.4601	3086.1226	3118.3178	3137.7018	3143.9106	3503.5127
CC(C#C)C1CCO1	C[C@@H](C#C)[C@H]1CCO1	
InChI=1S/C7H10O/c1-3-6(2)7-4-5-8-7/h1,6-7H,4-5H2,2H3	InChI=1S/C7H10O/c1-3-6(2)7-4-5-8-7/h1,6-7H,4-5H2,2H3/t6-,7+/m0/s1
