18
gdb 119310	2.18586	1.1725	0.88634	2.3038	72.03	-0.2704	0.0163	0.2867	1328.1703	0.146731	-439.065344	-439.055893	-439.054949	-439.100411	33.133	
O	-0.1857659618	 1.4675656941	 0.1440656653	-0.416061
C	 0.0139581271	 0.0666234997	 0.0708743282	-0.090961
C	-1.3634662384	-0.570311659	-0.0830297389	-0.247657
C	-1.3463587817	-2.1057355313	-0.0797378655	 0.089556
C	-1.1652963557	-2.7548041506	 1.3284998087	-0.104554
O	-2.5564407191	-3.1057957858	 1.3905439285	-0.261396
C	-2.7647587377	-2.7460381662	 0.0153539314	-0.111502
C	-0.4925625095	-2.6455805325	-1.1309871476	 0.250373
N	 0.1845487427	-3.0759345858	-1.9637975345	-0.345979
H	 0.6751598111	 1.8956043374	 0.1585269423	 0.291977
H	 0.6486393048	-0.2086538627	-0.7842958336	 0.116108
H	 0.5068404824	-0.3153041139	 0.9805316585	 0.090262
H	-2.0036916998	-0.2361142103	 0.7406433029	 0.128338
H	-1.8180114916	-0.2111170373	-1.0126812202	 0.127061
H	-0.5116694497	-3.6346696355	 1.3411839572	 0.122684
H	-0.873695553	-2.0659106507	 2.1285463287	 0.118936
H	-3.5988889051	-2.0480891212	-0.1137574221	 0.120343
H	-2.909759955	-3.6215047983	-0.6280770892	 0.122473
69.951	93.2498	107.5212	139.446	192.9782	216.3333	257.7766	328.9187	375.382	401.2631	547.7216	566.4196	671.2189	803.0745	847.6248	918.8817	966.5157	977.379	994.094	1026.1173	1050.9111	1069.5726	1108.868	1161.0713	1165.4159	1182.3674	1230.52	1256.4385	1283.1237	1312.3147	1325.8305	1341.8376	1378.5553	1468.2765	1487.0523	1510.2579	1528.2566	1533.9044	2350.5746	2962.7975	3011.0103	3022.1276	3031.6634	3045.2666	3078.8423	3081.4317	3093.5926	3833.7081
OCCC1(COC1)C#N	OCCC1(COC1)C#N	
InChI=1S/C6H9NO2/c7-3-6(1-2-8)4-9-5-6/h8H,1-2,4-5H2	InChI=1S/C6H9NO2/c7-3-6(1-2-8)4-9-5-6/h8H,1-2,4-5H2
