16
gdb 10896	3.10386	1.95702	1.50925	3.2038	65.25	-0.2382	-0.0263	0.2119	884.0201	0.1282	-383.725714	-383.717794	-383.71685	-383.757763	29.141	
C	-0.0686836925	 1.5833609712	 0.048664146	-0.416391
C	 0.0249957192	 0.0654669998	-0.0202462401	-0.180664
C	 1.1262850239	-0.5967909544	-0.9093851701	 0.429426
O	 1.3222852135	-0.6324523097	-2.0874500335	-0.304136
C	 1.7223113592	-1.3044457338	 0.301250986	-0.189362
O	 2.0126730938	-0.2338612842	 1.2344587905	-0.276295
C	 0.666090608	-0.702112439	 1.162159173	 0.415395
C	 0.0109296162	-1.2260681764	 2.3978742796	-0.505225
H	 0.8687604962	 2.0058471856	 0.4186828535	 0.139029
H	-0.2623339403	 1.9956985338	-0.9460542913	 0.135887
H	-0.8809095053	 1.9040053173	 0.7091814701	 0.11852
H	-0.9347129037	-0.3816166318	-0.3120921811	 0.101627
H	 2.2972848124	-2.2185840892	 0.3946390225	 0.119449
H	-0.3252578928	-0.4016476848	 3.0361096277	 0.139169
H	-0.8638032147	-1.8326438432	 2.1435382008	 0.132433
H	 0.7113446169	-1.8372468513	 2.9726041263	 0.14114
103.5162	185.6524	197.0099	209.0838	231.7327	270.6978	366.751	496.6167	551.6296	592.5011	667.41	712.0881	773.6344	830.3892	841.608	982.2128	997.8876	1034.1582	1052.1102	1068.1534	1095.6314	1139.1031	1194.6792	1222.4689	1240.1979	1334.4881	1399.7369	1402.202	1446.531	1480.1731	1493.1527	1494.361	1503.4161	1898.524	3031.7391	3038.6607	3040.9409	3102.1824	3106.1457	3125.826	3127.5862	3190.8579
CC1C(=O)C2OC12C	C[C@H]1C(=O)[C@H]2O[C@@]12C	
InChI=1S/C6H8O2/c1-3-4(7)5-6(3,2)8-5/h3,5H,1-2H3	InChI=1S/C6H8O2/c1-3-4(7)5-6(3,2)8-5/h3,5H,1-2H3/t3-,5+,6-/m0/s1
