21
gdb 93603	2.79102	1.23343	0.90012	0.9233	96.1	-0.2148	-0.0091	0.2057	1338.1202	0.181345	-349.959136	-349.949489	-349.948545	-349.993202	36.592	
C	-0.0855883878	 1.573489098	-0.0440956332	-0.403379
C	 0.0400872442	 0.0471039668	 0.0268559683	-0.047224
C	 0.7947071087	-0.569543829	-1.1773044495	-0.22613
C	 1.5348702575	-1.8028207675	-0.6179296862	-0.324347
C	 1.6290741325	-1.4943717539	 0.8679266339	 0.099852
C	 2.4502513302	-2.2537747591	 1.735772209	 0.188879
C	 3.1666084351	-2.9222997229	 2.4393268034	-0.422301
C	 0.8125389464	-0.4831775491	 1.2232635612	 0.233149
C	 0.5958715498	 0.0366065657	 2.606965769	-0.519562
H	 0.9024585226	 2.0472149923	-0.0577260755	 0.116119
H	-0.613447244	 1.8735608176	-0.9552810005	 0.11532
H	-0.6422121331	 1.9760764198	 0.808072896	 0.114672
H	-0.9809868774	-0.3668637861	 0.076788826	 0.079153
H	 0.1317140426	-0.8098794369	-2.0127558027	 0.096025
H	 1.5268425009	 0.1594298108	-1.5435887659	 0.101571
H	 0.9677536768	-2.7304427568	-0.7737881587	 0.109988
H	 2.5162001779	-1.9578441028	-1.0771999805	 0.109916
H	 3.792889669	-3.5062683767	 3.0667068232	 0.185438
H	 1.1908937342	-0.517726819	 3.3361429674	 0.137592
H	 0.8595035893	 1.0986313092	 2.6824533861	 0.129955
H	-0.4617751754	-0.0407648705	 2.8925862691	 0.125313
88.6095	129.8504	140.5762	173.2513	226.149	259.6707	266.1735	339.145	368.1378	479.0114	507.9049	554.804	567.7227	585.6644	629.4643	637.6438	688.4877	823.5323	890.2375	911.7338	967.0282	998.0634	1013.866	1057.8876	1071.4902	1105.3076	1123.9232	1176.3455	1194.4329	1233.7114	1264.7986	1310.8035	1324.6086	1338.0693	1360.4239	1407.7348	1412.1637	1479.0127	1483.1332	1486.4906	1500.2317	1501.0905	1504.2757	1686.4036	2213.8337	2958.8812	3016.3482	3017.3127	3028.9908	3039.5144	3062.6879	3072.1085	3093.9493	3098.8484	3102.2575	3123.7736	3503.883
CC1CCC(C#C)=C1C	C[C@H]1CCC(=C1C)C#C	
InChI=1S/C9H12/c1-4-9-6-5-7(2)8(9)3/h1,7H,5-6H2,2-3H3	InChI=1S/C9H12/c1-4-9-6-5-7(2)8(9)3/h1,7H,5-6H2,2-3H3/t7-/m0/s1
