18
gdb 119865	3.4708	0.9929	0.78341	2.2134	77.9	-0.2428	-0.0223	0.2205	1439.213	0.147501	-439.098451	-439.089593	-439.088649	-439.132818	31.583	
C	 0.0051421256	 1.4074825253	-0.0281357792	-0.223749
O	-0.000906269	-0.0004110148	 0.0068453628	-0.238065
C	 0.6356594571	-0.5740623576	-1.1100501443	-0.16308
C	 0.5875900186	-2.0587334905	-0.9984613643	 0.23152
C	 0.0544047443	-2.8250054089	-0.0457780613	-0.209599
C	 0.2699004378	-4.2658020254	-0.3991947409	-0.136792
O	 0.9768154292	-4.2374520049	-1.6446409962	-0.248374
C	 1.1786190512	-2.9344930821	-2.0233250326	 0.350002
N	 1.7729340873	-2.5559266503	-3.0764772102	-0.55579
H	 1.0297655269	 1.8110514153	-0.0358562575	 0.108795
H	-0.5227405342	 1.795957092	-0.9131332807	 0.10877
H	-0.506501114	 1.7577604466	 0.8712606598	 0.128276
H	 0.1539078229	-0.2607932547	-2.0522020817	 0.117267
H	 1.6862925951	-0.2453928862	-1.1870790022	 0.117359
H	-0.4550698813	-2.4886061541	 0.8455600038	 0.132181
H	 0.8743197185	-4.8055031747	 0.3422607172	 0.129211
H	-0.6679811552	-4.8214012829	-0.5335043726	 0.129202
H	 2.0912486191	-3.3576778921	-3.6224133899	 0.222864
72.5801	79.6848	126.493	177.5236	227.7324	257.4762	303.7951	352.178	387.6398	529.4759	660.993	724.3916	782.0678	838.1087	846.5761	873.2874	948.5952	980.5202	1015.5312	1029.7776	1046.3547	1087.7169	1159.7548	1180.1387	1185.1259	1196.5137	1228.3508	1245.7936	1249.6177	1332.0775	1395.2191	1435.9846	1481.5628	1485.5285	1495.8217	1501.9805	1517.0149	1718.4829	1755.5565	2958.5322	2975.498	2976.8705	3012.586	3019.4271	3040.7754	3117.7029	3248.3691	3482.5123
COCC1=CCOC1=N	COCC1=C(OC[CH]1)[NH]	
InChI=1S/C6H9NO2/c1-8-4-5-2-3-9-6(5)7/h2,7H,3-4H2,1H3	InChI=1S/C6H9NO2/c1-8-4-5-2-3-9-6(5)7/h2,7H,3-4H2,1H3
