12
gdb 132797	2.4844	1.8139	1.04942	2.625	60.48	-0.2358	-0.0282	0.2077	990.4942	0.078155	-518.115587	-518.108589	-518.107644	-518.147042	26.454	
N	-0.0164680412	 1.4286176072	 0.1540651249	-0.606169
C	 0.0016573906	 0.0501580948	 0.0503979944	 0.012484
C	-1.1466296604	-0.7451932918	 0.0275635605	 0.311436
F	-2.3206803756	-0.1148721914	 0.0347050775	-0.069824
N	-1.1572156251	-2.055269913	-0.007263009	-0.302494
C	 0.0378516156	-2.6473883124	-0.0254876946	 0.047945
N	 1.2165309508	-2.0230395282	-0.0208014685	-0.302493
C	 1.170778812	-0.7137262169	 0.0143167049	 0.311434
F	 2.3272911746	-0.0517648951	 0.008248948	-0.069823
H	 0.8196456931	 1.8880435631	-0.1746103296	 0.266602
H	-0.8684520753	 1.8651226301	-0.1649522925	 0.266601
H	 0.0524263709	-3.7314664664	-0.0508430163	 0.134299
136.6713	265.5925	267.3768	325.2834	329.9598	346.2161	512.4361	552.3376	566.7876	584.7433	608.7743	660.9951	746.271	791.4641	878.4513	949.6337	983.7261	1210.6417	1234.8476	1322.2912	1333.9473	1340.1738	1492.6246	1509.9223	1607.9282	1625.1461	1666.9282	3198.1228	3574.545	3682.2992
NC1=C(F)N=CN=C1F	Nc1c(F)ncnc1F	
InChI=1S/C4H3F2N3/c5-3-2(7)4(6)9-1-8-3/h1H,7H2	InChI=1S/C4H3F2N3/c5-3-2(7)4(6)9-1-8-3/h1H,7H2
