22
gdb 40745	3.42931	1.22046	1.1222	0.982	85.28	-0.2217	0.0798	0.3016	1197.6169	0.195963	-367.147098	-367.139005	-367.138061	-367.180125	32.098	
C	-0.2643882574	 1.1931269673	-0.3796965007	-0.220255
C	 1.1308700731	 1.0088485423	 0.1067852359	-0.22594
N	 0.1958133578	-0.1082221836	 0.0866359338	-0.081004
C	-0.2509306961	-0.6526224529	 1.3550672053	 0.069358
C	-0.8209543597	 0.1955265399	 2.5505340182	-0.285741
C	-1.9537421049	-0.8578916969	 2.7271852753	-0.008028
C	-3.3058728018	-0.449558471	 2.0992940813	-0.219662
C	-2.8011148554	-0.9398045014	 0.7076461792	-0.232065
C	-1.5213163029	-1.5297829955	 1.3707165173	-0.039499
H	-0.9322136614	 1.7798243565	 0.2465794729	 0.111053
H	-0.4740407823	 1.2577590043	-1.444157989	 0.114625
H	 1.9613359671	 0.9491409733	-0.5917620117	 0.113611
H	 1.3761496046	 1.455559917	 1.0694184524	 0.10983
H	 0.584105337	-1.2542820848	 1.731509478	 0.081338
H	-0.1387580611	 0.3107690923	 3.3958237205	 0.097514
H	-1.2014945695	 1.187313127	 2.2881893339	 0.096603
H	-1.9652288112	-1.3879951481	 3.6800583906	 0.060669
H	-4.1415407551	-1.0490595795	 2.4711726453	 0.09748
H	-3.5798883201	 0.6066018935	 2.1886185841	 0.089454
H	-3.4406680057	-1.6898560115	 0.2372920056	 0.100925
H	-2.6147181955	-0.1561881101	-0.0291497938	 0.109007
H	-1.3765234495	-2.6035218981	 1.2432397456	 0.060725
63.3537	96.3496	168.1236	246.5542	317.6259	356.9939	424.2825	507.5911	610.0663	718.2535	739.0815	763.4635	810.8207	837.95	861.6353	890.2312	896.4465	906.131	943.2913	956.452	1017.5592	1026.807	1045.6377	1054.3848	1096.6663	1106.5598	1121.3378	1126.3328	1141.6454	1170.5035	1182.0084	1193.4827	1208.6174	1227.0312	1246.1592	1261.1153	1279.5545	1299.706	1303.7227	1326.5993	1339.8706	1384.7296	1477.4618	1481.0731	1494.2751	1501.214	1521.1022	3035.1262	3042.3764	3054.621	3071.184	3085.3132	3091.0348	3092.4298	3097.5123	3104.4974	3110.5833	3123.3916	3171.8823	3188.0825
C1CN1C1CC2CCC12	C1CN1[C@H]1C[C@H]2CC[C@@H]12	
InChI=1S/C8H13N/c1-2-7-6(1)5-8(7)9-3-4-9/h6-8H,1-5H2	InChI=1S/C8H13N/c1-2-7-6(1)5-8(7)9-3-4-9/h6-8H,1-5H2/t6-,7-,8+/m1/s1
