16
gdb 22512	2.45522	1.22495	1.10232	1.2778	75.32	-0.257	-0.0098	0.2472	1180.4421	0.120315	-437.781644	-437.772306	-437.771362	-437.815723	34.099	
C	-0.1748821815	 1.5727117602	 0.1854913555	-0.425783
C	-0.0016012434	 0.0599162311	 0.0818586845	 0.137646
O	 1.1209064908	-0.2952935089	-0.7962532167	-0.316492
C	 1.840217771	-0.9763922046	 0.259658492	-0.166892
C	 0.7503464726	-0.6106752892	 1.2286826187	 0.313089
N	 0.4830472316	-0.710682071	 2.4559825948	-0.225199
O	 1.5027979366	-1.3877559101	 3.1415173874	-0.385192
C	-1.2324314936	-0.6116655098	-0.320954321	 0.346587
C	-2.2510655764	-1.1563752719	-0.6514900779	-0.46776
H	 0.7673668505	 2.0355887581	 0.4881800782	 0.125432
H	-0.4762612893	 1.9748447925	-0.785279784	 0.139621
H	-0.9459231099	 1.8119447313	 0.9225388364	 0.141796
H	 1.9566751312	-2.0503159877	 0.0675611888	 0.134973
H	 2.8252021966	-0.5360669956	 0.4560109362	 0.131527
H	 1.1720724008	-1.3964120067	 4.0465346395	 0.312973
H	-3.1483581178	-1.6441532477	-0.9435889323	 0.203674
79.8948	106.6503	156.9783	191.5464	211.3864	237.7487	316.6797	360.4681	412.3287	430.8959	496.6546	532.4869	617.4581	631.4587	648.0828	670.9636	778.8885	868.8467	941.3993	982.2864	1003.0409	1008.0824	1097.2891	1115.9626	1131.6365	1186.0274	1251.4155	1312.7681	1396.8161	1412.3141	1478.4384	1482.6587	1498.1941	1814.4437	2235.783	3021.2189	3049.1581	3062.6763	3132.3776	3134.4739	3500.4418	3813.9737
CC1(OCC1=NO)C#C	C[C@]1(OCC1=NO)C#C	
InChI=1S/C6H7NO2/c1-3-6(2)5(7-8)4-9-6/h1,8H,4H2,2H3	InChI=1S/C6H7NO2/c1-3-6(2)5(7-8)4-9-6/h1,8H,4H2,2H3/t6-/m0/s1
