17
gdb 14608	12.96436	0.6125	0.5913	3.345	73.94	-0.2633	0.0195	0.2827	1789.1568	0.139747	-363.824694	-363.815188	-363.814244	-363.860893	31.893	
N	-0.0779022574	 1.3061229119	 0.009757478	-0.436892
C	-0.0355057317	 0.0448988357	 0.0028560706	 0.129451
O	-1.1771255602	-0.6688677977	 0.0094171151	-0.183338
C	-1.033963913	-2.0892490142	 0.000499214	-0.07605
C	-2.4288002716	-2.695795037	 0.0105821014	-0.189643
C	-2.3795887839	-4.2360550838	 0.0018914612	-0.358917
C	-3.7056680634	-4.840593745	 0.011314561	 0.289127
C	-4.8085828973	-5.3173604227	 0.0193030981	-0.425615
H	 0.8667967602	 1.6848885904	 0.0032897664	 0.229127
H	 0.8717469651	-0.5762365507	-0.0084704673	 0.082464
H	-0.479893989	-2.4052942236	-0.8951704411	 0.107898
H	-0.462931976	-2.4147574395	 0.882015198	 0.10789
H	-2.967045968	-2.3463276552	 0.8967665664	 0.130683
H	-2.9838336618	-2.3369461863	-0.861383154	 0.13069
H	-1.8282498271	-4.5829921948	-0.8823908642	 0.132782
H	-1.8115122884	-4.5923538052	 0.8717393189	 0.13278
H	-5.7791692664	-5.7477111421	 0.0263001676	 0.197561
20.8538	75.3337	84.7104	93.7074	146.8164	192.1766	314.4866	345.4142	378.8312	543.4983	621.7896	634.2087	642.9792	756.1838	820.6616	866.2654	950.5698	1006.1435	1044.4381	1044.9499	1087.253	1117.4864	1143.1957	1217.5062	1272.4525	1300.2223	1304.5755	1317.1478	1374.3378	1412.4615	1435.3684	1476.34	1498.442	1520.8562	1750.72	2242.7875	2987.3698	3013.0911	3016.6105	3029.0913	3041.5571	3062.7155	3110.1269	3507.097	3518.798
N=COCCCC#C	[NH][CH]OCCCC#C	
InChI=1S/C6H9NO/c1-2-3-4-5-8-6-7/h1,6-7H,3-5H2	InChI=1S/C6H9NO/c1-2-3-4-5-8-6-7/h1,6-7H,3-5H2
