18
gdb 85364	2.54585	1.52644	1.10409	2.9742	77.03	-0.2525	-0.0463	0.2062	1122.881	0.148189	-439.103763	-439.095271	-439.094327	-439.136777	32.352	
C	-0.0414839207	 1.5253452316	-0.0409807716	-0.39973
C	-0.010849456	 0.0118454949	 0.0706529909	 0.089896
O	 0.57692893	-0.4802235033	-1.1505609452	-0.254005
C	 0.7307179066	-1.8257044508	-1.2773960392	 0.360357
N	 0.8149509191	-2.289422547	-2.4590043358	-0.496787
C	 0.8794254152	-2.5937200759	-0.0266155928	-0.12949
C	 0.9230684537	-2.0026469123	 1.1701425672	-0.121644
C	 0.7662666982	-0.5072756335	 1.2869436776	 0.071963
O	 2.0318901068	 0.1216874041	 1.4632708576	-0.428535
H	 0.9734452937	 1.9271478326	-0.0635526213	 0.134769
H	-0.5645661407	 1.8223323872	-0.952745189	 0.132518
H	-0.5621375321	 1.9549846419	 0.8199356559	 0.119157
H	-1.035688012	-0.3807778835	 0.1402866103	 0.087718
H	 0.988822835	-3.2931975918	-2.4251720121	 0.221211
H	 1.0101582935	-3.6656323838	-0.1385827036	 0.108591
H	 1.1198800257	-2.5710063502	 2.0740303052	 0.115105
H	 0.1965787031	-0.2556581317	 2.1883450329	 0.099661
H	 2.5680145011	-0.1009538187	 0.692665953	 0.289246
83.1278	135.8768	208.3528	231.0806	256.5908	285.8363	368.4206	421.9989	471.9577	494.2756	539.4423	638.2859	696.58	745.7109	814.1099	847.603	873.0603	893.8698	958.1762	996.848	1005.6965	1029.3544	1077.0905	1114.2188	1134.7615	1168.3197	1198.29	1261.1843	1320.6966	1353.422	1378.3873	1390.2633	1411.4438	1411.981	1427.386	1484.5453	1492.8867	1673.2861	1720.7735	3002.083	3052.9779	3058.1227	3127.2885	3143.0669	3169.2544	3190.1025	3495.9326	3793.5292
CC1OC(=N)C=CC1O	C[C@H]1OC(=C[CH][C@H]1O)[NH]	
InChI=1S/C6H9NO2/c1-4-5(8)2-3-6(7)9-4/h2-5,7-8H,1H3	InChI=1S/C6H9NO2/c1-4-5(8)2-3-6(7)9-4/h2-5,7-8H,1H3/t4-,5-/m1/s1
