20
gdb 37198	2.62792	1.98994	1.6997	1.4575	81.14	-0.2108	0.076	0.2869	917.6488	0.173053	-365.911162	-365.904175	-365.903231	-365.941978	29.805	
C	-0.0420696338	 1.544971046	-0.0362120867	-0.288911
C	 1.5325381638	 1.5670866816	-0.0507865252	-0.288913
C	 1.5419009096	 0.0075314336	-0.0276864551	 0.286072
C	 1.5743777573	-0.7669509202	 1.3167344183	-0.292094
C	 0.0069870592	-0.7889348872	 1.3312650105	-0.292093
C	-0.0071984478	-0.0142262068	-0.013341877	 0.286073
C	 0.0118405652	-0.8570727978	-1.2925413845	-0.133819
N	 0.7470774018	-0.065718213	-2.3053104097	-0.33704
C	 1.5228589117	-0.8358537854	-1.3065291789	-0.133816
H	-0.506315269	 1.9989902772	 0.8439399231	 0.088661
H	-0.4950529547	 1.9669365641	-0.9345842438	 0.113521
H	 1.9567997464	 2.0013871876	-0.957267457	 0.113521
H	 2.0000521806	 2.0341813171	 0.8207513085	 0.088662
H	 2.0542698334	-1.7486214468	 1.2715592815	 0.097959
H	 2.0294396903	-0.2100223836	 2.1400603915	 0.101143
H	-0.4459688005	-1.7836790537	 1.2948161379	 0.097958
H	-0.4481472189	-0.2447029334	 2.1629997357	 0.101144
H	-0.6852813183	-1.6265518409	-1.6109076948	 0.08135
H	 0.7467503573	-0.6100334407	-3.1668402139	 0.229271
H	 2.2352944162	-1.5855448577	-1.6379401004	 0.08135
152.7902	264.7323	266.4734	321.9349	337.7211	517.2023	540.0027	648.6658	705.9379	706.1978	714.2832	726.0284	809.9613	841.6229	868.4528	888.0527	903.9738	909.1373	916.4982	942.6364	1005.6414	1010.274	1033.312	1050.6851	1092.6408	1128.8305	1176.071	1185.678	1191.9824	1231.7308	1236.483	1244.2298	1245.0323	1258.095	1274.4164	1281.8591	1304.2503	1339.0727	1366.4267	1450.8517	1465.9979	1469.9808	1487.4215	3048.3168	3053.9108	3053.9309	3060.8623	3091.8363	3110.6379	3116.7467	3132.0066	3142.9383	3155.8604	3481.1071
C1CC23CCC12C1NC31	C1C[C@@]23CC[C@@]12[C@H]1N[C@@H]31	
InChI=1S/C8H11N/c1-2-8-4-3-7(1,8)5-6(8)9-5/h5-6,9H,1-4H2	InChI=1S/C8H11N/c1-2-8-4-3-7(1,8)5-6(8)9-5/h5-6,9H,1-4H2/t5-,6+,7-,8+
