17
gdb 41055	3.21494	2.16858	1.91399	1.6969	73.55	-0.2249	0.0504	0.2753	795.61	0.138065	-384.553074	-384.547279	-384.546335	-384.582732	25.501	
C	 0.053485625	 1.4992134472	-0.1309356035	-0.174051
O	 1.4847576668	 1.5300838575	 0.2169556806	-0.326982
C	 1.4049624093	 0.1826634919	 0.6452541422	 0.383264
C	 0.94699885	-0.4074598311	 2.0097270274	-0.189305
C	 0.957363246	-1.7201534052	 1.2635962642	-0.056841
C	-0.3131884111	-0.8467609336	 1.2680768955	-0.13601
C	 0.0114744581	-0.0317302086	 0.0160730672	 0.152745
C	 0.6495314218	-0.945112116	-1.0766734589	-0.295282
C	 1.7341610184	-1.207883581	-0.0000772397	-0.135044
H	-0.537987311	 2.0550603949	 0.6052639916	 0.112897
H	-0.1203541344	 1.9086112717	-1.1308848057	 0.114099
H	 1.1469193867	-0.1910711515	 3.0503569283	 0.094643
H	 0.989132307	-2.7121934414	 1.6899500546	 0.095686
H	-1.2599505251	-1.2042167165	 1.6579485739	 0.083183
H	 0.0721887568	-1.7941334148	-1.4515202602	 0.09763
H	 1.0347851616	-0.3583112211	-1.9148984586	 0.110639
H	 2.7152300439	-1.6413728825	-0.2008759087	 0.068728
251.6277	329.4468	386.4497	479.0788	545.0747	599.95	710.258	759.6055	780.5246	790.5464	811.0106	825.1005	874.2188	895.156	910.9575	921.5771	950.3756	976.7936	991.1081	1017.9391	1036.6239	1049.0271	1069.6305	1091.8105	1123.6037	1149.1655	1159.1495	1195.0063	1219.254	1231.5583	1252.7643	1281.3844	1301.7667	1319.7719	1341.5132	1479.3262	1504.2075	3030.8363	3057.7108	3087.9905	3101.0802	3116.7907	3164.0576	3205.0165	3227.7205
C1OC23C4C5C4C12CC35	C1O[C@@]23[C@@H]4[C@H]5[C@@H]4[C@@]12C[C@@H]35	
InChI=1S/C8H8O/c1-3-4-5-6(4)8(3)7(1,5)2-9-8/h3-6H,1-2H2	InChI=1S/C8H8O/c1-3-4-5-6(4)8(3)7(1,5)2-9-8/h3-6H,1-2H2/t3-,4-,5+,6-,7-,8+/m1/s1
