16
gdb 10257	2.17432	2.07749	1.11263	0.9529	72.43	-0.2589	0.0255	0.2844	1042.9013	0.126583	-346.532477	-346.523305	-346.522361	-346.56591	33.759	
C	 0.0520049876	 1.5317367679	 0.0954898644	-0.39426
C	 0.0158959504	 0.0155114966	-0.0101410425	 0.132597
O	 0.6925836082	-0.5032548338	 1.1143168498	-0.430485
C	-1.4563403246	-0.5340685227	-0.0455374335	-0.356569
C	-2.1900470636	-0.063599682	-1.2208586374	 0.33062
C	-2.7676560008	 0.336567195	-2.1950112709	-0.445877
C	-1.4335964861	-1.9988121853	 0.0222412585	 0.290549
C	-1.3463812882	-3.1956218141	 0.0951509926	-0.428535
H	 1.0899862306	 1.872825054	 0.115218537	 0.127824
H	-0.4573563806	 1.9930955378	-0.7531048042	 0.132676
H	-0.4312067173	 1.858266171	 1.0220481037	 0.123315
H	 0.4986075576	-0.3060021815	-0.945653525	 0.085258
H	 0.6392631619	-1.4660620003	 1.0690523281	 0.286274
H	-1.9472227319	-0.1544170251	 0.861931497	 0.140614
H	-3.2886330334	 0.6859522069	-3.0520288838	 0.20153
H	-1.30529093	-4.2557415245	 0.1499859661	 0.204468
78.507	131.7737	147.2081	170.9697	222.4232	327.9856	345.3672	380.0537	421.2034	456.4838	498.8681	538.0299	564.7696	634.58	642.0551	654.3201	664.767	848.6318	921.6996	962.6308	1037.507	1069.8052	1091.5367	1156.7686	1241.0198	1297.7568	1307.9137	1367.2106	1397.8238	1440.6514	1485.5315	1496.6587	2232.5891	2241.9467	2985.449	3012.5634	3048.161	3120.3783	3140.5857	3500.5615	3503.2434	3775.3126
CC(O)C(C#C)C#C	C[C@@H](O)C(C#C)C#C	
InChI=1S/C7H8O/c1-4-7(5-2)6(3)8/h1-2,6-8H,3H3	InChI=1S/C7H8O/c1-4-7(5-2)6(3)8/h1-2,6-8H,3H3/t6-/m1/s1
