25
gdb 88193	3.084	1.1468	0.98655	0.0954	92.87	-0.2515	0.084	0.3355	1351.5652	0.23125	-352.376849	-352.367848	-352.366904	-352.409999	36.273	
C	-0.1072743833	 1.5295449732	-0.1253561507	-0.412985
C	 0.0279471604	 0.0284236614	 0.0161831452	-0.065358
C	 1.3584143784	-0.6650833619	-0.1814501323	-0.333067
C	 0.7031452039	-0.65208736	 1.1850732022	 0.398307
C	 1.3559184702	 0.1513221599	 2.3016706888	-0.270965
C	 2.3932651936	-0.6939034415	 3.0607838433	-0.187925
C	 1.7808068246	-2.000489906	 3.5847061573	-0.17793
C	 1.1303049236	-2.8033616684	 2.4487303563	-0.18922
C	 0.0974961428	-1.954964049	 1.6901883879	-0.26344
H	 0.7888544409	 2.0579618359	 0.2115262489	 0.114965
H	-0.2698041723	 1.8038406076	-1.1738254099	 0.114656
H	-0.9561192601	 1.9137957005	 0.4519985248	 0.113879
H	-0.8304981373	-0.5160868776	-0.3735193986	 0.074909
H	 1.3877387943	-1.5942875067	-0.7422216918	 0.101605
H	 2.2307895795	-0.0344249332	-0.3284116262	 0.100851
H	 1.8304192093	 1.0559310695	 1.909291715	 0.086883
H	 0.5814221016	 0.4863436153	 3.0074430399	 0.08838
H	 3.2253326106	-0.9309691744	 2.3841580014	 0.093953
H	 2.8166488252	-0.1125214927	 3.8878611913	 0.085438
H	 2.5445889768	-2.6033010985	 4.0891033306	 0.086909
H	 1.0199307484	-1.7645495865	 4.3424115108	 0.088969
H	 1.9089526469	-3.1337061445	 1.7480540902	 0.093523
H	 0.6575023424	-3.710039309	 2.8433740547	 0.085626
H	-0.7420049387	-1.7244619003	 2.3628969398	 0.087892
H	-0.3226773514	-2.524619173	 0.853034621	 0.084145
105.2509	148.9268	186.9917	207.1956	250.9816	295.7416	362.2898	392.9691	413.6486	458.4262	471.8811	559.5275	681.5403	788.3469	796.4291	839.3078	859.2117	876.1614	902.0168	921.0988	930.217	971.0812	984.2112	1021.5959	1037.6744	1048.6134	1077.0621	1084.3512	1113.5105	1135.858	1156.9173	1168.3082	1191.9252	1230.4463	1278.4448	1280.176	1304.0161	1336.1243	1362.3588	1367.0571	1375.0384	1378.9908	1394.8093	1410.5038	1431.212	1476.047	1480.8314	1483.7541	1486.5837	1494.5335	1494.8648	1504.029	1506.1871	2995.5969	3000.8783	3006.8645	3016.3918	3017.5533	3027.6904	3053.0985	3058.3486	3060.4416	3066.025	3071.7764	3082.9589	3101.9931	3114.2741	3121.3609	3196.3632
CC1CC11CCCCC1	C[C@H]1CC21CCCCC2	
InChI=1S/C9H16/c1-8-7-9(8)5-3-2-4-6-9/h8H,2-7H2,1H3	InChI=1S/C9H16/c1-8-7-9(8)5-3-2-4-6-9/h8H,2-7H2,1H3/t8-/m0/s1
