17
gdb 79970	1.92605	1.85382	1.66955	1.767	67.76	-0.2342	-0.0084	0.2258	949.8245	0.135552	-458.938305	-458.930135	-458.929191	-458.970359	32.326	
O	-0.0750544009	 1.443964787	-0.0484294233	-0.430167
C	-0.0936196716	 0.037597228	-0.0240617267	 0.017889
C	-0.4518871955	-0.7636586618	 1.2280657973	-0.193649
C	-1.1426639967	 0.0187709715	 2.3014781747	-0.107235
C	-2.3057166802	 0.5182578072	 1.8743356377	-0.128091
C	-2.6234407064	 0.085759593	 0.4495117947	 0.019296
O	-2.9266540793	 1.1456889313	-0.4450014356	-0.447734
C	-1.3864333834	-0.7307401748	 0.0378602738	 0.332635
O	-1.5630527747	-1.8685568374	-0.7435826435	-0.472365
H	-0.1355893874	 1.7559647514	 0.8631975647	 0.291237
H	 0.6838208068	-0.395474912	-0.6473724184	 0.113576
H	 0.151411593	-1.6323338502	 1.4637683042	 0.105361
H	-0.708793518	 0.1722340983	 3.2836080867	 0.107793
H	-2.9764452672	 1.1560183634	 2.4383379785	 0.109468
H	-3.5027474301	-0.5708617055	 0.4361027391	 0.101885
H	-2.1056664926	 1.649974181	-0.5397945914	 0.290805
H	-1.8339301355	-1.5773672905	-1.6225386824	 0.289296
151.6654	192.6741	227.9798	271.4565	274.3006	312.1244	350.698	381.1859	500.2267	573.3791	590.6568	616.3259	622.5248	733.7034	781.2891	797.3431	867.5536	919.296	955.8043	969.1549	993.3408	1025.6934	1058.0075	1082.4956	1108.7647	1145.1448	1191.6823	1239.8457	1274.5545	1297.5066	1312.7233	1321.0808	1366.024	1367.9905	1456.3055	1456.9256	1660.9187	3032.7102	3153.0614	3181.2412	3189.9795	3212.2561	3728.918	3771.1885	3782.8405
OC1C2C=CC(O)C12O	O[C@H]1[C@H]2C=C[C@@H](O)[C@@]12O	
InChI=1S/C6H8O3/c7-4-2-1-3-5(8)6(3,4)9/h1-5,7-9H	InChI=1S/C6H8O3/c7-4-2-1-3-5(8)6(3,4)9/h1-5,7-9H/t3-,4-,5+,6-/m1/s1
