18
gdb 30096	3.70511	1.14227	1.05627	1.0564	79.31	-0.2256	0.0085	0.2341	1200.87	0.149001	-401.976282	-401.968324	-401.96738	-402.009334	30.068	
C	-0.0940663799	 1.5187014022	-0.1980401963	-0.419255
C	-0.0144437102	 0.0253260288	 0.0172327261	 0.009995
C	 1.2694194417	-0.7245742913	-0.1718269217	-0.292825
C	 0.7012244906	-0.5878577219	 1.225868439	-0.144145
C	 1.3966510303	 0.2393568051	 2.2162550908	 0.416083
N	 2.2971403122	 1.1610829828	 2.0445830666	-0.320945
C	 2.5848283704	 1.6159498049	 3.3249422903	-0.113428
C	 1.8381437256	 0.9298710104	 4.2180852745	-0.050569
O	 1.0658852472	 0.0402611609	 3.5211475413	-0.180249
H	 0.8190020627	 2.0151327093	 0.1382140422	 0.152204
H	-0.2347331561	 1.7421820176	-1.2612152395	 0.115805
H	-0.938269686	 1.9527363696	 0.3488900046	 0.114891
H	-0.9159808401	-0.5172158665	-0.2565658817	 0.090638
H	 1.252625753	-1.7082289267	-0.6278866654	 0.114054
H	 2.1607345239	-0.1397196749	-0.3716384772	 0.14117
H	 0.2271708339	-1.4582568491	 1.6647699548	 0.102109
H	 3.3096451806	 2.3946034788	 3.5019863575	 0.122041
H	 1.7317466204	 0.92615495	 5.288773914	 0.142427
53.202	127.9684	177.3207	219.7663	278.1102	352.4417	427.2468	480.3767	627.6754	675.944	741.7455	754.3997	786.334	854.9679	862.0669	879.1607	931.0793	933.8957	962.4636	1022.5417	1079.8299	1083.8778	1104.2627	1113.3203	1144.2935	1149.9341	1177.2321	1195.4543	1207.3908	1233.3927	1345.3234	1392.2949	1426.3516	1443.1297	1487.5859	1502.5486	1503.4821	1559.6251	1610.6475	3033.3617	3090.6239	3123.37	3135.6174	3141.8832	3177.653	3227.6213	3262.5385	3302.3575
CC1CC1C1=NC=CO1	C[C@H]1C[C@H]1c1ncco1	
InChI=1S/C7H9NO/c1-5-4-6(5)7-8-2-3-9-7/h2-3,5-6H,4H2,1H3	InChI=1S/C7H9NO/c1-5-4-6(5)7-8-2-3-9-7/h2-3,5-6H,4H2,1H3/t5-,6+/m0/s1
