20
gdb 59137	4.14217	1.0805	0.99616	1.1462	79.34	-0.2309	0.0687	0.2996	1256.7601	0.170604	-403.042718	-403.034448	-403.033504	-403.075685	32.174	
C	 0.0464983092	 1.5764627962	-0.0274808989	-0.403425
C	 0.0652760179	 0.0551498879	 0.1295593678	 0.100639
O	 0.7121458256	-0.3373459531	 1.3405484112	-0.432017
C	-1.3276976113	-0.5522417334	 0.0476561532	-0.01117
C	-2.0074890881	-0.7771299413	-1.3122646696	-0.028826
C	-1.1917616518	-2.0646100258	-1.6492203461	-0.073662
C	-2.4997799202	-2.811053577	-1.8757041121	-0.185704
N	-2.9005592752	-1.9018054759	-0.7179325631	-0.169115
C	-1.4765545349	-2.0695883609	-0.1144042423	-0.01806
H	 1.0585572743	 1.9793406612	 0.0650671037	 0.124989
H	-0.3586171553	 1.8705191859	-1.0014460677	 0.11871
H	-0.5792605002	 2.0386788574	 0.7462620989	 0.108205
H	 0.6926238597	-0.3759769267	-0.6599456731	 0.086748
H	 0.2034669241	 0.0278760292	 2.0733660602	 0.276511
H	-1.99830801	-0.1230052481	 0.8050887242	 0.070237
H	-2.4323394937	-0.0557463368	-2.0137214756	 0.080132
H	-0.228873048	-2.1464275157	-2.1635204495	 0.069813
H	-3.0570572797	-2.6139266814	-2.7977615118	 0.099343
H	-2.537947805	-3.8765131474	-1.6253234777	 0.100955
H	-1.2697219376	-2.8698016942	 0.5976442383	 0.085696
69.5412	149.5232	158.3846	241.3718	278.2337	321.4048	377.2163	459.0119	493.4153	533.2264	712.9607	794.368	811.8412	845.6572	859.7605	892.397	911.4551	921.326	939.6888	993.9623	1027.5501	1032.5938	1060.4652	1064.9654	1103.7807	1107.1593	1131.5949	1161.5699	1167.1877	1179.8346	1195.2019	1226.6792	1247.691	1272.2191	1283.3471	1314.5996	1332.9574	1401.9195	1412.8593	1423.922	1490.7592	1495.2516	1519.3392	3015.2785	3025.0457	3032.2191	3042.557	3052.2894	3090.874	3092.4627	3094.1944	3108.9562	3118.8958	3795.6046
CC(O)C1C2C3CN2C13	C[C@@H](O)[C@H]1[C@H]2[C@@H]3CN2[C@H]13	
InChI=1S/C7H11NO/c1-3(9)5-6-4-2-8(6)7(4)5/h3-7,9H,2H2,1H3	InChI=1S/C7H11NO/c1-3(9)5-6-4-2-8(6)7(4)5/h3-7,9H,2H2,1H3/t3-,4-,5-,6+,7-/m1/s1
