15
gdb 29348	2.04489	1.8724	0.97979	2.7357	78.71	-0.1783	0.0217	0.2	1129.0693	0.112321	-416.808297	-416.799355	-416.798411	-416.841372	33.778	
N	 0.1046125468	 1.3838507606	 0.1796064525	-0.617553
C	 0.0280173159	-0.0030051897	 0.0406467735	 0.222177
C	-1.0819833092	-0.841392941	-0.0068669654	 0.038927
C	-2.4391723698	-0.4743960471	-0.0369286169	 0.127263
C	-3.6167761965	-0.2042887253	-0.065014102	-0.436013
C	-0.5710628052	-2.1888154855	-0.0494999291	 0.222433
O	-1.3264856947	-3.3139005706	-0.1162184411	-0.448151
C	 0.7927375982	-2.133483367	-0.0375185149	-0.18881
N	 1.1409835393	-0.7788209868	 0.0098826371	-0.293327
H	 0.6246044917	 1.8326246852	-0.5673510525	 0.248637
H	-0.8244009984	 1.7859459442	 0.2186266139	 0.258927
H	-4.6485023887	 0.0437190875	-0.0862761136	 0.181909
H	-2.2521500284	-3.0420200527	-0.1200225245	 0.297654
H	 1.5369381155	-2.9082230718	-0.0840739972	 0.123513
H	 2.0676443435	-0.4322402701	 0.1849938401	 0.262412
111.0998	137.7127	192.4078	221.4077	289.6803	304.2933	334.3521	400.0989	409.0519	440.4961	505.6465	542.4592	590.2439	597.8657	653.7729	688.0352	691.3217	718.6513	777.1311	806.8508	1035.511	1081.7627	1155.9134	1194.9464	1253.353	1332.625	1352.474	1439.9807	1537.1877	1594.8174	1649.237	1674.5196	2207.3094	3291.5848	3501.8078	3507.5649	3603.9559	3685.7132	3790.2897
NC1=C(C#C)C(O)=CN1	Nc1c(C#C)c(O)c[nH]1	
InChI=1S/C6H6N2O/c1-2-4-5(9)3-8-6(4)7/h1,3,8-9H,7H2	InChI=1S/C6H6N2O/c1-2-4-5(9)3-8-6(4)7/h1,3,8-9H,7H2
