16
gdb 130271	4.74888	0.82813	0.71659	2.8268	67.47	-0.2375	-0.0057	0.2317	1503.9755	0.124642	-471.208501	-471.199612	-471.198668	-471.243981	31.396	
N	 0.0582936513	 1.280215216	 0.3705052473	-0.585722
C	-0.0285301076	-0.0601338602	 0.0984862986	 0.404591
N	-1.0674797892	-0.6181932978	-0.4795748729	-0.214801
O	-0.7224288948	-1.9902197264	-0.4633678051	-0.208398
C	 0.4818233432	-2.078361063	 0.1023398881	 0.445666
C	 1.1030641928	-3.426529441	 0.2212253443	-0.317551
C	 2.0978428064	-3.5133644407	 1.3761982105	-0.072242
O	 2.6346349858	-4.8249445066	 1.3486690291	-0.418762
N	 0.9705129082	-0.9323556875	 0.4756885446	-0.366767
H	 1.0033735465	 1.6259741697	 0.4344126474	 0.266579
H	-0.5601937268	 1.8651667291	-0.1708816362	 0.267222
H	 0.3162648167	-4.1767156627	 0.3423169669	 0.145114
H	 1.6247770714	-3.6698871694	-0.7128791044	 0.147589
H	 2.8742404066	-2.7469313466	 1.2491901536	 0.114468
H	 1.5817711591	-3.3033408558	 2.3249850073	 0.102148
H	 3.2790349505	-4.9006262872	 2.0581178808	 0.290867
15.6175	83.5555	116.6689	218.7591	251.0861	319.8735	339.5949	351.3438	389.2246	472.5254	568.8606	660.7673	701.9926	774.0154	805.2799	817.4196	928.868	1017.3696	1035.555	1063.7549	1082.9486	1094.5745	1130.5945	1208.1924	1229.6887	1279.5965	1305.3615	1374.6506	1450.876	1466.0858	1476.7471	1527.4351	1581.2148	1633.0362	1660.2122	2991.0685	3030.8381	3042.6569	3099.1157	3584.5062	3694.0984	3835.778
NC1=NOC(CCO)=N1	Nc1noc(CCO)n1	
InChI=1S/C4H7N3O2/c5-4-6-3(1-2-8)9-7-4/h8H,1-2H2,(H2,5,7)	InChI=1S/C4H7N3O2/c5-4-6-3(1-2-8)9-7-4/h8H,1-2H2,(H2,5,7)
