21
gdb 97654	3.30692	0.68661	0.65717	1.0493	91.17	-0.2318	0.0361	0.2679	1835.5503	0.179649	-387.047625	-387.036717	-387.035772	-387.084776	38.719	
C	-0.184843529	 1.5099027314	 0.0894120091	-0.415556
C	-0.076429625	 0.0028856442	 0.1553713031	-0.010938
C	 1.1554485064	-0.7257593498	-0.3002030253	-0.318091
C	 0.7975282594	-0.7208687255	 1.1847125886	 0.141526
C	 1.676642661	 0.062076185	 2.1506801277	-0.459802
C	 0.2546097417	-1.937867607	 1.7292779275	 0.011321
C	-0.1993767871	-2.9467488214	 2.2085032602	 0.117369
C	-0.7260989463	-4.1800779315	 2.7742111776	-0.220758
O	-2.0418561201	-3.9632488102	 3.2764702551	-0.410257
H	 0.7798410181	 2.0022074352	 0.2379715519	 0.116697
H	-0.5586206183	 1.8181673656	-0.8933577616	 0.121016
H	-0.8788726272	 1.8950609699	 0.8443132673	 0.123641
H	-1.0115291887	-0.5117902398	-0.0447282087	 0.09936
H	 1.0475059792	-1.6546978033	-0.8475245543	 0.118158
H	 2.0175998147	-0.1301221055	-0.5851429069	 0.109587
H	 2.1004477281	 0.9524027997	 1.6802045451	 0.112886
H	 1.1071072145	 0.3780055241	 3.0304232633	 0.127106
H	 2.507370147	-0.5610036609	 2.496326064	 0.125105
H	-0.7242466396	-4.9635737492	 1.998260899	 0.112193
H	-0.0503114443	-4.5263862529	 3.5737325941	 0.11301
H	-2.3492656343	-4.800119198	 3.6400516232	 0.286427
25.0804	72.9648	94.9436	167.4389	182.2907	190.9102	231.8724	268.1032	295.3713	309.4504	326.501	432.3504	507.2703	538.6426	555.2395	638.6412	765.2694	818.0704	891.1776	922.2395	957.627	1013.249	1025.584	1033.5817	1059.2713	1084.8515	1106.5272	1125.9023	1133.5571	1193.284	1247.2295	1250.2606	1295.7008	1311.4621	1400.9446	1417.0693	1425.4318	1458.7503	1483.9424	1484.3595	1493.6536	1498.6392	1501.8279	1512.2582	2357.8083	2958.2105	2974.9911	3032.3805	3040.7511	3090.72	3103.5475	3108.4115	3123.4356	3128.3848	3154.8566	3220.378	3813.9764
CC1CC1(C)C#CCO	C[C@H]1C[C@]1(C)C#CCO	
InChI=1S/C8H12O/c1-7-6-8(7,2)4-3-5-9/h7,9H,5-6H2,1-2H3	InChI=1S/C8H12O/c1-7-6-8(7,2)4-3-5-9/h7,9H,5-6H2,1-2H3/t7-,8-/m0/s1
