27
gdb 105227	1.61406	1.38344	1.06054	0.0912	95.78	-0.2532	0.0822	0.3354	1420.2571	0.250227	-353.557765	-353.546413	-353.545469	-353.593587	43.056	
C	 1.182302106	 1.4428581336	 0.2975428168	-0.376313
C	 0.2115087571	 0.2985793897	-0.0270968367	-0.261176
C	 0.5367999565	-0.4437906414	-1.3227665593	 0.375995
C	 1.7359163635	-1.3726460733	-1.2740738349	-0.354476
C	 0.3466425448	-1.9496199921	-1.3889159295	-0.030958
C	-0.2676080396	-2.7970818617	-0.2944067984	-0.419042
C	 0.2123222632	 0.3692477205	-2.593401017	-0.031729
C	 1.0184848676	-0.0184400163	-3.841244603	-0.40924
C	-1.2952839116	 0.3226678695	-2.9006147101	-0.381986
H	 2.208877138	 1.072505318	 0.3870818253	 0.116046
H	 1.1784653587	 2.2201659464	-0.4730648602	 0.11722
H	 0.9140064995	 1.9217253103	 1.2447828595	 0.107791
H	 0.2178588938	-0.4027283623	 0.8126588139	 0.092263
H	-0.8111152227	 0.6943731601	-0.0744816109	 0.093181
H	 2.4044925181	-1.4454411987	-2.1236264486	 0.103995
H	 2.2372275351	-1.4717470577	-0.3149841065	 0.098639
H	 0.0963913085	-2.3121700871	-2.3839865806	 0.076995
H	 0.0633289168	-2.4951713652	 0.7028598505	 0.116573
H	-1.3625573819	-2.7479599642	-0.3109841618	 0.114554
H	 0.0170065112	-3.8477894582	-0.4219826951	 0.114367
H	 0.4664939609	 1.4149457025	-2.3756864287	 0.069508
H	 0.861934574	-1.0650800029	-4.1268314018	 0.11477
H	 0.7080417306	 0.5964746906	-4.6923579231	 0.108528
H	 2.0913014949	 0.1358386072	-3.6961761678	 0.115578
H	-1.5458553461	 0.9943505049	-3.7285284609	 0.105481
H	-1.6051998072	-0.6886456266	-3.1865093661	 0.111605
H	-1.8980290198	 0.6214998743	-2.037839915	 0.111833
67.719	99.0484	147.6301	166.3036	212.5439	219.3239	226.589	232.7084	264.7343	299.0993	328.3125	387.3305	408.9797	453.3756	498.2993	554.1579	640.5292	773.7283	802.4421	847.5702	888.3271	912.9782	924.5557	934.9277	963.0235	981.6218	1006.7048	1039.9752	1063.4646	1075.5899	1104.8992	1126.5164	1141.648	1156.7756	1185.996	1195.6453	1247.6851	1282.6067	1328.6257	1349.0186	1360.1768	1386.1361	1400.2433	1409.6124	1412.1884	1420.9755	1427.7677	1477.6552	1486.637	1494.2025	1495.4984	1497.9052	1500.431	1504.9939	1505.5674	1510.778	1513.8983	3013.366	3025.2472	3027.472	3029.6822	3033.4546	3035.1421	3071.695	3081.8398	3089.7782	3097.5369	3101.0445	3102.9539	3103.8298	3107.1844	3108.7753	3122.8664	3127.548	3212.0658
CCC1(CC1C)C(C)C	CC[C@]1(C[C@H]1C)C(C)C	
InChI=1S/C9H18/c1-5-9(7(2)3)6-8(9)4/h7-8H,5-6H2,1-4H3	InChI=1S/C9H18/c1-5-9(7(2)3)6-8(9)4/h7-8H,5-6H2,1-4H3/t8-,9+/m1/s1
