12
gdb 5142	5.94254	1.31522	1.20041	3.1356	59.77	-0.2631	-0.0191	0.244	947.5007	0.085555	-377.562846	-377.556254	-377.55531	-377.594577	22.991	
N	-0.0123670175	-1.1562927244	 0.5062616049	-0.29512
C	 0.0043100403	-0.0263334794	 0.269248583	 0.269802
C	 0.0222617194	 1.4108504945	-0.0290652188	-0.448896
C	 1.3990959353	 1.978360375	-0.1271565394	 0.345471
C	 2.1281291802	 2.5392582115	-1.1212886687	-0.184141
N	 3.3702524831	 2.9152008331	-0.62470849	-0.249535
C	 3.3290794352	 2.5662220875	 0.6179100157	 0.081422
O	 2.1666332186	 1.9912815933	 1.0063863602	-0.168769
H	-0.4939275	 1.5798138915	-0.9792348592	 0.176237
H	-0.5558689154	 1.9302332878	 0.7452731374	 0.175956
H	 1.8543635871	 2.6991287142	-2.1521596368	 0.136263
H	 4.0912685937	 2.6734884755	 1.3733774616	 0.161311
53.4494	104.2511	276.6811	313.7621	378.2984	478.2104	644.8668	666.9223	768.1334	848.5946	867.7003	912.7102	934.2204	941.1709	994.9409	1121.8583	1139.4542	1200.7607	1243.7286	1273.8859	1339.4491	1363.6166	1446.3605	1548.898	1639.7726	2369.6115	3039.6774	3095.3842	3265.8102	3282.1386
N#CCC1=CN=CO1	N#CCc1cnco1	
InChI=1S/C5H4N2O/c6-2-1-5-3-7-4-8-5/h3-4H,1H2	InChI=1S/C5H4N2O/c6-2-1-5-3-7-4-8-5/h3-4H,1H2
