14
gdb 34086	3.68568	1.60331	1.38	4.5814	70.12	-0.2544	-0.0354	0.219	910.2509	0.101661	-399.507029	-399.500585	-399.49964	-399.537698	26.045	
N	-0.0977792092	-1.1268505384	 0.0797098521	-0.33027
C	-0.0487014157	 0.0252079059	 0.0127144154	 0.202605
C	 0.0332155027	 1.4664403108	-0.1107203054	 0.292917
O	-0.7702163274	 2.1590849011	 0.945325663	-0.310819
C	-1.2971320906	 3.0059805276	-0.0495808659	 0.097748
C	-0.1724320199	 3.5788701126	-0.9998476892	-0.149028
C	 1.2196587274	 3.3864665322	-0.5353661199	-0.062392
C	 1.3857583018	 2.1357417739	-0.0820262689	-0.153479
C	-0.8008298123	 2.2198618758	-1.2033757833	-0.196912
H	-2.2101220451	 3.5419361562	 0.1741446266	 0.129047
H	-0.4668055945	 4.4004763144	-1.6408445064	 0.105328
H	 1.9536620456	 4.1807460038	-0.4877183817	 0.121742
H	 2.2473356377	 1.7123136066	 0.4138309474	 0.128733
H	-1.2495714607	 1.8187904576	-2.1021036137	 0.12478
153.0202	165.6701	395.2076	410.0484	489.4136	530.9534	554.4453	612.6209	684.8149	715.0286	752.1473	793.4643	808.6231	823.1351	870.6311	925.3687	938.065	986.3479	1020.2114	1047.7438	1057.6842	1088.1745	1120.6034	1130.6307	1204.3146	1250.9668	1298.2703	1355.6629	1370.0855	1622.7088	2368.1369	3197.6728	3202.2413	3214.8039	3218.2295	3247.085
N#CC12OC3C(C=C1)C23	N#C[C@@]12O[C@H]3[C@@H](C=C1)[C@@H]23	
InChI=1S/C7H5NO/c8-3-7-2-1-4-5(7)6(4)9-7/h1-2,4-6H	InChI=1S/C7H5NO/c8-3-7-2-1-4-5(7)6(4)9-7/h1-2,4-6H/t4-,5+,6-,7-/m0/s1
