14
gdb 131692	2.65443	1.4851	0.95795	2.6591	67.11	-0.2519	-0.0665	0.1853	1128.5836	0.100528	-473.80689	-473.798974	-473.798029	-473.839864	28.46	
O	-0.0223840686	 1.4328286219	 0.0065374307	-0.425574
C	-0.0010795786	 0.0180448509	 0.0022566335	-0.157516
C	-1.4096870744	-0.4940267226	 0.0125992081	 0.044117
C	-2.4844743299	 0.3209662626	 0.0240239549	 0.056228
O	-3.7651813844	-0.0881202723	 0.0333465999	-0.227631
N	-4.0735498636	-1.4393925338	 0.0314021244	-0.054758
C	-3.0817744645	-2.2594087051	 0.020589661	-0.03832
C	-1.6433950423	-1.9242046839	 0.0105830465	 0.291729
O	-0.7709035474	-2.781817593	-0.0007055575	-0.364405
H	 0.8847785727	 1.7494241158	 0.0001722586	 0.299196
H	 0.512553728	-0.387077779	-0.8838390228	 0.123806
H	 0.5273271321	-0.3922050341	 0.8772314573	 0.123769
H	-2.4219631369	 1.4018762207	 0.0267869652	 0.173106
H	-3.3633877423	-3.3092684682	 0.0192335301	 0.156253
76.0184	130.8485	185.1415	205.9569	267.6175	327.9077	418.4557	493.7551	509.0597	542.5372	616.1952	773.5621	777.5173	854.3759	893.0461	931.0039	959.4296	1043.1723	1073.7375	1146.5223	1169.6756	1228.1334	1238.8428	1276.8132	1320.1697	1415.2612	1472.3101	1504.0861	1620.8367	1670.7245	1744.8187	2980.0542	3000.5739	3180.9968	3229.6298	3847.8691
OCC1=CON=CC1=O	OCc1concc1=O	
InChI=1S/C5H5NO3/c7-2-4-3-9-6-1-5(4)8/h1,3,7H,2H2	InChI=1S/C5H5NO3/c7-2-4-3-9-6-1-5(4)8/h1,3,7H,2H2
