19
gdb 85901	2.72967	1.38742	1.21887	3.0296	70.31	-0.2567	0.0654	0.3221	1099.5124	0.157676	-460.150301	-460.141408	-460.140463	-460.183295	34.429	
C	 0.0002083917	 1.5408737392	 0.026337716	-0.456253
C	 0.0222310395	 0.01611351	-0.0242961191	 0.355251
O	-1.3029884177	-0.5235421356	 0.0244366887	-0.481157
C	 0.8137658104	-0.5627150996	-1.2252971672	-0.314126
C	 1.3069637813	-1.9548235024	-0.764768363	 0.118558
O	 2.5043769071	-2.3951277248	-1.379194889	-0.441173
C	 1.5064631793	-1.7755015061	 0.7256107245	 0.036166
O	 2.1479002153	-0.5401395785	 1.0836707169	-0.264832
C	 0.7252782979	-0.6209208216	 1.1720881572	 0.036081
H	 1.0152585107	 1.9358476126	 0.1237495031	 0.139309
H	-0.4379347442	 1.9576849674	-0.8887856351	 0.106339
H	-0.5948439779	 1.8840136623	 0.8782741913	 0.122496
H	-1.8274182513	-0.0762144182	-0.6479597345	 0.278828
H	 0.1890456598	-0.6081249649	-2.1224585773	 0.082501
H	 1.6900976469	 0.0531610162	-1.4404441362	 0.122123
H	 0.5044917792	-2.6978834146	-0.8952468069	 0.07929
H	 2.3213182457	-2.5555344184	-2.3099738118	 0.28387
H	 1.7395598443	-2.6251042003	 1.3605604814	 0.099692
H	 0.2880122221	-0.5319031026	 2.163170381	 0.097038
102.32	167.3784	232.3114	247.7346	250.1937	256.0528	332.6609	345.179	362.0895	440.4828	509.4012	540.8189	610.4986	652.5599	804.8609	849.4089	862.6297	906.0061	938.5967	950.3787	968.1184	1013.4084	1049.2674	1097.7447	1106.5367	1112.2032	1159.5966	1202.295	1211.3947	1235.7807	1257.7376	1287.1353	1309.0717	1350.8268	1395.7474	1402.86	1438.5174	1440.5598	1473.4339	1490.7963	1498.273	2981.2874	3026.1462	3058.7112	3094.6313	3115.1773	3122.3371	3150.9074	3167.1371	3809.1207	3823.2978
CC1(O)CC(O)C2OC12	C[C@@]1(O)C[C@@H](O)[C@H]2O[C@@H]12	
InChI=1S/C6H10O3/c1-6(8)2-3(7)4-5(6)9-4/h3-5,7-8H,2H2,1H3	InChI=1S/C6H10O3/c1-6(8)2-3(7)4-5(6)9-4/h3-5,7-8H,2H2,1H3/t3-,4-,5-,6-/m1/s1
