17
gdb 108037	3.71356	1.44595	1.32433	1.7121	71.06	-0.2217	-0.0092	0.2125	998.1164	0.136788	-417.9339	-417.926561	-417.925617	-417.965831	28.354	
C	 0.1614231814	 1.3144281793	 0.1609646697	-0.260968
O	-0.1684270561	-0.0355330099	-0.1418904949	-0.277932
C	 0.5110993481	-0.5386084491	-1.2185689503	 0.406224
C	 0.1651967772	-0.3597484681	-2.686402016	-0.251585
N	 0.8843369555	-1.6914130584	-2.9786670206	-0.181262
C	 2.2597747137	-1.2713144111	-3.1909881398	 0.012178
N	 2.9095012818	-0.8846449465	-2.1685506129	-0.186902
C	 1.9752936055	-1.0569870632	-1.0678277368	-0.089732
C	 0.865748473	-1.969530242	-1.4860051614	-0.132336
H	 1.2324146086	 1.4218935185	 0.3768969381	 0.123031
H	-0.1009427076	 1.988829973	-0.6652039358	 0.11813
H	-0.4183952965	 1.5900040526	 1.0436619525	 0.134216
H	-0.902909488	-0.4855751941	-2.8727738943	 0.12912
H	 0.5494961802	 0.5001463689	-3.2457654488	 0.112353
H	 2.6426348333	-1.2347289726	-4.2055650701	 0.126287
H	 2.3661009319	-1.0626957069	-0.0586184059	 0.109018
H	 0.544364428	-2.9191830404	-1.0767497225	 0.110161
83.9741	161.4067	169.8135	334.7116	358.6675	393.4622	460.161	557.3553	621.0683	731.8783	777.6226	830.1734	835.054	866.048	908.3515	937.5197	954.1086	992.8182	1019.8467	1021.5776	1042.0002	1067.7809	1094.3569	1165.0237	1170.2056	1180.1711	1208.9203	1242.5665	1249.1594	1291.5489	1313.9292	1400.74	1484.3468	1490.3662	1503.6337	1507.4365	1658.9669	3002.4259	3042.0681	3060.5495	3116.9106	3132.6723	3189.2853	3200.5798	3211.865
COC12CN3C=NC1C23	CO[C@@]12CN3[CH][N][C@@H]1[C@@H]23	
InChI=1S/C6H8N2O/c1-9-6-2-8-3-7-4(6)5(6)8/h3-5H,2H2,1H3	InChI=1S/C6H8N2O/c1-9-6-2-8-3-7-4(6)5(6)8/h3-5H,2H2,1H3/t4-,5+,6+/m1/s1
