18
gdb 30115	3.75669	1.10904	1.08721	1.5996	79.6	-0.2168	0.0092	0.226	1191.4839	0.148414	-401.942143	-401.934109	-401.933164	-401.975476	30.291	
C	 0.6036606046	 1.4894426635	-0.5345954852	-0.315941
N	 0.0865229155	 0.1945840967	-0.1122913928	-0.081874
C	 1.0579802018	-0.8668389074	 0.0948131234	-0.249756
C	 0.3640441755	-0.2664365435	 1.2692885248	-0.125706
C	 1.1087024417	 0.5376161458	 2.25079148	 0.378748
C	 2.4270439136	 0.7795425103	 2.5055632747	-0.278403
C	 2.4743025946	 1.6736220539	 3.6234222606	-0.171597
C	 1.1821510088	 1.9045273235	 3.9704072124	-0.019242
O	 0.3397277289	 1.2265187347	 3.1501472493	-0.180005
H	 1.5856504806	 1.7445262987	-0.1087530358	 0.107866
H	 0.6886443627	 1.4873353641	-1.6257500104	 0.121914
H	-0.1073545363	 2.2707167163	-0.2482963312	 0.126672
H	 0.776180079	-1.8566989526	-0.2547430099	 0.117475
H	 2.1125359424	-0.6254641677	-0.0350788152	 0.109642
H	-0.4828654363	-0.7973111881	 1.6986162164	 0.10456
H	 3.2660296199	 0.3584518941	 1.9749355942	 0.109708
H	 3.3516558191	 2.0778032109	 4.103273116	 0.112061
H	 0.7120403338	 2.4921550469	 4.7416896988	 0.133878
41.3609	113.7238	177.736	220.716	282.3557	363.187	427.5998	498.0194	613.8422	628.4753	720.9486	750.6196	772.7795	813.4622	850.3548	863.0359	902.2383	934.0908	994.7409	1027.264	1046.1726	1094.4402	1113.4915	1128.919	1135.4807	1165.6622	1178.3051	1208.1896	1209.5401	1257.2072	1324.684	1381.8154	1431.2494	1447.6871	1489.4492	1498.1838	1509.119	1534.3495	1631.6152	2990.064	3073.4971	3088.5208	3105.7423	3127.9966	3174.1839	3253.1504	3265.3305	3285.4138
CN1CC1C1=CC=CO1	CN1C[C@H]1c1ccco1	
InChI=1S/C7H9NO/c1-8-5-6(8)7-3-2-4-9-7/h2-4,6H,5H2,1H3	InChI=1S/C7H9NO/c1-8-5-6(8)7-3-2-4-9-7/h2-4,6H,5H2,1H3/t6-,8?/m0/s1
