13
gdb 129807	3.47724	1.60594	1.11035	3.9387	61.57	-0.2079	0.0154	0.2233	992.9846	0.090642	-489.837812	-489.830671	-489.829726	-489.869502	26.513	
N	 0.0659968355	 1.4203031641	-0.1364609734	-0.603802
C	-0.0860163019	 0.0543043075	-0.0557987488	 0.334987
C	-1.1236528225	-0.815293167	-0.060933204	 0.105247
O	-2.4936742634	-0.9332745644	-0.0262171897	-0.295346
C	-2.6999132587	-2.3390345333	-0.2484985905	-0.00123
O	-1.4622274712	-3.0474479601	 0.0062940893	-0.26977
C	-0.5241122774	-2.0747745665	-0.0241017112	 0.43558
N	 0.7765629328	-2.0871377318	-0.004985572	-0.28066
O	 1.0645024554	-0.6778918998	-0.0244883618	-0.234586
H	 0.9461036353	 1.7429118266	 0.2436771529	 0.269751
H	-0.7171064597	 1.9421360006	 0.2307770168	 0.268421
H	-3.4629531578	-2.7040405651	 0.4414999596	 0.142973
H	-2.9875204464	-2.5086497508	-1.2946586372	 0.128436
121.8224	187.3004	191.8507	282.3568	309.7713	391.2233	564.234	583.9339	609.0208	657.8444	681.877	729.5295	770.6491	799.0799	903.3027	926.8483	1026.8135	1052.2833	1135.2325	1136.1698	1215.5096	1265.7049	1346.8601	1433.7234	1514.7803	1534.4432	1628.4226	1651.8817	1783.9581	3016.2862	3120.4069	3556.1476	3658.1133
NC1=C2OCOC2=NO1	Nc1c2OCOc2no1	
InChI=1S/C4H4N2O3/c5-3-2-4(6-9-3)8-1-7-2/h1,5H2	InChI=1S/C4H4N2O3/c5-3-2-4(6-9-3)8-1-7-2/h1,5H2
