14
gdb 19004	5.47716	1.92986	1.70048	2.18	60.92	-0.2314	0.0046	0.236	745.3909	0.110226	-378.678758	-378.673195	-378.672251	-378.708221	22.68	
O	-0.0608966571	-0.0268375747	-0.1072944711	-0.3636
C	-0.01895324	 1.1690470471	 0.0372809888	 0.416392
N	-1.0859403236	 2.05578988	 0.1732557612	-0.347722
C	-0.480787837	 3.3729927902	 0.1002904012	 0.027641
C	 0.7702310387	 3.3552259988	-0.8413998444	-0.043583
N	 1.4280116895	 4.3544106234	 0.0715397404	-0.334064
C	 0.7891547198	 3.3421152309	 0.9893200147	-0.02801
C	 1.1694045902	 2.1284637378	 0.0674583708	-0.180209
H	-1.9798924314	 1.8408385658	-0.2413122209	 0.253698
H	-1.1524029101	 4.2269428562	 0.1242795651	 0.106566
H	 0.8178338058	 3.4282276715	-1.9296279044	 0.093085
H	 2.4401026766	 4.2030295938	 0.0602769985	 0.215211
H	 0.850869068	 3.4005347185	 2.0771692833	 0.094984
H	 2.1777184708	 1.7197566606	 0.0522546268	 0.089611
180.2646	379.6896	411.1817	430.9657	531.9816	627.2909	687.0207	738.7347	782.9234	849.0393	871.4916	894.0953	904.8357	930.9574	982.4381	1002.4713	1032.4505	1116.4822	1124.6422	1140.6611	1152.3342	1168.1944	1189.1467	1225.2676	1258.3504	1293.3385	1321.1258	1337.9882	1394.3144	1860.0511	3099.5166	3106.9042	3151.5211	3167.1647	3407.388	3631.5562
O=C1NC2C3NC2C13	O=C1N[C@@H]2[C@H]3N[C@@H]2[C@@H]13	
InChI=1S/C5H6N2O/c8-5-1-2-4(7-5)3(1)6-2/h1-4,6H,(H,7,8)	InChI=1S/C5H6N2O/c8-5-1-2-4(7-5)3(1)6-2/h1-4,6H,(H,7,8)/t1-,2-,3+,4+
