15
gdb 42601	4.04565	1.70473	1.61595	2.1548	66.15	-0.2412	-0.0097	0.2316	832.6523	0.11561	-420.614814	-420.609229	-420.608285	-420.64469	23.724	
O	 0.0252677111	 0.0001037294	-0.0678976799	-0.320136
C	-0.0118825372	 1.1881506616	 0.0264510054	 0.450967
C	-1.1135386263	 2.2711964801	 0.0437783267	-0.211851
C	-0.8173387752	 3.0193055886	 1.3433495053	-0.119225
C	-0.0929894602	 4.2916169805	 0.9639065927	 0.066758
O	-0.1305771587	 4.4559713922	-0.4266313398	-0.230336
C	-0.0955517178	 3.1157204177	-0.8312912373	 0.071144
C	 1.0153865218	 2.3416877981	-0.0054928956	-0.211856
C	 0.730767256	 3.070629873	 1.3074939134	-0.119215
H	-2.1446147308	 2.0814382212	-0.2414643269	 0.090157
H	-1.3957436269	 2.8936305218	 2.2468931096	 0.107105
H	-0.1100408118	 5.207074867	 1.5382881189	 0.119577
H	-0.1171250841	 3.012250988	-1.9118265262	 0.109653
H	 2.042463373	 2.2200716084	-0.3383762332	 0.090154
H	 1.3573943572	 2.9849289624	 2.183125827	 0.107102
148.0534	344.9606	550.0246	558.1077	598.4013	690.9496	711.1017	721.746	747.9131	782.2711	812.1375	821.4252	884.2206	926.9402	949.6451	978.9754	985.3187	1008.9383	1042.4396	1047.6689	1050.0971	1059.466	1093.7621	1117.5799	1169.957	1187.6889	1203.8504	1224.8072	1254.4134	1268.9389	1343.5015	1372.8391	1908.4307	3161.3559	3161.6315	3180.3002	3221.4266	3222.0068	3233.6933
O=C1C2C3C4OC2C1C34	O=C1[C@H]2[C@@H]3[C@@H]4O[C@H]2[C@H]1[C@H]34	
InChI=1S/C7H6O2/c8-5-3-1-2-4(5)7(3)9-6(1)2/h1-4,6-7H	InChI=1S/C7H6O2/c8-5-3-1-2-4(5)7(3)9-6(1)2/h1-4,6-7H/t1-,2+,3-,4+,6+,7-
