15
gdb 67272	2.73262	2.25102	1.74763	1.0925	61.81	-0.224	0.0597	0.2836	800.1037	0.113848	-457.676348	-457.670347	-457.669403	-457.706409	25.239	
O	-0.0196770946	 1.3925662491	-0.0665015002	-0.481724
C	 0.0174332767	 0.017633207	-0.0766319468	 0.394598
C	 0.3848641689	-0.8593113626	 1.1947166773	-0.025796
O	-1.0145992423	-1.0622481698	 1.5077647204	-0.293552
C	-1.2428913113	-0.8678311919	 0.1002487651	 0.015635
C	-0.389978085	-1.9465360267	-0.6517917867	-0.11355
C	 0.8107880728	-2.0814033625	 0.3483663915	 0.074465
O	 1.76059411	-1.5658952241	-0.6251644827	-0.304929
C	 0.6170095166	-0.8986712027	-1.1996967029	-0.014299
H	 0.8831212653	 1.7259568089	-0.0032919043	 0.290765
H	 0.9965038856	-0.5257248334	 2.0313596634	 0.089067
H	-2.2663834603	-0.637170329	-0.1863887009	 0.095882
H	-0.7840310966	-2.7997575807	-1.1945668578	 0.090103
H	 1.12399601	-3.0025858323	 0.8362769082	 0.09194
H	 0.7353531143	-0.5476566892	-2.2233097533	 0.091394
236.2768	265.0594	334.0546	436.2051	485.6539	574.1714	622.3847	710.3497	742.0019	830.288	833.3454	854.9549	874.2023	890.7603	937.0877	946.5299	949.3462	975.3272	998.6968	1025.6541	1064.2885	1111.1223	1116.3763	1155.6213	1183.3812	1197.8393	1213.2155	1247.2447	1275.445	1284.0999	1310.3243	1337.6902	1419.8421	3135.0926	3139.8406	3144.2616	3151.3588	3174.3774	3789.6041
OC12C3OC1C1C3OC21	O[C@@]12[C@H]3O[C@@H]1[C@@H]1[C@H]3O[C@H]21	
InChI=1S/C6H6O3/c7-6-3-1-2(8-3)5(6)9-4(1)6/h1-5,7H	InChI=1S/C6H6O3/c7-6-3-1-2(8-3)5(6)9-4(1)6/h1-5,7H/t1-,2-,3+,4-,5+,6-/m1/s1
