20
gdb 87716	2.42222	1.31211	1.19001	1.3121	75.07	-0.2387	0.0534	0.292	1166.9438	0.169824	-440.244803	-440.23542	-440.234476	-440.278831	35.446	
C	-0.1102660591	 1.4634980215	-0.119778572	-0.39845
C	 0.0219244822	-0.0322683161	 0.0279321456	-0.072812
N	 1.3825170148	-0.5939104518	-0.1190311761	-0.407567
C	 0.7118947971	-0.6800374569	 1.1689832946	 0.301339
C	 1.1798169244	-0.0665666174	 2.4961400405	-0.353252
C	 0.2561827228	-1.0760258153	 3.2248399662	 0.084709
O	-1.0399356427	-0.5714592601	 3.53616803	-0.445684
C	 0.1941351174	-1.9274311226	 1.9130636706	 0.059067
O	-1.0471817977	-2.4731738802	 1.5793073585	-0.4311
H	 0.7482497773	 1.9744851072	 0.3239251216	 0.127548
H	-0.1578743243	 1.7459191436	-1.1767298252	 0.126974
H	-1.0242576008	 1.8300576823	 0.3629379764	 0.105257
H	-0.7947114995	-0.6179683997	-0.3924391887	 0.0986
H	 1.3481086181	-1.4949300218	-0.5920197963	 0.232295
H	 2.2393939388	-0.2508129315	 2.6946733096	 0.12109
H	 0.9738930631	 0.9933454165	 2.6778911566	 0.1037
H	 0.6345154121	-1.5635978874	 4.1252945324	 0.087889
H	-1.1604351178	 0.2663400153	 3.0779046051	 0.293387
H	 0.941414676	-2.7305839282	 1.9102620725	 0.084398
H	-1.6905375123	-1.9463247274	 2.0775759479	 0.282614
69.4249	133.8896	170.401	186.1508	200.8472	240.074	268.7219	376.9626	421.282	456.452	507.2475	528.3378	570.7072	660.3502	774.3227	795.6819	837.8101	855.6093	917.0907	931.4399	1000.1829	1015.4077	1053.4467	1067.3889	1081.1331	1115.8065	1124.4592	1159.7596	1185.4399	1230.3839	1232.3862	1240.8674	1289.9838	1316.1346	1336.2705	1351.7111	1403.1836	1409.6819	1436.1175	1469.3279	1478.2741	1489.8793	1504.3667	3028.0374	3034.7822	3048.5484	3089.9951	3092.1973	3103.3746	3110.5428	3128.0427	3481.5654	3710.4899	3822.094
CC1NC11CC(O)C1O	C[C@H]1N[C@]21C[C@@H](O)[C@H]2O	
InChI=1S/C6H11NO2/c1-3-6(7-3)2-4(8)5(6)9/h3-5,7-9H,2H2,1H3	InChI=1S/C6H11NO2/c1-3-6(7-3)2-4(8)5(6)9/h3-5,7-9H,2H2,1H3/t3-,4-,5-,6+/m1/s1
