20
gdb 94580	3.29275	0.94482	0.82523	3.9035	77.98	-0.237	0.0386	0.2755	1454.528	0.169775	-440.309895	-440.299904	-440.29896	-440.346795	35.578	
C	 0.2758309042	 1.4463042259	 0.2449820174	-0.484226
C	 0.0926170506	-0.0626084432	 0.1788096316	 0.40556
O	 0.1049530813	-0.7593051148	 1.1783802745	-0.377924
N	-0.0887027982	-0.5689067806	-1.0781403834	-0.322786
C	-0.177246998	-1.974516309	-1.3486644823	 0.063899
C	-1.4605560979	-2.5681309556	-2.0009237442	-0.240836
C	-0.5367423281	-3.4723401936	-2.8633326825	-0.252819
C	 0.6390256915	-2.505481958	-2.5590842578	 0.097185
O	 0.7456798452	-1.4463709023	-3.5005717362	-0.447875
H	 1.2847342258	 1.6628512371	 0.6081126623	 0.14963
H	 0.1293456667	 1.9492142294	-0.7143522149	 0.11162
H	-0.4274803777	 1.8532453675	 0.9753960739	 0.15023
H	-0.0003883745	 0.0346070621	-1.8801045236	 0.252917
H	 0.0780832143	-2.5014355147	-0.4284298761	 0.120646
H	-2.1802236334	-3.0508225414	-1.3372442974	 0.107579
H	-1.9769184807	-1.8217929803	-2.6088997753	 0.106695
H	-0.3763065722	-4.4570623485	-2.4157456793	 0.108692
H	-0.7930640376	-3.5994757728	-3.9180897878	 0.095264
H	 1.6235318948	-2.9441202219	-2.3522349693	 0.067756
H	 1.0400378239	-1.8144034453	-4.3391450597	 0.288794
20.3553	48.5219	93.4482	107.5203	185.3284	252.6381	258.7177	343.1088	404.9868	417.5339	517.9053	557.48	597.0879	642.0714	711.1153	783.3276	873.772	894.7412	927.4083	949.2326	966.1224	1005.2933	1032.8861	1050.901	1085.8621	1138.3057	1178.6361	1195.9709	1215.2115	1249.5953	1260.4859	1267.434	1289.5462	1325.8525	1364.2674	1395.3847	1410.052	1469.271	1470.8039	1485.6633	1490.5926	1534.1937	1777.2382	3015.6232	3048.6546	3059.2964	3072.019	3109.2443	3115.6129	3122.533	3132.8806	3134.1375	3641.5536	3825.3253
CC(=O)NC1CCC1O	CC(=O)N[C@H]1CC[C@H]1O	
InChI=1S/C6H11NO2/c1-4(8)7-5-2-3-6(5)9/h5-6,9H,2-3H2,1H3,(H,7,8)	InChI=1S/C6H11NO2/c1-4(8)7-5-2-3-6(5)9/h5-6,9H,2-3H2,1H3,(H,7,8)/t5-,6+/m0/s1
