21
gdb 71240	2.64215	1.77634	1.6191	1.3724	80.66	-0.2465	0.0797	0.3262	961.1639	0.185413	-387.07657	-387.069428	-387.068484	-387.107365	30.964	
O	-0.071113881	 1.4110921699	-0.045232812	-0.497572
C	 0.009949951	 0.00839353	 0.0253683031	 0.421276
C	 0.2922645244	-0.6670282117	 1.4040423256	-0.301117
C	-0.7749643928	-1.7020616081	 1.0033840976	-0.025573
C	-0.4456040163	-2.55553341	-0.2890412561	-0.023083
C	-1.5837622697	-1.7959115672	-1.0365766963	-0.243718
C	-1.4053731334	-0.6824675165	 0.0078865979	-0.044035
C	 0.9103234896	-2.1467498048	-0.8756974356	-0.220293
C	 0.9313411029	-0.6048047396	-1.0340699996	-0.272602
H	 0.8252635168	 1.7646763142	-0.0609868178	 0.270505
H	 1.3153883191	-0.9880326914	 1.6292375089	 0.081168
H	-0.0785320071	-0.0374346493	 2.2183303983	 0.100557
H	-1.3557955216	-2.2188652086	 1.7678077127	 0.061932
H	-0.5398415479	-3.6396441608	-0.1948196112	 0.058855
H	-1.4410252446	-1.5734370551	-2.0995926359	 0.089214
H	-2.5536290743	-2.2861174332	-0.9094281434	 0.095544
H	-2.2158249092	-0.0026664928	 0.2734087671	 0.068143
H	 1.7185380067	-2.4758522496	-0.2134762161	 0.099333
H	 1.0745449052	-2.6374779507	-1.8411485471	 0.095146
H	 0.5848131896	-0.3009129218	-2.0272819653	 0.106319
H	 1.9501839423	-0.2127550328	-0.9162658849	 0.080001
239.7272	256.3851	291.4842	327.4906	378.7278	421.4028	429.7342	483.9492	578.2328	624.1622	706.3272	775.3642	800.1131	827.5423	867.4816	884.2344	928.6598	939.4916	961.4974	973.716	976.7234	1012.524	1035.8479	1056.9103	1081.8912	1107.4752	1125.612	1155.7118	1185.6161	1203.9723	1213.6849	1226.476	1244.5956	1257.943	1274.6191	1291.7926	1307.5632	1324.7864	1348.4242	1367.2042	1381.9119	1481.4772	1482.2802	1494.6803	1512.1941	3017.6924	3031.973	3037.0664	3040.2847	3062.8276	3075.9075	3081.96	3090.0463	3095.2659	3100.0617	3109.936	3796.2359
OC12CC3C(CC13)CC2	O[C@@]12C[C@@H]3[C@@H](C[C@H]13)CC2	
InChI=1S/C8H12O/c9-8-2-1-5-3-7(8)6(5)4-8/h5-7,9H,1-4H2	InChI=1S/C8H12O/c9-8-2-1-5-3-7(8)6(5)4-8/h5-7,9H,1-4H2/t5-,6-,7+,8+/m1/s1
