20
gdb 30678	3.72186	0.94765	0.81912	2.518	81.41	-0.2015	0.0491	0.2506	1421.6818	0.171574	-403.181798	-403.172439	-403.171494	-403.216547	34.855	
C	-0.3481814436	 1.6516707652	-0.182833909	-0.399574
C	-0.0084604421	 0.1612045301	-0.0590727546	-0.0837
C	-1.272267677	-0.6649466025	 0.2222145829	-0.068918
O	-1.8343745093	-0.2255078859	 1.4519221854	-0.423568
C	 0.7107767663	-0.3909383869	-1.2633501259	 0.269785
C	 0.7790870446	 0.1590273571	-2.5262793807	-0.183966
N	 1.5120287491	-0.6845568059	-3.3237899718	-0.240881
C	 1.9213338053	-1.7715871415	-2.5958015701	-0.075768
C	 1.4399642053	-1.6195746747	-1.3180741737	-0.248572
H	 0.5555861995	 2.2504544845	-0.3291025264	 0.109329
H	-1.0158592084	 1.8327101676	-1.0337340184	 0.104665
H	-0.8587281194	 1.9974798326	 0.7181159352	 0.129076
H	 0.639029995	 0.0326439333	 0.8192759296	 0.083103
H	-1.9796461539	-0.5342710618	-0.6132044662	 0.081553
H	-1.009341073	-1.7325213715	 0.265993616	 0.085784
H	-2.6507503893	-0.7109421696	 1.5993172704	 0.284512
H	 0.378673684	 1.0791795685	-2.9189204258	 0.114405
H	 1.7317703303	-0.5183264647	-4.2896087571	 0.258733
H	 2.5179447155	-2.5498218328	-3.0440114432	 0.115698
H	 1.5959308912	-2.305712671	-0.4986860567	 0.088304
35.9751	108.2314	126.9506	217.4789	240.9873	248.4453	289.3446	366.9417	397.2207	461.8566	469.0597	639.807	660.6027	687.0268	720.2991	775.5269	830.4085	874.8774	905.4582	927.7595	957.6195	1036.8339	1071.2419	1087.8499	1094.4155	1100.3243	1159.9123	1165.5019	1232.9868	1248.512	1265.656	1292.9383	1337.5378	1367.7505	1394.916	1413.5322	1449.0991	1466.7666	1491.9068	1506.544	1518.3135	1521.8763	1606.9002	2965.6929	2999.2928	3016.7252	3032.1399	3097.5906	3132.2168	3237.377	3265.5885	3268.6269	3688.5504	3835.1724
CC(CO)C1=CNC=C1	C[C@@H](CO)c1c[nH]cc1	
InChI=1S/C7H11NO/c1-6(5-9)7-2-3-8-4-7/h2-4,6,8-9H,5H2,1H3	InChI=1S/C7H11NO/c1-6(5-9)7-2-3-8-4-7/h2-4,6,8-9H,5H2,1H3/t6-/m0/s1
