18
gdb 8229	5.42872	1.03755	1.00615	3.5171	69.96	-0.2391	0.0594	0.2985	1216.7394	0.155133	-381.154633	-381.146298	-381.145353	-381.188258	30.81	
N	 0.3070260222	 1.3176671443	-0.0632567349	-0.568064
C	 0.2083431261	-0.0718580359	-0.1004630099	 0.446315
O	 1.1801028484	-0.7921233466	-0.2333628203	-0.389568
N	-1.0789237105	-0.5392185327	 0.0532066141	-0.3541
C	-1.3663635256	-1.9424218675	 0.198813035	 0.096008
C	-1.922569746	-2.4911563123	 1.5438649059	-0.237436
C	-2.8069569506	-3.4632949065	 0.7160378262	-0.2105
C	-2.6134976518	-2.5317544239	-0.5119867572	-0.240285
H	 1.2031583851	 1.6387648281	-0.3981974055	 0.259004
H	-0.4713630336	 1.8471592945	-0.4279979272	 0.243874
H	-1.7776328095	 0.109354962	 0.3817588608	 0.231917
H	-0.4564022652	-2.4705152194	-0.0888928377	 0.125361
H	-1.2094598313	-2.90676193	 2.259269143	 0.106687
H	-2.5323648593	-1.7367358522	 2.0538963189	 0.089871
H	-2.318611028	-4.4306614689	 0.5713514066	 0.109294
H	-3.8274153417	-3.6371182659	 1.0621583358	 0.098802
H	-3.4158590628	-1.7884024475	-0.5760702838	 0.090112
H	-2.474898066	-2.9813562194	-1.4980308699	 0.10271
40.6534	86.8856	120.8417	229.9779	348.5669	354.9919	392.8599	452.561	481.9018	565.597	612.7194	684.0329	775.5019	785.539	798.1605	907.3994	924.4275	945.3277	969.9793	1006.7704	1038.7162	1094.7989	1139.8178	1195.3331	1202.132	1239.2196	1249.059	1258.5135	1276.4967	1296.3439	1310.9475	1392.4455	1475.6873	1486.8264	1509.6753	1541.4491	1627.6649	1802.7161	3041.0126	3046.1886	3066.2288	3099.409	3106.2848	3118.6155	3129.1942	3568.2795	3616.5483	3681.3709
NC(=O)NC1CCC1	NC(=O)NC1CCC1	
InChI=1S/C5H10N2O/c6-5(8)7-4-2-1-3-4/h4H,1-3H2,(H3,6,7,8)	InChI=1S/C5H10N2O/c6-5(8)7-4-2-1-3-4/h4H,1-3H2,(H3,6,7,8)
