21
gdb 40721	3.87884	1.23264	1.21763	1.5219	81.58	-0.2376	0.0917	0.3294	1134.7193	0.18497	-387.053325	-387.045883	-387.044939	-387.085291	30.513	
C	-0.1766402349	 1.3710545724	-0.2566608692	-0.253972
C	 1.2004038492	 0.9522168243	 0.193285888	-0.275277
C	 0.1188585665	-0.0831667057	 0.0128789466	-0.017818
C	-0.4258939047	-0.8217251762	 1.2163362862	 0.119853
O	-0.7358861162	 0.0756520757	 2.313681061	-0.29728
C	-2.1010444082	-0.2761195673	 2.6105339206	 0.115194
C	-2.0826812504	-1.824326181	 2.5800284754	-0.237565
C	-1.7869610495	-1.5341518434	 1.0730223049	-0.075683
C	-2.7778032637	-0.336679199	 1.2191475992	-0.23584
H	-0.7810547998	 1.8996773864	 0.4695855461	 0.122935
H	-0.3169567816	 1.6840188106	-1.2854774885	 0.103831
H	 2.0157147079	 0.9777472122	-0.5212259289	 0.105139
H	 1.4798692471	 1.2028268984	 1.2107797261	 0.125113
H	 0.2201251905	-0.7250581835	-0.8594328068	 0.079214
H	 0.3377134687	-1.5367876571	 1.5569139558	 0.072757
H	-2.4578906998	 0.323035356	 3.4467153856	 0.077529
H	-1.314088621	-2.3259041794	 3.1735039025	 0.097988
H	-3.0625168861	-2.2760517894	 2.7432024188	 0.099182
H	-1.8771272428	-2.2909530431	 0.2946173123	 0.068849
H	-3.8179298495	-0.6640560035	 1.267063446	 0.098143
H	-2.6687515316	 0.5221087626	 0.5578180484	 0.107707
88.4781	156.3725	174.3126	303.3802	369.285	481.0461	531.3947	559.0766	684.5409	772.6518	798.8611	825.9573	843.3103	844.2042	863.7244	874.5576	911.0349	934.3407	946.5261	972.0155	1008.3625	1035.2952	1050.3844	1056.137	1063.8048	1084.5177	1088.3008	1101.1826	1132.7813	1133.8997	1156.6686	1203.1437	1211.9986	1229.3248	1243.8438	1249.4815	1288.8288	1292.6388	1337.9576	1384.7922	1407.5129	1457.9771	1476.8428	1501.8248	1512.1187	2985.6599	3065.6532	3085.5654	3123.5506	3130.9948	3133.2681	3134.5095	3137.7911	3142.366	3154.9535	3217.9566	3235.409
C1CC1C1OC2CC1C2	C1CC1[C@H]1O[C@@H]2C[C@H]1C2	
InChI=1S/C8H12O/c1-2-5(1)8-6-3-7(4-6)9-8/h5-8H,1-4H2	InChI=1S/C8H12O/c1-2-5(1)8-6-3-7(4-6)9-8/h5-8H,1-4H2/t6-,7+,8-/m1/s1
