21
gdb 119631	4.18854	0.8946	0.82513	1.3273	78.17	-0.2539	0.0791	0.333	1453.16	0.18288	-424.224564	-424.215524	-424.21458	-424.258772	33.934	
O	-0.1384232129	 1.4414662276	 0.3036302541	-0.421038
C	-0.0452905963	 0.0248434443	 0.3093604977	-0.072227
C	-1.3558603637	-0.5214156722	-0.2523507515	-0.283418
C	-1.3968807561	-2.0274626233	-0.2830284026	 0.420092
C	-0.5250788482	-2.8312033934	-1.2409302974	-0.279744
C	-1.0476219435	-4.2820614154	-1.1139745111	-0.214221
C	-2.5365557431	-4.150234803	-0.7100392929	-0.241419
C	-2.587357632	-2.8313808048	 0.0334813843	-0.009699
O	-1.5346564908	-2.6788161518	 0.9996434312	-0.310053
H	 0.6623705361	 1.7964110546	 0.7000746728	 0.285655
H	 0.8030672137	-0.3188152396	-0.3038747945	 0.08483
H	 0.101444975	-0.3677808007	 1.3266139133	 0.104972
H	-2.1769784854	-0.1439119563	 0.3651312859	 0.11244
H	-1.4990795791	-0.1254018833	-1.2651569953	 0.10567
H	-0.6702298	-2.4403974437	-2.2561466182	 0.101129
H	 0.5426598195	-2.7543489333	-1.0127985578	 0.104895
H	-0.9113781795	-4.8577242838	-2.0325036477	 0.096476
H	-0.5017480479	-4.7955730702	-0.3200286465	 0.119249
H	-3.1906446769	-4.0862346318	-1.58890551	 0.10124
H	-2.883782912	-4.9930279395	-0.1042702653	 0.10805
H	-3.537713897	-2.3785810306	 0.3082273116	 0.087121
66.7625	91.4315	121.009	209.5412	258.6921	265.2486	319.5153	339.6483	415.6777	458.1127	643.8728	658.069	722.5325	791.5861	816.7088	870.9113	890.2174	896.6092	944.3568	956.574	1001.0626	1035.0451	1048.761	1052.5965	1080.0048	1131.7704	1162.9414	1202.5065	1211.4571	1239.1326	1250.5453	1262.6041	1288.072	1313.9663	1325.4572	1335.9044	1349.6222	1359.4847	1455.7464	1462.2995	1478.3163	1478.9577	1488.2712	1499.7717	1529.5454	2971.3221	3008.5427	3030.0207	3032.5168	3039.2779	3070.847	3080.2499	3083.0888	3090.4482	3119.9442	3136.6714	3831.0464
OCCC12CCCC1O2	OCC[C@]12CCC[C@H]1O2	
InChI=1S/C7H12O2/c8-5-4-7-3-1-2-6(7)9-7/h6,8H,1-5H2	InChI=1S/C7H12O2/c8-5-4-7-3-1-2-6(7)9-7/h6,8H,1-5H2/t6-,7-/m1/s1
