20
gdb 119314	2.36798	1.18003	0.92334	0.8374	75.9	-0.2295	-0.0333	0.1962	1341.5118	0.169273	-440.25636	-440.246594	-440.24565	-440.291756	34.606	
C	 2.5464611221	 1.4562650885	-1.0271138271	-0.390524
C	 2.411168687	-0.0473437853	-1.2449441056	-0.125042
N	 0.9917484395	-0.4348784297	-1.2442051467	-0.349994
C	 0.7590353842	-1.8504913059	-1.4034017907	 0.159011
C	-0.6396897654	-2.2731600589	-1.9533840553	-0.118021
O	-0.0369142495	-3.0952096326	-2.9683828891	-0.270301
C	 1.255475204	-2.5152171935	-2.7142844495	-0.107277
C	 1.0788789829	-2.6894258641	-0.1754744869	 0.134436
O	 1.3508664739	-2.2222484941	 0.9013813424	-0.269714
H	 1.989926224	 2.0089295	-1.7893881891	 0.126428
H	 2.1566020283	 1.7463022837	-0.0448393363	 0.119514
H	 3.5964354925	 1.7601759836	-1.0691530614	 0.11729
H	 2.8323620296	-0.3135037887	-2.2220828669	 0.103429
H	 2.9969154806	-0.5858560294	-0.4837745762	 0.101872
H	 0.5996927595	-0.1562156286	-0.3468689506	 0.223561
H	-1.3007678146	-2.8492373232	-1.2960468184	 0.11063
H	-1.1760411914	-1.4103560807	-2.3665215684	 0.117179
H	 1.533505425	-1.7757696747	-3.4750849263	 0.114908
H	 2.0401415571	-3.2757652138	-2.6329036964	 0.111267
H	 1.0050491805	-3.7906792925	-0.3294074014	 0.091348
61.1809	94.2517	107.451	123.9535	158.1461	244.9892	263.866	311.0026	336.6574	394.1206	443.8714	538.5501	770.7345	786.5335	816.5755	830.7215	894.4723	915.9373	940.2332	986.13	1007.9414	1037.4052	1069.8859	1094.5885	1140.6364	1159.2352	1165.5827	1187.6756	1229.2264	1288.8941	1301.9523	1308.855	1381.1301	1390.2661	1410.9297	1415.7689	1483.9382	1497.9	1500.3011	1509.7864	1519.6311	1526.674	1822.9392	2870.0475	2984.8008	3014.973	3024.7554	3035.682	3046.3098	3071.7346	3074.8825	3103.6944	3120.3932	3484.245
CCNC1(COC1)C=O	CCNC1(COC1)C=O	
InChI=1S/C6H11NO2/c1-2-7-6(3-8)4-9-5-6/h3,7H,2,4-5H2,1H3	InChI=1S/C6H11NO2/c1-2-7-6(3-8)4-9-5-6/h3,7H,2,4-5H2,1H3
