21
gdb 107830	3.14648	1.42307	1.23064	1.4553	81.04	-0.249	0.0741	0.3231	1093.6878	0.184653	-387.068824	-387.06093	-387.059986	-387.10097	31.917	
O	-0.0840538733	 1.4103755766	 0.1797955853	-0.426014
C	-0.0163413313	 0.0063002822	-0.0382207142	-0.187858
C	-1.4246247231	-0.5369972476	-0.035877044	 0.356434
C	-2.1794625791	-0.5131914309	 1.3396323913	-0.265879
C	-2.5756440115	-1.9697742355	 1.1041465769	-0.067351
C	-3.0850576526	-2.1647788586	-0.3161029192	-0.032666
C	-3.5822096285	-0.945547532	-1.0938863572	-0.247769
C	-2.3445489216	-0.0093768734	-1.1500201801	-0.240577
C	-1.6069981359	-2.0859011922	-0.0610236768	-0.141473
H	 0.8129801602	 1.7559580259	 0.1972908544	 0.287239
H	 0.4652718886	-0.2226890378	-1.0043359217	 0.080698
H	 0.5746813196	-0.4893394958	 0.7490904465	 0.082083
H	-1.4790308538	-0.4136359571	 2.1730561746	 0.096969
H	-2.9757833536	 0.2297882001	 1.458862301	 0.089139
H	-2.7934926267	-2.7016421691	 1.8739896542	 0.076278
H	-3.5205624605	-3.1380488048	-0.5159287582	 0.07817
H	-3.9192258368	-1.2285745343	-2.0958288707	 0.09452
H	-4.4340861579	-0.4677221184	-0.5975487155	 0.098672
H	-2.5934175469	 1.0454972372	-1.0087975827	 0.107962
H	-1.8382349765	-0.1034385914	-2.1188412232	 0.086682
H	-0.8694510384	-2.840798983	-0.3029822107	 0.074741
99.2333	165.8886	213.4677	256.9134	323.838	362.1344	400.1629	435.2954	596.3058	656.2577	704.4407	744.6073	781.288	815.1437	856.413	902.0725	924.1987	940.2236	965.5224	985.6592	996.2287	1002.6957	1043.156	1052.3384	1067.2056	1088.9642	1106.4605	1139.7976	1175.9441	1195.5109	1199.6804	1226.287	1243.5051	1269.3123	1282.1436	1289.1763	1316.242	1323.8866	1360.8318	1399.5207	1462.4683	1486.3361	1494.3002	1511.311	1520.7301	2951.4476	2982.6541	3027.4483	3037.3046	3042.2777	3076.2463	3094.6665	3100.9899	3163.4301	3171.0277	3191.0071	3831.5978
OCC12CC3C(CC1)C23	OC[C@@]12C[C@H]3[C@@H](CC1)[C@@H]23	
InChI=1S/C8H12O/c9-4-8-2-1-5-6(3-8)7(5)8/h5-7,9H,1-4H2	InChI=1S/C8H12O/c9-4-8-2-1-5-6(3-8)7(5)8/h5-7,9H,1-4H2/t5-,6+,7-,8+/m1/s1
