15
gdb 66974	2.65237	1.71901	1.29358	0.8546	70.01	-0.2247	0.0342	0.2589	973.1338	0.110877	-420.508526	-420.501022	-420.500078	-420.540285	29.664	
O	-0.1890905664	 1.3663538694	 0.0778212324	-0.450574
C	-0.0083408783	 0.0073728957	 0.0515941028	 0.329524
C	-0.2158456536	-0.8695917717	-1.2020662435	 0.013191
O	 0.5025889035	-2.08707087	-1.0173257149	-0.277074
C	 0.0496097191	-2.0414542813	 0.3596849598	 0.055554
C	-1.1043407409	-1.03841691	-0.0082202284	-0.212309
C	 0.8524122168	-0.8548552609	 0.9977315074	-0.255895
C	 2.2981939393	-0.8358816569	 0.9032657288	 0.300134
C	 3.4976070369	-0.7933201655	 0.8267386381	-0.437077
H	 0.5605678611	 1.7819615698	-0.3643762194	 0.298112
H	-0.3916733577	-0.4873790963	-2.1988653114	 0.117317
H	-0.0185536155	-3.0133546505	 0.8412929321	 0.099274
H	-2.17122227	-1.0104646196	 0.1594766534	 0.113074
H	 0.5126132267	-0.6986262335	 2.0264464735	 0.111683
H	 4.5567830988	-0.7722367588	 0.7535252692	 0.195067
120.4351	132.5123	279.7109	316.914	346.9513	378.0018	443.9305	557.0723	573.6583	626.8545	634.553	696.1189	755.1538	787.4227	821.9517	845.9582	888.4102	932.1247	954.1442	965.0772	1013.2929	1029.6005	1075.8151	1117.8029	1133.9975	1186.8364	1192.049	1272.0449	1287.4656	1314.6863	1353.4351	1450.5568	2232.5191	3066.0458	3158.6875	3210.1901	3226.0852	3502.9205	3788.2752
OC12C3OC(C13)C2C#C	O[C@]12[C@H]3O[C@H]([C@@H]13)[C@H]2C#C	
InChI=1S/C7H6O2/c1-2-3-5-4-6(9-5)7(3,4)8/h1,3-6,8H	InChI=1S/C7H6O2/c1-2-3-5-4-6(9-5)7(3,4)8/h1,3-6,8H/t3-,4-,5+,6+,7+/m1/s1
