15
gdb 18113	3.79646	2.38843	1.82783	1.9824	60.08	-0.2559	0.0177	0.2736	731.189	0.122398	-399.81744	-399.811578	-399.810634	-399.847495	22.647	
C	 0.1082084422	 1.5073974903	 0.1813149265	-0.104853
O	 1.4887391848	 1.795149805	 0.3205640446	-0.241612
C	 2.1593964838	 0.9905603899	-0.638642649	-0.089847
C	 1.4374679373	-0.3717628044	-0.6107669767	-0.028768
N	 2.0023825357	-1.2794220358	 0.3994346533	-0.263551
C	 1.1282331786	-1.3740647753	 1.3113922518	 0.118122
O	-0.0589916771	-0.7344731306	 1.1849560455	-0.22737
C	 0.0221945726	-0.0023927475	-0.0614545533	 0.06808
H	-0.4091583559	 1.8196185859	 1.0908059781	 0.126505
H	-0.3234682054	 2.0424316319	-0.6815193836	 0.091678
H	 2.0875639066	 1.4404024479	-1.6424256151	 0.08874
H	 3.2089276642	 0.9114510475	-0.3513819386	 0.129745
H	 1.4381828627	-0.855813766	-1.5900492674	 0.091373
H	 1.2273226484	-1.9549375778	 2.2215691417	 0.144009
H	-0.8290498185	-0.2980402512	-0.6764588477	 0.097748
131.7598	207.3406	348.6361	399.1054	535.853	600.3075	739.793	824.9303	840.412	856.8785	874.5892	925.5722	956.1094	966.1519	1001.2229	1021.9834	1082.9113	1105.0812	1114.2595	1135.6548	1219.1724	1226.9609	1284.2661	1287.1999	1313.9255	1325.4191	1351.9777	1367.3613	1400.6432	1490.7202	1506.5777	1701.5047	2965.1426	2974.2242	3081.7711	3105.2663	3112.9611	3124.1251	3218.705
C1OCC2N=COC12	C1OC[C@H]2N=CO[C@@H]12	
InChI=1S/C5H7NO2/c1-4-5(2-7-1)8-3-6-4/h3-5H,1-2H2	InChI=1S/C5H7NO2/c1-4-5(2-7-1)8-3-6-4/h3-5H,1-2H2/t4-,5+/m1/s1
