19
gdb 72939	2.79242	1.717	1.49337	3.0358	74.01	-0.2332	0.0526	0.2858	973.8312	0.159565	-422.960712	-422.953084	-422.95214	-422.993111	29.86	
C	-0.3247601602	 1.4018491292	-0.0381140901	-0.484988
C	 0.0658946583	-0.0497370297	 0.0367290897	 0.451077
O	-1.0577823387	-0.9426205892	 0.147398775	-0.314723
C	-0.4786264222	-1.6093925794	 1.2938402525	-0.095632
C	 0.8015306299	-0.7574405126	 1.2178773844	-0.159963
C	 1.9467805975	-1.2033503732	 0.2556806955	-0.093571
C	 1.7729711157	-2.5034436801	-0.5490333382	-0.09296
O	 0.9734151974	-1.8301614954	-1.5514760877	-0.279713
C	 1.1974408746	-0.5525930576	-0.9393515414	 0.054626
H	 0.5610614441	 2.0446391809	-0.0841637319	 0.116936
H	-0.9210207692	 1.5797563838	-0.9404051013	 0.135376
H	-0.9227466433	 1.6931525317	 0.8304582761	 0.123429
H	-1.0750770713	-1.4311600141	 2.197497069	 0.101209
H	-0.3846002629	-2.6901001227	 1.1437939637	 0.105963
H	 1.1123994335	-0.2408428993	 2.1256761385	 0.078359
H	 2.9552301213	-0.9283849972	 0.561338751	 0.079832
H	 2.7098595927	-2.8798905287	-0.9795780641	 0.102025
H	 1.2411865537	-3.3378493156	-0.079019512	 0.10643
H	 1.618539099	 0.1838975593	-1.6323896487	 0.066289
46.1244	213.2413	231.4803	246.2973	315.7678	319.4756	460.8702	522.8966	596.7237	686.5657	760.7952	817.8327	836.4841	858.9059	897.0266	919.1262	941.7002	969.1901	999.1939	1018.1918	1035.2311	1082.7918	1093.7773	1112.2008	1148.7896	1156.929	1161.8126	1170.8442	1197.8242	1221.5888	1253.5368	1291.3606	1306.596	1337.7751	1356.8264	1362.1714	1405.8795	1478.7989	1486.8679	1510.0071	1537.2785	3012.9409	3018.0288	3028.7534	3046.6004	3059.5037	3070.3231	3098.2336	3107.2692	3109.9635	3122.6534
CC12OCC1C1COC21	C[C@]12OC[C@H]1[C@H]1CO[C@@H]21	
InChI=1S/C7H10O2/c1-7-5(3-9-7)4-2-8-6(4)7/h4-6H,2-3H2,1H3	InChI=1S/C7H10O2/c1-7-5(3-9-7)4-2-8-6(4)7/h4-6H,2-3H2,1H3/t4-,5+,6-,7+/m1/s1
