19
gdb 109350	3.12317	1.32108	1.0326	4.1682	76.93	-0.2417	-0.0005	0.2412	1178.0815	0.161157	-419.190527	-419.182496	-419.181552	-419.22308	31.107	
O	 0.1276792232	 1.3600010537	-0.1079487707	-0.426546
C	 0.0137213045	-0.0299433437	 0.0003696851	-0.098907
C	-1.4242751633	-0.4825306626	 0.102210876	 0.302297
N	-2.3304199879	 0.4058150669	 0.1528999969	-0.281142
C	-3.7308080931	 0.0042543038	 0.2050499016	-0.179635
C	-3.9666555246	-1.3573735717	 0.8773106276	-0.240002
C	-2.9287208283	-2.3787973901	 0.4692185871	 0.005963
C	-2.400457997	-2.4940853279	-0.9093461261	-0.255907
N	-1.5649543484	-1.8985678811	 0.1661321184	-0.162193
H	-0.7829175298	 1.6875022568	-0.0218382894	 0.286408
H	 0.469217118	-0.5335015112	-0.8678834617	 0.107088
H	 0.5477173343	-0.413001199	 0.8854271487	 0.112497
H	-4.2917099183	 0.7825503056	 0.7319957895	 0.116343
H	-4.1215269515	-0.001496887	-0.8211395067	 0.118401
H	-3.9051070328	-1.2341410117	 1.9651404822	 0.119315
H	-4.9757936758	-1.7233319497	 0.6579447634	 0.112372
H	-2.9135782635	-3.2821481457	 1.0755327054	 0.103245
H	-2.0439425779	-3.450187298	-1.280379389	 0.128872
H	-2.780066318	-1.8208705475	-1.6727532984	 0.131528
91.5307	150.0615	219.8509	245.9468	272.4317	341.8476	417.7462	426.9262	513.4762	544.0442	645.7064	703.0548	748.5849	788.1193	827.8962	904.8667	939.1957	978.4075	1014.9442	1026.6701	1074.9241	1104.9863	1108.3113	1120.1078	1140.1906	1170.3258	1201.4169	1233.5555	1243.7068	1273.3312	1313.4173	1326.3779	1347.36	1380.6322	1423.8631	1473.6513	1486.6169	1493.1171	1498.5339	1517.0127	1732.7801	2976.1403	2989.8501	3021.6157	3034.1118	3066.0398	3076.2272	3117.5505	3127.1814	3205.6878	3659.6395
OCC1=NCCC2CN12	OCC1=NCC[C@H]2CN12	
InChI=1S/C6H10N2O/c9-4-6-7-2-1-5-3-8(5)6/h5,9H,1-4H2	InChI=1S/C6H10N2O/c9-4-6-7-2-1-5-3-8(5)6/h5,9H,1-4H2/t5-,8?/m0/s1
