12
gdb 130857	7.40151	0.8839	0.7896	3.5754	72.32	-0.2879	-0.091	0.1968	1300.8679	0.0795	-431.71304	-431.705791	-431.704847	-431.745222	25.689	
O	 0.0868209877	-0.0623881568	-0.002138618	-0.278999
C	 0.0057593603	 1.1461028353	 0.0085549429	 0.086525
C	 1.1835883755	 2.0125135405	 0.0033020031	 0.310103
C	 1.3512587115	 3.3867143832	 0.0126891026	-0.385129
C	 2.7502421144	 3.5688918594	-0.0003761641	 0.257099
N	 3.4025201882	 2.3911484659	-0.0167726535	-0.247461
N	 2.4394056287	 1.4836991704	-0.014079846	-0.225344
C	 3.4618725043	 4.8011198382	 0.0022144204	 0.249879
N	 4.0013912379	 5.8241557806	 0.004894565	-0.327665
H	-0.9674498093	 1.6742717714	 0.0229414349	 0.105327
H	 0.5860793363	 4.1450486578	 0.0268072762	 0.151128
H	 2.6597662446	 0.4983413139	-0.0243700036	 0.304536
92.4296	131.1585	206.6853	218.1891	292.3842	439.6949	517.4785	572.4417	635.0961	651.177	692.1128	732.3605	779.2133	856.4083	1003.1784	1030.4672	1047.4691	1154.3698	1226.4984	1312.3264	1379.9868	1400.0834	1459.6032	1468.9922	1584.4433	1782.3701	2362.397	2947.6974	3281.758	3638.1358
O=CC1=CC(=NN1)C#N	O=Cc1cc(n[nH]1)C#N	
InChI=1S/C5H3N3O/c6-2-4-1-5(3-9)8-7-4/h1,3H,(H,7,8)	InChI=1S/C5H3N3O/c6-2-4-1-5(3-9)8-7-4/h1,3H,(H,7,8)
