17
gdb 22899	2.82325	1.34218	1.01275	1.918	73.72	-0.2184	-0.0703	0.1482	1172.332	0.135798	-455.11103	-455.102309	-455.101364	-455.144735	32.174	
C	 0.0522570796	 1.4812530766	-0.2381633902	-0.375434
C	-0.0884787599	-0.0139117781	 0.0779338668	-0.102641
N	 0.3681352442	-0.8641793147	-1.0390185204	-0.303826
C	 1.7969417589	-1.1548593609	-0.7969676648	-0.262728
C	 1.9573995041	-1.1576425978	 0.7088878802	 0.284694
N	 2.9380582046	-1.7459612846	 1.2795612558	-0.21039
O	 2.9055535707	-1.6807819902	 2.6588718255	-0.34738
C	 0.7895963661	-0.3963894403	 1.2854231321	 0.333953
O	 0.5751763741	-0.1213021161	 2.4390100143	-0.308429
H	 1.0873354805	 1.7406649611	-0.4836818383	 0.120596
H	-0.5733213163	 1.7409543082	-1.0956010269	 0.128452
H	-0.2517659732	 2.0779227513	 0.6262890954	 0.136262
H	-1.1339905295	-0.2317312187	 0.3147156899	 0.103209
H	-0.142758947	-1.740271539	-1.0061604532	 0.227675
H	 2.0904327303	-2.1012274793	-1.2547450681	 0.131114
H	 2.4140753197	-0.3686973092	-1.2515215957	 0.129695
H	 3.6959636031	-2.175118668	 2.9063141277	 0.315178
51.9455	122.3634	207.0558	216.1802	232.3732	289.8972	322.3604	382.8079	447.1099	486.1695	532.8596	645.8767	672.7633	702.7644	775.7394	813.7484	857.685	951.9251	1003.9202	1011.6648	1049.1838	1089.766	1123.7025	1128.3189	1206.3498	1217.0264	1286.3816	1327.8457	1364.2638	1398.006	1420.4083	1461.4595	1484.8049	1494.1904	1496.0969	1701.0205	1826.4875	3019.2135	3041.8262	3070.2092	3112.1207	3114.1812	3130.66	3519.7751	3797.8104
CC1NCC(=NO)C1=O	C[C@H]1NCC(=NO)C1=O	
InChI=1S/C5H8N2O2/c1-3-5(8)4(7-9)2-6-3/h3,6,9H,2H2,1H3	InChI=1S/C5H8N2O2/c1-3-5(8)4(7-9)2-6-3/h3,6,9H,2H2,1H3/t3-/m1/s1
