19
gdb 32093	2.99462	1.16315	0.89826	3.1066	87.47	-0.2089	-0.0111	0.1977	1332.4562	0.161431	-382.138693	-382.130072	-382.129128	-382.172257	32.844	
C	 0.0264411054	 1.5594621966	-0.0228696008	-0.36498
C	-0.0063631477	 0.0218267291	 0.0269715478	-0.291886
C	-1.4113349853	-0.532688499	 0.018868186	 0.282094
C	-2.0735803431	-0.8400047778	 1.2105760421	-0.08873
N	-3.324201061	-1.3023468547	 1.2638075364	-0.263246
C	-3.9742637922	-1.479745929	 0.1186887601	-0.054191
C	-3.4196175249	-1.211510647	-1.1427921288	 0.282091
N	-4.1712204185	-1.368603528	-2.3059993159	-0.591449
C	-2.1079447059	-0.73048273	-1.1708275667	-0.235452
H	 1.0567490613	 1.9289085922	-0.0150753177	 0.112964
H	-0.4623323596	 1.9338095398	-0.9280709657	 0.119644
H	-0.4967532659	 1.9886705165	 0.8371748355	 0.125254
H	 0.5520317335	-0.379955759	-0.8267946573	 0.10133
H	 0.5124132354	-0.3215112486	 0.9290465833	 0.106613
H	-1.5649152445	-0.7115866707	 2.1637979259	 0.092292
H	-4.9935376327	-1.8587892267	 0.1875609776	 0.088885
H	-4.9394932856	-2.0193947558	-2.2276488223	 0.249662
H	-3.6320423603	-1.5337740917	-3.1435460073	 0.247376
H	-1.6328961684	-0.5114121962	-2.1246685924	 0.081728
47.4102	132.4711	212.4116	225.4928	290.4525	303.4147	317.5556	419.9228	481.5785	528.9021	554.9933	595.4589	649.8221	726.765	746.5272	790.9459	898.4654	916.4701	935.3258	940.0674	1004.1573	1032.5649	1076.3335	1082.802	1109.4706	1193.8157	1213.9677	1271.8273	1316.4355	1331.729	1358.5691	1361.0944	1409.9932	1480.8444	1487.6626	1496.6736	1505.3801	1510.4823	1608.3791	1638.5387	1658.8763	3031.3545	3035.555	3067.6487	3107.339	3112.0159	3126.1567	3145.0329	3149.5758	3561.6009	3659.5479
CCC1=CN=CC(N)=C1	CCc1cncc(N)c1	
InChI=1S/C7H10N2/c1-2-6-3-7(8)5-9-4-6/h3-5H,2,8H2,1H3	InChI=1S/C7H10N2/c1-2-6-3-7(8)5-9-4-6/h3-5H,2,8H2,1H3
