18
gdb 111724	2.10332	1.46147	1.06224	5.6983	77.94	-0.2647	0.021	0.2857	1180.2657	0.14818	-401.927832	-401.919188	-401.918244	-401.961597	32.039	
O	 0.2064550514	 0.4552547306	 1.0014258515	-0.414537
C	-0.121304271	 0.1835294032	-0.3522110237	-0.110426
C	-1.4618610765	-0.5081025916	-0.3626478934	-0.052819
C	-1.9234908495	-1.5113421769	-1.3749403332	-0.12947
C	-0.79809697	-2.4398686448	-1.8496476137	-0.231819
C	-0.5097184247	-2.8513701779	-0.3713391538	-0.30002
C	-1.6613994424	-1.9402738272	 0.0939285368	 0.223436
C	-2.606177852	-2.281127584	 1.1053294502	 0.187534
N	-3.3721454693	-2.5772264177	 1.9219315425	-0.355066
H	 1.020899313	 0.9668696872	 1.0183562901	 0.290734
H	-0.2009914472	 1.109996342	-0.9427621455	 0.096126
H	 0.6488107986	-0.4372308492	-0.8308793298	 0.091169
H	-2.2667627435	 0.1339586499	-0.0136974447	 0.118518
H	-2.886305242	-1.4072494975	-1.8599364304	 0.11151
H	-1.1815551942	-3.2778174923	-2.4341992134	 0.118645
H	 0.0157201629	-1.9726599182	-2.4109595365	 0.108122
H	-0.717299523	-3.9054572748	-0.1853306589	 0.128677
H	 0.4716369893	-2.6066129008	 0.0420782359	 0.119686
58.9212	102.3308	167.4912	210.0759	245.8494	279.8556	311.4484	477.7218	484.2369	530.0217	557.4137	598.4773	735.8561	789.3057	818.7582	876.5195	948.6683	954.0051	979.4286	1021.2165	1051.5571	1071.0692	1085.0941	1117.5601	1140.059	1215.4088	1226.4187	1235.121	1245.9037	1253.7166	1289.1378	1300.2426	1334.8316	1429.9232	1482.609	1488.4179	1504.9234	1525.635	2342.3723	2978.4997	3016.8975	3063.6057	3074.4798	3114.4136	3137.1514	3151.0631	3192.5337	3827.4426
OCC1C2CCC12C#N	OC[C@H]1[C@H]2CC[C@@]12C#N	
InChI=1S/C7H9NO/c8-4-7-2-1-5(7)6(7)3-9/h5-6,9H,1-3H2	InChI=1S/C7H9NO/c8-4-7-2-1-5(7)6(7)3-9/h5-6,9H,1-3H2/t5-,6+,7+/m1/s1
