15
gdb 123664	4.07839	1.72528	1.34185	4.1382	69.09	-0.2169	0.0245	0.2414	905.4476	0.117409	-412.987606	-412.981483	-412.980539	-413.018048	24.697	
C	-0.0339271195	 1.4406363376	 0.1363836311	-0.322299
C	 1.3064597201	 0.7363059263	 0.0056905509	-0.015328
N	 2.0460039449	 0.3224176273	 1.1893440418	-0.415212
C	 1.1861096165	-0.4741279288	 1.930282805	 0.45098
N	 1.1475657436	-1.0036330652	 3.1328075207	-0.384757
C	-0.0619150996	-1.6605930904	 3.0841220268	 0.024741
N	-0.7571079465	-1.5514629859	 1.9613916422	-0.279736
N	 0.0902086368	-0.7859688074	 1.2140101473	 0.041766
C	 0.0088021033	-0.0626204013	-0.0162570982	-0.006235
H	-0.3334516063	 1.8429180733	 1.0977114611	 0.137414
H	-0.3561133724	 2.0114122956	-0.7273452755	 0.131093
H	 1.9000515519	 0.8821790484	-0.888153391	 0.12087
H	 2.5723022832	 1.0229825345	 1.6916014112	 0.262844
H	-0.4304286865	-2.245814502	 3.9137081254	 0.123132
H	-0.3776110696	-0.580491322	-0.8842846487	 0.130729
125.2156	261.3918	366.8684	434.84	472.9578	546.1959	653.9246	669.6427	730.8666	761.8932	798.0338	816.1079	849.0946	893.056	942.2917	982.8538	995.6558	1048.6691	1060.0913	1095.1392	1131.8712	1160.4711	1194.6597	1207.175	1272.9329	1277.8957	1339.992	1364.3815	1398.9719	1439.8948	1466.8379	1529.3694	1620.5104	3138.6698	3187.505	3202.0933	3233.7665	3257.755	3606.915
C1C2NC3=NC=NN3C12	C1[C@H]2Nc3ncnn3[C@@H]12	
InChI=1S/C5H6N4/c1-3-4(1)9-5(8-3)6-2-7-9/h2-4H,1H2,(H,6,7,8)	InChI=1S/C5H6N4/c1-3-4(1)9-5(8-3)6-2-7-9/h2-4H,1H2,(H,6,7,8)/t3-,4+/m1/s1
