23
gdb 118555	1.65106	1.11141	0.71819	2.5141	84.08	-0.2417	-0.0209	0.2208	1647.6744	0.201805	-425.437044	-425.425544	-425.4246	-425.475769	39.475	
C	 0.4157642935	 1.3152404296	 0.1963965937	-0.387321
C	 0.6395541133	-0.1862312983	 0.251245578	-0.044704
O	 0.6813903155	-0.6785283582	-1.0793413868	-0.266577
C	 0.8853992055	-2.0833282744	-1.2102883402	 0.106902
C	-0.2816727548	-2.6967115993	-1.9918737495	-0.165503
C	-1.6338924902	-2.5190150742	-1.2987324941	-0.393996
C	 2.2290596443	-2.3346457725	-1.9282130503	-0.276409
C	 3.4111864843	-1.7683109505	-1.1775874619	 0.147059
O	 4.3301013093	-2.4234704979	-0.7532948484	-0.244103
H	 1.2267926896	 1.8060797375	-0.3492483247	 0.127455
H	-0.5253178212	 1.5452806456	-0.3112324038	 0.127732
H	 0.3765874167	 1.7303528706	 1.2078251897	 0.11813
H	 1.5820282653	-0.4138489627	 0.7755261136	 0.092524
H	-0.1699019222	-0.6761990647	 0.8140203502	 0.094289
H	 0.926028723	-2.5434739606	-0.2115539519	 0.08178
H	-0.3080241269	-2.2294452439	-2.9842201629	 0.105197
H	-0.0743160964	-3.7620461249	-2.1494527605	 0.097989
H	-1.854370654	-1.4583412086	-1.1508687794	 0.129868
H	-2.4408544888	-2.9509210885	-1.8979834655	 0.115318
H	-1.6487092504	-3.0103094282	-0.3192936146	 0.112206
H	 2.3915976864	-3.4056344559	-2.0780697484	 0.116217
H	 2.1772183461	-1.840592226	-2.9079480198	 0.121494
H	 3.3803758421	-0.6659044538	-1.0340285124	 0.084452
27.8808	54.2484	69.3033	84.152	118.2928	183.2266	202.2398	239.3668	251.84	270.584	349.6895	414.7698	459.1874	475.4549	541.6295	768.0983	819.9084	838.5464	861.6612	901.9791	947.4174	993.3388	1031.0148	1047.4185	1095.5195	1107.5863	1130.6381	1146.524	1172.3004	1185.1763	1236.0952	1278.6737	1298.9885	1307.1623	1338.6453	1372.6475	1388.5898	1403.2999	1405.4896	1420.9054	1444.0821	1453.8952	1477.835	1482.4146	1496.7537	1498.4995	1510.7543	1529.9963	1827.4033	2891.6002	2966.2522	2993.5058	3000.5054	3023.9657	3030.0631	3035.8765	3044.76	3066.1868	3101.9161	3106.1535	3119.4573	3119.9395	3120.7256
CCOC(CC)CC=O	CCO[C@@H](CC)CC=O	
InChI=1S/C7H14O2/c1-3-7(5-6-8)9-4-2/h6-7H,3-5H2,1-2H3	InChI=1S/C7H14O2/c1-3-7(5-6-8)9-4-2/h6-7H,3-5H2,1-2H3/t7-/m0/s1
