17
gdb 31849	4.90428	1.02538	0.85338	1.0836	81.64	-0.1938	-0.0122	0.1816	1321.2425	0.137925	-418.062275	-418.054138	-418.053194	-418.094948	31.1	
C	-0.0720135358	 1.3970124357	-0.0533850556	-0.244397
O	-0.0124707651	-0.0142900215	 0.0062523831	-0.269215
C	 0.6442517363	-0.5747786205	 1.0627393465	 0.329456
C	 1.2599503662	 0.1202272333	 2.099506437	-0.127856
N	 1.8863088261	-0.481800203	 3.1201612214	-0.330406
C	 1.9386057772	-1.8113905974	 3.1461768981	 0.361741
N	 2.6575639593	-2.3897677159	 4.1883654656	-0.569768
C	 1.3472193704	-2.6014391999	 2.1418292202	-0.171084
C	 0.6955146514	-1.973921502	 1.1012538603	-0.151108
H	 0.9296413205	 1.8433615595	-0.1121287934	 0.124281
H	-0.6271414132	 1.6414180352	-0.9606608657	 0.133256
H	-0.5965726294	 1.8183777875	 0.814610396	 0.123302
H	 1.2538935395	 1.2048676412	 2.130069701	 0.09953
H	 2.8028845335	-1.7497339168	 4.956436769	 0.249596
H	 2.3352870184	-3.297335854	 4.4894373164	 0.244581
H	 1.4095569034	-3.6837819593	 2.1850400141	 0.08957
H	 0.2218902713	-2.5386357722	 0.305668186	 0.10852
75.6669	145.2964	226.5831	250.0163	337.608	372.4169	378.329	440.5328	455.0072	530.1229	535.3164	626.024	651.7576	760.0075	782.3141	850.5214	871.5524	921.9531	969.6114	1024.8249	1076.2243	1089.3295	1151.0476	1178.1648	1212.3759	1283.5887	1319.097	1331.5855	1363.7201	1438.2383	1478.8135	1488.1608	1506.1609	1537.0389	1612.1191	1631.6908	1662.3878	2998.9747	3056.1157	3131.1827	3176.2686	3179.2551	3199.2089	3563.4847	3672.2311
COC1=CN=C(N)C=C1	COc1cnc(N)cc1	
InChI=1S/C6H8N2O/c1-9-5-2-3-6(7)8-4-5/h2-4H,1H3,(H2,7,8)	InChI=1S/C6H8N2O/c1-9-5-2-3-6(7)8-4-5/h2-4H,1H3,(H2,7,8)
