25
gdb 104878	1.78825	1.55773	1.13577	1.3531	88.07	-0.238	0.0799	0.3179	1288.1897	0.228752	-389.51401	-389.50375	-389.502806	-389.5493	38.584	
C	-0.0696678879	 1.4837950551	 0.1425365092	-0.389404
C	 0.0666040508	-0.036420814	 0.0156195058	-0.205296
C	 0.6604982834	-0.5345493257	-1.3221690284	 0.416059
C	 2.150015312	-0.155662779	-1.4406516559	-0.217886
C	 2.7739116148	-0.3935550027	-2.8185638159	-0.39773
C	 0.3982207444	-2.0516493563	-1.4880301102	-0.275868
C	-0.915111396	-2.1026393806	-2.2819403601	-0.225688
C	-0.7748950045	-0.8674992744	-3.1737689972	-0.065975
O	-0.0688794409	 0.0960895999	-2.4006013623	-0.304416
H	 0.9017757615	 1.9865758353	 0.1734700754	 0.113837
H	-0.6302507081	 1.885890802	-0.7047881734	 0.133201
H	-0.6002925179	 1.7447389384	 1.0635046162	 0.104705
H	 0.6834762267	-0.4307033166	 0.8336982896	 0.088556
H	-0.9259254479	-0.4890385224	 0.1335930359	 0.087049
H	 2.2589621031	 0.9052634993	-1.1923310262	 0.102191
H	 2.7033063512	-0.7098456672	-0.6711585713	 0.090649
H	 3.8080985475	-0.0362119554	-2.8368735119	 0.108701
H	 2.793380051	-1.4529996583	-3.0942285243	 0.110167
H	 2.2136216281	 0.1460882763	-3.5863477889	 0.132807
H	 1.2007708558	-2.5250782244	-2.0607811233	 0.099695
H	 0.3385743075	-2.5590012106	-0.5218953569	 0.100122
H	-1.0416288127	-3.0266573474	-2.8517629375	 0.099062
H	-1.7781545359	-1.9969215816	-1.6165641737	 0.106982
H	-0.2100689145	-1.1095741665	-4.0881075626	 0.087259
H	-1.7338326615	-0.4332665233	-3.4759297121	 0.10122
60.7864	83.6778	111.8218	190.5203	205.2523	206.7076	242.2596	290.1108	321.3106	362.2806	428.0649	530.672	580.0346	615.838	734.3834	774.3806	780.9656	861.3358	882.8537	924.2128	927.1878	942.8795	962.8017	1020.9075	1026.2673	1043.0951	1059.9772	1086.6966	1091.6511	1158.3196	1179.5679	1205.2347	1221.0774	1229.2977	1267.3126	1303.7756	1313.6498	1332.0587	1344.4772	1372.6424	1378.8616	1393.3886	1404.6613	1407.666	1474.162	1481.0918	1485.3376	1495.8429	1499.7423	1501.9185	1509.6335	1511.197	1528.3758	2974.1923	3017.0029	3026.9753	3039.4612	3042.6748	3047.6948	3053.4433	3058.9039	3066.3417	3070.7503	3097.8356	3100.8353	3104.5204	3110.8103	3122.8705	3127.9633
CCC1(CC)CCCO1	CCC1(CC)CCCO1	
InChI=1S/C8H16O/c1-3-8(4-2)6-5-7-9-8/h3-7H2,1-2H3	InChI=1S/C8H16O/c1-3-8(4-2)6-5-7-9-8/h3-7H2,1-2H3
