13
gdb 123501	4.16194	1.78143	1.24748	4.4311	73.77	-0.2404	-0.0708	0.1697	899.5883	0.093761	-411.818906	-411.81326	-411.812316	-411.848874	22.526	
C	-0.0096163266	 1.3241532958	 0.0099051782	-0.16117
C	 1.2815783773	 1.8352338527	 0.0002498059	 0.411506
N	 1.8226521904	 3.0700945759	 0.0019614906	-0.316957
C	 3.133177807	 3.1345470083	-0.0104609999	-0.015185
C	 3.9882181228	 1.99257193	-0.0252784777	-0.162647
C	 3.4262877922	 0.7515905034	-0.0268281366	 0.043555
N	 2.0682401242	 0.6841180508	-0.0139501667	-0.014224
N	 1.3041125881	-0.4323002433	-0.0127292525	-0.175504
N	 0.0555228561	-0.0224125835	 0.0016234298	-0.170041
H	-0.9454741593	 1.856662679	 0.0219987847	 0.139113
H	 3.5727272798	 4.1289105482	-0.00911371	 0.127764
H	 5.0639511987	 2.1071680903	-0.0351137638	 0.12914
H	 3.9551246895	-0.1926220474	-0.0373189622	 0.16465
212.4725	249.8447	436.1619	438.548	569.2907	589.9363	654.098	700.405	778.3909	779.5082	811.7856	845.523	915.6463	957.1423	967.4452	977.1555	1040.5726	1118.4175	1151.3686	1185.9516	1229.4986	1281.0538	1342.2464	1363.6525	1412.0901	1453.8884	1549.4127	1573.0972	1662.0873	3164.2266	3222.1562	3237.9017	3285.2122
C1=C2N=CC=CN2N=N1	c1c2ncccn2nn1	
InChI=1S/C5H4N4/c1-2-6-5-4-7-8-9(5)3-1/h1-4H	InChI=1S/C5H4N4/c1-2-6-5-4-7-8-9(5)3-1/h1-4H
