16
gdb 104965	2.14399	1.63983	1.05021	3.2492	70.94	-0.2834	-0.0909	0.1926	1119.5909	0.122528	-437.887491	-437.878324	-437.87738	-437.921947	32.65	
O	 0.1034549272	 1.2939826581	-0.7553291624	-0.417636
C	-0.0417329079	 0.1361062319	 0.0464293416	-0.190358
C	-1.4435042707	-0.4543324342	 0.0006610394	 0.206041
C	-1.8538995009	-1.251501489	-1.2399041885	-0.266637
C	-1.6070521125	-1.975421021	 0.0329140501	-0.288634
C	-2.5541589582	 0.296701813	 0.634976169	 0.256741
O	-3.7027811948	-0.074130359	 0.71126965	-0.295674
C	-2.1847778924	 1.6169674929	 1.2062107945	 0.229874
N	-1.8792538001	 2.6471551427	 1.6348103717	-0.329898
H	-0.1434995211	 2.0618706781	-0.2298537906	 0.302434
H	 0.6536794998	-0.6110240322	-0.3506555777	 0.112106
H	 0.2546471079	 0.3285440743	 1.0870101816	 0.114089
H	-2.8815423833	-1.1344317881	-1.5629014701	 0.14752
H	-1.1145629129	-1.296556002	-2.0312830929	 0.140513
H	-0.6938851518	-2.5490559597	 0.1468178561	 0.131317
H	-2.4661806685	-2.3472488359	 0.578602288	 0.148204
43.0932	107.9076	141.9517	192.5137	238.7369	273.9544	300.8742	319.3317	346.8992	431.5926	499.6723	587.1743	700.0149	755.313	792.1439	829.1142	895.9106	934.2271	976.0365	1012.0105	1055.1058	1069.2023	1098.1862	1100.0472	1202.2931	1204.0519	1304.434	1347.0353	1406.1486	1416.5441	1457.5623	1483.1194	1494.5767	1767.8683	2331.1005	3009.1427	3071.2597	3142.409	3146.2549	3232.1057	3245.8508	3820.8197
OCC1(CC1)C(=O)C#N	OCC1(CC1)C(=O)C#N	
InChI=1S/C6H7NO2/c7-3-5(9)6(4-8)1-2-6/h8H,1-2,4H2	InChI=1S/C6H7NO2/c7-3-5(9)6(4-8)1-2-6/h8H,1-2,4H2
