17
gdb 62806	3.04328	1.32757	1.1469	2.5462	68.93	-0.2391	-0.0314	0.2076	1091.2538	0.132801	-458.911899	-458.90329	-458.902346	-458.944911	32.377	
C	-0.0760801226	 1.575723074	-0.1725450909	-0.480623
C	 0.0061264788	 0.0815913549	 0.010726126	 0.371928
O	-1.1429170601	-0.6324210921	-0.378750301	-0.463156
C	 1.2647559642	-0.7163635827	-0.1847422256	 0.018816
O	 2.4243988248	 0.0002023186	 0.2585480184	-0.279875
C	 1.9523474674	-0.0500372497	 1.6190922657	 0.028126
C	 1.9660862046	 1.2404625772	 2.4011825831	 0.149003
O	 2.3393471734	 2.3096686074	 1.9976139783	-0.240558
C	 0.6140015697	-0.6608982255	 1.1905260227	-0.212938
H	 0.881050843	 2.0564118376	 0.0315829225	 0.170202
H	-0.3508660472	 1.8004319202	-1.2109368144	 0.104937
H	-0.8421448642	 2.0079195553	 0.4786140886	 0.124718
H	-1.2732978033	-0.4817839768	-1.3220270093	 0.286906
H	 1.3968500729	-1.5266727107	-0.8926372882	 0.112557
H	 2.5372775788	-0.7837390431	 2.1982609775	 0.111255
H	 1.591809251	 1.1032859535	 3.4439330833	 0.081111
H	 0.0513306688	-1.411259568	 1.7274620332	 0.11759
99.1139	145.9227	175.4331	248.8218	260.4823	273.4257	308.6266	391.2464	406.4533	469.8818	544.7295	652.6293	705.8513	724.7856	819.1756	858.985	908.4566	966.4186	994.1973	1002.0614	1013.7803	1056.5098	1061.5529	1101.2694	1118.4742	1179.6696	1223.1926	1244.783	1277.1379	1308.0449	1354.6096	1412.3341	1419.7946	1436.4023	1497.8261	1501.717	1838.8223	2850.8949	2974.6559	3027.0056	3092.1269	3153.98	3180.3806	3218.5948	3792.8583
CC1(O)C2OC(C=O)C12	C[C@@]1(O)[C@H]2O[C@@H](C=O)[C@@H]12	
InChI=1S/C6H8O3/c1-6(8)4-3(2-7)9-5(4)6/h2-5,8H,1H3	InChI=1S/C6H8O3/c1-6(8)4-3(2-7)9-5(4)6/h2-5,8H,1H3/t3-,4+,5-,6-/m0/s1
