22
gdb 56194	4.244	0.72027	0.66045	3.4455	84.66	-0.2396	0.0379	0.2775	1767.6584	0.193854	-404.378692	-404.368475	-404.367531	-404.416639	36.108	
C	-0.19914443	 1.4672289798	-0.0525529923	-0.481041
C	-0.1476079317	-0.0152771387	 0.2885570063	 0.407413
O	 0.405159085	-0.4256868289	 1.2934664071	-0.374045
N	-0.760294049	-0.8395973544	-0.6133844892	-0.312076
C	-0.8633044863	-2.2774873457	-0.4223498055	-0.196646
C	-2.2757484455	-2.7358853716	-0.0815234644	 0.059776
C	-3.3923672319	-2.6359561293	-1.1627693329	-0.231342
C	-3.9275169796	-4.0108459815	-0.6787536081	-0.205553
C	-2.5543197242	-4.2629236803	 0.0004383501	-0.23231
H	 0.818337061	 1.8652142977	-0.0362740285	 0.152294
H	-0.6521623239	 1.6832080362	-1.0239095186	 0.107611
H	-0.7648342336	 1.9878686655	 0.7253158442	 0.150701
H	-1.2360455855	-0.4280190408	-1.3989287375	 0.242623
H	-0.5171538684	-2.7896426291	-1.3306618631	 0.094288
H	-0.1731122759	-2.5253325664	 0.3881760239	 0.14699
H	-2.5991244581	-2.2396062193	 0.8397796725	 0.083068
H	-4.0710268352	-1.7800728454	-1.1242744162	 0.094939
H	-2.974381408	-2.7040031124	-2.1741372402	 0.091379
H	-4.7276149095	-3.8956503494	 0.0578384069	 0.105
H	-4.257638623	-4.7228411362	-1.43855741	 0.096991
H	-1.878741591	-4.8248176626	-0.6539024868	 0.098274
H	-2.5448859157	-4.7288626372	 0.9883493924	 0.101665
19.4342	40.1047	60.7687	80.3475	134.645	229.4163	279.0833	329.3942	410.5511	448.9799	486.5148	613.9532	635.7067	646.2489	763.3245	789.516	847.2974	895.7663	932.0275	939.7174	973.0586	980.1155	994.3271	1050.0558	1060.1944	1111.0512	1121.9867	1168.6127	1202.7631	1233.7475	1257.1513	1259.7839	1263.308	1273.7593	1285.2815	1310.1041	1358.2719	1394.1746	1404.3585	1470.2433	1476.09	1479.4266	1486.524	1486.6857	1510.8123	1539.5837	1779.7851	3010.0237	3034.1553	3044.904	3048.4891	3054.2686	3059.5227	3093.6808	3101.8856	3109.2375	3117.7801	3123.4307	3131.9183	3648.6755
CC(=O)NCC1CCC1	CC(=O)NCC1CCC1	
InChI=1S/C7H13NO/c1-6(9)8-5-7-3-2-4-7/h7H,2-5H2,1H3,(H,8,9)	InChI=1S/C7H13NO/c1-6(9)8-5-7-3-2-4-7/h7H,2-5H2,1H3,(H,8,9)
