15
gdb 123476	5.13649	0.96234	0.92751	4.0791	67.08	-0.2838	-0.0259	0.2579	1251.1553	0.114186	-450.079623	-450.072162	-450.071218	-450.113183	26.154	
C	-0.0691606836	 1.5690263863	 0.1165291206	-0.180212
C	-0.1384261534	 0.0776302493	 0.3492635255	 0.081689
C	-1.2749638579	-0.7024163417	-0.1530917397	-0.174645
O	-0.0043255186	-0.747721977	-0.802623624	-0.215646
N	 1.3048328497	 2.041082398	 0.0149974473	 0.15101
N	 2.1711234289	 1.9740354648	 1.0192796515	-0.252411
C	 3.2563035751	 2.4917313993	 0.4570643738	 0.082163
N	 3.0557637609	 2.858215802	-0.8283079381	-0.206229
N	 1.8079709735	 2.5633711705	-1.0969702876	-0.114734
H	-0.5518512174	 1.8356328447	-0.8245472885	 0.159306
H	-0.5510623095	 2.1039986764	 0.9407649986	 0.145534
H	 0.398296778	-0.2738468639	 1.2295108126	 0.125261
H	-1.5725860915	-1.6105310699	 0.367695842	 0.127768
H	-2.0673934112	-0.2044647844	-0.7106239595	 0.12212
H	 4.193542987	 2.6083586356	 0.9762811454	 0.149027
47.6096	61.6901	123.7192	258.1747	338.0838	375.4803	461.3842	699.2779	726.8161	779.1302	801.4518	872.0951	903.3847	946.6657	970.7209	1028.2052	1046.5212	1089.5581	1100.0943	1161.8284	1164.0598	1167.1045	1194.3726	1253.9903	1292.6858	1320.0715	1343.5141	1362.361	1401.4451	1445.0006	1461.2908	1496.0865	1532.4318	3066.5016	3088.0606	3126.7168	3148.4397	3177.1024	3288.5363
C(C1CO1)N1N=CN=N1	C([C@H]1CO1)n1ncnn1	
InChI=1S/C4H6N4O/c1(4-2-9-4)8-6-3-5-7-8/h3-4H,1-2H2	InChI=1S/C4H6N4O/c1(4-2-9-4)8-6-3-5-7-8/h3-4H,1-2H2/t4-/m0/s1
