17
gdb 113020	2.9311	1.16765	0.96762	2.7885	71.45	-0.2451	-0.0382	0.2069	1238.5689	0.133994	-458.963812	-458.95502	-458.954075	-458.998263	31.088	
C	 0.1449578499	 1.1635098828	 0.2780434919	-0.244742
O	 0.2572746609	-0.2384212408	 0.0886223236	-0.236877
C	 0.5120995788	-0.6059416575	-1.2381581852	 0.170835
O	 1.8301752353	-0.2514726678	-1.6554447264	-0.266393
C	 2.6540455925	-1.4077373053	-1.7046624195	-0.031687
C	 3.6308647343	-1.4212082783	-0.5232568436	 0.14566
O	 4.7204091615	-1.9258503092	-0.5569054979	-0.241546
C	 1.6969148796	-2.5679354742	-1.5915952357	-0.099602
C	 0.4773428264	-2.1077821044	-1.3400269332	-0.112865
H	 1.0835509318	 1.6760882057	 0.0371958627	 0.127973
H	-0.6589722083	 1.5865672268	-0.3424857864	 0.109191
H	-0.0963028928	 1.323997292	 1.3306182967	 0.13123
H	-0.187873297	-0.0776212934	-1.9049024514	 0.077659
H	 3.2302407246	-1.4082756729	-2.6374530005	 0.11483
H	 3.2129690394	-0.9321283392	 0.3839773652	 0.098473
H	 2.0160964514	-3.5980408942	-1.6748840274	 0.132633
H	-0.4255909483	-2.68024088	-1.1793805928	 0.125229
57.0702	82.2712	123.4605	175.1858	182.3964	287.6452	309.1761	416.6001	461.5192	525.4706	552.2621	737.6798	803.1398	828.7721	901.7563	948.6129	960.8135	989.0473	1005.9479	1046.9074	1057.402	1085.2357	1116.5722	1146.5397	1178.9527	1215.3174	1251.2035	1298.8835	1326.3369	1371.4429	1391.4041	1397.4015	1475.9933	1485.8547	1511.7231	1681.0175	1836.4009	2902.932	2978.5945	2995.3318	3047.9807	3066.7484	3129.5504	3224.2062	3247.9198
COC1OC(C=O)C=C1	CO[C@H]1O[C@@H](C=O)C=C1	
InChI=1S/C6H8O3/c1-8-6-3-2-5(4-7)9-6/h2-6H,1H3	InChI=1S/C6H8O3/c1-8-6-3-2-5(4-7)9-6/h2-6H,1H3/t5-,6+/m1/s1
