21
gdb 54976	3.25677	1.04857	0.99629	2.5512	84.79	-0.238	-0.0072	0.2309	1326.9596	0.181279	-387.094686	-387.085365	-387.084421	-387.129332	34.654	
C	-0.0660463184	 1.5093797158	-0.1391460464	-0.483029
C	 0.0504446683	-0.0042791744	-0.1299946784	 0.394131
O	 1.1281766305	-0.5638214927	-0.1758401278	-0.334274
C	-1.227431606	-0.7642476102	-0.0439483416	-0.206867
C	-1.2691755933	-2.1663845354	-0.6435192939	-0.342903
C	-1.2609095509	-2.0130266941	 0.8309735071	 0.384646
C	-0.18333361	-2.5359159543	 1.7901260196	-0.271863
C	-1.3154887135	-3.2699575269	 2.5708111332	-0.212416
C	-2.377938959	-2.4363780273	 1.7939768904	-0.294894
H	 0.9260595269	 1.9599067455	-0.1830730634	 0.138859
H	-0.6600560037	 1.8376661457	-1.0000058595	 0.138251
H	-0.5917458044	 1.8557203476	 0.7582856487	 0.136534
H	-2.1414118156	-0.1790737579	-0.0787979806	 0.080769
H	-2.188766686	-2.4626737983	-1.1381601063	 0.112234
H	-0.3492257431	-2.4896284011	-1.1202943433	 0.135415
H	 0.6037735159	-3.1512904418	 1.3517984063	 0.112678
H	 0.2890834545	-1.7417396292	 2.3744437504	 0.105841
H	-1.3661000159	-4.3333358701	 2.3251562489	 0.106434
H	-1.3112340798	-3.164140616	 3.6574988761	 0.099249
H	-2.7689306908	-1.6004912913	 2.3827393216	 0.101124
H	-3.2213231259	-2.9812315534	 1.3606647389	 0.100081
57.5855	91.1771	130.0958	140.1268	158.2588	297.1358	323.5915	377.1189	385.816	513.3322	597.4259	640.0355	711.276	771.4738	798.5105	848.3521	866.1842	914.3128	931.6562	934.1162	952.1533	959.3775	1012.9774	1049.2427	1071.7231	1078.2268	1115.6928	1132.4338	1183.667	1195.5059	1219.312	1226.9362	1251.9371	1272.1295	1281.1242	1340.2676	1377.3847	1417.542	1463.7996	1469.2554	1475.8268	1476.1331	1483.6034	1506.9423	1782.7915	3032.5825	3045.599	3065.4774	3069.5112	3092.0889	3092.71	3114.3652	3122.8429	3129.3613	3151.5619	3154.7328	3217.7369
CC(=O)C1CC11CCC1	CC(=O)[C@H]1CC21CCC2	
InChI=1S/C8H12O/c1-6(9)7-5-8(7)3-2-4-8/h7H,2-5H2,1H3	InChI=1S/C8H12O/c1-6(9)7-5-8(7)3-2-4-8/h7H,2-5H2,1H3/t7-/m1/s1
