22
gdb 13404	5.36447	1.00087	0.90072	1.4664	78.96	-0.2374	0.0872	0.3246	1371.0478	0.201001	-350.224637	-350.215667	-350.214723	-350.259248	32.46	
C	 0.0334294941	 1.5546553483	-0.0541179495	-0.38151
C	-0.0035965887	 0.0244813478	-0.055068439	-0.163979
C	-1.4264850274	-0.5398784576	 0.0176434445	-0.17809
C	-1.4781798597	-2.0637521714	-0.0066750392	 0.155149
C	-2.8853187585	-2.6726642028	 0.058907426	-0.239468
C	-2.6947519191	-4.0051166312	-0.6774793742	-0.23177
C	-1.6861880486	-3.6149828102	-1.7658998789	-0.055499
O	-0.9088817961	-2.5441062524	-1.2336128905	-0.278783
H	 1.0604537672	 1.9293556502	-0.1084843367	 0.109851
H	-0.5151284332	 1.9643308769	-0.9097873629	 0.112486
H	-0.4222540924	 1.9642171174	 0.8548552127	 0.108885
H	 0.4793532889	-0.36260099	-0.9585378956	 0.117254
H	 0.5797066015	-0.3579535893	 0.7933993884	 0.088953
H	-1.918709294	-0.1905054091	 0.9360810854	 0.08675
H	-2.0198058251	-0.1593029544	-0.824549951	 0.091718
H	-0.8725607256	-2.4534565806	 0.8301250167	 0.060036
H	-3.2454464545	-2.7866452388	 1.0843131113	 0.100448
H	-3.5946262729	-2.0333972935	-0.4804114789	 0.100388
H	-2.2615763974	-4.7533125811	-0.0049206804	 0.10598
H	-3.620477726	-4.416971898	-1.0868095184	 0.101274
H	-1.0182549552	-4.4381631682	-2.0451347272	 0.098993
H	-2.2000811774	-3.2762671519	-2.6781049126	 0.090932
37.9966	93.9078	99.0376	137.9765	223.0756	247.96	315.0464	370.9722	479.7324	585.6217	667.7999	744.9132	822.8595	867.0464	883.2539	902.7817	908.5225	937.8369	956.4733	1025.805	1036.1769	1056.8902	1079.269	1118.3934	1148.1536	1177.4146	1192.8649	1209.1526	1251.4826	1269.7453	1288.9546	1317.0491	1326.9562	1339.6682	1363.5686	1380.9843	1400.7742	1409.1999	1415.5086	1471.0027	1486.6429	1493.7978	1498.3979	1499.8879	1510.3579	1532.6516	2943.7148	2987.9333	3007.0727	3019.2828	3026.6934	3037.888	3042.0697	3047.0961	3056.2962	3071.9659	3096.3257	3099.5692	3100.796	3108.8346
CCCC1CCCO1	CCC[C@H]1CCCO1	
InChI=1S/C7H14O/c1-2-4-7-5-3-6-8-7/h7H,2-6H2,1H3	InChI=1S/C7H14O/c1-2-4-7-5-3-6-8-7/h7H,2-6H2,1H3/t7-/m0/s1
