15
gdb 127909	3.81363	1.19279	0.91383	2.3786	74.83	-0.243	-0.0626	0.1804	1211.997	0.114351	-450.164214	-450.156009	-450.155065	-450.198428	29.244	
C	 0.0791475906	 1.4391713084	 0.0078274669	-0.328501
N	 0.0162785768	-0.0131291894	 0.0048841223	-0.303585
C	-1.1171457039	-0.5928115379	 0.0116462194	 0.382729
N	-1.1484649332	-1.9927978567	 0.0084206997	-0.426173
C	-2.2751912218	-2.7808265555	 0.0143488776	 0.506214
O	-2.2761952974	-3.9905572277	 0.0112248093	-0.383762
N	-3.4497999836	-2.0301428617	 0.0246125848	-0.301643
N	-3.5531969699	-0.6870109524	 0.0287093561	-0.144875
C	-2.4612528274	-0.0029388468	 0.0226413109	-0.071185
H	 1.1282699473	 1.7438649125	-0.0010645974	 0.131565
H	-0.4006303073	 1.8858488331	-0.874464401	 0.121468
H	-0.3841725155	 1.8811687318	 0.901200001	 0.121543
H	-0.2588000376	-2.4728711323	 0.0008060407	 0.273603
H	-4.317796117	-2.542376029	 0.0294156235	 0.284973
H	-2.5718950303	 1.0732816138	 0.0261110764	 0.137629
24.0394	98.2591	144.3129	215.1337	259.2603	393.3893	398.2002	494.9491	561.6783	574.8991	594.0268	674.2195	734.6451	737.541	759.6132	897.3614	954.2231	999.3049	1063.0262	1106.9338	1132.1043	1167.9473	1287.2804	1373.9946	1395.2993	1408.6805	1441.0876	1459.8808	1491.9311	1510.4688	1647.591	1730.3605	1839.0386	2989.9423	3041.8675	3105.2072	3225.3722	3612.3619	3648.8455
CN=C1NC(=O)NN=C1	C[N]c1[nH]c(=O)[nH]nc1	
InChI=1S/C4H6N4O/c1-5-3-2-6-8-4(9)7-3/h2H,1H3,(H2,5,7,8,9)	InChI=1S/C4H9N4O/c1-5-3-2-6-8-4(9)7-3/h3,6H,2H2,1H3,(H2,7,8,9)
