16
gdb 26283	3.68799	1.25891	1.01113	1.3513	71.76	-0.2658	-0.0617	0.2042	1148.9869	0.125737	-434.119068	-434.111048	-434.110104	-434.152459	29.171	
C	 0.2519646479	 1.492268234	 0.2649239332	-0.393606
C	-0.1355029452	 0.0346247369	-0.0331630024	 0.071859
O	-1.5274384362	-0.0925299033	-0.1901225643	-0.441474
C	 0.6099087044	-0.4752402602	-1.2497658503	 0.346587
N	-0.1218553871	-0.7913129625	-2.3219442897	-0.302347
C	 0.5713687927	-1.2269415631	-3.3740143439	 0.085749
N	 1.8928179347	-1.3676473931	-3.4268919895	-0.241796
C	 2.5185971865	-1.0227206567	-2.2968785051	 0.081445
N	 1.9428258956	-0.5725455536	-1.1868967824	-0.26734
H	 1.32680424	 1.5807430218	 0.4410071127	 0.133031
H	-0.030080707	 2.1380133353	-0.5724787462	 0.119861
H	-0.2876662896	 1.8272928073	 1.1537982205	 0.132004
H	 0.1904828158	-0.5870639444	 0.8147735925	 0.105359
H	-1.6776236027	-0.350305505	-1.1116194928	 0.291767
H	 0.0050955857	-1.49161745	-4.2643214923	 0.140528
H	 3.6020409547	-1.1199998634	-2.2866978599	 0.138372
34.3158	127.0833	217.2263	248.7754	292.0596	341.4185	369.6452	398.075	487.5745	559.4809	646.0028	708.6344	799.1467	843.8495	923.4319	984.0044	1012.9209	1042.6492	1049.3516	1097.3435	1156.5731	1176.9319	1197.6614	1267.5935	1297.6057	1321.8354	1350.1553	1392.0822	1424.0593	1429.3008	1466.4622	1491.1029	1500.6039	1584.3261	1610.2617	2992.4532	3045.5251	3123.6495	3137.465	3164.3175	3167.915	3711.4776
CC(O)C1=NC=NC=N1	C[C@@H](O)c1ncncn1	
InChI=1S/C5H7N3O/c1-4(9)5-7-2-6-3-8-5/h2-4,9H,1H3	InChI=1S/C5H7N3O/c1-4(9)5-7-2-6-3-8-5/h2-4,9H,1H3/t4-/m1/s1
