18
gdb 86520	3.85315	0.92755	0.82817	2.2796	81.15	-0.2195	-0.0605	0.1589	1410.6407	0.145403	-401.896588	-401.887238	-401.886294	-401.931837	33.466	
C	 0.2530314209	 1.4808348227	 0.2088170683	-0.31917
N	 0.0594385046	 0.0479295323	 0.1876255872	-0.066368
C	-1.2771701276	-0.4844685594	 0.5277606727	-0.199675
C	-0.5950963323	-1.6444548408	 1.2823072222	-0.104736
C	 0.6897768055	-0.7549075774	 1.2492231664	-0.177096
C	-1.1153921128	-2.0107322959	 2.6500875985	 0.226105
O	-2.017775745	-1.4221285015	 3.2070708206	-0.289126
C	-0.4262510777	-3.1223333741	 3.2885474218	 0.256804
C	 0.1592403463	-4.0440199309	 3.7956806393	-0.414111
H	 1.3060027242	 1.7160582513	 0.0200538667	 0.120894
H	-0.3409061689	 1.9442949511	-0.5859803996	 0.1236
H	-0.0374268899	 1.9460924781	 1.1699905243	 0.095151
H	-1.8474656975	 0.1503108228	 1.2215555729	 0.112439
H	-1.9046130393	-0.7364509561	-0.3326737486	 0.105173
H	-0.4625153352	-2.5452961575	 0.6789024543	 0.104951
H	 1.6326271658	-1.2380393745	 0.9753116431	 0.111945
H	 0.8287958337	-0.2035919082	 2.1942430571	 0.096952
H	 0.6642030251	-4.8559181719	 4.260481933	 0.216266
29.2327	76.4663	123.8118	193.0096	222.5958	258.7197	296.8661	344.0841	348.0998	458.0812	553.7558	643.9252	655.8449	703.7389	732.6396	764.9631	893.756	916.9942	989.6861	996.0558	1008.7083	1090.6477	1121.5012	1128.8183	1156.8278	1188.6659	1228.4318	1231.8714	1240.6176	1298.4174	1339.1628	1372.3222	1451.8221	1485.8198	1498.4146	1503.2845	1528.38	1762.5492	2209.6232	2927.8683	2965.2533	3002.8821	3056.9612	3067.4038	3070.7874	3092.9744	3098.8213	3493.2286
CN1CC(C1)C(=O)C#C	CN1CC(C1)C(=O)C#C	
InChI=1S/C7H9NO/c1-3-7(9)6-4-8(2)5-6/h1,6H,4-5H2,2H3	InChI=1S/C7H9NO/c1-3-7(9)6-4-8(2)5-6/h1,6H,4-5H2,2H3
