18
gdb 71916	2.50639	2.02966	1.46627	3.9283	75.23	-0.2291	-0.0041	0.225	945.6793	0.148782	-401.924313	-401.916926	-401.915982	-401.955861	29.17	
C	-0.0093775874	 1.5835731409	 0.0173401999	-0.508072
C	 0.07069564	 0.078254867	 0.0687814347	 0.179019
C	-1.2595016947	-0.7660123635	 0.1600917498	-0.268874
C	-0.574051297	-1.8315404359	 1.0578741769	-0.054621
C	 0.372842091	-2.7721822285	 0.2771312851	-0.194175
N	 1.3886391018	-1.6557528063	 0.1472141161	-0.17208
C	 0.6389438213	-0.8572541186	 1.1889864615	-0.044017
C	 0.9642808528	-0.7280045367	-0.8765400837	 0.363626
O	 1.1984786059	-0.7210170511	-2.048923402	-0.325642
H	 0.9791897732	 2.0407419503	 0.1258505755	 0.130061
H	-0.4202196121	 1.9064578477	-0.9452988698	 0.139981
H	-0.6561856642	 1.9755313838	 0.8094767269	 0.117323
H	-1.9905602704	-0.2002393663	 0.744605968	 0.114827
H	-1.7235361469	-1.0848912415	-0.7780378236	 0.114233
H	-1.1544785752	-2.2399838246	 1.8847019584	 0.078783
H	 0.7816720366	-3.5774509455	 0.8934998652	 0.120007
H	 0.039270035	-3.1816408113	-0.6811568648	 0.125333
H	 1.1611919905	-0.5520870398	 2.0931712759	 0.084289
142.1284	174.2422	222.787	254.4941	283.4267	383.7443	464.4102	597.8936	632.717	689.8307	765.3262	796.0863	816.5511	860.3524	881.6995	912.594	938.8595	956.0373	967.4216	1005.4842	1045.2105	1054.5575	1111.4836	1123.4103	1161.0373	1182.8204	1191.1931	1214.8725	1221.8567	1241.5769	1296.8858	1312.6369	1345.1786	1409.2772	1479.1864	1488.2463	1492.4167	1503.9241	1888.7234	3030.7753	3048.5211	3050.9211	3099.1403	3103.4604	3104.2013	3105.3239	3114.1159	3140.672
CC12CC3CN(C13)C2=O	C[C@]12C[C@H]3CN([C@@H]13)C2=O	
InChI=1S/C7H9NO/c1-7-2-4-3-8(5(4)7)6(7)9/h4-5H,2-3H2,1H3	InChI=1S/C7H9NO/c1-7-2-4-3-8(5(4)7)6(7)9/h4-5H,2-3H2,1H3/t4-,5+,7-/m0/s1
