18
gdb 45992	5.09988	0.94028	0.85142	4.332	85.02	-0.2322	-0.0227	0.2095	1361.0132	0.149165	-401.963552	-401.955614	-401.95467	-401.996677	30.18	
N	-0.0170772683	 1.2948753859	-0.2473983821	-0.556473
C	-0.0417510288	 0.0387234565	-0.0872280066	 0.427457
O	 1.0685258398	-0.7433894545	 0.1595517045	-0.253633
C	 0.6715055361	-2.1068606751	 0.2850969614	-0.18539
C	-0.827201344	-2.1094151828	 0.0893747383	 0.338826
C	-1.207559054	-0.842674205	-0.124993399	-0.319925
C	-1.6672382388	-3.3118826066	 0.1357610171	-0.098039
C	-1.1701979166	-4.6520944283	-0.3874932055	-0.270204
C	-1.3617049613	-4.4617874818	 1.0850854604	-0.27024
H	 0.9384536831	 1.6456459881	-0.1681574556	 0.219324
H	 1.1993984606	-2.7048762293	-0.4698878117	 0.125558
H	 0.9710841149	-2.4777668932	 1.2745399287	 0.125564
H	-2.2060811217	-0.4719720401	-0.3037097177	 0.120454
H	-2.7212449477	-3.1123821951	-0.0270752398	 0.097315
H	-1.8816351429	-5.261888065	-0.9323134359	 0.126838
H	-0.1574860174	-4.7031771895	-0.7708906287	 0.122872
H	-0.4803257638	-4.3824469607	 1.7112417368	 0.122866
H	-2.2067424892	-4.9389298534	 1.5678673256	 0.126828
48.3041	141.5205	172.1686	198.4699	296.2858	345.0887	485.6154	534.3481	573.8623	692.6925	701.4196	785.1238	825.9817	850.5501	866.0202	874.9338	900.0937	924.7403	939.9874	1024.348	1029.1718	1046.393	1058.6879	1080.6973	1102.3796	1133.1504	1181.5809	1199.5374	1214.4477	1228.686	1269.7241	1362.894	1389.9992	1394.0126	1472.5293	1500.8043	1505.7048	1686.2789	1758.9695	3009.3453	3037.529	3140.2359	3144.4387	3162.6243	3219.3126	3235.1171	3249.3395	3480.6532
N=C1OCC(=C1)C1CC1	[NH]C1=C[C](CO1)C1CC1	
InChI=1S/C7H9NO/c8-7-3-6(4-9-7)5-1-2-5/h3,5,8H,1-2,4H2	InChI=1S/C7H9NO/c8-7-3-6(4-9-7)5-1-2-5/h3,5,8H,1-2,4H2
