22
gdb 110390	5.33989	0.93298	0.92114	1.1847	87.22	-0.2086	0.0837	0.2923	1402.0152	0.193773	-367.115222	-367.106613	-367.105669	-367.148374	33.629	
C	-0.2330293844	 1.6448725294	 0.0967156017	-0.375831
C	 0.1396250054	 0.1745797411	-0.1259464586	-0.202541
C	 0.8241549035	-0.4535182901	 1.0820480534	-0.009865
C	-0.0194596737	-0.8495499045	 2.3158560658	-0.061442
C	-0.4959618628	-2.1911257751	 1.6758079015	-0.012765
C	 0.9805024175	-1.988842367	 1.152938488	-0.096619
C	 0.9781390697	-1.9727844548	 2.7274389216	-0.016592
N	-0.1286296975	-2.962241215	 2.902742124	-0.119562
C	 0.2249965159	-4.3623061042	 2.6936713237	-0.324621
H	 0.6535758537	 2.2460516797	 0.3273835468	 0.113753
H	-0.7053636441	 2.0762018	-0.7913003609	 0.111139
H	-0.9321306802	 1.7545779956	 0.9326812122	 0.117589
H	-0.7613410643	-0.3984538212	-0.3798304115	 0.092836
H	 0.8059210456	 0.0951653115	-0.9952836061	 0.093352
H	 1.7401437296	 0.0983824343	 1.3330865873	 0.060229
H	-0.5989368553	-0.2376136162	 3.0071424747	 0.077222
H	-1.4036419863	-2.3912781369	 1.1043075486	 0.07822
H	 1.5524599816	-2.6375777454	 0.4888467944	 0.073244
H	 1.831641095	-1.8976778938	 3.4042359228	 0.075651
H	 0.7378343081	-4.7406160235	 3.5844665515	 0.116879
H	-0.6912600477	-4.9485721685	 2.565072373	 0.11678
H	 0.8741195106	-4.5473810555	 1.8209089461	 0.092941
77.5207	132.7006	182.382	219.2526	234.3802	265.0944	325.7095	411.146	501.7746	574.6401	721.482	751.8196	776.8489	814.4616	821.0238	845.5343	858.6458	906.8602	911.091	959.5262	972.5511	1018.3605	1056.3107	1076.2052	1090.1869	1119.111	1123.0869	1140.9889	1143.9827	1163.699	1177.9893	1181.1951	1191.0611	1208.5686	1238.5176	1289.5753	1293.9063	1325.9797	1351.4452	1409.5173	1419.6823	1447.0378	1485.4687	1490.6697	1498.4131	1500.3569	1507.1764	2961.4989	3011.211	3015.7173	3030.788	3049.3783	3058.7461	3092.5968	3094.1237	3096.4296	3098.5539	3102.8672	3109.7875	3121.951
CCC1C2C3C1C2N3C	CC[C@H]1[C@H]2[C@H]3[C@@H]1[C@@H]2N3C	
InChI=1S/C8H13N/c1-3-4-5-7-6(4)8(5)9(7)2/h4-8H,3H2,1-2H3	InChI=1S/C8H13N/c1-3-4-5-7-6(4)8(5)9(7)2/h4-8H,3H2,1-2H3/t4-,5-,6+,7-,8+
