17
gdb 14655	14.8078	0.58586	0.57754	2.5951	71.43	-0.2563	-0.0352	0.2211	1862.6791	0.13869	-400.997276	-400.987622	-400.986677	-401.033779	31.247	
C	 0.0350073293	 1.3906611482	 0.1028531948	-0.315872
N	 0.0389774479	-0.0500972722	 0.2437256928	-0.200066
C	-1.0325338393	-0.6591464203	 0.0027594416	 0.131599
O	-1.0930892816	-2.0061150762	 0.0979146383	-0.204053
C	-2.3761676072	-2.5886541269	-0.1107506053	-0.083159
C	-2.1894321048	-4.1030261824	-0.1574599713	-0.279307
C	-3.5123023396	-4.8370354602	-0.1196933152	 0.151759
O	-3.8700697648	-5.6494491613	-0.9310610994	-0.226778
H	 0.7839811495	 1.6887994647	-0.6394965592	 0.131066
H	-0.9384011736	 1.8101251319	-0.2006053048	 0.096407
H	 0.3279789754	 1.8525827534	 1.0523855284	 0.130281
H	-1.9771807016	-0.1805469944	-0.3018062746	 0.074296
H	-3.0540956062	-2.3091500396	 0.7089601917	 0.11254
H	-2.8135215936	-2.2246555438	-1.0500062151	 0.122571
H	-1.6287301282	-4.4070689799	-1.043885018	 0.138877
H	-1.6175441595	-4.3956747442	 0.7338700458	 0.142898
H	-4.1596864823	-4.5729054868	 0.7498223095	 0.07694
29.005	55.2692	62.0873	121.6742	125.6882	206.3097	266.8534	307.0092	310.9409	439.0199	535.0076	606.1064	785.7033	871.9933	978.7513	1000.8752	1042.0899	1061.375	1119.8672	1136.1202	1141.6375	1157.9998	1222.44	1248.6983	1282.4584	1313.9381	1394.4948	1431.7018	1433.9405	1450.9851	1468.1715	1480.7704	1504.8873	1520.4663	1784.3929	1841.315	2853.2093	2966.6701	2983.5308	2998.9353	3029.6588	3042.4317	3060.2762	3080.1879	3122.8808
CN=COCCC=O	CN=COCCC=O	
InChI=1S/C5H9NO2/c1-6-5-8-4-2-3-7/h3,5H,2,4H2,1H3	InChI=1S/C5H9NO2/c1-6-5-8-4-2-3-7/h3,5H,2,4H2,1H3
