20
gdb 59247	2.85785	1.3337	1.18768	1.421	77.58	-0.24	0.0146	0.2547	1147.4026	0.171362	-403.149067	-403.140511	-403.139567	-403.182798	32.448	
C	 0.0465060799	 1.3704514602	-0.2560037229	-0.3871
C	 0.0982120734	-0.1039101753	 0.1713152438	 0.012728
C	 0.7039843374	-0.2700454126	 1.5723440808	-0.389841
C	-1.2882917278	-0.7203481067	 0.1185385825	-0.047731
C	-1.9753062478	-1.1694820506	-1.1393558086	 0.021874
O	-1.1422679475	-1.4616245041	-2.2579363029	-0.207294
C	-0.3715119662	-2.5106058401	-1.8643419407	 0.092321
N	-0.5478167838	-3.0059081419	-0.7067086939	-0.251188
C	-1.5783198206	-2.2017318038	-0.0875363419	-0.064984
H	 1.0460272564	 1.8171878386	-0.2391105732	 0.110807
H	-0.3543626469	 1.473799548	-1.2688901089	 0.120496
H	-0.589047645	 1.9550318101	 0.4198318971	 0.10876
H	 0.7457637692	-0.6343032752	-0.5349612016	 0.088686
H	 0.7672456791	-1.3263779022	 1.8496762778	 0.12799
H	 1.7123131857	 0.1544869341	 1.6154714907	 0.109694
H	 0.0957319193	 0.2425398337	 2.3272745082	 0.107854
H	-1.9903006066	-0.2667690172	 0.8172745388	 0.092172
H	-2.9699411406	-0.8583461991	-1.43229352	 0.109962
H	 0.3486742975	-2.8452530115	-2.6010172916	 0.143862
H	-2.2618037051	-2.7214051342	 0.5730394565	 0.100932
36.687	139.4478	161.5112	228.5606	246.1899	309.9799	324.2878	396.1762	471.5184	600.8748	660.0989	738.4743	757.2575	808.7427	856.2252	883.8617	927.9927	928.5606	939.5869	964.619	976.0335	1017.2803	1046.2277	1075.8467	1108.9353	1126.9893	1139.4434	1151.6602	1188.254	1230.6895	1289.9241	1312.1573	1334.528	1336.3898	1366.8695	1397.6988	1416.3138	1433.9195	1487.6191	1491.9264	1503.5754	1510.2058	1667.7331	3024.9304	3028.615	3049.7075	3089.31	3097.0701	3106.903	3110.2225	3118.754	3179.8836	3193.6778	3229.3631
CC(C)C1C2OC=NC12	CC(C)[C@H]1[C@H]2OC=N[C@@H]12	
InChI=1S/C7H11NO/c1-4(2)5-6-7(5)9-3-8-6/h3-7H,1-2H3	InChI=1S/C7H11NO/c1-4(2)5-6-7(5)9-3-8-6/h3-7H,1-2H3/t5-,6+,7-/m1/s1
