18
gdb 119946	2.5705	0.95805	0.86034	3.6805	73.08	-0.2647	0.0216	0.2863	1398.7594	0.146438	-439.074093	-439.064338	-439.063394	-439.109404	34.667	
O	 0.2068068011	 1.3478480952	-0.028053113	-0.416826
C	 0.0185909105	-0.0340714866	 0.2204801338	-0.059739
C	-1.3163093451	-0.5485706202	-0.332272687	-0.232364
C	-1.4582151047	-2.0454058672	-0.1604470857	-0.061344
C	-1.9190187026	-2.6345307161	 1.1342675952	 0.093647
O	-2.224506138	-1.7368378725	 2.146570005	-0.402425
C	-2.8357485257	-2.7178814462	-0.092609649	-0.263474
C	-4.0323562005	-1.9303280196	-0.0993193396	 0.295208
N	-5.0094261101	-1.3099313263	-0.0807539226	-0.344572
H	-0.4641653655	 1.8292122303	 0.4666918896	 0.2849
H	 0.8534363993	-0.5402204979	-0.2779219591	 0.10656
H	 0.0865683541	-0.2680956098	 1.2933216712	 0.106743
H	-2.1374678965	-0.0379824996	 0.1798493755	 0.123184
H	-1.3854882422	-0.2889788057	-1.3943808454	 0.115934
H	-0.7237929543	-2.6372959124	-0.7003467385	 0.107812
H	-1.4830723202	-3.5783267282	 1.4602412533	 0.106397
H	-3.0338070932	-2.0193004296	 2.5872935907	 0.304706
H	-2.9383839564	-3.6868161377	-0.5697321044	 0.135655
72.6806	82.6825	99.6025	126.9745	200.8574	254.6366	280.9738	313.5382	352.6844	389.337	423.1571	575.3203	619.4718	663.1915	771.9281	786.4106	804.1675	895.9096	971.2929	1016.4607	1030.2637	1060.6942	1080.3095	1112.8099	1128.8925	1156.1123	1213.8678	1238.567	1298.2841	1302.3672	1323.9755	1358.4381	1387.496	1410.3399	1423.7622	1455.1355	1485.2856	1513.0348	2349.1839	2997.413	3050.0438	3060.1431	3099.7753	3107.6568	3147.6101	3169.0938	3801.4584	3815.4933
OCCC1C(O)C1C#N	OCC[C@H]1[C@@H](O)[C@H]1C#N	
InChI=1S/C6H9NO2/c7-3-5-4(1-2-8)6(5)9/h4-6,8-9H,1-2H2	InChI=1S/C6H9NO2/c7-3-5-4(1-2-8)6(5)9/h4-6,8-9H,1-2H2/t4-,5+,6-/m1/s1
