15
gdb 25243	3.24025	1.70372	1.12592	4.0105	76.08	-0.2199	-0.0174	0.2025	1010.9766	0.116278	-416.839398	-416.832658	-416.831714	-416.870424	26.588	
N	-0.1196488845	 1.3194657875	 0.0839651504	-0.560092
C	-0.0538940742	 0.0484294628	 0.0005132288	 0.269141
N	 1.0645079386	-0.7965410506	-0.1343410562	-0.365532
C	 0.7456979872	-2.2316936531	-0.0170146003	-0.295877
C	-0.7523535629	-2.1968246794	-0.001467838	 0.239656
C	-1.1580438984	-0.9031694346	 0.0088839744	 0.309068
O	-2.5008094421	-0.7925297694	 0.0100032484	-0.186974
C	-2.9619193956	-2.07882424	-0.0000266252	-0.001625
C	-1.9397575817	-2.9869703666	-0.0118289229	-0.368069
H	 0.8104342012	 1.7400442123	 0.0530354841	 0.203315
H	 1.9491478156	-0.4671175979	 0.2180763369	 0.240068
H	 1.1559353084	-2.7957891314	-0.8647456501	 0.127613
H	 1.1662465321	-2.666828882	 0.9006633966	 0.123123
H	-4.0345574509	-2.1829819977	 0.006444654	 0.144309
H	-2.0475180728	-4.0602000199	-0.0208502209	 0.121874
161.8909	204.5288	263.5085	292.7621	385.3763	533.3899	604.0617	609.8905	629.2666	650.3689	743.0538	766.2983	776.0124	826.5521	833.9712	922.7281	1001.6436	1032.0131	1052.8462	1086.1525	1094.314	1164.9924	1186.8423	1226.5522	1289.1705	1318.1315	1393.3846	1443.5066	1483.9564	1508.0341	1509.0203	1627.2447	1746.8117	3002.1184	3031.2774	3256.1528	3284.6665	3461.9001	3635.6955
N=C1NCC2=C1OC=C2	[NH][C]1NCc2c1occ2	
InChI=1S/C6H6N2O/c7-6-5-4(3-8-6)1-2-9-5/h1-2H,3H2,(H2,7,8)	InChI=1S/C6H6N2O/c7-6-5-4(3-8-6)1-2-9-5/h1-2H,3H2,(H2,7,8)
