15
gdb 69901	3.0437	1.49979	1.1471	4.3967	66.77	-0.2559	-0.0498	0.2061	1039.6621	0.108827	-457.67322	-457.665219	-457.664275	-457.705821	29.663	
C	-0.1081661361	 1.5684985947	 0.2489523471	-0.516207
C	 0.0927649486	 0.0976918284	 0.1013415136	 0.356906
O	-0.7112927703	-0.8177055019	 0.8370921921	-0.250586
C	 0.7086983323	-0.9318427625	 0.9403944133	-0.109253
C	 1.2199302212	-1.695589075	-0.3384836123	-0.069366
O	 0.123560692	-2.0160367081	-1.1575436145	-0.228927
C	 0.5882463862	-0.6701871599	-1.2115874648	 0.25665
C	 1.0980456361	-0.1074695436	-2.4787210977	 0.055007
O	 1.3300294077	-0.7505596055	-3.4714100952	-0.253308
H	 0.763620686	 2.1230710775	-0.1132872232	 0.13366
H	-0.98171815	 1.9005024249	-0.3226674558	 0.144791
H	-0.2686530844	 1.819414081	 1.3005547663	 0.145836
H	 1.1681766017	-0.8936215214	 1.9200418681	 0.121673
H	 2.1544349167	-2.2260186536	-0.4781118282	 0.13675
H	 1.2719925424	 0.9911586951	-2.4408796589	 0.076375
94.9696	162.032	172.149	207.9629	278.5688	294.9468	418.9084	443.9652	491.5444	579.9276	717.1257	750.2176	789.1725	819.1816	839.9757	880.171	899.432	986.3575	993.631	1026.5651	1036.9822	1092.4647	1105.1646	1192.7211	1216.0755	1255.7631	1388.6504	1407.0248	1436.7258	1463.4324	1484.5833	1494.2658	1809.817	2879.7234	3036.6207	3100.09	3124.6392	3194.0377	3204.0114
CC12OC1C1OC21C=O	C[C@]12O[C@H]1[C@H]1O[C@@]21C=O	
InChI=1S/C6H6O3/c1-5-3(8-5)4-6(5,2-7)9-4/h2-4H,1H3	InChI=1S/C6H6O3/c1-5-3(8-5)4-6(5,2-7)9-4/h2-4H,1H3/t3-,4+,5-,6+/m0/s1
