13
gdb 128451	4.83218	1.04878	0.86646	2.6021	61.62	-0.303	-0.0761	0.2269	1238.7256	0.088601	-489.865051	-489.857162	-489.856217	-489.898606	26.767	
C	 0.0172041491	 1.3526078298	 0.0095552698	-0.245974
O	-0.0402010812	-0.0832366992	 0.0025235822	-0.219604
C	-1.2674721707	-0.6040267345	 0.0093580757	 0.408017
O	-2.2975890565	 0.0246997303	 0.0214035622	-0.364547
C	-1.2518969538	-2.0876770091	 0.0026919182	 0.21929
N	-0.176780936	-2.8347066091	-0.0091314078	-0.139413
O	-0.622310759	-4.1144292736	-0.0113445709	-0.134033
N	-1.9958771651	-4.1763818839	-0.0005953224	-0.060529
C	-2.3934572455	-2.9370912147	 0.0079885093	-0.084763
H	 1.0773908054	 1.6013724824	 0.0030655554	 0.147355
H	-0.4806645055	 1.7581772708	-0.8742694785	 0.149484
H	-0.4676373072	 1.7489768767	 0.9047181832	 0.149511
H	-3.437587114	-2.669591246	 0.0174682836	 0.175204
63.0364	108.1139	128.1628	147.2329	258.1304	308.2443	388.6721	497.6812	654.651	659.3231	804.7935	820.5199	866.7553	925.8697	947.0765	980.549	1023.3739	1069.3328	1153.8081	1178.1199	1213.7252	1274.7796	1438.6587	1459.5452	1482.5304	1486.5463	1496.7123	1595.6422	1807.3837	3057.6499	3134.9575	3172.565	3287.0669
COC(=O)C1=NON=C1	COC(=O)c1nonc1	
InChI=1S/C4H4N2O3/c1-8-4(7)3-2-5-9-6-3/h2H,1H3	InChI=1S/C4H4N2O3/c1-8-4(7)3-2-5-9-6-3/h2H,1H3
