16
gdb 44779	2.43641	2.17645	1.57239	3.3841	69.27	-0.2411	-0.0237	0.2174	875.8563	0.124906	-437.760296	-437.75358	-437.752636	-437.791147	27.362	
O	 0.1216450059	 0.1119245095	 0.0751764952	-0.333451
C	 0.0242904459	 1.3040246475	 0.0253403433	 0.464682
C	-1.2235056083	 2.1964515655	 0.0584522831	-0.310047
C	-0.4784747951	 3.5144934092	-0.081873172	-0.090972
N	 0.6272382156	 3.3243654288	 1.0008576558	-0.409729
C	 1.1701434165	 2.33185206	-0.098914577	 0.110758
C	 2.1717537991	 1.848547851	-1.1784389601	-0.192358
O	 1.1745567196	 2.3328180415	-2.1785167952	-0.320042
C	 0.6998949516	 3.263259774	-1.1227166128	 0.118992
H	-1.9003230571	 1.9674348034	-0.7687955505	 0.138376
H	-1.7597162963	 2.1109958398	 1.0056476918	 0.141882
H	-1.0317385424	 4.4521610994	-0.0481514899	 0.093367
H	 1.22370759	 4.1540143514	 0.9721562656	 0.232047
H	 3.107788777	 2.4072910486	-1.2661257944	 0.118791
H	 2.3211545654	 0.7695715183	-1.2477489281	 0.148966
H	 1.2817725826	 4.1881904522	-1.2141469348	 0.088738
140.0578	219.7295	296.671	356.3564	436.9209	494.4629	542.5651	579.3751	637.3949	707.9861	753.261	779.189	808.5442	836.7932	876.7988	929.2782	952.3481	982.2003	1005.6394	1030.2732	1071.5378	1112.8908	1123.526	1136.0044	1155.6363	1202.4606	1250.3189	1268.1412	1282.3983	1291.9339	1334.5408	1393.2652	1449.1718	1492.082	1885.9881	3028.6532	3058.9063	3076.2235	3131.1901	3133.4035	3140.9301	3442.344
O=C1CC2NC11COC21	O=C1C[C@H]2N[C@]31CO[C@@H]23	
InChI=1S/C6H7NO2/c8-4-1-3-5-6(4,7-3)2-9-5/h3,5,7H,1-2H2	InChI=1S/C6H7NO2/c8-4-1-3-5-6(4,7-3)2-9-5/h3,5,7H,1-2H2/t3-,5+,6+/m1/s1
