18
gdb 20175	3.40952	2.60169	1.93444	0.307	74.9	-0.2305	0.0261	0.2566	759.1459	0.157443	-310.650765	-310.644781	-310.643837	-310.680459	25.303	
C	 0.0605759252	 1.6187106378	 0.113329411	-0.237366
C	 1.5681459866	 1.5612396543	-0.1325498644	-0.068804
C	 2.27876128	 0.614952643	 0.8139188981	-0.017418
C	 1.893427529	 0.316829492	 2.2628113999	-0.291304
C	 0.6171008697	-0.4748233855	 2.4017470626	-0.053689
C	-0.2462939843	-0.619251884	 1.3971862017	-0.062423
C	 0.0119151176	 0.0419272701	 0.0717520756	-0.068247
C	 1.5042930756	 0.0504914729	-0.3396531861	-0.078732
H	-0.2875527899	 2.0930051444	 1.0363095474	 0.093325
H	-0.4738025642	 2.0581369531	-0.7332941802	 0.099105
H	 2.1330206417	 2.2973439765	-0.6930983698	 0.077464
H	 3.3527185537	 0.624720038	 0.6451583365	 0.082911
H	 2.7095958259	-0.2445310877	 2.7374434545	 0.104
H	 1.8190475057	 1.2505595215	 2.8397820607	 0.111232
H	 0.4272271642	-0.9343291561	 3.3683747724	 0.082873
H	-1.161157647	-1.1900003078	 1.5301164297	 0.080775
H	-0.655318835	-0.3291947435	-0.7069050242	 0.068197
H	 1.9435110953	-0.5727996088	-1.1088736755	 0.078101
160.1095	281.0534	394.2612	466.4083	507.6902	574.0136	696.4526	704.5151	734.3254	786.3608	826.5377	864.2118	894.6717	925.0284	963.0988	970.2629	981.9075	994.03	1026.4821	1039.8676	1051.2602	1073.4904	1082.3609	1144.7534	1171.1963	1187.5958	1219.7279	1229.3187	1256.0215	1289.2197	1320.57	1339.3389	1359.2491	1407.8408	1432.6599	1473.1878	1494.2403	1713.0598	2996.6347	3024.1008	3043.828	3090.2334	3103.651	3138.5161	3148.6407	3169.3789	3172.7827	3185.4557
C1C2C3CC=CC1C23	C1[C@H]2[C@H]3CC=C[C@@H]1[C@@H]23	
InChI=1S/C8H10/c1-2-5-4-7-6(3-1)8(5)7/h1-2,5-8H,3-4H2	InChI=1S/C8H10/c1-2-5-4-7-6(3-1)8(5)7/h1-2,5-8H,3-4H2/t5-,6+,7-,8+/m0/s1
