15
gdb 127215	3.0573	1.35168	0.99981	4.4685	63.25	-0.2531	-0.016	0.2372	1129.2441	0.112513	-491.099865	-491.091334	-491.09039	-491.133481	30.002	
C	-0.4849773414	 1.2340252586	 0.321199942	-0.357743
N	-0.0461741363	-0.1407188162	 0.1618574517	-0.181636
C	-0.0299545399	-0.8062843346	-1.0575061329	 0.502459
O	-0.3471767144	-0.403903731	-2.1415661132	-0.399421
O	 0.4316118081	-2.0637877733	-0.7710192351	-0.235178
N	 0.6903357203	-2.1795087585	 0.6154887857	-0.180766
C	 0.3989209702	-1.0208840429	 1.1117089248	 0.372847
C	 0.5021381456	-0.7169437193	 2.5738277138	-0.186615
O	-0.7529825984	-0.3570214618	 3.1308927107	-0.402745
H	 0.3669238756	 1.9101701291	 0.445761095	 0.145487
H	-1.0209896868	 1.5074136094	-0.5890191107	 0.17518
H	-1.1408635543	 1.3115999492	 1.1894251416	 0.165918
H	 0.9535167834	-1.5869801457	 3.0650387839	 0.143471
H	 1.1594121585	 0.1436773407	 2.7350606762	 0.13868
H	-1.3227535803	-1.1338448137	 3.1031434166	 0.300061
91.3044	113.321	126.0449	184.9863	225.0244	278.4026	312.1886	393.4643	430.9096	561.902	610.916	699.891	740.92	771.1869	811.0145	910.1632	973.1633	1004.4043	1067.1592	1123.8657	1162.7342	1199.3891	1219.5053	1334.3013	1375.3911	1410.6884	1435.1185	1487.1467	1490.7226	1505.8858	1524.1717	1649.7067	1887.0679	3041.2885	3048.0658	3091.9367	3124.2758	3162.3898	3807.3152
CN1C(=O)ON=C1CO	Cn1c(=O)onc1CO	
InChI=1S/C4H6N2O3/c1-6-3(2-7)5-9-4(6)8/h7H,2H2,1H3	InChI=1S/C4H6N2O3/c1-6-3(2-7)5-9-4(6)8/h7H,2H2,1H3
