17
gdb 15410	3.50359	1.29152	1.04338	3.8611	67.03	-0.2496	0.0045	0.2541	1140.8194	0.140639	-400.975871	-400.967213	-400.966269	-401.009862	29.685	
C	 0.583364295	 1.1157775966	 0.1218380219	-0.230052
O	 0.4407714941	-0.2843810332	 0.031422193	-0.23467
C	 0.622024171	-0.7702835967	-1.2806129257	-0.077809
C	 0.3972726393	-2.2590804644	-1.2699648729	-0.02533
C	 1.1791512836	-3.1369216369	-2.2098674773	-0.252533
N	 1.4440373713	-3.1438188626	-0.7928633949	-0.054513
C	 2.6409586982	-2.7557866251	-0.2117942722	 0.132521
O	 3.7344587039	-3.0313388305	-0.6423519784	-0.29167
H	 1.5880442024	 1.4442614856	-0.1861526819	 0.111618
H	-0.1570160607	 1.6404245247	-0.5019274446	 0.107941
H	 0.4255195808	 1.3915235587	 1.1667236594	 0.134235
H	-0.092422478	-0.2941872127	-1.9739645327	 0.098917
H	 1.6380677772	-0.5429420913	-1.6459285439	 0.100395
H	-0.6102259276	-2.5625711165	-0.9923584018	 0.111261
H	 0.716769059	-4.0310529728	-2.6176269083	 0.131632
H	 1.9255813153	-2.6689777965	-2.8476234228	 0.137446
H	 2.4717180351	-2.2148382364	 0.7364047632	 0.100612
62.4151	98.4411	122.1178	161.317	209.2046	243.9708	292.9755	374.4546	420.3258	523.9249	630.2015	811.3088	882.9589	934.8374	991.7855	1016.6138	1038.642	1094.4319	1103.0236	1131.5508	1146.5904	1163.7318	1178.7428	1195.8909	1228.4863	1270.1799	1362.3864	1391.5075	1414.7313	1451.0275	1481.9307	1487.2423	1500.046	1512.4372	1520.408	1797.1469	2952.5924	2976.8891	2981.8324	2985.4068	3022.7501	3111.1166	3122.1842	3133.701	3199.8482
COCC1CN1C=O	COC[C@H]1CN1C=O	
InChI=1S/C5H9NO2/c1-8-3-5-2-6(5)4-7/h4-5H,2-3H2,1H3	InChI=1S/C5H9NO2/c1-8-3-5-2-6(5)4-7/h4-5H,2-3H2,1H3/t5-,6?/m1/s1
