22
gdb 80021	2.23506	1.94346	1.31671	0.9827	87.11	-0.1906	0.0136	0.2042	1074.9554	0.192688	-367.141029	-367.131911	-367.130967	-367.174289	35.991	
C	 0.9488505504	 1.3807867205	 0.353325577	-0.329544
N	 0.7171569001	-0.0543026749	 0.2748660386	-0.073004
C	-0.6773242329	-0.6350246042	 0.3643250935	-0.12128
C	-0.3314102606	-2.0639137119	-0.079163924	-0.069119
C	 0.7702863409	-2.3202942044	 0.6328927916	-0.061124
C	 0.9528436707	-1.0182091901	 1.4239248645	-0.123216
C	-0.5271066089	-0.7683733371	 1.9478185278	 0.359682
C	-0.7054935172	 0.5047679357	 2.7906621022	-0.462711
C	-1.2992979029	-1.8825953208	 2.6652382877	-0.451393
H	 1.8563492085	 1.5741543501	 0.9366059093	 0.116925
H	 1.1318349107	 1.7641012374	-0.6593552632	 0.112552
H	 0.1386164458	 1.9862679865	 0.7819792398	 0.104348
H	-1.498006307	-0.1002507212	-0.1170198387	 0.058925
H	-0.8666850021	-2.6708229615	-0.7945653613	 0.100536
H	 1.3979573773	-3.1984653026	 0.6712330606	 0.100591
H	 1.8366571009	-0.8796947724	 2.0495247415	 0.057559
H	-1.7039097244	 0.93343059	 2.6428721574	 0.113381
H	-0.6251686072	 0.2491951152	 3.8530750914	 0.111342
H	 0.027908549	 1.2827221208	 2.5966899637	 0.121974
H	-0.8615666609	-2.0718525647	 3.6525818189	 0.109032
H	-2.3368374204	-1.5681322225	 2.8317229357	 0.107989
H	-1.3116599398	-2.8215421977	 2.1138571061	 0.116554
81.0071	124.8941	166.3966	209.2211	284.7076	310.1002	330.5583	355.4231	423.5482	478.6842	554.0208	602.0363	605.5781	628.7368	718.6717	768.5183	814.3956	890.2445	904.7982	907.2272	930.4089	941.9798	953.8293	991.111	1013.3254	1099.1929	1123.7395	1132.4578	1149.8917	1162.3041	1173.1019	1185.5022	1222.9595	1248.3068	1274.5475	1293.3968	1311.6678	1399.0483	1419.8048	1445.6196	1475.9452	1482.5641	1490.1039	1502.6491	1512.238	1544.1606	1611.3536	2990.3806	3024.5215	3029.3014	3034.7374	3076.7883	3079.6496	3083.8063	3101.6276	3106.1193	3149.5546	3177.5713	3224.5283	3251.5112
CN1C2C=CC1C2(C)C	CN1[C@H]2C=C[C@@H]1C2(C)C	
InChI=1S/C8H13N/c1-8(2)6-4-5-7(8)9(6)3/h4-7H,1-3H3	InChI=1S/C8H13N/c1-8(2)6-4-5-7(8)9(6)3/h4-7H,1-3H3/t6-,7+
