18
gdb 44793	2.78803	1.50077	1.17346	2.4081	77.17	-0.2503	0.0193	0.2696	1088.1358	0.147945	-401.904297	-401.896442	-401.895498	-401.937054	30.49	
N	-0.6190569586	 1.0673796152	 0.8676056553	-0.566548
C	-0.3486863924	-0.089050924	 0.4640293948	 0.403875
O	 0.8777260714	-0.6691909185	 0.1511413	-0.275132
C	 0.188101917	-1.8504626286	-0.3454042533	 0.035334
C	-0.5314277415	-2.4966108927	 0.7825831249	-0.346584
C	-1.1586747348	-1.2869053546	 0.0679398738	 0.218934
C	-2.5099661036	-1.2885694602	-0.5467181846	-0.119312
C	-3.5837628632	-0.3551230635	-0.0318635398	-0.267718
C	-2.9873226982	-0.134940593	-1.3976948836	-0.273551
H	 0.227463095	 1.6258259673	 0.989606138	 0.231155
H	 0.551359202	-2.2868399489	-1.2653573846	 0.126338
H	-1.0305880989	-3.4346221881	 0.5557595096	 0.126114
H	-0.1356761158	-2.4131137078	 1.7902405946	 0.131434
H	-2.8453021755	-2.2762055188	-0.8507753464	 0.080069
H	-4.5953097084	-0.7385703256	 0.0417835613	 0.10851
H	-3.2972237244	 0.3445485457	 0.7444414742	 0.147349
H	-2.3238512315	 0.7142209312	-1.5137707652	 0.130816
H	-3.5840094285	-0.367894285	-2.2726407789	 0.108917
58.274	148.433	167.4321	208.5556	345.2466	428.3104	442.8914	468.007	639.6763	660.636	752.2952	790.2934	824.0075	851.5056	860.6644	866.0844	912.3768	924.8549	945.3715	952.8519	1010.5295	1024.6117	1041.2417	1067.2186	1075.0365	1091.7623	1101.456	1132.5205	1186.5405	1202.4069	1221.7942	1254.8798	1292.551	1366.6457	1442.4954	1462.9664	1485.8051	1505.183	1820.7652	3117.9054	3137.6136	3138.5707	3143.8906	3209.42	3221.2027	3222.8427	3237.5129	3477.2298
N=C1OC2CC12C1CC1	[NH][C]1O[C@H]2C[C@@]12C1CC1	
InChI=1S/C7H9NO/c8-6-7(4-1-2-4)3-5(7)9-6/h4-5,8H,1-3H2	InChI=1S/C7H9NO/c8-6-7(4-1-2-4)3-5(7)9-6/h4-5,8H,1-3H2/t5-,7-/m0/s1
