19
gdb 30240	4.14645	1.13309	0.95372	1.9063	85.32	-0.1701	0.0481	0.2182	1266.0613	0.161022	-382.069589	-382.06108	-382.060136	-382.102619	32.609	
C	-0.2997039366	 1.496493424	 0.0433428686	-0.395903
C	-0.0522033667	-0.007325639	 0.0038384235	-0.128285
C	 1.0878999168	-0.5103956975	-0.9669522192	-0.188799
N	 1.7066515439	-1.1467983125	 0.2104853401	 0.012606
C	 2.882899812	-1.4878621488	 0.847531772	-0.245128
C	 2.6611102551	-1.2410988785	 2.1964540174	 0.281715
N	 3.5019535026	-1.620148492	 3.261425736	-0.597399
C	 1.3634380677	-0.6416783669	 2.3609718952	-0.405756
C	 0.8231333383	-0.609000477	 1.0965331148	 0.326395
H	 0.6368193842	 2.0464712872	 0.1795698072	 0.122888
H	-0.7735296568	 1.8430620386	-0.8814801955	 0.11504
H	-0.9628637788	 1.7552538582	 0.8750158291	 0.124285
H	-0.9975686213	-0.5384847739	-0.1535270603	 0.0876
H	 0.8088215423	-1.2089866611	-1.7617110625	 0.112945
H	 1.684214176	 0.3072714843	-1.3858586137	 0.118184
H	 3.7043537786	-1.9811582406	 0.3533274169	 0.101157
H	 4.4701399585	-1.7034428096	 2.9778636023	 0.235964
H	 3.4463861473	-0.9731547227	 4.0381790312	 0.237433
H	 0.9250697869	-0.3214669121	 3.2937658769	 0.085056
79.4595	129.7447	199.0589	212.7484	252.2914	289.3175	352.9206	435.3707	512.3308	573.2805	629.2741	655.7201	689.4395	731.4417	743.7721	772.079	820.2946	867.0339	920.7663	982.3711	1010.2807	1085.7996	1093.5542	1106.5432	1127.429	1154.1107	1173.4514	1222.7962	1242.7654	1272.885	1339.8373	1382.2004	1408.4529	1430.9774	1441.8199	1490.0725	1494.6639	1505.9069	1536.8346	1610.4534	1654.7608	3031.3556	3035.5352	3037.6197	3088.6611	3099.8377	3108.3069	3244.7415	3256.3597	3527.4821	3616.1769
CC1CN2C=C(N)C=C12	C[C@H]1Cn2cc(N)cc12	
InChI=1S/C7H10N2/c1-5-3-9-4-6(8)2-7(5)9/h2,4-5H,3,8H2,1H3	InChI=1S/C7H10N2/c1-5-3-9-4-6(8)2-7(5)9/h2,4-5H,3,8H2,1H3/t5-/m0/s1
