15
gdb 9082	6.12898	0.90182	0.81093	3.3987	64.79	-0.2717	0.0018	0.2734	1323.7613	0.118334	-395.973981	-395.965061	-395.964117	-396.008866	29.918	
N	-0.1042971735	 1.4345060553	-0.0122696441	-0.502664
C	 0.0100140899	-0.0200857587	-0.0403057741	-0.128729
C	 0.6986368439	-0.6034221394	-1.2910850124	-0.084217
O	-0.0724178549	-0.1534213822	-2.3984198436	-0.193548
C	 0.3925338688	-0.4645785344	-3.6296448533	 0.127802
N	-0.2447115724	-0.0865962176	-4.6481354862	-0.429191
C	 0.7175146204	-0.4983080991	 1.1559923562	 0.283963
N	 1.3057994681	-0.8893898454	 2.069573699	-0.307501
H	 0.8190517419	 1.8592244491	-0.0046802292	 0.240253
H	-0.5635528711	 1.7306720984	-0.8688805431	 0.258003
H	-1.007364394	-0.4303524187	-0.011424926	 0.15216
H	 1.7308921935	-0.2345861531	-1.3568676491	 0.120978
H	 0.7171889358	-1.699934076	-1.2466709308	 0.129694
H	 1.3251196449	-1.0442434846	-3.6121058488	 0.096035
H	 0.2282887287	-0.3968031136	-5.4942014944	 0.236963
36.7861	70.292	108.3737	147.8685	199.8149	256.3375	306.2579	337.7803	432.7374	535.1743	575.8375	652.8327	825.5374	858.7841	874.7241	950.2163	1012.8222	1044.3625	1082.5523	1145.5177	1150.9548	1202.4766	1264.6794	1287.2154	1321.2478	1390.8408	1415.9433	1429.5966	1505.4476	1659.9196	1752.5202	2368.1798	3006.3894	3034.3078	3040.6931	3064.7218	3491.8488	3523.5513	3577.5989
NC(COC=N)C#N	N[C@@H](CO[CH][NH])C#N	
InChI=1S/C4H7N3O/c5-1-4(7)2-8-3-6/h3-4,6H,2,7H2	InChI=1S/C4H7N3O/c5-1-4(7)2-8-3-6/h3-4,6H,2,7H2/t4-/m1/s1
