20
gdb 107266	3.23723	1.38899	1.25901	1.5359	77.55	-0.2288	0.0732	0.302	1094.4647	0.172395	-403.085142	-403.077447	-403.076503	-403.117309	30.977	
C	-0.329455205	 1.4682106106	-0.0616683796	-0.37772
C	 0.1968180117	 0.030157253	 0.0438585439	-0.298608
C	 0.8529833688	-0.4597703677	-1.2183103113	 0.374673
N	 0.0661360944	-0.8962730206	-2.4014332654	-0.37928
C	 0.933507856	-1.8634666944	-1.6778732993	-0.122792
C	 2.4027654475	-1.8876811328	-2.154089223	 0.063978
C	 2.5585847262	-0.5986703657	-2.9911245217	-0.232299
C	 2.3046070609	-0.0303389787	-1.5788984161	 0.007673
O	 3.0583990103	-1.1759736221	-1.0392325045	-0.307261
H	 0.4779144295	 2.1714140137	-0.2912392418	 0.1211
H	-1.0796528104	 1.5584512935	-0.8540608781	 0.121015
H	-0.7904596803	 1.7867124661	 0.8780038372	 0.115195
H	 0.9250952233	-0.0430142957	 0.861208563	 0.118044
H	-0.6273419745	-0.6464486494	 0.3055780869	 0.091932
H	-0.8972709909	-1.0505138114	-2.1024373348	 0.224257
H	 0.4976080447	-2.6971241608	-1.139858583	 0.095349
H	 2.8664540768	-2.8413743132	-2.4024249052	 0.078433
H	 3.5974767932	-0.4534783806	-3.2848547185	 0.105142
H	 1.8556472349	-0.3865502895	-3.7932049714	 0.12725
H	 2.6679109129	 0.9367834257	-1.2318633476	 0.073918
87.6999	142.2785	199.118	282.1284	333.6475	424.2792	466.2456	540.9558	607.6992	626.1875	711.6576	772.597	803.9362	852.4199	863.5528	881.2673	896.5362	915.6769	939.6708	955.1985	984.0759	1016.6718	1035.9426	1061.4597	1077.0656	1110.4111	1113.7639	1147.5658	1192.068	1231.2645	1239.8465	1256.9801	1276.5271	1294.733	1317.3999	1347.7264	1364.3691	1412.4778	1435.8023	1470.4031	1476.1779	1499.0131	1505.6813	3016.4572	3036.3373	3053.8396	3102.9253	3104.7166	3109.2517	3124.2616	3132.8951	3178.9809	3183.8499	3458.7926
CCC12NC1C1CC2O1	CC[C@]12N[C@H]1[C@H]1C[C@@H]2O1	
InChI=1S/C7H11NO/c1-2-7-5-3-4(9-5)6(7)8-7/h4-6,8H,2-3H2,1H3	InChI=1S/C7H11NO/c1-2-7-5-3-4(9-5)6(7)8-7/h4-6,8H,2-3H2,1H3/t4-,5+,6+,7-/m1/s1
