15
gdb 5717	4.8632	2.00374	1.45885	1.9832	66.93	-0.19	0.0278	0.2178	818.9595	0.122762	-362.679545	-362.673547	-362.672603	-362.709469	23.992	
C	 0.0089950592	 1.4446639247	 0.1102093222	-0.16618
C	 1.4690840776	 1.9364708045	-0.1297401948	-0.352951
C	 2.2320680298	 0.6476573519	-0.0151486584	 0.235773
C	 3.4608992192	 0.0969571187	 0.1227423151	-0.159677
O	 3.3637305937	-1.2620080511	 0.1194785943	-0.164621
C	 2.0304489912	-1.5890727222	-0.0341385681	-0.14853
C	 1.3123449642	-0.4412335291	-0.1186106395	 0.231906
N	 0.0058583083	 0.0223882057	-0.3165857099	-0.4115
H	-0.2375350747	 1.5412582102	 1.1781594874	 0.100108
H	-0.726606495	 2.0176093895	-0.4608064196	 0.108485
H	 1.5683915394	 2.3680089612	-1.1331360482	 0.122478
H	 1.7566526051	 2.7079844107	 0.5888650501	 0.116126
H	 4.4574393809	 0.4903756981	 0.2386694796	 0.131391
H	 1.805598589	-2.6408859319	-0.0450241042	 0.123273
H	-0.7310753679	-0.530526061	 0.0994568539	 0.233918
165.0773	251.1203	320.5745	454.7669	551.4733	586.1098	637.4971	657.8926	699.5638	720.4706	756.5336	807.167	873.6718	929.3684	937.0458	1033.2313	1042.6684	1078.2387	1124.4966	1147.6172	1190.8649	1229.5161	1254.5231	1302.9395	1314.5992	1323.3911	1402.4244	1445.2559	1487.6243	1517.5657	1613.7949	1691.6716	2987.8656	3032.2574	3083.421	3095.1311	3270.7185	3289.9781	3577.9491
C1CC2=COC=C2N1	C1Cc2cocc2N1	
InChI=1S/C6H7NO/c1-2-7-6-4-8-3-5(1)6/h3-4,7H,1-2H2	InChI=1S/C6H7NO/c1-2-7-6-4-8-3-5(1)6/h3-4,7H,1-2H2
