18
gdb 18047	3.82421	2.0456	1.48007	1.6631	71.47	-0.239	0.0183	0.2573	864.2118	0.156421	-347.796919	-347.790152	-347.789207	-347.82828	26.266	
C	 0.036643548	 1.6136823761	-0.0210225886	-0.094275
O	 1.3018430683	 1.5585794144	-0.7129320627	-0.295099
C	 1.2887810113	 0.1096942691	-0.7100504972	 0.148181
C	 2.552612087	-0.5267243039	-0.1095407863	-0.285072
C	 2.1929815608	-1.7295458007	 0.7297671135	-0.053223
C	 1.124573131	-1.7037642521	 1.5275759853	-0.058256
C	 0.2568443837	-0.4695594504	 1.5912399345	-0.280802
C	 0.0208007668	 0.0829958335	 0.1745816546	-0.044778
H	 0.0939796561	 2.2195611515	 0.8924430371	 0.097721
H	-0.7626677552	 2.0108370739	-0.6604959757	 0.095839
H	 1.1173195229	-0.2748698334	-1.7238936929	 0.074321
H	 3.2719325509	-0.7863850509	-0.891402101	 0.102565
H	 3.031611668	 0.2407129518	 0.5139485376	 0.122725
H	 2.8300327343	-2.607429201	 0.6783654866	 0.088589
H	 0.8680673748	-2.5583937119	 2.1462685712	 0.088391
H	-0.6947682253	-0.6752510134	 2.0905067478	 0.102265
H	 0.7602769107	 0.2984422057	 2.197186378	 0.113593
H	-0.826245284	-0.4286882184	-0.2865869515	 0.077316
62.9459	120.1225	340.4519	376.2528	412.5247	449.0698	532.1276	694.635	704.9555	782.8794	811.6986	879.0197	914.6093	953.6398	972.4776	980.4696	992.9254	1023.1028	1051.8992	1065.7325	1102.8329	1133.7081	1149.6222	1167.2387	1208.496	1236.7866	1246.8055	1277.8992	1322.4	1326.406	1355.6419	1371.5916	1376.1135	1403.9676	1483.3984	1489.3225	1526.3094	1702.2695	2995.8965	3002.7879	3010.4119	3017.7118	3044.8081	3069.8624	3081.8707	3090.828	3160.5227	3183.9094
C1OC2CC=CCC12	C1O[C@H]2CC=CC[C@@H]12	
InChI=1S/C7H10O/c1-2-4-7-6(3-1)5-8-7/h1-2,6-7H,3-5H2	InChI=1S/C7H10O/c1-2-4-7-6(3-1)5-8-7/h1-2,6-7H,3-5H2/t6-,7-/m0/s1
