21
gdb 84509	2.8403	1.64076	1.37253	0.3173	86.86	-0.2138	0.0181	0.2319	1047.8984	0.184263	-349.927164	-349.919437	-349.918493	-349.958764	31.956	
C	-0.1468877562	 1.598909615	 0.0245038677	-0.39214
C	 0.0181986343	 0.0723256811	-0.0305350394	-0.119529
C	 0.8540583286	-0.4170336916	-1.2187676105	-0.062549
C	 1.8384726821	-1.2615605913	-0.8785143606	-0.195431
C	 1.8910781359	-1.4399688303	 0.5954522654	 0.234432
C	 2.1849036472	-0.2209970065	 1.4364633987	-0.364074
C	 0.752607789	-0.5680029693	 1.1469947611	 0.267073
C	 0.2838550418	-1.7377131491	 2.036571916	-0.29291
C	 1.446182024	-2.6280927326	 1.4736966701	-0.285556
H	 0.8220949846	 2.0994199144	 0.1150531146	 0.115647
H	-0.6341150908	 1.9759870472	-0.8812197764	 0.108471
H	-0.759696951	 1.8925420122	 0.8824410043	 0.115614
H	-0.9903371416	-0.3635366515	-0.1003561332	 0.077204
H	 0.6642970521	-0.0649423646	-2.2294125831	 0.087216
H	 2.5237585918	-1.7265637176	-1.5802044991	 0.091358
H	 2.5636493649	-0.3488888297	 2.4482348662	 0.104378
H	 2.6054835506	 0.6246663755	 0.904932855	 0.115623
H	 0.2802788771	-1.5525001402	 3.1162951488	 0.093731
H	-0.7014908647	-2.1131465595	 1.7491602988	 0.101846
H	 1.078702315	-3.4755191754	 0.8915211844	 0.105015
H	 2.1832943354	-2.9955081863	 2.1950154212	 0.09458
141.0609	206.3013	233.4784	253.0781	295.5757	389.5992	419.5345	538.8078	572.3099	630.3284	686.8384	735.5647	768.6968	784.2159	806.2192	823.7798	891.7815	927.6352	937.1309	953.8592	964.7109	970.9673	1027.6374	1064.6751	1070.7521	1094.4048	1106.3315	1131.4782	1168.075	1201.0749	1232.4251	1241.5596	1250.7344	1282.3229	1313.3343	1352.6287	1362.6408	1380.7965	1409.7115	1471.5174	1477.6435	1496.658	1497.8548	1500.3765	1637.6735	2980.7369	3032.3779	3035.8367	3047.7262	3092.4678	3098.4212	3107.9658	3108.8691	3114.85	3159.7707	3186.6195	3212.589
CC1C=CC23CC12CC3	C[C@H]1C=C[C@@]23C[C@@]12CC3	
InChI=1S/C9H12/c1-7-2-3-8-4-5-9(7,8)6-8/h2-3,7H,4-6H2,1H3	InChI=1S/C9H12/c1-7-2-3-8-4-5-9(7,8)6-8/h2-3,7H,4-6H2,1H3/t7-,8+,9-/m0/s1
