18
gdb 24378	3.49499	1.56083	1.09328	1.6855	83.44	-0.1906	0.0349	0.2256	1079.582	0.151577	-364.871133	-364.864031	-364.863087	-364.902504	28.803	
C	-0.0178094043	 1.4823088718	-0.1390444076	-0.406878
C	 1.3504883567	 2.0685041194	 0.1143917388	-0.043842
C	 2.4442704763	 1.3553555715	 0.3809546718	-0.036838
C	 2.4981471724	-0.1491346473	 0.4736374094	-0.402464
C	 1.1545330611	-0.7646740267	 0.227226562	 0.257009
C	 0.0414775763	-0.004837812	-0.0458972435	 0.266945
N	-1.0191403175	-0.8602663333	-0.2202480801	-0.334051
C	-0.5958337505	-2.159141734	-0.0614084673	-0.083871
C	 0.7498161067	-2.1324484324	 0.2172156141	-0.276917
H	-0.7370846454	 1.904852867	 0.5817006234	 0.110514
H	-0.3809428634	 1.81207972	-1.1263499866	 0.110521
H	 1.4160811882	 3.152648605	 0.069348844	 0.081854
H	 3.3840170784	 1.8765615399	 0.548564709	 0.081718
H	 3.2459009957	-0.5282412561	-0.2405344781	 0.111773
H	 2.8915717946	-0.4361061465	 1.4614417602	 0.111768
H	-1.9612031561	-0.5812787674	-0.4317168019	 0.253627
H	-1.2841775386	-2.9831086082	-0.1598998021	 0.112897
H	 1.3751235894	-2.994973411	 0.3943045445	 0.086236
98.3471	214.5296	260.265	375.1534	400.8387	447.4024	476.8067	585.0441	630.7633	657.1776	683.3383	705.1156	719.4524	816.9289	866.7658	911.7291	923.6627	976.4569	979.2896	986.1146	1013.3503	1084.3581	1107.2006	1175.	1199.423	1200.528	1206.4127	1232.1617	1265.8776	1347.7081	1389.7771	1411.2741	1440.1791	1477.8524	1479.7102	1498.7816	1518.2307	1637.5961	1731.0398	2965.9787	2972.8767	2980.9538	2988.9049	3143.1091	3167.4002	3237.7797	3267.2668	3678.5348
C1C=CCC2=C1NC=C2	C1C=CCc2c1[nH]cc2	
InChI=1S/C8H9N/c1-2-4-8-7(3-1)5-6-9-8/h1-2,5-6,9H,3-4H2	InChI=1S/C8H9N/c1-2-4-8-7(3-1)5-6-9-8/h1-2,5-6,9H,3-4H2
