18
gdb 54422	2.48992	1.53999	1.22049	12.7976	73.7	-0.1789	-0.0126	0.1663	1071.3665	0.147733	-439.031735	-439.023187	-439.022243	-439.065002	32.12	
C	 0.2543928034	 1.5180485235	 0.0112936256	-0.504861
C	 0.0735123545	 0.0383761086	 0.0459033836	 0.2756
C	-0.9177389425	-0.756205843	 0.8270855366	-0.375823
C	 0.5452862575	-1.0077269354	 1.0657545154	 0.194322
C	 1.1107208604	-1.8591633743	-0.0524682741	-0.250973
N	 0.5870195108	-0.8366795974	-1.098843881	-0.315154
H	-0.1133988986	-1.1714338351	-1.7643346176	 0.293057
H	 1.3411400687	-0.3902540653	-1.6193277982	 0.304129
C	 1.3285712825	-0.6436828102	 2.3490091257	 0.29302
O	 2.3845819198	-1.2839270012	 2.4718736157	-0.477606
O	 0.7939329551	 0.2755865628	 2.9957117228	-0.484554
H	 1.2334842175	 1.7998538952	-0.3941135624	 0.120913
H	-0.5285838827	 2.0369711169	-0.5520203483	 0.122742
H	 0.2344256345	 1.8394431565	 1.0585202484	 0.209182
H	-1.36506115	-0.1867150496	 1.6353593801	 0.173926
H	-1.5620050933	-1.4907758665	 0.3455524272	 0.098764
H	 2.1997430685	-1.8613073393	-0.0509598309	 0.18173
H	 0.706390144	-2.8569121262	-0.2402552787	 0.141587
74.3387	125.3752	155.9306	223.3355	246.2953	327.6316	353.3341	388.3397	454.2607	506.9298	629.444	708.825	747.5434	775.1419	796.4051	813.9279	858.2506	897.5128	950.0346	960.0171	1003.1367	1057.4418	1074.959	1129.0121	1179.6864	1208.4719	1215.1772	1227.102	1243.8222	1318.3804	1330.8314	1383.0192	1420.9527	1472.1062	1488.1343	1490.655	1496.8757	1626.4749	1780.8044	3020.0469	3077.1098	3087.5194	3091.9498	3111.3852	3172.1817	3212.8049	3417.7291	3516.8058
CC12CC1(C[NH2+]2)C([O-])=O	C[C@]12C[C@]1(C[NH2]2)C(=O)[O]	
InChI=1S/C6H9NO2/c1-5-2-6(5,3-7-5)4(8)9/h7H,2-3H2,1H3,(H,8,9)	InChI=1S/C6H9NO2/c1-5-2-6(5,3-7-5)4(8)9/h2-3,7H2,1H3/t5-,6-/m0/s1
