21
gdb 109998	2.06712	1.2826	0.98938	3.7733	79.37	-0.2393	-0.0159	0.2234	1305.4032	0.180624	-424.224413	-424.214475	-424.213531	-424.259821	36.127	
C	-0.0246569142	 1.7557641384	-0.2741037211	-0.388204
C	-0.2790320477	 0.2459311212	-0.3348536881	-0.199174
C	 0.7157500887	-0.4800603093	-1.2332936537	 0.024911
C	 2.1964315279	-0.63209028	-0.7888037207	 0.10083
O	 2.2609496369	-0.6453037227	 0.6278050673	-0.427095
C	 2.1989752371	-2.0515255015	-1.4157477229	-0.275299
C	 0.63656907	-2.0416651456	-1.4309195255	-0.123521
C	 0.0271944025	-2.7865921118	-0.2701849732	 0.156966
O	-0.9451700363	-3.4952880788	-0.355751689	-0.263461
H	 0.9631318635	 1.9671089914	 0.1470084236	 0.127624
H	-0.0722182916	 2.2095463582	-1.2707018001	 0.109544
H	-0.7685636358	 2.2548616244	 0.3541489535	 0.114803
H	-0.2333407327	-0.1686727557	 0.676613643	 0.117541
H	-1.2919243644	 0.0512027192	-0.7095232089	 0.103124
H	 0.706242351	-0.0259076206	-2.2306391674	 0.081899
H	 2.9108544376	 0.0915401	-1.2018884547	 0.066977
H	 3.1453366148	-0.9250238818	 0.8852671755	 0.287112
H	 2.6101678334	-2.0651637677	-2.4279586629	 0.111878
H	 2.6869452114	-2.8328941221	-0.8252982445	 0.101953
H	 0.1463672733	-2.3780238513	-2.3463591748	 0.085488
H	 0.5508936746	-2.6419006741	 0.6998531145	 0.086104
57.1863	77.056	95.6215	164.9842	204.0886	271.041	285.9566	292.0409	316.5273	394.8023	437.1936	470.8577	553.8655	714.0841	792.0411	817.7216	851.6478	901.6204	921.7084	948.3792	1001.6797	1024.4577	1026.2696	1059.1947	1090.5239	1134.2975	1153.222	1174.705	1203.2366	1228.6732	1255.4744	1261.7289	1290.1266	1317.5737	1329.4728	1349.4699	1394.4974	1409.2068	1413.7908	1428.7992	1470.6101	1483.5327	1498.7567	1507.0242	1820.2327	2898.7468	3010.8519	3030.9539	3032.1105	3042.1332	3055.375	3079.5768	3095.9652	3102.6309	3110.7514	3114.9621	3815.64
CCC1C(O)CC1C=O	CC[C@H]1[C@@H](O)C[C@H]1C=O	
InChI=1S/C7H12O2/c1-2-6-5(4-8)3-7(6)9/h4-7,9H,2-3H2,1H3	InChI=1S/C7H12O2/c1-2-6-5(4-8)3-7(6)9/h4-7,9H,2-3H2,1H3/t5-,6+,7-/m0/s1
