20
gdb 69598	3.34249	1.28314	1.16455	2.6451	78.69	-0.245	0.077	0.3221	1143.3592	0.17183	-403.123339	-403.115256	-403.114312	-403.155622	32.185	
C	 0.0436083283	 1.4894609121	-0.1220487113	-0.465216
C	-0.0253757829	-0.0064691733	 0.0488782925	 0.335306
C	-1.297299056	-0.7379761992	-0.3861230492	-0.275818
C	-1.2251470091	-2.1292778482	 0.2812592442	-0.346648
C	-0.3266961773	-1.9210082047	 1.5017825065	 0.484407
C	-0.7154638409	-2.2790693408	 2.8719711114	-0.257287
O	 0.2195950551	-3.0781849133	 2.1402182746	-0.287117
C	 0.5620996316	-0.7486016674	 1.2050345733	-0.158789
N	 1.241259622	-0.7351991826	-0.1039964177	-0.375443
H	 0.9993653725	 1.8732649816	 0.2422916235	 0.131117
H	-0.0459349465	 1.7629738121	-1.1798692438	 0.119429
H	-0.7671801266	 1.986188494	 0.4222854247	 0.113338
H	-2.1667485635	-0.1802941847	-0.0188950981	 0.106243
H	-1.392036036	-0.7938245951	-1.4765200842	 0.103663
H	-2.2069385579	-2.5251897278	 0.5494177874	 0.111802
H	-0.7608802318	-2.8683124368	-0.3806682627	 0.119514
H	-0.3002841051	-1.7319971094	 3.7182855114	 0.113674
H	-1.6865586085	-2.7396990445	 3.0520720989	 0.111066
H	 1.0996154924	-0.2705483082	 2.0185757505	 0.087401
H	 1.1248579101	-1.6223862137	-0.588420082	 0.22936
101.8653	185.613	203.4857	251.5287	334.8666	351.7262	385.1411	401.4864	474.8844	555.4801	582.2149	704.1535	769.9578	806.1024	848.2764	873.0148	914.4083	923.5732	950.426	992.1404	1018.3805	1026.369	1053.3432	1093.5725	1112.3138	1129.3655	1154.8696	1162.2383	1186.5765	1235.8238	1248.18	1274.7984	1306.2619	1315.6013	1335.037	1398.2681	1420.319	1451.7525	1485.5725	1488.9799	1498.2584	1503.0448	1531.8549	3028.4	3034.7621	3050.8564	3071.3023	3073.9486	3088.7339	3106.5954	3124.1601	3154.6232	3160.1249	3489.8308
CC12CCC3(CO3)C1N2	C[C@]12CC[C@]3(CO3)[C@H]1N2	
InChI=1S/C7H11NO/c1-6-2-3-7(4-9-7)5(6)8-6/h5,8H,2-4H2,1H3	InChI=1S/C7H11NO/c1-6-2-3-7(4-9-7)5(6)8-6/h5,8H,2-4H2,1H3/t5-,6-,7-/m0/s1
