22
gdb 38451	3.37507	1.28254	1.2052	1.5368	85.06	-0.2243	0.0843	0.3086	1150.4186	0.196975	-367.183217	-367.175261	-367.174317	-367.216386	31.853	
C	 0.2443645827	 1.7241667406	-0.0695347647	-0.319792
C	 1.7110085322	 1.2962077763	-0.1649407135	-0.036047
N	 2.0039257442	 0.5364524308	 1.0781254016	-0.33925
C	 1.3438388828	-0.1386812155	-0.0642740121	-0.105391
C	-0.16152223	 0.2076058288	 0.0224402111	 0.398654
C	-0.9255826093	-0.308430179	 1.2575358287	-0.27317
C	-1.7069960591	-1.5720643679	 0.7915223854	-0.200271
C	-1.3544822671	-1.7525333059	-0.7048769815	-0.205459
C	-0.9611999665	-0.3410709589	-1.1666417811	-0.276662
H	-0.0010975072	 2.3498643595	 0.7929139788	 0.100711
H	-0.1310434202	 2.1934657103	-0.9830700945	 0.097529
H	 2.5104843761	 1.7758364754	-0.7162706002	 0.087979
H	 2.9909742659	 0.2810973997	 1.0458415949	 0.224296
H	 1.7915074748	-1.011749243	-0.5267356764	 0.081983
H	-0.2341406176	-0.5048408776	 2.0801116809	 0.115362
H	-1.6203380209	 0.4612540408	 1.6105618667	 0.093115
H	-1.4537506947	-2.4591113405	 1.3786049785	 0.094741
H	-2.7843880236	-1.4180361559	 0.9097533791	 0.096273
H	-0.4964968662	-2.4270225499	-0.8131400733	 0.094612
H	-2.1729661102	-2.1838970252	-1.2881007696	 0.090684
H	-1.859503336	 0.2725819701	-1.3170372029	 0.091822
H	-0.3954779802	-0.326243043	-2.1045151658	 0.088281
30.7936	157.3738	168.7126	239.5873	349.2738	404.1852	444.5024	525.5007	585.9876	718.5676	766.9494	782.2976	814.8103	832.5919	839.3831	886.0363	895.7036	910.4631	934.1395	966.2972	979.7332	998.1849	1014.0617	1024.6917	1060.2837	1077.5458	1095.9428	1137.0704	1150.1905	1197.8349	1205.8339	1214.5485	1244.1886	1248.6104	1276.2538	1291.0025	1305.5358	1328.9317	1334.7651	1346.2122	1356.3855	1379.6373	1473.2536	1487.8435	1490.7721	1494.9486	1516.3301	3017.9408	3031.7328	3040.4188	3051.8624	3054.3302	3072.0075	3079.1435	3091.8897	3107.7882	3109.317	3166.3999	3188.8973	3466.7571
C1C2NC2C11CCCC1	C1[C@H]2N[C@H]2C21CCCC2	
InChI=1S/C8H13N/c1-2-4-8(3-1)5-6-7(8)9-6/h6-7,9H,1-5H2	InChI=1S/C8H13N/c1-2-4-8(3-1)5-6-7(8)9-6/h6-7,9H,1-5H2/t6-,7-/m1/s1
