21
gdb 121386	4.15692	0.88184	0.77211	0.5048	82.31	-0.2419	0.0236	0.2655	1533.0934	0.182693	-424.219418	-424.210239	-424.209295	-424.253965	33.65	
C	 0.7292871948	 1.4128173747	-0.2290726416	-0.224332
O	 0.8293557949	 0.009238988	-0.2147496953	-0.235682
C	-0.2206552117	-0.6237802978	-0.9097814361	-0.080692
C	 0.0235084162	-2.1337200641	-0.861737873	 0.067528
O	-1.1473123253	-2.728566804	-1.3968070157	-0.272102
C	-0.9825960907	-4.1032388783	-1.7046155578	-0.074121
C	 0.0456300709	-4.3027280102	-2.819966116	-0.253359
C	 1.2801770879	-3.4943971551	-2.5192313621	-0.078878
C	 1.2722563029	-2.5264234482	-1.6062511801	-0.062497
H	 0.7625706047	 1.8142335514	-1.2541964033	 0.10567
H	-0.2029452591	 1.7598538056	 0.2438612247	 0.105489
H	 1.578830193	 1.807808151	 0.3333709451	 0.126518
H	-1.1955477456	-0.4042988629	-0.4462324808	 0.096093
H	-0.262922199	-0.2897646701	-1.9589801239	 0.093562
H	 0.1345635457	-2.4108764756	 0.2031668851	 0.081308
H	-0.6654672649	-4.6567890217	-0.8056864979	 0.090968
H	-1.9707684617	-4.4701214611	-1.9959522775	 0.104115
H	 0.2933708664	-5.3684590933	-2.9075453365	 0.102281
H	-0.3809323644	-4.0056741529	-3.7879574227	 0.113857
H	 2.1906672308	-3.7305347808	-3.0639215991	 0.088332
H	 2.1635751642	-1.9584260945	-1.3595947155	 0.105942
65.0475	91.2477	109.0407	170.1047	231.5111	285.55	292.9658	345.1807	392.5037	492.4351	529.9193	585.931	705.7451	784.2247	840.53	877.5802	914.0013	988.0387	1005.8723	1008.1989	1042.3295	1079.4493	1095.4081	1120.6075	1127.6465	1171.4144	1184.6588	1208.5932	1228.1578	1237.0435	1238.5469	1290.3767	1332.9342	1346.2863	1366.5799	1399.608	1415.5227	1424.2786	1470.1066	1481.2256	1485.567	1499.7249	1503.6885	1527.3036	1724.2385	2929.7753	2965.0005	2974.0565	2976.7222	3008.5393	3012.4977	3016.7485	3046.8999	3086.7105	3113.7334	3155.0795	3190.1301
COCC1OCCC=C1	COC[C@H]1OCCC=C1	
InChI=1S/C7H12O2/c1-8-6-7-4-2-3-5-9-7/h2,4,7H,3,5-6H2,1H3	InChI=1S/C7H12O2/c1-8-6-7-4-2-3-5-9-7/h2,4,7H,3,5-6H2,1H3/t7-/m0/s1
