19
gdb 100563	3.25134	0.938	0.80133	2.9154	73.8	-0.2556	-0.0334	0.2222	1446.0396	0.157979	-460.164936	-460.155465	-460.154521	-460.200118	34.539	
O	 0.1860448202	 1.3579084885	-0.0740139949	-0.419115
C	 0.0878984207	-0.0253785912	 0.1651132578	-0.060661
C	-1.3858072139	-0.4751796377	 0.0489459933	 0.004849
O	-1.893964514	-0.0234240116	-1.1838381965	-0.44769
C	-1.5118990503	-1.9911843767	 0.1408984424	 0.361658
O	-1.8310077522	-2.6127698412	-0.8589138658	-0.364082
C	-1.2162771431	-2.6464599591	 1.4336628526	-0.103862
C	-1.9520763194	-3.9449535598	 1.7462472939	-0.251635
C	-0.5103230604	-4.0000316618	 1.3902927138	-0.248688
H	-0.3227543161	 1.513601083	-0.8808000982	 0.29398
H	 0.6890914695	-0.606964223	-0.5535597663	 0.091428
H	 0.4808973341	-0.2137649743	 1.1693941187	 0.107059
H	-1.9544899599	-0.0101610208	 0.8678825516	 0.099486
H	-2.0296998168	-0.831342552	-1.70814481	 0.295733
H	-0.9866020488	-1.9891263685	 2.2641219565	 0.100239
H	-2.2470653759	-4.1007324055	 2.7772152631	 0.126384
H	-2.6668107951	-4.2650958953	 0.9972219545	 0.144935
H	-0.2497861989	-4.3598604387	 0.4018293343	 0.14301
H	 0.2189714404	-4.1934205443	 2.1681347591	 0.126972
48.6189	73.9902	109.7656	162.6109	216.7226	264.9198	307.5041	361.605	379.3397	461.1442	515.505	539.6873	668.9245	722.5441	798.6166	826.088	847.3351	883.3051	895.8283	935.5608	1052.5285	1065.1017	1084.3038	1088.3658	1100.3364	1115.067	1126.0941	1160.2096	1210.6446	1221.2123	1229.3143	1246.0862	1324.5647	1385.3224	1407.6259	1435.1325	1443.8874	1455.7401	1487.5258	1499.284	1762.5398	2966.1193	3006.0458	3078.5815	3144.9421	3146.6164	3179.2989	3233.0025	3247.6119	3654.5837	3767.4752
OCC(O)C(=O)C1CC1	OC[C@@H](O)C(=O)C1CC1	
InChI=1S/C6H10O3/c7-3-5(8)6(9)4-1-2-4/h4-5,7-8H,1-3H2	InChI=1S/C6H10O3/c7-3-5(8)6(9)4-1-2-4/h4-5,7-8H,1-3H2/t5-/m1/s1
