20
gdb 7697	3.34429	2.02521	1.82848	1.2692	73.91	-0.2545	0.0764	0.3309	846.0672	0.178632	-348.999487	-348.992229	-348.991285	-349.030175	30.18	
C	-0.1159443251	 1.5300223897	-0.0106558705	-0.461159
C	 0.0469642746	 0.0112816415	 0.0127644267	 0.433931
O	-1.2431856546	-0.6031135807	-0.0087312291	-0.485925
C	 0.9998203989	-0.5617641366	-1.1008603751	-0.268711
C	 1.9988591028	-1.3269866299	-0.2104481879	-0.014759
C	 1.0610355647	-2.0123390824	 0.8253557858	-0.225944
C	 0.7896826376	-0.538538451	 1.2495961189	-0.030176
C	 2.2853102329	-0.2795915336	 0.9030359697	-0.23215
H	 0.841506553	 2.0500003044	 0.0786197738	 0.117696
H	-0.5741930521	 1.8530817745	-0.9541405077	 0.102708
H	-0.7658143644	 1.8516829491	 0.8090225636	 0.12122
H	-1.7154202292	-0.269515135	-0.778604186	 0.271471
H	 0.4453842026	-1.2174782229	-1.7786381223	 0.091752
H	 1.4829252246	 0.223137754	-1.6921592378	 0.088028
H	 2.8012901912	-1.8698972469	-0.7115898602	 0.055237
H	 0.2155792603	-2.596943415	 0.4604219399	 0.106708
H	 1.6160650743	-2.5660163239	 1.5862504945	 0.089595
H	 0.3597584894	-0.2799142391	 2.2178699207	 0.058652
H	 2.9551002878	-0.6597166066	 1.6778035828	 0.096471
H	 2.5975400106	 0.7257136605	 0.6053461104	 0.085357
195.2753	238.7765	253.5273	277.4694	376.3169	401.7002	455.707	497.9439	515.4975	586.8698	749.9921	812.013	846.1491	852.6751	867.1476	914.3992	933.2411	953.7482	958.0581	1009.8776	1029.7063	1032.9215	1067.6523	1081.8238	1087.239	1124.6954	1164.7651	1195.236	1224.6447	1227.8883	1245.0402	1272.3081	1283.7771	1285.3677	1333.4523	1384.0481	1409.7837	1485.5319	1485.9858	1493.3785	1497.7199	1527.2509	3024.3383	3044.1627	3055.1624	3070.6177	3090.2984	3093.9432	3103.492	3109.8462	3114.1751	3121.688	3136.407	3809.4732
CC1(O)CC2CC1C2	C[C@@]1(O)C[C@@H]2C[C@H]1C2	
InChI=1S/C7H12O/c1-7(8)4-5-2-6(7)3-5/h5-6,8H,2-4H2,1H3	InChI=1S/C7H12O/c1-7(8)4-5-2-6(7)3-5/h5-6,8H,2-4H2,1H3/t5-,6+,7-/m1/s1
