22
gdb 13453	3.40317	1.09498	1.00865	1.304	78.71	-0.2433	0.0605	0.3038	1309.8811	0.198709	-350.195553	-350.18561	-350.184666	-350.230545	35.939	
C	 0.0011829659	 1.5462149094	-0.1038128517	-0.380945
C	-0.099606585	 0.0233126654	-0.2187093442	-0.155591
C	-1.4641713305	-0.5256851269	 0.2234953545	-0.195282
C	-1.5424158091	-2.0359293575	 0.1279251166	-0.06043
C	-2.8616394356	-2.7949106496	 0.1106908884	-0.058893
C	-4.2059682102	-2.1041844045	 0.2051901115	-0.403382
C	-2.0280045591	-2.7130007007	-1.1395394417	 0.077338
O	-2.5481173115	-1.9334709515	-2.1813128311	-0.417258
H	 0.9825433245	 1.9093826723	-0.4249042357	 0.110117
H	-0.7563167283	 2.0411173837	-0.7218951114	 0.11395
H	-0.153426854	 1.8745943883	 0.9300730139	 0.115062
H	 0.0942682025	-0.281527553	-1.2564333127	 0.080778
H	 0.6917367947	-0.4450101182	 0.3813840174	 0.094835
H	-1.6590074048	-0.2098648142	 1.2575165493	 0.092791
H	-2.2482558894	-0.0701575907	-0.389647682	 0.104759
H	-0.7264693298	-2.5453211534	 0.6378490002	 0.074446
H	-2.831385138	-3.7598232698	 0.6108493591	 0.080738
H	-4.2610933301	-1.2344027508	-0.4509071969	 0.134944
H	-5.0069578276	-2.788590666	-0.0941541246	 0.115034
H	-4.4130495753	-1.7790048117	 1.230594138	 0.110623
H	-1.5144625043	-3.6155866235	-1.4712215481	 0.078001
H	-1.810460365	-1.5076273871	-2.6302813987	 0.288366
63.1252	85.7738	112.0465	147.2819	201.539	236.4083	250.0064	280.1825	298.4871	367.8185	476.2947	567.093	590.8562	741.0191	757.5834	804.5016	872.7971	890.1778	905.4858	968.0401	996.8623	1045.2736	1063.3245	1082.0461	1105.6516	1132.0913	1157.377	1183.4143	1189.1386	1250.2136	1268.2689	1293.4421	1302.0264	1330.0365	1372.672	1379.1053	1406.7594	1413.3776	1419.2119	1459.7902	1481.8773	1490.8085	1496.1489	1499.5131	1506.0014	1509.6514	3005.941	3017.1667	3029.0417	3035.743	3038.1759	3078.6727	3089.532	3089.7548	3095.7285	3100.646	3115.3305	3128.9292	3143.8635	3804.2023
CCCC1C(C)C1O	CCC[C@H]1[C@@H](C)[C@H]1O	
InChI=1S/C7H14O/c1-3-4-6-5(2)7(6)8/h5-8H,3-4H2,1-2H3	InChI=1S/C7H14O/c1-3-4-6-5(2)7(6)8/h5-8H,3-4H2,1-2H3/t5-,6+,7-/m1/s1
