20
gdb 94104	4.19069	0.84572	0.79266	3.0949	78.59	-0.2539	0.0191	0.273	1506.2721	0.170463	-440.291759	-440.282366	-440.281422	-440.327751	33.397	
C	-0.36793593	 1.3033772835	 0.0227652528	-0.403506
C	 0.0797127994	-0.1363990189	-0.1486739938	 0.150616
C	 1.2053860631	-0.3739442707	-1.1636609172	-0.241421
C	 1.7846443387	-1.7096665485	-0.6963761489	 0.063638
C	 1.5093811428	-1.6873907068	 0.8276524196	-0.0814
O	 0.6394333514	-0.595303104	 1.0858792102	-0.269923
O	 1.0497673089	-2.7580099654	-1.3415596313	-0.193439
C	 1.6637746691	-3.9466628916	-1.4903980965	 0.124149
N	 1.0219725112	-4.9423842249	-1.925684533	-0.44049
H	 0.4829807815	 1.9416452516	 0.2809531945	 0.118808
H	-0.8197416235	 1.6758401919	-0.9017253816	 0.11784
H	-1.1098400364	 1.3803638131	 0.8221922323	 0.129521
H	-0.7837701479	-0.7660792876	-0.417748822	 0.085453
H	 0.8702878603	-0.4230571602	-2.2010285772	 0.1211
H	 1.9599758385	 0.4139128569	-1.0667942566	 0.105544
H	 2.8493634511	-1.8237319641	-0.9266759463	 0.086221
H	 1.0526613773	-2.639264977	 1.1306604779	 0.111604
H	 2.4276718654	-1.5413952281	 1.4085957357	 0.104164
H	 2.7292263679	-3.9262014069	-1.2182890208	 0.082403
H	 1.6417955811	-5.7456957524	-2.0061687377	 0.22912
28.5853	54.7756	98.8083	116.4334	224.9896	254.901	290.6922	349.9441	436.3183	475.638	585.9156	624.8792	759.8247	817.8011	842.0471	869.8051	889.8073	909.573	968.2279	1002.3775	1044.6474	1048.0992	1078.7992	1109.5007	1134.3818	1153.8766	1157.1195	1204.6309	1252.4331	1266.8158	1299.1257	1313.0713	1356.1078	1373.0648	1393.7722	1402.5512	1414.6044	1429.7749	1470.6009	1484.5785	1498.6365	1511.6819	1744.7403	2973.6069	3008.1471	3012.227	3040.5413	3043.8086	3055.173	3064.8193	3114.1623	3120.3433	3129.2649	3518.4198
CC1CC(CO1)OC=N	C[C@H]1C[C@@H](CO1)O[CH][NH]	
InChI=1S/C6H11NO2/c1-5-2-6(3-8-5)9-4-7/h4-7H,2-3H2,1H3	InChI=1S/C6H11NO2/c1-5-2-6(3-8-5)9-4-7/h4-7H,2-3H2,1H3/t5-,6-/m0/s1
