20
gdb 7282	2.77688	1.33566	1.09979	4.008	72.6	-0.2749	0.0105	0.2854	1174.9083	0.174191	-386.178617	-386.16877	-386.167826	-386.213766	34.694	
C	 0.0105513869	 1.5115028504	 0.1023158373	-0.404007
C	 0.0916205265	-0.0172702674	-0.0072419029	 0.034855
C	 0.7674772475	-0.4404506233	-1.31963337	-0.392588
C	 0.7689611501	-0.6193665692	 1.2374628633	 0.119095
C	 0.7705079162	-2.1434494187	 1.29735267	-0.403915
O	 2.1401923276	-0.1597280175	 1.2759658924	-0.191142
C	 2.614252533	 0.3637519183	 2.4182644321	 0.170797
O	 3.7425638127	 0.7362526282	 2.5442461737	-0.280058
H	 1.010164984	 1.956752742	 0.1025783211	 0.136026
H	-0.5416152889	 1.9302847076	-0.7442699011	 0.116875
H	-0.4998023462	 1.8236601786	 1.0203412344	 0.107517
H	-0.9333305094	-0.4135453764	-0.0017704743	 0.077398
H	 1.815565846	-0.1278037583	-1.3334953071	 0.139276
H	 0.7339046407	-1.5230409776	-1.4707363624	 0.113971
H	 0.2635684379	 0.0261752579	-2.1713903564	 0.114074
H	 0.2541360228	-0.2261464442	 2.1258412765	 0.081846
H	-0.2497489861	-2.5298757181	 1.2108990644	 0.121978
H	 1.3743067401	-2.567460721	 0.4917314535	 0.140747
H	 1.1874416782	-2.4886024492	 2.2480042789	 0.123739
H	 1.8482507404	 0.4144458279	 3.2179800966	 0.073514
40.9633	72.259	147.8726	196.708	207.6614	232.9349	250.0818	273.0817	323.8544	343.1991	405.6599	505.0512	549.8805	657.9935	791.0139	908.5348	930.1513	949.538	969.6114	1021.071	1040.9006	1048.5492	1113.2014	1140.9291	1178.6868	1207.4443	1215.6398	1326.404	1350.315	1373.6145	1386.0397	1401.0089	1411.0777	1422.1568	1441.8635	1485.0928	1488.886	1495.5764	1500.9724	1511.6428	1517.646	1861.4784	2935.2475	3000.3692	3012.835	3032.9394	3043.7338	3046.9447	3099.4338	3109.0215	3113.6594	3114.4039	3121.5816	3134.605
CC(C)C(C)OC=O	CC(C)[C@@H](C)OC=O	
InChI=1S/C6H12O2/c1-5(2)6(3)8-4-7/h4-6H,1-3H3	InChI=1S/C6H12O2/c1-5(2)6(3)8-4-7/h4-6H,1-3H3/t6-/m1/s1
