17
gdb 77188	3.34634	1.06545	0.86593	3.399	69.42	-0.2609	0.0002	0.2611	1313.6321	0.134991	-458.966224	-458.957545	-458.956601	-459.000345	31.31	
O	 0.0472626081	 1.1756298044	 0.4258849894	-0.425411
C	 0.0965995259	-0.1558247429	-0.0100108874	-0.088854
C	-1.2803647867	-0.8329372753	-0.1623893773	 0.121392
O	-0.9869978352	-1.0691728262	-1.6003475348	-0.25936
C	 0.1928914211	-0.3860112329	-1.5278051775	 0.418437
O	 0.9381110356	-0.0961772745	-2.4093934546	-0.332475
C	-1.5685456595	-2.0939773647	 0.5784409757	 0.001688
C	-2.370893825	-2.0238458576	 1.8585924659	-0.271134
C	-2.97703592	-2.6336190137	 0.6243990534	-0.266526
H	 0.8620796524	 1.609323276	 0.1478451144	 0.303104
H	 0.8167993304	-0.7629664315	 0.5569683878	 0.103265
H	-2.0958428229	-0.1089255677	-0.0816167917	 0.107156
H	-0.7667641878	-2.8263160617	 0.5433657211	 0.093185
H	-2.0775184713	-2.6768814315	 2.6721099139	 0.1226
H	-2.7322572343	-1.0522406664	 2.1783535294	 0.125159
H	-3.74805091	-2.0744466043	 0.1053243415	 0.124347
H	-3.105668541	-3.7089772095	 0.5868346306	 0.123426
71.1219	81.0782	141.1393	164.5005	239.4601	268.0598	340.5532	388.6353	425.3754	559.8562	712.3461	747.3964	783.5212	832.5002	869.7708	890.4185	928.7224	937.9792	967.8691	1056.4888	1065.3105	1084.0585	1123.7804	1131.8816	1151.3761	1168.8114	1196.5431	1222.9523	1238.9863	1274.464	1318.9218	1324.2104	1411.0297	1451.2702	1471.6767	1507.4923	1932.9453	3006.5111	3081.9415	3137.7363	3141.4773	3148.7843	3217.3764	3231.811	3806.1689
OC1C(OC1=O)C1CC1	O[C@H]1[C@@H](OC1=O)C1CC1	
InChI=1S/C6H8O3/c7-4-5(3-1-2-3)9-6(4)8/h3-5,7H,1-2H2	InChI=1S/C6H8O3/c7-4-5(3-1-2-3)9-6(4)8/h3-5,7H,1-2H2/t4-,5-/m0/s1
