22
gdb 91927	2.04862	1.76886	1.54584	2.3565	80.86	-0.2229	0.0684	0.2913	1046.9033	0.194191	-404.336939	-404.327975	-404.327031	-404.369522	36.014	
C	 0.0093690417	 1.5736698445	 0.0077204534	-0.413502
C	 0.0497362081	 0.0455109327	-0.0229728484	 0.274927
C	-1.3798639305	-0.520388061	-0.0166005532	-0.41148
C	 0.8242327904	-0.5411476727	-1.2454356582	 0.060622
O	 1.8267153651	 0.3838514882	-1.6646884154	-0.427146
C	 1.4199739135	-1.8590314498	-0.6997709637	-0.25726
C	 1.5492846692	-1.6254900099	 0.7979073598	-0.019677
C	 2.1729513777	-0.3520826718	 1.2419448911	-0.26231
N	 0.7062602253	-0.4861168506	 1.2029778031	-0.113379
H	 1.012492808	 2.0011260643	 0.0277202817	 0.128633
H	-0.5026269612	 1.9655944874	-0.8761933031	 0.110252
H	-0.5325030304	 1.9071906044	 0.8974772255	 0.115086
H	-1.9528784625	-0.1473280022	-0.8716588531	 0.107576
H	-1.3784038453	-1.6143899709	-0.0569010244	 0.109585
H	-1.8896449887	-0.2243266041	 0.9036250063	 0.125513
H	 0.1351718173	-0.7309031894	-2.0794962884	 0.065412
H	 2.3103226416	-0.0171360902	-2.3934749085	 0.28255
H	 0.7371889618	-2.693989203	-0.8913911195	 0.106054
H	 2.3710040856	-2.1014927331	-1.1868925133	 0.093631
H	 1.5492027271	-2.4910235176	 1.4550865886	 0.083289
H	 2.5824185914	-0.2770635801	 2.2457282867	 0.106576
H	 2.6643814147	 0.2579243648	 0.491971893	 0.135048
150.8501	190.016	222.4575	235.7228	255.1549	289.7897	329.0561	343.4654	366.5071	438.3133	445.5319	523.0967	602.1135	699.8473	743.8161	809.974	844.9224	867.5905	893.3703	935.031	948.4389	983.519	1007.3188	1030.13	1041.0036	1088.3949	1109.833	1122.3683	1155.9857	1161.4197	1201.7113	1225.6544	1238.3153	1256.2679	1279.4673	1302.8716	1348.3905	1388.6636	1398.8502	1409.556	1426.6359	1477.2899	1480.4716	1485.1565	1497.2251	1505.5187	1508.2527	3001.6079	3035.3866	3041.1884	3048.4437	3077.2606	3102.8482	3112.9554	3115.2808	3122.8315	3140.1947	3141.5359	3214.1669	3821.1052
CC1(C)C(O)CC2CN12	CC1(C)[C@@H](O)C[C@H]2CN12	
InChI=1S/C7H13NO/c1-7(2)6(9)3-5-4-8(5)7/h5-6,9H,3-4H2,1-2H3	InChI=1S/C7H13NO/c1-7(2)6(9)3-5-4-8(5)7/h5-6,9H,3-4H2,1-2H3/t5-,6-,8?/m0/s1
