14
gdb 130762	5.55436	1.00916	0.91357	4.8786	64.48	-0.2738	-0.0191	0.2547	1226.9872	0.101065	-473.830613	-473.823299	-473.822354	-473.863595	26.588	
O	 0.1076562167	 0.0434159793	-0.2844709739	-0.357981
C	-0.0092229355	 1.2076030489	-0.0978494787	 0.508046
O	-1.1347660181	 1.8831563247	 0.2364112066	-0.228898
N	-0.8279097096	 3.2637901373	 0.3786680517	-0.198364
C	 0.4259623827	 3.3410096742	 0.1087474616	 0.460017
O	 1.0046149958	 2.1486275729	-0.1843869423	-0.230158
C	 1.2486705838	 4.5492427274	 0.061857279	-0.135698
C	 0.8697816583	 5.667414358	-0.9048543017	-0.250672
C	 0.6813073847	 5.8570027827	 0.5666003071	-0.260212
H	 2.3049095831	 4.3537331358	 0.2023815545	 0.125742
H	 1.6859677706	 6.1780864231	-1.4023573395	 0.134452
H	-0.0122455285	 5.5063456546	-1.513216933	 0.144002
H	-0.3288190787	 5.8304874383	 0.9574098596	 0.157198
H	 1.3634054145	 6.5077924229	 1.1006122989	 0.132526
34.4736	137.4431	171.4236	244.3505	350.5144	405.5219	552.5441	640.7813	711.7669	766.6306	778.1867	797.1633	829.8272	880.6796	903.9254	925.5629	956.6896	1004.1845	1070.4619	1092.548	1098.9465	1122.2648	1162.7069	1204.5891	1221.3361	1278.5409	1456.9492	1466.5434	1501.3742	1678.0938	1950.8757	3146.2575	3150.4177	3188.5101	3233.0073	3247.3037
O=C1ON=C(O1)C1CC1	O=c1onc(o1)C1CC1	
InChI=1S/C5H5NO3/c7-5-8-4(6-9-5)3-1-2-3/h3H,1-2H2	InChI=1S/C5H5NO3/c7-5-8-4(6-9-5)3-1-2-3/h3H,1-2H2
