18
gdb 105981	2.77596	1.52477	1.19301	0.4362	74.92	-0.2136	0.0544	0.2679	1077.1309	0.146158	-401.822618	-401.814264	-401.81332	-401.855664	31.585	
C	-0.0571345002	 1.4566696316	-0.0617946914	-0.52133
C	-0.0708514002	-0.0313562443	-0.0429229968	 0.318747
C	-0.216364628	-1.0896530145	-1.1100338113	-0.218798
C	 0.770709525	-1.9589116307	-0.29736779	-0.048523
C	-0.1342835478	-1.9415712016	 0.879795171	-0.136677
N	 0.9316205823	-0.8857003087	 0.7463810643	-0.207377
C	-1.1648952401	-1.0701097219	 0.1071657292	 0.272022
C	-2.6501877559	-0.9519373714	 0.1463212749	-0.224087
O	-3.3377371457	-2.06819795	-0.4099158668	-0.408395
H	 0.8930102556	 1.8288683492	-0.4605076509	 0.134117
H	-0.8641166192	 1.8430471392	-0.6929926989	 0.126257
H	-0.1847421202	 1.8641412151	 0.9471221766	 0.131172
H	-0.4708417211	-1.0197121546	-2.158308388	 0.099137
H	 1.5819973311	-2.6218352405	-0.5733382406	 0.097683
H	-0.1991215409	-2.5816277003	 1.7532941363	 0.092908
H	-2.9845938385	-0.7617973025	 1.1793571031	 0.095414
H	-2.9609268599	-0.0883402281	-0.4526651653	 0.114135
H	-3.0864997164	-2.8481703662	 0.0948642344	 0.283594
77.9646	119.5938	188.4904	223.4928	237.9061	269.6365	322.8873	428.8469	579.7884	649.6703	715.8242	755.0219	776.5728	790.1679	855.2093	862.7642	876.1144	916.6854	932.5933	960.7824	994.9881	1012.5755	1037.3519	1083.8184	1107.0266	1123.5686	1167.8621	1187.6105	1236.6179	1251.6801	1308.9562	1342.4715	1372.3069	1403.5104	1412.1078	1471.7691	1474.6011	1488.8591	1500.9897	2970.0238	3027.5177	3062.926	3092.8622	3103.2997	3162.0649	3183.5648	3216.7817	3818.3307
CC12C3C4C(N14)C23CO	C[C@@]12[C@H]3[C@@H]4[C@@H](N14)[C@@]23CO	
InChI=1S/C7H9NO/c1-6-4-3-5(8(3)6)7(4,6)2-9/h3-5,9H,2H2,1H3	InChI=1S/C7H9NO/c1-6-4-3-5(8(3)6)7(4,6)2-9/h3-5,9H,2H2,1H3/t3-,4-,5-,6+,7+,8?/m1/s1
