19
gdb 52815	2.91478	1.07001	0.91617	1.576	84.51	-0.2426	0.0398	0.2823	1363.1343	0.157275	-385.832888	-385.823423	-385.822479	-385.868605	34.727	
C	 0.0295529036	 1.5201727003	-0.0560544895	-0.499874
C	 0.0191550705	 0.0651973653	-0.0099690922	 0.013872
C	-0.00060853	-1.1397895493	 0.0187418727	 0.069941
C	 0.0178351657	-2.5988954359	 0.0694218137	 0.241321
O	 0.9145541071	-3.1374888845	-0.8939913107	-0.471955
C	 0.2057601368	-3.2634965615	 1.4929346995	-0.291788
C	-1.118464137	-4.0081401534	 1.2972980124	-0.038758
C	-2.2305480225	-3.0218870606	 1.0819765291	-0.289416
C	-1.3180304981	-3.347384776	-0.0649976103	-0.068842
H	 0.6568654975	 1.8858611065	-0.8764967095	 0.150151
H	-0.9795827219	 1.9179074699	-0.2102877886	 0.15182
H	 0.4170407162	 1.9485468171	 0.8749478359	 0.148098
H	 1.7306078902	-2.6278010669	-0.8426659035	 0.277685
H	 1.0811787924	-3.9146437066	 1.4604853712	 0.109567
H	 0.2684636867	-2.5924639754	 2.3550230287	 0.092747
H	-1.3079750881	-5.0346098898	 1.5846284875	 0.085947
H	-3.2266249967	-3.4458287964	 1.0051930734	 0.11232
H	-2.197443019	-2.0388434577	 1.545776883	 0.112625
H	-1.6617586333	-3.7612219152	-1.0044167425	 0.094541
17.0852	81.2703	106.6594	181.0754	262.5339	269.9223	324.443	352.6222	408.9716	435.6381	494.0512	536.0635	597.2392	746.0623	786.6265	826.447	906.3322	926.5207	945.532	968.3889	1000.5865	1013.0563	1051.7298	1053.8629	1062.55	1067.2686	1087.5576	1123.0811	1146.231	1192.1223	1236.7482	1243.9265	1286.407	1353.7758	1378.7893	1413.8553	1467.574	1477.0009	1478.3616	1493.3602	2358.5199	3026.5349	3050.7794	3087.2373	3088.3858	3110.154	3122.3861	3185.3167	3193.4901	3205.4973	3806.2274
CC#CC1(O)CC2CC12	CC#C[C@@]1(O)C[C@H]2C[C@@H]12	
InChI=1S/C8H10O/c1-2-3-8(9)5-6-4-7(6)8/h6-7,9H,4-5H2,1H3	InChI=1S/C8H10O/c1-2-3-8(9)5-6-4-7(6)8/h6-7,9H,4-5H2,1H3/t6-,7-,8-/m1/s1
