21
gdb 80288	2.34241	1.46089	1.23405	2.8111	82.17	-0.2381	-0.0141	0.224	1145.1091	0.181913	-387.123112	-387.114167	-387.113223	-387.156361	34.661	
C	-0.3692840897	 1.4621953805	-0.0835449981	-0.434787
C	-0.0418145351	-0.0137239458	 0.0219115537	-0.048779
C	 1.3039937977	-0.6164991489	-0.3310819116	-0.107827
C	 2.5062993253	 0.2984082839	-0.4353254336	-0.335286
C	 2.6159033641	 0.998646227	 0.9286523914	 0.388081
O	 3.3157361295	 1.9459765684	 1.1744982156	-0.313924
C	 1.6854940179	 0.292698374	 1.9267697468	-0.390531
C	 0.8025054134	-0.6406036643	 1.1136817176	 0.32172
C	 0.3335052008	-1.9169179184	 1.7731066085	-0.480235
H	 0.4605837637	 2.114002406	 0.2017409545	 0.135063
H	-0.6466067381	 1.7232894113	-1.1108372069	 0.121758
H	-1.2172881777	 1.7180573075	 0.5613366018	 0.121237
H	-0.8770946933	-0.6451950159	-0.2742915273	 0.082194
H	 1.3086090126	-1.5323773425	-0.9127572873	 0.081664
H	 3.4275704493	-0.2761414746	-0.59609122	 0.129506
H	 2.4606001823	 1.0468686466	-1.2329083666	 0.129607
H	 2.312702221	-0.2805842028	 2.6229455253	 0.125855
H	 1.1517086035	 1.0355956387	 2.5281356738	 0.127728
H	-0.3451820005	-1.7111884312	 2.6095367159	 0.118647
H	-0.2027361209	-2.5545898702	 1.0628232593	 0.114844
H	 1.1778828539	-2.4946378993	 2.1684973671	 0.113466
81.7451	167.5923	199.4486	204.6474	226.7349	251.3019	303.0214	440.3637	455.9391	476.0083	509.9262	544.1952	638.9949	700.5748	768.4893	796.1972	813.4656	856.6644	934.2928	968.5281	993.6831	1021.7727	1056.2095	1081.9456	1099.117	1114.6736	1137.736	1158.2688	1180.6288	1208.7949	1226.7096	1282.0275	1295.6675	1326.4447	1360.6079	1419.1334	1422.928	1439.8981	1450.3115	1467.0162	1490.3624	1493.9004	1500.6446	1508.5185	1843.1587	3017.756	3026.3997	3033.3169	3036.053	3075.7814	3079.4393	3080.9386	3088.8358	3094.822	3109.5817	3128.5791	3160.5789
CC1C2CC(=O)CC12C	C[C@H]1[C@H]2CC(=O)C[C@@]12C	
InChI=1S/C8H12O/c1-5-7-3-6(9)4-8(5,7)2/h5,7H,3-4H2,1-2H3	InChI=1S/C8H12O/c1-5-7-3-6(9)4-8(5,7)2/h5,7H,3-4H2,1-2H3/t5-,7+,8-/m0/s1
