17
gdb 61177	3.50517	0.84215	0.77682	5.4802	73.4	-0.306	0.0024	0.3084	1456.8177	0.134173	-418.032542	-418.022547	-418.021603	-418.06819	34.806	
C	-0.1090123832	 1.5979379972	 0.0981434338	-0.420045
C	-0.0229116073	 0.0629084665	-0.0119304074	-0.158328
C	-1.3662345301	-0.5223419884	 0.0481151883	 0.277415
N	-2.4253919731	-0.9796208637	 0.1082158083	-0.310685
C	 0.7000850093	-0.4386617894	-1.2989253578	 0.130222
O	 0.0959083048	 0.0375009797	-2.4758020793	-0.410875
C	 2.2124167554	-0.1172503634	-1.2455705586	-0.395851
C	 2.9315219862	-0.6603461114	-2.3949232351	 0.276232
N	 3.5091049946	-1.090603033	-3.297690994	-0.290822
H	 0.8872526151	 2.0470715103	 0.1281810627	 0.129732
H	-0.6655119022	 2.0168287569	-0.744398495	 0.144615
H	-0.6322312736	 1.8833128892	 1.0129696414	 0.155135
H	 0.5315365251	-0.3255395586	 0.8521767382	 0.131141
H	 0.5860665233	-1.5258669294	-1.3420685123	 0.137602
H	 0.270487843	 0.9805039877	-2.5691181105	 0.292876
H	 2.3738474254	 0.967089659	-1.2166835594	 0.151482
H	 2.6518911272	-0.5272178392	-0.3290749734	 0.160154
56.7246	61.0231	106.3507	179.1596	202.6842	235.7577	262.7524	300.9105	324.2269	377.3854	393.4565	455.8881	523.377	587.3121	682.0013	809.3721	866.7545	914.8607	952.0704	1004.9932	1025.2991	1090.4731	1112.5839	1137.4679	1194.2939	1281.428	1289.7026	1340.0178	1347.3165	1381.3976	1413.2008	1427.421	1463.4958	1494.7991	1507.952	2363.0111	2369.8297	3032.4815	3040.396	3053.5574	3072.5572	3088.3933	3128.2881	3135.647	3807.2352
CC(C#N)C(O)CC#N	C[C@@H](C#N)[C@@H](O)CC#N	
InChI=1S/C6H8N2O/c1-5(4-8)6(9)2-3-7/h5-6,9H,2H2,1H3	InChI=1S/C6H8N2O/c1-5(4-8)6(9)2-3-7/h5-6,9H,2H2,1H3/t5-,6-/m0/s1
