13
gdb 130831	4.47187	1.15321	0.91679	4.3285	68.68	-0.2663	-0.1006	0.1657	1162.1592	0.089554	-452.780747	-452.773233	-452.772289	-452.813897	26.269	
O	-0.084903941	 0.0389218287	 0.0033016941	-0.201976
C	-0.0448033466	 1.2374545996	 0.0087707619	 0.064613
C	 1.3292821722	 1.9466243272	-0.0021579082	 0.339684
O	 2.3724338017	 1.34985366	-0.0166674974	-0.288623
N	 1.2880210198	 3.3520506681	 0.006165735	-0.03382
C	 2.3760724582	 4.1903438758	-0.000943391	 0.008422
C	 1.884931873	 5.4646673508	 0.0118094304	-0.239434
C	 0.4687814873	 5.3097866347	 0.0264350488	 0.02034
N	 0.1064591769	 4.0434166421	 0.0231371174	-0.254968
H	-0.9356953595	 1.8841139427	 0.0210210129	 0.146345
H	 3.3733073057	 3.7842687119	-0.0142150502	 0.173267
H	 2.449529489	 6.3826985003	 0.0108903069	 0.129122
H	-0.2872793069	 6.0818386383	 0.0391742893	 0.137026
53.7099	86.9469	172.7189	189.7224	310.8763	408.2506	514.4926	559.5814	632.7793	664.8957	799.1083	834.1657	887.0732	922.3045	923.2801	925.9733	1013.8274	1020.3679	1060.9856	1103.863	1232.439	1275.4251	1355.8899	1397.2158	1431.3016	1454.8395	1583.8379	1815.2841	1835.7368	3026.5583	3244.2616	3273.9764	3298.1559
O=CC(=O)N1C=CC=N1	O=CC(=O)n1cccn1	
InChI=1S/C5H4N2O2/c8-4-5(9)7-3-1-2-6-7/h1-4H	InChI=1S/C5H4N2O2/c8-4-5(9)7-3-1-2-6-7/h1-4H
