15
gdb 45862	2.60141	1.86592	1.21743	2.0125	67.32	-0.2573	-0.0342	0.2231	977.5447	0.114256	-453.965033	-453.957721	-453.956777	-453.997081	27.597	
O	-0.0498479645	 0.1659778416	 0.9300103848	-0.348949
C	-0.0172536984	 1.2779307394	 0.4555065886	 0.407111
N	-1.1533610409	 1.9341254441	 0.0167823701	-0.360525
C	-1.1383688	 3.1882213183	-0.5993073913	 0.101616
N	-0.1584328783	 3.9892464158	-0.6403302936	-0.236924
C	 1.055140572	 3.5808640272	 0.0591118683	-0.247913
C	 1.2423250186	 2.0826549716	 0.2127952355	 0.241807
C	 2.5190580212	 1.4904568213	 0.6237771984	-0.217722
O	 2.1054193265	 1.4343917344	-0.7407327123	-0.257455
H	-2.012679852	 1.4033655313	 0.0547109718	 0.26385
H	-2.0846764074	 3.4576279566	-1.0661747536	 0.131137
H	 1.924624184	 3.9856785044	-0.4677219313	 0.134242
H	 1.038368604	 4.0516398566	 1.053782135	 0.127443
H	 3.3586194301	 2.1529069035	 0.8307911375	 0.117992
H	 2.5053178651	 0.5417469439	 1.1540972921	 0.14429
76.0847	144.2885	259.4532	289.2561	337.5801	428.5157	490.3213	501.0527	577.9264	629.6524	671.366	763.7677	806.5071	873.954	922.4383	948.2652	965.2158	1002.0208	1025.5235	1092.6038	1133.1585	1166.8139	1190.9237	1258.5641	1306.3537	1330.2628	1414.8162	1432.5255	1454.5218	1462.2808	1511.702	1747.5219	1820.943	3000.7982	3079.8984	3091.8792	3146.2055	3193.9541	3603.6208
O=C1NC=NCC11CO1	O=C1NC=NC[C@]21CO2	
InChI=1S/C5H6N2O2/c8-4-5(2-9-5)1-6-3-7-4/h3H,1-2H2,(H,6,7,8)	InChI=1S/C5H6N2O2/c8-4-5(2-9-5)1-6-3-7-4/h3H,1-2H2,(H,6,7,8)/t5-/m1/s1
