19
gdb 93311	2.02415	1.63386	1.11964	2.8013	81.07	-0.2363	-0.0239	0.2124	1157.3686	0.157889	-385.8952	-385.886112	-385.885168	-385.929114	34.24	
C	-0.3682774403	 1.4962539257	-0.0506151209	-0.413862
C	 0.0216392815	 0.0233355853	 0.0060794496	 0.019158
C	 0.9630334497	-0.4406300427	-1.1283238361	-0.221788
C	 1.4666418826	-1.8181682737	-0.6740652129	-0.322223
C	 1.3968003002	-1.7940831329	 0.8564954822	 0.402917
O	 1.7348981635	-2.6709810605	 1.600976638	-0.303529
C	 0.7645345836	-0.4354505963	 1.2919794614	-0.283016
C	 1.837650202	 0.4623955683	 1.6992970268	 0.347185
C	 2.7466549389	 1.1845241619	 2.0142276622	-0.482988
H	 0.5133576903	 2.1377457498	 0.0369897032	 0.13305
H	-0.865012994	 1.7244431656	-0.9994345464	 0.11363
H	-1.0565440315	 1.759636551	 0.7590087109	 0.117218
H	-0.8913837729	-0.5861804804	-0.0465561163	 0.081025
H	 0.4560206154	-0.4663130115	-2.0962724998	 0.103322
H	 1.7994938926	 0.2621062822	-1.2134068691	 0.117211
H	 0.810901615	-2.6283448079	-1.0162782395	 0.134821
H	 2.4773856919	-2.0726262553	-1.0033528222	 0.136428
H	 0.0890691791	-0.6101689101	 2.1353063411	 0.11966
H	 3.5424048822	 1.8214993815	 2.3122742978	 0.201781
56.1487	129.4224	151.9602	175.6194	221.2107	274.4609	374.9095	401.5921	446.1904	518.5095	541.2215	602.4055	622.3988	625.8241	639.8876	781.7406	815.5186	851.6029	911.6895	947.5832	979.4315	1003.6751	1049.0702	1088.6526	1125.702	1153.076	1170.9833	1210.9777	1234.1979	1288.9548	1305.3822	1315.5649	1355.0727	1379.9376	1413.7813	1446.8492	1492.4606	1498.0228	1499.7703	1857.6892	2225.878	3006.5627	3035.7322	3043.6688	3049.1576	3063.5868	3096.349	3100.6249	3106.2417	3115.8517	3502.4138
CC1CCC(=O)C1C#C	C[C@H]1CCC(=O)[C@H]1C#C	
InChI=1S/C8H10O/c1-3-7-6(2)4-5-8(7)9/h1,6-7H,4-5H2,2H3	InChI=1S/C8H10O/c1-3-7-6(2)4-5-8(7)9/h1,6-7H,4-5H2,2H3/t6-,7-/m0/s1
