16
gdb 57084	3.25521	1.17932	0.91166	3.9859	69.57	-0.2631	0.0053	0.2684	1215.5532	0.126276	-434.080297	-434.071901	-434.070957	-434.114166	29.911	
N	-0.1286241959	 1.4063581725	 0.0606712519	-0.505435
C	 0.0298465113	-0.0497810214	 0.0234763667	-0.146803
C	 0.6683664065	-0.5310712635	-1.2183563679	 0.285065
N	 1.1664312974	-0.8245544882	-2.2193318979	-0.322972
C	 0.817049044	-0.5105281255	 1.2692219988	 0.01797
C	 0.1101675491	-0.1144899739	 2.5921360383	-0.11969
O	-0.1195650842	-1.3847146001	 3.2546432296	-0.217027
C	 0.375006389	-2.3204316481	 2.4172642807	 0.125771
N	 0.9112676418	-1.9774739688	 1.3201320708	-0.267467
H	 0.7683968118	 1.8538729663	-0.1098373791	 0.245338
H	-0.7442382532	 1.7091942228	-0.6878478515	 0.25058
H	-0.9686824416	-0.4991827685	 0.0784571089	 0.135074
H	 1.826420884	-0.087335451	 1.2040677656	 0.103415
H	 0.7250227905	 0.5045863288	 3.2480352731	 0.128086
H	-0.8505673874	 0.3795257196	 2.4322845992	 0.137274
H	 0.2679481871	-3.3405596309	 2.7691480528	 0.15082
58.788	87.0686	131.1839	230.3203	247.0405	281.9196	344.9178	418.3911	481.5716	570.9879	611.1174	755.2388	845.3408	878.1075	891.2787	954.5262	971.8078	975.4372	1010.8375	1046.7307	1064.4545	1135.7309	1147.8182	1184.7437	1230.5782	1295.6553	1306.8354	1317.9952	1371.2435	1383.3536	1389.3487	1518.7023	1664.0877	1700.3887	2350.8444	3031.0373	3054.4365	3076.0106	3127.0058	3219.2878	3493.5554	3572.9525
NC(C#N)C1COC=N1	N[C@@H](C#N)[C@H]1COC=N1	
InChI=1S/C5H7N3O/c6-1-4(7)5-2-9-3-8-5/h3-5H,2,7H2	InChI=1S/C5H7N3O/c6-1-4(7)5-2-9-3-8-5/h3-5H,2,7H2/t4-,5+/m0/s1
