22
gdb 109945	2.24518	1.34957	1.00973	1.3589	82.06	-0.2419	0.0617	0.3035	1279.8968	0.193504	-404.309781	-404.300134	-404.29919	-404.344571	36.438	
C	-0.188277458	 1.5451484661	 0.0558335836	-0.385827
C	 0.0002640718	 0.0298886938	-0.0745322399	-0.191118
C	 0.6823371534	-0.5878488483	 1.1393870224	-0.07824
C	-0.1042063476	-0.6685576144	 2.4984818898	 0.121569
O	-1.512036932	-0.5923982832	 2.3889627136	-0.430546
C	 0.4631629521	-2.1015967107	 2.7164846115	-0.328926
C	 0.8778391757	-2.1125885421	 1.2418134196	 0.332701
C	 0.5537981449	-3.1235571836	 0.2072466283	-0.314944
N	 1.9415961394	-2.9334270217	 0.6812284262	-0.371724
H	 0.7716134573	 2.0541824163	 0.198041492	 0.110739
H	-0.6583933785	 1.964295848	-0.8390838982	 0.110379
H	-0.8264545971	 1.7784690487	 0.9128878063	 0.137129
H	-0.9768251486	-0.4439656325	-0.2262937896	 0.086487
H	 0.5917071648	-0.1955070555	-0.972580013	 0.089032
H	 1.6437078349	-0.0866938221	 1.3179050622	 0.072941
H	 0.1678323955	 0.0786914673	 3.2460033746	 0.086735
H	-1.8143575831	-1.3214427916	 1.8369432824	 0.282824
H	 1.3259114086	-2.1239333311	 3.3884997655	 0.113093
H	-0.2628884818	-2.8489819618	 3.0496475667	 0.101375
H	 0.1030946205	-4.0715841723	 0.4915625699	 0.115807
H	 0.2911331926	-2.7794479329	-0.7901729304	 0.112415
H	 2.4712353154	-2.4008124464	-0.0060740033	 0.228099
47.6848	81.6487	147.9863	202.2563	256.2987	267.471	286.5684	309.426	340.9768	400.0368	475.665	517.4798	625.2157	731.0861	800.2853	812.7824	837.8832	884.5834	917.9682	927.1429	967.6794	976.9587	997.4656	1027.4875	1034.3541	1081.9675	1088.4595	1124.8258	1149.5208	1174.174	1192.4063	1242.2633	1245.3765	1262.4808	1290.3836	1302.885	1314.2118	1337.2302	1387.5405	1401.8854	1407.5384	1436.6516	1473.1375	1482.753	1498.8587	1509.4903	1510.4801	3009.9108	3012.8379	3034.0421	3052.4691	3053.1745	3094.1226	3097.1102	3100.0575	3108.031	3116.4719	3181.1066	3482.0944	3808.1624
CCC1C(O)CC11CN1	CC[C@H]1[C@@H](O)C[C@]21CN2	
InChI=1S/C7H13NO/c1-2-5-6(9)3-7(5)4-8-7/h5-6,8-9H,2-4H2,1H3	InChI=1S/C7H13NO/c1-2-5-6(9)3-7(5)4-8-7/h5-6,8-9H,2-4H2,1H3/t5-,6-,7+/m0/s1
