15
gdb 132184	1.96084	1.79754	0.94331	2.3342	73.97	-0.2241	-0.0212	0.2029	1163.9998	0.112448	-461.948479	-461.940759	-461.939815	-461.980804	29.132	
C	 0.0850833682	 1.4690848433	-0.0199466703	-0.471092
C	-0.0484685024	-0.0142878685	 0.0440306955	 0.370611
C	-1.141338283	-0.7497040632	-0.1968459935	-0.227168
C	-1.1478168591	-2.2095431125	-0.1018542917	 0.320709
N	-2.2300332056	-2.8617073805	-0.3454738974	-0.542722
C	 0.150933965	-2.7635303482	 0.2789759842	-0.444297
C	 1.1790304854	-1.9369321344	 0.4967112669	 0.393692
F	 2.3846996068	-2.3311299613	 0.8424100059	-0.04151
O	 1.1521309364	-0.6030359862	 0.4013146032	-0.247455
H	 0.846568295	 1.7577634969	-0.7526465158	 0.14867
H	-0.8658213747	 1.923193831	-0.3013590109	 0.145288
H	 0.3974070184	 1.8716878631	 0.949760403	 0.148639
H	-2.0657524163	-0.2594860323	-0.4743653964	 0.120557
H	-2.0715787127	-3.8657721348	-0.2369559967	 0.205848
H	 0.2984114084	-3.8301138225	 0.3886645541	 0.120231
144.4631	164.0675	180.061	221.6151	285.2547	353.7012	497.685	514.5552	537.7701	550.116	609.4842	653.7104	708.1431	813.6126	878.6965	913.7256	935.621	940.5857	991.8189	1063.51	1069.243	1149.8275	1185.1357	1255.2883	1289.6441	1377.7014	1418.5532	1431.4762	1470.0287	1485.4041	1661.2844	1690.3676	1753.1631	3039.7844	3094.3546	3148.0918	3217.2562	3221.3099	3443.035
CC1=CC(=N)C=C(F)O1	CC1=CC(=C[C@H](F)O1)[NH]	
InChI=1S/C6H6FNO/c1-4-2-5(8)3-6(7)9-4/h2-3,8H,1H3	InChI=1S/C6H7FNO/c1-4-2-5(8)3-6(7)9-4/h2-3,6,8H,1H3/t6-/m1/s1
