16
gdb 81319	4.04016	1.12712	1.04252	4.4003	77.39	-0.2598	-0.0607	0.1991	1165.3088	0.124987	-400.720391	-400.712929	-400.711985	-400.752319	28.821	
C	-0.1184175796	 1.5155115944	 0.0243168473	-0.429907
C	-0.0149987606	 0.0004435395	 0.0201318368	 0.028683
C	 1.2513830004	-0.6105151925	-0.6883963648	 0.012069
O	 2.0202319805	-0.2629678283	 0.5084438034	-0.27495
C	 0.796475166	-0.6477451056	 1.1962845024	-0.060688
C	 0.7044795857	-2.1506074595	 0.8240976332	 0.272064
C	 1.0222631366	-2.1115002718	-0.4804008593	-0.196545
C	 0.3465139444	-3.2176576492	 1.6699293809	 0.174223
N	 0.0447119263	-4.0686583324	 2.3973100338	-0.344675
H	 0.8447768105	 1.9728318173	 0.2606627694	 0.141816
H	-0.4490740224	 1.8815930782	-0.9534039285	 0.123454
H	-0.8540555675	 1.84799621	 0.7642889687	 0.126142
H	-0.9689060146	-0.4775380842	-0.2173739349	 0.087554
H	 1.6673812603	-0.2436082797	-1.6249653859	 0.095342
H	 0.7314832543	-0.3468575089	 2.2402447557	 0.10241
H	 1.0797948297	-2.9064015273	-1.2083953481	 0.14301
114.5936	151.1814	230.9547	277.4193	286.2548	442.4743	473.0431	508.5032	575.0936	620.2527	673.8279	778.2435	808.1447	829.932	866.8273	886.6368	907.469	929.8148	1027.27	1055.2226	1074.1426	1113.3166	1150.9722	1174.5832	1214.7998	1232.9811	1238.6983	1262.8678	1298.9392	1377.7053	1407.8835	1491.8587	1503.0853	1641.0127	2333.112	3038.7709	3079.6112	3098.7541	3134.8163	3145.365	3150.1706	3256.3148
CC1C2OC1C(=C2)C#N	C[C@H]1[C@H]2O[C@@H]1C(=C2)C#N	
InChI=1S/C7H7NO/c1-4-6-2-5(3-8)7(4)9-6/h2,4,6-7H,1H3	InChI=1S/C7H7NO/c1-4-6-2-5(3-8)7(4)9-6/h2,4,6-7H,1H3/t4-,6-,7-/m0/s1
