22
gdb 94312	2.31599	1.46317	1.12182	1.5361	82.71	-0.2338	0.0646	0.2983	1201.0739	0.193171	-404.320005	-404.310461	-404.309517	-404.353688	37.2	
C	-0.0550947402	 1.5295321194	 0.1523213113	-0.432018
C	-0.0989534518	 0.0143032203	 0.1587092603	 0.236699
C	-1.4177235051	-0.5714628178	-0.3115223005	-0.477704
N	 1.1550730754	-0.6237802812	-0.3068458325	-0.430407
C	 0.7806541724	-0.736695311	 1.1025931791	 0.28088
C	 1.6092673762	-0.1881124065	 2.2744321443	-0.296633
C	 0.9422856949	-1.2545105984	 3.1880068871	-0.258584
C	 0.4909470656	-2.0188479098	 1.9138179014	 0.067237
O	-0.7592538731	-2.6635621553	 1.8819185789	-0.422768
H	 0.9402260205	 1.895189392	 0.4121698145	 0.128652
H	-0.3030934301	 1.9121372361	-0.8443208744	 0.11732
H	-0.7792268496	 1.9485417303	 0.8607400685	 0.106855
H	-1.6066887116	-0.275830552	-1.3504838935	 0.118572
H	-1.4248769352	-1.6609392621	-0.2475436885	 0.137697
H	-2.2554559835	-0.1907881208	 0.2859015242	 0.108667
H	 0.9403005294	-1.4979984918	-0.7853324697	 0.223152
H	 2.6790828292	-0.361200877	 2.1284475513	 0.112573
H	 1.4584241803	 0.8580740476	 2.5474375017	 0.104656
H	 1.5716033162	-1.7928919376	 3.8988387891	 0.104508
H	 0.0774140027	-0.8461444263	 3.7217920245	 0.093966
H	 1.2195512566	-2.7940331232	 1.648931728	 0.09663
H	-1.4276247893	-2.026200755	 2.1551998547	 0.280048
89.7975	138.5559	186.3245	206.3504	235.0369	274.1387	294.7546	359.72	385.1304	407.0715	458.492	471.346	538.7947	584.1835	666.6853	721.1639	786.2692	839.9251	925.3065	955.411	958.8957	968.3117	981.1279	1017.1295	1054.597	1061.5787	1099.0786	1124.9831	1151.9453	1172.0472	1201.7413	1224.3794	1247.2583	1265.7969	1293.8237	1297.9998	1329.8935	1408.767	1420.6796	1433.131	1441.5753	1477.7586	1484.4426	1488.4176	1496.1204	1504.8213	1517.6036	3021.1918	3029.7354	3042.9347	3051.9187	3064.4096	3073.4918	3087.7904	3110.9121	3123.1038	3129.4183	3134.1508	3464.8601	3810.1122
CC1(C)NC11CCC1O	CC1(C)N[C@]21CC[C@H]2O	
InChI=1S/C7H13NO/c1-6(2)7(8-6)4-3-5(7)9/h5,8-9H,3-4H2,1-2H3	InChI=1S/C7H13NO/c1-6(2)7(8-6)4-3-5(7)9/h5,8-9H,3-4H2,1-2H3/t5-,7-/m1/s1
