15
gdb 51723	3.9996	0.90141	0.83474	5.1494	63.28	-0.2804	-0.0098	0.2706	1337.2272	0.111984	-494.962523	-494.954389	-494.953445	-494.997181	28.275	
O	 0.4486845924	-0.0843795009	-0.1571550678	-0.261142
C	 0.2892040964	 1.0953851369	-0.199793945	 0.171213
O	 1.2089582643	 1.9728540103	 0.258522145	-0.192499
C	 0.9269636346	 3.3735727237	 0.1531866899	 0.072681
C	 1.1300350195	 4.0314069338	 1.5287405508	-0.08861
O	 2.4917286943	 4.4643559977	 1.5724343429	-0.212905
C	 3.0427778201	 4.511497083	 0.3247136535	 0.442881
O	 4.1606782568	 4.8785081019	 0.1289414947	-0.32252
C	 1.9997653934	 4.0533816858	-0.6928435065	-0.377355
H	-0.6114430861	 1.5947293272	-0.6086225747	 0.083145
H	-0.090854467	 3.5163930964	-0.2225016496	 0.102425
H	 0.4721061737	 4.8988892526	 1.6551120907	 0.1243
H	 0.9619145939	 3.3246252424	 2.3431305006	 0.146456
H	 2.4441600447	 3.3957707573	-1.439687528	 0.162276
H	 1.6064829189	 4.9387254118	-1.2032363364	 0.149655
29.1178	62.8667	143.0073	168.3115	276.3703	345.5045	401.3736	505.1499	542.6509	616.4357	689.1669	775.2209	847.8446	892.6983	923.2752	976.9198	1030.5668	1040.8559	1079.5293	1105.7457	1162.5342	1177.8833	1195.7812	1248.1299	1265.3937	1316.439	1375.8628	1402.4084	1439.6607	1447.7198	1504.0855	1875.1409	1899.4858	2943.9687	3041.8273	3061.554	3073.8268	3124.3484	3146.6978
O=COC1COC(=O)C1	O=CO[C@H]1COC(=O)C1	
InChI=1S/C5H6O4/c6-3-9-4-1-5(7)8-2-4/h3-4H,1-2H2	InChI=1S/C5H6O4/c6-3-9-4-1-5(7)8-2-4/h3-4H,1-2H2/t4-/m1/s1
