17
gdb 83658	2.47073	1.75259	1.30657	2.8934	67.61	-0.2408	0.0423	0.2831	994.2513	0.135374	-458.889489	-458.881696	-458.880752	-458.921884	29.709	
O	 0.3303015858	 1.173555409	-0.4964785583	-0.422413
C	 0.1383848849	-0.1419663115	-0.0370908655	-0.001543
C	 0.3051764161	-0.461485943	 1.4831635861	-0.131933
C	-0.2539825172	 0.6034486816	 2.4436641569	-0.085697
O	-1.569535814	-0.0103987977	 2.4585953903	-0.284439
C	-1.150857552	-1.0198501796	 1.5218996122	-0.009156
C	-1.3306289811	-0.563310474	 0.068140237	 0.436712
C	-2.5040290736	 0.042602621	-0.5523425664	-0.247689
O	-2.0259440674	-1.2549621155	-0.9491019052	-0.279173
H	 1.2680245779	 1.3085261413	-0.665652053	 0.290158
H	 0.6957972939	-0.8702040889	-0.6431066918	 0.087366
H	 1.1891239195	-1.0160433981	 1.7927215351	 0.08008
H	 0.1901673262	 0.6003789589	 3.4450817357	 0.104789
H	-0.271799475	 1.6256223979	 2.0499386498	 0.117401
H	-1.4593553859	-2.0306262441	 1.7969875995	 0.087903
H	-3.4479970069	 0.0498033605	-0.0110915972	 0.126948
H	-2.363214911	 0.8332281121	-1.2857982652	 0.130687
78.9182	197.6325	208.4681	227.659	269.0091	289.5035	431.3124	485.398	565.1587	601.356	740.9277	795.9425	835.3846	870.2692	894.581	918.9217	971.1451	983.6305	1010.889	1039.8399	1081.984	1119.5064	1122.5465	1147.5061	1160.0299	1171.7455	1178.1965	1212.4412	1220.4081	1270.0363	1289.0861	1314.5141	1358.1325	1408.911	1455.7538	1518.6557	1530.6012	3006.1485	3029.9852	3079.2706	3094.2469	3097.2301	3127.853	3192.0294	3819.4532
OC1C2COC2C11CO1	O[C@H]1[C@H]2CO[C@H]2[C@]21CO2	
InChI=1S/C6H8O3/c7-4-3-1-8-5(3)6(4)2-9-6/h3-5,7H,1-2H2	InChI=1S/C6H8O3/c7-4-3-1-8-5(3)6(4)2-9-6/h3-5,7H,1-2H2/t3-,4+,5-,6-/m1/s1
