17
gdb 62873	2.89828	1.90643	1.48415	1.5753	65.91	-0.2497	0.0528	0.3025	907.026	0.135871	-458.896384	-458.889389	-458.888445	-458.927266	29.187	
C	-0.0246043246	 1.5630559358	 0.0158494853	-0.426291
C	-0.0999358251	 0.0427495344	-0.0335062289	 0.41468
O	-1.4100608268	-0.2790662865	-0.3545480282	-0.478181
C	 1.1427135693	-0.6058153704	-0.7620952398	-0.054967
O	 1.9165166449	-0.2841620412	 0.443701093	-0.289843
C	 0.682940523	-0.6452339613	 1.1536922999	-0.054969
C	 0.6516594704	-2.1645394179	 0.8534253818	 0.035579
O	-0.3079909285	-2.6015978403	-0.1378485825	-0.273432
C	 0.9927989907	-2.1352922574	-0.568046058	 0.035578
H	 0.9766832674	 1.9119561076	 0.263403362	 0.134947
H	-0.3236266411	 1.9683610262	-0.9553955479	 0.123251
H	-0.7355818339	 1.9330560716	 0.7605729364	 0.123253
H	-1.4545628877	-1.246159048	-0.3851297891	 0.297719
H	 1.5799423237	-0.2304078554	-1.6868161315	 0.082558
H	 0.6495513302	-0.3101784576	 2.1899508882	 0.082558
H	 0.9679137131	-2.9156098011	 1.5675474211	 0.123779
H	 1.6056038351	-2.8609354286	-1.0895885319	 0.123779
199.9854	203.7781	307.1916	326.9777	405.0857	418.9228	479.604	581.1547	623.131	675.1108	675.1338	731.332	777.8775	842.0441	852.1267	869.1795	907.1895	908.5115	917.3191	970.7724	991.3966	1053.5935	1083.7399	1090.3436	1126.9742	1164.6868	1230.8901	1239.2223	1242.8592	1255.1543	1288.7589	1300.1963	1394.2976	1396.8129	1447.1302	1492.4501	1495.067	3051.0055	3112.4891	3129.8228	3132.4087	3165.5469	3186.1032	3198.0586	3698.8918
CC1(O)C2OC1C1OC21	C[C@@]1(O)[C@H]2O[C@@H]1[C@H]1O[C@@H]21	
InChI=1S/C6H8O3/c1-6(7)4-2-3(8-2)5(6)9-4/h2-5,7H,1H3	InChI=1S/C6H8O3/c1-6(7)4-2-3(8-2)5(6)9-4/h2-5,7H,1H3/t2-,3+,4+,5-,6-
