18
gdb 97482	8.05195	0.44401	0.43545	2.0793	105.83	-0.222	-0.0135	0.2085	2521.0839	0.146823	-364.74463	-364.734709	-364.733765	-364.782627	34.294	
C	 0.0120893801	 1.4642248445	-0.3739836835	-0.366562
C	-0.0598486817	 0.1137824276	 0.364676716	-0.343756
C	-1.3821892356	-0.4925920295	 0.3262847244	 0.281643
C	-2.4891767314	-0.9835023937	 0.2861650092	-0.224887
C	-3.7298087116	-1.5349981278	 0.2422285072	-0.222769
C	-4.8384403937	-2.0246839263	 0.1939100378	 0.333597
C	-6.138808772	-2.6207991876	 0.1637639097	-0.207955
C	-6.8809788875	-2.72678882	-1.1319184842	-0.224886
N	-6.3430899234	-3.9340117978	-0.5030561908	-0.303319
H	 1.0245497569	 1.8738395265	-0.3136281571	 0.118523
H	-0.2507500482	 1.3446561561	-1.4282304177	 0.132126
H	-0.6801668654	 2.1856142266	 0.0677650677	 0.132978
H	 0.6684079944	-0.5832985842	-0.0705253096	 0.137194
H	 0.2434275857	 0.2496858011	 1.4111656875	 0.137849
H	-6.7224465375	-2.5137751147	 1.0748692778	 0.122013
H	-7.9642665641	-2.6466822751	-1.1220980665	 0.127881
H	-6.3948380427	-2.3288380299	-2.0174996082	 0.127389
H	-5.4764440423	-4.2033895259	-0.9633321096	 0.24294
6.9624	59.9071	66.9112	140.9262	158.47	235.6647	250.9878	342.1687	415.4518	453.947	519.1396	546.7134	578.3414	618.3878	782.689	799.2012	816.0934	906.6707	958.2661	981.7536	1017.756	1078.9395	1100.0266	1109.5168	1130.4143	1174.6151	1245.6824	1282.2994	1284.7703	1298.8604	1346.851	1403.7083	1410.0883	1468.2031	1494.3719	1503.7628	1504.8982	2269.3133	2371.522	3015.9916	3043.8539	3046.4236	3114.6819	3120.9448	3127.2864	3134.8898	3206.3629	3503.2134	6.9826	59.9077	66.9119	140.9284	158.4723	235.6645	250.987	342.1707	415.4522	453.9489	519.1398	546.7145	578.3434	618.3883	782.6891	799.2018	816.0941	906.6709	958.2661	981.7535	1017.756	1078.9394	1100.0266	1109.5168	1130.414	1174.6148	1245.682	1282.2991	1284.7697	1298.8597	1346.8509	1403.7082	1410.0881	1468.2027	1494.3716	1503.7627	1504.898	2269.3143	2371.5223	3015.9916	3043.8539	3046.4236	3114.682	3120.9448	3127.2864	3134.8899	3206.363	3503.2138
CCC#CC#CC1CN1	CCC#CC#C[C@H]1CN1	
InChI=1S/C8H9N/c1-2-3-4-5-6-8-7-9-8/h8-9H,2,7H2,1H3	InChI=1S/C8H9N/c1-2-3-4-5-6-8-7-9-8/h8-9H,2,7H2,1H3/t8-/m0/s1
