23
gdb 97934	5.37682	0.53041	0.50692	0.1335	96.61	-0.2375	0.0608	0.2983	2288.409	0.204121	-351.126201	-351.115283	-351.114339	-351.16393	38.833	
C	 0.0259762167	 1.5175584878	-0.1190074396	-0.362105
C	 0.2996035174	 0.0024608085	-0.1113394546	-0.311712
C	 0.7668603348	-0.4891293102	 1.1813773328	 0.099458
C	 1.1547107228	-0.8662145933	 2.2579136615	 0.037418
C	 1.6209198839	-1.3574448825	 3.5535082854	-0.383054
C	 1.8072132852	-2.8697809122	 3.5750929137	 0.02364
C	 3.0935253698	-3.5001702662	 3.1037618016	-0.282215
C	 2.7140564106	-3.5664268223	 4.5654470058	-0.008073
C	 3.5179147561	-2.8333771542	 5.6182865265	-0.403417
H	 0.9325723065	 2.0770377341	 0.1275229378	 0.125957
H	-0.3205804851	 1.8394494571	-1.1058056838	 0.111156
H	-0.7396000138	 1.7775732134	 0.6171756941	 0.125975
H	-0.6142528483	-0.5339664224	-0.3985412499	 0.124422
H	 1.0417602781	-0.2375414851	-0.8839456091	 0.124853
H	 2.5626593491	-0.8583121128	 3.811100508	 0.121233
H	 0.9046346231	-1.0650422956	 4.3339786218	 0.123099
H	 0.8982021772	-3.4067585498	 3.3185557808	 0.088438
H	 3.0489710511	-4.4005965595	 2.5009657592	 0.107697
H	 3.9027472423	-2.8279071045	 2.8328176183	 0.108423
H	 2.3435894367	-4.5314400575	 4.9034356116	 0.081761
H	 3.9288243587	-1.8922584807	 5.2416589899	 0.115289
H	 2.9107473663	-2.6020573314	 6.5010420079	 0.115502
H	 4.364319801	-3.4446107108	 5.9505430703	 0.116252
28.813	43.1893	68.951	149.0862	166.4043	179.2691	213.1255	265.7714	291.2622	387.7218	397.4884	436.0629	498.4936	517.4845	746.4466	761.6139	787.5695	825.7422	866.2637	877.5026	927.3783	960.6702	985.2023	1049.9959	1071.8998	1080.0641	1105.1562	1111.0741	1144.9933	1151.9757	1163.1039	1199.5193	1244.0295	1255.2679	1287.2143	1323.3352	1352.9154	1389.5509	1409.6838	1415.687	1429.1331	1468.4528	1477.8742	1494.1796	1495.0837	1495.9667	1506.0169	1506.2325	2366.6999	3009.3212	3016.2769	3028.6351	3041.9928	3042.7968	3048.7208	3085.0939	3103.0215	3115.2501	3122.0422	3124.511	3130.4608	3145.5886	3208.4635
CCC#CCC1CC1C	CCC#CC[C@H]1C[C@H]1C	
InChI=1S/C9H14/c1-3-4-5-6-9-7-8(9)2/h8-9H,3,6-7H2,1-2H3	InChI=1S/C9H14/c1-3-4-5-6-9-7-8(9)2/h8-9H,3,6-7H2,1-2H3/t8-,9+/m1/s1
