17
gdb 124735	3.61916	1.06557	0.95485	4.7743	72.2	-0.2188	0.007	0.2258	1267.8706	0.136916	-451.320519	-451.311806	-451.310862	-451.354155	32.43	
C	 0.0242860196	 1.5315802201	-0.0851631928	-0.386873
C	 0.1267072419	 0.0017548646	 0.0044365322	-0.087674
N	 0.7425655699	-0.373950312	 1.2851045788	-0.531737
H	 1.0173886955	-1.3520316672	 1.2727675129	 0.242451
H	 1.5910200684	 0.1653517999	 1.4248601413	 0.238869
H	-1.7542610279	-0.550333048	 1.9972983353	 0.289626
C	-1.2390206027	-0.6209922443	-0.0488710494	 0.440363
N	-1.7996594263	-1.0718446533	-1.1200647708	-0.211551
O	-3.0902441014	-1.5190424785	-0.6911685418	-0.246307
C	-3.2272814231	-1.3268056483	 0.6619740245	 0.484638
N	-4.2069102011	-1.6200883521	 1.4053989345	-0.606408
N	-2.0406821206	-0.7287445065	 1.0501923141	-0.36227
H	 1.0255068192	 1.9750096649	-0.0777420118	 0.120367
H	-0.4749003522	 1.826462877	-1.0105613063	 0.146682
H	-0.5368838847	 1.9318434791	 0.7639060702	 0.134326
H	 0.6714042174	-0.3613876097	-0.8786756768	 0.104088
H	-4.9500782119	-2.0569688157	 0.865932696	 0.231411
63.2284	112.2416	175.4697	218.2022	239.6547	291.1596	351.3488	416.234	447.7606	522.3299	529.1169	650.03	698.8509	736.0444	748.8419	772.0846	869.7806	894.9391	925.1936	959.6439	1009.1394	1031.9083	1069.1361	1076.632	1128.154	1221.2196	1271.9777	1317.0023	1356.9324	1384.4125	1406.6997	1487.5967	1492.9856	1510.9298	1657.985	1664.6145	1792.2007	3003.3482	3042.6142	3114.0117	3138.648	3496.119	3536.8548	3577.2512	3688.8525
CC([NH3+])C1=NOC(=N)[N-]1	C[C@@H](N)C1=NO[C@H]([NH])N1	
InChI=1S/C4H7N4O/c1-2(5)3-7-4(6)9-8-3/h2H,5H2,1H3,(H-,6,7,8)/q-1/p+1	InChI=1S/C4H9N4O/c1-2(5)3-7-4(6)9-8-3/h2,4,6H,5H2,1H3,(H,7,8)/t2-,4-/m1/s1
