15
gdb 129362	4.30481	0.95992	0.84853	5.2173	68.75	-0.2562	-0.0058	0.2504	1313.0605	0.114874	-450.14022	-450.132242	-450.131298	-450.174447	27.729	
N	-0.4707018336	 1.0631341497	-0.2038715748	-0.442087
C	-0.5650896526	-0.1862346578	-0.3511741515	 0.137275
O	-0.6934743123	-0.9775871069	 0.7371342801	-0.179903
C	-0.8823964923	-2.3726116366	 0.4959284602	-0.200975
C	-2.3101661391	-2.7081340064	 0.2005762065	 0.355994
N	-3.0730052761	-3.377125194	 1.0516576765	-0.252409
N	-4.2521876891	-3.4335010337	 0.3920959267	-0.176246
C	-4.1546895639	-2.8082212295	-0.7984067572	 0.022919
N	-2.9345590823	-2.3391185953	-0.9582524799	-0.300009
H	-0.3573378756	 1.507973581	-1.1124631336	 0.227229
H	-0.5489327801	-0.7397663717	-1.2977645237	 0.1001
H	-0.2416404162	-2.7031790239	-0.3308851352	 0.122382
H	-0.5726250972	-2.8821609834	 1.408935207	 0.143465
H	-5.0414211256	-3.8966437202	 0.8125935206	 0.288215
H	-4.975234574	-2.7268674215	-1.4952881418	 0.154049
42.5303	65.3213	109.1931	180.9403	286.1239	363.4288	400.9843	560.1599	639.1328	682.8008	701.8939	819.2324	824.3535	862.7039	950.4962	998.3608	1000.8808	1018.2692	1039.7384	1107.2798	1130.2287	1173.0376	1244.2074	1293.584	1324.7965	1371.658	1390.2824	1426.3484	1468.7356	1486.3349	1492.5573	1560.9388	1745.3168	3033.2977	3051.7952	3136.0554	3261.0749	3516.5483	3663.2642
N=COCC1=NNC=N1	[NH][CH]OCc1n[nH]cn1	
InChI=1S/C4H6N4O/c5-2-9-1-4-6-3-7-8-4/h2-3,5H,1H2,(H,6,7,8)	InChI=1S/C4H6N4O/c5-2-9-1-4-6-3-7-8-4/h2-3,5H,1H2,(H,6,7,8)
