18
gdb 99323	5.47911	0.65026	0.60706	3.6814	70.69	-0.2573	0.0177	0.275	1785.7526	0.14636	-476.223169	-476.213547	-476.212603	-476.259651	33.417	
O	 0.2988909121	 1.1199797067	 0.274299094	-0.419104
C	 0.0070071303	-0.112178354	-0.312846342	-0.144393
C	-1.4595960972	-0.4767481278	-0.0570390686	 0.389987
O	-2.173556681	 0.2924281367	 0.5710124119	-0.388984
N	-1.8824599826	-1.6599944172	-0.5631215168	-0.316861
C	-3.2330479061	-2.1686613475	-0.3881165013	-0.190614
C	-3.221297896	-3.5060716361	 0.3105600836	 0.085668
C	-4.1113509964	-4.5979206848	-0.096396604	-0.175243
O	-2.7339926084	-4.6000170401	-0.4776265197	-0.241647
H	-0.5415763699	 1.4006285404	 0.6754443403	 0.294656
H	 0.1809273349	-0.0875810058	-1.4010236722	 0.110787
H	 0.6486705902	-0.9097874277	 0.0953819911	 0.110366
H	-1.2234154617	-2.2514281763	-1.0460921704	 0.262253
H	-3.7756343596	-1.4244239906	 0.199691239	 0.15553
H	-3.7274965557	-2.2709426421	-1.3616339839	 0.115064
H	-2.8440081795	-3.4948935745	 1.3336635305	 0.107714
H	-4.3976080211	-5.357005688	 0.6292127003	 0.12487
H	-4.8205061123	-4.4399239312	-0.9078577318	 0.11995
34.8052	56.7087	73.457	87.814	200.2409	256.4796	305.0341	376.6962	438.1696	444.0145	493.9591	546.7113	615.9654	699.7421	794.5386	864.2883	891.4566	949.0231	1013.2315	1036.8332	1069.069	1100.0949	1139.1234	1146.608	1163.4548	1173.5422	1245.0949	1247.4394	1281.0458	1294.4812	1315.8905	1361.3864	1450.7712	1463.6389	1477.6774	1508.5327	1529.2443	1558.985	1767.9412	2971.6861	2990.3991	3035.0462	3088.4469	3109.2086	3122.787	3176.5218	3625.041	3652.4374
OCC(=O)NCC1CO1	OCC(=O)NC[C@H]1CO1	
InChI=1S/C5H9NO3/c7-2-5(8)6-1-4-3-9-4/h4,7H,1-3H2,(H,6,8)	InChI=1S/C5H9NO3/c7-2-5(8)6-1-4-3-9-4/h4,7H,1-3H2,(H,6,8)/t4-/m0/s1
