18
gdb 65644	3.04922	1.32404	1.27155	2.1787	72.09	-0.2336	-0.0281	0.2055	1074.5332	0.14619	-439.044725	-439.036215	-439.03527	-439.078191	31.621	
C	 0.2929882411	 1.5058947318	-0.2437956606	-0.453434
C	 0.0704928428	 0.0176882892	-0.0578564449	 0.327992
O	 0.947455098	-0.805327697	-0.8944206105	-0.349914
C	 1.3634698547	-1.5980425244	 0.2380199683	 0.106992
C	 2.6622424498	-1.105537719	 0.9087869318	-0.188033
N	 1.8787262382	-0.1043618038	 1.69446032	-0.322644
C	 0.5996914179	-0.6786351252	 1.2198909657	-0.115913
C	-1.3626618336	-0.3650415233	-0.3911790308	 0.124498
O	-2.2347955596	-0.522214027	 0.4244531541	-0.259424
H	 1.3078421701	 1.7578697405	 0.0703860373	 0.149814
H	 0.1545595992	 1.7840930276	-1.2933363883	 0.126774
H	-0.4180622316	 2.0745534546	 0.3644928662	 0.131613
H	 1.215684152	-2.6677740139	 0.079170987	 0.089242
H	 3.1365130932	-1.8827283859	 1.5206290785	 0.102149
H	 3.4072799005	-0.6671755709	 0.2377104575	 0.115993
H	 2.0080337189	-0.1779847591	 2.6955335187	 0.226759
H	-0.1380425773	-0.9784794884	 1.9629902175	 0.096268
H	-1.5364697543	-0.505951686	-1.4818965477	 0.091268
55.3587	121.6772	171.0714	200.2474	263.4063	286.4393	318.8998	406.7872	479.5834	583.2312	615.641	702.7583	788.5728	800.414	870.6157	893.0297	928.2496	968.1803	975.4064	990.7189	1013.5687	1056.4316	1065.3069	1137.3139	1150.9168	1182.3066	1193.1847	1218.4244	1248.1784	1282.4155	1326.338	1351.7596	1384.5798	1390.2737	1406.3869	1475.71	1487.4612	1495.0729	1825.0332	2884.6014	3023.5948	3039.7025	3083.9205	3092.795	3111.0867	3126.6061	3137.2269	3559.4499
CC1(OC2CNC12)C=O	C[C@]1(O[C@H]2CN[C@@H]12)C=O	
InChI=1S/C6H9NO2/c1-6(3-8)5-4(9-6)2-7-5/h3-5,7H,2H2,1H3	InChI=1S/C6H9NO2/c1-6(3-8)5-4(9-6)2-7-5/h3-5,7H,2H2,1H3/t4-,5+,6-/m0/s1
