23
gdb 61171	2.7938	0.98893	0.90786	4.4655	86.61	-0.2276	0.0289	0.2564	1424.2383	0.203103	-384.472393	-384.461436	-384.460492	-384.508137	40.649	
C	 0.0205427257	 1.5364849311	-0.0260318421	-0.348733
N	-0.0378496243	 0.0837436207	 0.1061861448	-0.077589
C	 0.7091793091	-0.3448176042	 1.282691553	-0.29879
C	 2.1565365999	-0.1568182103	 1.0997712765	 0.283086
N	 3.2948326123	-0.0053808618	 0.9733392067	-0.312673
C	-1.3858708457	-0.541220587	-0.0300112506	 0.277246
C	-2.0558649042	 0.0067579145	-1.3038294184	-0.420109
C	-1.2122371285	-2.061570858	-0.2194665356	-0.410991
C	-2.3014524149	-0.2679331061	 1.1845317226	-0.410449
H	 1.064974834	 1.8526389821	 0.0477739951	 0.145389
H	-0.3421370268	 1.8519815392	-1.0041013221	 0.130752
H	-0.5474937378	 2.080226748	 0.7505175037	 0.097292
H	 0.4229095881	 0.1859350614	 2.2098829303	 0.128003
H	 0.5444978731	-1.4077395637	 1.4685789853	 0.149529
H	-1.3838656873	-0.0815438844	-2.1626609395	 0.127014
H	-2.9604894541	-0.5695082166	-1.5160963269	 0.11583
H	-2.355019931	 1.0526354928	-1.2012360837	 0.118043
H	-0.8701455471	-2.5705394881	 0.6862779588	 0.113141
H	-2.172015064	-2.5132786495	-0.4862892505	 0.116914
H	-0.4961175795	-2.2651999064	-1.0202009284	 0.128824
H	-2.4435490301	 0.8047818241	 1.3484107959	 0.118758
H	-3.2899650538	-0.7096917201	 1.0246176089	 0.117848
H	-1.8964520432	-0.7020486878	 2.1044251363	 0.111665
59.0962	64.5653	149.1811	197.6138	214.8738	250.6719	254.6245	287.5507	320.2968	341.8076	366.6289	387.3121	415.6025	431.7298	472.6682	484.1088	561.8143	735.1219	831.2669	911.0943	925.8056	933.5236	958.3875	974.3393	1022.3029	1040.168	1042.8	1149.1103	1153.5012	1206.7173	1233.293	1244.318	1289.0906	1309.1071	1380.3217	1397.4927	1400.7033	1426.9836	1463.8748	1472.2197	1479.2449	1484.6094	1489.235	1501.6628	1506.9551	1510.1448	1513.2898	1526.6542	2362.3108	2930.0201	2940.6801	3035.8585	3041.6408	3048.1062	3085.2341	3100.8724	3104.943	3107.9229	3114.593	3117.848	3120.2859	3125.4635	3142.5578
CN(CC#N)C(C)(C)C	CN(CC#N)C(C)(C)C	
InChI=1S/C7H14N2/c1-7(2,3)9(4)6-5-8/h6H2,1-4H3	InChI=1S/C7H14N2/c1-7(2,3)9(4)6-5-8/h6H2,1-4H3
