20
gdb 110802	2.25981	1.43011	1.06192	1.6904	84.74	-0.2287	0.0306	0.2593	1218.7387	0.170041	-365.929649	-365.920624	-365.91968	-365.963463	34.394	
C	-1.3965547574	 0.7807437071	 0.793896696	-0.382896
C	-0.1150756425	 0.2462941667	 0.1399797418	-0.214056
C	 0.7627747598	-0.4453940677	 1.1620769189	 0.034736
C	 0.7224039744	-1.8754001159	 1.5270188911	-0.043876
C	 0.479027695	-2.7815335772	 0.3226029647	-0.283621
C	 1.7674078237	-2.1557224653	-0.2928177992	-0.137026
C	 1.7510685887	-1.5554781321	-1.6136988703	 0.359479
C	 1.76644138	-1.0943704415	-2.7246282011	-0.466362
N	 1.980484225	-1.2525952447	 0.9124558056	-0.178879
H	-1.1675978492	 1.4810961904	 1.6046859803	 0.116652
H	-2.017996623	 1.3080559084	 0.0641504226	 0.115012
H	-1.9937999139	-0.0330217835	 1.2188131157	 0.118437
H	-0.3733824573	-0.4204521864	-0.6851027016	 0.113066
H	 0.4482342728	 1.0739765472	-0.3069427363	 0.111073
H	 0.973193332	 0.1992210339	 2.0161333929	 0.094215
H	 0.7155843975	-2.2172002325	 2.5572713672	 0.094596
H	 0.5967856147	-3.8445220078	 0.5362157642	 0.116013
H	-0.4575758543	-2.6320787151	-0.2200116698	 0.114784
H	 2.583480968	-2.8838155248	-0.2595683032	 0.119121
H	 1.7757296259	-0.6751358194	-3.7003775396	 0.199533
67.6079	118.202	138.0095	211.2995	215.1879	281.9007	300.9351	432.6798	484.2445	498.06	585.1252	618.6359	653.1618	718.5675	741.4031	784.0593	801.6647	841.6231	894.4726	952.3185	994.7976	997.5271	1018.4677	1062.4915	1083.4596	1093.229	1107.3225	1150.0034	1172.0026	1247.0039	1259.2288	1273.8454	1292.9483	1335.5736	1359.2664	1367.5403	1410.2121	1454.8941	1478.0283	1498.7599	1500.9677	1509.0426	2228.1	3032.4076	3044.0091	3055.3444	3069.3093	3089.0197	3100.3409	3107.8083	3117.7705	3128.0945	3159.4784	3501.8326
CCC1C2CC(C#C)N12	CC[C@H]1[C@H]2C[C@@H](C#C)N12	
InChI=1S/C8H11N/c1-3-6-5-8-7(4-2)9(6)8/h1,6-8H,4-5H2,2H3	InChI=1S/C8H11N/c1-3-6-5-8-7(4-2)9(6)8/h1,6-8H,4-5H2,2H3/t6-,7+,8-,9?/m1/s1
