16
gdb 72984	2.68693	1.51852	1.21592	3.6318	70.48	-0.2413	0.0196	0.2609	1036.8233	0.124364	-434.011851	-434.0033	-434.002356	-434.044527	32.427	
N	 0.0131300068	 1.4983389888	 0.1819358857	-0.581004
C	-0.0234962674	 0.1013663521	-0.0249821189	 0.183781
C	 0.5737487801	-0.7470652347	-1.1618860239	-0.13373
O	-0.5939425207	-1.6171516818	-1.1609345236	-0.279886
C	-1.1927405769	-0.8442174627	-0.1436865347	 0.048123
C	-0.3420490589	-0.8677527966	 1.1297537618	 0.070239
N	 0.5184826589	-1.9865261764	 1.3955569255	-0.55519
C	-0.9872210174	-0.2458393644	 2.2675533821	 0.255239
N	-1.474671258	 0.1786917751	 3.2278863117	-0.347643
H	 0.8995710805	 1.8107036019	 0.5637871919	 0.241997
H	-0.1732346618	 2.0146405143	-0.6706134381	 0.241653
H	 0.6360771829	-0.1958281237	-2.1069810932	 0.108213
H	 1.4960770545	-1.2960975389	-0.9597322651	 0.124718
H	-2.2692409329	-0.721221362	-0.1311851687	 0.130758
H	 1.1785553285	-1.7655469154	 2.1339558511	 0.243732
H	-0.0187848581	-2.7946665453	 1.6922905363	 0.249
123.8942	150.8321	203.1328	236.2652	276.4453	297.6454	321.2123	346.9008	448.1955	483.6605	548.9402	573.0867	687.1395	707.6914	733.1842	779.351	818.3959	910.2417	982.459	986.9463	1027.5825	1058.6764	1063.4664	1149.7653	1172.68	1244.4305	1251.0009	1269.352	1289.2347	1315.4227	1457.28	1487.9798	1653.9051	1661.5013	2337.634	3039.257	3116.305	3193.3047	3504.9262	3506.331	3585.1358	3588.7145
NC12COC1C2(N)C#N	N[C@]12CO[C@H]1[C@]2(N)C#N	
InChI=1S/C5H7N3O/c6-1-4(7)3-5(4,8)2-9-3/h3H,2,7-8H2	InChI=1S/C5H7N3O/c6-1-4(7)3-5(4,8)2-9-3/h3H,2,7-8H2/t3-,4+,5+/m0/s1
