23
gdb 108203	2.96887	1.38529	1.256	1.059	83.96	-0.2398	0.0758	0.3156	1140.3589	0.208677	-388.307874	-388.29964	-388.298696	-388.340347	33.275	
C	 0.0186363115	 1.3733694651	 0.0066121817	-0.257264
O	-0.0587080277	-0.0352513785	-0.0055691238	-0.312659
C	-1.3577544696	-0.5749986127	 0.0110635465	 0.460473
C	-2.193858026	-0.2854330481	 1.2870414076	-0.259948
C	-3.2330867045	-1.4506999321	 1.2924504522	-0.214452
C	-2.8723506703	-2.2540537968	 0.0200190816	-0.006443
C	-3.276082611	-1.4252713599	-1.2228572402	-0.214459
C	-2.2367890964	-0.2600595044	-1.2295306308	-0.259976
C	-1.3397543495	-2.1158211794	-0.0047860768	-0.2708
H	 1.0805141805	 1.6317125263	-0.007906559	 0.123808
H	-0.462272006	 1.8254584672	-0.8727236971	 0.105821
H	-0.4337432891	 1.8085176139	 0.9093229175	 0.105814
H	-1.5414599757	-0.320572706	 2.1649045105	 0.099768
H	-2.6687432063	 0.6994604155	 1.2653282496	 0.09115
H	-3.1194959178	-2.0705789919	 2.186873812	 0.096425
H	-4.2678414901	-1.0955046792	 1.275708108	 0.091777
H	-3.2680709589	-3.2713196474	 0.0164898193	 0.055901
H	-3.193441525	-2.0269354846	-2.1329755495	 0.096427
H	-4.3095060221	-1.0707618341	-1.1635364067	 0.091781
H	-2.7102170097	 0.7240842631	-1.1718236323	 0.091154
H	-1.6148030964	-0.2773991334	-2.1297223472	 0.099768
H	-0.8717122511	-2.5175574563	-0.9082266084	 0.092965
H	-0.8412488688	-2.5355388865	 0.8738440352	 0.09297
95.8491	157.1832	210.5759	213.7423	325.0497	363.4723	388.9823	448.5414	471.221	530.4996	595.8167	754.1706	782.4054	808.8446	822.2981	869.108	925.9686	942.5047	950.5307	959.1642	978.1691	995.3352	1023.0804	1039.9479	1053.7552	1127.5945	1133.1239	1168.3739	1182.0199	1198.4785	1223.9525	1227.054	1238.2963	1258.7351	1261.7035	1281.8692	1296.4364	1315.0685	1339.2982	1345.0768	1356.2313	1483.1227	1485.5673	1491.9523	1492.3996	1499.2936	1503.159	1509.6573	1528.8042	2987.8265	3035.0598	3043.9042	3044.154	3050.9633	3053.3764	3058.0118	3077.8345	3080.7122	3095.2128	3097.5053	3104.0953	3106.0481	3110.3579
COC12CCC(CC1)C2	CO[C@@]12CC[C@@H](CC1)C2	
InChI=1S/C8H14O/c1-9-8-4-2-7(6-8)3-5-8/h7H,2-6H2,1H3	InChI=1S/C8H14O/c1-9-8-4-2-7(6-8)3-5-8/h7H,2-6H2,1H3/t7-,8-
