19
gdb 120688	2.61326	0.77935	0.63308	2.9775	82.5	-0.247	0.0263	0.2733	1796.5604	0.155584	-422.964743	-422.954097	-422.953152	-423.003349	35.603	
C	-0.3143665785	 1.3207174076	 0.0651937363	-0.223431
O	-0.2366828693	-0.0788379247	-0.0601843651	-0.23459
C	 0.7942199393	-0.4916599901	-0.9293972346	-0.090201
C	 0.7854169056	-1.9946812195	-0.982986713	 0.061925
O	-0.0269200727	-2.6171114371	-1.9734247707	-0.240374
C	 1.4017607468	-2.7412801134	-2.1002310058	-0.171499
C	 2.0424378259	-2.0946076293	-3.2145924229	 0.083226
C	 2.6069395265	-1.5888283828	-4.1510215912	 0.10798
C	 3.2790483552	-0.9752046789	-5.286222915	-0.501237
H	 0.6214627447	 1.7480519231	 0.4604815986	 0.10189
H	-0.5313361767	 1.8065169783	-0.8991907866	 0.106729
H	-1.1260276642	 1.5415232442	 0.762401086	 0.129167
H	 0.6544603648	-0.0864339627	-1.94221739	 0.106682
H	 1.7753825479	-0.1421226459	-0.5605154267	 0.089941
H	 0.756127605	-2.4788689134	-0.0057466843	 0.101434
H	 1.7721950627	-3.7422789938	-1.8780767964	 0.111639
H	 4.352887271	-1.191425044	-5.2715352879	 0.153209
H	 2.8775880925	-1.3503522407	-6.2339313884	 0.155509
H	 3.1585348135	 0.1134773632	-5.2799085924	 0.152002
13.19	58.7515	71.9352	87.5917	133.9128	169.0552	230.7521	262.5355	321.7854	358.3472	396.8748	470.7989	526.0166	585.0294	747.236	819.3724	903.456	961.3102	994.613	1051.0065	1053.2231	1064.7281	1104.1015	1142.3457	1168.838	1186.4225	1191.493	1228.9719	1260.6918	1290.3568	1357.4164	1407.3854	1414.2446	1468.1222	1475.5545	1477.2233	1481.1665	1485.5953	1496.8401	1518.9632	2369.1327	2946.0848	2968.7852	3012.0139	3018.8998	3029.2594	3091.5556	3092.0617	3100.4644	3111.7012	3116.2841
COCC1OC1C#CC	COC[C@H]1O[C@H]1C#CC	
InChI=1S/C7H10O2/c1-3-4-6-7(9-6)5-8-2/h6-7H,5H2,1-2H3	InChI=1S/C7H10O2/c1-3-4-6-7(9-6)5-8-2/h6-7H,5H2,1-2H3/t6-,7+/m0/s1
