18
gdb 53799	2.86023	1.31008	0.9716	0.9908	74.12	-0.2364	-0.0619	0.1745	1215.8496	0.146398	-439.127832	-439.118487	-439.117543	-439.162905	34.663	
C	-0.1575392633	 1.6991905611	-0.0694259742	-0.453902
C	-0.0747772922	 0.1838591091	-0.0256217808	 0.224914
C	 1.1850055614	-0.4682170017	-0.6125638985	-0.268756
C	 1.0141722867	-0.434856424	 0.8622136691	-0.268752
C	-1.2798104214	-0.6851075603	-0.1455235917	 0.237646
O	-1.2057635614	-1.9013053811	-0.1094202362	-0.34539
C	-2.6934825737	-0.0602932161	-0.3234248658	 0.312016
N	-3.6385614021	-1.0223730074	-0.4108852809	-0.508277
O	-2.9068461568	 1.1360682519	-0.3754379058	-0.356118
H	 0.8502478621	 2.1144032723	 0.0378401652	 0.097191
H	-0.5788416884	 2.0572422282	-1.0105083559	 0.134652
H	-0.7806426348	 2.0966085712	 0.7337990758	 0.134624
H	 1.0444816625	-1.4197061855	-1.110905956	 0.135843
H	 1.8920663536	 0.2094665513	-1.0776430149	 0.121021
H	 1.5997293883	 0.2666013133	 1.4457905891	 0.121022
H	 0.7585483166	-1.3638783129	 1.3571762999	 0.135845
H	-3.3545752643	-1.9869419517	-0.3560371382	 0.279377
H	-4.6025331329	-0.7625225176	-0.5283847302	 0.267045
28.0815	48.4217	218.4343	239.6292	277.1919	298.6126	329.6989	334.048	359.8439	408.0304	501.9539	515.0723	607.5258	646.451	672.7103	788.3355	798.1675	830.8988	852.0244	962.0996	964.4847	1041.4581	1076.8962	1087.1799	1089.3737	1101.6605	1119.872	1206.6363	1300.4312	1313.719	1372.6561	1432.8713	1452.8844	1482.7272	1487.9831	1491.8153	1575.4503	1746.218	1799.7274	3043.6549	3116.5719	3136.806	3141.8615	3143.3392	3231.5412	3245.1831	3598.2431	3742.8846
CC1(CC1)C(=O)C(N)=O	CC1(CC1)C(=O)C(=O)N	
InChI=1S/C6H9NO2/c1-6(2-3-6)4(8)5(7)9/h2-3H2,1H3,(H2,7,9)	InChI=1S/C6H9NO2/c1-6(2-3-6)4(8)5(7)9/h2-3H2,1H3,(H2,7,9)
