15
gdb 50683	2.15587	1.8003	1.18687	2.2996	66.33	-0.2543	-0.0337	0.2206	1027.2981	0.110695	-457.717504	-457.709142	-457.708198	-457.751518	29.701	
O	 0.5268707714	-0.1715927208	-0.0304972036	-0.234607
C	 0.1935061712	 0.9816374913	-0.0478521258	 0.143136
C	 1.1706370893	 2.1521989408	 0.0797011997	-0.029785
O	 2.4684919454	 1.7380907423	 0.4245424639	-0.222837
C	 3.158642074	 1.6055144128	-0.7967229866	 0.010794
O	 2.7429586095	 2.6965076259	-1.5940622554	-0.238226
C	 1.3737473637	 2.9396895482	-1.2774059016	-0.107519
C	 0.4730154159	 2.5242040583	-2.3521539921	 0.345966
C	-0.2664320727	 2.1943302843	-3.2400434581	-0.461379
H	-0.8712783103	 1.2891135804	-0.1394947525	 0.089918
H	 0.7957906669	 2.823330067	 0.8612176956	 0.118052
H	 4.2318563695	 1.6904691554	-0.6129518607	 0.129838
H	 2.9129702915	 0.6481001555	-1.2792517355	 0.117222
H	 1.2657069254	 4.0161733511	-1.109239078	 0.126785
H	-0.9168883407	 1.8967854575	-4.0259043193	 0.21264
38.164	88.4178	159.6175	187.9089	238.1783	312.4894	330.7455	482.1748	540.0632	647.2743	681.7425	692.776	730.311	760.6158	819.7952	888.5347	965.3832	976.222	1031.6736	1050.7073	1086.2148	1142.9489	1190.0107	1228.1293	1245.6164	1297.033	1345.884	1366.6403	1407.8332	1426.8251	1540.2364	1843.3843	2235.377	2893.2083	3001.5316	3044.62	3058.5972	3114.2724	3498.321
O=CC1OCOC1C#C	O=C[C@H]1OCO[C@H]1C#C	
InChI=1S/C6H6O3/c1-2-5-6(3-7)9-4-8-5/h1,3,5-6H,4H2	InChI=1S/C6H6O3/c1-2-5-6(3-7)9-4-8-5/h1,3,5-6H,4H2/t5-,6+/m0/s1
