17
gdb 64792	4.75684	0.64349	0.62927	2.7428	80.42	-0.2664	-0.0643	0.2021	1764.7757	0.132816	-421.786087	-421.776394	-421.775449	-421.822435	33.976	
O	-0.2909215508	 1.3891905335	-0.1442533895	-0.463023
C	-0.0343043564	 0.0193463879	-0.0307177647	 0.426432
C	 1.0754709746	-0.4755843779	-0.9548414797	-0.415044
C	 2.3493641374	 0.1796583596	-0.6847375945	 0.067552
C	 3.3915035963	 0.7443572088	-0.4468593336	 0.0483
C	 4.6293425693	 1.4226302562	-0.1598468414	 0.018987
O	 5.7222264051	 1.0210879732	-0.4873697906	-0.22612
C	-0.238143942	-0.6347507106	 1.3120231816	-0.312765
C	-1.2437258421	-0.8299037299	 0.1896068513	-0.309345
H	 0.4947316029	 1.8584550858	 0.162072476	 0.286103
H	 1.192229272	-1.5617124787	-0.8633558495	 0.141495
H	 0.7906281473	-0.2727844738	-1.9957972944	 0.153305
H	 4.5080562264	 2.3714314714	 0.4019558121	 0.097172
H	 0.3938754766	-1.4705529007	 1.5929260586	 0.11688
H	-0.5295603517	 0.0145145249	 2.1293561478	 0.1218
H	-2.1883964383	-0.3051253828	 0.2686609646	 0.1318
H	-1.2979520566	-1.7981550268	-0.2961644041	 0.11647
27.484	58.7692	72.7271	156.3245	186.904	287.9246	326.2966	353.1231	378.029	405.0165	443.166	505.0142	614.4233	741.552	774.0895	825.9963	878.4118	923.3071	934.5727	974.422	1005.023	1021.2459	1052.435	1083.9136	1149.9984	1186.6218	1191.5867	1282.2273	1299.057	1313.9585	1404.7572	1424.4504	1444.0354	1456.8343	1505.4075	1768.1113	2323.7019	2915.1401	3024.2485	3067.2717	3135.6056	3140.3583	3222.1802	3235.6231	3777.9577
OC1(CC#CC=O)CC1	OC1(CC#CC=O)CC1	
InChI=1S/C7H8O2/c8-6-2-1-3-7(9)4-5-7/h6,9H,3-5H2	InChI=1S/C7H8O2/c8-6-2-1-3-7(9)4-5-7/h6,9H,3-5H2
