19
gdb 39140	3.40869	1.39801	1.26446	0.8848	74.11	-0.2407	0.0723	0.313	1059.1674	0.160476	-423.004215	-422.996646	-422.995701	-423.036613	29.505	
C	-0.0017609343	 1.3749480244	-0.2579662162	-0.06998
C	 1.4883107399	 1.5008417331	 0.1099189086	-0.356661
C	 1.3148508507	 0.1018854923	 0.7403886121	 0.440365
C	 2.1651367525	-1.0717581726	 0.2219380708	-0.285445
C	 2.0501927779	-2.1834167283	 1.2925345633	-0.250062
C	 1.7992117528	-1.4128725102	 2.5744600344	 0.053568
O	 2.6878191797	-0.2976684986	 2.7505516852	-0.268353
C	 1.3676362399	-0.0489170656	 2.248238115	-0.011288
O	-0.074919393	 0.0465608316	 0.3033179877	-0.32786
H	-0.6765967854	 2.071452033	 0.2546781669	 0.103126
H	-0.2378659585	 1.3794176994	-1.3284973493	 0.104204
H	 2.1736752722	 1.5288557189	-0.7392262752	 0.112418
H	 1.7483769902	 2.3001486519	 0.8059287618	 0.116443
H	 1.8193739666	-1.3876617906	-0.764476633	 0.108139
H	 3.2034692406	-0.7414122159	 0.132538349	 0.118201
H	 1.1920009027	-2.8365842197	 1.098014685	 0.115714
H	 2.9433010635	-2.8130911652	 1.3458676607	 0.108381
H	 1.5014886742	-1.9172179775	 3.4899217922	 0.095123
H	 0.7140003277	 0.5487417495	 2.8785230809	 0.093964
72.4183	107.9908	206.1114	295.4787	362.5404	379.8616	438.8871	510.9486	683.1696	738.9764	786.017	827.542	839.3612	864.1622	873.0966	919.5404	941.0227	966.2228	981.2266	996.2224	1020.851	1034.2539	1083.5489	1114.4707	1158.9062	1163.8447	1194.7489	1202.5493	1217.6835	1250.9791	1264.5987	1271.9341	1309.1403	1325.8105	1350.5966	1369.9677	1430.839	1465.5876	1485.7242	1488.6647	1530.9994	3017.7527	3046.6731	3057.252	3067.5845	3077.2349	3091.2497	3122.3074	3131.3172	3145.0106	3157.9661
C1CC2(CCC3OC23)O1	C1C[C@]2(CC[C@H]3O[C@@H]23)O1	
InChI=1S/C7H10O2/c1-2-7(3-4-8-7)6-5(1)9-6/h5-6H,1-4H2	InChI=1S/C7H10O2/c1-2-7(3-4-8-7)6-5(1)9-6/h5-6H,1-4H2/t5-,6-,7+/m1/s1
