14
gdb 13035	3.96632	1.39698	1.16849	3.7373	63.88	-0.2684	0.0045	0.2729	998.7874	0.107631	-378.75171	-378.744081	-378.743137	-378.784824	26.2	
O	-0.0005829395	-0.031928455	-0.3174806683	-0.355593
C	-0.0360342916	 1.1508780123	-0.1171190803	 0.416407
C	-1.1073146496	 2.2401225606	 0.1151890069	-0.369142
C	 0.0853957576	 3.2294825881	 0.26579093	-0.17511
N	 0.9711641201	 2.0899024139	-0.0061061706	-0.075641
C	 2.4001912897	 1.9268925478	-0.0026581438	-0.300255
C	 3.006843767	 2.2721188308	 1.2933504553	 0.26218
N	 3.4644817324	 2.5726662031	 2.3103657536	-0.297573
H	-1.7617389686	 2.4160257151	-0.739699542	 0.141936
H	-1.7065181476	 2.0872326448	 1.0139011294	 0.145955
H	 0.1415623189	 4.0228046825	-0.4861425723	 0.120598
H	 0.2137068127	 3.6572002386	 1.2646799888	 0.135118
H	 2.5992850407	 0.8739700515	-0.2309746977	 0.190001
H	 2.8798701479	 2.5334291158	-0.781968149	 0.161119
50.3635	69.5221	184.791	212.8309	247.4053	376.0445	439.0501	549.132	581.7369	741.9162	781.4256	822.3816	913.2448	943.8092	951.3881	1047.7411	1056.3282	1141.3924	1157.9692	1187.3613	1214.4008	1275.5673	1318.068	1372.0468	1407.3181	1456.6602	1462.6782	1529.3197	1886.8673	2363.3513	3024.7965	3046.8545	3086.8335	3094.6296	3095.5031	3153.7051
O=C1CCN1CC#N	O=C1CCN1CC#N	
InChI=1S/C5H6N2O/c6-2-4-7-3-1-5(7)8/h1,3-4H2	InChI=1S/C5H6N2O/c6-2-4-7-3-1-5(7)8/h1,3-4H2
