20
gdb 18166	3.44007	1.62798	1.39299	1.0792	75.35	-0.2428	0.0816	0.3244	997.2018	0.176752	-348.966039	-348.957693	-348.956749	-348.998675	31.264	
C	 0.1723251326	 1.401487668	 0.0486290498	-0.237428
O	-0.278934889	 0.0931074431	-0.21821223	-0.23995
C	 0.5127810683	-0.5805376192	-1.1671315461	 0.151724
C	 1.9053514326	-1.1709282211	-0.7430447224	-0.282698
C	 1.4223467741	-2.5428828019	-1.22762168	-0.07098
C	 0.2057414942	-2.999889352	-0.4744112184	 0.012364
C	-0.0566635719	-2.8015571738	 1.0048096273	-0.413994
C	 0.0279761497	-1.9681319684	-1.56012338	-0.119536
H	 1.1861269946	 1.4108832689	 0.4768308305	 0.106727
H	 0.1798388517	 2.0212430439	-0.8623628562	 0.10242
H	-0.517537828	 1.8449489252	 0.7707445053	 0.125795
H	 0.6352029199	 0.0531951614	-2.05882754	 0.068013
H	 2.7316816493	-0.7623002393	-1.3285520683	 0.099422
H	 2.1574343043	-1.0975476392	 0.3191660342	 0.099869
H	 2.0168757601	-3.2243762528	-1.8238764233	 0.082636
H	-0.125127437	-3.9750506137	-0.8306063794	 0.082717
H	 0.2033969194	-1.7976005883	 1.3401260251	 0.132751
H	-1.1200967402	-2.946747915	 1.223415671	 0.115169
H	 0.5087552603	-3.5287949396	 1.5990541877	 0.105224
H	-0.6023828349	-2.1616245461	-2.4202936269	 0.079757
100.0028	127.4583	170.4575	180.4837	232.8628	280.1966	359.8001	435.2723	460.493	592.692	710.9808	722.3957	796.8291	837.8139	883.205	965.3387	979.8721	982.7404	1021.8894	1044.1067	1059.7899	1070.124	1092.2298	1136.6315	1141.9985	1177.4378	1185.9005	1215.5425	1230.6071	1243.6274	1274.3565	1317.9601	1350.689	1392.2739	1416.8754	1446.8427	1477.5788	1484.6858	1489.351	1493.8678	1506.4484	1509.7002	2969.7144	2981.1179	3018.5278	3032.8839	3053.886	3087.9154	3108.5531	3111.2991	3113.3177	3151.3528	3171.9389	3185.2175
COC1CC2C(C)C12	CO[C@H]1C[C@H]2[C@@H](C)[C@@H]12	
InChI=1S/C7H12O/c1-4-5-3-6(8-2)7(4)5/h4-7H,3H2,1-2H3	InChI=1S/C7H12O/c1-4-5-3-6(8-2)7(4)5/h4-7H,3H2,1-2H3/t4-,5+,6+,7-/m1/s1
