14
gdb 16938	3.86647	2.20557	2.02939	3.9155	55.77	-0.2701	0.005	0.2751	705.5634	0.110194	-419.720723	-419.715121	-419.714176	-419.750398	22.223	
O	-0.0356876678	 0.0110545148	-0.0011426053	-0.341322
C	 0.0056883017	 1.20324995	-0.0144430429	 0.457898
O	-1.1141852817	 2.0034778047	-0.0180107383	-0.237609
C	-0.6193979796	 3.3636824593	 0.0232019432	 0.21142
C	 0.6156619747	 3.2955689215	-0.8776719394	-0.263356
C	 1.1939862342	 2.1663187384	 0.0033512029	-0.210215
C	 1.1197731316	 2.8636849228	 1.3861818457	-0.088813
O	-0.1077607232	 3.6221953909	 1.3070188758	-0.256166
H	-1.4406882335	 4.0406620243	-0.1955881831	 0.113426
H	 0.3916726117	 2.9911378315	-1.9008872769	 0.130097
H	 1.2002691794	 4.2173741047	-0.8665994891	 0.122234
H	 2.1464243213	 1.7094133317	-0.2501457359	 0.109955
H	 1.0644949542	 2.1636623578	 2.2245415988	 0.134844
H	 1.9640606571	 3.5454171675	 1.5387098046	 0.117608
161.868	270.8594	440.8327	484.1676	503.6227	591.1887	740.3517	758.6759	828.7662	858.8583	887.0252	897.8533	931.6861	960.1852	977.3598	1024.1753	1033.4456	1086.0117	1111.357	1175.8473	1177.4346	1222.4613	1274.3406	1287.0743	1312.1764	1357.2353	1383.2552	1494.2567	1524.6274	1906.0549	3038.7074	3083.2197	3094.8426	3146.2418	3168.5219	3174.9043
O=C1OC2CC1CO2	O=C1O[C@@H]2C[C@H]1CO2	
InChI=1S/C5H6O3/c6-5-3-1-4(8-5)7-2-3/h3-4H,1-2H2	InChI=1S/C5H6O3/c6-5-3-1-4(8-5)7-2-3/h3-4H,1-2H2/t3-,4+/m0/s1
