16
gdb 24250	3.88544	1.65088	1.26582	2.1167	74.35	-0.1984	0.0237	0.222	960.5867	0.127677	-400.741331	-400.735041	-400.734097	-400.771824	25.831	
C	 0.0114132296	 1.454966448	 0.014090595	-0.245495
C	 1.2583249703	 0.6519990437	 0.0328513202	-0.013015
C	 1.9826548258	 0.3687807109	 1.3742514725	-0.385879
C	 0.9069569478	-0.3800355993	 2.11684978	 0.219528
C	-0.1489944725	-0.5469163773	 1.2880614084	 0.356283
O	-1.167506933	-1.2113466519	 1.8575377381	-0.194615
C	-0.7314617694	-1.488831431	 3.1362125272	-0.021852
C	 0.5253113949	-1.0015604367	 3.3497081844	-0.355288
N	-0.0820879177	-0.032922979	-0.0198297535	-0.19758
H	-0.3028993371	 1.9442201815	 0.9319592921	 0.126397
H	-0.2960626351	 1.9441549788	-0.9051626026	 0.124069
H	 1.8384519684	 0.5799031944	-0.880832224	 0.104151
H	 2.8811480503	-0.2348614641	 1.1979207438	 0.118326
H	 2.3116027082	 1.2926567082	 1.8643539171	 0.118613
H	-1.4254265536	-2.0424620406	 3.7455071612	 0.134046
H	 1.0864283534	-1.0949320555	 4.2667976	 0.11231
155.8723	234.2201	337.8369	424.9431	442.4644	602.0509	613.5288	683.578	693.1645	736.5458	754.645	774.6296	819.4484	827.6422	914.9085	921.1956	960.0663	1040.3153	1056.4773	1089.3941	1091.4191	1115.1131	1145.3016	1171.8789	1180.8715	1226.4979	1272.6566	1290.6894	1358.9895	1380.7902	1463.2508	1489.7295	1499.2514	1515.9581	1647.6136	3026.2034	3054.7924	3113.0361	3169.2413	3207.0776	3249.929	3290.5552
C1C2CC3=C(OC=C3)N12	C1[C@H]2Cc3c(occ3)N12	
InChI=1S/C7H7NO/c1-2-9-7-5(1)3-6-4-8(6)7/h1-2,6H,3-4H2	InChI=1S/C7H7NO/c1-2-9-7-5(1)3-6-4-8(6)7/h1-2,6H,3-4H2/t6-,8?/m1/s1
