18
gdb 80265	2.77616	1.46959	1.32005	4.2328	78.12	-0.2329	-0.0317	0.2011	1044.5528	0.149717	-401.986193	-401.978279	-401.977334	-402.018585	30.721	
C	-0.2378326994	 1.5393594923	-0.0830722532	-0.416302
C	-0.033700545	 0.0473363115	 0.0094269633	-0.037997
C	 1.3097117847	-0.6083854355	-0.2038028544	-0.009836
N	 2.506776694	 0.1617666208	-0.3454237317	-0.327508
C	 3.1061875522	 0.9359037302	 0.6210267425	 0.384391
O	 4.0956602157	 1.6088528652	 0.3813513537	-0.385244
C	 2.4837199402	 0.870812535	 1.9648628801	-0.170386
C	 1.3948876587	 0.1374691483	 2.2235270724	-0.061648
C	 0.6907842357	-0.6326596072	 1.181260081	-0.126048
H	 0.6025000913	 2.0991925363	 0.3312146208	 0.139882
H	-0.3574043382	 1.8441509295	-1.1283111024	 0.122018
H	-1.1392754591	 1.842118049	 0.4596496456	 0.121186
H	-0.8698253092	-0.5417663536	-0.3584623772	 0.093943
H	 1.3349682116	-1.536970845	-0.7664429106	 0.103657
H	 2.9372719168	 0.2260504413	-1.2558131076	 0.247488
H	 3.0000262276	 1.4383587394	 2.7297075486	 0.115529
H	 1.0081676618	 0.0749752511	 3.2379360982	 0.1073
H	 0.2521797505	-1.5666857284	 1.517737261	 0.099574
90.075	146.3496	176.4743	233.6511	316.2665	423.1685	462.5645	497.3598	536.837	552.706	623.5409	712.4297	746.8266	761.676	799.7045	852.4824	894.197	931.1957	968.6269	998.511	1012.5481	1065.4756	1095.079	1117.2459	1137.3713	1151.1493	1187.6251	1248.1954	1317.8534	1370.8353	1397.4693	1415.8867	1422.8754	1429.0053	1477.2999	1494.8525	1502.6493	1680.996	1775.785	3040.2614	3096.2885	3129.52	3139.8987	3143.4985	3151.8287	3161.6771	3213.1095	3617.2466
CC1C2NC(=O)C=CC12	C[C@H]1[C@H]2NC(=O)C=C[C@@H]12	
InChI=1S/C7H9NO/c1-4-5-2-3-6(9)8-7(4)5/h2-5,7H,1H3,(H,8,9)	InChI=1S/C7H9NO/c1-4-5-2-3-6(9)8-7(4)5/h2-5,7H,1H3,(H,8,9)/t4-,5+,7-/m1/s1
