23
gdb 93835	2.35243	1.3017	0.99667	2.5534	80.85	-0.2497	0.0532	0.3029	1292.8242	0.20686	-425.452672	-425.443393	-425.442449	-425.485977	36.952	
C	-0.012879982	 1.5666831934	 0.0132601676	-0.402608
C	 0.030651406	 0.035934465	-0.0079312737	 0.038856
C	 0.7178867164	-0.4999802066	-1.2752236121	-0.203064
C	 0.7672219719	-2.0360980955	-1.2974490784	-0.245561
C	 1.4094386681	-2.6200099871	-0.0355415542	 0.106781
O	 2.8265857967	-2.4016992343	 0.018843647	-0.453048
C	 0.7595904695	-2.0698846575	 1.2470303842	 0.114693
O	 1.4326596469	-2.5738605097	 2.385989168	-0.445351
C	 0.7232291852	-0.5333169354	 1.2419227326	-0.217784
H	 0.9996113646	 1.9880724376	 0.0204103994	 0.110778
H	-0.5311958144	 1.9630988377	-0.8664101207	 0.110481
H	-0.5308536009	 1.936882186	 0.9040068093	 0.114482
H	-1.0062780968	-0.3338762129	-0.0143215711	 0.072446
H	 0.2038733041	-0.1342662248	-2.1712490301	 0.097969
H	 1.7362415385	-0.0839042806	-1.3320170721	 0.081727
H	-0.2560091291	-2.4265721442	-1.3720415711	 0.102514
H	 1.3093869474	-2.3985408459	-2.1774429552	 0.104696
H	 1.3089841512	-3.7102200854	-0.0328201832	 0.088521
H	 2.9975974931	-1.475575366	-0.1822359612	 0.28463
H	-0.2703266765	-2.4477496548	 1.300130039	 0.078619
H	 2.3688718913	-2.578163407	 2.1434653258	 0.28082
H	 1.7551111968	-0.1532982459	 1.2933998057	 0.076579
H	 0.2291356717	-0.188719626	 2.1563282444	 0.102825
109.553	164.3643	223.7845	238.6522	264.8243	274.7947	295.4181	359.6732	404.3433	421.0161	456.1811	464.6516	499.5285	595.7751	672.9543	775.2579	820.9734	860.3472	900.7909	934.2007	961.5672	978.0489	997.5051	1051.8554	1071.3844	1081.3487	1118.9916	1124.6964	1145.0933	1183.0621	1230.9785	1242.4448	1262.5001	1285.6506	1310.9461	1335.3931	1344.2794	1370.5253	1373.7502	1388.3133	1393.4783	1412.2836	1428.5268	1442.3662	1477.9086	1487.3411	1497.4465	1500.9436	1503.0865	2979.3588	2989.5095	3001.6562	3020.9991	3024.37	3027.2471	3058.9597	3063.7896	3072.3881	3074.375	3089.6668	3098.8837	3749.0936	3811.7702
CC1CCC(O)C(O)C1	C[C@H]1CC[C@@H](O)[C@@H](O)C1	
InChI=1S/C7H14O2/c1-5-2-3-6(8)7(9)4-5/h5-9H,2-4H2,1H3	InChI=1S/C7H14O2/c1-5-2-3-6(8)7(9)4-5/h5-9H,2-4H2,1H3/t5-,6+,7-/m0/s1
