17
gdb 52383	4.74178	0.56233	0.51354	1.9942	71.13	-0.253	-0.1026	0.1504	1997.856	0.131342	-458.991203	-458.981027	-458.980083	-459.028873	33.432	
O	 0.0987344899	-0.0229853129	 0.2863162524	-0.233246
C	 0.046519905	 1.1463460969	 0.0081124517	 0.161514
C	 1.2347767304	 2.0819094516	-0.0365896672	-0.282328
C	 1.3345473582	 2.8160436323	-1.3833952975	-0.198187
C	 2.475711447	 3.831269229	-1.4093982187	-0.305657
C	 2.591721524	 4.5669530771	-2.7234001287	 0.281319
O	 1.863554608	 4.4053407831	-3.6751867296	-0.27184
C	 3.7234316637	 5.5985052004	-2.8480131827	 0.094282
O	 4.5001521791	 5.8412197296	-1.9628602129	-0.216814
H	-0.9254789582	 1.6319286682	-0.2467573775	 0.073432
H	 1.1001962654	 2.8190701452	 0.7693023094	 0.120969
H	 2.1391859543	 1.5065369725	 0.1826576396	 0.125096
H	 1.4766793835	 2.0915083016	-2.1924938394	 0.129752
H	 0.3905022481	 3.32790815	-1.602891325	 0.121389
H	 2.3698783106	 4.5838993219	-0.615540137	 0.142422
H	 3.4463241026	 3.3595462375	-1.2042150789	 0.146184
H	 3.7451813684	 6.0946674361	-3.841141218	 0.111715
33.6921	49.1373	81.2282	104.6664	116.168	135.0181	203.9804	276.077	370.4674	460.1408	495.4772	526.7619	644.6689	724.3751	781.6983	828.3211	883.0442	979.5247	1000.8956	1052.7418	1096.5208	1112.4018	1157.7936	1176.3955	1264.5059	1274.683	1323.6968	1352.1823	1363.8868	1401.0721	1429.9909	1437.3422	1463.0424	1495.8021	1804.3238	1825.0654	1839.2467	2851.6959	2927.2611	3006.7144	3025.2143	3045.0542	3049.6399	3080.6465	3100.0575
O=CCCCC(=O)C=O	O=CCCCC(=O)C=O	
InChI=1S/C6H8O3/c7-4-2-1-3-6(9)5-8/h4-5H,1-3H2	InChI=1S/C6H8O3/c7-4-2-1-3-6(9)5-8/h4-5H,1-3H2
