17
gdb 20150	4.16923	2.34784	2.03165	1.8429	68.94	-0.222	0.0773	0.2993	733.1402	0.144454	-326.670078	-326.664116	-326.663172	-326.699761	24.8	
C	 0.0526507653	 1.5606344414	 0.0111014827	-0.398472
C	 0.0200505907	 0.0305982826	 0.0027841079	-0.002038
C	 0.8177824116	-0.6200325361	-1.1139561645	-0.078547
C	 2.2720392651	-0.8211522387	-0.6957323818	-0.112878
C	 1.3019975398	-1.9696981228	-0.6646891564	-0.030524
N	 1.2479360461	-1.9791246305	 0.8520314313	-0.169261
C	 2.1938593352	-0.8147034633	 0.8390430509	-0.044771
C	 0.7597211741	-0.6010704193	 1.1657067933	-0.055609
H	 1.0842104142	 1.9269946432	 0.0135926579	 0.120795
H	-0.4498146778	 1.9691296049	-0.8715312387	 0.11427
H	-0.4524814066	 1.9626751578	 0.8954549807	 0.114755
H	-1.0198953261	-0.319609991	-0.0191441058	 0.080904
H	 0.590500057	-0.4542311178	-2.159972879	 0.088691
H	 3.1339382564	-0.6346312755	-1.3195764113	 0.091885
H	 1.2433146891	-2.8983679799	-1.2156968358	 0.096339
H	 3.0226252061	-0.7460278169	 1.5336463964	 0.092663
H	 0.4334262899	-0.4598466582	 2.1905413123	 0.091796
188.0009	232.0992	275.2534	518.015	578.7209	695.597	711.7527	743.5695	766.5469	774.3176	842.9983	845.579	895.2021	925.1163	945.3278	956.2244	984.1495	1004.5802	1032.1237	1037.2535	1052.951	1061.2193	1100.0925	1116.2423	1123.4591	1170.1192	1233.9759	1250.3257	1288.2465	1295.9638	1339.7182	1377.7745	1387.5892	1413.1159	1497.6968	1500.9939	3030.0217	3033.7219	3100.3163	3107.7663	3171.5835	3182.8259	3193.5516	3203.4559	3222.7907
CC1C2C3C2N2C3C12	C[C@H]1[C@H]2[C@@H]3[C@H]2N2[C@@H]3[C@@H]12	
InChI=1S/C7H9N/c1-2-3-4-6(3)8-5(2)7(4)8/h2-7H,1H3	InChI=1S/C7H9N/c1-2-3-4-6(3)8-5(2)7(4)8/h2-7H,1H3/t2-,3-,4+,5+,6-,7-,8?/m0/s1
