17
gdb 125196	3.22401	1.52942	1.06485	3.8865	76.45	-0.2012	0.0005	0.2017	1107.2425	0.138167	-418.00258	-417.994876	-417.993932	-418.035019	29.04	
C	 0.0634006375	 1.5019443099	 0.0899623711	-0.498941
C	-0.0904327653	 0.0238741074	 0.096168507	 0.298828
C	-1.1031263325	-0.8479294746	-0.1387336131	 0.09819
N	-2.4413114926	-0.9467824442	-0.5473923081	-0.425506
C	-2.8627740255	-2.3321184583	-0.1901346217	-0.172982
C	-1.5566217746	-3.186304694	-0.2075525499	-0.338173
C	-0.5293814181	-2.1252942702	 0.0583739737	 0.375749
N	 0.7301121893	-2.0795989848	 0.387162208	-0.252157
O	 1.022893386	-0.7109173816	 0.4194440698	-0.233984
H	 0.83965135	 1.8166987718	-0.6160746044	 0.148429
H	-0.8757423021	 1.9759650095	-0.2053530893	 0.129503
H	 0.3452625853	 1.8823571097	 1.0782221578	 0.144388
H	-3.0659743534	-0.235237719	-0.1917740225	 0.235705
H	-3.3036243771	-2.3635683662	 0.8165453715	 0.106922
H	-3.609943539	-2.6957520185	-0.8998280233	 0.115498
H	-1.5789442574	-3.9915141481	 0.5292957701	 0.132683
H	-1.3953964506	-3.6378647489	-1.1928731067	 0.135848
83.9083	145.3127	166.7556	241.4431	322.8886	330.5586	507.9689	543.4219	597.6724	611.9419	658.8243	703.392	780.1909	826.4054	869.3095	917.5012	939.2967	989.4354	1027.805	1061.2538	1075.1893	1089.1573	1181.8061	1192.4088	1221.1189	1271.251	1300.0756	1335.1301	1411.5883	1427.2923	1468.723	1472.5873	1480.5497	1492.5466	1518.2652	1590.5385	1731.7376	2998.749	3032.7092	3048.0593	3085.8022	3091.8105	3114.154	3123.5398	3568.3149
CC1=C2NCCC2=NO1	Cc1c2NCCc2no1	
InChI=1S/C6H8N2O/c1-4-6-5(8-9-4)2-3-7-6/h7H,2-3H2,1H3	InChI=1S/C6H8N2O/c1-4-6-5(8-9-4)2-3-7-6/h7H,2-3H2,1H3
