15
gdb 27357	2.06888	1.84845	0.98254	6.4229	71.71	-0.233	-0.0234	0.2096	1139.3436	0.113107	-454.019012	-454.010846	-454.009902	-454.051698	30.415	
C	 0.1134279546	 1.4686535184	-0.0016454507	-0.476865
C	-0.037728598	-0.0138042916	-0.0337930069	 0.38439
C	-1.1652097916	-0.7279477719	-0.1158611952	-0.318756
C	-1.1297816398	-2.2012424153	-0.1297215503	 0.380378
O	-2.1337660149	-2.8793696174	-0.1959835707	-0.359934
N	 0.1483718477	-2.7782341107	-0.05491329	-0.387905
C	 1.1731753895	-2.0116010213	 0.0088431721	 0.481488
N	 2.4431731579	-2.4900401566	 0.0280546355	-0.559692
O	 1.182029536	-0.6469417175	 0.0321405674	-0.257713
H	 0.7261692096	 1.8124229079	-0.8421128597	 0.148831
H	-0.8641447951	 1.9493893621	-0.0556543783	 0.147212
H	 0.6153059178	 1.7860508495	 0.9189805001	 0.146867
H	-2.1274249168	-0.2360420831	-0.1687129935	 0.119122
H	 2.5363317607	-3.4771682281	 0.1993191553	 0.282257
H	 3.1819834323	-1.8810591345	 0.336458345	 0.270319
118.9225	158.6009	175.3433	198.4413	284.4229	342.696	363.8133	489.5742	499.9748	534.9447	554.4887	583.4518	644.6184	731.2097	782.8564	882.1335	903.1446	915.3419	1000.4941	1059.7485	1067.8176	1134.0244	1172.1471	1257.0651	1358.4409	1396.0982	1419.7392	1470.0253	1482.8244	1598.1348	1668.619	1744.4463	1792.9223	3039.5801	3094.881	3148.4387	3225.6688	3612.3193	3740.7293
CC1=CC(=O)N=C(N)O1	Cc1cc(=O)nc(N)o1	
InChI=1S/C5H6N2O2/c1-3-2-4(8)7-5(6)9-3/h2H,1H3,(H2,6,7,8)	InChI=1S/C5H6N2O2/c1-3-2-4(8)7-5(6)9-3/h2H,1H3,(H2,6,7,8)
