17
gdb 118623	1.95219	0.99609	0.68473	2.2042	72.32	-0.2826	-0.0051	0.2775	1576.4777	0.133867	-455.138066	-455.127905	-455.126961	-455.174731	34.216	
O	 0.0368090975	 1.4812025446	-0.1513255136	-0.411854
C	 0.0675026012	 0.0688315006	-0.0661783167	-0.081313
C	-1.3458983165	-0.5221860737	 0.0124872588	-0.218641
C	-1.340117754	-2.0533061953	 0.0127275736	-0.055796
O	-0.6619415783	-2.482042553	 1.1924217819	-0.189293
C	-0.307882446	-3.7930600778	 1.2564889348	 0.133556
N	 0.3242752824	-4.2073946057	 2.2614168485	-0.42793
C	-2.7117427577	-2.5963597706	-0.0330115902	 0.284386
N	-3.7837706141	-3.0245532194	-0.0770175587	-0.306509
H	-0.1975555912	 1.8287523596	 0.7149913747	 0.289065
H	 0.561400122	-0.2764485648	-0.9822357424	 0.113737
H	 0.6689915179	-0.2797299317	 0.7827646952	 0.124952
H	-1.8508063917	-0.1806466142	 0.9229531027	 0.128311
H	-1.9330813561	-0.1711671582	-0.8414028284	 0.136042
H	-0.8076598012	-2.4208104949	-0.8766683287	 0.133128
H	-0.6264341537	-4.37857379	 0.3848069294	 0.10774
H	 0.5203119396	-5.2020384958	 2.170498109	 0.240419
59.1982	78.2006	84.7797	97.093	119.6202	197.8642	252.4055	295.4797	307.337	347.8235	455.851	517.7226	591.1673	658.0025	789.7429	822.4327	903.3674	968.3044	1031.4124	1040.0221	1050.6735	1074.7142	1112.35	1123.3008	1186.8354	1272.8333	1283.0314	1312.869	1357.0365	1362.8414	1407.2057	1421.2801	1427.9251	1475.6221	1514.1251	1754.3228	2358.8124	3006.2156	3023.716	3043.7645	3052.6655	3067.3678	3108.3119	3523.7662	3821.2365
OCCC(OC=N)C#N	OCC[C@@H](O[CH][NH])C#N	
InChI=1S/C5H8N2O2/c6-3-5(1-2-8)9-4-7/h4-5,7-8H,1-2H2	InChI=1S/C5H8N2O2/c6-3-5(1-2-8)9-4-7/h4-5,7-8H,1-2H2/t5-/m1/s1
