16
gdb 54843	2.66612	1.46968	1.13699	5.171	64.96	-0.2427	0.0191	0.2618	1063.6021	0.12475	-475.003634	-474.995849	-474.994905	-475.036007	29.824	
O	 0.0954467703	 1.4316789943	-0.1091248203	-0.448694
C	 0.0037326789	 0.0608613192	-0.0997932994	 0.35478
C	 0.4583962635	-0.8310290262	-1.2612071013	-0.253314
N	-0.6596646067	-1.7966940333	-0.9488216195	-0.366361
H	-1.2814007581	-1.9290481439	-1.7380614674	 0.244126
H	 0.1798787935	-2.841714801	 0.1697700716	 0.3197
C	-1.204324374	-0.8340297468	 0.0468404249	-0.103334
C	-0.2117238528	-0.734175027	 1.1857363323	-0.233456
C	 0.6668536189	-1.8430953618	 1.7202703838	 0.410012
O	 0.7605445606	-2.9476949243	 0.9694738481	-0.387561
O	 1.2518121793	-1.7247307801	 2.7662276013	-0.347618
H	 0.8350577069	 1.6977632039	 0.4491130063	 0.301293
H	 0.3076086815	-0.3199801223	-2.2153938099	 0.130702
H	 1.4550225723	-1.280196878	-1.2260277273	 0.131011
H	-2.2645020359	-0.6443379079	 0.1551891931	 0.120893
H	-0.5485503783	-0.0732265347	 1.9782068338	 0.127819
95.71	152.2054	208.9023	268.6042	337.018	366.3284	375.6941	441.2949	498.7888	635.5355	689.8422	698.0869	801.6312	847.1915	854.7902	919.8979	931.2962	969.2327	981.278	987.3964	1017.0789	1040.2356	1082.9265	1147.2919	1199.3264	1248.002	1258.0932	1274.7286	1308.1997	1335.209	1359.6319	1470.6224	1498.8851	1509.5871	1846.728	3057.6463	3118.3146	3175.9087	3201.5371	3209.6966	3545.6495	3793.1131
OC12C[NH2+]C1C2C([O-])=O	O[C@]12CN[C@H]1[C@H]2C(=O)O	
InChI=1S/C5H7NO3/c7-4(8)2-3-5(2,9)1-6-3/h2-3,6,9H,1H2,(H,7,8)	InChI=1S/C5H7NO3/c7-4(8)2-3-5(2,9)1-6-3/h2-3,6,9H,1H2,(H,7,8)/t2-,3-,5-/m0/s1
