17
gdb 78020	3.0483	1.25511	1.06175	3.3392	70.72	-0.2449	-0.0249	0.2201	1136.3522	0.134999	-458.938407	-458.930066	-458.929121	-458.971228	31.78	
O	-0.0923329711	 1.416955999	-0.0326801813	-0.428897
C	-0.1006948494	 0.0317198537	 0.0295575386	 0.080528
C	-0.4485394604	-0.7484875752	 1.2410843615	-0.18035
C	-1.5653428339	-0.0652257368	 2.0244718604	 0.09281
O	-1.1370777398	 1.1796924812	 2.5696188506	-0.434944
C	-2.4850775345	-0.0388625699	 0.7592542775	-0.345666
C	-1.397630212	-0.7709394258	-0.0203514814	 0.219423
C	-1.6080060994	-1.8818390166	-0.9496663865	 0.053353
O	-2.6926452508	-2.264162952	-1.3253525633	-0.27212
H	-0.3160631868	 1.7456593054	 0.8507593786	 0.300839
H	 0.6940833622	-0.4052965922	-0.571774747	 0.113262
H	 0.1758162877	-1.548598641	 1.6206565584	 0.104093
H	-1.9721278141	-0.7095057192	 2.8112847989	 0.095328
H	-1.8998918326	 1.6238267795	 2.9556545783	 0.295318
H	-3.3957229429	-0.6280202224	 0.8719603476	 0.128982
H	-2.7304778982	 0.9569799898	 0.3814267208	 0.113538
H	-0.669789234	-2.3714976173	-1.3011546218	 0.064503
94.7487	165.3982	179.2765	226.7197	275.3092	321.489	364.6563	421.5779	471.3205	523.4511	530.0734	634.157	702.0652	762.2818	790.7041	854.8535	899.9943	976.5557	979.8786	1007.228	1039.0345	1074.6957	1084.8041	1126.8327	1163.9421	1201.1377	1232.2034	1237.0802	1293.6502	1329.928	1346.6311	1388.8773	1419.6016	1439.0265	1468.6679	1485.2231	1794.8702	2855.7974	3044.4633	3070.1353	3136.4508	3138.3627	3184.6482	3708.9888	3811.0655
OC1C2C(O)CC12C=O	O[C@H]1[C@H]2[C@@H](O)C[C@@]12C=O	
InChI=1S/C6H8O3/c7-2-6-1-3(8)4(6)5(6)9/h2-5,8-9H,1H2	InChI=1S/C6H8O3/c7-2-6-1-3(8)4(6)5(6)9/h2-5,8-9H,1H2/t3-,4+,5-,6-/m0/s1
