21
gdb 92261	2.05214	1.92987	1.18354	1.3488	83.64	-0.2271	0.0244	0.2515	1112.4529	0.183765	-387.100496	-387.09212	-387.091175	-387.133313	33.211	
C	 0.4630476758	 1.2898395941	-0.1475656255	-0.497863
C	 0.0783674305	-0.1585821846	-0.1066381069	 0.310478
C	-0.2222538392	-0.9472217848	-1.1450771828	-0.169301
C	-0.6525400099	-2.3389189837	-0.7441533314	-0.271783
C	-0.3442347981	-2.3746668632	 0.7666547244	-0.011092
C	 1.1126691121	-2.757704895	 1.1566119877	-0.276814
C	 1.294230564	-1.3780724959	 1.8454674966	 0.152879
O	 2.4769735779	-0.6536757305	 1.6029810699	-0.429501
C	-0.0530707672	-0.8990680124	 1.2041922803	-0.158827
H	 1.4055743944	 1.4614353903	 0.3837969974	 0.135179
H	 0.5622607824	 1.6561748607	-1.1733150092	 0.117852
H	-0.2915907134	 1.9049875672	 0.3599891727	 0.12593
H	-0.2054246938	-0.6218971647	-2.1812227763	 0.082678
H	-1.7189883073	-2.4967413041	-0.9585123801	 0.101656
H	-0.1135675696	-3.1264467757	-1.288052768	 0.099791
H	-1.1000321953	-2.9004112026	 1.351398482	 0.06591
H	 1.2475822498	-3.6386988158	 1.7885511684	 0.101139
H	 1.7617711644	-2.8638633187	 0.2802907718	 0.092129
H	 1.2113256713	-1.4460652757	 2.9336460684	 0.08724
H	 2.6086080604	-0.632568752	 0.6483282902	 0.279744
H	-0.7399506091	-0.3979940629	 1.8956385407	 0.062575
67.2939	166.597	195.1675	242.6769	299.1115	334.5209	385.1507	427.7743	446.9749	517.9119	636.7385	674.173	710.7613	788.5664	811.4412	836.417	893.1302	932.6154	943.4787	964.0647	1004.9493	1024.5821	1038.2033	1055.4017	1072.5765	1098.923	1126.372	1158.1909	1193.6574	1196.1409	1238.0144	1250.5827	1261.505	1281.6604	1311.8882	1315.3743	1334.0208	1363.086	1412.2376	1438.2232	1474.0508	1477.3713	1488.6945	1498.9518	1708.0405	3003.2917	3020.109	3030.3502	3036.5685	3043.9924	3072.565	3073.835	3093.0434	3110.7281	3111.824	3173.7812	3796.1851
CC1=CCC2CC(O)C12	CC1=CC[C@H]2C[C@@H](O)[C@@H]12	
InChI=1S/C8H12O/c1-5-2-3-6-4-7(9)8(5)6/h2,6-9H,3-4H2,1H3	InChI=1S/C8H12O/c1-5-2-3-6-4-7(9)8(5)6/h2,6-9H,3-4H2,1H3/t6-,7+,8-/m0/s1
