19
gdb 103309	2.40427	1.52851	1.37401	0.8206	70.97	-0.2383	0.055	0.2933	1042.4414	0.15917	-460.103691	-460.095199	-460.094255	-460.136462	33.831	
O	 0.5563370934	-0.2319784185	 1.3299958197	-0.433224
C	 0.0401255066	 0.0408631625	 0.0209753319	-0.181124
C	-1.3695278428	-0.5323420642	-0.0623999125	 0.414146
O	-2.1278125495	 0.0395640334	 0.983023769	-0.508598
C	-2.1413697025	-0.7224025117	-1.3964641084	-0.130664
C	-1.1610056741	-1.8830178691	-1.7581477846	-0.282902
C	-1.5285948419	-2.0856519504	-0.2720328208	 0.327036
O	-1.0039903508	-3.090624659	 0.5340937775	-0.48369
C	-3.0104633657	-1.8045333626	-0.6719071905	-0.303312
H	 0.6329941216	-1.192072523	 1.3990357271	 0.292983
H	 0.0067577889	 1.1314606875	-0.0648760917	 0.118286
H	 0.7143923667	-0.3421812832	-0.7502854933	 0.103758
H	-1.5022865978	 0.15174914	 1.7120469837	 0.284024
H	-2.502405582	 0.0599196141	-2.0595512878	 0.085565
H	-1.5653293962	-2.6299329312	-2.4438221357	 0.101473
H	-0.131956503	-1.6337017366	-2.015175157	 0.096478
H	-1.5447478199	-3.141440407	 1.3303725757	 0.288792
H	-3.6771241306	-1.4506471381	 0.1116063445	 0.119279
H	-3.4780510005	-2.5465166231	-1.3230667067	 0.091694
75.7059	148.2014	219.6552	267.9696	327.9788	339.9558	375.2266	428.3051	465.2	505.3557	561.1697	580.1003	609.8183	666.571	739.9486	806.5585	814.7407	925.4702	949.3304	950.9415	999.4702	1006.4847	1025.6081	1037.6169	1072.0355	1105.2353	1135.7143	1154.4251	1181.313	1198.5826	1207.4318	1219.5801	1249.2754	1301.3137	1361.4317	1364.7031	1417.0608	1433.1499	1490.2264	1504.2555	1547.9735	3050.3867	3075.6968	3081.9693	3097.2693	3145.7463	3150.1355	3167.4184	3744.8663	3778.5039	3804.5716
OCC1(O)C2CC1(O)C2	OC[C@@]1(O)[C@H]2C[C@]1(O)C2	
InChI=1S/C6H10O3/c7-3-6(9)4-1-5(6,8)2-4/h4,7-9H,1-3H2	InChI=1S/C6H10O3/c7-3-6(9)4-1-5(6,8)2-4/h4,7-9H,1-3H2/t4-,5-,6-/m1/s1
