20
gdb 117566	1.84602	1.33068	0.86472	2.3625	81.7	-0.2408	0.0289	0.2697	1400.3025	0.168831	-403.075203	-403.065127	-403.064183	-403.110943	36.127	
C	 0.3119521018	 1.2802324866	 0.2985835501	-0.38804
C	-0.1461784044	-0.1243084191	-0.0515132682	-0.040212
O	 0.9101351194	-0.7751116391	-0.7450495307	-0.251632
C	 0.6441547197	-2.1193250656	-1.1034711682	-0.088755
C	-0.4047904411	-2.2339295425	-2.1262273067	 0.349842
C	-1.2584498201	-2.3365879988	-2.9662216511	-0.478274
C	 1.9477257334	-2.7449372015	-1.5933301313	 0.000481
C	 2.9237578449	-1.9390680198	-2.357911573	-0.226288
N	 3.2140499992	-2.3584775099	-0.9691314896	-0.336217
H	 1.2042418631	 1.2510321272	 0.9306160746	 0.126137
H	 0.5506691381	 1.8435278013	-0.6078529707	 0.130836
H	-0.4776854303	 1.8109946699	 0.8385238116	 0.120251
H	-0.3968289868	-0.6930775032	 0.8586391815	 0.091505
H	-1.0460094012	-0.0974341428	-0.6817661908	 0.108609
H	 0.3119440741	-2.6718755496	-0.2064753368	 0.098938
H	-2.0117280014	-2.4276062595	-3.7096292451	 0.202538
H	 1.8479654729	-3.8062344781	-1.8064904204	 0.102017
H	 3.5372091089	-2.4116617303	-3.1191275208	 0.11479
H	 2.6801966519	-0.8965407099	-2.5337907991	 0.125962
H	 3.031619138	-1.5633143153	-0.3594702552	 0.237514
64.4641	81.7762	93.1421	132.5036	146.172	228.026	254.7454	299.9926	345.4242	396.4613	471.8278	566.5998	623.6245	642.3887	680.2579	812.1836	822.3538	864.4276	895.1959	927.4671	975.2579	1006.0577	1013.2183	1053.4876	1110.0451	1128.9524	1151.3681	1157.954	1188.6052	1211.9217	1278.6675	1296.178	1308.8966	1323.892	1352.3503	1402.3042	1414.1014	1434.4771	1483.938	1500.0346	1504.022	1528.691	2230.2448	2942.316	2974.7885	3026.1602	3045.5523	3120.0018	3121.9131	3122.6847	3141.3629	3214.1321	3493.8123	3501.6406
CCOC(C#C)C1CN1	CCO[C@@H](C#C)[C@H]1CN1	
InChI=1S/C7H11NO/c1-3-7(9-4-2)6-5-8-6/h1,6-8H,4-5H2,2H3	InChI=1S/C7H11NO/c1-3-7(9-4-2)6-5-8-6/h1,6-8H,4-5H2,2H3/t6-,7+/m1/s1
