20
gdb 95716	2.68308	1.31024	0.98614	2.4965	76.18	-0.2566	0.0127	0.2693	1222.8604	0.172494	-440.290792	-440.28196	-440.281016	-440.324664	33.26	
O	-0.1238077408	 1.4884526706	-0.1991556751	-0.428454
C	 0.0039887521	 0.0846469615	 0.0074060016	 0.083969
C	-1.4194450401	-0.4679347244	 0.1022354761	-0.199086
C	-1.5357533052	-1.8457264493	 0.7793072659	-0.2145
C	-0.3415310041	-2.7979472231	 0.5514005564	-0.257371
C	 0.1950341716	-2.8366389257	-0.8588925392	 0.360784
N	-0.0827071936	-3.7810641224	-1.6534669484	-0.473286
O	 1.1247166137	-1.8699934355	-1.1805309703	-0.26176
C	 0.7772684693	-0.485785867	-1.1953523326	-0.095033
H	 0.7571449943	 1.8772974285	-0.2057366385	 0.285355
H	 0.5542227772	-0.1180599345	 0.9396510064	 0.075009
H	-2.0224958215	 0.2641707106	 0.64720366	 0.114153
H	-1.832760442	-0.5100801217	-0.9130083828	 0.108626
H	-1.6517775212	-1.7172966394	 1.861066659	 0.105486
H	-2.4506976509	-2.3324296673	 0.4276892848	 0.119032
H	 0.4879320292	-2.5125798013	 1.2071406449	 0.114837
H	-0.638841162	-3.8144890744	 0.8157006077	 0.129393
H	 0.3994063159	-3.6341568243	-2.5435004578	 0.218696
H	 0.1902774212	-0.2610183027	-2.0973862686	 0.11256
H	 1.7382795468	 0.032421222	-1.2849895794	 0.101589
58.7772	104.8267	154.661	192.1421	297.678	307.5947	354.3283	377.0657	446.704	461.463	526.4672	566.8385	703.1988	763.258	819.1723	865.2405	918.0022	924.4942	959.3048	994.6656	1025.3682	1064.4529	1080.7157	1111.11	1117.4021	1142.5017	1195.5314	1217.0282	1261.4364	1287.3074	1292.3386	1312.8175	1350.883	1363.5753	1371.397	1391.4787	1417.9225	1448.9789	1480.7621	1490.1134	1500.6046	1511.1219	1744.0751	2978.6203	3006.8106	3034.3747	3041.333	3052.0359	3069.4119	3079.4516	3093.186	3118.887	3455.3346	3811.7223
OC1CCCC(=N)OC1	O[C@H]1CCC[C]([NH])OC1	
InChI=1S/C6H11NO2/c7-6-3-1-2-5(8)4-9-6/h5,7-8H,1-4H2	InChI=1S/C6H11NO2/c7-6-3-1-2-5(8)4-9-6/h5,7-8H,1-4H2/t5-/m0/s1
