20
gdb 99682	2.63136	1.05675	0.79281	3.419	79.45	-0.2794	0.0274	0.3068	1442.6693	0.171059	-403.150416	-403.140941	-403.139997	-403.185422	34.348	
O	 0.1139948308	 1.4331209058	-0.0090113772	-0.417325
C	 0.0372151517	 0.0287546875	 0.0650457412	-0.067799
C	-1.4145939939	-0.5016550771	-0.0263547152	-0.191229
C	-1.9982646709	-0.0707552544	-1.3008584724	 0.261714
N	-2.4140957529	 0.2847155232	-2.3199111405	-0.331656
C	-1.4921561605	-2.0252215518	 0.1333447283	 0.048866
C	-1.1479087348	-2.637523217	 1.5214851914	-0.24127
C	-2.3028487321	-3.6533165298	 1.3093072968	-0.217334
C	-2.8843150881	-2.709064214	 0.2220414902	-0.235105
H	-0.1741617927	 1.7033581598	-0.8886517719	 0.298284
H	 0.6477941151	-0.4608506961	-0.7086928092	 0.104944
H	 0.4441339222	-0.2528340735	 1.0404635148	 0.125181
H	-1.9925563261	-0.0239127007	 0.7752633295	 0.126799
H	-0.8906397348	-2.4987213458	-0.650282349	 0.088907
H	-0.138878818	-3.028087767	 1.671156431	 0.105387
H	-1.3736649629	-1.9360339567	 2.3318986528	 0.10567
H	-1.9421137279	-4.5921180224	 0.8804192865	 0.109782
H	-2.9350011509	-3.8850024227	 2.1686798289	 0.105043
H	-3.6348260364	-2.0292104277	 0.6379792989	 0.107452
H	-3.287299297	-3.1543135595	-0.6894830748	 0.113688
64.8455	93.8484	116.8987	129.0942	170.8707	240.2162	328.2573	358.7496	383.7533	433.9956	499.9733	588.5622	672.9188	780.9455	795.42	838.5075	904.0202	934.3665	957.0949	976.6933	1007.0265	1025.6971	1082.9122	1088.1789	1109.3976	1155.0492	1202.8912	1205.7712	1227.1001	1257.9507	1263.0959	1269.9852	1290.73	1294.3463	1334.8584	1381.1665	1393.9315	1420.8181	1478.4764	1487.8103	1503.2264	1510.5648	2347.6559	2992.4054	3032.8625	3046.7859	3050.5301	3058.7405	3065.0295	3092.8674	3104.0534	3112.8221	3126.1174	3796.2919
OCC(C#N)C1CCC1	OC[C@@H](C#N)C1CCC1	
InChI=1S/C7H11NO/c8-4-7(5-9)6-2-1-3-6/h6-7,9H,1-3,5H2	InChI=1S/C7H11NO/c8-4-7(5-9)6-2-1-3-6/h6-7,9H,1-3,5H2/t7-/m1/s1
