14
gdb 25503	4.72878	0.98689	0.88019	2.0929	70.	-0.2612	-0.0627	0.1985	1250.7668	0.102021	-432.923619	-432.916063	-432.915119	-432.957085	26.245	
O	-0.3335807458	 0.0544030976	 0.1746862907	-0.22463
C	-0.055698725	 1.2096694705	 0.0047120165	 0.158372
C	 1.3535488466	 1.6979858696	-0.3340469056	-0.359961
C	 1.3444127989	 2.8081711463	-1.3452376576	 0.33878
N	 1.9656995098	 2.6048017786	-2.5120865128	-0.265456
C	 1.9106998965	 3.6331164542	-3.3574841651	 0.084167
N	 1.2948888763	 4.7961348176	-3.1423645437	-0.236138
C	 0.6979773527	 4.876073023	-1.9527368098	 0.082949
N	 0.6901267321	 3.9306279528	-1.0156529013	-0.269486
H	-0.8071186573	 2.0212538247	 0.1016390139	 0.106813
H	 1.7662606312	 2.0921534895	 0.6051127736	 0.156916
H	 1.9629687335	 0.8605715883	-0.6724016463	 0.15038
H	 2.4147810112	 3.5101564538	-4.3136406287	 0.139041
H	 0.1714987293	 5.8003833934	-1.7246417537	 0.138253
45.9115	79.0237	132.139	240.5442	356.1446	372.4556	432.5459	534.6011	634.822	706.5561	758.8021	834.9724	885.4414	982.6622	1008.2691	1026.9689	1046.8199	1050.683	1160.5315	1185.5952	1213.1416	1252.5736	1301.6197	1341.9965	1410.2996	1424.0977	1439.3148	1466.0385	1582.2379	1603.6583	1841.1621	2918.8678	3029.9719	3150.5992	3163.7133	3167.3869
O=CCC1=NC=NC=N1	O=CCc1ncncn1	
InChI=1S/C5H5N3O/c9-2-1-5-7-3-6-4-8-5/h2-4H,1H2	InChI=1S/C5H5N3O/c9-2-1-5-7-3-6-4-8-5/h2-4H,1H2
