23
gdb 61445	3.16386	0.82481	0.75249	2.5207	86.43	-0.2414	-0.0081	0.2333	1638.5765	0.202899	-388.308608	-388.297925	-388.296981	-388.34525	38.635	
C	 0.1354918508	 1.5135371069	-0.0242141499	-0.402801
C	-0.0399150923	-0.0118972105	-0.045823696	 0.022776
C	-1.5199594715	-0.411022169	 0.0500546437	-0.307596
C	-2.1609584703	-0.1668954183	 1.4116729573	 0.381976
C	-3.6741062055	-0.2914537441	 1.4691504474	-0.472434
O	-1.5079165844	 0.0958767242	 2.3965120578	-0.297717
C	 0.6037721917	-0.6236292815	-1.2772414066	 0.033384
C	 2.0815636975	-0.9150553179	-1.2989487894	-0.275961
C	 1.0875152642	-2.0519278546	-1.2613382424	-0.278667
H	 1.1951216532	 1.7820363648	-0.0716619287	 0.115454
H	-0.3623690946	 1.9778798523	-0.8846356576	 0.102334
H	-0.2839126867	 1.9433834453	 0.8887637038	 0.129731
H	 0.4598282425	-0.4211294988	 0.8409357985	 0.08845
H	-2.1185247209	 0.0927204291	-0.7219198398	 0.106818
H	-1.6336811762	-1.485486228	-0.1571994856	 0.124007
H	-4.0118552889	-1.2148557371	 0.9866764852	 0.133499
H	-4.0116925938	-0.263974299	 2.5059105719	 0.141298
H	-4.1316307118	 0.5392696246	 0.9186466601	 0.14122
H	 0.178320353	-0.2807737632	-2.2190139772	 0.074275
H	 2.6343629806	-0.7424706481	-2.2157703739	 0.109069
H	 2.6472299495	-0.712707015	-0.3950109632	 0.112505
H	 0.9952096963	-2.6073381525	-0.3329885394	 0.110267
H	 0.9605216077	-2.6563248896	-2.152851876	 0.108114
46.162	65.0682	98.3688	122.2001	137.063	203.1712	231.7908	286.2779	321.5872	343.0724	442.9174	480.455	487.5062	590.6142	766.9626	805.0526	808.0483	829.6964	847.1611	900.3508	942.6862	953.977	968.0989	991.9782	1007.0052	1056.5208	1078.8953	1121.8805	1139.0018	1144.1683	1167.0817	1198.1916	1213.2954	1225.3111	1243.5176	1289.3448	1342.3015	1377.3056	1386.6531	1404.415	1418.1289	1445.4612	1464.2102	1469.6088	1477.2495	1497.2794	1504.183	1506.8859	1807.6461	3006.2517	3025.828	3030.7822	3035.771	3044.1359	3095.097	3096.7849	3117.1908	3122.7006	3125.6445	3131.8882	3151.1673	3203.7632	3219.3579
CC(CC(C)=O)C1CC1	C[C@@H](CC(=O)C)C1CC1	
InChI=1S/C8H14O/c1-6(5-7(2)9)8-3-4-8/h6,8H,3-5H2,1-2H3	InChI=1S/C8H14O/c1-6(5-7(2)9)8-3-4-8/h6,8H,3-5H2,1-2H3/t6-/m0/s1
