21
gdb 52619	3.4946	0.77497	0.74157	0.8091	94.28	-0.2436	0.0433	0.2869	1654.2574	0.17785	-349.909272	-349.897818	-349.896874	-349.947148	40.773	
C	 0.0078485736	 1.4676489321	 0.0821176463	-0.498936
C	 0.0107282976	 0.0122171747	 0.0248507511	 0.044948
C	 0.0099773946	-1.1912566871	-0.0287431989	 0.090685
C	 0.01398146	-2.6576564217	-0.0842987341	 0.041085
C	-1.4366630803	-3.1785167185	-0.1757353948	-0.401642
C	 0.8221150491	-3.1292745987	-1.3125182856	-0.401639
C	 0.6873600869	-3.1775396702	 1.2311770112	-0.361825
C	 0.7684783198	-4.6296704768	 1.3294370542	 0.318183
C	 0.8336033799	-5.8280562746	 1.4069098211	-0.462349
H	 0.5772500875	 1.9005583908	-0.7478953485	 0.147305
H	-1.0110893177	 1.8668596751	 0.0278336019	 0.147321
H	 0.455304789	 1.8306481862	 1.0140988227	 0.146821
H	-1.9158530745	-2.8127103908	-1.0878211938	 0.118999
H	-1.4451859817	-4.2720943291	-0.1886705708	 0.127042
H	-2.0285098538	-2.8367735762	 0.6784526329	 0.117424
H	 1.8482631706	-2.7522645643	-1.2726197598	 0.117421
H	 0.8548286972	-4.2219530816	-1.3462128013	 0.127042
H	 0.3623688817	-2.7630376363	-2.2343867649	 0.119001
H	 1.6939278631	-2.7484946816	 1.2979496837	 0.134491
H	 0.1269285009	-2.7826671812	 2.086577271	 0.134488
H	 0.8958513765	-6.8851346801	 1.4847877864	 0.194135
15.1399	70.4621	80.1159	128.1143	164.5206	234.5035	266.9988	281.4141	288.0185	337.9429	341.8867	352.4372	365.5711	470.3942	542.0228	547.0265	612.5056	641.7092	697.8691	813.6632	895.2423	950.7235	965.7418	974.9736	1040.466	1053.5039	1054.4867	1075.8158	1135.8632	1210.4705	1251.5977	1280.5759	1339.766	1394.7311	1414.5995	1417.6309	1465.1305	1478.8654	1479.2819	1483.9253	1485.6004	1500.4257	1508.5812	2232.4691	2366.2206	3025.4511	3032.1923	3038.9679	3043.2365	3067.785	3085.6578	3085.8061	3114.2835	3116.5666	3119.0788	3123.3977	3505.7134
CC#CC(C)(C)CC#C	CC#CC(C)(C)CC#C	
InChI=1S/C9H12/c1-5-7-9(3,4)8-6-2/h1H,7H2,2-4H3	InChI=1S/C9H12/c1-5-7-9(3,4)8-6-2/h1H,7H2,2-4H3
