14
gdb 18223	5.11977	1.69472	1.38434	3.4822	64.72	-0.244	-0.0307	0.2133	854.8272	0.109018	-378.737634	-378.731292	-378.730348	-378.768257	23.892	
O	-0.057536965	-0.0229431086	 0.0025555548	-0.307409
C	-0.0174203787	 1.184475648	 0.0254074895	 0.152492
N	 1.1423014371	 1.923722824	-0.0233691252	-0.063954
C	 2.4404957061	 1.398390744	-0.0661638622	 0.063569
N	 3.3855989279	 2.2561227225	-0.0089046247	-0.251595
C	 2.7735217048	 3.5647378624	 0.0361268898	 0.001429
C	 1.9640350649	 3.985158765	-1.1703379459	-0.308713
C	 1.2589912137	 3.3627343755	 0.0075372277	-0.039768
H	-0.9138256931	 1.8289315519	 0.0875550895	 0.090313
H	 2.562208872	 0.3264321341	-0.1439311762	 0.169828
H	 3.2768033686	 4.313370317	 0.6353223165	 0.111693
H	 1.8155724195	 5.0503101178	-1.3075230569	 0.128643
H	 2.0662377901	 3.408324079	-2.0833695184	 0.132289
H	 0.5339574323	 3.9019251875	 0.6037589616	 0.121184
105.2317	223.8825	242.115	367.0333	398.2402	512.8268	624.4389	737.5511	749.7725	801.9159	823.5065	921.3321	932.4124	958.6811	996.2129	1029.6528	1053.4056	1070.4384	1091.0205	1116.6849	1189.2072	1242.8979	1283.8151	1298.1731	1339.3141	1421.7686	1438.8557	1466.7904	1657.1493	1803.3778	2964.1148	3134.595	3187.2965	3193.9642	3229.3946	3246.4079
O=CN1C=NC2CC12	O=CN1C=N[C@H]2C[C@@H]12	
InChI=1S/C5H6N2O/c8-3-7-2-6-4-1-5(4)7/h2-5H,1H2	InChI=1S/C5H6N2O/c8-3-7-2-6-4-1-5(4)7/h2-5H,1H2/t4-,5+/m0/s1
