15
gdb 47297	3.62899	1.3556	1.04371	2.7613	65.09	-0.2788	-0.0107	0.2682	1083.1662	0.114129	-491.086599	-491.079016	-491.078072	-491.119399	27.945	
N	-0.1013222048	 1.2957597621	 0.4097886502	-0.48067
C	-0.0243429203	 0.1149596516	-0.0299445314	 0.366952
C	-1.2984822666	-0.6561615223	-0.3085323946	-0.157619
O	-1.2796432198	-1.4414284557	-1.5102540993	-0.222097
C	-0.7482058446	-2.6783560768	-1.3960570753	 0.431923
N	-1.3869489276	-3.701828216	-1.7458904107	-0.52706
O	 0.5236990782	-2.7012263849	-0.8803310035	-0.239075
C	 1.3228515453	-1.5583236418	-1.1125015927	 0.006632
O	 1.1690304109	-0.5460218034	-0.139287754	-0.234488
H	 0.8297200885	 1.6603887281	 0.6227646451	 0.231264
H	-1.5232252302	-1.3020364995	 0.5489413561	 0.147899
H	-2.1044237601	 0.0657126256	-0.4262335034	 0.164045
H	-0.7874864672	-4.5235014009	-1.682778045	 0.236533
H	 2.355351364	-1.8913731044	-1.0143285596	 0.141839
H	 1.1297596144	-1.1574893617	-2.1122537218	 0.133922
55.4686	107.4262	204.4403	294.8378	333.8263	383.2755	418.6553	520.939	533.9728	686.5207	720.2891	777.4106	808.0438	851.5474	884.9457	932.3993	990.5663	1018.103	1022.4847	1069.8853	1112.7403	1141.9781	1185.0043	1275.4859	1295.0237	1329.3976	1365.9334	1385.6435	1463.2862	1481.5526	1506.8894	1758.3962	1784.4591	3041.6124	3059.057	3152.0766	3161.5715	3467.2038	3514.3701
N=C1COC(=N)OCO1	[NH][C]1CO[C]([NH])OCO1	
InChI=1S/C4H6N2O3/c5-3-1-7-4(6)9-2-8-3/h5-6H,1-2H2	InChI=1S/C4H6N2O3/c5-3-1-7-4(6)9-2-8-3/h5-6H,1-2H2
