23
gdb 61536	2.8063	0.91271	0.79687	2.794	86.67	-0.2435	-0.0184	0.2251	1537.308	0.203015	-388.292913	-388.282316	-388.281372	-388.329647	38.654	
C	-1.5879074074	 1.8685054906	-0.298797758	-0.413476
C	-1.3233638679	 0.36175684	-0.153450527	-0.04618
C	-0.1491406726	-0.1808602541	-1.0097025152	-0.298774
C	-0.2689818206	-0.0133250067	-2.5257039268	 0.380384
C	 0.2620092855	 1.287931739	-3.1050796644	-0.465177
C	-0.0521063692	-1.248470476	-3.374293024	-0.307979
C	-1.4386408111	-0.673601635	-3.2211526956	-0.296673
C	-1.0122126728	 0.0462068479	 1.2973825445	 0.157767
O	-1.5617238314	-0.794367197	 1.9612185138	-0.250201
H	-0.6863070712	 2.456424877	-0.0928407548	 0.119491
H	-1.9263251559	 2.1086585029	-1.308777538	 0.136124
H	-2.3681375927	 2.1954645976	 0.3964639286	 0.124432
H	-2.2307703688	-0.1965903175	-0.4056639223	 0.094431
H	 0.7874526711	 0.2865678155	-0.6743700999	 0.097389
H	-0.0541580746	-1.2481283162	-0.7781484773	 0.111253
H	 1.3268579831	 1.4101862472	-2.8730790609	 0.115595
H	 0.1592319414	 1.29771645	-4.1948768429	 0.113442
H	-0.261763382	 2.1667377341	-2.7187512056	 0.116795
H	 0.4508386997	-1.1273705793	-4.3281232775	 0.109152
H	 0.1671811914	-2.1860133637	-2.8743326332	 0.111674
H	-2.1503266049	-1.22831662	-2.618604425	 0.114715
H	-1.8831742141	-0.1664197151	-4.0711311075	 0.109974
H	-0.1888243348	 0.6669116289	 1.7292066891	 0.065842
33.0242	43.7254	96.6969	168.2093	203.3329	257.0891	260.6537	289.7491	327.1601	348.1865	372.9804	389.6281	458.7387	576.2745	715.1196	784.389	840.506	866.6908	884.7305	903.8499	941.0673	947.8739	953.2569	995.8922	1032.0053	1058.3165	1081.3132	1104.1216	1111.1162	1135.1109	1158.5077	1189.4709	1232.1817	1278.4476	1312.4141	1343.1847	1371.3557	1379.3909	1405.7953	1420.2724	1428.7881	1469.391	1478.9636	1489.7108	1493.6049	1503.8108	1508.2118	1511.8476	1833.9889	2831.3518	3009.1383	3028.339	3034.1531	3052.6932	3066.1066	3089.8919	3097.9658	3109.1186	3125.5467	3126.9865	3130.7952	3203.1543	3217.8923
CC(CC1(C)CC1)C=O	C[C@@H](CC1(C)CC1)C=O	
InChI=1S/C8H14O/c1-7(6-9)5-8(2)3-4-8/h6-7H,3-5H2,1-2H3	InChI=1S/C8H14O/c1-7(6-9)5-8(2)3-4-8/h6-7H,3-5H2,1-2H3/t7-/m0/s1
