23
gdb 121031	3.879	0.74965	0.65518	2.9218	86.47	-0.2341	-0.0115	0.2226	1764.0627	0.20552	-388.339885	-388.330178	-388.329234	-388.375137	36.13	
C	-0.1848142517	 1.598802893	-0.0177991044	-0.380293
C	-0.0118004716	 0.0780786344	 0.0229485029	-0.171204
C	 0.7111061979	-0.4752843614	-1.2112605335	-0.181837
C	 0.8715980479	-1.996683533	-1.221508425	 0.023409
C	 1.5050557489	-2.5473039672	-2.5230221499	-0.234023
C	 1.9529014045	-3.9709206418	-2.1662897622	-0.322641
C	 2.2828878689	-3.9140661365	-0.6689354133	 0.398966
O	 2.8399043647	-4.7730513236	-0.0362551214	-0.313113
C	 1.7775365012	-2.5753140919	-0.1189802448	-0.323006
H	 0.7848827465	 2.106478644	-0.0694139779	 0.114441
H	-0.7652737	 1.9081112404	-0.8941785462	 0.114012
H	-0.7048343936	 1.9658265523	 0.8724483711	 0.112872
H	 0.5409417425	-0.2011413171	 0.9287048788	 0.100765
H	-0.9962651208	-0.4010768003	 0.1087193274	 0.095022
H	 0.1628262029	-0.1707201588	-2.1136756874	 0.090949
H	 1.7051346045	-0.0110622747	-1.2901796728	 0.089964
H	-0.1246508522	-2.4511968311	-1.1157311508	 0.074071
H	 0.8139676988	-2.5079047624	-3.3693163349	 0.101886
H	 2.3764063754	-1.934797289	-2.7885262984	 0.101934
H	 1.1326854383	-4.6905353278	-2.2905753419	 0.129863
H	 2.8004638413	-4.3545322864	-2.7392943451	 0.12668
H	 2.6578967961	-1.9326482625	 0.031578583	 0.124696
H	 1.3091738496	-2.7081282986	 0.8586877769	 0.126585
66.4521	87.544	102.8366	120.2864	193.103	249.6774	293.6572	345.5889	419.9503	477.9818	487.8562	563.206	595.3682	727.806	748.7929	813.8693	850.3745	872.7754	900.0091	922.4024	953.5141	985.3027	1027.7245	1041.3415	1078.8046	1093.9892	1143.6486	1153.9629	1166.665	1209.5804	1239.1256	1257.9079	1271.4531	1291.3351	1303.2201	1328.0638	1334.9563	1354.9741	1383.43	1400.0621	1414.6035	1447.7737	1451.7504	1481.4369	1493.5394	1500.0867	1500.846	1511.0058	1846.8722	2991.0662	2998.8038	3013.8288	3018.5118	3027.6814	3029.6367	3031.1059	3034.4401	3056.6045	3091.0427	3096.1154	3102.4978	3106.3514	3108.7999
CCCC1CCC(=O)C1	CCC[C@H]1CCC(=O)C1	
InChI=1S/C8H14O/c1-2-3-7-4-5-8(9)6-7/h7H,2-6H2,1H3	InChI=1S/C8H14O/c1-2-3-7-4-5-8(9)6-7/h7H,2-6H2,1H3/t7-/m0/s1
