20
gdb 106037	2.76344	1.50215	1.16937	2.4605	77.8	-0.2443	0.0678	0.3121	1115.563	0.172031	-403.091576	-403.083382	-403.082438	-403.124113	32.106	
C	-0.1798544612	 1.5171934599	-0.4065524903	-0.432013
C	 0.0778270174	 0.0806629489	 0.02789037	-0.033817
C	 1.1777701272	-0.789722086	-0.6229136125	-0.027981
C	 2.5202788855	-0.06015384	-0.4269719826	-0.246932
C	 2.2758445869	-0.3331442697	 1.0454542134	-0.06991
N	 1.3902499113	-1.5198554108	 0.7459822463	-0.22061
C	 0.8067546243	-0.2561828274	 1.3248327446	 0.282099
C	 0.2557651878	-0.3054893818	 2.725739418	-0.173786
O	 1.0133202793	-1.1841978596	 3.5364804164	-0.417755
H	 0.7245686624	 2.1301819024	-0.3606826103	 0.121344
H	-0.5603812753	 1.5523596363	-1.4333513465	 0.119168
H	-0.9303612563	 1.9879346942	 0.2374883278	 0.121631
H	-0.8581002796	-0.4911670132	 0.0136662108	 0.082409
H	 0.9761827457	-1.3780899451	-1.516390519	 0.080884
H	 3.3515886121	-0.6660750597	-0.7966601265	 0.113838
H	 2.6273452786	 0.9678453153	-0.7860523553	 0.098493
H	 2.9978029658	-0.375318528	 1.8519159322	 0.106523
H	 0.2986128879	 0.6807557483	 3.2023440967	 0.111656
H	-0.8049238277	-0.6061249957	 2.6846761512	 0.088097
H	 1.1107261579	-1.9982515484	 3.0241361156	 0.296663
104.0831	164.0994	198.6087	219.683	253.2783	290.202	397.9377	485.8875	505.1676	579.6256	646.3283	692.4626	757.868	791.4047	830.4721	877.2164	929.1275	934.0898	985.4191	1003.2374	1021.268	1028.0958	1069.6947	1087.6005	1098.3515	1125.8728	1146.1579	1174.8138	1212.0544	1230.6038	1234.6082	1260.1314	1274.287	1320.5287	1367.7351	1391.9068	1409.7994	1423.7884	1447.0436	1490.6732	1495.7573	1509.1411	1509.6705	2960.8212	3032.6828	3035.895	3051.4498	3056.4527	3095.422	3104.2808	3113.379	3132.1408	3195.941	3758.4304
CC1C2CC3N2C13CO	C[C@H]1[C@H]2C[C@@H]3N2[C@]13CO	
InChI=1S/C7H11NO/c1-4-5-2-6-7(4,3-9)8(5)6/h4-6,9H,2-3H2,1H3	InChI=1S/C7H11NO/c1-4-5-2-6-7(4,3-9)8(5)6/h4-6,9H,2-3H2,1H3/t4-,5+,6-,7+,8?/m0/s1
