23
gdb 39108	3.62608	1.06463	1.00145	0.2313	90.08	-0.2387	0.0873	0.326	1324.3993	0.207462	-351.118499	-351.110119	-351.109175	-351.151845	33.267	
C	-0.0021506343	 1.4274536265	 0.1042794789	-0.330118
C	 1.3396794926	 0.7719369917	-0.0718671719	-0.104819
C	 1.8246341244	 0.2209405872	 1.2718736127	-0.217167
C	 0.5148419807	-0.6279772938	 1.3791036334	-0.298954
C	 0.0597404091	-0.0768259865	 0.0141182219	 0.400561
C	-0.6660023013	-0.8433541578	-1.0457217776	-0.083653
C	-0.2197098803	-2.2845457412	-1.4399758214	-0.235871
C	-1.7167213965	-2.6626991656	-1.5985865297	-0.210196
C	-2.0804707173	-1.4256254482	-0.7358774299	-0.227686
H	-0.2534592647	 1.9185376537	 1.0429774905	 0.097919
H	-0.3978280143	 1.9259333196	-0.7755820647	 0.104755
H	 1.9638208298	 0.9775898796	-0.9341164296	 0.079709
H	 2.7146490413	-0.4065189298	 1.1859823036	 0.100173
H	 1.997602494	 0.9629190951	 2.0591001544	 0.092653
H	 0.7212794333	-1.7007397942	 1.3684328061	 0.101752
H	-0.1463667364	-0.4131279	 2.2255079932	 0.090505
H	-0.7214407051	-0.2283026446	-1.9521379797	 0.062152
H	 0.4358337783	-2.3917876462	-2.3079211947	 0.092731
H	 0.2364250624	-2.8101727174	-0.5955089232	 0.098886
H	-2.0555294476	-2.5482616673	-2.6325926062	 0.099434
H	-2.0332814491	-3.6444308538	-1.2386351805	 0.093754
H	-2.1722258964	-1.6891784857	 0.3228706524	 0.100387
H	-2.9512233027	-0.8302698511	-1.0216809281	 0.093094
59.2324	115.4824	134.5162	238.7398	264.9879	348.1872	420.849	456.5476	555.6643	681.3418	722.3648	779.6459	786.5039	818.1811	846.1053	888.9634	907.6394	931.6914	935.0986	947.7157	956.0318	972.1175	1002.6593	1015.4933	1037.8167	1044.1932	1081.229	1098.0202	1120.5697	1154.1377	1200.1594	1216.8641	1221.4733	1240.2066	1245.8821	1253.5136	1257.928	1269.824	1277.394	1285.5833	1313.3104	1350.5321	1423.0453	1476.0388	1481.2597	1483.8453	1486.8375	1508.1587	1512.578	3027.5636	3037.0432	3045.6292	3048.6193	3052.2599	3057.2453	3091.3144	3093.8481	3095.1705	3102.208	3110.4338	3116.758	3171.1232	3189.8827
C1C2CCC12C1CCC1	C1[C@H]2CC[C@@]12C1CCC1	
InChI=1S/C9H14/c1-2-7(3-1)9-5-4-8(9)6-9/h7-8H,1-6H2	InChI=1S/C9H14/c1-2-7(3-1)9-5-4-8(9)6-9/h7-8H,1-6H2/t8-,9+/m1/s1
