18
gdb 40870	4.06952	1.40328	1.30093	1.3678	73.92	-0.2413	0.0746	0.316	1002.9435	0.14911	-401.847525	-401.840602	-401.839658	-401.879163	27.397	
C	 0.070866216	 1.4892992629	-0.0586598777	-0.150784
O	 1.467055308	 1.4569564175	 0.2997302781	-0.274121
C	 1.4614251941	 0.0183789396	 0.4099371065	-0.157268
C	-0.0013191889	-0.0521055803	-0.0628313681	 0.342002
C	-1.1685459764	-0.7361939678	 0.6317830267	-0.137162
C	-1.8826655863	-0.9300419647	-0.655218485	-0.044859
C	-0.469209104	-0.7851642259	-1.3443783006	-0.172856
C	-0.2806038597	-2.2609622406	-0.9627568606	-0.157197
N	-1.3633279461	-2.1199442449	 0.0709889805	-0.150683
H	-0.5375848941	 1.9843916584	 0.7103430919	 0.100493
H	-0.0999923004	 1.9867300081	-1.0219697911	 0.102327
H	 2.2028974767	-0.450473183	-0.2508201988	 0.100539
H	 1.6417943328	-0.3165274716	 1.4401385672	 0.10363
H	-1.5636908649	-0.5588152787	 1.624050836	 0.100689
H	-2.9100993075	-0.7946319339	-0.9644918551	 0.102703
H	-0.2321738685	-0.3843440362	-2.3287425853	 0.079052
H	-0.6265410357	-2.9604055512	-1.7276331572	 0.11215
H	 0.696642545	-2.5810145377	-0.5808885073	 0.101346
72.7028	165.46	220.1748	326.077	417.5864	473.7797	555.6973	754.0616	766.7217	796.4073	828.3803	842.0716	877.3839	926.4695	937.6553	961.0972	970.9615	989.363	995.6626	1028.6849	1035.4399	1048.6306	1121.6818	1130.7094	1146.3502	1156.9985	1162.4733	1180.4695	1192.029	1212.8548	1232.1444	1278.7896	1300.4205	1306.4254	1348.0635	1388.2005	1505.5934	1508.9797	1531.0738	2995.0862	3006.7519	3029.7209	3042.5259	3043.8971	3104.053	3128.4007	3195.3866	3212.053
C1OCC11C2C3C1CN23	C1OCC21[C@H]1[C@H]3[C@@H]2CN13	
InChI=1S/C7H9NO/c1-4-5-6(8(1)5)7(4)2-9-3-7/h4-6H,1-3H2	InChI=1S/C7H9NO/c1-4-5-6(8(1)5)7(4)2-9-3-7/h4-6H,1-3H2/t4-,5+,6+,8?/m0/s1
