18
gdb 126814	2.81797	1.53023	1.07477	2.2254	84.46	-0.2041	-0.0521	0.1521	1134.4693	0.149894	-398.147883	-398.139818	-398.138874	-398.180676	30.793	
C	-0.0732597051	 1.5309630806	 0.0346202264	-0.382068
C	 0.0907204755	 0.0108095345	 0.0155813274	-0.119578
N	 0.744127341	-0.4981382999	 1.2257982469	-0.033693
N	 2.0603032034	-0.70133371	 1.1183323054	-0.18985
C	 2.7123117406	-1.143093852	 2.1552813994	-0.019683
C	 2.0741255042	-1.4216530499	 3.4018451912	-0.113101
C	 0.7433291361	-1.2109983054	 3.5088524564	-0.148761
C	-0.0258407644	-0.6971031203	 2.3886384329	 0.376109
N	-1.2822107317	-0.4150782283	 2.3462579325	-0.574963
H	 0.8996087174	 2.0246466115	 0.1185655815	 0.121777
H	-0.547963632	 1.8631244655	-0.8938079714	 0.116577
H	-0.7043405639	 1.8330122268	 0.8727366911	 0.149218
H	-0.8859734234	-0.4729326932	-0.0485002625	 0.142949
H	 0.7171927268	-0.3075493807	-0.8190730123	 0.118824
H	 3.7756176021	-1.2946107512	 2.0109331777	 0.122674
H	 2.6581341885	-1.7970331189	 4.2355015551	 0.113851
H	 0.2025710844	-1.4061233014	 4.4287707402	 0.112362
H	-1.7133213094	-0.6236270477	 3.2446640821	 0.207355
86.0609	104.5974	173.8984	229.6641	328.7368	371.1506	434.129	479.6507	551.902	562.8099	606.8841	727.5845	737.4159	760.9712	794.6976	833.1482	875.223	895.7354	981.8699	999.2942	1028.3824	1066.6392	1101.8642	1109.1036	1179.1304	1225.4333	1246.0511	1338.2556	1377.2445	1388.957	1403.3476	1422.7482	1434.9114	1463.8151	1490.784	1508.2588	1567.2318	1620.1107	1692.1015	3044.9613	3080.1766	3112.9347	3131.1167	3149.0206	3179.1155	3194.7821	3205.2575	3498.6979
CCN1N=CC=CC1=N	CCN1N=CCC=C1[NH]	
InChI=1S/C6H9N3/c1-2-9-6(7)4-3-5-8-9/h3-5,7H,2H2,1H3	InChI=1S/C6H10N3/c1-2-9-6(7)4-3-5-8-9/h4-5,7H,2-3H2,1H3
