14
gdb 133150	2.35643	1.82683	1.03561	2.4119	67.3	-0.244	-0.0451	0.1989	1048.5488	0.100649	-478.005366	-477.997721	-477.996777	-478.037751	28.298	
C	-0.0369787408	 1.5701334341	-0.031985899	-0.503808
C	 0.0053603531	 0.0713684881	-0.0379254419	 0.038209
C	-0.1135513851	-0.7089361609	-1.1646381584	 0.239477
F	-0.2796196588	-0.1448501176	-2.35917219	-0.062769
C	-0.0622021269	-2.1039223042	-1.0746888729	-0.096838
N	 0.1006826457	-2.7291178249	 0.0807279728	-0.201627
N	 0.2200839451	-2.0121594011	 1.1967315486	-0.304656
C	 0.1745218451	-0.6879025147	 1.1365969672	 0.40668
O	 0.301450016	-0.024096139	 2.3002040669	-0.402994
H	 0.8890008064	 1.980264669	 0.383437233	 0.152647
H	-0.1744695877	 1.95952011	-1.041187425	 0.143605
H	-0.853804521	 1.9301616467	 0.6015727103	 0.152645
H	-0.1560365976	-2.7182845545	-1.9633981361	 0.133233
H	 0.4065792865	-0.7037654113	 2.9830221644	 0.306198
90.5964	139.1337	243.9591	263.2298	284.7845	333.0018	487.0137	529.7828	553.5384	563.9559	581.357	668.3417	695.6238	789.3896	862.2533	913.7094	952.1068	1061.6248	1116.5981	1142.7341	1226.8935	1233.6531	1294.5899	1348.4209	1409.6799	1421.2697	1478.6457	1483.0413	1515.6147	1615.988	1643.7683	3046.9208	3100.6373	3149.2968	3196.1781	3742.2808
CC1=C(F)C=NN=C1O	Cc1c(F)cnnc1O	
InChI=1S/C5H5FN2O/c1-3-4(6)2-7-8-5(3)9/h2H,1H3,(H,8,9)	InChI=1S/C5H5FN2O/c1-3-4(6)2-7-8-5(3)9/h2H,1H3,(H,8,9)
