16
gdb 130189	3.20633	1.58308	1.07853	2.6739	71.87	-0.1865	0.0313	0.2177	1066.4717	0.12771	-434.066351	-434.058643	-434.057699	-434.098439	29.145	
N	-0.0256589445	 1.4046106482	-0.0970794587	-0.597621
C	 0.05861313	 0.0123240426	-0.0470661926	 0.221242
N	-1.0205534531	-0.7608105854	-0.2140754024	-0.30526
N	-0.5692480386	-2.0489960463	-0.1626053314	-0.341672
C	 0.7726214415	-2.0941032388	 0.0043706541	 0.277252
C	 1.2000687785	-0.8034532448	 0.0954519254	 0.265183
O	 2.5393121127	-0.6567735773	 0.3502376064	-0.301959
C	 3.0852241447	-1.9905021108	 0.1714869267	-0.088673
C	 1.9127122797	-3.0332484063	 0.2435912091	-0.373888
H	 0.5825878701	 1.8589748543	 0.5714492334	 0.24925
H	-0.9805963263	 1.7175104459	 0.025476813	 0.249088
H	-1.2154837294	-2.789311254	-0.3668142242	 0.267709
H	 3.5593344527	-2.0324325006	-0.816316421	 0.116735
H	 3.8471723259	-2.1448500571	 0.9380499352	 0.118993
H	 1.8531144931	-3.5235478041	 1.2239537379	 0.122775
H	 2.042687293	-3.8164695758	-0.509494501	 0.120846
127.7147	153.7923	221.887	249.8173	273.2514	303.6064	407.1319	512.6327	608.3013	630.1793	645.8576	688.7847	757.4087	775.9116	838.2142	848.6608	927.1894	986.2329	1062.5954	1075.4268	1104.4214	1176.6812	1193.8491	1239.2803	1245.3188	1285.9792	1345.309	1391.0514	1444.5637	1490.938	1511.043	1545.7677	1593.5946	1635.5324	1656.465	3017.4674	3032.0777	3072.9572	3113.1155	3537.8611	3634.2989	3696.0504
NC1=NNC2=C1OCC2	Nc1n[nH]c2c1OCC2	
InChI=1S/C5H7N3O/c6-5-4-3(7-8-5)1-2-9-4/h1-2H2,(H3,6,7,8)	InChI=1S/C5H7N3O/c6-5-4-3(7-8-5)1-2-9-4/h1-2H2,(H3,6,7,8)
