19
gdb 70697	2.35204	1.87779	1.21245	3.5277	75.77	-0.2324	0.0262	0.2586	1055.2738	0.161921	-419.238325	-419.230234	-419.22929	-419.270585	31.785	
C	 0.0583458782	 1.5192745076	-0.0214371064	-0.468056
C	 0.0730562183	 0.0099420033	-0.0015482576	 0.194565
N	-0.794237208	-0.7117834816	 0.9705408614	-0.365958
C	 0.6635708804	-0.7384406686	 1.1456461089	-0.073108
C	 1.3286128694	-2.0730123444	 0.8901368585	-0.217528
C	 0.6173691815	-2.8181059922	-0.2443777921	-0.15986
N	 0.456923132	-1.9518194915	-1.4035835127	-0.333071
C	 0.1221727058	-0.6289993679	-1.3739180473	 0.40627
O	-0.0846078163	 0.0152317672	-2.3885516746	-0.384116
H	 0.9421900491	 1.9125839383	-0.5315567722	 0.135945
H	-0.8166746756	 1.8866798117	-0.5637626091	 0.143895
H	 0.0409223439	 1.9171046967	 0.998558966	 0.10057
H	-1.217626895	-0.0326199053	 1.5985640062	 0.232616
H	 1.092244873	-0.1347689668	 1.9434096291	 0.085965
H	 2.3795007043	-1.9022394643	 0.6272550476	 0.11094
H	 1.3103388287	-2.6930159307	 1.7936195886	 0.107934
H	 1.2066397576	-3.6885851426	-0.5470947171	 0.106645
H	-0.3546629829	-3.176207816	 0.113702905	 0.130514
H	 0.4104524858	-2.3673895329	-2.3217772223	 0.245839
103.6952	183.1498	218.2071	264.7395	303.3489	315.3461	388.579	443.3553	495.742	533.5948	578.2027	655.0904	674.4678	756.1637	800.7948	862.0832	893.3735	931.6525	959.4175	973.6436	1036.3204	1080.0429	1107.5132	1116.0756	1134.0799	1160.4179	1238.7108	1261.2005	1289.2347	1305.2081	1372.2044	1379.9559	1415.0466	1420.012	1452.2224	1470.3972	1476.4211	1485.6396	1498.6327	1517.1342	1779.4996	3032.89	3035.2635	3040.13	3074.0077	3086.4957	3111.9688	3121.3742	3125.8686	3495.8432	3620.449
CC12NC1CCNC2=O	C[C@]12N[C@H]1CCNC2=O	
InChI=1S/C6H10N2O/c1-6-4(8-6)2-3-7-5(6)9/h4,8H,2-3H2,1H3,(H,7,9)	InChI=1S/C6H10N2O/c1-6-4(8-6)2-3-7-5(6)9/h4,8H,2-3H2,1H3,(H,7,9)/t4-,6-/m0/s1
