16
gdb 131147	3.78681	1.2626	1.03231	1.3062	70.5	-0.243	-0.0061	0.2369	1125.244	0.126045	-434.052611	-434.04491	-434.043966	-434.08526	29.251	
O	 0.2310592267	 1.3282485346	 0.336657469	-0.456067
C	 0.0458034218	-0.0358464198	 0.0646522411	 0.292834
C	-0.6879287823	-0.8774452123	 1.0841262326	-0.323529
C	-1.3844873445	-0.4387519094	-0.1810092484	-0.283478
C	 1.131211565	-0.6322937703	-0.7465219869	 0.269906
N	 1.2644860881	-1.946477799	-0.9516533602	-0.301664
N	 2.3411867418	-2.0250764064	-1.72574791	-0.069312
N	 2.9326181798	-0.8842314131	-2.0414881199	-0.197379
C	 2.1740922126	 0.0254813695	-1.4272985572	-0.146391
H	 0.926346917	 1.4037255909	 1.0003704424	 0.284631
H	-0.3945198765	-1.9163914671	 1.1788435906	 0.135335
H	-0.9657359853	-0.3772793585	 2.0051604209	 0.115455
H	-2.1184396716	 0.3549299336	-0.1037826151	 0.127345
H	-1.5686424887	-1.1786934002	-0.9509046827	 0.129015
H	 2.6938339273	-2.911502828	-2.0484770768	 0.292731
H	 2.389454349	 1.0782353455	-1.4984957193	 0.130567
51.9894	162.4663	183.0343	316.2118	330.156	358.8979	456.5627	501.7763	517.7599	547.4072	720.4142	748.843	777.5222	870.2452	884.2455	912.3443	932.4945	990.8997	995.523	1021.3367	1057.1562	1082.6086	1137.6666	1184.6553	1196.7913	1231.9842	1258.1473	1269.1045	1355.1287	1376.2536	1404.684	1444.5338	1477.2499	1503.5927	1567.6478	3138.6319	3143.5579	3229.7634	3243.6911	3286.0733	3669.1633	3789.1118
OC1(CC1)C1=NNN=C1	OC1(CC1)c1n[nH]nc1	
InChI=1S/C5H7N3O/c9-5(1-2-5)4-3-6-8-7-4/h3,9H,1-2H2,(H,6,7,8)	InChI=1S/C5H7N3O/c9-5(1-2-5)4-3-6-8-7-4/h3,9H,1-2H2,(H,6,7,8)
