25
gdb 93833	2.26666	1.30005	0.98837	1.6276	88.34	-0.2561	0.0611	0.3172	1348.1217	0.229848	-389.524567	-389.514759	-389.513815	-389.558353	38.671	
C	-0.0296140831	 1.5709033586	-0.0117988923	-0.403532
C	 0.0259407318	 0.0405882448	-0.0140290866	 0.040423
C	 0.6813933914	-0.5064774668	-1.2931310698	-0.199542
C	 0.7624678269	-2.040248014	-1.2896907509	-0.235847
C	 1.481828732	-2.5783868696	-0.043927728	 0.141229
O	 2.884273732	-2.3110476472	-0.088453	-0.443117
C	 0.8251204419	-2.0443333468	 1.2487460922	 0.008214
C	 1.5321606629	-2.5692117498	 2.5013552374	-0.40217
C	 0.751762943	-0.5065496472	 1.2269836473	-0.195524
H	 0.97890293	 2.0012445343	-0.0355044496	 0.109607
H	-0.5723170205	 1.9513196542	-0.8838341672	 0.109814
H	-0.5294530863	 1.9500906472	 0.8859678934	 0.110392
H	-1.0074956527	-0.3377695526	 0.0143750997	 0.068728
H	 0.1316978108	-0.1630597207	-2.1770643408	 0.093356
H	 1.6906635102	-0.0769583753	-1.3899429543	 0.081741
H	-0.2532052816	-2.4563722798	-1.315448911	 0.092227
H	 1.2804928585	-2.4019338458	-2.1841477437	 0.098875
H	 1.4225417508	-3.6730249911	-0.0402095541	 0.074852
H	 3.0078702734	-1.3594665794	-0.160679661	 0.279014
H	-0.2079188078	-2.4230117679	 1.2488094833	 0.066472
H	 2.5833441424	-2.2675293092	 2.5041790221	 0.123534
H	 1.0589334912	-2.1866943215	 3.4117234508	 0.102975
H	 1.5039410105	-3.6634773011	 2.541346286	 0.107945
H	 1.7703172149	-0.0883269454	 1.2636706967	 0.079656
H	 0.2560713274	-0.1503306177	 2.1382920805	 0.090678
111.5472	158.7402	205.5798	230.1681	235.2582	249.3924	260.1276	276.2367	355.8583	396.144	417.9845	447.6598	468.6188	562.0981	656.3327	772.2763	810.5895	850.5506	872.067	929.0913	952.1027	958.7633	985.2622	1005.4716	1015.2182	1052.7215	1078.7979	1105.6858	1112.2201	1147.6405	1163.7131	1203.5984	1238.3938	1252.6292	1290.4354	1299.6584	1333.0018	1336.7511	1359.9785	1372.9747	1381.7841	1386.1601	1394.5297	1407.9054	1413.6163	1430.7904	1478.9138	1487.5007	1492.0043	1497.5972	1501.2375	1502.0718	1505.8303	2980.1162	2985.9217	2993.8337	3001.8978	3022.0827	3023.3878	3032.5588	3043.2528	3047.8885	3056.736	3075.3975	3088.406	3095.7483	3096.2639	3115.1918	3821.5898
CC1CCC(O)C(C)C1	C[C@H]1CC[C@@H](O)[C@@H](C)C1	
InChI=1S/C8H16O/c1-6-3-4-8(9)7(2)5-6/h6-9H,3-5H2,1-2H3	InChI=1S/C8H16O/c1-6-3-4-8(9)7(2)5-6/h6-9H,3-5H2,1-2H3/t6-,7-,8+/m0/s1
