20
gdb 38378	2.17488	2.14099	1.36068	1.424	74.18	-0.2045	0.071	0.2755	993.9617	0.173774	-440.23735	-440.229992	-440.229048	-440.268759	29.974	
C	-0.1227171613	 1.3891205406	 0.2488202205	-0.189022
C	 1.37228812	 1.7360189694	 0.0388141499	 0.12645
C	 1.6267417778	 0.2040798381	 0.0810211891	-0.225536
N	 0.1604088633	-0.0610352002	 0.0403623514	-0.085131
C	-0.3974980716	-0.6525025455	-1.1652919508	-0.173157
C	 0.2162434219	-0.220603151	-2.5135521489	-0.091448
O	 0.3199408369	 1.1905778045	-2.6669580433	-0.241121
C	 1.5649194475	 1.7797113541	-2.3909143273	 0.01696
O	 1.6565854133	 2.4422329382	-1.1567193358	-0.25767
H	-0.4881310945	 1.5841574281	 1.2645459897	 0.094683
H	-0.7962664647	 1.8477329956	-0.477473055	 0.120014
H	 1.8494280386	 2.3204715489	 0.8287477636	 0.0866
H	 2.2206067776	-0.2278350544	-0.728054962	 0.101254
H	 2.0669671329	-0.124992296	 1.0291532065	 0.105265
H	-0.3206994196	-1.7485231571	-1.1123401786	 0.097768
H	-1.4676242115	-0.4163091683	-1.1668878829	 0.113198
H	 1.2043703976	-0.6805510379	-2.6575152679	 0.096136
H	-0.4241127903	-0.5869754491	-3.3248686395	 0.107048
H	 2.3585517041	 1.0220275966	-2.4946033417	 0.082627
H	 1.7244670421	 2.5730232954	-3.127134787	 0.115084
160.1236	202.6912	263.2442	301.0006	360.3095	377.1602	413.7574	475.0974	562.1183	588.1218	706.8734	779.4214	820.6778	833.0872	867.0833	922.7665	963.1945	988.9599	1003.1354	1022.1026	1067.6948	1094.8338	1101.9782	1131.2192	1158.5846	1189.6053	1216.066	1246.2486	1278.0934	1281.813	1293.6199	1312.2996	1328.88	1330.9183	1386.8124	1395.5361	1402.5146	1452.3551	1473.4271	1483.2463	1490.946	1503.2809	1523.5868	2966.5063	2994.2647	3004.2365	3022.5118	3036.4977	3051.2138	3070.1648	3082.4391	3084.2627	3096.7821	3114.4204
C1C2CN1CCOCO2	C1[C@H]2CN1CCOCO2	
InChI=1S/C6H11NO2/c1-2-8-5-9-6-3-7(1)4-6/h6H,1-5H2	InChI=1S/C6H11NO2/c1-2-8-5-9-6-3-7(1)4-6/h6H,1-5H2
