14
gdb 129496	4.37256	1.16505	0.921	3.8428	68.09	-0.2288	-0.0318	0.1969	1180.7203	0.102783	-466.224831	-466.216674	-466.215729	-466.257862	29.778	
N	-0.1228856061	 1.2840774213	-0.0609495373	-0.566029
C	 0.0495872365	-0.0585856133	 0.0012727612	 0.527566
O	 1.0947194355	-0.6532249182	 0.0258337409	-0.348493
N	-1.2114454867	-0.7523678994	 0.0202084838	 0.024506
N	-2.3848380172	-0.1126725799	 0.0274974645	-0.218245
C	-3.2814179473	-1.0845980456	 0.0547183345	-0.108449
C	-2.5949029969	-2.3284161303	 0.0577334963	 0.345032
N	-3.1184378128	-3.6054526009	 0.1507599052	-0.590022
N	-1.2903494533	-2.0942420569	 0.0310264798	-0.273252
H	 0.6989522065	 1.8564534417	 0.0110142345	 0.274246
H	-1.0436524648	 1.6842756652	 0.0025823073	 0.283159
H	-4.3395400393	-0.8754112469	 0.0737842545	 0.129515
H	-3.9857803414	-3.7404121834	-0.3482036843	 0.255491
H	-2.4417799227	-4.3220575234	-0.0747731209	 0.264975
65.1757	129.4234	200.7588	212.8887	274.0188	341.6752	381.7974	429.9739	541.6391	568.0064	632.0996	652.5033	666.6739	738.1991	758.7465	764.4334	852.7192	982.7155	1033.4818	1094.8363	1131.172	1212.5824	1271.602	1305.6692	1376.3006	1440.5753	1489.2473	1590.9528	1600.7817	1655.8826	1865.7185	3261.9245	3560.979	3613.1899	3660.495	3757.5091
NC(=O)N1N=CC(N)=N1	NC(=O)n1ncc(N)n1	
InChI=1S/C3H5N5O/c4-2-1-6-8(7-2)3(5)9/h1H,(H2,4,7)(H2,5,9)	InChI=1S/C3H5N5O/c4-2-1-6-8(7-2)3(5)9/h1H,(H2,4,7)(H2,5,9)
