18
gdb 23552	2.32667	1.54297	1.02628	2.1399	75.53	-0.2452	0.0013	0.2464	1157.0631	0.147314	-439.006756	-438.998279	-438.997335	-439.039714	32.623	
O	 0.1277489398	 1.4500220397	-0.0056133912	-0.428058
C	 0.1108082168	 0.0429190568	-0.1008131491	-0.072462
C	-1.299568809	-0.5345908523	 0.0301056372	-0.12465
C	-1.5346281574	-2.0555381635	-0.1031734073	-0.074592
C	-0.9178904522	-2.8067681419	 1.0333099897	-0.283787
C	-2.2344316712	-2.0912599433	 1.2755762424	-0.144842
C	-1.9820603819	-0.633076542	 1.4039399096	 0.431742
N	-2.3643012924	 0.1766904862	 2.3007154296	-0.270456
O	-1.9450936612	 1.5003145752	 1.9948467895	-0.398897
H	-0.3985228351	 1.6908339308	 0.7700993844	 0.293267
H	 0.5054181425	-0.2105224742	-1.0923353697	 0.105983
H	 0.7806372117	-0.4232737992	 0.6396201356	 0.081151
H	-1.9623602833	 0.0252771495	-0.6406119133	 0.112396
H	-1.8554832611	-2.5458077768	-1.0129191509	 0.102397
H	-1.0085506283	-3.8870058133	 0.9785703952	 0.124064
H	-0.0086667596	-2.463513039	 1.5160544944	 0.125773
H	-3.1241297566	-2.617245971	 1.5947446044	 0.10984
H	-2.2595008214	 1.9993674083	 2.7555970094	 0.311131
93.8251	150.1735	195.8009	225.2244	255.1793	299.5145	378.5078	416.6962	450.661	508.3951	558.5664	627.7547	699.8197	752.9974	784.1104	850.9187	912.9951	945.3947	967.9762	993.1879	1007.8948	1045.8213	1071.203	1085.6817	1094.9604	1123.4348	1155.1353	1185.8664	1204.1782	1252.7837	1292.8169	1314.009	1343.2368	1392.5105	1400.1825	1466.9005	1494.6292	1511.0924	1777.0412	2972.3326	3044.3934	3054.487	3128.6775	3198.7502	3206.3634	3216.0134	3726.073	3829.2721
OCC1C2CC2C1=NO	OC[C@H]1[C@H]2C[C@H]2C1=NO	
InChI=1S/C6H9NO2/c8-2-5-3-1-4(3)6(5)7-9/h3-5,8-9H,1-2H2	InChI=1S/C6H9NO2/c8-2-5-3-1-4(3)6(5)7-9/h3-5,8-9H,1-2H2/t3-,4+,5-/m0/s1
