21
gdb 82511	2.75452	1.55107	1.35254	1.6529	81.07	-0.2275	0.0816	0.3091	1063.9928	0.184221	-383.233811	-383.225584	-383.224639	-383.266009	32.921	
C	-0.2292411838	 1.5262045187	 0.0056153142	-0.431483
C	-0.000905904	 0.0330507044	-0.0624445656	 0.017225
C	 0.6437761541	-0.6701608277	-1.2044871432	-0.086488
C	 1.4452621006	 0.1173102106	-2.195445606	-0.0858
N	 2.8127861812	-0.3849805734	-2.4354615963	-0.385108
C	 2.6061161284	 0.7136604584	-1.475314212	 0.345198
C	 3.2590435703	 2.0289181467	-1.8148770284	-0.473121
C	 2.4823550147	 0.2947294148	-0.0078356253	-0.246962
N	 1.3186131704	-0.6130923598	 0.1212759941	-0.123259
H	 0.4474426722	 2.0963041022	-0.6325696788	 0.133809
H	-1.2530743276	 1.7523650791	-0.3102344554	 0.124771
H	-0.1176807789	 1.889189173	 1.0336876654	 0.125913
H	-0.77612817	-0.5330654742	 0.4525343844	 0.091873
H	 0.2756726574	-1.6479599013	-1.5115566132	 0.092151
H	 0.9633450694	 0.5886550174	-3.0475241251	 0.0908
H	 2.9488375462	-1.2705885022	-1.9493881247	 0.231546
H	 3.2657564916	 2.1855181108	-2.8960269323	 0.131711
H	 2.7372596105	 2.8677681134	-1.3402373988	 0.115083
H	 4.2992123317	 2.045643225	-1.469329074	 0.12217
H	 3.3767897282	-0.244341318	 0.3295760334	 0.105728
H	 2.3716289373	 1.1686009922	 0.6448274474	 0.104243
136.4417	177.3177	205.5634	215.7927	297.4059	316.2566	387.4471	396.5965	498.2341	535.3279	606.141	706.7043	738.4709	765.2672	793.6925	840.0032	884.3278	926.6091	964.108	994.9628	1015.1926	1019.8766	1034.0159	1079.2014	1101.2794	1123.1882	1136.1652	1161.1471	1169.4157	1190.1711	1229.746	1289.5618	1298.3595	1313.9638	1329.1049	1376.35	1407.8464	1415.5326	1427.8237	1442.9923	1486.2296	1493.4666	1496.1493	1502.7048	1513.7412	3020.1472	3028.8741	3037.9018	3057.7856	3086.0787	3092.4887	3104.656	3117.008	3123.3672	3142.3287	3146.6255	3466.7131
CC1C2C3NC3(C)CN12	C[C@H]1[C@H]2[C@@H]3N[C@]3(C)CN12	
InChI=1S/C7H12N2/c1-4-5-6-7(2,8-6)3-9(4)5/h4-6,8H,3H2,1-2H3	InChI=1S/C7H12N2/c1-4-5-6-7(2,8-6)3-9(4)5/h4-6,8H,3H2,1-2H3/t4-,5-,6-,7+,9?/m0/s1
