17
gdb 32332	3.29622	1.31416	0.9509	4.2237	72.69	-0.1806	0.0562	0.2368	1205.6267	0.135193	-455.152911	-455.143603	-455.142659	-455.187978	32.58	
C	 0.7107336715	 0.7257671558	 0.5737491988	-0.253514
O	-0.6050645851	 1.0033937899	 0.1099497871	-0.256947
C	-1.4548235254	-0.0272981209	 0.2000822568	 0.399649
C	-1.344966024	-1.2881957923	 0.6486683098	-0.228553
O	-2.5862885303	-1.9162219426	 0.4875024747	-0.224891
C	-3.4593158858	-1.012263427	-0.0622031024	 0.468321
N	-4.6836737096	-1.1859559458	-0.3507944047	-0.618072
N	-2.7530543785	 0.1609253761	-0.2563285264	-0.175948
C	-3.3352962236	 1.3739471368	-0.7853729406	-0.333958
H	 1.2859221952	 1.6419287621	 0.441483269	 0.146163
H	 0.6945968644	 0.4453265097	 1.6339784346	 0.13458
H	 1.162050735	-0.0863881224	-0.0090172665	 0.13461
H	-0.5493043264	-1.8696278253	 1.0712946498	 0.142581
H	-4.9716495284	-2.1353533559	-0.1304181118	 0.222342
H	-3.8615777652	 1.9414073716	-0.0090520658	 0.136581
H	-2.5446733574	 1.9945552358	-1.2089930729	 0.143027
H	-4.0547250664	 1.1006491345	-1.5595251695	 0.164029
36.7725	84.1221	116.6519	179.7292	196.3987	206.0474	282.7434	360.9218	385.246	545.1931	567.0102	623.9155	630.6576	713.9498	735.2051	744.372	800.592	970.9974	1015.539	1071.818	1095.9501	1158.9526	1183.2961	1198.2918	1221.2266	1245.6855	1278.8616	1372.5987	1432.3784	1465.5976	1481.4546	1485.2721	1501.9957	1509.2478	1529.2062	1717.2051	1778.944	3015.9984	3034.9543	3078.6646	3111.3374	3153.9431	3156.3425	3324.3245	3543.1582
COC1=COC(=N)N1C	COC1=CO[C@H]([NH])N1C	
InChI=1S/C5H8N2O2/c1-7-4(8-2)3-9-5(7)6/h3,6H,1-2H3	InChI=1S/C5H9N2O2/c1-7-4(8-2)3-9-5(7)6/h3,5-6H,1-2H3/t5-/m1/s1
