25
gdb 108820	2.92675	1.00205	0.82714	0.2217	95.71	-0.2248	0.0319	0.2567	1544.0533	0.228857	-352.387463	-352.377223	-352.376278	-352.422529	38.892	
C	-0.0723365726	 1.5684409678	 0.483583981	-0.371563
C	-0.0990262264	 0.2940451966	-0.37924959	-0.290769
C	-1.383526993	-0.4758520707	-0.2761482188	 0.340251
C	-2.2752521041	-0.6825875436	-1.2486148579	-0.184068
C	-3.4235909064	-1.5721342114	-0.8257540937	-0.032413
C	-3.3045364739	-2.9726951335	-1.455204084	-0.386816
C	-3.3028684585	-1.5239425911	 0.7321050409	 0.033825
C	-3.8232864875	-2.7377644296	 1.5002797645	-0.411347
C	-1.8158841941	-1.18098633	 0.9959665881	-0.316368
H	 0.8808860286	 2.0943016192	 0.3708905831	 0.111332
H	-0.8749174155	 2.2529303532	 0.1914354406	 0.11889
H	-0.2004572073	 1.3378769899	 1.545759827	 0.118184
H	 0.0792019745	 0.562301626	-1.4268711707	 0.098898
H	 0.7376493896	-0.3520866418	-0.0768188697	 0.098943
H	-2.1689497967	-0.3196983283	-2.2671739673	 0.07642
H	-4.3908722375	-1.1546816596	-1.135927875	 0.064558
H	-2.3696356261	-3.4635607467	-1.164575691	 0.113357
H	-4.1363739203	-3.6207443177	-1.1607472116	 0.110259
H	-3.310311197	-2.9012336694	-2.548054676	 0.108459
H	-3.8839716471	-0.6492904971	 1.0506136139	 0.073578
H	-3.2673112693	-3.6472092288	 1.2496325734	 0.114914
H	-3.7265553671	-2.5816391076	 2.5802697163	 0.108995
H	-4.88198243	-2.9247522709	 1.2891759828	 0.109959
H	-1.2092036788	-2.086276694	 1.1547763214	 0.09588
H	-1.6896160635	-0.5718082307	 1.8986399828	 0.096643
64.407	97.6049	125.6561	190.6217	227.4805	242.3561	245.6752	273.4979	298.8111	387.7861	460.2436	478.2427	520.1498	563.0081	673.0665	751.9588	786.7795	861.3103	871.6517	896.0483	926.6222	950.3994	968.0209	999.7497	1030.0443	1058.7579	1071.2621	1090.1436	1104.3446	1130.4943	1158.0117	1192.6707	1216.807	1264.1902	1295.9522	1304.4798	1328.8164	1353.6494	1360.3599	1363.1021	1373.1853	1403.8772	1406.4065	1413.1861	1481.1378	1488.1031	1489.6826	1493.6775	1497.9272	1504.87	1506.6868	1508.368	1714.817	2987.4195	3002.5763	3005.1099	3021.1521	3027.4014	3030.6147	3036.5794	3051.1568	3057.2968	3090.1606	3095.1279	3100.6693	3102.1086	3106.4214	3109.7677	3167.0912
CCC1=CC(C)C(C)C1	CCC1=C[C@@H](C)[C@@H](C)C1	
InChI=1S/C9H16/c1-4-9-5-7(2)8(3)6-9/h5,7-8H,4,6H2,1-3H3	InChI=1S/C9H16/c1-4-9-5-7(2)8(3)6-9/h5,7-8H,4,6H2,1-3H3/t7-,8+/m1/s1
