17
gdb 9831	3.86988	1.50651	1.20277	2.9394	66.46	-0.2379	0.0341	0.272	1025.779	0.141262	-401.019201	-401.01049	-401.009546	-401.052576	31.568	
C	 0.0465397522	 1.4037193167	 0.1032472751	-0.332102
N	 0.119200859	-0.03708673	-0.0146425367	-0.325623
C	 0.666438878	-0.65526666	-1.0937641835	 0.35384
O	 1.1962490671	-0.0740766629	-2.0292521278	-0.401064
C	 0.5634090404	-2.1617967318	-1.0532815817	 0.279797
O	 0.0148795188	-2.7185433066	 0.1171704876	-0.468729
C	 0.1975073458	-2.8435403654	-2.3484292779	-0.27382
C	 1.6025737322	-2.9441341863	-1.8205561941	-0.308469
H	 0.4867627993	 1.7465418002	 1.0459818753	 0.122503
H	 0.6080629836	 1.8281089814	-0.7302778545	 0.168479
H	-0.9884920366	 1.7618174299	 0.0519987578	 0.125479
H	-0.3663262058	-0.6296436128	 0.6401948728	 0.250801
H	 0.7348924853	-2.8552606343	 0.7430345359	 0.288148
H	-0.4427046344	-3.7127241185	-2.2548825592	 0.124175
H	 0.0214139221	-2.2037122542	-3.2042562916	 0.140148
H	 2.3734129793	-2.3646149981	-2.3134596766	 0.144462
H	 1.9103639236	-3.8892369573	-1.386491981	 0.111976
71.3786	92.4037	139.5089	200.0474	268.9611	312.3174	345.6563	357.2406	415.7533	475.3378	553.3826	625.3101	761.926	780.6045	805.6024	895.0072	914.9229	942.0599	994.8775	1058.9687	1074.9227	1087.7931	1153.949	1175.0576	1203.1122	1208.5861	1275.3243	1326.2652	1350.2586	1436.1573	1439.6924	1475.9915	1495.2967	1500.5693	1567.4272	1767.8644	3024.8375	3076.3301	3140.0316	3148.6316	3149.1335	3237.0378	3251.0721	3634.2137	3795.9812
CNC(=O)C1(O)CC1	CNC(=O)C1(O)CC1	
InChI=1S/C5H9NO2/c1-6-4(7)5(8)2-3-5/h8H,2-3H2,1H3,(H,6,7)	InChI=1S/C5H9NO2/c1-6-4(7)5(8)2-3-5/h8H,2-3H2,1H3,(H,6,7)
