21
gdb 82207	2.44984	1.79468	1.33832	2.5155	81.49	-0.2186	0.0677	0.2863	1051.0202	0.18401	-383.228985	-383.220742	-383.219798	-383.261134	33.251	
C	 0.0853705321	 1.550826857	-0.0055757034	-0.39416
C	 0.0239575603	 0.0208029953	-0.0037236315	-0.03383
C	 0.6951694911	-0.6338613281	-1.2192993365	-0.059171
N	 2.1267775695	-0.3229389961	-1.3927186365	-0.312248
C	 1.7300082631	-1.5977297511	-0.7584238464	-0.044093
C	 1.734879783	-1.5831812847	 0.7555000303	-0.098822
N	 2.1225698176	-0.2895077318	 1.36312001	-0.345691
C	 0.6916296081	-0.6303266107	 1.2291165362	 0.319807
C	-0.1388393001	-0.8402690794	 2.4699197026	-0.490466
H	 1.1281396968	 1.8736015014	-0.0136866825	 0.156908
H	-0.4167084029	 1.9639587743	-0.8867265454	 0.101809
H	-0.403718169	 1.9683077366	 0.8812895827	 0.10176
H	-1.0260373559	-0.3014199356	-0.0071833951	 0.0642
H	 0.0942558287	-0.812811268	-2.1066432509	 0.078586
H	 2.3863910719	-0.5061559612	-2.3596221925	 0.225615
H	 1.9273722397	-2.5320330935	-1.2732812176	 0.078744
H	 1.9562249508	-2.5032418231	 1.2875937767	 0.076314
H	 2.4093437588	-0.4558273041	 2.326484326	 0.219273
H	-0.4380325695	 0.1167796993	 2.9142793538	 0.125471
H	-1.0534066093	-1.4019343159	 2.248861739	 0.120062
H	 0.422390255	-1.3971241606	 3.228391571	 0.109931
138.9884	206.9322	210.7563	233.6598	238.7219	286.7625	378.0566	422.2206	541.9722	555.9942	641.5335	686.3173	696.3768	805.0752	823.0465	853.879	870.0694	900.5987	923.1968	931.5345	972.0225	1004.7647	1029.8562	1057.7433	1074.2142	1098.4963	1116.6052	1130.063	1140.8267	1159.6021	1186.4401	1233.4004	1284.4567	1296.8311	1336.5727	1357.1954	1377.4976	1400.6483	1413.7124	1427.5865	1440.4172	1485.2096	1494.1358	1500.797	1502.5735	3014.9727	3020.6787	3035.0236	3080.9836	3092.3217	3092.8086	3139.4371	3141.969	3153.6775	3170.2212	3473.0566	3488.4191
CC1C2NC2C2NC12C	C[C@H]1[C@H]2N[C@H]2[C@H]2N[C@@]12C	
InChI=1S/C7H12N2/c1-3-4-5(8-4)6-7(3,2)9-6/h3-6,8-9H,1-2H3	InChI=1S/C7H12N2/c1-3-4-5(8-4)6-7(3,2)9-6/h3-6,8-9H,1-2H3/t3-,4+,5+,6+,7-/m0/s1
