12
gdb 8757	4.33505	1.45126	1.09481	1.5936	58.68	-0.2937	-0.0953	0.1984	974.8437	0.082537	-414.708012	-414.69991	-414.698966	-414.741154	26.826	
C	-0.0269481699	 1.4810276371	-0.0128059254	-0.363185
N	-0.0059630645	 0.0140228387	 0.0010163354	-0.164557
C	-0.0062473073	-0.6585795857	 1.2370488336	 0.178242
O	-0.0229124583	-0.0849097066	 2.2940364595	-0.293824
C	 0.0141684328	-0.7387207324	-1.1609321385	 0.377931
O	 0.030743104	-1.9452330453	-1.2174100647	-0.31333
C	 0.011148978	 0.0658628677	-2.3968585887	 0.223158
N	 0.0097801373	 0.6502474366	-3.3935412307	-0.308136
H	 0.8625929076	 1.8765397474	-0.5076756792	 0.162652
H	-0.919274436	 1.8509132502	-0.5222620767	 0.162686
H	-0.0400667342	 1.8009466788	 1.0279184036	 0.184772
H	 0.0104688005	-1.7479983765	 1.1107801917	 0.153589
66.4667	105.2988	149.2039	177.3275	284.3169	290.5289	331.9132	351.2959	491.4024	519.2393	675.2112	768.5669	815.962	966.2145	1051.5516	1122.3167	1155.1614	1279.4696	1339.324	1421.8005	1454.5802	1502.5017	1503.7479	1779.6677	1821.5539	2350.7169	3063.4915	3079.388	3135.7496	3175.3842
CN(C=O)C(=O)C#N	CN(C=O)C(=O)C#N	
InChI=1S/C4H4N2O2/c1-6(3-7)4(8)2-5/h3H,1H3	InChI=1S/C4H4N2O2/c1-6(3-7)4(8)2-5/h3H,1H3
