18
gdb 35232	3.52262	1.1205	0.97136	1.1694	78.39	-0.2452	0.0284	0.2736	1230.7613	0.147653	-401.886332	-401.877958	-401.877014	-401.920065	31.644	
C	-0.190977385	-1.1967331483	 0.020594561	-0.434683
C	-0.0927846536	 0.0013248164	 0.0545988601	 0.382036
C	 0.0274281007	 1.432363012	 0.0481504767	-0.324468
N	 0.646365077	 2.084864869	 1.2329761805	-0.357941
C	 1.3505496483	 2.1264199505	-0.045803977	 0.31127
C	 2.6947450958	 1.4100102762	-0.1571599188	-0.298166
C	 3.4205092019	 2.2396166415	-1.2272325831	-0.085286
O	 2.8926832274	 3.5579916144	-1.0999934528	-0.244677
C	 1.5042248759	 3.4125357531	-0.8699458514	-0.14795
H	-0.2814632718	-2.2546947805	 0.0070631039	 0.199513
H	-0.8106631456	 1.9506965463	-0.4165665876	 0.107555
H	 0.1709554521	 2.9674530555	 1.4123209569	 0.23245
H	 3.2113783367	 1.4677264626	 0.8045011874	 0.124814
H	 2.5864420462	 0.3567691776	-0.4257920027	 0.12135
H	 4.5017795464	 2.2991864984	-1.0863492193	 0.114858
H	 3.2214428074	 1.8427733372	-2.2361158099	 0.092836
H	 0.9559902331	 3.3283980821	-1.8235312759	 0.097298
H	 1.146937837	 4.305005706	-0.344897968	 0.109193
35.9606	122.2166	137.9727	247.6317	293.3513	359.8753	369.3139	456.0267	549.3527	580.8476	611.6188	661.258	671.5093	761.3938	805.2956	873.7654	899.1371	942.0408	954.7617	975.7994	1026.5478	1038.1887	1064.3787	1106.9598	1134.2415	1196.5895	1207.1791	1221.3426	1261.359	1281.8627	1298.8328	1327.7837	1355.7606	1405.1485	1446.2627	1486.5839	1503.2932	1519.6393	2238.5836	2958.6622	2973.852	3062.9416	3068.8348	3105.0188	3109.1643	3120.1266	3480.691	3503.358
C#CC1NC11CCOC1	C#C[C@H]1N[C@]21CCOC2	
InChI=1S/C7H9NO/c1-2-6-7(8-6)3-4-9-5-7/h1,6,8H,3-5H2	InChI=1S/C7H9NO/c1-2-6-7(8-6)3-4-9-5-7/h1,6,8H,3-5H2/t6-,7-/m1/s1
