19
gdb 48136	2.95458	1.14	0.92045	1.3382	76.19	-0.2482	-0.0924	0.1559	1292.805	0.15919	-423.063817	-423.054913	-423.053969	-423.099015	31.838	
O	-0.7499021436	 1.3980270527	 0.4758928925	-0.220914
C	 0.3774007706	 0.9788092201	 0.4952111061	 0.094493
C	 1.6177485183	 1.8324240974	 0.1788613898	 0.267308
O	 2.6914841184	 1.2740983826	 0.2035431659	-0.283882
C	 1.388100101	 3.2953911995	-0.1085199436	-0.070834
C	 1.0675626484	 4.0648916143	 1.2174381956	-0.224215
C	 1.6266136227	 5.4715123296	 0.9601653997	-0.197539
C	 2.9403302996	 5.1964032374	 0.2131486462	-0.196026
C	 2.6048595245	 4.0248730761	-0.7387323897	-0.238008
H	 0.6354098846	-0.0750189519	 0.7337741952	 0.107421
H	 0.5036349226	 3.361472091	-0.7498033046	 0.103862
H	 0.0026948827	 4.0406280891	 1.4554519747	 0.121076
H	 1.6062655163	 3.6075876319	 2.0567688339	 0.107013
H	 0.936444326	 6.0341554497	 0.3190940288	 0.1016
H	 1.7621873977	 6.046087804	 1.8810927982	 0.099296
H	 3.3269521297	 6.0713520306	-0.316173196	 0.09756
H	 3.709624801	 4.8867255646	 0.9300640307	 0.105253
H	 3.4469286583	 3.3406495147	-0.8610096543	 0.124403
H	 2.3361471011	 4.3965267166	-1.7317667291	 0.102134
39.7838	46.2149	122.7059	156.9432	216.304	264.3251	295.9009	495.5992	526.0483	558.7634	603.3441	672.5806	735.352	836.184	871.3782	907.6773	918.8799	927.3061	964.905	1007.3717	1029.7132	1048.38	1075.9375	1150.6062	1172.3672	1189.3769	1237.3607	1262.0302	1289.8426	1320.2112	1335.098	1341.6897	1349.923	1363.5605	1378.4991	1487.4819	1490.9383	1493.0265	1511.9305	1796.025	1822.7954	2920.9803	3027.7698	3033.6883	3041.3509	3054.1612	3066.2072	3088.9918	3095.4094	3115.5491	3117.9511
O=CC(=O)C1CCCC1	O=CC(=O)C1CCCC1	
InChI=1S/C7H10O2/c8-5-7(9)6-3-1-2-4-6/h5-6H,1-4H2	InChI=1S/C7H10O2/c8-5-7(9)6-3-1-2-4-6/h5-6H,1-4H2
