20
gdb 112074	2.51064	1.24762	0.88607	4.1072	82.3	-0.235	0.0048	0.2398	1335.6703	0.171302	-403.189263	-403.180214	-403.17927	-403.223583	33.112	
C	 0.846888785	-0.373859258	 1.3398905972	-0.388818
C	 0.0081428759	-0.0388937047	 0.1035926824	-0.176401
C	 0.7309074116	-0.3431959712	-1.2257291864	-0.0263
C	 0.9433644764	-1.816418268	-1.4829215532	-0.073641
C	 0.306502975	-2.2279587728	-2.575012292	-0.090806
C	-0.4148617441	-1.0988423232	-3.2550745596	-0.203172
N	-0.0618329738	 0.0410341333	-2.4061235758	-0.052957
C	-0.2758599518	 1.3146301658	-2.8136553981	 0.137909
O	-0.861242395	 1.6248141208	-3.8328316352	-0.344611
H	 1.0651810643	-1.4444564523	 1.4056752579	 0.120454
H	 1.8033650387	 0.1609919713	 1.328696162	 0.118865
H	 0.3199723956	-0.0895448768	 2.2551182357	 0.122666
H	-0.9378733985	-0.59229335	 0.1194118254	 0.106358
H	-0.2513339261	 1.0262466351	 0.1163084106	 0.104725
H	 1.6911523448	 0.1965156092	-1.2227551296	 0.094068
H	 1.5379163465	-2.4324960945	-0.8211765989	 0.111038
H	 0.2871085384	-3.2395835311	-2.9603099651	 0.111029
H	-0.0844547883	-0.9257697137	-4.2873320705	 0.134988
H	-1.5024624675	-1.2510683437	-3.2992996386	 0.127344
H	 0.1470872531	 2.0598157645	-2.109908038	 0.067262
71.5565	85.7396	125.9922	194.7531	232.8303	250.042	302.7115	349.0949	386.6574	496.8423	548.9788	724.1527	747.688	764.8757	832.6487	866.5308	909.9352	961.2448	970.2409	982.8566	1031.4751	1035.1718	1051.2102	1107.09	1128.4337	1138.8666	1189.7318	1212.4464	1267.8229	1304.1484	1326.6934	1346.4104	1371.6702	1380.9191	1409.6986	1413.2638	1444.7334	1486.3443	1500.3955	1506.8803	1513.4078	1693.3901	1788.6077	2925.0381	2974.8155	3008.2228	3032.6411	3035.4442	3037.6973	3070.7622	3102.4621	3110.9092	3208.3671	3232.2665
CCC1C=CCN1C=O	CC[C@H]1C=CCN1C=O	
InChI=1S/C7H11NO/c1-2-7-4-3-5-8(7)6-9/h3-4,6-7H,2,5H2,1H3	InChI=1S/C7H11NO/c1-2-7-4-3-5-8(7)6-9/h3-4,6-7H,2,5H2,1H3/t7-/m0/s1
