18
gdb 86054	2.36853	1.53184	0.96633	5.5165	78.49	-0.2193	-0.0173	0.202	1197.4361	0.147336	-439.140129	-439.130806	-439.129862	-439.174177	34.452	
C	 0.0146727747	 1.5562568745	 0.0589941157	-0.535632
C	-0.0122235131	 0.0595368059	 0.0193727395	 0.106335
C	-1.1042364458	-0.7598783038	 0.0176416673	 0.288471
N	-2.401528853	-0.3850483372	 0.1419377618	-0.576255
C	-0.7543316508	-2.2236709662	-0.1374961001	-0.344144
C	 0.7717895518	-2.2389210123	 0.0284588656	 0.053516
O	 1.4372042726	-3.0416112434	-0.9167002452	-0.444096
C	 1.1725397794	-0.7610343757	-0.1214394871	 0.296508
O	 2.3211488196	-0.4271737307	-0.3655423812	-0.395034
H	 1.0213454108	 1.9002518596	-0.1934352638	 0.155965
H	-0.6840994412	 2.0057906827	-0.6587217397	 0.1118
H	-0.2346522563	 1.9533323329	 1.0511712224	 0.125799
H	-2.6421557295	 0.5915267065	 0.0929240067	 0.265791
H	-3.1304246366	-1.0329330971	-0.1051309695	 0.264973
H	-1.2875901242	-2.8489510091	 0.586705243	 0.114253
H	-1.0131481522	-2.5807094581	-1.1413402763	 0.136131
H	 1.0272847672	-2.5527061248	 1.0548902338	 0.085775
H	 2.2719210266	-2.5784911838	-1.0850819526	 0.289844
80.1328	98.4777	137.0699	223.1263	233.0535	291.1128	306.3362	324.5838	430.7156	456.4	466.4399	547.7222	570.868	580.7247	619.1056	698.0874	804.4808	884.0984	949.6231	994.8646	1033.5653	1055.8754	1058.2512	1130.927	1180.8363	1208.2429	1241.9967	1285.1083	1314.8633	1371.8722	1392.7212	1422.5142	1434.0634	1477.3855	1491.599	1494.6206	1640.4305	1680.8432	1778.2558	2955.6738	3009.9147	3038.3788	3056.2372	3079.1727	3114.6599	3599.119	3714.1756	3714.9112
CC1=C(N)CC(O)C1=O	CC1=C(N)C[C@@H](O)C1=O	
InChI=1S/C6H9NO2/c1-3-4(7)2-5(8)6(3)9/h5,8H,2,7H2,1H3	InChI=1S/C6H9NO2/c1-3-4(7)2-5(8)6(3)9/h5,8H,2,7H2,1H3/t5-/m1/s1
