18
gdb 18603	3.10674	2.27674	1.83168	2.2951	66.14	-0.2503	0.0686	0.3189	798.599	0.156632	-384.932069	-384.925455	-384.924511	-384.962751	26.661	
O	 0.3249141057	 1.1829725966	-0.5444182511	-0.435428
C	 0.088133459	-0.1222345394	-0.075136404	 0.140996
C	 0.2426194632	-0.3462714296	 1.4569500849	-0.263104
C	-1.277773172	-0.6332219556	 1.582365355	-0.035178
C	-2.1302611964	 0.5549776916	 2.0491877448	-0.095269
O	-2.2343387935	 1.4293727138	 0.9218578911	-0.265484
C	-2.4068336576	 0.572235359	-0.2125978673	-0.113216
C	-1.4176147453	-0.5621882805	 0.0202849945	-0.068652
H	-0.2197355739	 1.7770334425	-0.0093150461	 0.287866
H	 0.7055439844	-0.7778206864	-0.6937585906	 0.086277
H	 0.8761278317	-1.198343286	 1.7163414572	 0.101045
H	 0.6065353366	 0.5319392636	 2.0003108024	 0.098646
H	-1.5532517489	-1.563699444	 2.0805441634	 0.071854
H	-3.1329691633	 0.2162298498	 2.3537338579	 0.092417
H	-1.6896519115	 1.125423038	 2.8716734514	 0.109946
H	-3.4410152043	 0.1974176696	-0.2582300841	 0.093973
H	-2.1974029029	 1.1620476183	-1.1075817036	 0.12366
H	-1.6705728909	-1.4824803513	-0.5080450358	 0.069651
96.7118	221.5926	313.1893	378.0423	406.6235	489.7442	579.1246	591.342	711.7474	756.3605	799.3378	843.612	877.0866	914.2083	931.9379	957.3678	985.2902	1017.8732	1033.95	1063.8232	1093.7638	1120.6597	1161.291	1168.2069	1204.3342	1236.7487	1250.9934	1271.1938	1279.855	1299.3197	1326.0169	1337.618	1352.1871	1395.7347	1455.1597	1471.6336	1498.8161	1512.2349	2980.923	2989.5084	3047.0076	3077.864	3089.4661	3094.689	3102.7492	3110.8434	3112.4959	3743.2976
OC1CC2COCC12	O[C@H]1C[C@H]2COC[C@@H]12	
InChI=1S/C6H10O2/c7-6-1-4-2-8-3-5(4)6/h4-7H,1-3H2	InChI=1S/C6H10O2/c7-6-1-4-2-8-3-5(4)6/h4-7H,1-3H2/t4-,5+,6-/m0/s1
