16
gdb 98823	3.02098	1.13686	0.91179	4.4025	67.04	-0.2678	-0.0367	0.2311	1247.5671	0.123143	-475.054197	-475.045295	-475.044351	-475.088785	31.385	
O	 0.1541291612	 1.3253088176	-0.2950968982	-0.421248
C	-0.0133873681	-0.0601242307	-0.2634678176	-0.138051
C	-1.4277603358	-0.4438543025	 0.1331037384	 0.346788
O	-2.2466392237	 0.4185377934	 0.3769738252	-0.323369
C	-1.7548895516	-1.9147688206	 0.1353931313	-0.267343
C	-3.2181395634	-2.3241032142	 0.43562236	-0.179859
N	-3.2933889184	-2.8317339017	-0.9424176357	-0.315474
C	-2.0269367416	-2.4823724148	-1.3093493056	 0.429479
O	-1.3903468622	-2.562416656	-2.3221904471	-0.345164
H	-0.7089971637	 1.6936344735	-0.050167482	 0.294203
H	 0.1885311865	-0.5231185674	-1.244679043	 0.149243
H	 0.6848646116	-0.5312522061	 0.4491183294	 0.113627
H	-0.9841696088	-2.4923563556	 0.6511213908	 0.126456
H	-3.3372932946	-3.0956837352	 1.2006803612	 0.121452
H	-3.8728114694	-1.4740905645	 0.6373413403	 0.146858
H	-4.0520084578	-3.2216252953	-1.4816039372	 0.262403
54.716	91.3911	104.0147	152.9026	205.9226	313.5251	376.6495	384.7695	419.4782	459.593	544.732	632.688	740.4809	751.2933	831.055	895.0515	966.1068	996.9803	1007.296	1064.9405	1105.3712	1129.0835	1149.9653	1169.6141	1187.44	1251.7172	1292.4076	1310.0335	1354.2756	1394.7055	1450.0025	1492.71	1523.8391	1785.6088	1900.658	2967.9196	2987.3915	3063.9767	3098.0267	3127.0346	3618.1456	3699.8994
OCC(=O)C1CNC1=O	OCC(=O)[C@H]1CNC1=O	
InChI=1S/C5H7NO3/c7-2-4(8)3-1-6-5(3)9/h3,7H,1-2H2,(H,6,9)	InChI=1S/C5H7NO3/c7-2-4(8)3-1-6-5(3)9/h3,7H,1-2H2,(H,6,9)/t3-/m1/s1
