15
gdb 105140	2.45773	1.23218	0.96563	1.6172	72.14	-0.2632	-0.0245	0.2386	1206.8133	0.113092	-412.970726	-412.961755	-412.960811	-413.004788	31.733	
N	-0.1601745348	 1.4489715331	 0.1153619729	-0.504789
C	 0.3166806908	 0.1047748894	-0.1827909098	-0.232344
C	 0.9346327059	-0.4832287131	 1.0750417089	 0.169459
N	-0.0275733568	-0.9853417983	 2.0704646239	-0.33043
C	 0.8476841785	-1.9561232785	 1.3976218741	-0.245478
C	 0.2238861327	-2.8872023721	 0.4869767529	 0.345569
N	-0.2461878558	-3.6462225456	-0.2468581738	-0.323873
C	 2.1214203791	 0.1841589218	 1.57028123	 0.273547
N	 3.0734629236	 0.6933517664	 1.9832655872	-0.325735
H	-0.4012108325	 1.9371722393	-0.7396433416	 0.243106
H	-1.0022185769	 1.3979079761	 0.6801939235	 0.24454
H	-0.4527714121	-0.5970557595	-0.5357057872	 0.126466
H	 1.0881654972	 0.1658469846	-0.9573055516	 0.133189
H	 0.3004305702	-0.8228967567	 3.0198144409	 0.267287
H	 1.6816922909	-2.3750953068	 1.9532976699	 0.159485
85.479	113.0503	123.4961	157.8794	221.7753	272.7037	284.0322	361.7092	410.5653	493.4535	560.0218	595.7916	649.8059	691.0669	823.422	854.6021	903.9684	941.4722	966.2415	1035.8031	1076.432	1100.9384	1177.5705	1207.2236	1266.4818	1322.2074	1349.3775	1428.797	1432.483	1492.4301	1657.5156	2357.1334	2364.6309	3002.5363	3082.1244	3160.5773	3509.8182	3512.8725	3594.0317
NCC1(NC1C#N)C#N	NC[C@]1(N[C@H]1C#N)C#N	
InChI=1S/C5H6N4/c6-1-4-5(2-7,3-8)9-4/h4,9H,2,7H2	InChI=1S/C5H6N4/c6-1-4-5(2-7,3-8)9-4/h4,9H,2,7H2/t4-,5-/m0/s1
