20
gdb 36973	6.71101	0.57204	0.56316	3.6355	77.64	-0.2466	0.0728	0.3195	1980.8171	0.169828	-440.21216	-440.202718	-440.201774	-440.24832	33.141	
C	-0.099367043	 1.4728759147	-0.2227261243	-0.075876
O	-0.0656427321	 0.0877121588	 0.0537116048	-0.247627
C	-1.3455587908	-0.5007705319	 0.1092433218	-0.073116
C	-1.1845092715	-1.9724558207	 0.3714061017	 0.083868
C	-2.2210027621	-2.9328072467	-0.0226315341	-0.181995
O	-1.0087311499	-2.8177453962	-0.7657049623	-0.22492
C	 1.3107842773	 1.9863710987	-0.3127989495	 0.018131
C	 1.6043358344	 3.3813038708	 0.1000596206	-0.247065
N	 2.0859880912	 2.2495517398	 0.9071642977	-0.30377
H	-0.6334660627	 1.6597381147	-1.1704956845	 0.094701
H	-0.6476530285	 2.0130736737	 0.5709799033	 0.075288
H	-1.9469532645	-0.0434472663	 0.9157560818	 0.08698
H	-1.8913109671	-0.3573391844	-0.837581734	 0.09581
H	-0.5388964123	-2.2153948557	 1.215680607	 0.103564
H	-2.3442560842	-3.8542743936	 0.5442911873	 0.11798
H	-3.1174900649	-2.5812144536	-0.5329160746	 0.112827
H	 1.8977300323	 1.5401892601	-1.112297109	 0.103817
H	 2.3794208775	 3.9465717248	-0.4089412313	 0.122205
H	 0.7818683777	 3.9846680286	 0.4776901166	 0.108983
H	 1.4932312231	 2.1231715445	 1.7246533411	 0.230216
41.281	48.5167	92.4822	119.5618	151.3542	231.4336	302.2214	380.6384	400.7628	476.9958	535.9319	795.6471	815.884	836.0287	871.7252	933.0394	943.1271	951.4325	994.553	1017.7486	1028.9283	1068.4476	1105.7415	1125.7498	1150.9697	1153.9478	1158.4708	1164.6978	1176.1663	1216.4154	1249.8019	1268.9267	1278.9299	1292.9539	1311.3765	1355.2935	1388.9581	1442.3795	1471.7629	1494.296	1514.2802	1517.9759	1534.4052	2932.597	2945.6346	2970.3916	2991.1659	3081.4435	3106.3899	3116.2934	3140.296	3166.9303	3191.5954	3491.9236
C(OCC1CO1)C1CN1	C(OC[C@H]1CO1)[C@H]1CN1	
InChI=1S/C6H11NO2/c1-5(7-1)2-8-3-6-4-9-6/h5-7H,1-4H2	InChI=1S/C6H11NO2/c1-5(7-1)2-8-3-6-4-9-6/h5-7H,1-4H2/t5-,6+/m1/s1
