17
gdb 29521	3.15084	1.5396	1.05118	1.2676	75.24	-0.1596	0.073	0.2326	1100.1745	0.138641	-418.023426	-418.015274	-418.01433	-418.055955	30.855	
N	-0.0162270451	 1.4614439848	 0.0020022647	-0.606138
C	 0.0183305634	 0.052394783	-0.0224231656	 0.066529
C	-1.0628370496	-0.8076020912	-0.0458898881	-0.170067
N	-0.5829247572	-2.1290853658	 0.0494236595	-0.402127
C	 0.7625250219	-2.051262384	 0.1024697215	 0.443947
C	 1.1912745838	-0.7595355324	 0.0632116451	 0.147889
C	 2.681984453	-0.7736616881	 0.2654906541	-0.381711
C	 2.9583604883	-2.3116220473	 0.1375518387	-0.087947
O	 1.6873316199	-3.0265207417	 0.2569240694	-0.291722
H	 0.7084682726	 1.8678125818	-0.5777309569	 0.236506
H	-0.9106616757	 1.8253044379	-0.3033433807	 0.234642
H	-2.1181394948	-0.6123500943	-0.1355301228	 0.099697
H	-1.1396778566	-2.9633715278	 0.0225349319	 0.262079
H	 3.2630542301	-0.2253985371	-0.4848659883	 0.103027
H	 2.9863134098	-0.3897563235	 1.2484537947	 0.112248
H	 3.3754164068	-2.5530623247	-0.8459715058	 0.114637
H	 3.6215622194	-2.7038081596	 0.9108522687	 0.11851
108.4255	169.9857	198.4858	218.8864	226.937	266.8644	394.86	514.8259	542.9026	596.7027	628.2982	632.53	692.3268	763.6273	777.176	808.2531	851.2585	930.8003	980.4746	1060.7098	1064.3521	1077.9211	1131.4558	1197.9895	1205.6168	1242.2045	1285.1735	1302.102	1336.6772	1375.1654	1472.8655	1499.1244	1515.716	1576.5204	1589.3694	1645.7812	1662.7309	3007.0169	3036.6071	3052.8872	3115.4173	3270.1656	3519.1844	3607.8362	3702.1824
NC1=CNC2=C1CCO2	Nc1c[nH]c2c1CCO2	
InChI=1S/C6H8N2O/c7-5-3-8-6-4(5)1-2-9-6/h3,8H,1-2,7H2	InChI=1S/C6H8N2O/c7-5-3-8-6-4(5)1-2-9-6/h3,8H,1-2,7H2
