16
gdb 49111	3.66202	1.48273	1.22568	4.7251	79.33	-0.2312	-0.0886	0.1426	998.9309	0.124465	-400.623075	-400.616116	-400.615172	-400.654486	27.462	
O	-0.0017011172	 0.2211106306	 0.6257432192	-0.280001
C	 0.0684578786	 1.3698034203	 0.2360406182	 0.103401
C	 1.2379492932	 1.9354990862	-0.4324134492	 0.148107
C	 1.4389469263	 3.2763516426	-0.5401376819	 0.009897
N	 1.3343379982	 4.0184682712	 0.7389996931	-0.35197
C	 2.8744733351	 3.8391007531	 0.644832782	-0.017807
C	 3.4557393419	 2.5192937913	-0.0165280946	-0.042749
C	 2.6129358925	 1.2724710943	-0.3487439119	-0.31532
C	 2.9058922242	 3.6538548681	-0.8254426474	-0.140178
H	-0.7837904431	 2.0709000655	 0.3475233592	 0.078322
H	 1.2280514196	 5.020728572	 0.5505018024	 0.229035
H	 3.5007476868	 4.4462081717	 1.2927547166	 0.114946
H	 4.5315251918	 2.4312600477	 0.1294971701	 0.093196
H	 2.5584051638	 0.5137410647	 0.4377442689	 0.147604
H	 2.9964306596	 0.7826548137	-1.2528210608	 0.117753
H	 3.3302043788	 4.2280684169	-1.6389468939	 0.105764
98.9215	191.0392	222.3837	318.5023	415.1943	498.1604	513.0321	621.7006	667.8201	728.6987	760.4706	779.93	808.0126	852.1543	916.6609	951.7141	965.7174	970.7093	1000.1591	1018.3382	1053.2312	1063.5956	1114.2958	1153.162	1160.8186	1209.1897	1246.4193	1258.172	1290.4293	1298.5514	1367.5538	1412.9991	1477.6571	1583.8477	1757.9111	2920.9537	3025.1782	3092.6608	3128.9174	3152.7843	3192.3492	3373.8032
O=CC1=C2NC3C(C1)C23	O=C[C]1[C]2N[C@H]3[C@@H](C1)[C@@H]23	
InChI=1S/C7H7NO/c9-2-3-1-4-5-6(3)8-7(4)5/h2,4-5,7-8H,1H2	InChI=1S/C7H7NO/c9-2-3-1-4-5-6(3)8-7(4)5/h2,4-5,7-8H,1H2/t4-,5-,7-/m0/s1
