19
gdb 80364	2.28254	1.66567	1.17618	1.0352	81.2	-0.2527	0.0336	0.2863	1103.8155	0.157072	-385.820666	-385.811631	-385.810687	-385.853781	35.209	
C	-0.1076585677	 1.4920181625	-0.1775300074	-0.421606
C	 0.0745260243	 0.0006245158	 0.0169861039	-0.006404
C	 1.3438522904	-0.7762614352	-0.1937014396	-0.075847
C	 2.5689044802	-0.0051910699	 0.3142663495	-0.300587
C	 1.9445545181	-0.0030774639	 1.7616831345	 0.244795
O	 2.5891004861	-0.9483294953	 2.6105447459	-0.465815
C	 1.8111719791	 1.2779912447	 2.4521654461	 0.291666
C	 1.7630941447	 2.3239318336	 3.045066079	-0.484918
C	 0.6970510819	-0.6992189347	 1.1971047071	-0.103891
H	 0.7553424839	 2.0728843705	 0.1516770353	 0.130572
H	-0.2824001199	 1.7160544871	-1.2357694218	 0.111696
H	-0.973705842	 1.8520041519	 0.3879436225	 0.119785
H	-0.7880782259	-0.5679188472	-0.329385863	 0.089565
H	 1.3932066337	-1.6253300083	-0.864301761	 0.085849
H	 3.4795752332	-0.606145527	 0.3279959005	 0.112185
H	 2.7747423031	 0.9641037019	-0.1482050956	 0.098654
H	 3.3563855356	-0.512195127	 2.9980705648	 0.280318
H	 1.6970424816	 3.2472860423	 3.5659577894	 0.19823
H	 0.1802018697	-1.4625708318	 1.7660357697	 0.095753
113.1488	134.3243	179.1685	204.7659	247.6302	278.6897	315.4275	390.2219	456.4366	482.6148	528.4781	598.7879	630.7026	640.4088	662.2859	721.3757	784.2298	829.8959	890.8151	912.1147	971.2313	988.5683	993.9596	1015.8366	1067.7909	1088.1813	1101.0506	1113.7791	1152.5566	1206.8421	1215.7759	1244.0403	1282.6412	1339.07	1373.7578	1417.7159	1443.752	1473.5352	1491.9554	1503.676	2223.5036	3035.9618	3059.2949	3092.085	3111.3474	3126.3269	3138.1731	3180.0062	3191.2461	3499.0554	3802.4151
CC1C2CC(O)(C#C)C12	C[C@H]1[C@H]2C[C@@](O)(C#C)[C@@H]12	
InChI=1S/C8H10O/c1-3-8(9)4-6-5(2)7(6)8/h1,5-7,9H,4H2,2H3	InChI=1S/C8H10O/c1-3-8(9)4-6-5(2)7(6)8/h1,5-7,9H,4H2,2H3/t5-,6+,7-,8-/m0/s1
