18
gdb 9957	3.21451	1.48654	1.3361	3.086	63.94	-0.242	0.0502	0.2922	1005.0652	0.151729	-422.050851	-422.0417	-422.040756	-422.084261	33.628	
C	-0.035364733	 1.4664321593	-0.0317726927	-0.420592
C	 0.0242094433	-0.0434380959	 0.0323780842	-0.123964
C	 1.3368737339	-0.7950191871	-0.1520360299	-0.007211
O	 2.5426412431	-0.0765981178	-0.2093232722	-0.430149
C	 0.6817877312	-0.7549119797	 1.201311099	 0.367428
O	 1.3433771456	 0.0104203413	 2.1737592996	-0.481468
C	 0.0602774633	-1.9801559811	 1.8248861622	-0.107697
O	 1.0199049467	-2.7516155883	 2.5187652507	-0.420938
H	 0.7764202355	 1.9212589953	 0.5394087615	 0.124278
H	 0.0192343665	 1.8293987108	-1.0649054802	 0.110085
H	-0.9754375539	 1.8302754364	 0.394082155	 0.129172
H	-0.8389992756	-0.5514973034	-0.3922397649	 0.08722
H	 1.3416671682	-1.7250478168	-0.7177903364	 0.098319
H	 2.5120242632	 0.5313240136	-0.9552109362	 0.299358
H	 2.1815130618	 0.2822928827	 1.7714186797	 0.298076
H	-0.7596186713	-1.6649470315	 2.4919306901	 0.091383
H	-0.3729528459	-2.6184566685	 1.0476563072	 0.100497
H	 1.5129300972	-2.1189384792	 3.0556834432	 0.286205
95.0589	114.3509	155.2399	194.1237	235.073	267.7453	298.675	335.0174	369.0153	434.8767	529.979	553.1758	588.9207	637.739	734.7322	835.3925	865.2947	955.2034	998.9278	1024.727	1060.8985	1077.3951	1107.0424	1140.3311	1158.8028	1198.8581	1225.952	1276.6081	1321.3023	1359.8632	1372.4037	1386.6876	1421.2887	1432.5839	1475.5303	1494.9036	1500.4962	1506.8381	2967.3243	3032.7316	3071.9197	3092.551	3114.8158	3124.6311	3138.372	3722.7802	3784.1701	3811.0654
CC1C(O)C1(O)CO	C[C@H]1[C@@H](O)[C@]1(O)CO	
InChI=1S/C5H10O3/c1-3-4(7)5(3,8)2-6/h3-4,6-8H,2H2,1H3	InChI=1S/C5H10O3/c1-3-4(7)5(3,8)2-6/h3-4,6-8H,2H2,1H3/t3-,4+,5-/m0/s1
