21
gdb 68814	2.88897	1.15884	0.98858	3.189	84.21	-0.2319	-0.0204	0.2115	1287.7978	0.180389	-387.0832	-387.073605	-387.072661	-387.117674	35.722	
C	 0.0086146631	 1.5731479699	 0.055273817	-0.49959
C	-0.0140991554	 0.072003981	 0.0452141164	 0.323465
C	 1.1553889273	-0.7755602293	-0.3748600067	-0.385586
C	 0.5963195889	-0.9491825585	 1.0197800328	 0.288519
C	 1.4228758522	-0.760867303	 2.2602879344	-0.496403
C	-0.6997450803	-1.7926970135	 0.9816662563	-0.121336
C	-1.2881543092	-0.7793025854	-0.0656482464	-0.320054
C	-0.5866852917	-3.2409248317	 0.5906220127	 0.152296
O	-1.0293821798	-4.1613691579	 1.2326277519	-0.257319
H	 0.9891093899	 1.9544286712	 0.3590749018	 0.119244
H	-0.2060717304	 1.9798692958	-0.9406886047	 0.123424
H	-0.7380300677	 1.9812664987	 0.7463721935	 0.117036
H	 1.0509501078	-1.5365976226	-1.1442259898	 0.106329
H	 2.1106751653	-0.2593002472	-0.4053621056	 0.110886
H	 2.1492053649	 0.0483445572	 2.1307852805	 0.119337
H	 0.7961645421	-0.514443361	 3.1248988641	 0.120253
H	 1.9845186292	-1.6696795821	 2.5077539388	 0.128086
H	-1.2389264347	-1.7423804601	 1.9308138975	 0.089594
H	-2.1847857733	-0.2889787951	 0.31955554	 0.113305
H	-1.5109857733	-1.1775552222	-1.061987492	 0.100593
H	-0.045635735	-3.4288487642	-0.3654332624	 0.067919
52.5152	115.4985	176.3089	193.2737	202.4288	219.5261	284.007	323.4837	380.7295	424.5962	439.8665	508.6134	583.7951	691.7831	730.5711	810.7989	868.5802	902.5364	949.7898	958.3125	982.1519	1004.8165	1053.3533	1061.4812	1065.9219	1099.3815	1125.6655	1168.3582	1195.1924	1227.7314	1235.0746	1256.1886	1308.9091	1332.4657	1397.9223	1415.3409	1428.0564	1444.1584	1480.3623	1483.9488	1487.6069	1495.8758	1501.1001	1516.9627	1820.1458	2860.9874	3018.6633	3022.3722	3039.56	3075.9903	3080.2005	3081.3044	3094.0555	3097.1597	3107.8347	3108.465	3189.8008
CC12CC1(C)C(C2)C=O	C[C@@]12C[C@]1(C)[C@@H](C2)C=O	
InChI=1S/C8H12O/c1-7-3-6(4-9)8(7,2)5-7/h4,6H,3,5H2,1-2H3	InChI=1S/C8H12O/c1-7-3-6(4-9)8(7,2)5-7/h4,6H,3,5H2,1-2H3/t6-,7+,8+/m0/s1
