21
gdb 6769	5.64837	0.72257	0.70259	3.4518	77.23	-0.2396	0.039	0.2786	1704.46	0.187087	-366.31168	-366.301235	-366.300291	-366.349311	35.527	
C	-0.0960421105	 1.427905488	 0.4184969209	-0.380457
C	-0.0494731427	-0.01248558	-0.0980641671	-0.159579
C	-1.4198768125	-0.6975234738	-0.0898376634	-0.165043
C	-1.3625811348	-2.1380709806	-0.6118009016	-0.165191
N	-2.6577992824	-2.7968777362	-0.6219797053	-0.313138
C	-3.0002723286	-3.7686123621	 0.276131923	 0.405746
C	-4.4228355763	-4.2946493034	 0.1478228765	-0.480829
O	-2.2311566027	-4.1925918693	 1.1203415804	-0.374219
H	 0.895854291	 1.8899858214	 0.401708985	 0.113172
H	-0.7622303569	 2.0470808591	-0.1926764219	 0.112378
H	-0.4639298179	 1.4660861333	 1.4496673106	 0.117475
H	 0.3562713033	-0.0233440071	-1.1186213471	 0.094091
H	 0.6498255221	-0.5989031235	 0.5119174036	 0.104459
H	-1.8269998732	-0.7084829838	 0.9288148882	 0.109803
H	-2.1246945892	-0.1143299826	-0.6996803496	 0.083269
H	-0.9410582685	-2.1530912925	-1.6254783881	 0.09969
H	-0.7195479382	-2.7486297712	 0.0266380403	 0.148599
H	-3.358340996	-2.4644016572	-1.2635474295	 0.239501
H	-4.9724576639	-3.88447452	-0.703739668	 0.107242
H	-4.3862606355	-5.3830936613	 0.0588643398	 0.152195
H	-4.9683448164	-4.061183177	 1.0665286031	 0.150834
23.8359	45.1461	73.2411	81.7689	113.0895	205.3454	247.5968	288.2889	321.1692	422.0423	439.1848	487.6169	621.9413	641.5171	737.1864	787.8927	884.1763	912.6541	969.8487	987.247	1017.9489	1050.2441	1064.1781	1107.2739	1133.8633	1184.5649	1249.3896	1266.6906	1297.7063	1326.6973	1335.1919	1384.0826	1394.8773	1406.6513	1415.4873	1470.5574	1479.0273	1485.6435	1486.6493	1498.0576	1500.6252	1511.5449	1542.3784	1780.163	3005.9157	3014.4236	3019.9124	3030.2772	3041.1457	3048.3265	3063.013	3097.2057	3103.0393	3116.0989	3123.3403	3131.7026	3647.0151
CCCCNC(C)=O	CCCCNC(=O)C	
InChI=1S/C6H13NO/c1-3-4-5-7-6(2)8/h3-5H2,1-2H3,(H,7,8)	InChI=1S/C6H13NO/c1-3-4-5-7-6(2)8/h3-5H2,1-2H3,(H,7,8)
