16
gdb 34310	3.36822	1.48579	1.31583	3.7162	67.75	-0.2755	-0.0003	0.2751	976.7577	0.126715	-437.903184	-437.896213	-437.895269	-437.934578	27.224	
N	 0.0196864916	-1.0878559551	-0.0179504637	-0.327483
C	-0.0059865562	 0.0665853166	-0.0185430372	 0.199952
C	-0.0047114501	 1.5180685728	 0.044617761	 0.245209
C	-0.8000501601	 2.1537941484	 1.2193828204	-0.266104
C	-1.05271626	 3.5782024074	 0.6411423177	-0.23912
C	-0.3511836285	 3.4489673276	-0.7220376521	 0.175545
O	 1.0598699349	 3.4867070897	-0.5222361845	-0.267046
C	 1.3960236456	 2.1875998845	-0.0254815146	-0.110869
O	-0.6231579888	 2.1112063393	-1.1094674353	-0.267788
H	-1.7291843951	 1.6062816301	 1.381948441	 0.134075
H	-0.2266783193	 2.1496604965	 2.1479414579	 0.124066
H	-2.1186751216	 3.7806193308	 0.516649288	 0.120391
H	-0.6083508683	 4.3749099659	 1.2393350773	 0.123726
H	-0.6310061449	 4.1450317618	-1.5109358002	 0.106753
H	 1.8772292638	 2.2544924847	 0.9550572467	 0.119619
H	 2.058017867	 1.673290929	-0.7291681123	 0.129074
138.4822	165.1473	192.1649	342.5107	404.0238	512.8352	518.8148	543.7794	598.8554	646.0743	786.0051	830.7989	839.881	874.7977	933.0711	948.5335	962.4368	994.4565	1022.7801	1062.1151	1104.1707	1120.0284	1183.8352	1192.1872	1212.3751	1244.9832	1286.1555	1312.9208	1322.7657	1338.5955	1384.0773	1477.924	1498.7443	1525.1324	2372.0244	3044.7438	3077.5046	3087.7774	3095.8619	3127.8678	3144.9904	3149.4136
N#CC12CCC(OC1)O2	N#C[C@@]12CC[C@@H](OC1)O2	
InChI=1S/C6H7NO2/c7-3-6-2-1-5(9-6)8-4-6/h5H,1-2,4H2	InChI=1S/C6H7NO2/c7-3-6-2-1-5(9-6)8-4-6/h5H,1-2,4H2/t5-,6-/m0/s1
