17
gdb 35057	2.49174	1.57365	1.49718	2.2418	73.77	-0.2356	0.0468	0.2823	985.8755	0.136487	-421.768267	-421.760517	-421.759572	-421.800555	29.917	
C	-0.2320944721	-1.2294895811	-0.1494071203	-0.458348
C	-0.1035778912	-0.0363991358	-0.0737305283	 0.368455
C	-0.0011292837	 1.3886646865	 0.0010055032	-0.268154
C	 0.5127479052	 2.0940380245	 1.2576534091	-0.113426
C	 1.0355514063	 1.3154503723	 2.4502168565	-0.111589
O	 2.103926847	 0.4413504489	 2.1070095299	-0.222347
C	 3.0319503162	 1.0655586205	 1.2727900837	 0.012291
O	 2.5107496263	 1.3186676947	-0.0147315212	-0.236225
C	 1.353922001	 2.0938541707	 0.0106439311	 0.086572
H	-0.3241121652	-2.2849396208	-0.2155158518	 0.194665
H	-0.7831411592	 1.9273371144	-0.5279733497	 0.113689
H	 0.0048421736	 3.0179821484	 1.5154041387	 0.102338
H	 1.3761032736	 2.0330519345	 3.2143583239	 0.098135
H	 0.2584296029	 0.6854353334	 2.8916838979	 0.127495
H	 3.3823623084	 2.0103049167	 1.7276137624	 0.078292
H	 3.8655546032	 0.3755982676	 1.134547498	 0.12351
H	 1.4386255578	 3.0008629446	-0.5828391531	 0.104647
107.5528	108.7457	170.6904	294.0479	344.0309	376.9851	493.9245	522.9418	584.6373	597.2853	638.1859	651.9724	737.3557	779.5695	795.0971	860.7951	946.8598	967.7194	1006.268	1029.2524	1048.401	1099.7728	1101.4903	1129.8632	1172.8816	1204.3088	1243.0925	1277.1	1328.0671	1357.5797	1366.0964	1382.2858	1435.3711	1446.6181	1494.9028	1511.4071	2240.1192	2934.3827	2974.6697	3088.0645	3124.5921	3129.8921	3138.7399	3160.734	3506.7257
C#CC1C2COCOC12	C#C[C@H]1[C@H]2COCO[C@@H]12	
InChI=1S/C7H8O2/c1-2-5-6-3-8-4-9-7(5)6/h1,5-7H,3-4H2	InChI=1S/C7H8O2/c1-2-5-6-3-8-4-9-7(5)6/h1,5-7H,3-4H2/t5-,6+,7-/m0/s1
