19
gdb 102519	2.1628	1.26744	0.96792	3.1227	72.23	-0.251	0.0139	0.2649	1269.4077	0.158963	-456.334868	-456.324927	-456.323983	-456.369979	35.683	
C	 0.2625997125	 1.1807625685	 0.4044048463	-0.332561
N	-0.0731795098	 0.0010616991	-0.3890714238	-0.305703
C	-1.4136688674	-0.5516498853	-0.1965930616	-0.015843
C	-2.0989666885	-0.8019601546	-1.5519122583	-0.094838
O	-1.2545291943	-1.453494014	-2.4810297005	-0.424005
C	-1.2573057636	-1.8968129027	 0.5766222534	-0.027224
O	-0.2516095194	-2.6728882682	-0.0440962635	-0.416404
C	-0.9448694994	-1.6559919722	 2.0026280578	 0.284365
N	-0.7027541132	-1.4421507353	 3.1123704434	-0.326376
H	 1.2779590729	 1.5022441958	 0.1570031806	 0.128889
H	-0.4188303291	 2.0309255046	 0.2391543126	 0.107018
H	 0.241620432	 0.930129283	 1.4682108791	 0.156212
H	 0.0892640807	 0.1498672727	-1.3778706936	 0.242767
H	-2.0527298763	 0.1235847732	 0.3884949972	 0.093045
H	-3.0369252018	-1.3563204112	-1.3887723581	 0.09805
H	-2.3620812115	 0.1614139873	-2.0020011044	 0.115532
H	-0.9266893753	-2.2554995513	-2.0507937874	 0.293487
H	-2.189074546	-2.47049063	 0.5331632502	 0.133012
H	 0.4601562075	-2.0202850893	-0.1950973893	 0.290576
74.5765	91.3422	123.8905	149.394	196.919	226.572	241.2295	324.2798	337.1166	363.5868	424.1955	517.0871	585.6779	618.3598	682.9142	767.8974	798.798	857.8874	909.0646	968.4781	988.0191	1054.5872	1082.3964	1097.1266	1145.1423	1155.7506	1200.682	1230.346	1248.0455	1301.6321	1343.7956	1360.4596	1390.9398	1444.0308	1454.6654	1468.4436	1483.4737	1499.9396	1506.3212	1519.238	2351.405	2975.0898	2979.2878	3019.0112	3066.0189	3070.0431	3083.4048	3124.8074	3548.4903	3582.8629	3742.1692
CNC(CO)C(O)C#N	CN[C@@H](CO)[C@@H](O)C#N	
InChI=1S/C5H10N2O2/c1-7-4(3-8)5(9)2-6/h4-5,7-9H,3H2,1H3	InChI=1S/C5H10N2O2/c1-7-4(3-8)5(9)2-6/h4-5,7-9H,3H2,1H3/t4-,5-/m0/s1
