19
gdb 46510	3.61922	1.23236	1.05779	2.8876	75.66	-0.2325	-0.0209	0.2116	1163.1617	0.159542	-423.036221	-423.028196	-423.027252	-423.068835	31.426	
O	 0.058366367	-0.0273947872	 0.2496081657	-0.299107
C	-0.0154804318	 1.1534672454	 0.0069556812	 0.378768
C	-1.3340193701	 1.904874517	-0.0948693513	-0.314058
C	-1.2961891395	 3.0114796683	-1.1665100918	-0.275665
C	-0.0134387581	 3.8037642105	-1.0465371541	 0.454076
C	 0.1310450542	 5.1708137007	-1.6257980048	-0.333454
C	 0.0904051966	 4.9926814328	-0.1178490725	-0.327976
O	 1.1259060414	 2.9910199142	-1.1785427164	-0.288897
C	 1.2378369086	 2.0176291854	-0.1497350466	-0.18901
H	-2.1409256914	 1.1853595803	-0.2526999966	 0.124184
H	-1.4958707598	 2.3678637564	 0.8896825403	 0.128236
H	-1.3372550123	 2.5611624018	-2.1655802495	 0.11725
H	-2.1671936268	 3.6670677657	-1.0689227053	 0.103468
H	 1.0902279152	 5.4083780206	-2.0708239618	 0.12941
H	-0.726022076	 5.613570773	-2.1214153993	 0.115658
H	-0.7943316631	 5.3171395598	 0.4198307904	 0.113402
H	 1.0238103693	 5.1246827659	 0.4177231664	 0.121908
H	 1.4355873404	 2.5000093937	 0.8242087714	 0.108097
H	 2.0861069561	 1.3765253157	-0.3957051055	 0.133709
72.4399	151.9711	182.7879	276.7144	339.468	379.2502	427.6703	436.9451	488.789	522.7968	671.537	696.3105	758.7677	778.4351	827.5125	886.7453	906.1775	941.6318	951.0682	1001.8621	1004.7912	1047.8497	1081.0047	1098.5981	1103.9076	1174.1243	1179.0799	1191.9533	1235.8509	1267.2045	1299.1457	1322.5659	1336.4865	1373.8224	1392.7548	1453.6723	1455.7631	1467.5749	1484.9553	1500.3423	1824.1986	2952.8598	3013.858	3035.4261	3083.1139	3106.2704	3121.7196	3132.697	3139.1172	3218.218	3233.0345
O=C1CCC2(CC2)OC1	O=C1CCC2(CC2)OC1	
InChI=1S/C7H10O2/c8-6-1-2-7(3-4-7)9-5-6/h1-5H2	InChI=1S/C7H10O2/c8-6-1-2-7(3-4-7)9-5-6/h1-5H2
