18
gdb 11339	4.82936	1.22192	1.05673	4.1871	76.59	-0.2303	-0.0365	0.1938	1142.6564	0.15403	-347.85666	-347.848541	-347.847596	-347.889923	29.514	
C	 0.0297896962	 1.5271221498	 0.2142572834	-0.378168
C	-0.0366546536	 0.0197303469	-0.0972284376	-0.284614
C	-1.4316558736	-0.5278463615	-0.090335505	 0.345712
C	-2.1054115513	-1.0234762881	-1.1409954125	-0.298599
C	-3.4555455347	-1.4752247099	-0.7527109033	 0.39483
O	-4.304024363	-1.9590740382	-1.4669109651	-0.339263
C	-3.5925538598	-1.2177473218	 0.7586398605	-0.333937
C	-2.2577514718	-0.5784577371	 1.1820421971	-0.312886
H	 1.0657315045	 1.8762874578	 0.1836872812	 0.122988
H	-0.5448758715	 2.1028326545	-0.5175162288	 0.128469
H	-0.36824318	 1.7516512058	 1.2081146093	 0.124552
H	 0.4265698861	-0.1735411694	-1.0701959177	 0.112922
H	 0.5590792732	-0.5209497597	 0.6513664748	 0.112905
H	-1.7389159524	-1.1034676665	-2.1572471471	 0.104525
H	-4.4574188547	-0.5736303897	 0.940980725	 0.131237
H	-3.7928259386	-2.1651506045	 1.2675265744	 0.132221
H	-1.7348698575	-1.1580784171	 1.9533154476	 0.116543
H	-2.3907741474	 0.4257080786	 1.6015179737	 0.120564
50.5104	93.8563	132.9639	212.3256	253.7408	324.7072	473.5912	511.2939	553.009	600.0663	631.1949	788.6814	829.9825	836.0454	874.7835	898.4881	957.1588	1005.1046	1007.4957	1063.2855	1088.5157	1153.4273	1160.81	1187.013	1231.263	1257.0379	1269.8699	1309.7407	1347.4664	1357.3466	1408.5227	1452.6833	1481.2435	1482.1358	1499.154	1508.252	1674.4315	1811.2758	3014.2857	3028.6287	3043.0214	3055.7596	3066.7297	3072.4588	3107.0679	3116.3228	3117.8346	3210.8847
CCC1=CC(=O)CC1	CCC1=CC(=O)CC1	
InChI=1S/C7H10O/c1-2-6-3-4-7(8)5-6/h5H,2-4H2,1H3	InChI=1S/C7H10O/c1-2-6-3-4-7(8)5-6/h5H,2-4H2,1H3
