23
gdb 92499	2.64158	1.34193	1.13347	1.2239	84.72	-0.246	0.0733	0.3193	1217.4802	0.206764	-388.302933	-388.294149	-388.293204	-388.335895	35.415	
C	-0.6359934096	 1.3225767092	-0.1292120816	-0.414243
C	 0.0838678967	-0.0138941734	 0.0324622513	 0.060781
C	 0.7198310424	-0.5631015253	-1.271954073	-0.245274
C	 1.8579689029	-1.4876843648	-0.7967433392	-0.053974
C	 3.3428226894	-1.0216110441	-0.9249239285	-0.236998
C	 3.5411031728	-1.2464373316	 0.600970005	-0.301666
C	 1.9984286251	-1.3183029654	 0.7526343179	 0.435846
O	 1.4472640489	-2.2956763161	 1.6094275491	-0.496068
C	 1.2628684011	 0.0000202312	 1.0267812799	-0.247842
H	 0.0548833082	 2.1003121866	-0.4768546024	 0.107986
H	-1.4493958497	 1.2519643101	-0.8596124631	 0.110392
H	-1.0698525367	 1.661467311	 0.8176587248	 0.111667
H	-0.6338820281	-0.7606235204	 0.3959209904	 0.082883
H	-0.0171461819	-1.0742625248	-1.898803438	 0.093448
H	 1.1214819365	 0.2651914295	-1.8696883582	 0.090425
H	 1.7306329713	-2.5296962068	-1.1051946599	 0.054927
H	 3.9838319852	-1.6038653425	-1.590028661	 0.098018
H	 3.4199472617	 0.0306854238	-1.2119347255	 0.100339
H	 3.9990274045	-2.21910144	 0.8107542461	 0.087388
H	 4.0756166954	-0.484091403	 1.1741738295	 0.097245
H	 1.8001176782	-3.152696617	 1.3488292046	 0.270932
H	 1.9178564051	 0.8544111807	 0.8143969959	 0.088846
H	 0.9520936305	 0.0670303231	 2.0726479058	 0.10494
93.4095	132.287	226.5906	258.0661	267.3953	333.4027	358.2012	370.6464	415.9014	459.0152	523.3887	587.4955	652.9995	758.5093	804.8289	833.6333	850.8535	877.5182	920.5603	935.1245	942.4963	949.9162	1015.7305	1029.7441	1058.019	1070.8692	1106.8179	1118.3286	1146.7906	1160.1199	1197.8267	1215.2465	1228.8169	1256.2373	1257.0071	1280.7547	1299.9279	1313.165	1320.158	1354.559	1380.992	1395.1252	1410.4396	1478.7254	1480.3624	1490.5449	1496.1369	1497.428	1503.2145	3017.3057	3020.8432	3024.9619	3036.3803	3043.0248	3055.6072	3061.6285	3079.7506	3087.8534	3093.4946	3094.6628	3101.1688	3116.3756	3810.72
CC1CC2CCC2(O)C1	C[C@H]1C[C@H]2CC[C@@]2(O)C1	
InChI=1S/C8H14O/c1-6-4-7-2-3-8(7,9)5-6/h6-7,9H,2-5H2,1H3	InChI=1S/C8H14O/c1-6-4-7-2-3-8(7,9)5-6/h6-7,9H,2-5H2,1H3/t6-,7+,8+/m0/s1
