20
gdb 59030	3.11879	1.17662	1.06286	0.4211	80.72	-0.2208	0.0094	0.2302	1227.9673	0.170881	-403.125624	-403.116792	-403.115847	-403.159359	33.578	
C	 0.0350414875	 1.5419672147	 0.024034557	-0.405068
C	-0.0262308558	 0.0094198917	 0.0330042535	 0.002168
O	 0.6874223199	-0.5257439866	 1.1503809153	-0.428793
C	-1.4354630071	-0.5150554281	-0.0122393617	 0.373554
C	-2.0068378451	-1.2549772848	-0.9654584553	-0.233745
C	-3.4457709897	-1.5675710432	-0.6247121741	-0.202627
N	-3.6816529994	-0.9765780631	 0.7138964734	-0.100468
C	-2.8684388674	-1.5531796403	 1.7873489494	-0.236794
C	-2.4181173991	-0.3063161713	 1.1001163039	-0.155551
H	 1.0775050083	 1.8690261336	 0.0660250623	 0.125747
H	-0.4287566991	 1.9492940237	-0.8796779524	 0.122806
H	-0.4885728484	 1.9634017277	 0.8898712549	 0.111777
H	 0.5129225577	-0.3694133471	-0.8417361304	 0.093118
H	 0.2304005666	-0.2475540212	 1.9518683084	 0.28143
H	-1.5140945851	-1.6163616625	-1.861250373	 0.097047
H	-4.1466108846	-1.1173821219	-1.3408657364	 0.114537
H	-3.659287702	-2.6440786428	-0.6084514341	 0.115059
H	-3.3301667011	-1.5056360626	 2.7702808191	 0.114393
H	-2.2948146042	-2.4556741616	 1.5855014758	 0.117085
H	-2.4992666519	 0.6590124157	 1.5946631244	 0.094325
53.2929	111.4773	182.1961	234.7149	243.3878	298.5528	314.2463	355.7713	412.9984	498.621	606.4294	686.2398	720.1131	766.2068	824.6275	834.9636	869.3821	900.9194	943.7803	986.9836	1007.895	1030.02	1040.8394	1076.7165	1090.1881	1093.394	1109.6235	1152.1109	1204.4615	1214.9115	1249.517	1265.5621	1302.4518	1340.1982	1347.8133	1382.0534	1399.1945	1417.4239	1484.5918	1490.3333	1493.7946	1498.3137	1704.7253	3008.8323	3032.2405	3042.6785	3056.4428	3094.2038	3102.6062	3120.92	3128.8128	3184.5399	3194.3367	3801.4268
CC(O)C1=CCN2CC12	C[C@@H](O)C1=CCN2C[C@@H]12	
InChI=1S/C7H11NO/c1-5(9)6-2-3-8-4-7(6)8/h2,5,7,9H,3-4H2,1H3	InChI=1S/C7H11NO/c1-5(9)6-2-3-8-4-7(6)8/h2,5,7,9H,3-4H2,1H3/t5-,7+,8?/m1/s1
