21
gdb 77392	2.13615	1.96726	1.24162	1.471	82.78	-0.249	0.0717	0.3207	1087.7842	0.181202	-387.028078	-387.019241	-387.018297	-387.060688	34.955	
C	-0.173810457	 1.6085804861	 0.0144745862	-0.436685
C	-0.044302876	 0.0919973904	 0.004124334	-0.112464
C	 0.8998915807	-0.5918012274	-1.0223545668	 0.356967
C	 0.7802709174	-0.6073950413	-2.5206057973	-0.522453
C	 2.1981144929	-0.2794385489	-0.1859072573	-0.165119
C	 2.655136819	-1.7520261611	-0.2049953712	-0.286901
C	 1.1209396571	-1.8357331343	-0.0815294397	-0.119705
C	 1.0496427715	-0.5931788931	 0.8501784338	 0.401619
O	 1.1610172869	-0.68837647	 2.2260732529	-0.478374
H	 0.8020128691	 2.0997964996	-0.0694790724	 0.111137
H	-0.7933686947	 1.960529632	-0.8176123205	 0.118364
H	-0.6466362234	 1.9591292405	 0.9393173636	 0.112804
H	-1.0291795781	-0.3881720186	 0.0843141666	 0.059317
H	 0.8171765521	 0.407963023	-2.9312043017	 0.119243
H	 1.5924585227	-1.1812439758	-2.9800843935	 0.12202
H	-0.1672920682	-1.0585451006	-2.835935149	 0.119249
H	 2.8038474902	 0.6266287227	-0.2459064178	 0.0628
H	 3.0995397374	-2.1212483693	-1.1345689084	 0.087546
H	 3.231325911	-2.0951888247	 0.6583698747	 0.100646
H	 0.4696198392	-2.7098533578	-0.0226378876	 0.066703
H	 1.2956814602	 0.1961313586	 2.5829821614	 0.283287
180.8493	185.7245	208.0639	216.3699	235.5396	256.5955	269.4894	306.2853	412.6413	526.5123	534.4386	589.8586	657.6031	724.7814	734.5316	822.6823	875.1331	906.9069	920.3761	936.1689	996.0142	1014.8304	1034.6994	1075.2416	1094.042	1104.7152	1113.8578	1117.4349	1142.2687	1165.5479	1183.7135	1206.1582	1236.7918	1270.4585	1279.2125	1312.696	1376.128	1408.1976	1411.0938	1437.6615	1487.1882	1492.5437	1496.345	1503.0475	1509.5806	3014.2553	3023.6204	3025.1959	3045.8159	3085.0044	3087.1834	3089.1343	3092.7535	3095.9422	3098.7971	3105.0814	3805.5348
CC1C2(C)C3CC2C13O	C[C@H]1[C@@]2(C)[C@@H]3C[C@H]2[C@]13O	
InChI=1S/C8H12O/c1-4-7(2)5-3-6(7)8(4,5)9/h4-6,9H,3H2,1-2H3	InChI=1S/C8H12O/c1-4-7(2)5-3-6(7)8(4,5)9/h4-6,9H,3H2,1-2H3/t4-,5-,6+,7-,8-/m0/s1
