16
gdb 125691	3.38753	1.09441	0.83411	3.1702	79.28	-0.2055	-0.0072	0.1983	1326.7281	0.125702	-430.268978	-430.260025	-430.259081	-430.303612	31.491	
C	 0.0234055673	 1.5092297028	-0.0149413645	-0.496627
C	-0.0221245155	 0.0189253363	 0.0210929275	 0.240904
N	 5.6868*^-6	-0.7359114407	-1.0783949826	-0.265183
N	-0.0435932801	-1.9759863256	-0.6053000091	-0.090452
N	-0.1075859623	-2.1094228217	 0.715005431	-0.295958
C	-0.0846547789	-0.8398650436	 1.1465019632	 0.302293
N	-0.1361484805	-0.4283593218	 2.4674844652	-0.348709
C	 0.1114157566	-1.2833165959	 3.3883073153	 0.113428
N	-0.0291618498	-0.9787439862	 4.7067422603	-0.499221
H	 1.0028223432	 1.8884467189	 0.2984496428	 0.131131
H	-0.1741096219	 1.8702049219	-1.026503106	 0.135064
H	-0.7171318124	 1.9342372721	 0.6688417134	 0.137647
H	-0.0862336569	-2.7723531133	-1.2186291003	 0.285177
H	 0.4122308566	-2.3169713413	 3.1907619846	 0.124877
H	-0.1755701533	-0.0087591803	 4.9415201165	 0.263151
H	 0.4332796412	-1.5494620914	 5.3930265326	 0.262477
53.2917	64.9637	132.3461	159.2407	262.9751	273.3549	343.1026	397.0001	433.2066	447.2823	519.9572	591.5124	675.4704	709.0332	773.148	826.8109	978.9149	1019.3327	1020.2808	1069.4476	1089.3822	1188.2395	1194.3679	1271.9652	1305.9483	1360.1284	1377.6977	1412.0207	1459.5759	1478.3277	1486.3168	1545.3447	1559.3083	1627.3804	1728.698	3037.9821	3084.6774	3094.1254	3134.0334	3591.1197	3676.0373	3723.3102
CC1=NNN=C1N=CN	Cc1n[nH]nc1N=CN	
InChI=1S/C4H7N5/c1-3-4(6-2-5)8-9-7-3/h2H,1H3,(H3,5,6,7,8,9)	InChI=1S/C4H7N5/c1-3-4(6-2-5)8-9-7-3/h2H,1H3,(H3,5,6,7,8,9)
