17
gdb 87355	2.11241	1.35822	0.96789	2.4426	70.54	-0.2597	-0.0495	0.2102	1228.45	0.13183	-458.96298	-458.953497	-458.952552	-458.998084	33.161	
C	 0.4565424798	 1.4834829325	 0.3333101695	-0.442706
C	 0.2357305871	 0.0001371314	 0.1887444672	 0.041796
O	 1.3733599658	-0.8439374572	 0.072493289	-0.270799
C	 0.5662356029	-0.9688887509	 1.2685093459	 0.250992
C	 1.1784556272	-0.5346081029	 2.5913490961	-0.403643
C	 2.6707649313	-0.2881375246	 2.465889588	 0.17947
O	 3.196043708	 0.7749036927	 2.6717558455	-0.243756
C	-0.2229385165	-2.2454959458	 1.2673003187	 0.124417
O	-0.5328786824	-2.8534507751	 2.2589429635	-0.25351
H	 1.2723225417	 1.7111392212	 1.0215772787	 0.161499
H	 0.6980928278	 1.9158359988	-0.6428125914	 0.141206
H	-0.4588479303	 1.9639304748	 0.694469812	 0.132879
H	-0.5758393979	-0.2806305455	-0.4868243041	 0.100383
H	 0.7045519091	 0.3697380849	 2.9800178827	 0.133205
H	 1.0109896165	-1.3464542932	 3.3100901511	 0.153268
H	 3.2653413321	-1.1783598967	 2.1700657199	 0.096971
H	-0.4912795623	-2.5923550045	 0.2461804576	 0.098329
55.4126	80.9961	106.4263	185.5787	214.9683	222.9923	254.0792	279.4908	425.9607	464.7024	485.1467	510.1382	590.4298	732.2493	779.183	869.6823	889.2194	975.269	998.2584	1022.4668	1060.5169	1083.2686	1133.4249	1165.743	1201.8252	1249.529	1314.6045	1332.117	1403.5694	1416.846	1427.1388	1448.3455	1475.2056	1495.8733	1504.1592	1825.1613	1831.7853	2908.4346	2910.634	3043.8634	3044.4949	3082.5154	3107.6505	3110.1676	3147.0556
CC1OC1(CC=O)C=O	C[C@H]1O[C@]1(CC=O)C=O	
InChI=1S/C6H8O3/c1-5-6(4-8,9-5)2-3-7/h3-5H,2H2,1H3	InChI=1S/C6H8O3/c1-5-6(4-8,9-5)2-3-7/h3-5H,2H2,1H3/t5-,6-/m1/s1
