14
gdb 29013	3.24966	1.53768	1.04378	2.5048	75.59	-0.2326	-0.0828	0.1498	1049.5006	0.102632	-432.936438	-432.928817	-432.927872	-432.969361	27.832	
N	 0.2525101487	 1.2654855277	 0.3873894266	-0.601741
C	 0.1391307666	-0.0608622529	 0.156432191	 0.269636
C	-1.1109220657	-0.7274205261	 0.1550243775	-0.031637
N	-1.2362654976	-2.0199946265	-0.0651839959	-0.237099
C	-0.1051204923	-2.7146288322	-0.2971560613	 0.034891
N	 1.1153702326	-2.2139348878	-0.324047335	-0.289729
C	 1.2532020423	-0.8954096231	-0.100590791	 0.158514
C	 2.6265408439	-0.3746204648	-0.1408446775	 0.112885
O	 2.9318015724	 0.7924174987	 0.0373954624	-0.307907
H	 1.1746260312	 1.6774543363	 0.3641337701	 0.290473
H	-0.5618555955	 1.8299535239	 0.5527713063	 0.261748
H	-2.0225224348	-0.1600139705	 0.3433300237	 0.110909
H	-0.216607991	-3.7791528944	-0.4773896279	 0.119704
H	 3.3861068393	-1.1510825783	-0.353257419	 0.109351
32.8161	189.0101	198.2185	261.3838	307.1858	392.2065	443.1112	468.4245	573.668	613.4153	633.1923	677.0033	779.9617	790.2684	906.1354	920.4645	968.7751	1044.464	1062.595	1154.5105	1214.3275	1274.0926	1328.6637	1374.7215	1396.0842	1466.819	1486.6767	1556.2842	1599.5813	1639.6578	1758.5446	2961.8462	3125.8764	3185.2814	3548.4349	3716.5105
NC1=CN=CN=C1C=O	Nc1cncnc1C=O	
InChI=1S/C5H5N3O/c6-4-1-7-3-8-5(4)2-9/h1-3H,6H2	InChI=1S/C5H5N3O/c6-4-1-7-3-8-5(4)2-9/h1-3H,6H2
