19
gdb 111243	3.50892	1.25296	1.16131	1.2783	70.98	-0.2366	0.0846	0.3212	1130.5434	0.16007	-460.119024	-460.111076	-460.110132	-460.15153	30.488	
C	 0.1729949449	 1.2946870388	 0.1051191077	-0.242206
O	-0.2299646822	-0.0157890894	-0.2384610408	-0.25698
C	 0.5210082006	-0.5752567808	-1.2829744917	 0.137653
C	 1.8796295981	-1.2328649683	-0.8559641836	 0.066156
C	 1.0462502887	-2.4661888521	-0.4095779788	-0.29758
C	 0.07846809	-2.0411376261	-1.5494041322	 0.071842
O	 0.584084093	-2.4158520132	-2.8309718576	-0.276223
C	 1.9938288169	-2.5089629907	-2.8269021702	 0.024036
O	 2.6086749889	-1.4968675357	-2.0567625836	-0.273456
H	 1.2112183532	 1.3300990095	 0.4649644389	 0.111024
H	 0.0814991854	 1.978831713	-0.7516071372	 0.11282
H	-0.4887608235	 1.6357706395	 0.9045370573	 0.129914
H	 0.5720347045	 0.0804669787	-2.1620643215	 0.072488
H	 2.5535546314	-0.7306605719	-0.1603938686	 0.081731
H	 1.4944424287	-3.4603310253	-0.4152462596	 0.10778
H	 0.58388178	-2.2690108603	 0.557442344	 0.128471
H	-0.9815488407	-2.2950610335	-1.513827991	 0.088901
H	 2.2998576406	-3.4979806305	-2.4533219407	 0.092209
H	 2.3340587716	-2.3886891317	-3.8582605406	 0.121419
94.5923	162.8042	168.2975	264.5229	302.2074	334.672	380.2378	474.6825	481.7437	496.0434	652.7979	821.8376	855.0284	911.2165	915.3199	945.3015	971.6423	994.3762	1004.7637	1023.5584	1090.6562	1108.6121	1150.719	1164.0287	1169.4768	1184.5947	1189.9762	1223.4758	1233.6572	1265.1641	1266.333	1277.7268	1327.0507	1336.0017	1381.1423	1437.6596	1473.0406	1483.0131	1487.9073	1508.3262	1540.7169	2978.5386	2985.8237	3026.7572	3036.4502	3090.837	3099.0251	3103.8741	3112.9877	3119.2074	3154.1916
COC1C2CC1OCO2	CO[C@H]1[C@H]2C[C@@H]1OCO2	
InChI=1S/C6H10O3/c1-7-6-4-2-5(6)9-3-8-4/h4-6H,2-3H2,1H3	InChI=1S/C6H10O3/c1-7-6-4-2-5(6)9-3-8-4/h4-6H,2-3H2,1H3/t4-,5+,6+
