17
gdb 82952	2.24507	1.891	1.5194	1.0666	66.41	-0.2297	0.0675	0.2972	941.6441	0.135568	-458.903568	-458.895929	-458.894985	-458.935152	30.835	
O	 0.1961824568	 1.3735690046	-0.0357745779	-0.426696
C	 0.0199183983	-0.00729441	 0.004908613	 0.016982
C	-0.4448693763	-0.6798442143	 1.2723563366	-0.029191
O	-1.0500014698	 0.2012665947	 2.1941521052	-0.278216
C	-2.4071809582	 0.4321712645	 1.8345383734	 0.093008
C	-2.7159096881	 1.4090995898	 0.7309419348	-0.340442
C	-2.6329518442	-0.079834779	 0.4413685041	-0.138271
C	-1.3244061267	-0.7394698353	 0.0411872437	 0.306255
O	-1.413813783	-1.9395294625	-0.6631068395	-0.46559
H	 0.1835661994	 1.6747660453	 0.8827711936	 0.29782
H	 0.7718511434	-0.5531326671	-0.5634762845	 0.10605
H	 0.0708082098	-1.5249867533	 1.7173759714	 0.107829
H	-3.0927152011	 0.2927472635	 2.6635268567	 0.104942
H	-3.7127272955	 1.8389043509	 0.7494180856	 0.112203
H	-1.9436296265	 2.0576169312	 0.3449942963	 0.14364
H	-3.5194423383	-0.637551874	 0.1649847516	 0.100616
H	-1.4573491499	-1.7294387492	-1.602726684	 0.289062
155.4012	211.3675	242.0048	273.8291	333.3854	363.2752	408.8778	440.5916	554.9536	600.0496	653.1007	697.1378	712.9926	789.0534	824.2622	835.5865	915.7993	963.1548	979.7142	998.5944	1026.3676	1066.6668	1073.6462	1093.2588	1106.1368	1143.9654	1162.2618	1193.5674	1210.9069	1250.8961	1309.871	1323.5661	1335.8507	1369.2701	1377.6233	1451.0381	1475.215	3118.8162	3142.7485	3159.9474	3166.7073	3187.5267	3261.0801	3753.6736	3793.7891
OC1C2OC3CC3C12O	O[C@H]1[C@H]2O[C@H]3C[C@H]3[C@@]12O	
InChI=1S/C6H8O3/c7-4-5-6(4,8)2-1-3(2)9-5/h2-5,7-8H,1H2	InChI=1S/C6H8O3/c7-4-5-6(4,8)2-1-3(2)9-5/h2-5,7-8H,1H2/t2-,3+,4+,5-,6-/m1/s1
