19
gdb 100000	3.07248	1.04457	0.9541	2.9357	67.89	-0.2647	-0.0342	0.2305	1279.1986	0.155191	-497.302404	-497.291999	-497.291055	-497.337474	37.974	
C	-0.0388579421	 1.5916937043	 0.0909943365	-0.43699
C	-0.0500306205	 0.061761351	-0.0188093207	 0.342401
O	 0.6738499012	-0.538178618	 1.0514602616	-0.488469
C	-1.4876340967	-0.4770841971	-0.0013816675	-0.12054
O	-1.9892899489	-0.2155506742	 1.3084752213	-0.43877
C	 0.658582855	-0.4252021247	-1.3069845858	 0.024604
O	-0.0017333245	 0.0227601077	-2.4580174763	-0.442149
C	 2.1125391483	 0.0079672304	-1.3335941877	 0.128401
O	 2.5598186802	 0.6195949871	-2.2761284735	-0.273101
H	 0.9788421842	 1.9535349069	 0.2619422238	 0.120861
H	-0.4242166539	 2.0411547408	-0.8281199058	 0.129368
H	-0.6642145148	 1.9118788512	 0.9277290949	 0.131097
H	 0.0703238185	-0.5393523145	 1.8057876344	 0.291205
H	-2.0891448975	 0.0150732247	-0.7748709462	 0.117901
H	-1.4695189982	-1.5576036776	-0.2026522534	 0.093805
H	-2.8264181442	-0.674693384	 1.4159123098	 0.297735
H	 0.6686942427	-1.5291624212	-1.2598505038	 0.097814
H	 0.6786896428	 0.4769405226	-2.9826185042	 0.296281
H	 2.7287908284	-0.2733736155	-0.4624472074	 0.128548
72.6483	103.7633	131.7089	187.8352	226.3389	239.7569	269.2533	284.1287	318.7145	354.5228	363.803	428.0445	436.9653	477.3079	505.3377	629.844	736.9553	788.6977	859.6986	923.3893	955.7599	999.576	1012.3788	1066.3138	1121.7842	1158.8346	1173.1069	1194.9732	1236.5677	1261.5813	1307.4606	1330.8225	1376.4744	1392.9345	1399.2643	1441.4644	1445.5837	1492.8317	1504.0911	1513.4637	1803.0364	2949.2665	2998.2833	2999.3338	3048.3941	3059.899	3123.8719	3132.7396	3664.6994	3769.8337	3847.6665
CC(O)(CO)C(O)C=O	C[C@@](O)(CO)[C@@H](O)C=O	
InChI=1S/C5H10O4/c1-5(9,3-7)4(8)2-6/h2,4,7-9H,3H2,1H3	InChI=1S/C5H10O4/c1-5(9,3-7)4(8)2-6/h2,4,7-9H,3H2,1H3/t4-,5+/m0/s1
