20
gdb 9752	3.16107	1.61065	1.47255	1.6035	75.71	-0.2379	0.0161	0.2539	978.602	0.17725	-349.016525	-349.008088	-349.007144	-349.049125	32.219	
C	-0.0398403254	 1.5728429834	-0.0104877656	-0.439216
C	-0.0254405551	 0.0376376424	-0.0047967655	 0.263734
C	-1.4796999411	-0.4908490816	-0.0371708221	-0.093262
O	-2.2371263827	-0.1393180396	 1.1105240119	-0.425509
C	 0.7836482041	-0.5698369049	-1.1907450341	-0.262302
C	 1.5718044474	-1.7752172194	-0.6142934926	-0.256886
C	 1.5525605465	-1.5120717231	 0.8724317424	-0.073582
C	 0.7069461539	-0.5364697894	 1.1974661427	-0.112385
H	 0.9700022186	 1.977559628	 0.1094562735	 0.108274
H	-0.4478692552	 1.9530243118	-0.9542073452	 0.108935
H	-0.6671688898	 1.9535754963	 0.8006302405	 0.125891
H	-2.0095024772	-0.0479379985	-0.8886603782	 0.104239
H	-1.4691663898	-1.5820466411	-0.1838246734	 0.083139
H	-1.8717014531	-0.6261150768	 1.8561675293	 0.282689
H	 0.1381959833	-0.8495981403	-2.0297824923	 0.093999
H	 1.4850849569	 0.1820086436	-1.5659533714	 0.10113
H	 1.091409665	-2.7357114385	-0.8469856779	 0.106573
H	 2.5881034459	-1.8414760001	-1.0192502392	 0.104138
H	 2.1527838023	-2.0809313697	 1.5749164561	 0.091809
H	 0.5263615454	-0.1774327425	 2.2061689912	 0.088594
78.2819	132.4138	205.8846	232.2836	278.5629	311.0278	333.8638	368.7954	425.8569	521.9618	629.8555	711.262	766.0648	799.1075	844.7491	898.4779	926.0793	942.1337	958.9951	977.9882	999.0473	1020.5934	1070.0803	1114.7204	1124.7796	1147.4089	1206.8671	1218.2657	1247.0282	1277.8421	1312.786	1322.1316	1381.3452	1385.7837	1402.8623	1420.3332	1480.4424	1488.0469	1497.05	1500.4727	1503.1672	1684.6685	2981.6607	3011.2024	3027.6735	3042.8072	3053.4732	3060.2991	3086.66	3094.2949	3114.4364	3168.4073	3196.5287	3816.856
CC1(CO)CCC=C1	C[C@@]1(CO)CCC=C1	
InChI=1S/C7H12O/c1-7(6-8)4-2-3-5-7/h2,4,8H,3,5-6H2,1H3	InChI=1S/C7H12O/c1-7(6-8)4-2-3-5-7/h2,4,8H,3,5-6H2,1H3/t7-/m0/s1
