14
gdb 127771	3.5849	1.68209	1.15329	4.7754	69.85	-0.2444	-0.0202	0.2242	980.9891	0.104108	-429.024483	-429.017393	-429.016449	-429.056136	26.077	
C	-0.0091855828	 1.4460299692	-0.0237051262	-0.351538
N	-0.0078081425	 0.0047165919	 0.0625900118	-0.126037
N	-0.0660474868	-0.767020532	-1.098084016	-0.149434
N	-0.0538263768	-2.0193816682	-0.7858390055	-0.285013
C	 0.0120203923	-2.1206761067	 0.5769120324	 0.221842
C	 0.0408646152	-0.8393240335	 1.1097269491	 0.491993
N	 0.1060821908	-0.943776521	 2.4532632122	-0.3681
N	 0.1209786455	-2.271364778	 2.8240279224	-0.210863
C	 0.0650406358	-2.9805131726	 1.7076007232	-0.103566
H	 0.9064838696	 1.8664558596	 0.4042348328	 0.145406
H	-0.060682527	 1.7015129524	-1.0824100317	 0.176899
H	-0.8768602663	 1.8699373586	 0.4918294052	 0.145395
H	 0.1423268054	-0.241442939	 3.1693997226	 0.279991
H	 0.0652016177	-4.0581902006	 1.7626210176	 0.133025
114.0851	150.4585	255.7346	257.4359	291.2366	375.8476	527.1659	625.7958	647.5632	663.6039	706.7079	775.9288	841.3367	883.3665	935.4772	974.1312	1040.3074	1153.1879	1158.1008	1208.964	1244.0665	1313.0623	1353.186	1370.4549	1438.7678	1453.8508	1484.8602	1486.8048	1506.1494	1539.2187	1667.2761	3038.0145	3099.1957	3157.6541	3260.068	3699.0247
CN1N=NC2=C1NN=C2	Cn1nnc2c1[nH]nc2	
InChI=1S/C4H5N5/c1-9-4-3(6-8-9)2-5-7-4/h2H,1H3,(H,5,7)	InChI=1S/C4H5N5/c1-9-4-3(6-8-9)2-5-7-4/h2H,1H3,(H,5,7)
