16
gdb 76932	2.24053	1.20908	1.01147	3.8493	72.2	-0.2642	-0.0482	0.216	1216.5769	0.121652	-437.887808	-437.878387	-437.877443	-437.922153	33.47	
C	-0.0400152871	 1.564179347	-0.1477824923	-0.467056
C	 0.0222116771	 0.046297526	-0.0349031639	 0.087823
C	-1.146350571	-0.6370523603	-0.535612546	 0.257226
N	-2.0851224415	-1.1790019277	-0.9392218126	-0.333653
C	 1.3302813493	-0.6779154514	-0.2006580556	 0.059602
O	 2.4271940948	 0.1277703105	-0.4753962542	-0.411197
C	 0.6897046769	-0.6534450176	 1.182960796	-0.201677
C	 1.281069945	 0.1500440919	 2.2838805518	 0.154508
O	 1.2382268555	-0.1946814953	 3.4395894299	-0.257989
H	 0.9306589074	 2.01091614	 0.0640450245	 0.15353
H	-0.321540142	 1.8418262037	-1.166834883	 0.149711
H	-0.7857897419	 1.9748335912	 0.5374995851	 0.145993
H	 1.3049289353	-1.6343092139	-0.7199249891	 0.130188
H	 3.2235581406	-0.3258904182	-0.1778389568	 0.306075
H	 0.2179766305	-1.5694001042	 1.5208335308	 0.134082
H	 1.7887708913	 1.0878477982	 1.9832009054	 0.092834
77.6113	119.9838	163.2145	174.168	190.9238	232.8778	269.4822	312.1045	375.1346	424.7104	457.0535	550.6232	570.0437	598.7871	668.807	826.1952	902.7628	962.1793	1001.0004	1045.5339	1075.6547	1100.8026	1131.4891	1170.7653	1233.238	1255.2324	1308.0844	1336.8385	1409.5367	1444.4659	1453.7098	1490.5742	1503.9742	1809.8685	2352.7006	2933.7914	3059.6811	3124.435	3125.619	3162.0256	3185.9624	3807.38
CC1(C#N)C(O)C1C=O	C[C@@]1(C#N)[C@@H](O)[C@H]1C=O	
InChI=1S/C6H7NO2/c1-6(3-7)4(2-8)5(6)9/h2,4-5,9H,1H3	InChI=1S/C6H7NO2/c1-6(3-7)4(2-8)5(6)9/h2,4-5,9H,1H3/t4-,5+,6+/m1/s1
