17
gdb 68511	2.66512	1.84865	1.42811	1.6994	72.28	-0.2325	0.0028	0.2353	944.9761	0.137223	-417.950758	-417.943436	-417.942492	-417.982238	29.191	
C	 0.0288309463	 1.5224348074	 0.0061716036	-0.515618
C	-0.0155517781	 0.0213651436	 0.0385533359	 0.206684
N	 0.4314363306	-0.7666379806	-1.1784607663	-0.314037
C	-0.3231618572	-1.9334204348	-0.5914228583	-0.150548
C	 0.4418931037	-2.1738325008	 0.7136998518	-0.035674
N	 1.8075178208	-1.6061582933	 0.7395069499	-0.318529
C	 0.6620255511	-0.7739041688	 1.1663331739	-0.087885
C	-1.329717845	-0.821765288	-0.1419694897	 0.372355
O	-2.4942510105	-0.5891564643	-0.2613969702	-0.327228
H	 1.0520582691	 1.8767083013	-0.1510300509	 0.141818
H	-0.6080484653	 1.9203651678	-0.7902108684	 0.1285
H	-0.3326530023	 1.9322578163	 0.9545126062	 0.132527
H	-0.0869203066	-0.4234503585	-1.9880284444	 0.235813
H	-0.5833746489	-2.7616721416	-1.2458953028	 0.093958
H	 0.1580934016	-2.9847537704	 1.3725573184	 0.104413
H	 2.262715307	-1.9525180767	 1.5823053675	 0.234227
H	 0.5578903035	-0.4460693785	 2.193643474	 0.099224
145.5892	179.5893	202.9567	299.8784	302.893	424.8497	524.8168	555.5857	603.0976	716.0376	721.5345	734.5388	809.8254	842.6825	862.8146	882.3452	892.9501	903.414	942.7818	1024.056	1038.8651	1057.8816	1089.7802	1111.9943	1135.5813	1165.4312	1181.0765	1217.3813	1255.0694	1292.0804	1308.9283	1373.8883	1405.4878	1421.9339	1486.4707	1489.5794	1877.2081	3038.2873	3107.7812	3113.6851	3157.4096	3184.907	3197.3314	3463.2262	3490.4518
CC12NC(C3NC13)C2=O	C[C@@]12N[C@@H]([C@H]3N[C@@H]13)C2=O	
InChI=1S/C6H8N2O/c1-6-4-2(7-4)3(8-6)5(6)9/h2-4,7-8H,1H3	InChI=1S/C6H8N2O/c1-6-4-2(7-4)3(8-6)5(6)9/h2-4,7-8H,1H3/t2-,3+,4-,6-/m1/s1
