16
gdb 123580	3.95643	1.54914	1.21852	3.5159	73.78	-0.2415	-0.0077	0.2338	985.2373	0.127587	-400.735718	-400.729464	-400.72852	-400.766227	25.715	
C	-0.0139765001	 1.4822959735	 0.0696231521	-0.283724
C	 1.3052084075	 0.7603074381	 0.0201744666	-0.032133
C	 2.0330432644	 0.4605697329	 1.3447076677	-0.361596
C	 1.0554256778	-0.4422066556	 2.0511898406	 0.360315
N	 1.0310181549	-1.0225761797	 3.2179140255	-0.24291
O	-0.1580447074	-1.7678151992	 3.2050825641	-0.177354
C	-0.7958914404	-1.5847698966	 2.0241512328	-0.100551
C	-0.0757464272	-0.748104728	 1.2425808581	 0.192102
C	-0.0096939692	-0.0312909853	-0.0482834233	-0.203491
H	-0.3447027461	 1.9167274585	 1.0078937253	 0.122462
H	-0.3019608994	 2.0460562733	-0.8113929453	 0.118329
H	 1.9101499684	 0.8810983505	-0.8704539029	 0.094988
H	 2.9833558062	-0.0536903999	 1.1649962479	 0.132006
H	 2.2600493025	 1.366753137	 1.915371878	 0.133416
H	-1.7248721197	-2.1220914537	 1.9163520834	 0.149159
H	-0.3516990623	-0.4921905558	-0.9666380306	 0.098983
156.6018	234.6642	343.2061	429.4054	443.8158	592.396	601.2395	687.0798	705.9871	766.7984	790.8693	818.4234	827.1691	877.223	888.9846	958.2749	968.7921	982.725	1033.3377	1072.1672	1086.9958	1099.3082	1110.9856	1170.2375	1181.2621	1204.693	1261.7348	1289.6061	1328.6116	1368.7137	1414.1702	1475.7445	1485.488	1558.5185	1678.9065	3048.8317	3084.8443	3126.1722	3180.2964	3188.3117	3215.029	3266.5178
C1C2CC3=NOC=C3C12	C1[C@H]2Cc3nocc3[C@@H]12	
InChI=1S/C7H7NO/c1-4-2-7-6(5(1)4)3-9-8-7/h3-5H,1-2H2	InChI=1S/C7H7NO/c1-4-2-7-6(5(1)4)3-9-8-7/h3-5H,1-2H2/t4-,5-/m0/s1
