13
gdb 5162	7.86555	1.21475	1.07466	2.197	63.06	-0.2239	0.0008	0.2247	1024.4979	0.097342	-394.80354	-394.79669	-394.795746	-394.835335	24.443	
N	-0.1698368507	 1.3419757149	 0.0887224646	-0.42332
C	-0.3898879076	 0.1646681196	-0.2907950646	 0.109714
O	-0.2044830989	-0.8597235584	 0.5951848551	-0.213954
C	-0.6443876776	-2.0902719992	 0.2242779435	 0.370953
C	-1.7678782832	-2.5684062344	-0.3954573229	-0.196419
N	-1.6927693046	-3.9430739325	-0.4867453377	-0.243047
C	-0.5580811584	-4.2794359902	 0.0743091887	 0.018843
N	 0.1291173172	-3.1841592227	 0.5234206551	-0.311469
H	-0.3218147869	 1.991715971	-0.6799499031	 0.240998
H	-0.7147236258	-0.1879618553	-1.27574672	 0.114751
H	-2.6185959609	-2.0152035845	-0.7602046718	 0.117923
H	-0.1790698459	-5.2828858672	 0.194359837	 0.137
H	 1.0199659131	-3.155081781	 0.9915416061	 0.278027
61.5146	117.2178	168.0467	348.1757	439.126	480.7921	515.7786	670.0374	684.17	789.9375	799.4971	820.5372	832.1964	926.2463	1016.2358	1051.4123	1057.4056	1100.3115	1141.1645	1250.2312	1275.5461	1289.7575	1397.0203	1399.7325	1440.7793	1519.5376	1614.5928	1751.0532	3068.8471	3255.5749	3259.3365	3524.3858	3662.1439
N=COC1=CN=CN1	[NH][CH]Oc1cnc[nH]1	
InChI=1S/C4H5N3O/c5-2-8-4-1-6-3-7-4/h1-3,5H,(H,6,7)	InChI=1S/C4H5N3O/c5-2-8-4-1-6-3-7-4/h1-3,5H,(H,6,7)
