19
gdb 41659	3.30747	1.88163	1.84347	1.5118	75.13	-0.2283	0.0912	0.3195	853.8473	0.164737	-385.901673	-385.895908	-385.894963	-385.931468	25.632	
C	-0.0365282881	 1.5557921916	 0.0341339146	-0.222035
C	 1.4619629824	 2.0014559786	 0.0165419268	-0.222035
C	 2.2363729724	 0.6733683222	-0.0699681529	-0.035128
C	 2.0281822038	-0.0066877573	-1.4233306604	-0.11223
C	 1.6552303928	-1.4353821889	-1.1112697375	 0.063756
O	 1.7311493738	-1.6354745852	 0.2846728657	-0.255293
C	 1.35016113	-0.3373935186	 0.7164232071	 0.058379
C	 0.0389266983	 0.0198264246	-0.0441537449	-0.035127
C	 0.5556185833	-0.4446263915	-1.4060390809	-0.112233
H	-0.5315390281	 1.8734826451	 0.9576457467	 0.095793
H	-0.6101568288	 1.9775775192	-0.7956026501	 0.09973
H	 1.6938601186	 2.662838326	-0.8226312818	 0.09973
H	 1.722735077	 2.5438967646	 0.9311975327	 0.095794
H	 3.2789065105	 0.7243276915	 0.2499552315	 0.065155
H	 2.5485200671	 0.290054468	-2.3241095142	 0.084837
H	 1.9047267963	-2.2980341619	-1.7123242256	 0.103034
H	 1.3466790852	-0.2827424643	 1.8034957611	 0.07788
H	-0.8548641714	-0.5050959255	 0.2985095723	 0.065156
H	-0.0616139149	-0.486176878	-2.2934554702	 0.084837
200.1665	331.3388	408.6007	554.9108	588.3599	657.7955	707.9246	755.1223	789.3368	806.567	811.1055	851.187	886.9712	904.1163	915.5678	953.4649	971.4794	999.15	1005.6022	1008.3462	1043.7841	1048.1511	1051.048	1053.346	1082.0664	1099.3758	1149.6014	1163.8081	1215.3018	1234.6772	1260.5891	1261.7708	1272.3512	1289.6452	1314.124	1326.348	1341.0769	1370.1352	1386.0843	1492.4618	1511.6992	3041.2469	3053.1163	3077.9937	3093.7024	3095.5299	3098.9568	3143.6734	3199.8611	3206.0208	3226.5882
C1CC2C3C4OC2C1C34	C1C[C@@H]2[C@H]3[C@H]4O[C@@H]2[C@@H]1[C@@H]34	
InChI=1S/C8H10O/c1-2-4-6-5-3(1)7(4)9-8(5)6/h3-8H,1-2H2	InChI=1S/C8H10O/c1-2-4-6-5-3(1)7(4)9-8(5)6/h3-8H,1-2H2/t3-,4+,5-,6+,7+,8-
