19
gdb 75440	3.05084	1.16209	0.87195	1.6371	84.79	-0.2389	0.0208	0.2597	1331.8099	0.158137	-385.864895	-385.85601	-385.855065	-385.898277	33.828	
C	-0.0003626577	 1.5325992394	 0.0449636115	-0.480973
C	-0.0000887074	 0.0315797147	-0.0262602526	 0.304974
C	 0.0086758109	-0.6476643545	-1.1735980049	-0.160248
C	-0.0347710904	-2.149131819	-1.2338670228	-0.117384
O	-0.3404540874	-2.7546469939	 0.0097922738	-0.259347
C	 0.4044948438	-2.182744272	 1.0792040814	-0.079185
C	-0.0097201315	-0.7146801307	 1.2883501777	-0.297055
C	 0.1986354196	-2.9916825628	 2.2765111033	 0.299001
C	 0.0395439942	-3.6223429056	 3.2861870011	-0.406862
H	 0.8845135777	 1.9050896421	 0.577056239	 0.123542
H	-0.0170026055	 1.9844296938	-0.9504524653	 0.121526
H	-0.8730902378	 1.9000526818	 0.6003605547	 0.126449
H	 0.0467357244	-0.1273018668	-2.1278829716	 0.083923
H	-0.8174206303	-2.483445874	-1.9251551833	 0.120079
H	 0.9225134476	-2.5408720788	-1.6264288427	 0.096817
H	 1.4783085022	-2.2024597106	 0.8224746761	 0.095001
H	 0.6777139225	-0.2435920056	 2.0020821985	 0.110328
H	-1.005617588	-0.6798558471	 1.7480426005	 0.124091
H	-0.1009419167	-4.1925541805	 4.1710262755	 0.195323
98.7462	135.3816	156.1443	190.819	263.2391	301.3988	325.54	423.8261	430.6733	475.5703	519.0735	563.1329	622.7504	671.8177	702.067	807.5964	850.8079	874.0772	941.7126	994.2411	1026.7962	1035.8972	1054.4762	1067.779	1082.5557	1147.5202	1184.2063	1215.866	1260.7409	1300.1656	1346.9114	1361.2908	1393.0248	1396.4381	1416.3622	1467.6476	1478.9224	1489.2596	1491.047	1747.6678	2245.3798	2928.5994	2946.5207	3014.2865	3025.0053	3050.6025	3058.5318	3061.761	3111.6893	3154.0309	3504.6344
CC1=CCOC(C1)C#C	CC1=CCO[C@@H](C1)C#C	
InChI=1S/C8H10O/c1-3-8-6-7(2)4-5-9-8/h1,4,8H,5-6H2,2H3	InChI=1S/C8H10O/c1-3-8-6-7(2)4-5-9-8/h1,4,8H,5-6H2,2H3/t8-/m1/s1
