18
gdb 123796	5.36138	0.93776	0.82495	1.4416	79.1	-0.1919	0.0344	0.2262	1375.8281	0.150304	-398.127874	-398.119844	-398.1189	-398.161189	30.596	
C	-0.3266833755	 1.0497757955	-0.3654605252	-0.247734
C	 1.045761607	 1.1312572157	 0.254387571	-0.288571
C	 0.3759753505	-0.2052763975	 0.0957525745	 0.038635
N	-0.0950854429	-0.8442502931	 1.287242966	-0.379336
C	-1.0850184624	-1.8148509402	 1.183546692	 0.405758
N	-1.1851922	-2.7690407541	 2.1081217975	-0.334676
N	-2.2716490395	-3.4859874393	 1.7242594119	-0.183848
C	-2.8397171204	-3.0201380148	 0.5923140043	-0.017491
C	-2.0992202639	-1.9259652207	 0.19687516	-0.28321
H	-1.1638492105	 1.3869709941	 0.2338888364	 0.124169
H	-0.425270021	 1.2182260588	-1.432062848	 0.110441
H	 1.8935144024	 1.3552923011	-0.3827457693	 0.113333
H	 1.1136310765	 1.5290847474	 1.2604703803	 0.119783
H	 0.7616824557	-0.8573218596	-0.6904742845	 0.084292
H	 0.6363861571	-1.1251459667	 1.9271201092	 0.238113
H	-2.550678205	-4.2749318798	 2.2793931473	 0.271332
H	-3.7099434564	-3.487733469	 0.1586321377	 0.126301
H	-2.2629770317	-1.299087198	-0.6625574512	 0.102707
65.1458	73.1248	132.4102	304.4791	340.0555	362.7138	419.3708	487.8339	610.52	647.1367	727.5444	754.8659	759.543	776.1405	823.4575	842.7631	848.5053	940.7468	965.0837	989.0618	1030.146	1056.65	1070.7306	1078.4066	1118.988	1134.6219	1191.2033	1196.2024	1214.771	1248.9701	1321.0342	1362.7086	1404.0292	1455.6549	1466.0726	1497.2972	1498.6906	1527.8785	1608.7676	3071.7675	3138.779	3143.6466	3223.1729	3237.2782	3256.204	3286.1276	3571.7099	3694.0022
C1CC1NC1=NNC=C1	C1CC1Nc1n[nH]cc1	
InChI=1S/C6H9N3/c1-2-5(1)8-6-3-4-7-9-6/h3-5H,1-2H2,(H2,7,8,9)	InChI=1S/C6H9N3/c1-2-5(1)8-6-3-4-7-9-6/h3-5H,1-2H2,(H2,7,8,9)
