23
gdb 86940	3.15512	0.8661	0.77151	2.8924	86.86	-0.2453	-0.0177	0.2276	1569.9777	0.204045	-388.298482	-388.288339	-388.287395	-388.334263	37.295	
C	-0.0942122427	 1.5995726688	-0.0925684136	-0.415262
C	 0.0642997801	 0.0902306337	 0.0161976173	 0.049404
C	 1.0817184843	-0.6358443384	-0.9043095098	-0.248866
C	 1.3855694379	-1.6081291142	 0.2668593564	 0.02457
C	 2.8155205352	-2.1195748816	 0.4647311368	-0.306394
C	 3.1978489615	-3.0972839954	-0.6225943352	 0.165077
O	 4.1156425147	-2.9591477579	-1.389678727	-0.241526
C	 0.7766799373	-0.5565935285	 1.255393239	-0.031643
C	 1.7873388471	 0.3349711134	 1.9732017209	-0.39604
H	 0.864389997	 2.1190256675	 0.0041394896	 0.114866
H	-0.5179687805	 1.8722734553	-1.0655534832	 0.115592
H	-0.7659060461	 1.9903448269	 0.6801722457	 0.113337
H	-0.9185270923	-0.381164618	-0.0993236365	 0.071288
H	 0.7146772918	-1.0606676517	-1.8422000354	 0.098095
H	 1.9445846642	-0.0002578127	-1.1318710654	 0.103804
H	 0.7078244995	-2.4686017886	 0.2094484493	 0.074035
H	 3.5453138388	-1.3058234063	 0.4714103962	 0.117484
H	 2.8804763079	-2.6518695268	 1.4255884402	 0.11369
H	 2.5346972373	-3.993787318	-0.6819461107	 0.067151
H	 0.0947846475	-0.9826578132	 1.9987852712	 0.062875
H	 2.5067657058	 0.7926999132	 1.2864851459	 0.118332
H	 1.2790042436	 1.1465004839	 2.503975349	 0.116269
H	 2.35701631	-0.2355550514	 2.7143964492	 0.11386
45.1633	73.7685	101.1427	156.1063	216.4468	250.3848	277.2939	282.0542	334.6446	371.3792	431.5836	496.6644	536.9984	636.3224	745.9196	787.0809	834.9668	883.2106	898.1331	929.9625	972.0163	1007.0715	1020.6119	1030.0484	1047.3139	1098.3855	1142.9548	1158.2142	1172.412	1182.0634	1219.0503	1254.7704	1258.7847	1275.2828	1290.8672	1308.5958	1365.3782	1371.6449	1395.2408	1413.3034	1415.546	1429.8499	1463.4208	1491.8206	1493.6965	1495.5442	1506.069	1507.9233	1833.6108	2842.9368	3006.1624	3023.8415	3027.1027	3030.0563	3032.8085	3047.5285	3047.8263	3089.4198	3096.5234	3098.4401	3099.5116	3103.8129	3108.5771
CC1CC(CC=O)C1C	C[C@H]1C[C@@H](CC=O)[C@H]1C	
InChI=1S/C8H14O/c1-6-5-8(3-4-9)7(6)2/h4,6-8H,3,5H2,1-2H3	InChI=1S/C8H14O/c1-6-5-8(3-4-9)7(6)2/h4,6-8H,3,5H2,1-2H3/t6-,7-,8+/m0/s1
