18
gdb 14159	3.35631	2.29951	1.84484	1.8022	71.	-0.232	-0.0004	0.2316	800.7802	0.153406	-347.757901	-347.750744	-347.7498	-347.788536	29.1	
C	-0.0795490869	 1.4980269785	 0.0073609738	-0.448007
C	-0.0587267935	-0.0315456989	-0.0063244894	 0.338775
C	-1.4391180127	-0.571630919	-0.3615716059	-0.469118
C	 1.2450995436	-0.625956486	-0.685192129	-0.019932
O	 1.9835582061	-0.2042102039	 0.506748532	-0.286266
C	 0.7706335856	-0.6491711754	 1.1957681984	-0.019918
C	 0.7793072688	-2.1499948033	 0.8676484027	-0.08373
C	 1.1059255709	-2.1340294993	-0.4270929288	-0.083674
H	 0.8993539631	 1.9066426132	 0.2582341489	 0.137295
H	-0.3818608783	 1.8856985025	-0.9723883541	 0.110363
H	-0.8109625443	 1.8644561411	 0.7369930054	 0.110388
H	-1.7490710124	-0.2008993076	-1.3454019545	 0.11462
H	-1.4742289412	-1.6613659654	-0.3811963605	 0.118381
H	-2.1821975559	-0.2175021543	 0.3621814044	 0.114586
H	 1.6538159039	-0.2603096916	-1.6274983352	 0.073896
H	 0.681451502	-0.3078520455	 2.2273825055	 0.073898
H	 0.5528362026	-2.9696423558	 1.5332441972	 0.109219
H	 1.2270316888	-2.9366782793	-1.1392851609	 0.109223
186.9317	212.8366	237.1439	296.6559	353.4351	383.0785	512.0977	549.3775	603.9142	630.0975	730.8015	746.4484	818.5698	854.6472	875.2522	908.4784	909.2467	939.9215	946.3574	960.8727	1001.2272	1016.7961	1136.12	1141.773	1167.0878	1187.2213	1230.6541	1250.8249	1281.689	1301.0506	1304.5531	1397.3934	1414.3304	1481.6421	1492.1172	1500.2801	1516.4101	1611.9143	3027.5434	3034.1911	3081.0731	3087.4127	3119.7486	3123.6061	3138.1611	3146.5995	3231.257	3258.481
CC1(C)C2OC1C=C2	CC1(C)[C@H]2O[C@@H]1C=C2	
InChI=1S/C7H10O/c1-7(2)5-3-4-6(7)8-5/h3-6H,1-2H3	InChI=1S/C7H10O/c1-7(2)5-3-4-6(7)8-5/h3-6H,1-2H3/t5-,6+
