19
gdb 46880	2.90227	1.44647	1.08973	3.9587	83.74	-0.2346	-0.0471	0.1875	1127.2919	0.16188	-385.910334	-385.902703	-385.901759	-385.942678	30.27	
O	-0.1433304481	 1.4804221137	-1.8413345185	-0.329343
C	-0.0206442618	 1.6213458977	-0.63676423	 0.358416
C	-1.253708711	 1.5644901362	 0.2562013362	-0.320743
C	-1.4080093714	 2.6862076882	 1.293120618	-0.237397
C	-0.4936749258	 2.6472867663	 2.501707449	-0.018723
C	 0.0819877351	 1.3864060143	 3.0710594697	-0.294231
C	 1.0023846104	 2.4146637852	 2.4088444864	-0.058605
C	 1.7396517291	 2.1238821248	 1.1661902249	-0.041615
C	 1.334514697	 1.7999733073	-0.0740664884	-0.166861
H	-2.1099759947	 1.571735687	-0.4227013835	 0.123177
H	-1.2637568332	 0.5885159828	 0.7578771056	 0.119422
H	-1.2972846741	 3.6580246404	 0.7952666807	 0.113423
H	-2.4414658373	 2.6527896813	 1.6593391703	 0.112054
H	-0.7588925489	 3.3984138285	 3.2418975687	 0.093453
H	 0.1474671215	 1.2773056957	 4.1478724227	 0.119466
H	-0.0618537613	 0.4542538594	 2.5377604105	 0.125909
H	 1.5971186872	 2.9869701494	 3.1142053889	 0.093942
H	 2.8187274461	 2.2083492343	 1.2911856551	 0.105081
H	 2.0978933311	 1.6577753176	-0.8343619763	 0.103175
55.8673	197.2217	229.5383	290.8239	350.636	388.6303	441.3192	493.2214	563.903	659.5833	677.6185	740.3724	778.0354	806.163	829.321	871.1954	905.9838	941.7157	963.5323	1018.5032	1035.6647	1057.5629	1062.2129	1106.001	1136.9417	1155.4223	1186.167	1212.9864	1255.605	1271.1895	1303.312	1361.9861	1383.8932	1400.6373	1422.9653	1438.9381	1470.2334	1488.347	1499.8082	1685.8843	1746.7086	3022.4522	3035.1543	3057.4111	3102.9023	3124.873	3131.7426	3142.2211	3152.3565	3171.5109	3230.772
O=C1CCC2CC2C=C1	O=C1CC[C@H]2C[C@H]2C=C1	
InChI=1S/C8H10O/c9-8-3-1-6-5-7(6)2-4-8/h1,3,6-7H,2,4-5H2	InChI=1S/C8H10O/c9-8-3-1-6-5-7(6)2-4-8/h1,3,6-7H,2,4-5H2/t6-,7+/m1/s1
