17
gdb 7763	3.16069	1.96332	1.46964	5.275	71.87	-0.2133	-0.0248	0.1884	889.8062	0.144012	-363.906211	-363.898821	-363.897876	-363.937638	28.522	
C	-0.1750355462	 1.5399781662	-0.0002970163	-0.386234
C	 0.0140655105	 0.0148183368	 0.0038231027	-0.001349
C	 0.7965989044	-0.4869066454	-1.2189664139	-0.311975
C	 2.301991612	-0.1832292604	-1.1594022528	 0.364683
O	 2.9454904268	 0.0013407956	-2.1781830594	-0.360011
C	 2.870881283	-0.2247215779	 0.1775257584	-0.221669
C	 2.0709713155	-0.3717691696	 1.2644637168	 0.022905
N	 0.7105590957	-0.4363014338	 1.2152768672	-0.279127
H	 0.7892021175	 2.0564459563	 0.0019535961	 0.141291
H	-0.727760366	 1.8519882038	-0.8918567938	 0.125937
H	-0.7417120341	 1.8650956144	 0.8785250814	 0.108015
H	-0.9740661897	-0.4588603174	 0.0063138058	 0.090316
H	 0.7004305252	-1.5787781604	-1.2854557919	 0.124526
H	 0.3874658519	-0.0665381135	-2.1402511737	 0.121157
H	 3.9463061648	-0.1774083083	 0.2880784089	 0.09565
H	 2.493577283	-0.4642808254	 2.2614436444	 0.119307
H	 0.2207222055	-0.303958601	 2.0859410102	 0.246578
111.9193	144.8587	243.6579	318.2163	349.2099	436.3481	464.2031	471.2701	539.4143	563.9404	632.5248	754.0952	796.5565	829.2424	876.3667	953.7324	956.722	980.803	1045.152	1070.395	1092.934	1146.4526	1212.7703	1244.1804	1250.2518	1306.1451	1367.1414	1372.106	1406.8203	1426.5405	1455.9096	1490.5383	1496.9595	1529.0096	1660.2167	1760.808	3025.91	3036.0556	3041.9109	3104.7135	3113.0202	3120.2093	3168.0885	3220.3293	3626.2429
CC1CC(=O)C=CN1	C[C@H]1CC(=O)C=CN1	
InChI=1S/C6H9NO/c1-5-4-6(8)2-3-7-5/h2-3,5,7H,4H2,1H3	InChI=1S/C6H9NO/c1-5-4-6(8)2-3-7-5/h2-3,5,7H,4H2,1H3/t5-/m0/s1
