18
gdb 71263	2.53261	2.03666	1.44872	3.6434	74.56	-0.2296	0.0298	0.2594	940.6034	0.149294	-401.963003	-401.955613	-401.954669	-401.994362	29.951	
C	-0.0276249549	 1.5422166741	-0.0118174058	-0.493143
C	-0.0784908846	 0.0351378694	 0.0498781585	 0.175019
C	 0.3046388681	-0.7946488056	-1.2435993951	-0.267026
C	-0.862685096	-1.7336946229	-0.9564372037	-0.092645
C	-0.9155012721	-2.071426829	 0.5353864312	-0.000178
N	 0.2372345227	-1.8518696929	 1.3658596561	-0.327609
C	 0.7748496247	-0.5993710228	 1.1603219227	 0.3922
O	 1.7736349259	-0.1458989436	 1.6736756919	-0.389796
C	-1.424612868	-0.750169303	 0.0678434193	-0.130803
H	 1.0134210399	 1.8782568047	-0.0211244109	 0.142016
H	-0.5307182255	 1.9231180104	-0.9059922779	 0.110027
H	-0.5084398552	 1.9873586012	 0.8657595369	 0.123909
H	 0.1104797266	-0.1900642193	-2.1329134931	 0.111746
H	 1.3164699879	-1.2102421613	-1.3027397631	 0.106265
H	-1.3936344809	-2.3383952899	-1.6826498454	 0.088685
H	-1.607160346	-2.8396363775	 0.8574706602	 0.107239
H	 0.7968867322	-2.5916957899	 1.7588664388	 0.250933
H	-2.4203406648	-0.3550233722	 0.2236436695	 0.093159
148.1538	187.6935	242.1857	297.6792	327.6452	429.1625	448.0521	515.6419	591.9245	654.833	716.3633	743.9684	760.6024	793.639	825.8224	871.184	885.8616	958.359	970.7174	1004.1609	1010.9057	1036.9895	1055.3316	1109.246	1132.9378	1155.6125	1177.969	1202.0906	1238.0746	1252.4636	1311.5777	1357.3825	1377.0248	1412.6161	1422.6289	1485.2644	1490.3989	1496.887	1825.6139	3035.2239	3042.1432	3100.287	3105.3835	3115.9267	3175.2169	3189.616	3201.3603	3642.5456
CC12CC3C(NC1=O)C23	C[C@@]12C[C@H]3[C@@H](NC1=O)[C@@H]23	
InChI=1S/C7H9NO/c1-7-2-3-4(7)5(3)8-6(7)9/h3-5H,2H2,1H3,(H,8,9)	InChI=1S/C7H9NO/c1-7-2-3-4(7)5(3)8-6(7)9/h3-5H,2H2,1H3,(H,8,9)/t3-,4+,5-,7+/m1/s1
