21
gdb 78116	2.67638	1.29131	1.06803	2.3682	79.3	-0.2394	0.0741	0.3135	1228.2807	0.17957	-424.198283	-424.1885	-424.187556	-424.231873	37.973	
C	-0.0601686833	 1.4482748375	 0.0367391431	-0.42727
C	 0.0780532913	-0.0596864873	 0.0002363066	-0.084585
C	 0.7390858328	-0.6584462995	-1.22768272	-0.145395
C	 1.4624179032	-0.6412547622	 0.1097632831	 0.393881
O	 2.5718027869	 0.1144820703	 0.4504854504	-0.462737
C	 1.4041092854	-2.1718250334	 0.1985724797	-0.368849
C	 0.6898613366	-2.19010412	-1.2078496395	 0.40919
C	-0.6632674808	-2.8830145871	-1.3129419021	-0.449412
O	 1.5622216427	-2.6422010999	-2.2345052329	-0.476228
H	 0.8108857231	 1.9342981386	-0.4104579311	 0.133272
H	-0.951950024	 1.7747297385	-0.5082735098	 0.118434
H	-0.1511855591	 1.8123042279	 1.0666806488	 0.108859
H	-0.7503868852	-0.5957484849	 0.4640323841	 0.069107
H	 0.9149192321	-0.0742437407	-2.1231834559	 0.093176
H	 2.4973521289	 0.3621666956	 1.3791049038	 0.28372
H	 2.3941059904	-2.6245371933	 0.1152254876	 0.108381
H	 0.8656952769	-2.5971374249	 1.0536202604	 0.079323
H	-1.3727922739	-2.5145403087	-0.5668815063	 0.116913
H	-1.0903338204	-2.7254776755	-2.3080043185	 0.124609
H	-0.5549252951	-3.9636938472	-1.1553637147	 0.103804
H	 1.6370216214	-3.5998272239	-2.1557590567	 0.271808
131.9937	171.129	182.4335	214.1644	241.4827	254.2634	279.2865	296.0501	347.8224	384.3564	391.5736	433.6707	495.9539	515.9672	617.8826	696.411	776.8071	839.4804	870.2257	933.4438	951.0196	970.1687	985.9026	1005.5712	1042.2099	1080.5066	1108.3209	1118.0933	1143.4616	1164.2326	1198.7139	1224.617	1245.629	1256.1317	1298.3678	1362.6687	1387.6351	1408.1774	1417.6311	1437.2555	1474.5269	1490.1068	1493.7381	1494.8503	1507.3561	3024.0029	3030.6413	3032.2694	3086.8902	3089.0503	3092.1345	3116.2066	3118.888	3121.2157	3187.8952	3785.7445	3796.0409
CC1C2C1(O)CC2(C)O	C[C@H]1[C@H]2[C@]1(O)C[C@]2(C)O	
InChI=1S/C7H12O2/c1-4-5-6(2,8)3-7(4,5)9/h4-5,8-9H,3H2,1-2H3	InChI=1S/C7H12O2/c1-4-5-6(2,8)3-7(4,5)9/h4-5,8-9H,3H2,1-2H3/t4-,5+,6-,7-/m0/s1
