22
gdb 18638	2.57887	2.04136	1.62742	0.1498	80.92	-0.2559	0.0784	0.3342	953.4327	0.202054	-313.077873	-313.069676	-313.068732	-313.10996	32.088	
C	-0.1576932748	 1.6944164198	-0.1914930271	-0.421789
C	 0.0884841912	 0.2028879988	-0.0757436183	 0.005665
C	 1.3881620364	-0.5105248041	-0.3755043354	-0.064653
C	 2.7051131563	 0.2594399039	-0.3303188347	-0.220445
C	 2.768387744	 0.9332240018	 1.0634717416	-0.236554
C	 1.7923638561	 0.1459153704	 1.9771242433	 0.044989
C	 1.1561427893	 0.990862737	 3.0855761595	-0.400798
C	 0.8137682158	-0.5429979268	 1.0280567649	-0.065762
H	 0.7071708682	 2.3036715323	 0.072887071	 0.1201
H	-0.431655239	 1.9511188888	-1.2215012941	 0.112701
H	-0.9883723584	 2.0039847108	 0.4529215698	 0.115849
H	-0.7731450571	-0.3627409773	-0.4276917273	 0.079224
H	 1.3471514653	-1.3823577804	-1.0208524259	 0.072939
H	 3.5288373517	-0.4542606513	-0.4457665514	 0.097552
H	 2.8081919408	 0.9874693469	-1.1432830847	 0.094155
H	 3.784465784	 0.93479506	 1.4697975528	 0.092923
H	 2.4665564439	 1.9830347457	 1.0057251268	 0.101413
H	 2.3605780262	-0.6615930982	 2.4602560086	 0.068968
H	 0.5672099858	 1.81437456	 2.6692238586	 0.115925
H	 0.4893337646	 0.3879142953	 3.7112443018	 0.108709
H	 1.9216571064	 1.4238050132	 3.7391980183	 0.107652
H	 0.3265542433	-1.4368892366	 1.4067614419	 0.071236
122.028	155.953	175.0064	223.3971	249.8878	291.597	363.5594	454.5128	527.1015	619.5871	677.022	729.868	754.7218	821.7534	837.8111	905.767	941.3661	952.0165	956.2409	989.9255	1035.9138	1054.5974	1070.2616	1090.7191	1104.1343	1141.5828	1144.2758	1163.6237	1212.9893	1232.5083	1250.2646	1303.423	1325.068	1337.2977	1346.1665	1367.4602	1383.4137	1409.4761	1418.4076	1446.7948	1486.1324	1493.5986	1498.554	1503.0085	1504.0623	1515.4051	2995.9339	3027.7876	3030.0768	3031.3617	3052.6841	3060.2416	3079.9585	3088.3969	3092.0178	3102.2289	3106.0193	3139.9184	3141.573	3155.0674
CC1C2CCC(C)C12	C[C@H]1[C@H]2CC[C@@H](C)[C@@H]12	
InChI=1S/C8H14/c1-5-3-4-7-6(2)8(5)7/h5-8H,3-4H2,1-2H3	InChI=1S/C8H14/c1-5-3-4-7-6(2)8(5)7/h5-8H,3-4H2,1-2H3/t5-,6+,7-,8+/m1/s1
