21
gdb 117087	2.9988	0.90453	0.82659	3.3532	76.55	-0.2414	-0.0109	0.2304	1522.9609	0.177052	-461.367379	-461.356036	-461.355092	-461.404642	39.951	
C	-0.2160153426	 1.3810011825	-0.0954680788	-0.222968
O	 0.0655008532	 0.0098151814	 0.0551915931	-0.217799
C	 0.486267553	-0.5856303122	-1.1350966549	-0.157715
C	 0.7714214988	-2.0610877933	-0.8999041535	 0.341661
O	 0.6377291211	-2.5903426541	 0.1752026649	-0.308437
C	 1.2508361052	-2.8818584054	-2.1154130328	 0.244367
C	 2.6436567536	-3.4469332074	-1.8003806274	-0.409525
C	 0.2359463233	-4.0052110082	-2.3732716885	-0.409539
O	 1.3076566188	-1.9861928649	-3.2269100728	-0.466498
H	 0.6698306273	 1.948472027	-0.4228463463	 0.103565
H	-1.0225788609	 1.5567902417	-0.825177006	 0.103569
H	-0.5344875865	 1.7546618121	 0.8804276576	 0.131166
H	-0.2665791747	-0.5008516974	-1.9379407523	 0.118543
H	 1.3985476007	-0.1158129895	-1.5419461988	 0.11853
H	 2.6143051951	-4.0348478465	-0.8803385565	 0.145475
H	 2.9839443885	-4.0920739786	-2.618481073	 0.104313
H	 3.3673077504	-2.6360424796	-1.6773621535	 0.124814
H	-0.7351296584	-3.5872922468	-2.653810959	 0.124811
H	 0.5835010315	-4.6489128503	-3.1894477796	 0.104302
H	 0.1104616034	-4.6151287306	-1.4759255791	 0.145486
H	 1.6057563793	-2.4844206899	-3.994405873	 0.28188
22.7737	86.402	103.8401	143.9192	216.4712	229.3149	235.4773	251.1911	257.885	283.6136	293.2853	357.97	381.4553	426.5866	498.237	583.6192	589.3946	795.4683	858.4716	925.2033	968.2825	974.8423	1004.0852	1032.8052	1089.8606	1142.5561	1173.2434	1179.4969	1190.0329	1222.3627	1240.8562	1249.8744	1367.6014	1386.4664	1402.2309	1411.273	1458.3216	1477.9804	1482.1252	1485.6103	1487.6333	1495.9198	1510.3626	1513.0828	1823.8029	2958.2075	2971.2079	2979.1893	3011.7789	3030.7286	3035.4561	3102.7025	3106.2654	3117.3835	3134.1504	3138.4668	3819.9455
COCC(=O)C(C)(C)O	COCC(=O)C(C)(C)O	
InChI=1S/C6H12O3/c1-6(2,8)5(7)4-9-3/h8H,4H2,1-3H3	InChI=1S/C6H12O3/c1-6(2,8)5(7)4-9-3/h8H,4H2,1-3H3
