17
gdb 97619	2.66794	0.7339	0.5961	4.3395	81.41	-0.2498	-0.0631	0.1867	1834.4455	0.131368	-421.814224	-421.803578	-421.802634	-421.853837	34.765	
C	 0.0462716558	 1.5457179308	 0.108626522	-0.366862
C	-0.0095939587	 0.0144390556	-0.0443691878	-0.316618
C	-1.3710135582	-0.5103250025	-0.0503400672	 0.08652
C	-2.5074727076	-0.9112954552	-0.0747003157	 0.023922
C	-3.865425772	-1.4317882039	-0.0465679883	-0.312066
C	-3.8409057396	-2.9741626049	 0.0426106845	 0.163907
O	-4.5696413619	-3.6824042847	-0.5918364068	-0.224579
C	-4.6196923539	-0.8834105444	 1.1851412904	 0.163043
O	-5.7546983175	-0.5018389951	 1.146982661	-0.22435
H	 1.0849413	 1.8881465405	 0.1061751665	 0.120889
H	-0.4816151244	 2.0376635631	-0.7124314496	 0.133879
H	-0.4188357648	 1.8604901896	 1.0465285375	 0.13082
H	 0.4936837152	-0.2827660784	-0.9730518718	 0.138201
H	 0.5547750935	-0.4588398292	 0.769014959	 0.135158
H	-4.4513444151	-1.1670739793	-0.9309200097	 0.145419
H	-3.0827095315	-3.374045815	 0.7481043447	 0.1017
H	-4.0149290993	-0.8700904569	 2.1161564611	 0.101016
8.3091	42.019	49.1699	101.119	109.7226	176.0492	215.4095	274.6983	325.2774	379.1149	447.6212	475.9198	519.7464	543.6365	777.9456	784.7209	850.7604	960.2151	1004.1339	1042.1266	1075.0795	1084.3603	1104.0575	1165.9447	1207.588	1284.4786	1285.4946	1349.3644	1397.6467	1409.9542	1419.4112	1472.7852	1494.9677	1505.0629	1818.3629	1854.5732	2358.905	2907.1394	2918.3111	3024.9387	3047.7573	3053.5031	3086.4797	3122.586	3127.3328
CCC#CC(C=O)C=O	CCC#CC(C=O)C=O	
InChI=1S/C7H8O2/c1-2-3-4-7(5-8)6-9/h5-7H,2H2,1H3	InChI=1S/C7H8O2/c1-2-3-4-7(5-8)6-9/h5-7H,2H2,1H3
