18
gdb 105298	2.68908	1.17061	0.94582	1.0264	74.89	-0.2591	-0.0463	0.2128	1260.2741	0.144827	-439.091386	-439.081837	-439.080893	-439.126101	33.743	
C	-0.4800109809	 1.4382378994	-0.2783949159	-0.397778
C	-0.0204628707	-0.024748143	-0.2207625453	-0.264976
C	 0.865695209	-0.449437656	-1.3768361398	 0.182209
C	 0.8408864441	-1.896650972	-1.84673889	-0.279277
N	 0.3068998562	-0.8547301171	-2.6713749389	-0.097355
C	-1.0234971143	-0.7754836157	-3.0634329333	 0.139078
O	-1.7077671136	-1.7264121387	-3.3456521401	-0.278454
C	 2.2005381095	 0.2261790938	-1.5117280146	 0.137822
O	 2.6939562842	 0.9246604211	-0.6643896606	-0.252687
H	 0.3759428344	 2.1163901237	-0.2748152291	 0.149213
H	-1.0763851031	 1.6406790652	-1.1738992145	 0.117324
H	-1.1008676577	 1.6722658245	 0.5909744082	 0.124514
H	 0.5496455088	-0.1869433019	 0.7004681252	 0.129648
H	-0.8881232219	-0.6929040849	-0.1815855271	 0.113839
H	 1.7531485728	-2.3713344787	-2.1990619687	 0.136165
H	 0.1345576166	-2.5550448419	-1.3473110658	 0.149945
H	-1.3614948688	 0.2715365178	-3.1638782158	 0.098628
H	 2.7127519453	 0.0063207445	-2.474432854	 0.092141
79.5095	99.8185	109.2176	189.9972	202.3134	215.6033	261.0751	290.2605	359.3163	372.7073	481.495	503.3465	658.1952	741.9854	801.5406	842.0852	910.7405	952.8722	1000.4141	1032.969	1039.3038	1053.7779	1105.8709	1129.2441	1133.2128	1177.3989	1288.5943	1319.6083	1363.0648	1385.4075	1410.0144	1417.0065	1434.1622	1468.0446	1498.7148	1507.7745	1510.7574	1800.7851	1826.7656	2897.159	2976.2895	3040.9659	3045.886	3081.6093	3108.2334	3111.4801	3136.5411	3198.7546
CCC1(CN1C=O)C=O	CC[C@]1(CN1C=O)C=O	
InChI=1S/C6H9NO2/c1-2-6(4-8)3-7(6)5-9/h4-5H,2-3H2,1H3	InChI=1S/C6H9NO2/c1-2-6(4-8)3-7(6)5-9/h4-5H,2-3H2,1H3/t6-,7?/m0/s1
