17
gdb 42345	3.64822	1.0609	0.92633	3.0507	69.06	-0.2418	-0.0388	0.203	1271.9237	0.134567	-458.922373	-458.913747	-458.912803	-458.957641	29.971	
O	 1.1097621373	 0.5866441761	-0.9133656111	-0.309833
C	 0.4354057039	 1.5113401524	-0.5255947158	 0.332332
C	 0.8448875312	 2.3768910156	 0.6393160252	-0.023344
C	 1.5308630786	 1.7362301644	 1.7822922255	-0.159934
O	 2.2543427343	 2.5016660233	 0.8387806782	-0.210735
C	-0.8881555008	 1.8673380253	-1.1898126277	 0.036458
C	-1.8250985552	 0.6939382641	-1.5357469984	-0.283538
C	-2.7824974989	 1.3525808291	-0.5207127013	-0.062797
O	-1.8426178764	 2.4249758786	-0.2584726531	-0.290707
H	 0.2629166189	 3.2778683248	 0.8124208538	 0.122655
H	 1.4191308398	 2.1753669621	 2.7725031841	 0.124016
H	 1.7059709191	 0.6629529005	 1.7398223869	 0.134376
H	-0.6768995522	 2.5609835197	-2.0176519036	 0.111022
H	-2.178695605	 0.6697560633	-2.5661764313	 0.121096
H	-1.4289343463	-0.2847598122	-1.2649119912	 0.133747
H	-3.7213437929	 1.7371433938	-0.9336271255	 0.112584
H	-2.9988074356	 0.774537009	 0.3848875553	 0.112604
33.236	52.9241	86.543	159.0485	233.1935	277.9858	310.828	436.2738	530.4649	749.9713	765.1021	802.5545	829.0965	871.77	895.3382	946.5916	950.9439	1004.6255	1030.8745	1048.6226	1086.5387	1099.3196	1129.9331	1163.0401	1164.713	1171.3839	1208.9154	1252.2947	1259.1063	1275.6769	1343.702	1355.1458	1414.7498	1496.1396	1507.2324	1530.0698	1810.218	2993.3905	3030.2925	3074.1673	3088.1822	3097.4413	3153.8664	3159.4028	3187.2547
O=C(C1CO1)C1CCO1	O=C([C@H]1CO1)[C@H]1CCO1	
InChI=1S/C6H8O3/c7-6(5-3-9-5)4-1-2-8-4/h4-5H,1-3H2	InChI=1S/C6H8O3/c7-6(5-3-9-5)4-1-2-8-4/h4-5H,1-3H2/t4-,5-/m1/s1
