20
gdb 109509	1.86164	1.39763	1.01645	3.1956	80.53	-0.2609	0.0314	0.2923	1281.936	0.168663	-403.160958	-403.150794	-403.14985	-403.195909	37.279	
C	-0.0457075277	 1.4970053568	-0.2994052387	-0.377381
C	 0.0076210585	 0.0575641242	 0.2260786124	-0.218924
C	-1.3423991662	-0.6252156647	 0.1634146391	-0.038565
C	-1.8460391482	-1.3105494355	-1.1208694605	-0.278712
C	-0.992897966	-1.4196833858	-2.2649864922	 0.295241
N	-0.2909600956	-1.5185236991	-3.1813033175	-0.35758
C	-1.543013789	-2.1020707449	 0.1689896606	 0.3689
C	-0.4022099695	-3.0904217924	 0.2154122963	-0.463439
O	-2.6749045514	-2.4917314602	 0.89251191	-0.45617
H	 0.9335491815	 1.9777084061	-0.2205001111	 0.118244
H	-0.3467092402	 1.518831653	-1.3512895386	 0.134887
H	-0.7623376793	 2.0996722393	 0.2690388512	 0.115672
H	 0.747287215	-0.5095589168	-0.3476459356	 0.118927
H	 0.35182571	 0.053921833	 1.2678671423	 0.107107
H	-2.1394947787	-0.0917004362	 0.675148227	 0.11105
H	-2.8992051473	-1.1872095682	-1.3473658889	 0.132124
H	 0.4464365886	-2.7737688078	-0.3928507757	 0.14883
H	-0.0673739833	-3.2256406608	 1.2482635754	 0.134257
H	-0.7304620941	-4.0642730703	-0.1672702631	 0.119945
H	-2.9518414972	-3.3588064697	 0.5737293776	 0.285588
65.0921	126.5168	132.6385	166.9555	196.9478	221.6398	257.2447	306.5434	340.1245	378.5608	403.8347	428.4049	504.9018	559.3671	619.6227	705.9543	778.7903	818.723	855.8896	930.697	954.9451	1002.7068	1030.8194	1050.0749	1088.8303	1116.0548	1125.4863	1153.1833	1226.9971	1268.0247	1301.4728	1319.5876	1338.1663	1388.3042	1412.6733	1423.5534	1454.1045	1484.0294	1489.2345	1498.7407	1504.5096	1511.5061	2338.6631	3031.3347	3034.9248	3036.6399	3077.085	3098.4054	3107.2012	3114.9511	3142.1156	3147.5618	3176.9924	3787.3546
CCC1C(C#N)C1(C)O	CC[C@H]1[C@@H](C#N)[C@]1(C)O	
InChI=1S/C7H11NO/c1-3-5-6(4-8)7(5,2)9/h5-6,9H,3H2,1-2H3	InChI=1S/C7H11NO/c1-3-5-6(4-8)7(5,2)9/h5-6,9H,3H2,1-2H3/t5-,6+,7+/m0/s1
