16
gdb 20738	3.32584	1.75881	1.16714	1.8482	66.78	-0.2258	0.0348	0.2606	991.057	0.131289	-379.941396	-379.933202	-379.932258	-379.974793	29.013	
C	-0.0288855104	 1.477855158	-0.0490370442	-0.499132
C	-0.0094910893	-0.0157685892	 0.0320938293	 0.264636
N	-0.0288650768	-0.7579055194	-1.0741824084	-0.288292
N	-0.0025129648	-2.0297794389	-0.6304490523	-0.195276
C	 0.0332465587	-2.1216553009	 0.7210921447	-0.103714
C	 0.0297699123	-0.8287082555	 1.1959396142	 0.158714
C	 0.0620910686	-0.3953193857	 2.6256610538	-0.204363
O	 0.0683643133	-1.55345654	 3.4474580673	-0.419324
H	 0.8635610347	 1.9191815138	 0.4105758757	 0.123685
H	-0.0668268119	 1.7922209413	-1.0940375437	 0.141042
H	-0.8987994222	 1.8990719689	 0.4688990077	 0.123696
H	-0.0128443943	-2.7795022366	-1.2997298578	 0.270383
H	 0.0567170055	-3.0651601479	 1.2401676883	 0.145086
H	 0.9546581607	 0.2264903328	 2.8129104384	 0.096729
H	-0.8111797202	 0.242332864	 2.8473439654	 0.096537
H	 0.104214936	-1.2684431447	 4.3646919515	 0.289594
33.5332	131.3978	167.6572	221.197	250.6813	294.8797	300.6437	481.3505	493.7763	630.244	656.0263	700.23	759.0533	802.2599	952.2117	1006.4268	1043.1418	1067.2992	1070.3019	1076.4713	1154.9203	1213.146	1236.3962	1245.7974	1320.9139	1399.6477	1413.3115	1454.9985	1478.5934	1484.6129	1492.4136	1515.0441	1525.347	1621.1839	2945.0951	2956.8768	3025.6957	3072.2472	3131.2686	3281.4781	3683.0475	3838.3666
CC1=NNC=C1CO	Cc1n[nH]cc1CO	
InChI=1S/C5H8N2O/c1-4-5(3-8)2-6-7-4/h2,8H,3H2,1H3,(H,6,7)	InChI=1S/C5H8N2O/c1-4-5(3-8)2-6-7-4/h2,8H,3H2,1H3,(H,6,7)
