21
gdb 89803	2.90705	1.4728	1.18139	1.3525	82.93	-0.2268	0.0855	0.3123	1135.9064	0.182942	-387.076483	-387.068332	-387.067387	-387.108772	33.005	
C	 0.0988915253	 1.5455427155	-0.1013713447	-0.40181
C	 0.0743383307	 0.0324700885	 0.0413620639	 0.114581
O	 0.742321154	-0.542500693	-1.091812948	-0.30906
C	 1.1940934287	-1.8285600071	-0.7277644826	 0.468078
C	 0.550041093	-3.0316192474	-1.3672418221	-0.33963
C	 1.9496377829	-2.5850994285	-1.7680153599	-0.337865
C	 1.5158582206	-1.7793157253	 0.7384196199	-0.125055
C	 2.3029076904	-0.5733275062	 1.1909197536	-0.306055
C	 0.7958383547	-0.5544128846	 1.2491806787	-0.054098
H	 1.1257739556	 1.9211280646	-0.0857915314	 0.122091
H	-0.3658291933	 1.8470219876	-1.0444369235	 0.123815
H	-0.4552301255	 2.0122359677	 0.7190548221	 0.112757
H	-0.9725506917	-0.3152573481	 0.0641757518	 0.067089
H	 0.4415777792	-3.9422222842	-0.7865422672	 0.107108
H	-0.2498787159	-2.8408977967	-2.0739120143	 0.118084
H	 2.0619281174	-2.1108501286	-2.7365817887	 0.122244
H	 2.7967954011	-3.1853057658	-1.4541291559	 0.113375
H	 1.5583064813	-2.7050246462	 1.2994350366	 0.087416
H	 2.8322842631	-0.6509161216	 2.1339559228	 0.107938
H	 2.8043082204	 0.0218612107	 0.4348165654	 0.123477
H	 0.292077988	-0.5426186214	 2.2085983636	 0.085519
109.0548	176.2105	220.4384	225.3771	272.4624	341.542	393.6844	450.6526	535.9098	566.9088	656.803	753.9313	768.1202	787.0827	832.2251	868.9459	883.4213	903.5687	952.4294	964.2832	976.8655	998.6845	1014.0934	1048.1543	1060.4895	1072.668	1079.2797	1092.2794	1101.4902	1128.1151	1160.7819	1187.9019	1196.5426	1263.8091	1280.2693	1338.6427	1367.4897	1379.99	1408.0647	1419.9956	1450.6112	1476.1072	1485.465	1496.532	1504.659	2953.3594	3042.5198	3114.4467	3121.5484	3126.6388	3132.1357	3134.4424	3176.9042	3186.223	3213.4148	3220.5307	3228.1655
CC1OC2(CC2)C2CC12	C[C@H]1OC2(CC2)[C@H]2C[C@@H]12	
InChI=1S/C8H12O/c1-5-6-4-7(6)8(9-5)2-3-8/h5-7H,2-4H2,1H3	InChI=1S/C8H12O/c1-5-6-4-7(6)8(9-5)2-3-8/h5-7H,2-4H2,1H3/t5-,6+,7+/m1/s1
