20
gdb 92767	4.24649	0.99333	0.91362	1.164	81.33	-0.2311	0.0289	0.26	1365.7073	0.171859	-403.167033	-403.158309	-403.157365	-403.201679	32.226	
C	-0.3224926648	 1.4943475094	-0.0171363514	-0.395825
C	 0.0701487263	 0.0268008819	 0.0448183812	 0.100577
C	 0.9327300317	-0.4717434936	-1.1496354223	-0.195965
N	 2.2255569817	-0.8376869207	-0.5635783653	-0.337834
C	 2.1199737888	-0.6545922534	 0.6915384148	 0.426664
O	 0.9392184698	-0.1920389781	 1.1885123416	-0.270629
C	 3.1601915023	-0.8974287356	 1.7066305851	-0.109581
C	 4.1101992559	-2.0652214694	 1.5111449612	-0.252896
C	 4.6130031333	-0.6684942486	 1.3330366171	-0.253434
H	 0.562473137	 2.1213198822	-0.1662001548	 0.127421
H	-1.0087181014	 1.6638785687	-0.8535164158	 0.120163
H	-0.8193594591	 1.8080783018	 0.9050709247	 0.127316
H	-0.8162641548	-0.5965722542	 0.2005108477	 0.088907
H	 0.4870977888	-1.337092889	-1.6533432751	 0.109405
H	 1.0638907686	 0.3098142132	-1.9080736705	 0.10629
H	 2.8532487041	-0.6588320016	 2.717101766	 0.101137
H	 4.4039805424	-2.6192258384	 2.3955479399	 0.115513
H	 3.9526974137	-2.6590435153	 0.6187748138	 0.138569
H	 4.7937033653	-0.3255282078	 0.3213341631	 0.138938
H	 5.2592172003	-0.2438776514	 2.092976479	 0.115263
34.2199	58.0446	153.2851	181.7298	246.3463	297.495	352.6206	393.4794	469.6146	646.6383	714.058	731.7525	794.7339	830.1999	839.3571	885.1199	918.5889	932.5877	938.2412	971.2104	1017.9731	1064.0465	1074.4241	1092.3429	1117.5793	1130.8665	1133.5849	1141.6215	1202.2018	1208.7065	1223.7332	1229.5214	1324.1147	1337.1464	1380.6934	1409.4617	1444.4509	1458.0272	1485.8215	1493.8695	1497.4044	1506.6481	1727.7459	3024.0534	3037.2698	3044.1272	3061.8301	3110.4337	3119.4676	3140.4396	3143.1938	3192.8076	3228.9163	3243.5388
CC1CN=C(O1)C1CC1	C[C@H]1CN=C(O1)C1CC1	
InChI=1S/C7H11NO/c1-5-4-8-7(9-5)6-2-3-6/h5-6H,2-4H2,1H3	InChI=1S/C7H11NO/c1-5-4-8-7(9-5)6-2-3-6/h5-6H,2-4H2,1H3/t5-/m0/s1
