20
gdb 70361	2.78817	1.67393	1.35707	3.2123	77.71	-0.2318	0.0704	0.3022	1024.4132	0.172964	-403.120031	-403.112431	-403.111487	-403.151777	30.624	
C	-0.1880873916	 1.4778484681	 0.0584727807	-0.502284
C	 0.1074022594	-0.0001134776	 0.022099857	 0.32861
N	-0.6609701609	-0.9235476067	 0.8883229518	-0.357229
C	 0.7837970833	-0.7365360446	 1.1310938688	-0.083111
C	 1.6481342517	-1.8597322826	 0.5820196358	-0.238065
C	 1.3821540537	-1.8786708678	-0.9362073166	 0.126468
O	 0.3574046081	-2.7974956472	-1.3693925234	-0.29017
C	-0.4637787305	-1.7229855932	-1.8742132401	-0.074752
C	 0.4952376479	-0.6569015452	-1.3011455313	-0.132113
H	 0.6312078625	 2.0572747385	-0.3814496834	 0.123655
H	-1.0989173649	 1.7154188299	-0.5039507639	 0.125723
H	-0.3300923981	 1.8265205324	 1.087086421	 0.113684
H	-1.1900819565	-0.380034116	 1.5671868388	 0.223792
H	 1.0908394638	-0.222274535	 2.0379333211	 0.080173
H	 2.7047527025	-1.6483044437	 0.7818537649	 0.09433
H	 1.4054699918	-2.8320050291	 1.0212071385	 0.123039
H	 2.301580473	-2.0235892685	-1.5171758947	 0.069414
H	-0.5231184917	-1.7421275823	-2.9699761448	 0.087868
H	-1.4682882747	-1.7406794692	-1.4416828885	 0.112607
H	 0.8977388311	 0.0668750297	-2.0119367016	 0.068363
123.832	189.4439	218.9212	274.289	301.6692	376.7413	428.1772	489.6688	579.7657	672.2898	707.9781	785.4787	822.5123	853.093	870.8082	902.2084	922.1382	964.4744	994.1522	1016.3904	1024.644	1048.6372	1059.5202	1084.761	1092.0635	1125.2316	1138.902	1172.7237	1201.3537	1219.0549	1262.1717	1275.3274	1302.992	1322.3775	1361.6486	1365.4706	1371.581	1415.6305	1443.438	1463.762	1484.7259	1500.1874	1507.4119	3012.8681	3019.4341	3021.2643	3046.2242	3083.3776	3085.114	3092.6752	3096.7298	3097.8762	3143.6879	3485.4721
CC12NC1CC1OCC21	C[C@]12N[C@H]1C[C@H]1OC[C@@H]21	
InChI=1S/C7H11NO/c1-7-4-3-9-5(4)2-6(7)8-7/h4-6,8H,2-3H2,1H3	InChI=1S/C7H11NO/c1-7-4-3-9-5(4)2-6(7)8-7/h4-6,8H,2-3H2,1H3/t4-,5-,6+,7-/m1/s1
