14
gdb 14080	3.98273	1.62117	1.35976	4.3344	58.54	-0.2736	-0.0154	0.2582	908.6347	0.10601	-419.677586	-419.670296	-419.669352	-419.709286	26.196	
C	-0.0436518012	 1.5256352269	-0.1184964843	-0.4202
C	-0.0014554399	 0.0276907552	 0.0175731673	-0.009153
O	 1.2853059467	-0.6069261853	-0.091775862	-0.265134
C	 0.6433503169	-0.6384620048	 1.1551603661	 0.207196
C	 1.178120737	-0.1361764874	 2.4935561412	-0.159012
O	 0.6601369571	-1.3527295098	 3.1230921573	-0.248394
C	 0.2277663287	-1.8843129589	 1.92358704	 0.41172
O	-0.27996185	-2.9371842963	 1.7247789394	-0.325535
H	 0.7845663761	 1.9938578746	 0.419564517	 0.131256
H	 0.0255678865	 1.8129598487	-1.1722364821	 0.144188
H	-0.9875698784	 1.9161812293	 0.27566698	 0.135841
H	-0.796352135	-0.5263127798	-0.4824230704	 0.123646
H	 2.2660250183	-0.0847204394	 2.5706683636	 0.141224
H	 0.7090377972	 0.753886697	 2.9178220368	 0.132356
132.2547	142.1066	189.2099	202.2356	285.2985	365.6384	454.7199	554.7385	632.5068	718.7253	786.6066	820.8254	895.1067	932.5107	973.3267	1040.692	1057.4699	1083.0286	1132.1402	1147.8161	1154.0814	1197.3169	1311.3373	1361.3333	1412.4527	1473.8825	1488.8023	1509.5007	1523.7854	1949.0639	3042.0155	3073.3259	3109.8714	3111.295	3131.3446	3136.5667
CC1OC11COC1=O	C[C@H]1O[C@]21COC2=O	
InChI=1S/C5H6O3/c1-3-5(8-3)2-7-4(5)6/h3H,2H2,1H3	InChI=1S/C5H6O3/c1-3-5(8-3)2-7-4(5)6/h3H,2H2,1H3/t3-,5+/m1/s1
