23
gdb 59268	2.62219	1.25964	1.14521	1.4064	84.7	-0.2488	0.0746	0.3235	1234.3795	0.207194	-388.291824	-388.282623	-388.281679	-388.326077	35.577	
C	-0.0880031121	 1.5750029868	-0.1105619006	-0.401438
C	-0.2348047526	 0.0544139595	-0.0034918726	 0.119944
O	 0.1398059668	-0.5786024161	-1.2314247317	-0.431535
C	 0.5423040467	-0.4833439117	 1.1911836183	-0.044118
C	-0.0677085089	-1.1329807305	 2.4194697114	-0.05914
C	-1.4832655573	-1.6947184661	 2.3446133608	-0.215417
C	-1.5082386629	-2.6499690538	 1.1220345067	-0.22512
C	-0.0341941282	-3.0391189167	 0.8503160507	-0.202209
C	 0.809319665	-1.9461149473	 1.4935025206	-0.071064
H	 0.96473414	 1.8536842878	-0.2434237425	 0.104481
H	-0.6513692487	 1.9522405379	-0.9680193903	 0.11945
H	-0.4532896062	 2.0686655048	 0.7963813106	 0.115706
H	-1.2988292256	-0.1754806994	 0.0980488598	 0.087297
H	 1.1015558152	-0.5587774877	-1.282224168	 0.275268
H	 1.397262494	 0.1468489452	 1.4345886272	 0.074131
H	 0.2890235653	-0.8008530611	 3.3889988598	 0.075855
H	-1.6811954549	-2.2495546947	 3.2689394754	 0.09753
H	-2.2546673542	-0.9188253545	 2.2761241211	 0.095409
H	-2.1345545571	-3.5268855983	 1.3075961589	 0.091873
H	-1.9281010521	-2.1511086497	 0.2457676778	 0.118261
H	 0.2088055623	-3.9915360452	 1.3361867961	 0.091525
H	 0.1607284678	-3.1552691828	-0.2188673136	 0.108689
H	 1.8256145674	-2.2024633963	 1.7756505041	 0.074621
35.6691	136.5033	170.2394	208.5618	232.0466	255.1892	291.7463	357.9115	409.0828	507.4354	533.9265	659.757	701.4989	757.0746	787.3513	808.7773	875.7652	886.9157	888.5527	921.1538	981.3034	997.2361	1005.8672	1022.7178	1049.7105	1089.3617	1093.8062	1105.0134	1119.4471	1143.7242	1186.6254	1218.3244	1237.6491	1260.7934	1278.0235	1311.8943	1322.4258	1327.2747	1344.5709	1361.7573	1392.9436	1401.6157	1424.5006	1441.4182	1487.1501	1490.5947	1494.6074	1494.849	1516.0696	3024.7421	3030.875	3034.0342	3060.1894	3065.3059	3071.8685	3090.8936	3095.1016	3103.3348	3110.1005	3119.3657	3149.0706	3161.2732	3805.1363
CC(O)C1C2CCCC12	C[C@@H](O)[C@H]1[C@H]2CCC[C@@H]12	
InChI=1S/C8H14O/c1-5(9)8-6-3-2-4-7(6)8/h5-9H,2-4H2,1H3	InChI=1S/C8H14O/c1-5(9)8-6-3-2-4-7(6)8/h5-9H,2-4H2,1H3/t5-,6-,7+,8-/m1/s1
