20
gdb 71805	3.4238	1.58532	1.46756	1.5541	80.72	-0.2207	0.0781	0.2988	991.2591	0.173514	-365.963406	-365.956319	-365.955375	-365.994421	29.833	
C	-0.1141865351	 1.5471841893	 0.072282068	-0.486808
C	 0.0275799269	 0.0560781358	-0.0473742158	 0.322793
C	-0.3387398537	-0.7265562745	-1.3041695575	-0.304835
C	-0.6851021602	-1.9022410506	-0.3633787145	-0.012862
C	 0.4753456585	-2.8611589536	-0.0941662653	-0.036459
C	 1.865660547	-2.512428898	-0.5813055053	-0.306873
C	 1.4204293697	-2.07426158	 0.7875010878	-0.029924
C	 0.7140085365	-0.7599121998	 1.0060993799	-0.091048
N	-0.754002349	-0.914482382	 0.8264305496	-0.184512
H	 0.6905847058	 2.0597038841	-0.4683078037	 0.118866
H	-1.0691752978	 1.8820857341	-0.3477635621	 0.120435
H	-0.0747990277	 1.8663883551	 1.117826041	 0.125504
H	-1.2516146368	-0.2998587887	-1.7304338679	 0.104278
H	 0.3852934	-0.8646088199	-2.1109341258	 0.095314
H	-1.6325952892	-2.4091283188	-0.5391422915	 0.075415
H	 0.2456601894	-3.8999571899	 0.1135251665	 0.088428
H	 2.5807980745	-3.3286359628	-0.6214580535	 0.109524
H	 2.0068541255	-1.7729197036	-1.3586657981	 0.118384
H	 1.8866463593	-2.5203296281	 1.6592360906	 0.08915
H	 0.9862449664	-0.2034689282	 1.8984507873	 0.085233
166.3415	170.5622	300.9497	310.9451	367.5861	471.3612	539.3135	575.2598	666.342	696.9621	749.7009	778.5782	792.137	811.0707	850.3555	897.0815	930.0834	941.5881	958.6165	984.3856	1007.0724	1044.1559	1061.7013	1074.6921	1081.7356	1096.1372	1106.4704	1119.6232	1154.6258	1199.7638	1221.7026	1235.2795	1283.0454	1299.1966	1336.0852	1343.0622	1384.2024	1409.7871	1426.2454	1481.4053	1488.7897	1491.4907	1515.9886	3025.1573	3051.913	3086.566	3093.6447	3108.2447	3124.091	3135.0673	3150.4419	3166.0213	3175.3655	3226.0602
CC12CC3C4CC4C1N23	C[C@@]12C[C@H]3[C@H]4C[C@H]4[C@@H]1N23	
InChI=1S/C8H11N/c1-8-3-6-4-2-5(4)7(8)9(6)8/h4-7H,2-3H2,1H3	InChI=1S/C8H11N/c1-8-3-6-4-2-5(4)7(8)9(6)8/h4-7H,2-3H2,1H3/t4-,5+,6-,7-,8+,9?/m0/s1
