14
gdb 65909	3.14948	1.2528	1.06865	1.6565	63.21	-0.2753	-0.1055	0.1698	1097.2657	0.09835	-473.802347	-473.79353	-473.792586	-473.837244	30.381	
O	-0.0006793777	 1.4441644629	-0.1330686444	-0.458993
C	-0.0107502926	 0.0502594549	-0.0074819763	 0.212028
C	 0.1512443273	-0.545750902	 1.429656359	-0.108291
O	-1.1726247318	-1.0907378384	 1.3986083102	-0.25993
C	-1.4350776726	-0.530967296	 0.0971250103	-0.09922
C	 0.8742313485	-0.6321141594	-1.0420409778	 0.26451
O	 0.7118030348	-1.7469785827	-1.4625197703	-0.2616
C	 2.0280299006	 0.1870544995	-1.4869331045	 0.206935
N	 2.9412876786	 0.83158739	-1.784410894	-0.296528
H	 0.8935606149	 1.7825168294	 0.0009681099	 0.302255
H	 0.9181783705	-1.3174850106	 1.5626605926	 0.120435
H	 0.2715687645	 0.2432545524	 2.1825085594	 0.117517
H	-2.2015782347	 0.2504010679	 0.1170772625	 0.126989
H	-1.6773911803	-1.3010418677	-0.6404868867	 0.133893
24.4244	77.765	138.9436	196.0705	268.1648	269.7853	306.617	374.0032	392.4064	462.7758	536.7045	675.0583	732.0463	790.111	885.1945	948.4795	990.335	1009.0315	1043.2763	1056.6334	1160.3952	1164.1168	1181.729	1277.8513	1308.7403	1347.0308	1387.9155	1489.2395	1513.8874	1800.2714	2332.232	3015.7287	3046.7241	3074.0133	3109.0427	3783.8581
OC1(COC1)C(=O)C#N	OC1(COC1)C(=O)C#N	
InChI=1S/C5H5NO3/c6-1-4(7)5(8)2-9-3-5/h8H,2-3H2	InChI=1S/C5H5NO3/c6-1-4(7)5(8)2-9-3-5/h8H,2-3H2
