13
gdb 45953	2.08581	1.88967	1.04485	5.2734	64.29	-0.2866	-0.07	0.2166	1054.8117	0.088902	-452.778098	-452.770294	-452.76935	-452.811665	27.555	
N	-0.027954872	 1.2794844621	 0.1599830801	-0.502155
C	 0.0154255662	 0.0269911472	 0.1127639679	 0.42828
O	 1.1590206897	-0.7249068173	 0.0483781525	-0.238437
C	 0.9109650727	-2.1254512048	 0.1312627438	-0.197547
C	-0.5989684491	-2.2993989606	 0.2628026097	 0.383058
O	-1.1835836389	-3.3217354974	 0.4566539829	-0.2615
C	-1.204195963	-0.8869894955	 0.0781996174	-0.388314
C	-2.2489792912	-0.5614954726	 1.033899241	 0.324301
N	-3.0805125447	-0.3317680868	 1.8008625915	-0.308316
H	 0.9093949801	 1.6845939172	 0.1668324257	 0.240757
H	 1.2808356662	-2.6270728729	-0.7702207641	 0.160834
H	 1.4216701063	-2.5491233632	 1.0024348571	 0.166627
H	-1.6293600823	-0.8570790954	-0.9352388755	 0.192411
34.5419	125.6812	135.4276	189.0816	359.3118	428.0427	444.3554	499.192	529.662	601.6342	634.6682	686.1997	775.3088	898.391	915.5688	984.3809	998.8806	1041.5295	1098.496	1146.3236	1166.1188	1213.547	1244.5572	1312.8562	1370.5012	1481.6561	1793.8199	1890.3062	2375.8525	3025.3215	3044.9183	3091.5159	3485.8676
N=C1OCC(=O)C1C#N	[NH][C]1OCC(=O)[C@H]1C#N	
InChI=1S/C5H4N2O2/c6-1-3-4(8)2-9-5(3)7/h3,7H,2H2	InChI=1S/C5H4N2O2/c6-1-3-4(8)2-9-5(3)7/h3,7H,2H2/t3-/m1/s1
