21
gdb 110527	3.50313	1.127	1.07176	1.1891	81.91	-0.2302	0.0744	0.3046	1242.3746	0.182757	-387.036203	-387.027715	-387.026771	-387.069233	33.564	
C	 0.0400950884	 1.5177112369	-0.1378415412	-0.377096
C	-0.0786872301	-0.002761715	 0.0135491569	-0.213322
C	 0.7406242511	-0.5499283935	 1.1785690507	 0.055265
C	 0.8966710766	-2.054105531	 1.404391131	-0.14575
C	 2.147671914	-2.5317152243	 0.5984515077	-0.152255
C	 2.7365683017	-1.3035150622	-0.0896198009	-0.2316
C	 2.3052675372	-0.5007061438	 1.1683019003	-0.159581
C	 2.2729446389	-1.893714339	 1.9606325488	 0.375285
O	 2.7620159906	-2.311091685	 3.1701209673	-0.45591
H	 1.0744364666	 1.8173310629	-0.3392014414	 0.116318
H	-0.5785221142	 1.8875569687	-0.9613746084	 0.110024
H	-0.2794307262	 2.0321820323	 0.7755863449	 0.112813
H	-1.1307555625	-0.2740865449	 0.174068497	 0.092288
H	 0.2143796831	-0.4943010763	-0.9208989602	 0.097204
H	 0.393444362	-0.0923864486	 2.1136429301	 0.071873
H	 0.1478464653	-2.7753538649	 1.7076149441	 0.083922
H	 2.2494404706	-3.5767894787	 0.3344924809	 0.083755
H	 3.8261049737	-1.3748014777	-0.1623493343	 0.090408
H	 2.3340071979	-0.9886195207	-1.0578835598	 0.091044
H	 2.8349651645	 0.4034396914	 1.462341163	 0.066401
H	 3.7120713209	-2.4514744569	 3.0855743738	 0.288911
69.8458	134.7214	186.1085	243.4076	308.0353	320.3588	360.3202	376.3609	506.0923	548.8515	633.684	673.6478	720.3889	767.3084	816.3403	878.6138	900.7654	924.1451	945.5089	958.3032	968.838	1010.3383	1015.1288	1026.9329	1063.9607	1088.1429	1098.7312	1119.6549	1133.424	1169.7797	1187.2549	1219.3494	1244.4842	1278.4719	1286.7092	1295.8111	1324.6935	1343.9538	1401.8189	1410.6278	1481.17	1491.5988	1499.3873	1504.4951	1514.5433	3020.2181	3025.6004	3029.3613	3040.3955	3061.584	3088.5935	3096.2552	3101.472	3132.3323	3190.0943	3199.971	3783.2322
CCC1C2C3CC1C23O	CC[C@H]1[C@H]2[C@H]3C[C@@H]1[C@@]23O	
InChI=1S/C8H12O/c1-2-4-5-3-6-7(4)8(5,6)9/h4-7,9H,2-3H2,1H3	InChI=1S/C8H12O/c1-2-4-5-3-6-7(4)8(5,6)9/h4-7,9H,2-3H2,1H3/t4-,5+,6-,7+,8+/m1/s1
