15
gdb 27706	2.9427	1.27691	0.89156	2.0929	81.91	-0.1665	0.0224	0.1889	1223.2614	0.111991	-416.809975	-416.800909	-416.799965	-416.843142	34.111	
N	 0.034223423	 1.4160658424	-0.1548218874	-0.621107
C	 0.0373546012	 0.02384162	-0.0716180821	 0.185432
C	-1.0904176271	-0.7888104823	-0.0235873894	 0.12049
N	-0.6266930087	-2.1163051662	-0.0367680812	-0.387217
C	 0.7232838999	-2.1152532231	-0.0758156927	 0.39254
O	 1.3585872893	-3.3091174866	-0.0857345185	-0.43465
C	 1.1878919727	-0.8146620723	-0.1005933075	-0.358241
C	-2.4445580141	-0.4455825968	 0.0286235212	 0.223532
C	-3.6102731982	-0.128720895	 0.0885083758	-0.457822
H	 0.7826009561	 1.853511289	 0.3658532451	 0.242283
H	-0.8574754782	 1.8163118823	 0.1086878688	 0.248721
H	-1.2055727916	-2.9367248456	-0.008848967	 0.270057
H	 2.3059620906	-3.1501671723	-0.1368848235	 0.309713
H	 2.2194033626	-0.502156909	-0.1522333008	 0.087625
H	-4.6343338976	 0.1479949156	 0.1117217291	 0.178643
125.3151	129.8364	216.3621	241.9257	264.8969	279.8341	305.7078	335.8794	409.9336	414.6865	485.0958	541.3892	583.6071	633.8664	662.9285	671.7211	697.4272	704.3203	757.6909	817.3011	1039.1496	1069.8085	1180.6577	1198.6417	1222.9271	1243.181	1368.103	1485.4163	1539.9124	1587.5951	1629.3955	1656.0182	2200.0403	3245.1157	3504.5896	3535.7625	3630.4129	3694.5709	3847.4476
NC1=C(NC(O)=C1)C#C	Nc1c([nH]c(O)c1)C#C	
InChI=1S/C6H6N2O/c1-2-5-4(7)3-6(9)8-5/h1,3,8-9H,7H2	InChI=1S/C6H6N2O/c1-2-5-4(7)3-6(9)8-5/h1,3,8-9H,7H2
