16
gdb 112404	2.17679	1.49037	0.93258	0.6309	66.91	-0.2644	-0.0496	0.2148	1200.1359	0.123401	-475.052156	-475.043625	-475.042681	-475.086472	30.784	
O	 0.1391146533	 1.4267871978	 0.0813466489	-0.415262
C	 0.0871272645	 0.0261918504	 0.2225405041	-0.059896
C	-1.3219035374	-0.5116436939	-0.03214168	-0.038375
O	-1.7221262942	-0.1893243246	-1.3737281213	-0.26174
C	-2.0588933756	-1.3032987343	-2.1101510812	 0.406186
N	-2.4143278723	-1.2715048017	-3.3171645196	-0.522107
C	-1.9410955692	-2.5416608671	-1.2569813917	-0.43361
C	-1.4140083979	-2.0345630748	 0.074785108	 0.385688
O	-1.1023635083	-2.675473483	 1.0418748605	-0.302601
H	-0.1498025721	 1.6321919205	-0.8151076722	 0.294473
H	 0.7950375504	-0.4815979954	-0.4516330146	 0.097101
H	 0.3699737553	-0.2136091429	 1.2511668192	 0.139903
H	-2.0226757323	-0.0346431856	 0.6639719737	 0.13125
H	-2.4178270847	-0.3127631703	-3.6700549142	 0.22695
H	-2.9130755856	-3.0275752417	-1.1243458599	 0.176281
H	-1.2719855541	-3.2849936835	-1.6983192299	 0.175759
52.9996	71.3664	114.7479	165.0064	305.7311	383.4335	411.2787	421.6429	475.3362	551.2972	584.9148	592.2968	663.938	806.4769	848.1735	897.2823	927.2819	933.8304	1045.2603	1058.8277	1081.9472	1107.0071	1140.4813	1168.6291	1221.797	1241.6392	1267.2944	1293.1596	1363.7947	1396.0273	1417.0265	1418.6529	1494.9289	1786.7667	1863.7405	2982.9441	3045.5356	3070.3672	3103.3662	3112.8356	3473.3753	3804.2891
OCC1OC(=N)CC1=O	OC[C@H]1O[C]([NH])CC1=O	
InChI=1S/C5H7NO3/c6-5-1-3(8)4(2-7)9-5/h4,6-7H,1-2H2	InChI=1S/C5H7NO3/c6-5-1-3(8)4(2-7)9-5/h4,6-7H,1-2H2/t4-/m1/s1
