14
gdb 123888	4.70299	1.23997	1.02074	6.1185	72.84	-0.2508	-0.0793	0.1715	1097.7174	0.101184	-428.962901	-428.955714	-428.95477	-428.995197	26.033	
C	-0.1385622511	 1.2841258118	-0.3770359725	-0.237583
C	 1.2785500104	 1.0117254215	 0.0247402947	-0.214478
N	 0.2645051249	-0.0153313655	 0.1483421728	-0.107281
C	-0.1456706508	-0.5146130953	 1.3600349689	 0.391899
C	-1.4876100443	-0.8492784713	 1.6107151805	-0.014407
N	-1.8323612676	-1.399188697	 2.7524957949	-0.161866
N	-0.8776664874	-1.6391385954	 3.6673736583	-0.070446
N	 0.3687518399	-1.3201596959	 3.4386078155	-0.057911
N	 0.765154709	-0.7519951198	 2.3018116641	-0.249149
H	-0.7308912676	 1.9252154509	 0.2713386533	 0.141003
H	-0.4174148521	 1.2984651887	-1.4258589876	 0.142609
H	 2.0296309965	 0.8339442983	-0.7380494501	 0.142975
H	 1.6447241038	 1.4556073148	 0.945555729	 0.153884
H	-2.2734664337	-0.6673907057	 0.8821927381	 0.140752
78.3681	107.7275	189.8955	230.818	347.6814	464.32	511.92	581.6422	670.1269	788.0252	813.5534	832.8664	892.6799	946.8784	956.722	972.2179	1040.4377	1068.0175	1094.1047	1126.3689	1138.7966	1162.6588	1171.8904	1207.5949	1263.1919	1343.999	1470.5563	1492.9777	1501.6155	1524.2429	1586.6885	3114.6312	3128.0322	3165.9549	3205.4876	3222.0958
C1CN1C1=CN=NN=N1	C1CN1c1cnnnn1	
InChI=1S/C4H5N5/c1-2-9(1)4-3-5-7-8-6-4/h3H,1-2H2	InChI=1S/C4H5N5/c1-2-9(1)4-3-5-7-8-6-4/h3H,1-2H2
