21
gdb 46789	2.54547	1.64094	1.29731	2.9216	81.09	-0.2346	-0.0101	0.2245	1061.1366	0.18551	-387.115008	-387.107378	-387.106433	-387.146979	31.025	
O	 0.1695702139	-0.048713653	 0.1737495678	-0.311323
C	 0.0142917765	 1.1434628368	 0.032457188	 0.384605
C	-1.3731971815	 1.7719986322	 0.0615385559	-0.289984
C	-1.6813576283	 2.5555970738	 1.3610956156	-0.220261
C	-0.6274649846	 3.5852322438	 1.7931197122	 0.011335
C	 0.1008536623	 4.3087452936	 0.6220484005	-0.236356
C	 1.2671421224	 3.286878302	 0.7558172753	-0.000464
C	 0.7497512357	 2.9729406872	 2.1912432175	-0.238096
C	 1.207263777	 2.0746916861	-0.1884333642	-0.307346
H	-1.4708636389	 2.4459300432	-0.7978010106	 0.108578
H	-2.1015286103	 0.9662226463	-0.0579273829	 0.117072
H	-2.6433900538	 3.0614571643	 1.2181221328	 0.102635
H	-1.826773845	 1.8392529322	 2.1791136436	 0.112512
H	-1.0716939299	 4.2422062018	 2.5460982532	 0.067157
H	-0.4106578914	 4.3843461296	-0.3419548797	 0.091655
H	 0.4238916264	 5.3116362346	 0.9136166114	 0.098887
H	 2.2686932383	 3.7199739162	 0.6930301903	 0.072856
H	 1.2551235383	 3.5763032816	 2.9495800325	 0.097204
H	 0.7656492995	 1.9271939799	 2.5140662179	 0.108597
H	 2.104345312	 1.4597568483	-0.0742252054	 0.118865
H	 1.1775815813	 2.4239323895	-1.2309353916	 0.111872
84.5702	173.7492	283.9957	292.0628	331.1413	376.0829	461.564	486.4733	501.4317	655.0584	738.6738	784.4433	798.8338	817.6981	858.5583	869.5822	878.7515	917.9084	955.1264	1001.6633	1007.8674	1041.6285	1054.6549	1117.3509	1121.3225	1148.8598	1167.3546	1170.552	1214.7893	1236.6633	1259.4408	1270.0875	1278.8536	1295.7902	1316.7182	1342.9892	1365.6078	1376.7946	1382.9728	1462.5421	1469.342	1486.5327	1488.6971	1506.7669	1804.1261	3010.2148	3025.1718	3037.7631	3048.1118	3050.437	3060.7017	3066.3786	3068.6442	3093.5785	3100.3613	3104.8455	3107.5848
O=C1CCC2CC(C2)C1	O=C1CC[C@@H]2C[C@@H](C2)C1	
InChI=1S/C8H12O/c9-8-2-1-6-3-7(4-6)5-8/h6-7H,1-5H2	InChI=1S/C8H12O/c9-8-2-1-6-3-7(4-6)5-8/h6-7H,1-5H2/t6-,7+
