15
gdb 130097	4.93629	1.32123	1.06119	2.8796	67.55	-0.2016	0.036	0.2375	1072.2549	0.116795	-450.147131	-450.140025	-450.139081	-450.178745	26.833	
N	-0.0569581189	 1.296654728	-0.0444910255	-0.57823
C	-0.0205680955	-0.079842538	-0.0363132835	 0.400685
N	-1.1094867285	-0.8260707708	 0.1209319835	-0.362387
N	-0.5519623076	-2.0904727209	 0.0590867776	-0.012679
C	-1.0550701298	-3.405325641	-0.2540889733	-0.194229
C	 0.3066882725	-4.1649409502	-0.2500689299	-0.106138
O	 1.3454185695	-3.1627245912	-0.4529199188	-0.271925
C	 0.7553403891	-1.9851736342	-0.2038206291	 0.496338
N	 1.1745798979	-0.7477526965	-0.2435834521	-0.438438
H	 0.8177007857	 1.7213703218	 0.2245941992	 0.260579
H	-0.8574031479	 1.6884743651	 0.4289158701	 0.25796
H	-1.7407464454	-3.7933896676	 0.503139807	 0.137596
H	-1.5537994024	-3.4279475949	-1.2313675355	 0.132873
H	 0.4865419876	-4.6445359843	 0.7165216221	 0.137012
H	 0.3956392537	-4.9029930653	-1.0471710218	 0.140983
111.1207	153.3941	259.0773	293.7635	341.3501	356.92	532.3305	582.5848	607.4485	715.1221	735.1533	765.394	776.1359	863.927	889.2813	942.7343	996.5235	1032.4714	1111.95	1132.0418	1160.0346	1208.779	1249.8371	1287.9038	1337.5041	1371.4846	1429.7482	1495.7713	1514.1872	1535.4653	1592.7568	1639.5974	1652.5079	3025.055	3065.2524	3095.6078	3141.3874	3578.5296	3686.8567
NC1=NN2CCOC2=N1	Nc1nn2CCOc2n1	
InChI=1S/C4H6N4O/c5-3-6-4-8(7-3)1-2-9-4/h1-2H2,(H2,5,7)	InChI=1S/C4H6N4O/c5-3-6-4-8(7-3)1-2-9-4/h1-2H2,(H2,5,7)
