17
gdb 127401	3.08364	1.62453	1.10101	3.8486	75.31	-0.1966	-0.0068	0.1898	1068.3873	0.138237	-417.982991	-417.97561	-417.974666	-418.014813	28.217	
C	-0.1142087071	 1.5192770624	-0.0688682962	-0.335449
N	 0.0585708684	 0.0808929259	 0.0278455788	-0.182386
C	 0.7202688352	-0.5498928601	-1.1506110654	-0.161268
C	 1.3883989462	-1.8733615012	-0.6463708058	-0.367284
C	 1.5174717121	-1.5145699476	 0.7970520696	 0.33848
C	 0.766658263	-0.4376640429	 1.1242096035	 0.214802
C	 0.9261659329	-0.332983906	 2.5265833444	-0.10942
N	 1.7174909992	-1.2887907318	 2.983796683	-0.147711
O	 2.0848281315	-2.0641247141	 1.8744798381	-0.222603
H	 0.8401362996	 2.0630494007	-0.1858105453	 0.105181
H	-0.7497016239	 1.7527071592	-0.9283542565	 0.126607
H	-0.6168510388	 1.8909876149	 0.8283228791	 0.130519
H	-0.004179052	-0.7181720253	-1.9515354119	 0.116356
H	 1.5049656751	 0.1225642478	-1.5338304045	 0.101867
H	 0.7298779402	-2.7399867686	-0.7880947888	 0.132355
H	 2.3277725011	-2.0816873453	-1.1648397083	 0.131296
H	 0.5264264172	 0.3809448418	 3.2320663463	 0.128658
130.8878	168.6113	221.5762	234.7965	275.7681	393.9961	472.6545	580.5666	622.4487	631.1083	690.3093	735.9563	831.3459	884.994	886.3191	935.8666	967.8254	990.7278	1068.9312	1092.1442	1144.6581	1164.3952	1191.0574	1210.6048	1223.7612	1264.6426	1291.7456	1361.2116	1373.4267	1427.7214	1461.3625	1485.5723	1489.7487	1498.8692	1511.2663	1534.351	1668.4238	2948.8158	2970.9492	3024.4586	3072.6265	3087.3919	3094.3352	3114.5071	3246.4691
CN1CCC2=C1C=NO2	CN1CCc2c1cno2	
InChI=1S/C6H8N2O/c1-8-3-2-6-5(8)4-7-9-6/h4H,2-3H2,1H3	InChI=1S/C6H8N2O/c1-8-3-2-6-5(8)4-7-9-6/h4H,2-3H2,1H3
