19
gdb 19689	4.57658	1.58644	1.46898	1.8246	73.53	-0.2389	0.0729	0.3118	939.3882	0.167291	-327.871438	-327.864353	-327.863409	-327.902832	27.72	
C	 0.0177879933	 1.5574046753	 0.1017835122	-0.377748
C	 0.0491800111	 0.0331544034	-0.0571417664	-0.219104
C	-1.332559021	-0.6024856716	 0.0538187581	 0.050031
C	-1.5276657846	-2.1092346728	 0.0893274447	-0.078224
C	-1.4806469672	-2.5794480589	 1.5094241301	-0.036931
C	-1.259233433	-1.3874015225	 2.4209422453	-0.239763
C	-2.1244072477	-0.6415970514	 1.3868078462	-0.028209
N	-2.7563714825	-2.0075094257	 0.9503652711	-0.166092
H	 1.0184010592	 1.9888048725	 0.0027891479	 0.11406
H	-0.6220061213	 2.021175674	-0.6571572251	 0.116411
H	-0.3726383715	 1.8472820403	 1.0835059646	 0.117929
H	 0.4737728626	-0.2252197125	-1.0361121453	 0.097934
H	 0.7257519511	-0.4038478987	 0.686174715	 0.099077
H	-1.9962484548	-0.1904439333	-0.7165361415	 0.081492
H	-1.487264995	-2.8064186184	-0.7410114722	 0.088672
H	-1.4046118039	-3.6325595427	 1.7568648764	 0.092845
H	-1.8047947135	-1.5165429481	 3.3593578652	 0.111774
H	-0.2448784547	-1.033846163	 2.6311410835	 0.096264
H	-2.7773886266	 0.1776149442	 1.6814103402	 0.079582
78.9693	167.5135	202.4953	282.3726	362.1185	476.573	536.3476	701.8869	754.3159	777.1867	783.5404	822.9493	826.4071	903.6762	931.0468	951.5314	983.1827	1010.8376	1026.5514	1036.8394	1053.2344	1089.2848	1108.2302	1119.9294	1140.9848	1168.518	1200.1524	1224.2433	1265.4277	1271.0017	1290.6074	1340.9354	1357.3645	1379.3538	1408.7903	1415.2218	1483.5953	1500.2807	1501.2186	1511.5546	3023.8946	3030.382	3032.6274	3048.5887	3061.4562	3097.6619	3104.029	3104.9775	3135.4906	3166.2882	3180.53
CCC1C2C3CC1N23	CC[C@H]1[C@H]2[C@H]3C[C@@H]1N23	
InChI=1S/C7H11N/c1-2-4-5-3-6-7(4)8(5)6/h4-7H,2-3H2,1H3	InChI=1S/C7H11N/c1-2-4-5-3-6-7(4)8(5)6/h4-7H,2-3H2,1H3/t4-,5+,6-,7+,8?/m1/s1
