19
gdb 89593	4.18844	0.94973	0.90247	1.9999	81.21	-0.2512	0.0474	0.2986	1362.9066	0.156873	-385.824051	-385.814985	-385.81404	-385.858056	34.234	
C	-0.0219675958	 1.606090103	 0.130355603	-0.403161
C	-0.0018430444	 0.0855913351	 0.0748327917	 0.009326
C	 0.9103860473	-0.6141146307	-1.0045019093	-0.313548
C	 1.6569206221	-1.3110743778	 0.1434789555	 0.440349
C	 2.355046075	-2.6448864662	 0.1384371533	-0.469697
C	 3.507516937	-2.6750867164	-0.7590830589	 0.307692
C	 4.4445681264	-2.6854457528	-1.5106936879	-0.449032
O	 2.1929373977	-0.2716204126	 0.9726438977	-0.283057
C	 0.8177212699	-0.6475913471	 1.1543465995	-0.068695
H	 0.9953722166	 1.9931948948	 0.2352332764	 0.135337
H	-0.457145153	 2.0275286817	-0.7818670778	 0.114312
H	-0.614526095	 1.964848924	 0.97927245	 0.11249
H	-1.0178952262	-0.3195515576	 0.0268877735	 0.075546
H	 0.3551291429	-1.2999789683	-1.6489472969	 0.104695
H	 1.5330096268	 0.0413977511	-1.6177129787	 0.11366
H	 2.669030331	-2.8757660784	 1.1630983999	 0.144065
H	 1.6398415552	-3.4227484076	-0.1600787562	 0.135009
H	 5.2796058322	-2.6968011864	-2.1663478099	 0.198464
H	 0.5227887444	-0.9569331779	 2.1518189152	 0.096245
59.3429	84.1102	159.152	226.7578	235.7607	316.1272	341.2993	366.0064	404.5509	442.382	597.1174	621.5266	645.3501	692.1426	721.9591	803.6872	858.8484	879.6504	922.216	922.8946	954.1599	966.2633	1020.0371	1046.2149	1105.1395	1111.6873	1162.2583	1191.2305	1219.7928	1245.9387	1255.8879	1300.716	1327.3432	1362.0757	1403.963	1449.5457	1455.6742	1483.6228	1493.1529	1503.8447	2242.3213	3021.3458	3032.4373	3053.841	3065.3432	3067.9265	3095.0064	3117.9345	3125.1706	3171.8393	3506.5742
CC1CC2(CC#C)OC12	C[C@H]1C[C@@]2(CC#C)O[C@@H]12	
InChI=1S/C8H10O/c1-3-4-8-5-6(2)7(8)9-8/h1,6-7H,4-5H2,2H3	InChI=1S/C8H10O/c1-3-4-8-5-6(2)7(8)9-8/h1,6-7H,4-5H2,2H3/t6-,7-,8+/m0/s1
