21
gdb 55276	2.35905	1.34508	1.16112	3.6068	78.58	-0.2344	-0.0194	0.2151	1202.6266	0.179073	-424.231923	-424.221654	-424.22071	-424.267725	36.922	
C	-0.1390306213	 1.4581814728	-0.5440868886	-0.489518
C	 0.0334383172	 0.0560636498	 0.0120577849	 0.370449
O	 1.0959384002	-0.3669979436	 0.4006430454	-0.299092
C	-1.235842779	-0.7903944302	 0.0721501916	-0.007969
O	-0.9730037488	-2.1927577917	 0.1530872215	-0.270031
C	-1.4419582954	-2.2638219788	 1.5128855458	-0.101934
C	-1.9773545691	-0.809460327	 1.4641012058	 0.262789
C	-1.4796520514	 0.1195636136	 2.5669903747	-0.46951
C	-3.4948893716	-0.7309861137	 1.3052781166	-0.443929
H	 0.7558044662	 2.0499405742	-0.3482197981	 0.145255
H	-0.3055823512	 1.4032212942	-1.6267121443	 0.147599
H	-1.0183452529	 1.9505382878	-0.1138745868	 0.134422
H	-1.8856781964	-0.5440203051	-0.7793254233	 0.075716
H	-2.1923753167	-3.0516851977	 1.6498131269	 0.09859
H	-0.6147479345	-2.4212929912	 2.2158745903	 0.108767
H	-0.3916519128	 0.0878095469	 2.6655057251	 0.142731
H	-1.7798472674	 1.1577985177	 2.3855591443	 0.115404
H	-1.912739811	-0.1786655787	 3.5284236201	 0.119207
H	-3.9955525344	-0.9888376682	 2.2454583422	 0.118769
H	-3.8110233891	 0.2809876729	 1.0276395402	 0.114697
H	-3.8494482704	-1.4210305838	 0.5332212256	 0.12759
46.1131	58.1195	109.0044	155.4484	213.5769	233.2376	257.6273	294.3502	334.409	368.5582	379.5806	413.4727	579.1079	592.7458	655.5432	830.4955	866.232	897.6606	936.2032	941.8776	962.3168	989.6526	1005.9321	1035.0564	1053.0925	1079.9101	1159.6448	1187.3281	1196.674	1210.1746	1265.4515	1290.3883	1347.2574	1371.8516	1382.1244	1404.4271	1424.0394	1460.5128	1472.8519	1485.5416	1487.4869	1501.7519	1508.4545	1524.2182	1817.7758	3003.5793	3015.2181	3023.9252	3031.3371	3033.6116	3062.5803	3087.1506	3091.6154	3093.2887	3102.8865	3118.8873	3152.4522
CC(=O)C1OCC1(C)C	CC(=O)[C@H]1OCC1(C)C	
InChI=1S/C7H12O2/c1-5(8)6-7(2,3)4-9-6/h6H,4H2,1-3H3	InChI=1S/C7H12O2/c1-5(8)6-7(2,3)4-9-6/h6H,4H2,1-3H3/t6-/m1/s1
