18
gdb 12910	3.13757	1.65885	1.33899	3.5316	73.59	-0.2343	-0.0173	0.217	981.1777	0.15326	-347.790019	-347.782189	-347.781245	-347.822064	29.553	
C	-0.0181043988	 1.5462986098	 0.0335428768	-0.492571
C	-0.0318122541	 0.0447805318	 0.0603536307	 0.328523
C	-1.3094707008	-0.8159113036	 0.0292202985	-0.290638
C	-0.6376079515	-1.8194870828	 1.0223233269	-0.232802
C	 0.6204452537	-0.9426201942	 1.0132148899	-0.11541
C	 1.1828455174	-0.7619511196	-0.3935187638	-0.142047
C	 1.1739651716	-1.7995369787	-1.4486615148	 0.145266
O	 2.067293335	-1.9456768327	-2.2509266551	-0.273391
H	 0.9730191389	 1.9406307899	 0.2786345331	 0.124747
H	-0.291735966	 1.9284060722	-0.9569839647	 0.128513
H	-0.7326748105	 1.9563745896	 0.7566923873	 0.120223
H	-2.154049702	-0.2951959624	 0.487378042	 0.108377
H	-1.632292423	-1.1967618397	-0.9434538318	 0.10494
H	-1.1304890643	-1.8183684492	 1.9966645579	 0.110877
H	-0.525191396	-2.8574936228	 0.6983552802	 0.107425
H	 1.267020662	-0.7526722135	 1.8626057519	 0.094906
H	 2.0948052721	-0.1714006339	-0.4162810113	 0.10257
H	 0.2820408963	-2.4607875701	-1.4776163037	 0.070495
92.3657	186.096	205.2876	228.1706	257.6797	313.0764	401.0104	451.2682	502.6089	618.3558	699.8184	790.5869	830.3932	887.7339	923.7718	948.1127	973.0465	994.2122	1021.8734	1048.8797	1075.292	1110.2049	1145.9652	1156.7384	1215.9016	1233.0318	1238.3828	1245.1549	1297.7411	1316.5199	1407.5884	1423.8412	1471.578	1483.5473	1487.7932	1496.9164	1510.4129	1803.4262	2901.4795	3023.2361	3057.5976	3065.1278	3082.3914	3099.1339	3101.6084	3117.8603	3154.8634	3175.7908
CC12CCC1C2C=O	C[C@]12CC[C@H]1[C@H]2C=O	
InChI=1S/C7H10O/c1-7-3-2-5(7)6(7)4-8/h4-6H,2-3H2,1H3	InChI=1S/C7H10O/c1-7-3-2-5(7)6(7)4-8/h4-6H,2-3H2,1H3/t5-,6+,7-/m0/s1
