18
gdb 9629	3.54295	1.24473	1.10571	4.2804	70.14	-0.2459	-0.0199	0.226	1130.4782	0.151006	-384.938551	-384.92957	-384.928626	-384.972103	32.677	
C	 0.0131085583	 1.5920547581	-0.2625090255	-0.399952
C	 0.0089435489	 0.1227813587	 0.1784481054	-0.230994
C	-1.3717258372	-0.5041852497	 0.1056973732	 0.405067
O	-2.3275865355	 0.1143568775	 0.9276557215	-0.465808
C	-1.8702173896	-1.1369561327	-1.1529979845	-0.359132
C	-1.5689747985	-2.0139981363	 0.0689829011	-0.143972
C	-0.4363263198	-2.9645244223	 0.0163025218	 0.159395
O	-0.4037152528	-4.0170015703	 0.6055878542	-0.267802
H	 1.0226342128	 2.0093209435	-0.2143132445	 0.123964
H	-0.3451245879	 1.7009431848	-1.2922128467	 0.118421
H	-0.6220766031	 2.2026626573	 0.3873329864	 0.118613
H	 0.7046178301	-0.4462522398	-0.446697098	 0.100826
H	 0.3717415889	 0.0455678575	 1.2099556332	 0.117491
H	-2.5889525358	 0.9418946088	 0.5092903412	 0.288365
H	-2.9161923943	-1.0205496471	-1.4114130612	 0.127628
H	-1.1901208764	-1.2181346685	-1.9957786968	 0.121832
H	-2.4210357511	-2.3643986115	 0.6399595218	 0.12146
H	 0.4100085229	-2.653490578	-0.6396497526	 0.064597
80.5963	103.0826	150.8323	217.4029	239.2852	267.2103	285.7861	386.2809	400.3994	417.1899	453.9812	576.2996	696.3937	790.7871	851.4678	881.2586	905.5666	959.1435	1006.9396	1036.5721	1045.43	1070.508	1083.1155	1107.419	1172.2499	1219.415	1290.656	1303.3605	1316.1286	1362.3887	1390.4359	1408.1211	1446.6761	1476.5401	1479.1009	1501.7442	1512.337	1815.3762	2855.7407	3034.5238	3041.1897	3078.948	3105.5529	3112.4961	3128.1421	3190.8639	3225.007	3803.9921
CCC1(O)CC1C=O	CC[C@@]1(O)C[C@H]1C=O	
InChI=1S/C6H10O2/c1-2-6(8)3-5(6)4-7/h4-5,8H,2-3H2,1H3	InChI=1S/C6H10O2/c1-2-6(8)3-5(6)4-7/h4-5,8H,2-3H2,1H3/t5-,6+/m0/s1
