18
gdb 56229	5.12438	0.62881	0.56612	4.9082	69.72	-0.2508	-0.0163	0.2344	1889.663	0.144537	-476.290721	-476.280105	-476.279161	-476.329015	35.801	
C	-0.1698908829	 1.4913367917	 0.0165383552	-0.47368
C	 0.0382184687	-0.0116197134	-0.0191809969	 0.379641
O	 1.1410004749	-0.5070247448	-0.0682643423	-0.286364
C	-1.2207142412	-0.8671968753	 0.0103904517	-0.32243
C	-0.9171986292	-2.3560646989	-0.0027857572	-0.052505
O	-2.1836423393	-3.0335608065	 0.0150731433	-0.266956
C	-2.1074003713	-4.3881919552	 0.0518693193	 0.4911
N	-3.3659592866	-4.9209570206	 0.1170292679	-0.563846
O	-1.0785501846	-5.0203595813	 0.0587181439	-0.390774
H	 0.7942669247	 1.9987686196	-0.0279736437	 0.145951
H	-0.7962559277	 1.8121686083	-0.8233317369	 0.138869
H	-0.696280861	 1.7807398439	 0.9331356001	 0.140456
H	-1.809936371	-0.6034964556	 0.8983530108	 0.12977
H	-1.8509063393	-0.5970212834	-0.8473175833	 0.128703
H	-0.3529026044	-2.6425744719	-0.8935948143	 0.134575
H	-0.3233863813	-2.6535666566	 0.8645848409	 0.136999
H	-4.149958305	-4.3397801673	-0.1262613515	 0.261983
H	-3.4361373035	-5.9065983329	-0.0687501971	 0.268507
19.2475	48.0112	66.3953	97.9161	115.5516	167.3713	232.697	270.2793	353.1474	419.7165	474.3756	480.0151	518.6215	596.6641	676.5413	753.7476	785.2576	827.6424	929.0896	934.4058	956.2057	1082.3392	1110.021	1119.2627	1122.6714	1181.4907	1221.8513	1293.2522	1325.4707	1353.8918	1384.7507	1428.4021	1456.249	1466.9601	1476.6751	1512.0042	1612.1813	1809.7535	1838.5662	3026.3605	3038.0176	3057.1213	3074.9206	3097.2856	3121.941	3153.4981	3613.701	3742.6937
CC(=O)CCOC(N)=O	CC(=O)CCOC(=O)N	
InChI=1S/C5H9NO3/c1-4(7)2-3-9-5(6)8/h2-3H2,1H3,(H2,6,8)	InChI=1S/C5H9NO3/c1-4(7)2-3-9-5(6)8/h2-3H2,1H3,(H2,6,8)
