17
gdb 62819	2.32035	1.55149	1.36061	4.1947	73.92	-0.2581	0.0082	0.2663	1031.3737	0.13596	-417.949159	-417.940901	-417.939957	-417.981653	31.929	
C	-0.1503917088	 1.588948735	-0.0689651879	-0.490047
C	 0.017008268	 0.0782089186	-0.0392573709	 0.399362
O	-1.2087464309	-0.5492163757	-0.3293784319	-0.467938
C	 1.2066686917	-0.6669649866	-0.7177244176	-0.089458
C	 2.1659071549	-0.1312488531	 0.3741948762	-0.253968
C	 0.8855891043	-0.6374141874	 1.0876755837	 0.183225
N	 0.9920361385	-1.8684025535	 0.2001484006	-0.354568
C	 0.5935944977	-0.7009954904	 2.4974162338	 0.141515
N	 0.3117920338	-0.7100742556	 3.6192318288	-0.347632
H	 0.7739671958	 2.1369258807	 0.1131920326	 0.134779
H	-0.5474700592	 1.8912766792	-1.0425141447	 0.140576
H	-0.8703442838	 1.8992187118	 0.6983813527	 0.129335
H	-1.8931247887	-0.1627511658	 0.2276408043	 0.293379
H	 1.397002764	-0.7910261456	-1.7830885039	 0.099021
H	 3.0344486765	-0.7639428849	 0.5467708254	 0.133694
H	 2.3972186359	 0.9305937697	 0.4091900449	 0.112472
H	 0.0455056001	-2.2232943165	 0.0430200338	 0.236254
117.6784	132.7378	195.3039	251.2549	307.5928	346.1749	374.0853	425.1328	514.0268	525.0472	560.7429	597.8208	617.7512	725.9971	759.3122	816.8812	917.259	936.6768	972.5372	976.035	1033.3851	1088.1248	1094.9265	1121.9138	1170.5841	1200.7675	1215.4269	1223.0844	1264.4426	1298.1928	1319.5723	1371.158	1414.4653	1486.4789	1493.1485	1508.2103	2346.9259	3035.0932	3100.6347	3111.882	3132.3322	3147.3917	3191.1356	3430.8399	3809.3677
CC1(O)C2CC1(N2)C#N	C[C@@]1(O)[C@H]2C[C@@]1(N2)C#N	
InChI=1S/C6H8N2O/c1-5(9)4-2-6(5,3-7)8-4/h4,8-9H,2H2,1H3	InChI=1S/C6H8N2O/c1-5(9)4-2-6(5,3-7)8-4/h4,8-9H,2H2,1H3/t4-,5-,6-/m1/s1
