17
gdb 79255	2.45915	2.19097	1.62503	1.3309	65.08	-0.2361	0.0791	0.3152	876.9241	0.136683	-458.953805	-458.946729	-458.945785	-458.984839	29.028	
C	 0.0507171664	 1.4731039507	-0.0180026866	-0.499157
C	-0.0193987367	-0.0226342383	-0.0048754771	 0.397148
O	 0.6574169722	-0.6345398678	-1.0963895629	-0.275656
C	 0.523383955	-1.989301398	-0.7000849512	 0.03911
C	 0.4910362409	-1.966469775	 0.8043008274	 0.020777
O	 0.5958584037	-0.5976885861	 1.1632804464	-0.296537
C	-0.8046299036	-2.1509952004	 0.0198679007	-0.226643
C	-1.4004384755	-0.7466431164	 0.0032436228	 0.141723
O	-2.1987823594	-0.4099988921	 1.109990287	-0.448041
H	 1.078239556	 1.806449637	 0.1417410045	 0.140725
H	-0.3011365942	 1.8477234612	-0.9818642848	 0.138055
H	-0.5894341237	 1.8751736476	 0.77016885	 0.14
H	 1.0130351998	-2.7101636586	-1.337778863	 0.118289
H	 0.9537714007	-2.6647264866	 1.4854650272	 0.116765
H	-1.3939362814	-3.0565019359	 0.0193298805	 0.103686
H	-1.9752676258	-0.5290495918	-0.8990216928	 0.101462
H	-1.6327333742	-0.4989806495	 1.8877122521	 0.288295
176.5645	204.8043	236.681	318.5885	362.0057	442.7541	526.2362	584.9913	638.5218	657.8834	730.3122	771.2102	790.5779	807.4149	818.5336	864.2753	889.3387	974.3309	1005.8038	1010.3482	1023.5432	1043.7774	1071.4198	1084.7984	1116.2272	1127.0439	1170.6846	1207.6037	1266.5466	1289.489	1301.2971	1343.2014	1375.7125	1430.5298	1437.7288	1483.8967	1485.7172	3062.2694	3105.1395	3141.9327	3144.7939	3224.124	3230.8623	3241.4753	3775.7076
CC12OC3C(O1)C3C2O	C[C@@]12O[C@H]3[C@@H](O1)[C@H]3[C@H]2O	
InChI=1S/C6H8O3/c1-6-5(7)2-3(8-6)4(2)9-6/h2-5,7H,1H3	InChI=1S/C6H8O3/c1-6-5(7)2-3(8-6)4(2)9-6/h2-5,7H,1H3/t2-,3+,4-,5-,6+/m1/s1
