18
gdb 78629	5.54834	0.97328	0.94324	3.7546	77.83	-0.2335	-0.0257	0.2077	1274.33	0.146794	-401.85655	-401.848678	-401.847733	-401.889178	29.899	
C	-0.2256421541	 1.5993397842	-0.000148045	-0.420882
C	-0.0569412005	 0.0954752553	-0.0643917411	 0.06053
C	 0.8816069907	-0.566254354	-1.0779395062	-0.082285
C	 2.1035518395	-0.2063888893	-0.1821816964	-0.031782
C	 2.6337254156	-1.6556233402	-0.1337348366	-0.120262
C	 3.4042411437	-2.0775884111	 1.0853521256	 0.141878
O	 4.4131665986	-2.7389531032	 1.0419016539	-0.259237
C	 1.0946136397	-1.735246557	-0.0757904257	-0.021402
N	 0.9971092013	-0.508485006	 0.8706787342	-0.174255
H	 0.7217688789	 2.127279964	-0.1438879012	 0.119302
H	-0.9211428145	 1.9395213361	-0.7746852813	 0.122687
H	-0.6337300401	 1.8940333105	 0.9719305465	 0.133008
H	-1.0227917751	-0.4088610523	 0.0678561513	 0.076136
H	 0.8429009923	-0.6177594743	-2.1714311815	 0.071961
H	 2.6784283598	 0.7189064613	-0.1480502179	 0.097343
H	 3.1055777885	-2.0297075112	-1.0457399124	 0.091047
H	 2.9755560497	-1.7335963145	 2.049624471	 0.101753
H	 0.4568691561	-2.6066313184	 0.0821537129	 0.094459
76.4139	135.7776	201.9267	214.0602	275.435	323.6216	421.9691	496.7349	546.2451	725.613	747.371	827.1101	838.5535	849.6191	868.2541	872.0559	949.47	1024.3663	1032.0892	1043.5003	1062.1025	1089.8625	1100.2231	1121.1778	1134.2695	1145.3067	1179.0344	1186.2069	1204.2744	1248.1064	1262.2897	1295.7532	1326.1444	1400.2263	1415.9709	1427.0686	1492.3826	1493.3034	1818.4908	2922.5211	3025.6995	3037.4274	3047.5488	3089.841	3103.8248	3104.8145	3111.2864	3119.7385
CC1C2C3C(C=O)C2N13	C[C@H]1[C@H]2[C@@H]3[C@@H](C=O)[C@H]2N13	
InChI=1S/C7H9NO/c1-3-5-6-4(2-9)7(5)8(3)6/h2-7H,1H3	InChI=1S/C7H9NO/c1-3-5-6-4(2-9)7(5)8(3)6/h2-7H,1H3/t3-,4-,5+,6+,7-/m0/s1
