20
gdb 103102	1.84328	1.47531	1.11821	3.1458	80.11	-0.2615	0.0317	0.2932	1221.0471	0.16859	-403.160767	-403.150544	-403.149599	-403.195727	37.368	
C	-0.2519257949	 1.5502428791	-0.0822405656	-0.405506
C	 0.120012688	 0.0714858593	 0.0855856253	-0.245144
C	 0.7435152216	-0.5332187745	-1.1571903354	 0.401948
O	 1.9280292526	 0.077905067	-1.5828906327	-0.464302
C	 0.7197340731	-1.9974516719	-1.4405498529	-0.066414
C	 0.1066103544	-3.0319038612	-0.524676899	-0.425085
C	-0.1470151826	-1.0622724226	-2.302556001	-0.282631
C	-1.5728509836	-1.0713074027	-2.1763447153	 0.296254
N	-2.7253091378	-1.0684862794	-2.0582759026	-0.358131
H	 0.6270681877	 2.1693090374	-0.295325381	 0.110156
H	-0.9770802423	 1.6872894991	-0.8906373764	 0.138274
H	-0.6991784921	 1.939994876	 0.8359855957	 0.127828
H	 0.8358148913	-0.0420612128	 0.9085678091	 0.111805
H	-0.774442262	-0.4939127596	 0.3585289715	 0.123964
H	 1.7381454819	 1.001732618	-1.7818378024	 0.288053
H	 1.6053901167	-2.3316415678	-1.973382397	 0.114104
H	-0.8457613259	-2.703145585	-0.1027424353	 0.142485
H	-0.0840234963	-3.9583752487	-1.0750612525	 0.132482
H	 0.7852491649	-3.2653681728	 0.3020931172	 0.128293
H	 0.2196666155	-0.8611182169	-3.3029911699	 0.131565
70.1756	121.163	127.927	157.9623	197.2395	224.8611	244.4864	284.6819	332.6308	380.1998	409.3686	435.5342	511.3589	570.4069	615.76	698.4071	771.2295	801.8745	851.0502	916.4815	976.0154	1011.443	1022.703	1050.5757	1087.5125	1111.1026	1138.5545	1147.7991	1220.6849	1269.4117	1301.4198	1311.9371	1345.7258	1381.2833	1410.5489	1421.4491	1457.5921	1472.9239	1493.5571	1499.9559	1506.9873	1508.7614	2338.6756	3032.383	3039.7744	3043.5702	3088.9705	3105.1535	3108.8025	3118.1072	3124.6983	3157.3636	3176.7447	3797.6756
CCC1(O)C(C)C1C#N	CC[C@@]1(O)[C@@H](C)[C@H]1C#N	
InChI=1S/C7H11NO/c1-3-7(9)5(2)6(7)4-8/h5-6,9H,3H2,1-2H3	InChI=1S/C7H11NO/c1-3-7(9)5(2)6(7)4-8/h5-6,9H,3H2,1-2H3/t5-,6+,7+/m0/s1
