18
gdb 56857	3.0273	1.16236	1.00482	4.0027	75.92	-0.2709	0.0133	0.2842	1217.571	0.147987	-401.920121	-401.911586	-401.910642	-401.954069	31.798	
O	-0.5004312304	 1.1098677557	 0.0806315163	-0.408263
C	 0.0800947444	-0.1623313799	-0.1529642528	-0.041787
C	 1.0157428411	-0.1135963584	-1.2990769845	 0.262243
N	 1.7677673974	-0.0532313861	-2.1745645133	-0.321633
C	 0.785387504	-0.7320865404	 1.0673969898	-0.031841
C	 0.0672860278	-1.1965349582	 2.3035234538	-0.080354
C	-1.2475347222	-1.9097366472	 1.9636860666	-0.237713
C	-0.4489378854	-2.9315711408	 1.0892945732	-0.23633
C	 0.8511324676	-2.1914766047	 1.4326393817	-0.063212
H	 0.1919836067	 1.7031631409	 0.3939074915	 0.292019
H	-0.7567311005	-0.8031494376	-0.4428978778	 0.137115
H	 1.7145465102	-0.2096436682	 1.2892814142	 0.099802
H	 0.3234114391	-0.7891024781	 3.274182857	 0.092474
H	-1.7014463453	-2.3858517073	 2.8345138533	 0.110152
H	-2.0118758226	-1.3038163622	 1.4676077639	 0.112892
H	-0.4726006022	-3.9353386287	 1.5174290113	 0.11262
H	-0.7095210584	-3.010732748	 0.028846026	 0.105969
H	 1.8053153286	-2.6673057707	 1.6237200396	 0.095847
35.1249	123.0976	163.5381	209.9343	252.0927	302.8589	320.8124	461.5125	504.9012	532.4944	604.6246	748.7472	781.4996	788.0442	805.4926	904.1318	942.192	954.5594	963.619	1004.9463	1023.4487	1025.0961	1068.5693	1083.6323	1121.8639	1138.0678	1192.9343	1221.0693	1243.2578	1263.4894	1270.4724	1304.0142	1307.9148	1354.4166	1418.6937	1447.0257	1488.1668	1508.5398	2352.9046	3049.2496	3058.9568	3089.811	3103.7306	3121.5599	3126.9218	3178.5091	3190.0618	3802.0989
OC(C#N)C1C2CCC12	O[C@@H](C#N)[C@H]1[C@H]2CC[C@@H]12	
InChI=1S/C7H9NO/c8-3-6(9)7-4-1-2-5(4)7/h4-7,9H,1-2H2	InChI=1S/C7H9NO/c8-3-6(9)7-4-1-2-5(4)7/h4-7,9H,1-2H2/t4-,5+,6-,7-/m0/s1
