20
gdb 94783	2.75501	1.44913	1.07697	3.9705	79.67	-0.2316	-0.0214	0.2102	1172.6128	0.171569	-403.160248	-403.151631	-403.150687	-403.193602	32.942	
C	 0.0993886429	 1.6110448528	 0.0272234828	-0.404242
C	 0.1211632454	 0.0861407854	-0.0192234509	-0.084486
C	 0.8227198772	-0.5712680979	-1.223529424	-0.229547
C	 1.1604627093	-2.0005617431	-0.7394211668	-0.318884
C	 1.522672806	-1.805367529	 0.7247374661	 0.216442
C	 1.8629686762	-2.8871760049	 1.6814169248	-0.283774
N	 2.9096479283	-1.9618445854	 1.2389528509	-0.332781
C	 0.8179762737	-0.548459339	 1.1926698391	 0.384933
O	 0.806389271	-0.1280240396	 2.3213985604	-0.328132
H	 1.1117123213	 2.0176221935	-0.0684593222	 0.121999
H	-0.5105354572	 2.0252028952	-0.7810650683	 0.111896
H	-0.3067809646	 1.9514040177	 0.9832847159	 0.139387
H	-0.914926537	-0.2882297975	 0.021193884	 0.102367
H	 0.2114311118	-0.5656871117	-2.1293182722	 0.102973
H	 1.7476813792	-0.0257349988	-1.4477089442	 0.10862
H	 0.2757825531	-2.6436402739	-0.828082631	 0.110438
H	 1.96143957	-2.4709945186	-1.3178343654	 0.100384
H	 1.5682090534	-2.7670370905	 2.7201668566	 0.138179
H	 1.8642422633	-3.9079136452	 1.3059980275	 0.11338
H	 3.4700102166	-2.4060057294	 0.5131311668	 0.230848
54.9091	153.949	200.2269	224.7818	236.057	274.9544	345.3109	395.8206	461.8572	509.8435	575.2154	672.6129	719.1742	779.5326	855.0754	863.8559	906.5544	951.4239	961.6979	970.9993	981.5498	1009.9441	1036.8337	1103.8075	1117.2187	1139.9663	1150.7301	1187.6011	1213.5215	1269.0725	1294.4861	1305.7975	1318.831	1327.1667	1353.3315	1395.4058	1409.1402	1485.1222	1492.9293	1495.192	1498.4378	1502.5344	1841.1741	2979.4663	3026.4952	3036.2395	3040.0369	3079.5003	3098.8865	3103.331	3106.6257	3123.3224	3197.0923	3475.3935
CC1CCC2(CN2)C1=O	C[C@H]1CC[C@]2(CN2)C1=O	
InChI=1S/C7H11NO/c1-5-2-3-7(4-8-7)6(5)9/h5,8H,2-4H2,1H3	InChI=1S/C7H11NO/c1-5-2-3-7(4-8-7)6(5)9/h5,8H,2-4H2,1H3/t5-,7-/m0/s1
