18
gdb 128658	2.304	1.48875	0.91666	1.5723	77.74	-0.1806	0.0349	0.2156	1268.4633	0.147961	-435.270993	-435.261318	-435.260374	-435.305914	33.889	
C	-0.0155125929	 1.3568794225	 0.1028040434	-0.232281
O	-0.0133756599	-0.0651473521	 0.0722918822	-0.280222
C	 0.6270704727	-0.6694552758	 1.0955478992	 0.426961
N	 1.2432692902	-0.0234433919	 2.0753669975	-0.376306
N	 1.7658464924	-1.0074401611	 2.8453628558	 0.030404
C	 2.3994983574	-0.6725468796	 4.0960537596	-0.315976
C	 1.4500250596	-2.2488759706	 2.3763399968	-0.084354
C	 0.7168570341	-2.0770487645	 1.2200938768	 0.047295
N	 0.1270187512	-3.0327425409	 0.3694601746	-0.62281
H	 1.0058338546	 1.7520799062	 0.0759633158	 0.129723
H	-0.5670848454	 1.6788120305	-0.7819606952	 0.122668
H	-0.5057898899	 1.7288757167	 1.0089839984	 0.13093
H	 1.6657446828	-0.4761635713	 4.8877335487	 0.134256
H	 3.0404671569	-1.5012540401	 4.4061440523	 0.13207
H	 3.0114925836	 0.221248211	 3.9575474207	 0.147353
H	 1.7755670569	-3.143308353	 2.8837256692	 0.121167
H	 0.772419112	-3.7654729735	 0.0996016621	 0.240104
H	-0.2180407463	-2.5847395125	-0.471086868	 0.249019
82.3175	89.3381	133.707	146.0296	178.2343	182.7002	262.4699	276.1836	368.5643	373.7831	584.0053	597.1187	621.7429	634.9225	714.4293	751.7538	809.587	866.4709	1004.2549	1062.533	1084.8148	1123.7657	1148.2506	1182.1752	1209.9204	1227.1621	1284.2	1358.4711	1424.5956	1454.0033	1459.7888	1477.8504	1478.9219	1484.0972	1504.3777	1522.2317	1575.7459	1647.3686	1657.5611	3022.2972	3027.7139	3091.3191	3097.5793	3137.8735	3138.9182	3256.0933	3521.3855	3608.7698
COC1=NN(C)C=C1N	COc1nn(C)cc1N	
InChI=1S/C5H9N3O/c1-8-3-4(6)5(7-8)9-2/h3H,6H2,1-2H3	InChI=1S/C5H9N3O/c1-8-3-4(6)5(7-8)9-2/h3H,6H2,1-2H3
