16
gdb 30333	3.04065	1.6315	1.15063	2.9362	72.37	-0.1856	0.0306	0.2161	1028.5783	0.126464	-437.89866	-437.891149	-437.890205	-437.93072	28.968	
O	-0.0934616657	 1.4510201217	-0.128885701	-0.430617
C	-0.0020003272	 0.0295990868	 0.0045271898	-0.088998
C	 0.4938146126	-0.4494338526	 1.4203057546	-0.104661
O	-0.6324874659	-0.9305071101	 2.1935765046	-0.290825
C	-1.6458592364	-1.0543232517	 1.2887603705	 0.378936
C	-1.3497057858	-0.5826532702	 0.0422851676	 0.239537
N	-2.4682520248	-0.7417496705	-0.7409440277	-0.375016
C	-3.4508866054	-1.3171441212	 0.0257853863	-0.058652
C	-2.9741400388	-1.5350740455	 1.3108575939	-0.327188
H	 0.7984056872	 1.7934978622	-0.2550004349	 0.27721
H	 0.6673878609	-0.3622508909	-0.7759043509	 0.071944
H	 1.2082252998	-1.2742377429	 1.3170066843	 0.108973
H	 0.9602854947	 0.3743023904	 1.9673948377	 0.113055
H	-2.5762507946	-0.4472216276	-1.6947435402	 0.264591
H	-4.4158426261	-1.5447170053	-0.3987312059	 0.119205
H	-3.5208904746	-1.9782320026	 2.1268745013	 0.102506
87.1912	135.9985	280.7071	288.8081	325.4921	398.4373	421.7193	491.2107	631.1142	640.9289	693.6941	708.8121	740.1748	784.9528	802.4227	871.5182	933.7137	973.1957	1005.4469	1067.6745	1074.4215	1099.5761	1162.3566	1208.3897	1237.4962	1258.8217	1292.6445	1347.7526	1380.0499	1418.3553	1456.3487	1475.7303	1491.5789	1554.0983	1633.9301	2978.2676	3037.6783	3103.1676	3255.5167	3273.326	3693.1707	3795.4424
OC1COC2=C1NC=C2	O[C@H]1COc2c1[nH]cc2	
InChI=1S/C6H7NO2/c8-4-3-9-5-1-2-7-6(4)5/h1-2,4,7-8H,3H2	InChI=1S/C6H7NO2/c8-4-3-9-5-1-2-7-6(4)5/h1-2,4,7-8H,3H2/t4-/m0/s1
