18
gdb 35792	3.62477	1.15777	0.97591	4.198	75.34	-0.2772	0.0347	0.3119	1196.5883	0.150037	-401.966105	-401.958423	-401.957479	-401.998434	29.639	
N	 0.1150464677	-1.1899907217	 0.1003962741	-0.32236
C	 0.0485171373	-0.0364611238	 0.0684316876	 0.26375
C	-0.0285115787	 1.4248093047	 0.0370035972	-0.148396
C	-0.7802238078	 1.9795467861	 1.2676862292	-0.207715
C	-1.019747231	 3.4852890466	 1.1003069153	-0.259675
C	 0.2520178919	 4.2328905691	 0.7691362774	 0.069138
O	 1.3944595097	 3.9121254311	 1.5651855296	-0.25003
C	 1.4088449101	 3.533083492	 0.1823517247	 0.024205
C	 1.3871684462	 2.0411253352	-0.0992804925	-0.228947
H	-0.6085017059	 1.6932236275	-0.8565665343	 0.123313
H	-1.7334181505	 1.4580032359	 1.387036905	 0.119928
H	-0.1873444435	 1.7918445941	 2.1675523544	 0.135779
H	-1.7464251779	 3.6658537394	 0.2967597926	 0.108564
H	-1.4567764983	 3.8992707366	 2.0162336709	 0.118442
H	 0.1347467417	 5.2978571706	 0.5639784206	 0.093409
H	 2.1111178645	 4.1109780016	-0.4181968627	 0.09892
H	 2.0714468203	 1.5488135832	 0.599844693	 0.140303
H	 1.7702840842	 1.8494344419	-1.1060843521	 0.121372
88.5251	155.1326	192.5298	291.6913	342.0707	357.2827	407.4545	525.8584	537.4108	570.0193	656.6681	774.2087	802.4072	825.9995	892.9362	909.9645	941.1153	1010.7889	1029.5273	1043.7376	1052.7649	1070.0057	1130.408	1162.2756	1191.616	1241.1407	1281.2543	1291.1396	1317.2426	1326.5346	1357.7612	1376.3493	1382.166	1397.1348	1465.8164	1478.0107	1485.6764	1494.6438	2357.1453	3016.8072	3023.3881	3051.8043	3060.8064	3071.1391	3094.1063	3099.4136	3111.5713	3115.2878
N#CC1CCC2OC2C1	N#C[C@H]1CC[C@H]2O[C@H]2C1	
InChI=1S/C7H9NO/c8-4-5-1-2-6-7(3-5)9-6/h5-7H,1-3H2	InChI=1S/C7H9NO/c8-4-5-1-2-6-7(3-5)9-6/h5-7H,1-3H2/t5-,6+,7-/m0/s1
