21
gdb 100015	2.53773	1.21971	1.14549	2.9404	73.69	-0.2487	0.056	0.3047	1204.0669	0.180071	-461.341054	-461.331095	-461.330151	-461.375133	38.773	
C	 0.2511389938	 1.4516301175	 0.395371175	-0.429072
C	-0.0197057665	 0.0114651692	-0.0281908862	 0.278393
O	 0.3254077895	-0.8060254039	 1.1031945001	-0.486455
C	-1.5260979977	-0.2082272684	-0.3030246794	-0.079556
O	-2.2851565718	-0.035448577	 0.8757902311	-0.43113
C	 0.7949315556	-0.4605344487	-1.2388295835	 0.371305
O	 0.7960178286	-1.8761930889	-1.3251915667	-0.477588
C	 0.7308719869	 0.2549207806	-2.5577698178	-0.295079
C	 2.0173664692	 0.2442635938	-1.7558712992	-0.349471
H	 1.2631453473	 1.550165066	 0.7945360007	 0.122503
H	 0.1259531361	 2.1452855897	-0.4408896109	 0.114894
H	-0.4622599289	 1.7313733353	 1.1732960974	 0.138024
H	 0.3131073571	-1.7129318087	 0.7677265821	 0.274792
H	-1.8920151083	 0.5159641391	-1.0380079031	 0.101672
H	-1.6639557719	-1.2153750644	-0.7278724312	 0.091055
H	-1.7737340168	-0.4785605837	 1.5666799936	 0.281456
H	 1.650530192	-2.1853726493	-1.0073977607	 0.290332
H	 0.6830919946	-0.3718326919	-3.4402682809	 0.125477
H	 0.1754357799	 1.1836486896	-2.6252118339	 0.121244
H	 2.3407544319	 1.1612719239	-1.2790318694	 0.12548
H	 2.8250246494	-0.3800330299	-2.1250417371	 0.111725
74.7548	141.9917	178.2625	230.6756	248.4889	271.7767	302.3169	332.5461	351.3883	364.1936	405.2106	484.0791	495.5161	511.0598	536.9332	629.4258	729.5371	773.2052	838.9844	898.1787	926.0839	936.414	941.4776	965.9149	985.0206	1055.0409	1081.7762	1082.3152	1115.001	1153.7992	1184.4881	1192.828	1231.1737	1243.7184	1323.404	1341.6899	1355.3982	1393.8603	1427.1986	1438.4907	1453.7852	1486.3511	1494.9138	1505.304	1511.634	2979.8586	3052.0667	3074.8274	3125.4951	3134.0475	3137.408	3141.579	3221.3775	3235.2047	3747.4158	3754.3188	3812.9207
CC(O)(CO)C1(O)CC1	C[C@@](O)(CO)C1(O)CC1	
InChI=1S/C6H12O3/c1-5(8,4-7)6(9)2-3-6/h7-9H,2-4H2,1H3	InChI=1S/C6H12O3/c1-5(8,4-7)6(9)2-3-6/h7-9H,2-4H2,1H3/t5-/m1/s1
