23
gdb 86982	5.36583	0.59823	0.58591	0.9741	93.09	-0.2555	0.0597	0.3152	1976.0436	0.204234	-351.122252	-351.112085	-351.11114	-351.157973	37.95	
C	-0.0347572788	 1.5996825134	 0.0841894087	-0.406777
C	 0.0592243734	 0.0831053038	 0.0270390392	 0.057429
C	 1.1049529162	-0.5779230873	-0.9149844677	-0.263988
C	 1.3701487185	-1.6469922693	 0.181121425	 0.05237
C	 2.7971700883	-2.1260238781	 0.407175578	-0.205537
C	 2.9163401955	-3.086973802	 1.6093509056	-0.355589
C	 4.279898573	-3.5449059341	 1.8449848941	 0.294445
C	 5.4135273205	-3.9064682402	 2.0167226188	-0.43827
C	 0.7175345867	-0.6795991442	 1.2114826566	-0.239836
H	 0.9463912062	 2.046538601	 0.2823555439	 0.109755
H	-0.403540267	 2.0129175811	-0.8615523416	 0.113214
H	-0.7159014519	 1.9276519176	 0.87770544	 0.112933
H	-0.9312670401	-0.3418805292	-0.173326315	 0.069856
H	 0.7715900486	-0.9207803031	-1.8980720385	 0.093038
H	 1.9779986192	 0.0712190399	-1.0513650038	 0.094031
H	 0.7133986577	-2.5112415828	 0.0203271636	 0.066829
H	 3.1698430791	-2.6323072234	-0.4916063194	 0.106703
H	 3.4552540319	-1.2643543254	 0.5736004796	 0.10271
H	 2.5381663122	-2.589094797	 2.5117763258	 0.132731
H	 2.2628050049	-3.9545381303	 1.4471215536	 0.12683
H	 6.4106206666	-4.2329693409	 2.1781826451	 0.191192
H	 1.4772358766	-0.0602676291	 1.703638544	 0.093476
H	 0.0623880328	-1.1002589006	 1.9789223446	 0.092456
49.1961	86.3027	87.9558	134.3985	208.5502	234.5187	294.7527	343.895	368.2423	390.3016	426.7494	506.0958	611.3958	614.0701	632.5104	764.2925	786.3281	811.1341	895.859	906.4089	934.6894	955.7464	963.7847	986.8866	1017.7024	1074.2184	1083.3898	1136.2761	1141.8057	1150.3105	1214.2616	1233.4502	1251.4843	1262.5346	1272.7281	1287.3601	1305.1209	1322.046	1361.5803	1372.5648	1397.6127	1411.0688	1472.0766	1476.5029	1492.1517	1494.8498	1496.0433	1505.554	2237.9923	3014.1475	3020.2143	3021.5028	3029.2132	3031.0978	3032.6944	3041.3305	3042.2615	3073.3216	3087.9139	3088.4398	3093.2395	3100.4218	3507.6292
CC1CC(CCC#C)C1	C[C@H]1C[C@@H](CCC#C)C1	
InChI=1S/C9H14/c1-3-4-5-9-6-8(2)7-9/h1,8-9H,4-7H2,2H3	InChI=1S/C9H14/c1-3-4-5-9-6-8(2)7-9/h1,8-9H,4-7H2,2H3/t8-,9+
