16
gdb 26035	3.19992	1.26018	0.93551	1.6508	74.41	-0.2348	0.0145	0.2493	1196.7425	0.126296	-396.984496	-396.97626	-396.975315	-397.018614	29.748	
C	 0.0050783735	 1.6121106004	 0.5162400952	-0.389779
C	-0.0732303865	 0.1816311292	-0.0571424998	-0.279164
C	 0.8318379831	-0.7255299939	 0.6629070601	 0.276045
N	 1.5212890093	-1.4726525066	 1.2132077893	-0.330591
C	-1.4782480771	-0.3676535999	-0.0431569144	 0.347636
C	-2.7044216947	 0.2316257627	-0.1911487358	-0.179233
N	-3.7125436283	-0.7032921442	-0.1617516841	-0.252996
C	-3.1092523242	-1.8569633824	 0.0053136951	 0.015936
N	-1.7560258319	-1.713502711	 0.0761630624	-0.316149
H	 1.030239326	 1.986191662	 0.470803164	 0.13906
H	-0.6317718916	 2.2765325886	-0.071828949	 0.14022
H	-0.3347983022	 1.6305193997	 1.553719371	 0.149623
H	 0.2961137224	 0.2132758133	-1.0929981612	 0.14882
H	-2.9199493957	 1.2811613278	-0.3200257426	 0.112653
H	-3.5900208231	-2.8203040084	 0.0855290123	 0.137347
H	-1.0768706389	-2.4369694572	 0.2545773376	 0.280571
22.6246	121.2089	166.5527	212.8772	244.5323	318.5108	395.2637	486.4419	556.9723	568.2056	646.3678	683.4824	732.1881	818.8601	849.9644	853.3116	931.9462	999.5455	1030.9426	1083.3244	1109.6475	1132.2814	1153.0935	1246.7326	1273.0005	1309.6802	1324.1492	1381.8404	1412.5705	1438.071	1489.287	1496.5276	1504.3615	1602.2822	2354.253	2996.4693	3058.9976	3137.5537	3144.4407	3251.4403	3256.2146	3641.5598
CC(C#N)C1=CN=CN1	C[C@@H](C#N)c1cnc[nH]1	
InChI=1S/C6H7N3/c1-5(2-7)6-3-8-4-9-6/h3-5H,1H3,(H,8,9)	InChI=1S/C6H7N3/c1-5(2-7)6-3-8-4-9-6/h3-5H,1H3,(H,8,9)/t5-/m0/s1
