21
gdb 120173	4.52724	0.79567	0.76349	3.2188	83.96	-0.2379	0.0134	0.2513	1575.8413	0.182407	-387.060725	-387.051795	-387.050851	-387.095087	33.565	
C	 0.1116414066	 1.5518375254	 0.1914380105	-0.38222
C	 0.0156066842	 0.0391635438	-0.0228635509	-0.158385
C	 0.8652437755	-0.4536496535	-1.2031322684	-0.234489
C	 0.8387505498	-1.9723192408	-1.3444309208	 0.041831
C	-0.4236522843	-2.7165319444	-1.9380505674	-0.184511
C	 0.0579565858	-2.2529580887	-3.3562334005	-0.243881
C	 1.3905430356	-2.6750709926	-2.6447752976	-0.201692
C	 0.562719767	-3.8742756811	-2.1564494084	 0.452234
O	 0.6411825976	-5.0557724188	-2.0225641984	-0.327393
H	 1.1441116078	 1.857825176	 0.3937459998	 0.115746
H	-0.2273110631	 2.1011165708	-0.694043291	 0.1148
H	-0.502857531	 1.8740340218	 1.0376190866	 0.114728
H	 0.3297474255	-0.4814522136	 0.8912605599	 0.098926
H	-1.031621982	-0.2442700098	-0.188135245	 0.1003
H	 0.5375266055	 0.0514533632	-2.1173468732	 0.099986
H	 1.9085307087	-0.1469156011	-1.0471083066	 0.101355
H	 1.2086982422	-2.4205386142	-0.4155575539	 0.084982
H	-1.4388917092	-2.7364854059	-1.5475779326	 0.09072
H	-0.2613150487	-2.8538468452	-4.209735042	 0.114479
H	-0.0472197021	-1.1899620816	-3.5654010685	 0.112791
H	 2.4029912484	-2.6439523797	-3.0423348718	 0.089691
65.0363	80.3927	107.4492	172.1948	241.8481	290.3896	345.6246	393.1458	478.0694	539.9866	697.4642	706.6654	743.0412	766.6611	801.2201	837.7586	884.1395	901.6466	922.7997	960.8748	1024.1954	1034.9948	1041.8073	1051.3514	1090.9814	1101.5968	1120.6577	1139.8282	1146.5193	1195.8311	1198.7733	1229.1176	1236.7636	1265.2578	1307.5191	1329.89	1385.4467	1412.6644	1430.8296	1477.9396	1491.383	1499.4056	1508.9592	1529.086	1917.8554	3014.5084	3021.6531	3030.0901	3041.1208	3047.0051	3075.0118	3086.9067	3097.0592	3103.8963	3141.5099	3145.0912	3158.6666
CCCC1C2CC1C2=O	CCC[C@H]1[C@H]2C[C@@H]1C2=O	
InChI=1S/C8H12O/c1-2-3-5-6-4-7(5)8(6)9/h5-7H,2-4H2,1H3	InChI=1S/C8H12O/c1-2-3-5-6-4-7(5)8(6)9/h5-7H,2-4H2,1H3/t5-,6+,7-
