21
gdb 101391	3.64982	0.93343	0.77743	2.3299	79.36	-0.2426	0.0231	0.2657	1464.5729	0.182928	-424.23161	-424.222412	-424.221467	-424.265985	34.799	
O	 0.116965356	 1.4158843414	-0.1685398507	-0.42604
C	 0.1075160085	 0.0179496956	 0.0187606583	-0.062021
C	-1.3265251365	-0.5192041716	 0.0537750107	 0.080888
O	-2.020272964	-0.0304978811	-1.1046165531	-0.44421
C	-1.4172150501	-2.0376780737	 0.1729584315	-0.000782
C	-0.8132798862	-2.6106119595	 1.4886717818	-0.275819
C	-1.7388949196	-3.7538883712	 1.829748789	-0.065758
C	-2.8466018913	-3.7403425916	 1.0919309852	-0.06208
C	-2.8715799242	-2.5875131192	 0.1186230287	-0.267433
H	-0.5871841241	 1.5878590037	-0.8080406889	 0.283928
H	 0.6622646737	-0.5018762297	-0.785913677	 0.068422
H	 0.6262748236	-0.1932479742	 0.9597145359	 0.109383
H	-1.8513054653	-0.0521781052	 0.8968855011	 0.095696
H	-1.6887067795	-0.5181056555	-1.8684872525	 0.280818
H	-0.8589382603	-2.4758246316	-0.6670098387	 0.066395
H	 0.2298577434	-2.9231196841	 1.3670283379	 0.107188
H	-0.8143035114	-1.8601268676	 2.2939725337	 0.10948
H	-1.516697692	-4.4646308548	 2.6181098584	 0.093307
H	-3.6689557427	-4.4412208996	 1.1853962837	 0.092754
H	-3.5992294168	-1.8243856474	 0.4281805658	 0.115436
H	-3.1655927214	-2.8876692329	-0.8930778808	 0.100445
68.5832	86.0425	131.3146	152.8737	273.6127	321.422	344.7483	388.5078	392.2806	433.1745	523.5186	551.3854	663.5779	726.7435	784.5874	845.4169	884.9388	923.7839	948.9981	977.2609	979.1782	1005.343	1046.0225	1062.165	1097.0508	1116.141	1119.9346	1133.9311	1158.2314	1169.8408	1214.4225	1268.4701	1292.4236	1300.593	1321.3801	1328.102	1369.3474	1381.3876	1386.1398	1418.2945	1445.8587	1485.3786	1493.5824	1506.7723	1692.1631	2921.6955	2991.495	2996.9109	3014.8248	3041.0078	3053.5028	3059.8774	3072.9246	3181.2626	3206.7995	3756.9951	3783.6887
OCC(O)C1CC=CC1	OC[C@@H](O)[C@H]1CC=CC1	
InChI=1S/C7H12O2/c8-5-7(9)6-3-1-2-4-6/h1-2,6-9H,3-5H2	InChI=1S/C7H12O2/c8-5-7(9)6-3-1-2-4-6/h1-2,6-9H,3-5H2/t7-/m1/s1
