16
gdb 5256	7.37598	1.09931	0.97115	1.7048	67.29	-0.1976	0.0143	0.2119	1176.5301	0.131864	-379.948023	-379.940386	-379.939442	-379.980505	27.601	
C	-0.0581296052	 1.5414936213	-0.00372322	-0.399852
C	-0.0452004165	 0.0209515113	 0.1068122947	-0.114955
N	-1.3676806534	-0.5282284521	-0.1439340588	-0.386167
C	-1.5435198833	-1.89254814	-0.056688298	 0.314627
C	-0.6407067597	-2.9133337793	-0.0911753345	-0.130837
O	-1.3557871394	-4.0950395248	-0.0261707465	-0.143935
C	-2.6354528652	-3.7053606287	 0.0567328901	 0.083045
N	-2.8243874149	-2.4249833295	 0.0460595335	-0.32587
H	 0.9435745629	 1.9470264316	 0.1619823911	 0.123352
H	-0.4022416221	 1.8564062428	-0.9930133477	 0.132635
H	-0.7239174828	 1.9845285499	 0.7457748091	 0.119238
H	 0.6405112958	-0.39693833	-0.64169598	 0.112724
H	 0.3437832432	-0.2859594279	 1.0931911208	 0.094856
H	-2.1294360365	-0.0183838412	 0.2822948589	 0.240483
H	 0.4271694769	-2.9990582862	-0.1625593817	 0.133734
H	-3.3809727497	-4.4821598472	 0.126438419	 0.146923
72.3372	104.3408	137.3626	251.398	338.7063	343.7606	444.5988	552.9761	631.3637	635.1893	736.0986	765.3257	821.4788	843.9852	925.7144	940.9397	1011.4649	1076.1264	1085.0575	1155.722	1157.9058	1183.1575	1253.7359	1281.6409	1301.4769	1348.0475	1395.1533	1416.959	1484.6785	1496.6637	1502.8662	1528.5048	1568.7591	1664.3062	2952.9263	3029.8076	3038.0315	3104.6218	3123.7505	3272.6283	3314.7108	3587.4024
CCNC1=COC=N1	CCNc1cocn1	
InChI=1S/C5H8N2O/c1-2-6-5-3-8-4-7-5/h3-4,6H,2H2,1H3	InChI=1S/C5H8N2O/c1-2-6-5-3-8-4-7-5/h3-4,6H,2H2,1H3
