21
gdb 41890	2.10707	1.99707	1.71621	1.3206	81.89	-0.2354	0.0255	0.2609	967.4038	0.186816	-387.107289	-387.099856	-387.098912	-387.139291	30.122	
C	 0.0487017699	 1.5879203535	-0.177817848	-0.217439
C	 1.4340186277	 2.1677671112	 0.2083007623	-0.20681
C	 2.3083304279	 1.0846762782	 0.8822918561	-0.076278
C	 1.4387351341	 0.3148526128	 1.8874647853	-0.05556
O	 0.3388679121	-0.3595813022	 1.2847261091	-0.275999
C	-0.0179787093	 0.0604477979	-0.0307864088	 0.102953
C	 0.7833401577	-0.7280708594	-1.0851581442	-0.258145
C	 2.2788059883	-0.5983427267	-0.9981620698	-0.029256
C	 2.9505730004	 0.1667326921	-0.1393073455	-0.079787
H	-0.7222221723	 2.0103505265	 0.4751562973	 0.10466
H	-0.227164061	 1.8626085724	-1.2011503091	 0.098364
H	 1.9550159191	 2.5607921793	-0.6688883153	 0.100341
H	 1.3015175595	 3.0069057772	 0.9003075458	 0.094631
H	 3.1020545176	 1.5764908054	 1.4548049963	 0.066685
H	 2.0308380168	-0.445974526	 2.4093502203	 0.10022
H	 1.0634426211	 1.0221025401	 2.6455991912	 0.082473
H	-1.0664145952	-0.2413380407	-0.1391200055	 0.075377
H	 0.5185615079	-1.789431859	-0.9801419884	 0.111453
H	 0.4371872544	-0.4396702695	-2.08974465	 0.097018
H	 2.840277515	-1.210101975	-1.7022598621	 0.083434
H	 4.0373234583	 0.1596620621	-0.1711479471	 0.081667
51.8614	224.959	247.8254	312.9623	342.7541	432.4769	452.9667	518.316	564.6438	720.955	749.8301	787.3423	794.2032	857.7435	864.0136	889.9407	931.1706	953.1001	961.7617	987.0714	1004.5571	1034.1543	1066.7091	1101.2647	1119.6564	1130.6413	1217.4121	1226.3601	1239.1889	1253.9922	1278.892	1283.3702	1335.8584	1357.0975	1367.4836	1369.4762	1387.7003	1394.8904	1419.6607	1430.6875	1463.0488	1481.5347	1500.9799	1518.1241	1729.9043	2963.2081	2992.3032	3022.1707	3028.8588	3033.9323	3043.8329	3047.5227	3054.059	3070.8133	3094.7379	3132.7633	3160.2193
C1CC2COC1CC=C2	C1C[C@H]2CO[C@@H]1CC=C2	
InChI=1S/C8H12O/c1-2-7-4-5-8(3-1)9-6-7/h1-2,7-8H,3-6H2	InChI=1S/C8H12O/c1-2-7-4-5-8(3-1)9-6-7/h1-2,7-8H,3-6H2/t7-,8+/m0/s1
