22
gdb 119569	2.88766	1.02114	0.87478	1.8089	82.72	-0.23	0.0624	0.2923	1441.857	0.19345	-404.30702	-404.29734	-404.296396	-404.341911	36.127	
C	-0.0454538132	 1.6296479212	 0.0837101892	-0.383216
C	-0.150929922	 0.1036031227	 0.1293389473	-0.157312
C	 0.8443581333	-0.5355846413	 1.1115093667	-0.31401
C	 0.7641043836	-2.0351642712	 1.1090862284	 0.36953
C	-0.1554907613	-2.8144918917	 1.9649935294	-0.280499
N	 1.2909279945	-2.925712885	 2.2367814717	-0.182572
C	 1.7935003456	-3.8883595067	 1.1943295257	-0.199839
C	 1.3637509933	-2.938888809	 0.0404367911	 0.037394
O	 0.4339308712	-3.3775361298	-0.9278401847	-0.434548
H	 0.9547785162	 1.9495475104	-0.2295113448	 0.112789
H	-0.7669099021	 2.0581148654	-0.6189092993	 0.111651
H	-0.2375619789	 2.0696379489	 1.0687672463	 0.113886
H	-1.1691845965	-0.1910323817	 0.4119441156	 0.100796
H	 0.0132003771	-0.3122915444	-0.8723427759	 0.108765
H	 1.8659524471	-0.2222894013	 0.8553515026	 0.093299
H	 0.6557264613	-0.1698502038	 2.1284851969	 0.104219
H	-0.6890059055	-2.2644790027	 2.7346358186	 0.115626
H	-0.6872610994	-3.6737343693	 1.5637047833	 0.11957
H	 2.8730317028	-4.0255449725	 1.2874978361	 0.104788
H	 1.2941029447	-4.8628471719	 1.2161272924	 0.103156
H	 2.23439723	-2.4676875503	-0.4351871859	 0.072455
H	 0.9039033783	-3.8975497961	-1.5877545409	 0.284071
67.2876	86.3658	102.1023	173.8618	244.7336	265.3069	283.0082	318.6087	330.5258	397.8853	490.1268	544.3758	700.6211	741.218	745.7163	790.5905	858.5843	879.4836	891.6108	905.938	964.8357	1004.865	1044.8783	1046.6809	1088.6518	1106.5117	1118.8424	1121.6444	1142.9931	1195.5792	1207.1142	1233.1691	1274.0272	1287.0408	1305.1234	1322.6868	1347.0406	1383.3732	1399.1932	1414.5868	1442.7366	1480.9376	1486.2674	1494.0088	1500.4012	1510.2761	1512.3567	3006.1867	3011.8261	3027.8477	3030.5574	3044.6265	3045.3991	3066.3582	3096.3084	3102.1043	3108.1065	3111.1448	3197.4306	3813.1486
CCCC12CN1CC2O	CCC[C@]12CN1C[C@H]2O	
InChI=1S/C7H13NO/c1-2-3-7-5-8(7)4-6(7)9/h6,9H,2-5H2,1H3	InChI=1S/C7H13NO/c1-2-3-7-5-8(7)4-6(7)9/h6,9H,2-5H2,1H3/t6-,7-,8?/m1/s1
