15
gdb 15512	3.35219	1.78957	1.20495	10.5654	68.35	-0.2003	-0.0069	0.1934	952.1562	0.12026	-399.786072	-399.778746	-399.777801	-399.818042	26.393	
O	-0.3685233734	 0.0234057452	 0.1500018612	-0.305311
C	-0.0801963684	 1.2046053512	 0.0979997039	 0.059695
C	 1.2108907158	 1.7921784066	 0.0246757085	-0.054932
N	 1.2595178475	 3.2786006348	-0.0543390668	-0.290927
H	 1.1253323469	 3.632293476	-1.0084364234	 0.296605
H	 0.527541024	 3.710624105	 0.5128399756	 0.298958
C	 2.6457851735	 3.6754179297	 0.4307047755	-0.20649
C	 3.5145938321	 2.5041749334	 0.0009709985	-0.320374
C	 2.5433555663	 1.2794872414	 0.0258482675	 0.330645
O	 2.9397061548	 0.1303067625	 0.039132414	-0.356742
H	-0.9014162147	 1.9836881856	 0.1222005199	-0.014852
H	 2.8997456941	 4.6524195281	 0.0134571945	 0.13392
H	 2.575547794	 3.7475545612	 1.5173804631	 0.159459
H	 3.9123723103	 2.6381807908	-1.011595506	 0.127544
H	 4.3566377171	 2.3373565986	 0.6734733239	 0.142803
88.2864	159.3279	175.4967	226.221	262.9738	438.6883	467.2432	553.811	632.3777	677.4292	716.9189	848.2567	898.1187	927.8431	999.3837	1000.619	1017.6805	1054.4832	1099.8236	1163.2898	1207.1919	1245.8762	1287.988	1340.1424	1383.5339	1429.5681	1471.3274	1477.2099	1495.8007	1659.9297	1740.653	1802.2981	2659.133	3051.2096	3077.5763	3129.2614	3142.6301	3337.2764	3441.2464
O=C[C-]1[NH2+]CCC1=O	O=C[C]1[NH2]CCC1=O	
InChI=1S/C5H7NO2/c7-3-4-5(8)1-2-6-4/h3H,1-2,6H2	InChI=1S/C5H7NO2/c7-3-4-5(8)1-2-6-4/h3H,1-2,6H2
