20
gdb 96408	2.57254	1.4285	0.97416	1.027	82.14	-0.2216	0.0413	0.263	1222.1928	0.171178	-403.102003	-403.093262	-403.092318	-403.135031	33.823	
C	-0.081938415	 1.4854651429	-0.0158846496	-0.326112
N	-0.0202002104	 0.031230518	-0.0045726579	-0.07986
C	-1.3559504462	-0.5578026358	-0.0645515057	-0.142634
C	-1.2676270919	-2.0781231131	-0.1085024682	-0.087678
O	-0.5665587329	-2.5743327668	 1.0194754775	-0.244819
C	 0.7374693651	-2.0419094915	 1.073641463	-0.091753
C	 0.7167539979	-0.4988505675	 1.1528728527	-0.143874
C	 2.0903700989	-0.0036193144	 1.208614297	 0.311558
C	 3.2369222168	 0.3497933389	 1.2793206256	-0.43156
H	 0.9281830422	 1.9003038523	-0.0152999757	 0.13645
H	-0.5924231387	 1.8169468951	-0.9253876565	 0.116814
H	-0.6278150933	 1.9009053841	 0.8526586051	 0.09211
H	-1.9744793618	-0.2582065276	 0.8048725425	 0.082476
H	-1.857037375	-0.1907718835	-0.9673913019	 0.101835
H	-2.2653637417	-2.5245602665	-0.0801199308	 0.10759
H	-0.7647284823	-2.3926660065	-1.0369971184	 0.095842
H	 1.2161403431	-2.4507370273	 1.9662726829	 0.117937
H	 1.3209674552	-2.335699363	 0.1875871203	 0.103027
H	 0.2063321905	-0.224002014	 2.0988794809	 0.085947
H	 4.2460694796	 0.6751298261	 1.3412493971	 0.196706
101.8663	150.131	177.4246	236.1803	273.9581	328.8024	353.0308	394.4655	414.8942	474.3433	521.8605	542.2541	612.5588	628.5274	664.6505	794.0522	879.0151	900.091	990.3526	1017.8109	1042.3662	1082.0922	1090.8386	1111.6433	1145.8587	1169.7112	1187.2048	1234.0766	1264.282	1299.7825	1315.9859	1334.3504	1359.7247	1383.7723	1404.0048	1422.7573	1457.9447	1482.6294	1485.4524	1495.069	1500.395	1506.2898	2237.0133	2887.023	2910.1775	2930.532	2982.4596	2994.73	3060.2302	3071.9452	3093.9238	3108.7177	3127.0767	3502.2713
CN1CCOCC1C#C	CN1CCOC[C@H]1C#C	
InChI=1S/C7H11NO/c1-3-7-6-9-5-4-8(7)2/h1,7H,4-6H2,2H3	InChI=1S/C7H11NO/c1-3-7-6-9-5-4-8(7)2/h1,7H,4-6H2,2H3/t7-/m1/s1
