13
gdb 132920	3.183	1.37674	0.96214	5.1149	65.78	-0.2154	-0.0539	0.1615	1097.9465	0.088947	-497.897672	-497.890148	-497.889204	-497.929711	28.369	
N	 0.0155571977	 1.4423828233	 0.1563528235	-0.595548
C	-0.0256130731	 0.0475783163	 0.0384288914	 0.065814
C	-1.1501002743	-0.706634645	 0.0131508299	 0.02279
O	-1.1472898629	-2.0558069868	-0.0112752138	-0.222572
C	 0.0292379358	-2.8182176937	-0.0253125731	 0.447036
O	-0.074270119	-4.0153580759	-0.0472538713	-0.351207
C	 1.2499794498	-2.0407566572	-0.01703959	-0.424329
C	 1.2039920661	-0.6930353553	 0.0156141983	 0.334672
F	 2.321913749	 0.0315366284	 0.0116711399	-0.067555
H	 0.8328875202	 1.8478162948	-0.2792171278	 0.259386
H	-0.8252216242	 1.90388134	-0.1626989677	 0.254086
H	-2.153817157	-0.2995756205	 0.0210479402	 0.135891
H	 2.1887782519	-2.5763153285	-0.0401886895	 0.141536
110.9721	199.9656	206.0904	295.5991	363.8407	378.532	397.9432	431.5698	538.6618	593.4408	677.8096	715.7683	724.599	748.1848	793.603	843.3673	846.8538	865.9774	1108.4643	1129.0449	1219.1922	1250.1015	1276.3686	1357.8314	1503.8911	1614.0417	1644.2914	1716.4068	1841.6719	3210.9048	3237.401	3552.2051	3648.7642
NC1=COC(=O)C=C1F	Nc1coc(=O)cc1F	
InChI=1S/C5H4FNO2/c6-3-1-5(8)9-2-4(3)7/h1-2H,7H2	InChI=1S/C5H4FNO2/c6-3-1-5(8)9-2-4(3)7/h1-2H,7H2
