14
gdb 24179	4.14056	1.74254	1.22641	1.7745	77.8	-0.2231	-0.0426	0.1805	925.8068	0.106106	-395.807801	-395.801999	-395.801055	-395.837855	23.466	
C	-0.0080868492	 1.3179281993	 0.0100160866	-0.080537
C	 1.27802991	 1.8035600161	-0.0000975086	-0.141236
N	 2.0832298835	 0.6842537719	-0.0145130898	-0.07193
C	 3.4410442403	 0.5159465765	-0.0290380055	 0.088824
N	 4.0073680492	-0.64870086	-0.0413333858	-0.280378
C	 3.2001506082	-1.7559207288	-0.0395826277	-0.010013
C	 1.8334532324	-1.6981685634	-0.0256035646	-0.220179
C	 1.2182790948	-0.4291567148	-0.0122206781	 0.419529
N	-0.0479377373	-0.0486327861	 0.0025934879	-0.353635
H	-0.9176975756	 1.9008806647	 0.0224397308	 0.121669
H	 1.685324759	 2.8002614727	 0.001504736	 0.14012
H	 4.0388412728	 1.4226426398	-0.0298433028	 0.138701
H	 3.7189794523	-2.7082531769	-0.0501973925	 0.120435
H	 1.2144624995	-2.585989611	-0.0244855258	 0.128631
215.7701	232.2334	418.307	427.8787	587.276	606.2957	636.9006	642.3028	709.0633	789.8984	794.4541	847.4661	901.6084	903.773	925.6308	926.4981	980.4015	1040.3694	1102.6901	1175.8146	1206.4195	1245.7887	1291.0432	1335.4859	1380.684	1403.0728	1455.4012	1504.982	1540.1163	1560.8733	1664.7355	3179.1408	3190.2893	3226.0227	3242.7626	3283.9024
C1=CN2C=NC=CC2=N1	c1cn2cnccc2n1	
InChI=1S/C6H5N3/c1-2-7-5-9-4-3-8-6(1)9/h1-5H	InChI=1S/C6H5N3/c1-2-7-5-9-4-3-8-6(1)9/h1-5H
