17
gdb 37339	3.29133	1.87939	1.80204	4.1199	68.6	-0.2294	0.0701	0.2995	827.5382	0.140109	-417.929208	-417.923416	-417.922472	-417.958975	25.537	
N	-0.0343242815	 1.4913680107	 0.0225063742	-0.327181
C	 1.2822128042	 0.8102943953	-0.0044265373	-0.047551
C	 0.0315748337	 0.0104321371	 0.0039800196	-0.047552
C	 0.0325638433	-0.6676021923	-1.4051273586	-0.101391
N	 1.481359701	-0.8961566025	-1.6585366016	-0.275341
C	 1.8838578492	 0.51642644	-1.4175725126	-0.101391
C	 0.983464928	 1.2306211841	-2.4366503812	 0.087527
O	 0.6122773699	 0.442622108	-3.5689975525	-0.248568
C	-0.2479038255	 0.4430753243	-2.4283744586	 0.087528
H	-0.2258138092	 1.8007912857	 0.9746325163	 0.229694
H	 1.9378515079	 0.8886745438	 0.8563155002	 0.091382
H	-0.3063141709	-0.5466119539	 0.8713984827	 0.091382
H	-0.5649845862	-1.5760714441	-1.4776117237	 0.071303
H	 1.8545989257	-1.4718257971	-0.9058510897	 0.209772
H	 2.9584344724	 0.6773949408	-1.5012868155	 0.071303
H	 1.0121559244	 2.3059948942	-2.5633006214	 0.104542
H	-1.2373395565	 0.867285276	-2.5481849106	 0.104542
289.0324	295.9129	413.3962	452.0801	564.2178	585.9576	648.72	761.4769	785.3036	801.0254	849.9005	861.5272	866.7025	885.0723	898.4788	923.5288	931.7652	933.2684	987.9025	1012.224	1015.2947	1054.4176	1066.7673	1092.0923	1138.5292	1142.0455	1192.1584	1198.9884	1246.1539	1249.8287	1283.4466	1298.5923	1329.4606	1330.2836	1389.0732	1399.4651	1423.9886	3118.9027	3120.5694	3162.0726	3172.3111	3185.3249	3197.0683	3468.7594	3477.5048
N1C2C1C1NC2C2OC12	N1[C@H]2[C@@H]1[C@@H]1N[C@H]2[C@H]2O[C@@H]12	
InChI=1S/C6H8N2O/c7-1-2(7)4-6-5(9-6)3(1)8-4/h1-8H	InChI=1S/C6H8N2O/c7-1-2(7)4-6-5(9-6)3(1)8-4/h1-8H/t1-,2+,3+,4-,5+,6-
