18
gdb 110479	4.25287	1.35977	1.3461	1.5143	74.03	-0.2241	0.0638	0.2879	1015.7351	0.148782	-401.839031	-401.831957	-401.831012	-401.870832	27.75	
C	-0.2472246214	 1.2959460926	 0.0477921653	-0.239597
O	 0.2972205414	 0.0100512243	-0.1595666285	-0.250638
C	 0.7958669171	-0.5761650865	 1.0026837721	 0.168999
C	-0.1480890917	-1.2456631112	 2.0318111618	-0.076364
C	-0.9128480403	-2.3687439994	 1.3256212804	-0.082837
C	 0.2207352215	-2.9327395324	 0.4453952561	-0.078296
C	 0.0426405071	-3.3920944333	 1.8602543855	-0.025562
N	 0.968321134	-2.2739135697	 2.3365707608	-0.196634
C	 1.3568423994	-1.9933850753	 0.8638509227	-0.078485
H	 0.5002658669	 1.9906967235	 0.4608922325	 0.107978
H	-0.5778362659	 1.6692975594	-0.9241229218	 0.129074
H	-1.1099819204	 1.272817962	 0.7300750015	 0.10887
H	 1.5141376494	 0.0775974268	 1.5218114266	 0.080134
H	-0.6002705318	-0.7165280481	 2.8702550392	 0.073393
H	-1.9576062511	-2.4572184087	 1.0610482139	 0.09229
H	 0.0370082991	-3.4465229254	-0.4880210885	 0.093995
H	-0.0729367214	-4.3593639018	 2.3322398179	 0.096332
H	 2.3791897481	-2.194771297	 0.5464231027	 0.077349
77.0208	154.7646	183.1645	266.0919	377.032	537.8449	635.6657	756.6429	774.1742	783.3325	804.0776	807.9398	835.5814	868.9284	906.7676	919.2085	963.4876	992.4887	1012.0578	1023.9317	1034.3904	1046.8366	1061.6744	1091.9403	1146.985	1162.6099	1181.8217	1182.1544	1204.6067	1222.8901	1228.4516	1247.0688	1300.4705	1314.5619	1366.7269	1384.4485	1484.772	1489.382	1508.2669	2977.4719	2993.4746	3026.6609	3116.2604	3118.3648	3124.7552	3189.02	3204.5144	3216.9863
COC1C2C3C4C3N2C14	CO[C@H]1[C@H]2[C@H]3[C@@H]4[C@H]3N2[C@H]14	
InChI=1S/C7H9NO/c1-9-7-5-2-3-4(2)8(5)6(3)7/h2-7H,1H3	InChI=1S/C7H9NO/c1-9-7-5-2-3-4(2)8(5)6(3)7/h2-7H,1H3/t2-,3+,4-,5+,6-,7-
