18
gdb 98244	2.74593	1.26204	0.8748	3.0777	71.52	-0.2429	0.0216	0.2645	1301.6184	0.147242	-472.487851	-472.477666	-472.476721	-472.524166	35.569	
C	 0.7053497337	 1.5445747475	 0.4793684937	-0.316032
N	 0.9640253968	 0.1564851944	 0.8035324527	-0.350749
C	-0.0275686028	-0.7489596739	 0.723262805	 0.517431
O	-1.1725939992	-0.4795955705	 0.4021354326	-0.422551
N	 0.3224238943	-2.1081853756	 1.0514455865	-0.232352
C	-0.7629964364	-3.0805231678	 0.934223482	-0.36934
C	 1.5905016216	-2.5201089474	 1.4433669609	 0.504109
N	 1.7096395494	-3.8600887748	 1.7284548725	-0.560926
O	 2.572942481	-1.787949646	 1.5064215246	-0.427638
H	 1.5935710748	 2.1287939865	 0.727369158	 0.123918
H	 0.4789691772	 1.6795838527	-0.5845519306	 0.133034
H	-0.1450990677	 1.926349735	 1.0515337527	 0.14161
H	 1.8872654682	-0.1858248284	 1.0472040759	 0.284426
H	-0.4752204785	-3.9048236995	 0.2752729533	 0.135696
H	-1.0534715156	-3.4807269154	 1.9139379377	 0.122779
H	-1.6165782607	-2.5546177155	 0.5128786659	 0.186876
H	 0.9147834011	-4.4102395378	 2.0030774834	 0.262006
H	 2.5895738628	-4.0973233533	 2.1575920331	 0.267702
28.6152	74.6692	90.0366	130.6434	209.329	221.7468	240.9895	320.4058	377.5937	409.6685	425.1818	461.3382	528.6822	614.1691	635.5314	647.7242	766.8697	779.1837	828.3956	972.7065	1081.4327	1105.6205	1156.8063	1162.0443	1190.121	1214.9982	1237.1026	1271.7012	1391.3459	1454.2964	1456.5468	1479.9371	1508.1381	1514.6057	1518.3069	1580.3992	1620.3433	1748.7031	1799.2898	3017.6245	3032.3811	3087.5312	3090.8278	3133.8005	3177.9885	3498.7178	3607.6087	3729.8667
CNC(=O)N(C)C(N)=O	CNC(=O)N(C)C(=O)N	
InChI=1S/C4H9N3O2/c1-6-4(9)7(2)3(5)8/h1-2H3,(H2,5,8)(H,6,9)	InChI=1S/C4H9N3O2/c1-6-4(9)7(2)3(5)8/h1-2H3,(H2,5,8)(H,6,9)
