15
gdb 52350	8.74707	0.45213	0.43224	2.4516	85.55	-0.2535	-0.0346	0.2189	2332.6185	0.107617	-420.556763	-420.546711	-420.545767	-420.593632	33.429	
O	-0.1561521359	 0.1810936599	 0.642361024	-0.235023
C	 0.0857404168	 1.0478300414	-0.1535398429	 0.139818
C	 1.3426481893	 1.9010979183	-0.1040503368	-0.133934
O	 1.2957274591	 2.8058117904	-1.1799020515	-0.246479
C	 2.4268769885	 3.6569491861	-1.2306066894	-0.237754
C	 2.3181027256	 4.5644450442	-2.360695812	 0.310139
C	 2.2610570412	 5.3346021275	-3.2908925126	-0.154229
C	 2.190329477	 6.1982992841	-4.3395957779	 0.290473
C	 2.1294792734	 6.9655697924	-5.2695985834	-0.548584
H	-0.5920544853	 1.3006246388	-0.9975351088	 0.104994
H	 1.3838466956	 2.4168883112	 0.8703368746	 0.12611
H	 2.2237612294	 1.2392516795	-0.1565999198	 0.126115
H	 2.5137227024	 4.2368813346	-0.2955102018	 0.130736
H	 3.3520694403	 3.0617088924	-1.3199098245	 0.130734
H	 2.0738229227	 7.6395305292	-6.0883038771	 0.196884
45.496	54.2138	79.9528	86.5411	157.8178	160.3816	254.2773	347.9426	352.5765	445.5476	538.8832	539.5715	575.4863	592.7715	617.1366	744.3429	770.7202	1000.4664	1021.6768	1074.3729	1115.3542	1150.097	1188.8172	1233.659	1251.5734	1340.7813	1396.1728	1426.3401	1478.0498	1500.8927	1846.3515	2186.3546	2371.0021	2908.5875	2950.9162	2964.2018	2970.9525	2993.7741	3504.1556
O=CCOCC#CC#C	O=CCOCC#CC#C	
InChI=1S/C7H6O2/c1-2-3-4-6-9-7-5-8/h1,5H,6-7H2	InChI=1S/C7H6O2/c1-2-3-4-6-9-7-5-8/h1,5H,6-7H2
