18
gdb 124520	2.5781	1.37131	0.98011	2.094	73.4	-0.2532	0.001	0.2542	1217.4751	0.14723	-439.091873	-439.083089	-439.082144	-439.125659	32.814	
C	 0.1406455081	 1.2817617182	-0.4117586324	-0.389378
C	 0.0645051884	-0.1479338015	 0.1594188586	-0.089312
C	 0.6681943993	-0.2171404398	 1.5678222506	-0.399419
C	-1.3460744299	-0.667414293	 0.1253141025	 0.08331
C	-2.206547819	-0.9879704271	 1.1264499315	-0.003978
O	-3.3893128446	-1.4124864408	 0.6499684706	-0.181428
N	-3.3426532129	-1.3850871848	-0.7457017585	-0.253781
C	-2.141969652	-0.9477076631	-1.0296132951	 0.379889
O	-1.7205259076	-0.7914872568	-2.2968823947	-0.418576
H	 1.179676894	 1.6247103784	-0.4492043597	 0.111802
H	-0.269988118	 1.3225908736	-1.4238502352	 0.134404
H	-0.4263239439	 1.9790348979	 0.2145150323	 0.116463
H	 0.663697354	-0.7923285809	-0.4986084655	 0.094805
H	 0.1212315107	 0.4302397341	 2.2630422495	 0.117189
H	 0.647256899	-1.2369175127	 1.9646857339	 0.118715
H	 1.7088278563	 0.1198670657	 1.5546153556	 0.117097
H	-2.1197127781	-0.971315834	 2.2017520642	 0.149455
H	-2.4433343135	-1.0558488334	-2.8818257082	 0.312743
44.2838	149.4243	170.18	245.1603	270.8931	297.7611	301.7704	372.6426	426.413	484.9488	529.5148	591.8592	616.6751	742.2696	754.3249	851.135	888.0879	919.4947	931.8233	959.2947	969.54	1100.8019	1120.1666	1157.2633	1163.4664	1215.4058	1244.4369	1306.5282	1337.4371	1372.2801	1398.881	1420.6723	1489.7999	1490.1625	1494.491	1503.8956	1513.5876	1555.9403	1674.4879	3008.1539	3029.9864	3035.4813	3096.3342	3103.4975	3110.3992	3121.7611	3264.0985	3779.6729
CC(C)C1=CON=C1O	CC(C)c1conc1O	
InChI=1S/C6H9NO2/c1-4(2)5-3-9-7-6(5)8/h3-4H,1-2H3,(H,7,8)	InChI=1S/C6H9NO2/c1-4(2)5-3-9-7-6(5)8/h3-4H,1-2H3,(H,7,8)
