18
gdb 37395	2.81674	2.20161	1.76547	0.9588	72.89	-0.2317	0.069	0.3007	837.9822	0.15195	-401.876236	-401.870405	-401.869461	-401.906011	25.893	
C	-0.0570194536	 1.5727070257	 0.032857551	-0.241842
C	 1.4963198935	 1.4733122825	 0.0199553092	-0.10745
C	 2.0085513608	 1.2892410067	 1.4462845416	-0.018037
N	 0.9856222455	 1.3606198134	 2.5247979872	-0.346703
C	 1.4911014432	 0.0554051242	 2.0837439061	-0.020393
C	 0.7229692009	-0.7685610003	 1.0680901878	 0.053869
O	 1.764825553	-1.0948142472	 0.0787148842	-0.300007
C	 1.3110540935	 0.0298727001	-0.6749114431	 0.1328
C	-0.0812562525	 0.0371118281	-0.0277610546	-0.074036
H	-0.5196892382	 2.0959918094	 0.8656690353	 0.129644
H	-0.4319850485	 1.9656106033	-0.9177606745	 0.091189
H	 2.0565721469	 2.2259956641	-0.5355896323	 0.061883
H	 3.0139340891	 1.6254318402	 1.676356598	 0.086597
H	 1.4379315988	 1.6076553379	 3.4011125919	 0.231949
H	 2.1260842272	-0.5190740649	 2.7529845286	 0.091859
H	 0.2513880861	-1.6704527968	 1.4634840684	 0.076602
H	 1.5333524543	-0.030386718	-1.7414977542	 0.079589
H	-0.93620722	-0.5070874085	-0.4304733406	 0.072489
257.9212	344.4515	402.4441	472.4963	532.0465	597.7767	647.1356	708.7348	740.0718	795.6308	800.3638	848.1743	854.3821	899.0433	911.3576	944.6208	953.9168	979.1814	991.5871	1018.9216	1053.2432	1064.2098	1089.9858	1103.307	1124.8936	1147.4771	1174.6863	1204.7219	1232.3902	1236.9713	1253.6727	1267.0035	1307.8749	1311.9782	1337.0359	1353.2134	1384.6968	1442.242	1487.1167	3055.7062	3085.052	3094.5317	3101.0712	3110.7854	3141.4328	3161.8138	3164.4886	3506.5151
C1C2C3NC3C3OC2C13	C1[C@H]2[C@H]3N[C@H]3[C@@H]3O[C@H]2[C@H]13	
InChI=1S/C7H9NO/c1-2-4-5(8-4)7-3(1)6(2)9-7/h2-8H,1H2	InChI=1S/C7H9NO/c1-2-4-5(8-4)7-3(1)6(2)9-7/h2-8H,1H2/t2-,3-,4+,5+,6+,7+/m0/s1
