18
gdb 23235	2.37985	1.5349	1.09366	1.9954	75.92	-0.2384	-0.01	0.2285	1136.3887	0.146815	-439.00032	-438.991775	-438.990831	-439.033859	31.789	
C	-0.5168821027	 1.4252597513	 0.1949972803	-0.409624
C	-0.0611196955	-0.0124800294	-0.0273608831	-0.088939
C	 0.7362597922	-0.4136251864	-1.3171294159	-0.105551
C	 1.8236949446	 0.5637702289	-1.7940505328	-0.079705
O	 2.8079643362	 0.0059947886	-0.889239216	-0.284109
C	 1.8794490588	-1.0037676327	-0.430287395	 0.00913
C	 1.1023880593	-0.554638278	 0.7962955498	 0.410534
N	 1.2659329393	-0.5676471469	 2.0514790758	-0.240682
O	 2.4667489567	-1.1972482488	 2.4096465236	-0.386775
H	 0.3194061776	 2.1275431146	 0.1364678266	 0.128037
H	-1.2672094173	 1.7186808928	-0.5467491359	 0.115641
H	-0.9622764301	 1.5286435045	 1.1886701365	 0.135144
H	-0.9238274038	-0.6834424174	 0.0729887901	 0.100422
H	 0.1961535462	-0.9772986512	-2.0753507007	 0.082829
H	 2.1262955803	 0.4197315962	-2.8386719888	 0.1052
H	 1.65379013	 1.6321806117	-1.6195519534	 0.106496
H	 2.2921670888	-2.0136773114	-0.4692266045	 0.093902
H	 2.4537575794	-1.1311542665	 3.3705727833	 0.308052
56.9535	145.123	155.4937	202.4579	258.2944	264.6886	334.0988	408.9529	500.0119	549.9932	613.6963	620.2318	767.9924	821.1486	835.116	890.212	943.8802	977.9534	999.6917	1004.6802	1012.8468	1063.0422	1112.6002	1120.8952	1149.7633	1166.1203	1187.6996	1218.5464	1250.1113	1285.655	1317.4252	1331.7272	1363.2175	1403.8736	1412.3562	1490.1434	1496.4052	1527.4496	1772.3518	3018.6577	3023.5822	3038.7344	3063.5464	3094.8322	3108.5491	3116.3603	3130.2825	3816.8394
CC1C2COC2C1=NO	C[C@H]1[C@H]2CO[C@H]2C1=NO	
InChI=1S/C6H9NO2/c1-3-4-2-9-6(4)5(3)7-8/h3-4,6,8H,2H2,1H3	InChI=1S/C6H9NO2/c1-3-4-2-9-6(4)5(3)7-8/h3-4,6,8H,2H2,1H3/t3-,4+,6+/m0/s1
