17
gdb 71448	3.99555	1.39883	1.25931	3.7967	71.82	-0.2354	-0.0217	0.2137	1020.3556	0.136041	-421.815052	-421.807707	-421.806763	-421.846688	29.017	
C	-0.1071940193	 1.4523586449	 0.0292859837	-0.499906
C	 0.0340946015	-0.0322045073	 0.0286728221	 0.47702
O	-1.1604273009	-0.8140913931	-0.1541787531	-0.339806
C	-0.5474492444	-1.9153244919	 0.5961090969	-0.024955
C	 0.6572951345	-1.0382591052	 0.9596941255	-0.22155
C	 1.2298717346	-0.8333972922	-0.4464484144	-0.133494
C	 0.9720302867	-2.0558144257	-1.3104239916	-0.350673
C	-0.0644967957	-2.8664342127	-0.5054983944	 0.440525
O	-0.4182499277	-3.9958730021	-0.7059480121	-0.318799
H	 0.8545118077	 1.92630186	 0.2461438234	 0.128329
H	-0.4461343241	 1.8046310469	-0.951157581	 0.137744
H	-0.8344958988	 1.7748427529	 0.7803595829	 0.135
H	-1.2083680857	-2.3333278241	 1.353190523	 0.09717
H	 1.1843989	-0.9548669734	 1.8993835091	 0.106317
H	 2.1689369998	-0.2983604126	-0.5303469705	 0.096901
H	 0.5760677524	-1.8331480707	-2.3060351792	 0.138652
H	 1.8765007992	-2.6581304238	-1.4409764103	 0.131524
104.2522	196.3442	211.0508	275.1768	343.9331	435.4079	476.2258	543.9787	633.8994	661.8552	714.5541	747.3444	816.1217	818.1178	877.5927	891.933	932.645	963.541	975.0161	992.3201	1035.6183	1053.5712	1110.4133	1148.8753	1166.2451	1184.7552	1210.2565	1238.7233	1271.2317	1282.7835	1292.9843	1405.4804	1452.0922	1465.496	1473.4364	1500.06	1859.0144	3036.5198	3057.8992	3099.9422	3103.3118	3118.4947	3140.8472	3181.8145	3213.8054
CC12OC3C1C2CC3=O	C[C@]12O[C@@H]3[C@H]1[C@H]2CC3=O	
InChI=1S/C7H8O2/c1-7-3-2-4(8)6(9-7)5(3)7/h3,5-6H,2H2,1H3	InChI=1S/C7H8O2/c1-7-3-2-4(8)6(9-7)5(3)7/h3,5-6H,2H2,1H3/t3-,5-,6+,7-/m1/s1
