20
gdb 104043	2.84424	1.32687	1.20131	1.5871	73.93	-0.2367	0.0688	0.3055	1118.5509	0.17205	-440.266666	-440.258179	-440.257235	-440.299297	33.74	
O	 0.0108577197	 1.1511099547	-0.4559293455	-0.442382
C	-0.1791448927	-0.2644052159	-0.3806202814	-0.141406
C	-1.5932995658	-0.4804715321	 0.1646259733	 0.428135
O	-1.7016315968	 0.2150602767	 1.4010603992	-0.496763
C	-2.680850237	-0.0201900605	-0.8602940885	-0.275428
C	-3.1725879653	-1.2844264994	-1.5319542514	-0.030431
N	-2.0811928505	-2.1331929833	-2.0679663902	-0.342013
C	-2.6989082563	-2.4598330607	-0.7610884229	-0.031748
C	-1.8840715842	-1.9825920279	 0.4221558253	-0.275291
H	 0.9285228054	 1.3253828253	-0.6804387461	 0.29287
H	-0.0780402308	-0.7429164591	-1.3608289041	 0.123487
H	 0.5415659425	-0.7126922237	 0.319100565	 0.086079
H	-1.2385389081	 1.0526767641	 1.2681734089	 0.283017
H	-3.499763621	 0.4396345269	-0.2980877369	 0.104239
H	-2.2887861127	 0.7231321249	-1.5596415828	 0.111371
H	-4.1280710731	-1.2865959753	-2.0470272063	 0.081975
H	-2.4624006463	-2.7525790483	-2.7788383583	 0.227775
H	-3.2865413669	-3.3683640499	-0.6780685149	 0.0826
H	-0.9657836026	-2.5603963379	 0.5709169452	 0.098087
H	-2.4765116575	-2.0558375289	 1.3397952122	 0.115829
115.7205	150.945	208.8755	228.468	308.3456	357.7699	366.501	380.9149	434.1831	475.0509	511.9726	636.9271	682.4258	776.7002	804.3791	844.7515	871.3412	922.6703	935.8457	960.2752	963.443	1000.2233	1042.2158	1079.5714	1088.4306	1118.2197	1128.1695	1152.9526	1176.7468	1184.1247	1216.3263	1245.9768	1278.2581	1297.4121	1302.4556	1340.8606	1369.0901	1408.6636	1433.1494	1442.5877	1476.3013	1489.6557	1516.1374	2992.0232	3046.6291	3056.5106	3073.2704	3092.4122	3105.4522	3154.021	3165.9208	3498.8808	3764.6045	3846.3467
OCC1(O)CC2NC2C1	OC[C@@]1(O)C[C@H]2N[C@H]2C1	
InChI=1S/C6H11NO2/c8-3-6(9)1-4-5(2-6)7-4/h4-5,7-9H,1-3H2	InChI=1S/C6H11NO2/c8-3-6(9)1-4-5(2-6)7-4/h4-5,7-9H,1-3H2/t4-,5+,6-
