21
gdb 111844	2.36993	1.48155	1.16323	3.0005	77.67	-0.2415	0.0769	0.3185	1158.1274	0.183107	-424.210316	-424.201315	-424.20037	-424.244279	34.021	
C	-0.0391649277	 1.5634891408	-0.007384026	-0.484065
C	 0.0118428413	 0.0532110447	-0.0168278573	 0.29634
C	-0.7411589095	-0.6902619371	-1.1275101123	-0.324213
C	-1.5035155051	-1.8050852339	-0.3764558036	-0.06794
O	-0.8579899273	-1.9730624765	 0.8949998571	-0.272528
C	-0.1833096114	-0.7767360275	 1.2183754694	 0.031362
C	 1.2020215222	-0.6597806759	 0.633889125	-0.1179
C	 1.8739910572	-1.9060673219	 0.0836408339	-0.087869
O	 1.9732724095	-2.9333547854	 1.0564457847	-0.426139
H	 0.4898300363	 1.9835631089	-0.8706863668	 0.121957
H	-1.0733579079	 1.926012929	-0.0416739567	 0.116536
H	 0.428471136	 1.9718131366	 0.89392938	 0.11948
H	-1.4359534236	-0.0107051016	-1.6295869429	 0.106314
H	-0.0757090088	-1.0944939151	-1.8959108718	 0.113622
H	-2.5531310076	-1.5206286991	-0.216100738	 0.10109
H	-1.4847976821	-2.7709999888	-0.8891129187	 0.112416
H	-0.4402133946	-0.3674990693	 2.1910810226	 0.09471
H	 1.8667402854	 0.0049712151	 1.1807127713	 0.086762
H	 1.3545747219	-2.2693672835	-0.8140209625	 0.082227
H	 2.8988341218	-1.6709136668	-0.2206122089	 0.106136
H	 1.0630513042	-3.1396752327	 1.3030469914	 0.291701
64.072	90.1024	164.5674	204.7409	219.1544	272.477	314.3272	359.6654	462.5405	516.7884	583.2002	624.5662	685.7382	760.3815	803.965	854.8401	868.501	932.2936	953.2779	977.0673	1006.9904	1025.8135	1038.1144	1066.5574	1082.6726	1120.1021	1134.8889	1144.728	1206.0354	1220.2208	1244.4868	1270.004	1282.6276	1309.1137	1333.4247	1380.6489	1401.1965	1417.8577	1431.682	1449.482	1489.6261	1497.3503	1499.4588	1507.9293	1523.0763	3001.6854	3002.7864	3021.7445	3053.6537	3073.0724	3080.8705	3081.7152	3096.7911	3099.9763	3134.5599	3151.185	3780.1562
CC12CCOC1C2CO	C[C@]12CCO[C@H]1[C@H]2CO	
InChI=1S/C7H12O2/c1-7-2-3-9-6(7)5(7)4-8/h5-6,8H,2-4H2,1H3	InChI=1S/C7H12O2/c1-7-2-3-9-6(7)5(7)4-8/h5-6,8H,2-4H2,1H3/t5-,6+,7-/m1/s1
