19
gdb 64245	2.77158	1.05098	0.93644	4.2043	73.51	-0.2702	0.0098	0.28	1320.2628	0.156614	-460.179322	-460.16975	-460.168805	-460.214245	34.877	
C	-0.0284919735	 1.5780255791	 0.1844897707	-0.445707
C	 0.0163151191	 0.0584275502	 0.0851544454	 0.366011
O	-1.2794018335	-0.4975911743	-0.007665273	-0.478167
C	 1.0958655723	-0.4760626172	-0.9145356347	-0.282575
C	 2.0581901427	-0.6850538697	 0.2884713457	-0.272745
C	 0.8278973465	-0.6266533145	 1.2125838397	 0.119347
O	 0.9879873658	 0.0824282204	 2.4336404867	-0.18991
C	 0.4114921242	-0.4131894177	 3.5476032857	 0.163558
O	 0.4625335223	 0.1437679913	 4.6020471599	-0.276285
H	 0.9690696271	 2.0073920478	 0.308805574	 0.131821
H	-0.4601274428	 1.9985604613	-0.7321039323	 0.108789
H	-0.6399110125	 1.8877899481	 1.0359434993	 0.137929
H	-1.7935766345	 0.0234788427	-0.6334851772	 0.27943
H	 0.7705460996	-1.4205148094	-1.35601112	 0.113559
H	 1.4217701532	 0.2026491085	-1.7052645136	 0.103033
H	 2.6590355588	-1.594979605	 0.3157087165	 0.111515
H	 2.7090390183	 0.1764140078	 0.4541125048	 0.125213
H	 0.4064536028	-1.6203098045	 1.4016730218	 0.100579
H	-0.097227866	-1.380621635	 3.3714620305	 0.084605
43.3664	93.5141	145.3685	210.2513	245.1838	254.5915	266.5911	298.2746	359.443	395.9265	430.2949	519.9401	601.385	679.7822	755.4633	842.941	895.0513	902.1723	944.7934	970.4425	997.2903	1044.9087	1089.657	1101.9793	1143.3482	1166.7197	1190.633	1198.6366	1220.0282	1240.0094	1264.4208	1299.94	1374.9393	1391.9716	1411.8252	1442.1264	1476.4837	1488.1972	1493.9744	1500.4959	1866.1989	2953.7639	3030.1447	3049.7068	3070.6003	3078.9788	3102.9099	3124.0692	3128.1043	3139.5733	3809.2846
CC1(O)CCC1OC=O	C[C@@]1(O)CC[C@H]1OC=O	
InChI=1S/C6H10O3/c1-6(8)3-2-5(6)9-4-7/h4-5,8H,2-3H2,1H3	InChI=1S/C6H10O3/c1-6(8)3-2-5(6)9-4-7/h4-5,8H,2-3H2,1H3/t5-,6-/m1/s1
