16
gdb 43532	2.4901	1.50643	1.09354	2.5407	77.43	-0.2632	0.0064	0.2697	1112.2031	0.123011	-400.695022	-400.686766	-400.685822	-400.727986	31.177	
N	-0.1120630085	 1.2294138204	-0.6346398176	-0.558986
C	-0.0447587024	 0.0783637945	-0.1448550691	 0.400306
O	 1.0154932906	-0.6037318455	 0.4341859245	-0.280773
C	 0.1887671204	-1.8081723181	 0.6492865208	-0.134638
C	 0.1032199546	-2.2067012109	 2.0379220333	 0.33985
C	 0.002916439	-2.559714808	 3.1821675568	-0.438183
C	-0.9984099621	-1.0467281401	 0.0360190562	 0.197951
C	-2.4309622988	-0.9787700908	 0.4751275154	-0.316292
C	-2.0862591348	-1.514088014	-0.8870625211	-0.319984
H	 0.7800000228	 1.7213606721	-0.5761684638	 0.231528
H	 0.5740143425	-2.6224234667	 0.0272659385	 0.123689
H	-0.0734253097	-2.8659947849	 4.1966412419	 0.209684
H	-2.7395233773	-1.6802695429	 1.2428880375	 0.132517
H	-2.8694571143	 0.0100995901	 0.547065627	 0.143693
H	-2.2850736091	-0.8932390365	-1.7536699608	 0.143931
H	-2.1727859929	-2.5823140685	-1.0563610195	 0.125706
83.5341	119.0293	198.0438	213.8225	222.0378	318.2753	401.6195	506.3723	574.1104	605.2584	631.268	680.8137	683.7496	764.8599	787.5033	840.7226	858.4241	901.0564	956.7258	973.8372	1002.9495	1008.4927	1051.0049	1066.6079	1084.7545	1186.8337	1194.3424	1235.5489	1281.9461	1356.3939	1400.9296	1456.8613	1499.0803	1833.2281	2240.3075	3059.2537	3133.9769	3137.6995	3219.5485	3234.0267	3490.9168	3499.9663
N=C1OC(C#C)C11CC1	[NH][C]1O[C@@H](C#C)C21CC2	
InChI=1S/C7H7NO/c1-2-5-7(3-4-7)6(8)9-5/h1,5,8H,3-4H2	InChI=1S/C7H7NO/c1-2-5-7(3-4-7)6(8)9-5/h1,5,8H,3-4H2/t5-/m0/s1
