21
gdb 53468	2.58739	0.87945	0.7416	2.857	87.53	-0.2327	-0.0139	0.2188	1636.0351	0.178386	-387.096131	-387.084596	-387.083652	-387.135491	39.203	
C	 0.7025373819	 0.278876193	 1.5360104521	-0.497918
C	 0.2480234276	-0.6363699267	 0.4985581349	 0.05681
C	-0.1225821874	-1.3897715813	-0.3651239196	 0.067803
C	-0.5785275801	-2.2937356917	-1.412308023	-0.448779
C	-1.6929951661	-3.2803241572	-1.0085787739	 0.400874
O	-2.5767930524	-3.5383772864	-1.7903358565	-0.316215
C	-1.6196327735	-3.9271782894	 0.3738301989	-0.05568
C	-2.6207340249	-3.205736909	 1.3000816032	-0.390367
C	-1.9264835255	-5.4273322465	 0.2792927902	-0.389799
H	 1.7937474238	 0.3761024069	 1.5311972469	 0.149887
H	 0.2794571584	 1.279709923	 1.3965177069	 0.151117
H	 0.4059324019	-0.069560999	 2.5314406174	 0.149548
H	-0.9363077975	-1.7483140603	-2.2911646825	 0.150161
H	 0.26293467	-2.9172313505	-1.7533970906	 0.148659
H	-0.6115434265	-3.7747133356	 0.7747667354	 0.085901
H	-2.5859085231	-3.6418467421	 2.3032510062	 0.114425
H	-2.3921333931	-2.1397327313	 1.382263379	 0.129432
H	-3.6385688115	-3.3128578647	 0.9126616403	 0.132861
H	-1.1798628029	-5.9529127378	-0.3245376451	 0.1125
H	-1.9349216321	-5.8788459056	 1.2760337737	 0.109869
H	-2.9032482271	-5.5840810278	-0.185342044	 0.138911
21.6235	26.5429	50.1205	77.6758	200.967	203.9674	217.1993	232.4306	252.2307	294.1841	322.3987	379.3231	414.5499	452.0561	559.3056	665.4003	725.4774	810.1019	884.8651	920.4193	936.4926	973.8746	1052.8192	1053.2706	1098.9645	1106.6053	1118.5314	1167.9812	1196.286	1220.3472	1300.9754	1332.8515	1371.8035	1390.1993	1412.3833	1415.624	1444.2517	1477.9914	1478.8785	1485.7104	1490.8203	1500.1715	1513.618	1810.6953	2369.8851	2995.4516	3027.8914	3037.0523	3040.0928	3048.9084	3079.6246	3088.7161	3089.5398	3105.0822	3110.8913	3120.2653	3126.9592
CC#CCC(=O)C(C)C	CC#CCC(=O)C(C)C	
InChI=1S/C8H12O/c1-4-5-6-8(9)7(2)3/h7H,6H2,1-3H3	InChI=1S/C8H12O/c1-4-5-6-8(9)7(2)3/h7H,6H2,1-3H3
