18
gdb 114030	4.16547	0.70865	0.68054	2.4681	71.18	-0.2639	0.0191	0.283	1657.169	0.145754	-476.180681	-476.170934	-476.16999	-476.217065	33.615	
O	-0.4047355993	 0.9444963394	-1.1704328239	-0.413693
C	-0.0696229589	 0.1047238951	-0.0805379201	-0.086979
C	-1.2576731703	-0.7265463576	 0.339962799	 0.031494
O	-1.5755360934	-1.8461629761	-0.5056280834	-0.265656
C	-1.2041207528	-2.1041485081	 0.8550188007	 0.044626
C	 0.0643465101	-2.8892987815	 1.0844499369	-0.128396
O	-0.1826447024	-4.2930142025	 1.0325387527	-0.185606
C	-0.3098275866	-4.8344672022	-0.2019790059	 0.128623
N	-0.5868220949	-6.0589892279	-0.3168638073	-0.435926
H	-0.697790738	 0.373401011	-1.8894729549	 0.294483
H	 0.7894909057	-0.5377477928	-0.3171661988	 0.092985
H	 0.223629053	 0.7698262102	 0.7391177309	 0.120833
H	-2.1299408589	-0.1297886636	 0.6118126275	 0.108413
H	-2.0332971789	-2.4366133459	 1.4814097527	 0.114612
H	 0.8373340527	-2.6080112055	 0.3614536263	 0.115764
H	 0.4455840538	-2.7011735871	 2.092294386	 0.132141
H	-0.1477855812	-4.1157860936	-1.0146034131	 0.101521
H	-0.6316132496	-6.3123943513	-1.3017005453	 0.230761
39.1709	71.3669	79.2942	101.1771	148.7538	226.6742	305.846	327.5682	389.6498	427.0157	482.3253	553.5283	658.1348	790.0388	821.4463	844.3722	901.9362	959.694	998.8048	1041.7822	1062.5661	1070.5622	1086.8505	1131.1351	1156.4595	1169.1628	1230.6532	1251.2643	1298.8572	1320.6117	1354.8818	1379.0843	1404.7471	1423.0781	1430.1282	1481.2724	1490.0214	1497.0918	1747.5116	3011.058	3044.8634	3053.4038	3074.6834	3097.8042	3104.078	3115.8624	3518.5044	3803.7346
OCC1OC1COC=N	OC[C@H]1O[C@H]1CO[CH][NH]	
InChI=1S/C5H9NO3/c6-3-8-2-5-4(1-7)9-5/h3-7H,1-2H2	InChI=1S/C5H9NO3/c6-3-8-2-5-4(1-7)9-5/h3-7H,1-2H2/t4-,5+/m1/s1
