14
gdb 46967	2.97249	1.81794	1.3074	2.0551	61.07	-0.2515	-0.0444	0.2071	914.0933	0.102616	-473.852657	-473.845956	-473.845012	-473.884372	24.976	
O	-0.0109539758	 0.0554816594	-0.180216528	-0.281774
C	 0.0076607368	 1.2387201155	 0.0001992896	 0.405737
C	-1.185757634	 2.1411919821	 0.312405509	-0.209719
O	-0.7747104545	 3.4606555837	-0.0288409987	-0.248479
C	 0.6196568497	 3.5763771292	-0.0185176653	 0.20799
O	 1.0939872427	 4.1425993675	 1.2308019175	-0.222885
C	 1.7903724141	 3.1563075051	 1.8394889842	 0.113282
N	 1.9585112317	 2.0398105237	 1.2560256394	-0.254601
C	 1.2419363331	 2.163976697	-0.0257173834	-0.193762
H	-2.0576671242	 1.8715669368	-0.2878472833	 0.149361
H	-1.4515610493	 2.0602134274	 1.3761499367	 0.142327
H	 0.9020798942	 4.2718309098	-0.8087439106	 0.117395
H	 2.1811417792	 3.4120225904	 2.8181034008	 0.154532
H	 1.8956389262	 1.9323965224	-0.8681030479	 0.120596
76.7791	129.71	216.2937	385.454	453.5347	518.7499	561.4964	607.72	671.0506	793.1614	848.4259	884.7573	888.1393	943.023	960.2598	981.0761	991.0146	1038.8058	1066.4414	1148.6248	1180.9026	1207.3729	1240.342	1263.7442	1302.2253	1325.4642	1355.6357	1388.9772	1486.6684	1683.313	1875.6611	3012.7058	3103.9933	3109.3807	3122.906	3219.41
O=C1COC2OC=NC12	O=C1CO[C@H]2OC=N[C@@H]12	
InChI=1S/C5H5NO3/c7-3-1-8-5-4(3)6-2-9-5/h2,4-5H,1H2	InChI=1S/C5H5NO3/c7-3-1-8-5-4(3)6-2-9-5/h2,4-5H,1H2/t4-,5-/m0/s1
