20
gdb 57658	2.70849	1.17174	1.07016	3.0035	75.79	-0.2483	0.0269	0.2752	1226.2601	0.169184	-440.293491	-440.283858	-440.282914	-440.327675	35.793	
C	 0.0193953596	 1.5413347643	-0.10467497	-0.419934
C	 0.0685057796	 0.0093257713	 0.0607900282	 0.227379
C	 0.8520783523	-0.3768284723	 1.3268718311	-0.407255
N	-1.2914968012	-0.5418523234	 0.0818337706	-0.313705
C	-2.2153821384	-0.3211638492	 1.0528932154	 0.159376
O	-2.0263538721	 0.2387094187	 2.1142846548	-0.335104
C	 0.7749562645	-0.6045078099	-1.1494838349	 0.085238
C	 0.6271547047	-2.005423423	-1.5519121329	-0.198282
O	-0.0333825042	-0.9535859777	-2.2782575966	-0.255201
H	 1.0302506775	 1.9613732244	-0.1259705385	 0.112153
H	-0.486000204	 1.8119868955	-1.036838129	 0.121746
H	-0.5235535113	 1.984619963	 0.7325157566	 0.151063
H	 0.3986696685	 0.0820933378	 2.2051240482	 0.162157
H	 0.8548432164	-1.4619748565	 1.4628436609	 0.115172
H	 1.8895625868	-0.0372608234	 1.2400851522	 0.109521
H	-1.6312751621	-0.836663742	-0.8248938111	 0.255999
H	-3.2021016567	-0.7407516956	 0.7686176432	 0.07771
H	 1.7036235617	-0.0964862585	-1.4102354498	 0.100728
H	 1.4319479386	-2.5010148388	-2.0908927092	 0.126775
H	-0.0334001403	-2.6597442849	-0.9871861291	 0.124462
83.3658	110.4754	176.4978	222.2032	229.5124	251.3667	256.8768	279.6617	327.7279	388.3701	422.2217	526.2715	532.4441	662.9179	688.3937	830.2913	842.4395	868.172	936.0817	948.0038	980.2327	1017.0219	1033.5612	1041.3946	1101.5846	1156.5117	1173.5558	1191.053	1196.7512	1246.7818	1264.8912	1301.8795	1392.6194	1408.2386	1424.6842	1440.0602	1475.602	1485.2655	1496.3227	1514.7775	1523.0009	1525.9246	1797.3799	2923.2806	3038.3332	3044.1694	3097.6744	3107.0866	3109.7402	3114.8455	3137.1839	3158.9821	3188.3359	3571.1039
CC(C)(NC=O)C1CO1	CC(C)(NC=O)[C@H]1CO1	
InChI=1S/C6H11NO2/c1-6(2,7-4-8)5-3-9-5/h4-5H,3H2,1-2H3,(H,7,8)	InChI=1S/C6H11NO2/c1-6(2,7-4-8)5-3-9-5/h4-5H,3H2,1-2H3,(H,7,8)/t5-/m1/s1
