16
gdb 22808	2.86752	1.39892	0.99021	2.5919	70.11	-0.2339	-0.0676	0.1663	1142.9135	0.124061	-474.987394	-474.97928	-474.978336	-475.020656	30.115	
O	 0.0250958863	 1.3285448999	 0.1410755193	-0.348944
N	 0.0393403152	-0.0471556301	 0.0890605396	-0.172392
C	-1.1157329778	-0.6053211716	 0.0295794154	 0.257159
C	-1.1296971671	-2.1160733504	-0.0312133412	-0.281269
C	-2.1966258216	-2.6038856119	-1.0136394373	-0.089577
O	-3.4674680407	-2.1042074668	-0.6354355467	-0.239075
C	-3.5544369151	-0.7016296497	-0.7624945291	-0.183038
C	-2.447432227	 0.095219617	-0.0540950909	 0.30012
O	-2.6581054083	 1.2192936746	 0.3349446589	-0.282815
H	 0.9658073868	 1.5415300917	 0.1263649073	 0.315235
H	-0.1335699782	-2.4793876017	-0.2985674043	 0.121973
H	-1.3798084691	-2.5189086236	 0.9588595351	 0.12859
H	-1.9492224878	-2.294066127	-2.042743473	 0.096547
H	-2.274199206	-3.6939567308	-0.9950919003	 0.118407
H	-3.5232910655	-0.3997525834	-1.8263533374	 0.117245
H	-4.517407584	-0.3877434463	-0.3543454253	 0.141836
44.7663	123.7504	230.8935	275.299	295.8057	359.652	386.9636	441.6572	455.231	521.0292	563.2383	644.7699	664.862	707.669	875.8199	956.1418	981.463	992.8643	1044.3846	1086.2757	1126.6673	1159.6262	1215.298	1232.3442	1271.5649	1310.1497	1353.1043	1358.5004	1403.1078	1421.1709	1461.94	1468.639	1501.9764	1674.1069	1803.0758	2937.7553	2971.2722	3027.8367	3096.8949	3099.122	3114.7848	3794.9954
ON=C1CCOCC1=O	ON=C1CCOCC1=O	
InChI=1S/C5H7NO3/c7-5-3-9-2-1-4(5)6-8/h8H,1-3H2	InChI=1S/C5H7NO3/c7-5-3-9-2-1-4(5)6-8/h8H,1-3H2
