22
gdb 58331	3.29805	0.79302	0.7006	4.212	79.99	-0.247	0.0345	0.2815	1654.239	0.192042	-441.51598	-441.504925	-441.503981	-441.553129	39.429	
C	-0.0540099351	 1.5195431813	-0.2714325731	-0.418566
C	-0.0113663883	 0.0410561748	 0.1150814053	 0.139601
O	 0.6129615364	-0.1202009389	 1.3915472443	-0.432503
C	-1.3892108653	-0.6556956106	 0.0827780239	 0.013205
C	-2.1007073662	-0.5034797277	-1.2674086756	-0.402174
C	-1.2187296724	-2.1408526993	 0.4629590873	-0.172672
N	-2.4752826534	-2.8298342963	 0.7187399975	-0.274149
C	-3.0187667425	-3.7432260284	-0.1284458427	 0.151987
O	-2.5586804427	-4.0669023862	-1.2035058193	-0.327525
H	 0.9373561182	 1.9603593564	-0.1365628576	 0.126399
H	-0.3556540138	 1.6633297779	-1.3118183922	 0.12746
H	-0.7631249641	 2.0690412299	 0.3617346515	 0.105218
H	 0.65633518	-0.4871996763	-0.5787588192	 0.093514
H	 0.14819846	 0.4493046505	 2.0149673951	 0.274685
H	-2.0076966801	-0.1777838341	 0.8607526796	 0.04892
H	-2.3707261212	 0.5359981912	-1.4711142689	 0.111469
H	-1.4651301534	-0.8586862784	-2.0864572611	 0.125703
H	-3.0183099186	-1.0964120692	-1.2902320688	 0.130716
H	-0.7331429991	-2.681578491	-0.3543409288	 0.141998
H	-0.5803946658	-2.2120515152	 1.3469522383	 0.122516
H	-2.9499092806	-2.6615790892	 1.5915453881	 0.243715
H	-3.955388282	-4.1732002311	 0.2810294865	 0.070484
35.8395	54.6276	80.293	154.4274	199.5885	220.2665	232.8536	289.6326	302.1023	315.6752	365.9914	369.5837	443.9549	487.8755	521.6612	542.0706	753.8	821.223	874.4549	925.5739	943.7631	976.0563	990.9466	1031.1968	1072.2597	1078.1364	1138.6361	1164.0389	1170.3808	1211.7375	1254.2532	1287.1904	1323.1887	1355.7926	1378.7971	1392.1363	1402.531	1414.6219	1418.84	1431.4477	1482.6175	1490.3149	1493.2076	1495.3285	1509.8583	1537.4084	1804.6563	2927.0662	2965.6164	3020.2447	3029.6574	3040.2598	3067.2153	3100.1518	3108.0996	3119.8674	3121.2901	3128.5575	3631.9082	3795.9192
CC(O)C(C)CNC=O	C[C@@H](O)[C@@H](C)CNC=O	
InChI=1S/C6H13NO2/c1-5(6(2)9)3-7-4-8/h4-6,9H,3H2,1-2H3,(H,7,8)	InChI=1S/C6H13NO2/c1-5(6(2)9)3-7-4-8/h4-6,9H,3H2,1-2H3,(H,7,8)/t5-,6+/m0/s1
