21
gdb 106812	2.42172	1.45735	1.09601	1.485	78.27	-0.25	0.0697	0.3197	1190.3282	0.182173	-424.219432	-424.210348	-424.209404	-424.252922	34.939	
C	 0.1980020575	 1.4876461354	 0.2634204716	-0.379861
C	-0.1870831408	 0.0598289325	-0.1453441552	-0.274831
C	 0.5954822804	-0.4626332028	-1.3270843633	 0.288066
C	 2.0080869638	-0.9977353931	-1.1433115013	-0.398784
C	 0.8872234456	-1.9293613194	-1.5266749383	 0.307631
O	 0.3930181468	-2.8742431931	-0.6303873415	-0.468706
C	 0.7157898653	-2.1899360376	-3.0155714785	-0.13658
O	 0.8134625151	-0.9136515078	-3.633402297	-0.256683
C	 0.3007563042	 0.0613084966	-2.7248791589	-0.140406
H	 1.2605558555	 1.5495257089	 0.5207259977	 0.117495
H	 0.0120600848	 2.201897624	-0.5459221288	 0.116422
H	-0.3794398955	 1.8158132493	 1.1332203273	 0.112177
H	-0.0415762081	-0.6240324169	 0.6979062714	 0.109109
H	-1.258803018	 0.0230694525	-0.3822058702	 0.097442
H	 2.7684434458	-0.7593051437	-1.8810412921	 0.118301
H	 2.3581706856	-1.0669207543	-0.1183366059	 0.109119
H	 1.0815530341	-3.5282736238	-0.4713716135	 0.28759
H	 1.4875483797	-2.8277951528	-3.4611697097	 0.099246
H	-0.2676397868	-2.6597311841	-3.1807627225	 0.096464
H	-0.7881923291	 0.187056782	-2.8494529946	 0.089324
H	 0.7870760143	 1.0115238383	-2.9688217166	 0.107464
79.6737	142.0256	193.1749	230.2618	242.5321	276.5766	293.1171	349.9201	372.7545	431.6597	517.2292	566.3611	641.8084	705.1875	768.4602	785.8629	898.9782	922.0272	930.2623	955.2549	987.4315	1031.5525	1045.231	1064.8955	1071.5297	1091.6588	1119.0321	1178.0369	1208.9864	1230.6523	1250.2903	1276.3663	1300.7728	1333.6758	1351.3187	1369.5268	1387.2035	1411.0294	1416.2293	1482.0525	1488.0786	1499.4568	1506.4381	1509.9119	1522.1353	2961.8929	2976.0227	3020.0559	3032.8437	3058.6056	3065.6106	3068.2865	3101.8617	3105.5069	3119.7069	3212.114	3805.518
CCC12CC1(O)COC2	CC[C@@]12C[C@]1(O)COC2	
InChI=1S/C7H12O2/c1-2-6-3-7(6,8)5-9-4-6/h8H,2-5H2,1H3	InChI=1S/C7H12O2/c1-2-6-3-7(6,8)5-9-4-6/h8H,2-5H2,1H3/t6-,7-/m0/s1
