17
gdb 45326	3.30403	1.449	1.10923	4.0988	72.08	-0.2584	0.0042	0.2627	1070.2986	0.138234	-421.868105	-421.860808	-421.859864	-421.900551	27.871	
O	-0.3071779054	 0.1305347815	 0.2828306818	-0.327291
C	-0.0783588453	 1.2368550584	-0.0874336357	 0.44268
O	-0.841625668	 2.0176288559	-0.9215536929	-0.259687
C	 0.0869548571	 3.1535015049	-0.7921819106	 0.125681
C	-0.5501493783	 4.3813664129	-0.1420807818	-0.286722
C	 0.4166745032	 5.0468233926	 0.8102841586	-0.06001
C	 1.2442488698	 4.3357363541	 1.5746239367	-0.051713
C	 1.2694095903	 2.8261502239	 1.5379898592	-0.291707
C	 1.0022751465	 2.3028147625	 0.1128118403	-0.210322
H	 0.5074615335	 3.3854927699	-1.7726084282	 0.101615
H	-0.9014036737	 5.0825497295	-0.9040488729	 0.115363
H	-1.4432317184	 4.0467835854	 0.4032464574	 0.134564
H	 0.3999759858	 6.1303178465	 0.8749761856	 0.097067
H	 1.9102737179	 4.8321394446	 2.2740118917	 0.098075
H	 2.2256383614	 2.4446790773	 1.9052392277	 0.120781
H	 0.5092217306	 2.4305178961	 2.2252105944	 0.135095
H	 1.9368542931	 2.021991184	-0.3775889512	 0.116531
57.934	104.5257	205.6057	352.3324	399.3596	437.6283	479.8211	556.6242	673.0831	699.3756	751.6276	780.3412	790.5574	900.4804	919.5454	928.8546	977.5968	987.2976	995.0876	1054.0844	1090.2761	1127.8168	1141.7356	1157.1789	1192.5866	1217.1263	1242.4267	1291.196	1319.6155	1335.4332	1362.0969	1376.5402	1404.8566	1484.5756	1492.1085	1712.2421	1933.1968	3017.9921	3021.321	3077.2768	3081.529	3092.8693	3102.4977	3164.3766	3186.994
O=C1OC2CC=CCC12	O=C1O[C@H]2CC=CC[C@@H]12	
InChI=1S/C7H8O2/c8-7-5-3-1-2-4-6(5)9-7/h1-2,5-6H,3-4H2	InChI=1S/C7H8O2/c8-7-5-3-1-2-4-6(5)9-7/h1-2,5-6H,3-4H2/t5-,6+/m1/s1
