18
gdb 19203	2.65392	2.61093	2.56995	1.5082	70.4	-0.2335	0.0153	0.2488	731.5965	0.157889	-347.816037	-347.809937	-347.808993	-347.845849	25.404	
C	-0.0288590687	 1.5453820138	 0.0148313117	-0.202562
C	 1.4332073283	 2.0707494582	-0.0091524049	-0.202477
C	 2.3710986811	 0.8444427321	-0.0546940811	 0.062124
O	 2.1455993246	 0.0791803465	 1.1485809673	-0.276626
C	 0.8280704562	-0.4608187172	 1.2124015016	-0.053256
C	 0.0053990983	-0.0079695574	-0.0155638309	-0.081187
C	 0.7716742727	-0.4433506617	-1.2403777533	-0.077225
C	 2.0273312025	 0.0075935697	-1.2629886435	-0.065764
H	-0.5458838986	 1.8773737945	 0.9214205225	 0.09707
H	-0.6003400147	 1.9196326324	-0.8385508911	 0.098586
H	 1.6167846437	 2.7178250844	-0.8721247512	 0.097287
H	 1.6598150285	 2.6474832418	 0.8923530789	 0.102505
H	 3.4220251741	 1.1354680628	-0.0178556929	 0.07159
H	 0.8895617047	-1.5568006674	 1.2541897094	 0.09185
H	 0.3492631879	-0.10974006	 2.1380354264	 0.09012
H	-1.0022829336	-0.4271747872	 0.0310222392	 0.06422
H	 0.3289132333	-1.077475889	-2.0007638139	 0.090747
H	 2.7498887398	-0.1963895261	-2.0450080343	 0.092997
159.8669	304.9025	361.9735	397.9712	428.7646	592.4617	653.4846	668.7145	723.6209	814.0768	820.748	834.482	882.6729	934.5471	963.5312	968.737	980.7493	1008.8012	1037.9162	1044.3793	1085.1732	1101.738	1138.1315	1184.7072	1212.1213	1239.5429	1258.198	1296.495	1326.2887	1337.3927	1341.4807	1365.878	1392.7542	1406.4135	1479.7771	1499.3472	1524.8113	1679.4882	2990.4423	3025.2332	3040.2801	3052.6185	3080.9673	3084.0655	3100.2574	3102.1057	3176.2371	3200.9671
C1CC2OCC1C=C2	C1C[C@H]2OC[C@@H]1C=C2	
InChI=1S/C7H10O/c1-3-7-4-2-6(1)5-8-7/h1,3,6-7H,2,4-5H2	InChI=1S/C7H10O/c1-3-7-4-2-6(1)5-8-7/h1,3,6-7H,2,4-5H2/t6-,7+/m1/s1
