19
gdb 7769	3.64928	1.66629	1.22332	2.2128	72.81	-0.2443	0.0274	0.2717	1024.0022	0.166367	-365.092907	-365.084946	-365.084002	-365.124992	30.218	
C	 0.0010901307	 1.5437031779	 0.0844411725	-0.403387
C	-0.0032536057	 0.0295809934	-0.0388957683	 0.138124
C	 0.7502924098	-0.5062220388	-1.2524060624	-0.223626
C	 0.7985094849	-2.0394256544	-1.2010293432	 0.051081
C	 1.7456300669	-2.6293434536	-2.2471026014	-0.385131
N	 1.1923032742	-2.5275521852	 0.1246112904	-0.277914
C	 1.0785998812	-1.7496710655	 1.114050213	 0.125329
O	 0.5855845062	-0.4896813645	 1.17461221	-0.240812
H	 1.0266405538	 1.9239127582	 0.1163805845	 0.126421
H	-0.5105947182	 1.9933816673	-0.771899932	 0.118985
H	-0.5109644715	 1.8562419342	 0.9984830692	 0.12862
H	-1.040256662	-0.334811867	-0.0691480072	 0.086918
H	 0.2681764071	-0.1558480797	-2.1714125852	 0.101105
H	 1.772255244	-0.1055023761	-1.2450695068	 0.104743
H	-0.2103604251	-2.4291573515	-1.4029738517	 0.083563
H	 2.7689058363	-2.2771226654	-2.0799442012	 0.11644
H	 1.7503514255	-3.7200452782	-2.1779698599	 0.125244
H	 1.4417447136	-2.3409263633	-3.2589268917	 0.104061
H	 1.4055605382	-2.0608668379	 2.1053550915	 0.120238
105.0148	141.785	233.9221	236.8053	260.953	355.5154	375.9179	447.5624	477.4949	507.2118	588.9833	778.8605	825.3593	856.3744	900.8925	942.5258	954.6924	969.5796	999.8872	1056.5717	1117.6365	1139.0359	1165.4439	1169.5312	1193.1837	1244.7205	1293.5005	1346.2834	1368.5253	1378.322	1395.0051	1404.2324	1412.6982	1417.081	1475.8737	1484.856	1487.5532	1498.2328	1499.1288	1729.182	2988.2447	3001.5992	3027.2809	3035.6985	3043.1563	3078.2068	3104.7098	3118.2373	3121.8884	3122.2725	3149.6269
CC1CC(C)N=CO1	C[C@H]1C[C@@H](C)N=CO1	
InChI=1S/C6H11NO/c1-5-3-6(2)8-4-7-5/h4-6H,3H2,1-2H3	InChI=1S/C6H11NO/c1-5-3-6(2)8-4-7-5/h4-6H,3H2,1-2H3/t5-,6+/m1/s1
