20
gdb 13638	6.26017	0.79435	0.74885	0.1426	84.47	-0.2382	0.0649	0.303	1583.9331	0.175175	-311.838514	-311.828694	-311.82775	-311.874994	34.18	
C	-0.0651840717	 1.443786315	-0.3137604936	-0.496052
C	-0.0373783294	 0.0132017786	-0.0428587929	 0.078415
C	-0.0070405072	-1.1698116834	 0.1794681789	 0.059657
C	 0.0025034452	-2.6057136476	 0.4522764313	-0.381381
C	-1.3602756978	-3.2533557676	 0.2385652314	 0.022541
C	-1.7821751895	-3.7406213621	-1.1249706431	-0.282638
C	-1.5275271949	-4.7351791185	-0.0155360873	-0.007953
C	-0.3666215922	-5.7047254862	-0.0809386947	-0.403333
H	 0.7594804823	 1.742331078	-0.9708274887	 0.144342
H	-0.9997328763	 1.7387823823	-0.8041594655	 0.14493
H	 0.0210797465	 2.0282209247	 0.6092269597	 0.143914
H	 0.7526512578	-3.0897734214	-0.1843664313	 0.121187
H	 0.332623371	-2.7775026524	 1.4863455483	 0.123146
H	-2.141223528	-2.7922297226	 0.8367594744	 0.088423
H	-2.7992592672	-3.5626710971	-1.4566420479	 0.107621
H	-1.043440252	-3.6856291511	-1.9196093571	 0.108442
H	-2.4200247579	-5.1644204572	 0.4338257229	 0.081724
H	 0.5025379977	-5.2738142244	-0.5862817952	 0.115292
H	-0.0476335779	-6.0193579632	 0.9193715303	 0.115576
H	-0.6485922486	-6.6059046138	-0.6365854701	 0.116148
18.3847	44.743	81.4092	169.0525	206.1881	213.8375	257.6136	317.0645	380.972	401.646	458.1683	501.3444	759.9649	769.441	825.7877	865.1404	878.3278	928.6574	980.2431	1047.082	1053.4832	1056.1374	1072.5633	1110.8853	1145.46	1151.6732	1165.6724	1199.3386	1243.748	1254.956	1322.5609	1388.9326	1415.0469	1416.2537	1428.3045	1468.3463	1479.6735	1480.0458	1494.0016	1495.4142	1506.4496	2373.4347	3008.1144	3023.5869	3027.9858	3048.5234	3082.5942	3082.9679	3084.8662	3101.5357	3123.243	3129.3364	3145.3609	3207.4438
CC#CCC1CC1C	CC#CC[C@H]1C[C@H]1C	
InChI=1S/C8H12/c1-3-4-5-8-6-7(8)2/h7-8H,5-6H2,1-2H3	InChI=1S/C8H12/c1-3-4-5-8-6-7(8)2/h7-8H,5-6H2,1-2H3/t7-,8+/m1/s1
