16
gdb 24185	3.25856	2.27388	1.50884	1.8209	79.54	-0.2017	-0.0219	0.1798	843.4961	0.127975	-363.565907	-363.559983	-363.559039	-363.595798	25.134	
C	-0.1138944535	 1.5052515765	-0.1333183153	-0.175878
C	 1.4438000051	 1.7498458844	 0.0484179091	-0.145242
C	 2.0613250136	 2.2857962526	 1.3167785101	-0.106345
C	 2.1282130018	 1.3151735042	 2.2677114407	-0.15341
C	 1.4795449505	 0.0996524798	 1.7600632012	 0.09664
C	 1.3147094247	 0.3037138018	 0.4113380534	 0.102066
N	 0.0134581557	-0.0462183189	-0.0248626812	-0.118432
C	-0.5238253461	-0.7342143704	 1.0854173718	-0.092886
C	 0.3456692459	-0.7178596574	 2.146133024	-0.187546
H	-0.6955022167	 1.8870176922	 0.7020141553	 0.144802
H	-0.5210416286	 1.7982751227	-1.0996555536	 0.134391
H	 1.933705977	 2.069269258	-0.8717581386	 0.096939
H	 2.5295713975	 3.2616825315	 1.384621993	 0.095508
H	 2.5504407212	 1.4454536525	 3.2573309382	 0.10036
H	-1.4700630147	-1.2519930181	 1.0001753468	 0.108592
H	 0.1750449866	-1.2001896414	 3.0993538653	 0.10044
205.2772	320.2622	328.7504	474.9652	535.8057	616.9722	701.115	713.3371	719.9209	733.1993	799.7799	807.0264	848.5712	850.9563	891.5687	926.6353	946.4271	985.3857	1005.8564	1059.0702	1071.7138	1113.0395	1119.7692	1148.2668	1181.3891	1220.8119	1244.2791	1285.4744	1301.0361	1352.2755	1415.4007	1443.0286	1480.9999	1518.6014	1572.864	3097.3901	3108.9295	3184.9349	3188.5516	3208.5694	3212.7129	3233.818
C1C2C=CC3=C2N1C=C3	C1[C@H]2C=C[C]3[C]2N1C=C3	
InChI=1S/C8H7N/c1-2-7-5-9-4-3-6(1)8(7)9/h1-4,7H,5H2	InChI=1S/C8H7N/c1-2-7-5-9-4-3-6(1)8(7)9/h1-4,7H,5H2/t7-/m1/s1
