19
gdb 82425	2.27312	1.82501	1.21666	3.1484	74.2	-0.2558	-0.0261	0.2297	1054.7422	0.160797	-423.045457	-423.037484	-423.03654	-423.078133	31.209	
O	 0.0507403768	 1.3657551664	 0.2207950791	-0.442355
C	-0.0244193358	-0.0192115833	 0.0131880538	 0.042118
C	-1.4614734694	-0.5240585654	 0.0348609782	-0.04322
C	-2.3805444176	-0.1506372334	-1.0942483192	-0.279715
C	-1.9194011906	-1.5823064876	-0.955012028	-0.033498
C	-0.9547472372	-2.1804094679	-1.980595943	-0.238021
C	 0.5309186013	-1.8544341471	-1.6872488464	-0.293663
C	 0.6685974076	-0.4059639222	-1.2913483757	 0.349074
O	 1.2532647072	 0.436746359	-1.939073278	-0.336805
H	 0.5985457863	 1.6989336243	-0.5085756262	 0.289489
H	 0.5315489932	-0.5480672378	 0.8098001496	 0.087531
H	-1.8980545321	-0.5577039213	 1.0279808836	 0.094205
H	-3.4116110868	 0.0929959061	-0.8650091031	 0.114827
H	-1.9577077592	 0.4368727509	-1.9044045349	 0.121845
H	-2.6603474979	-2.2788876102	-0.5755912425	 0.090089
H	-1.0696777563	-3.267963194	-2.0078906382	 0.111697
H	-1.2058023449	-1.8197118112	-2.9841860609	 0.121215
H	 0.86804925	-2.4703023488	-0.8444816805	 0.121647
H	 1.1670771152	-2.0634449664	-2.5499483077	 0.12354
65.4023	122.1605	202.5793	307.1618	340.5577	397.8099	416.7474	442.0964	501.182	558.0511	644.4319	694.3774	763.9411	810.2831	840.4158	850.7013	887.483	948.6689	955.5326	1008.8942	1059.682	1064.1043	1106.8932	1120.6894	1131.7923	1135.9455	1165.5672	1220.3398	1235.4402	1239.9348	1272.4806	1322.6784	1345.0264	1370.7328	1378.2219	1405.1499	1443.0623	1474.5789	1492.8696	1502.9002	1801.7223	2931.0187	3037.205	3042.7973	3083.2809	3115.8159	3125.5648	3148.705	3158.8042	3212.6826	3677.4459
OC1C2CC2CCC1=O	O[C@H]1[C@H]2C[C@H]2CCC1=O	
InChI=1S/C7H10O2/c8-6-2-1-4-3-5(4)7(6)9/h4-5,7,9H,1-3H2	InChI=1S/C7H10O2/c8-6-2-1-4-3-5(4)7(6)9/h4-5,7,9H,1-3H2/t4-,5+,7+/m1/s1
