21
gdb 89796	3.17024	1.35725	1.13046	2.0363	82.16	-0.2293	0.0762	0.3055	1158.1588	0.184578	-383.229008	-383.220976	-383.220032	-383.261205	32.456	
C	 0.0000942561	 1.5861662128	-0.0102373912	-0.397352
C	 0.0560626294	 0.0642494362	 0.0045060584	 0.07282
C	 0.6973167726	-0.5850653173	-1.2472756933	-0.363172
C	 1.2671766639	-1.8926498677	-0.7044510441	 0.384516
C	 0.8087110182	-3.2167318573	-1.195017534	-0.301259
N	 2.1826514011	-2.7475628797	-1.4681054885	-0.371776
C	 1.5409700805	-1.6397169081	 0.754848536	-0.0758
C	 2.2446943683	-0.3769369611	 1.095925278	-0.263103
N	 0.7789688016	-0.4563545568	 1.1950957776	-0.105829
H	 1.0014009854	 2.0195616656	-0.10763751	 0.114482
H	-0.6037108032	 1.9428704058	-0.8508400575	 0.113728
H	-0.4436751107	 1.9619558739	 0.9159255818	 0.12785
H	-0.9654750211	-0.3233243041	 0.1055642458	 0.083987
H	-0.0255814057	-0.7373413831	-2.0529700498	 0.103352
H	 1.5003201481	 0.0467683584	-1.6473304387	 0.104155
H	 0.7453060206	-4.0609652005	-0.5128379365	 0.11862
H	 0.0893596644	-3.2389905858	-2.0101780981	 0.109017
H	 2.2493736005	-2.4133831821	-2.4268923412	 0.229208
H	 1.5775142204	-2.4910158718	 1.4283969972	 0.089756
H	 2.7529838128	-0.2857516376	 2.0511021051	 0.116637
H	 2.7004082369	 0.1943850004	 0.2914641029	 0.110163
104.6594	187.8983	230.3734	240.9749	298.2768	355.2914	404.1589	432.1978	515.3711	547.2373	614.4895	725.0808	780.4571	852.2749	862.2811	871.1688	910.7091	921.176	949.7912	956.8881	980.3756	1003.7493	1053.9233	1079.3293	1094.387	1106.4737	1122.9392	1138.2046	1147.8924	1169.9136	1203.0251	1255.8209	1270.9815	1284.4855	1311.6203	1326.8907	1360.7957	1376.3498	1408.8261	1433.4369	1486.7377	1490.4248	1497.5323	1512.4926	1516.7054	3019.3923	3030.4649	3035.7858	3091.1838	3099.4612	3102.261	3111.8492	3116.0353	3150.1149	3184.5761	3194.0488	3491.001
CC1CC2(CN2)C2CN12	C[C@H]1C[C@]2(CN2)[C@H]2CN12	
InChI=1S/C7H12N2/c1-5-2-7(4-8-7)6-3-9(5)6/h5-6,8H,2-4H2,1H3	InChI=1S/C7H12N2/c1-5-2-7(4-8-7)6-3-9(5)6/h5-6,8H,2-4H2,1H3/t5-,6+,7-,9?/m0/s1
