16
gdb 54997	4.28381	1.12717	1.00297	5.3381	64.77	-0.2594	-0.0105	0.2489	1167.5096	0.125004	-475.030092	-475.022081	-475.021136	-475.062995	29.607	
O	-0.0602862496	 0.2151995134	-0.704496214	-0.341451
C	-0.3412231736	 1.0564155223	 0.09716562	 0.492584
O	 0.4958037181	 1.4396517109	 1.1009794319	-0.237987
C	-1.6061178805	 1.8741991134	 0.1980152841	-0.248343
O	-2.2216294925	 1.7179718873	 1.4905244807	-0.285952
C	-1.3858062934	 2.8617418803	 1.2584499015	 0.431884
C	 0.0136828066	 2.608342877	 1.7913067269	-0.126058
N	-2.0430355766	 4.6337298178	 2.7660471339	-0.514944
H	-2.7084215916	 4.0641729918	 3.2808969896	 0.243214
H	-2.363313076	 5.5933934668	 2.8422251904	 0.237902
C	-2.0254140745	 4.2174597922	 1.3613705839	-0.2706
H	-2.2644068093	 1.978772939	-0.6567971492	 0.125994
H	 0.0190582995	 2.407047295	 2.8640402164	 0.143761
H	 0.6859397796	 3.4454874509	 1.5776414505	 0.126179
H	-1.4179245916	 4.9377099828	 0.8003735807	 0.118919
H	-3.0133736447	 4.171156859	 0.8769297127	 0.104899
73.7443	124.6164	188.3126	228.0523	265.6256	358.5901	385.14	419.4308	504.9115	627.2053	684.0351	734.9838	794.3259	842.6002	865.9591	892.9802	934.7778	984.2721	1029.6633	1055.847	1062.6165	1090.2364	1162.7966	1182.789	1231.7331	1244.0609	1260.807	1336.955	1385.7807	1412.9103	1474.6066	1490.6862	1499.4527	1660.0937	1887.173	2980.2655	3056.1794	3061.9439	3123.5537	3192.4106	3498.7712	3579.5829
[O-]C(=O)C1OC11C[NH2+]C1	O=C1OC[C@]2([C@@H]1O2)CN	
InChI=1S/C5H7NO3/c7-4(8)3-5(9-3)1-6-2-5/h3,6H,1-2H2,(H,7,8)	InChI=1S/C5H7NO3/c6-1-5-2-8-4(7)3(5)9-5/h3H,1-2,6H2/t3-,5+/m1/s1
