23
gdb 59576	2.92691	1.22579	1.03656	1.5893	85.04	-0.2359	0.0746	0.3105	1283.3755	0.205594	-388.267579	-388.258382	-388.257438	-388.301639	35.351	
C	-0.1079842552	 1.4415750613	-0.2491779974	-0.393807
C	 0.0001612284	-0.0712638518	-0.0131285558	 0.009901
C	 0.8613094812	-0.3987667781	 1.2138135393	-0.396116
C	-1.389095029	-0.6757058139	 0.1391478607	 0.164215
O	-2.2354089238	-0.4811473476	-1.0288422248	-0.322078
C	-2.6333289903	-1.8674321999	-1.0321124751	 0.126997
C	-1.821297218	-2.7187256768	-2.032516779	-0.229039
C	-0.7874816886	-3.030785381	-0.9034634352	-0.235804
C	-1.6308494376	-2.202466854	 0.1078523113	-0.116075
H	 0.878187538	 1.8816872984	-0.4292893653	 0.106189
H	-0.7439463824	 1.6529655754	-1.1126408711	 0.135364
H	-0.5434414801	 1.9436849244	 0.6232045237	 0.108647
H	 0.4668983645	-0.51643359	-0.9009251734	 0.074393
H	 0.9663015514	-1.47901202	 1.3595947711	 0.115783
H	 1.8655500318	 0.0238904663	 1.1095597348	 0.114644
H	 0.4200279401	 0.020058999	 2.1260998405	 0.113784
H	-1.8754366179	-0.2241856726	 1.0197569868	 0.065673
H	-3.7192416276	-1.9882789918	-0.9836485111	 0.071053
H	-2.3516397947	-3.6036983435	-2.3950426308	 0.098464
H	-1.4534602373	-2.1482258224	-2.8880754332	 0.109111
H	-0.7455913731	-4.0906126594	-0.6424871522	 0.102906
H	 0.2351381776	-2.6877803062	-1.0741271828	 0.104528
H	-1.8991627275	-2.6809423658	 1.048879599	 0.071269
70.1418	79.53	162.368	227.5822	233.3879	256.3215	308.4935	379.2671	386.0604	455.1182	500.6765	666.1161	728.9832	774.1456	831.5761	846.2192	886.8502	928.4754	929.804	939.5951	953.6891	969.9706	998.5761	1027.9826	1046.2462	1079.5243	1108.3649	1140.4854	1172.6717	1183.8131	1202.3732	1211.0954	1236.5959	1257.6694	1273.5311	1301.0078	1312.291	1321.8873	1334.2948	1351.17	1395.8019	1408.3294	1424.0378	1461.9812	1488.7481	1490.016	1492.2546	1504.4718	1513.6889	2959.5666	3025.587	3025.9851	3031.396	3055.456	3065.8804	3070.9981	3090.1369	3095.1553	3101.84	3106.5007	3115.735	3120.7943	3126.9877
CC(C)C1OC2CCC12	CC(C)[C@H]1O[C@H]2CC[C@@H]12	
InChI=1S/C8H14O/c1-5(2)8-6-3-4-7(6)9-8/h5-8H,3-4H2,1-2H3	InChI=1S/C8H14O/c1-5(2)8-6-3-4-7(6)9-8/h5-8H,3-4H2,1-2H3/t6-,7+,8-/m1/s1
