15
gdb 7725	3.33714	1.87357	1.28292	4.3803	61.95	-0.2455	-0.0263	0.2193	906.1231	0.119924	-399.864611	-399.857397	-399.856452	-399.896697	26.647	
O	 0.0514521251	 0.3683108521	-1.017042029	-0.299951
C	-0.0170503481	 1.2451212469	-0.1924147413	 0.391401
C	-1.3432037802	 1.8990565481	 0.1921072158	-0.297856
C	-1.2250313958	 2.7914740142	 1.431013323	-0.186959
N	-0.0821630081	 3.6819369325	 1.2965418021	-0.298742
C	 1.1558309587	 3.2660217981	 0.8922551987	 0.381502
O	 2.1202465551	 4.0005008475	 0.8370404834	-0.359625
C	 1.2161192149	 1.7830066429	 0.526930225	-0.421555
H	-1.6540086351	 2.5038928466	-0.6688919348	 0.146821
H	-2.0968400182	 1.1175948729	 0.3236154688	 0.137166
H	-2.1240513486	 3.4017505662	 1.5446103509	 0.127086
H	-1.1444219814	 2.1734378705	 2.3380012399	 0.117704
H	-0.1408919946	 4.6352245441	 1.6204335352	 0.254023
H	 1.3003830601	 1.2195854913	 1.4692993101	 0.152475
H	 2.115648646	 1.5829712361	-0.0543999877	 0.15651
57.2154	100.9995	239.1081	386.824	408.5771	431.0205	487.5791	523.9169	534.4117	593.8847	668.0047	741.8689	849.1952	891.5402	937.2638	966.9482	1056.365	1091.6966	1152.9555	1175.3233	1231.6498	1252.5693	1275.0955	1335.6776	1347.3328	1393.5936	1430.682	1437.6706	1466.6782	1517.4859	1807.0696	1828.7088	2990.7731	3010.3213	3043.3019	3097.337	3103.6108	3147.8295	3628.5005
O=C1CCNC(=O)C1	O=C1CCNC(=O)C1	
InChI=1S/C5H7NO2/c7-4-1-2-6-5(8)3-4/h1-3H2,(H,6,8)	InChI=1S/C5H7NO2/c7-4-1-2-6-5(8)3-4/h1-3H2,(H,6,8)
