17
gdb 23143	2.02442	1.39551	0.94964	2.9974	74.35	-0.2367	-0.0465	0.1902	1235.7793	0.134525	-455.076817	-455.067674	-455.06673	-455.111383	32.739	
O	 0.0130543571	 1.3528893876	 0.1771927563	-0.39005
N	 0.0599853584	-0.0424471481	 0.0865067011	-0.182609
C	-1.0950823768	-0.5685772529	-0.1019754062	 0.337021
C	-1.0863712397	-2.0841318679	-0.1789038467	-0.369792
C	-1.4012484653	-2.6712833211	 1.1901591661	 0.15248
O	-2.5026331612	-3.0192074663	 1.5346118525	-0.226553
C	-2.3698084199	 0.1864691448	-0.190445358	-0.075404
C	-3.3884874716	-0.1682393484	-1.2295743686	-0.23909
N	-3.6656909068	-0.4194128637	 0.1772207276	-0.322084
H	 0.936613001	 1.5767841108	 0.3322337739	 0.31085
H	-1.8274237719	-2.4532312189	-0.8929044495	 0.13141
H	-0.0885663145	-2.4041281908	-0.4878736385	 0.141228
H	-0.536118072	-2.7295395967	 1.8833395743	 0.107878
H	-2.278552924	 1.2276769711	 0.0915937544	 0.124781
H	-3.962830651	 0.6335632024	-1.6852273623	 0.128503
H	-3.1780626303	-1.0039517853	-1.8928990525	 0.11607
H	-3.5678621517	-1.4054819165	 0.4133980163	 0.255359
64.0842	93.5224	110.2394	173.889	233.332	283.9578	286.3862	332.8355	419.6352	459.2459	509.6892	609.1852	670.641	726.4778	823.9732	884.8406	920.4553	954.2287	975.9583	1002.3098	1026.0924	1067.4931	1100.7476	1146.4858	1178.3514	1205.3312	1272.1843	1282.2889	1303.8737	1308.3706	1369.6827	1411.7984	1421.4995	1466.8703	1513.8998	1700.4565	1818.7737	2920.1163	3066.3528	3106.0606	3128.661	3187.4121	3200.0273	3489.6993	3822.2304
ON=C(CC=O)C1CN1	ON=C(CC=O)[C@H]1CN1	
InChI=1S/C5H8N2O2/c8-2-1-4(7-9)5-3-6-5/h2,5-6,9H,1,3H2	InChI=1S/C5H8N2O2/c8-2-1-4(7-9)5-3-6-5/h2,5-6,9H,1,3H2/t5-/m1/s1
