19
gdb 62932	2.76094	1.66467	1.55234	2.1849	69.86	-0.2369	0.0776	0.3144	962.7355	0.159798	-460.139371	-460.131469	-460.130525	-460.171152	31.819	
C	-0.0777106247	 1.5429190473	-0.0230631809	-0.450952
C	 0.0098646108	 0.0253075968	-0.0242472148	 0.441007
O	-1.2649340875	-0.4602331297	-0.3113784123	-0.481674
C	 1.2263948414	-0.5722171434	-0.8375451947	 0.045282
C	 2.0766793072	-0.4113528753	 0.451452538	-0.307782
C	 0.7391603934	-0.6310129123	 1.2010520131	 0.039098
O	 0.3668207075	-2.0231070227	 1.1856219	-0.295786
C	 0.965500537	-2.7122318394	 0.1002556887	 0.001074
O	 0.9518295968	-1.9560108516	-1.0882446239	-0.274373
H	 0.8874014267	 2.0292139256	 0.1328158677	 0.113779
H	-0.4797102845	 1.8799661301	-0.9833770937	 0.133467
H	-0.7646636388	 1.8732065506	 0.7619126503	 0.128166
H	-1.2697156835	-1.3894763152	-0.0501341498	 0.287026
H	 1.5377461678	-0.1263420017	-1.7835049049	 0.081084
H	 2.9016238235	-1.1010440359	 0.6279891946	 0.115958
H	 2.4406651971	 0.6075813301	 0.5755070831	 0.119561
H	 0.5833420382	-0.2657107504	 2.2178026858	 0.081114
H	 1.9949611223	-2.9943854976	 0.3644083627	 0.100397
H	 0.3777092393	-3.6170750252	-0.074814099	 0.123552
152.2389	182.649	226.1645	268.2012	345.9545	355.5624	404.6242	443.3658	488.2721	536.4965	548.3078	646.9707	687.6541	821.0178	833.2114	855.8605	902.5306	931.5139	983.4706	988.0634	998.237	1063.4978	1099.9444	1113.7887	1144.8985	1160.4852	1178.6163	1187.3801	1238.3537	1242.6391	1261.5616	1290.3413	1334.5996	1350.2312	1396.8918	1421.3087	1435.818	1481.0685	1485.8395	1501.5629	1547.5473	2989.1293	3045.6434	3091.8877	3095.1908	3098.5922	3108.9543	3111.6737	3129.9332	3155.7991	3779.8453
CC1(O)C2CC1OCO2	C[C@@]1(O)[C@H]2C[C@@H]1OCO2	
InChI=1S/C6H10O3/c1-6(7)4-2-5(6)9-3-8-4/h4-5,7H,2-3H2,1H3	InChI=1S/C6H10O3/c1-6(7)4-2-5(6)9-3-8-4/h4-5,7H,2-3H2,1H3/t4-,5+,6-
