20
gdb 96263	2.28713	1.53382	0.99512	2.3298	77.37	-0.2547	0.0269	0.2817	1213.6308	0.171891	-440.299624	-440.291021	-440.290077	-440.332934	32.92	
C	 0.1228122138	 1.5746415195	 0.0392262115	-0.401057
C	-0.0312971065	 0.0592837546	-0.0041753804	 0.119595
C	 0.6971984102	-0.5452740774	-1.2250684895	-0.286849
C	 0.2594968029	-1.9382472725	-1.6066008356	 0.371339
N	-0.2700186475	-2.1558270146	-2.7379941643	-0.504099
O	 0.4220952784	-2.9567963454	-0.7118378759	-0.248216
C	 1.0450578668	-2.7353591802	 0.5551402322	-0.09347
C	 0.2717584725	-1.7960146764	 1.4770476518	-0.083994
O	 0.489085823	-0.426540804	 1.2279498954	-0.251117
H	 1.1817486453	 1.8507897408	 0.0653551452	 0.124383
H	-0.335975628	 2.0347788151	-0.8400209011	 0.122434
H	-0.3570604967	 1.9732717935	 0.9364076801	 0.126161
H	-1.1019555949	-0.1975802267	-0.0702970997	 0.080619
H	 0.5074625348	 0.0711859343	-2.1048751443	 0.135149
H	 1.775188375	-0.5159967463	-1.0230683268	 0.118959
H	-0.506088876	-3.1472246617	-2.8249196838	 0.216106
H	 1.087924272	-3.7294050662	 1.0091963551	 0.121016
H	 2.072958295	-2.372984478	 0.4297865853	 0.117548
H	-0.8001804397	-2.047954019	 1.4207348632	 0.102068
H	 0.6079059297	-1.9672706593	 2.5054878015	 0.113426
69.6063	136.4226	196.2239	222.9845	284.352	329.3874	343.1024	379.1244	445.4106	484.2717	540.8095	568.6434	652.111	789.5374	840.047	873.6884	919.8143	925.8336	951.9853	974.9042	1037.2837	1078.1663	1099.2334	1127.5871	1147.5029	1153.8898	1177.0599	1225.6129	1275.0109	1304.3259	1326.4366	1347.8029	1374.9589	1388.1906	1410.0977	1414.625	1416.8809	1461.2219	1477.6554	1485.0577	1493.7637	1499.5379	1739.9333	2964.5056	2977.597	3030.7842	3041.1497	3045.4312	3074.0322	3098.1782	3117.7068	3125.4575	3131.205	3455.0761
CC1CC(=N)OCCO1	C[C@H]1C[C]([NH])OCCO1	
InChI=1S/C6H11NO2/c1-5-4-6(7)9-3-2-8-5/h5,7H,2-4H2,1H3	InChI=1S/C6H11NO2/c1-5-4-6(7)9-3-2-8-5/h5,7H,2-4H2,1H3/t5-/m0/s1
