15
gdb 5242	6.9655	1.16475	1.05637	1.334	64.22	-0.2438	-0.0027	0.2411	1106.7688	0.119269	-399.813716	-399.806192	-399.805248	-399.846594	25.979	
C	-0.0185858194	 1.343432214	-0.1427930935	-0.222871
O	 0.0160662393	-0.0652187485	-0.1152241278	-0.233159
C	-1.2398919923	-0.626871498	 0.2022419476	-0.168741
C	-1.134027257	-2.1117545203	 0.1762187001	 0.386461
N	-1.3074523705	-2.9421942417	 1.1560472187	-0.299298
C	-1.1094202235	-4.1946536307	 0.5895413905	-0.113322
C	-0.8202923146	-4.0428453697	-0.7236325598	-0.036436
O	-0.8377762981	-2.7082634104	-1.0062868339	-0.161743
H	 0.9855972914	 1.6859254701	-0.401782268	 0.13306
H	-0.7296991534	 1.7193097187	-0.8955304422	 0.106355
H	-0.2985209421	 1.7649166916	 0.8353321052	 0.108691
H	-1.5747606896	-0.3367926254	 1.2081698043	 0.123747
H	-2.0028306899	-0.2905627267	-0.5206930431	 0.105665
H	-1.187333991	-5.1008850635	 1.1684374258	 0.125284
H	-0.5916789892	-4.7061843696	-1.5397587438	 0.146306
54.3788	87.0847	124.3861	230.2987	319.5289	345.7459	399.2004	633.9822	704.2856	771.7212	806.1671	865.3783	933.9288	944.3669	988.1967	1017.353	1114.3706	1143.2708	1150.973	1166.7964	1183.5124	1222.8325	1241.2675	1281.4897	1381.3406	1419.2733	1478.383	1485.465	1496.5262	1517.2998	1551.0842	1625.5102	2959.3556	2973.1828	3017.0119	3029.9966	3121.7133	3265.8686	3300.3364
COCC1=NC=CO1	COCc1ncco1	
InChI=1S/C5H7NO2/c1-7-4-5-6-2-3-8-5/h2-3H,4H2,1H3	InChI=1S/C5H7NO2/c1-7-4-5-6-2-3-8-5/h2-3H,4H2,1H3
