17
gdb 97118	2.78741	1.25633	0.92321	1.8052	71.92	-0.2508	0.0085	0.2593	1249.405	0.135751	-455.175007	-455.165833	-455.164889	-455.209867	32.33	
C	 0.0841374698	 1.2835252659	 0.2332514457	-0.343299
N	-0.0603736807	-0.1625082072	 0.3471733599	-0.347247
C	-1.1401604241	-0.7053328507	 0.0174693463	 0.476731
O	-2.3110433905	-0.1850479015	-0.4892978018	-0.267246
C	-2.8779660751	-1.5309340193	-0.6580679988	-0.092158
C	-1.6048442943	-2.1437518849	-0.0503522131	-0.271194
C	-0.7929028921	-3.0987427973	-0.9259640646	 0.377953
N	 0.546286223	-2.9974466416	-0.7221820963	-0.518943
O	-1.3266830257	-3.8831335637	-1.6846221928	-0.361889
H	 0.9557744704	 1.5086435513	-0.3902863251	 0.129832
H	-0.793320735	 1.7821417988	-0.1929518045	 0.133131
H	 0.2808200171	 1.7047066119	 1.2250449277	 0.132691
H	-3.7994117381	-1.6369436651	-0.0837533587	 0.126465
H	-3.0422865973	-1.7641488713	-1.7108682716	 0.14693
H	-1.7453243225	-2.6006229322	 0.9328347439	 0.138796
H	 0.915211105	-2.1842247235	-0.2453830704	 0.277966
H	 1.1546801401	-3.5435847495	-1.3110112057	 0.261481
61.4384	72.9716	119.5693	129.8791	193.6447	247.2653	300.2618	399.522	442.1793	495.8452	580.9639	623.898	658.3931	699.8222	762.6513	820.3892	941.8601	958.6446	1029.9717	1065.9821	1086.0537	1127.8912	1131.9211	1137.3443	1146.8369	1182.7707	1217.784	1273.0375	1346.7247	1362.8057	1440.9561	1493.8622	1497.4129	1518.9025	1629.9018	1805.8286	1836.8146	3022.7886	3082.5136	3087.4141	3087.9821	3095.6959	3150.1475	3529.9896	3689.3426
CN=C1OCC1C(N)=O	CN=C1OC[C@H]1C(=O)N	
InChI=1S/C5H8N2O2/c1-7-5-3(2-9-5)4(6)8/h3H,2H2,1H3,(H2,6,8)	InChI=1S/C5H8N2O2/c1-7-5-3(2-9-5)4(6)8/h3H,2H2,1H3,(H2,6,8)/t3-/m0/s1
