20
gdb 75445	2.4693	1.31793	0.92883	3.7462	83.67	-0.2382	0.0189	0.257	1291.0721	0.172181	-403.198274	-403.189519	-403.188575	-403.231965	32.77	
C	 0.0019271893	 1.5149090558	 0.0736276211	-0.472962
C	-0.029324972	 0.0163834391	-0.0427590366	 0.292557
C	-0.0803664939	-0.6245441962	-1.2122629249	-0.145223
C	-0.0770306554	-2.1253797596	-1.3414959641	-0.247509
C	 0.4361498069	-2.7781460061	-0.052765727	-0.187164
N	-0.1780541656	-2.1623054236	 1.1088310955	-0.048426
C	 0.0015731769	-0.7277508594	 1.2713902285	-0.241854
C	-0.9310420676	-2.8610679583	 2.0006856075	 0.149092
O	-1.4785524328	-2.3942614007	 2.9788268719	-0.346562
H	 0.8930672294	 1.8522648125	 0.6187178574	 0.125916
H	 0.0054798989	 1.9920498083	-0.9095172294	 0.12367
H	-0.8647030499	 1.8885142637	 0.6335972541	 0.130763
H	-0.127304278	-0.047970631	-2.1332356651	 0.082562
H	-1.0881370409	-2.4913640067	-1.5694846932	 0.116836
H	 0.5555396156	-2.4333629421	-2.1831390786	 0.107006
H	 0.218883851	-3.8499806924	-0.0333659543	 0.115046
H	 1.5276482466	-2.6617687918	 0.0050489969	 0.110947
H	 0.9496886297	-0.5151969882	 1.7938204431	 0.113933
H	-0.7944904317	-0.3805655959	 1.9378625617	 0.151478
H	-0.9942234267	-3.9341665374	 1.7299000054	 0.069894
61.9546	116.7686	178.6708	227.2574	254.4447	314.7665	329.8214	370.1834	434.2656	442.7041	490.4998	622.0214	677.2038	797.9791	845.5097	891.0815	925.0967	950.5051	992.7993	1021.6404	1030.8502	1063.6613	1081.4983	1083.9343	1168.6056	1204.1461	1218.5331	1248.4949	1283.9484	1342.4197	1367.6652	1391.8935	1403.1991	1415.0291	1434.3704	1457.4643	1476.6254	1478.5841	1487.7512	1492.3449	1498.1785	1744.0801	1790.7338	2928.7425	2963.6822	3001.7779	3010.559	3017.2635	3050.8776	3063.2637	3078.4739	3087.6884	3115.8325	3151.2574
CC1=CCCN(C1)C=O	CC1=CCCN(C1)C=O	
InChI=1S/C7H11NO/c1-7-3-2-4-8(5-7)6-9/h3,6H,2,4-5H2,1H3	InChI=1S/C7H11NO/c1-7-3-2-4-8(5-7)6-9/h3,6H,2,4-5H2,1H3
