13
gdb 8725	4.11375	1.37838	1.11791	3.2983	65.41	-0.2856	-0.0922	0.1934	1012.0611	0.092285	-361.444727	-361.436131	-361.435187	-361.47837	29.528	
C	-0.1369777405	 1.4255525416	 0.1185915464	-0.406769
C	 0.0654863568	-0.1055777678	-0.0342915602	-0.295511
C	 0.7547793942	-0.44991376	-1.2687845965	 0.331503
C	 1.312856583	-0.7096011216	-2.2992325527	-0.427104
C	 0.7984166671	-0.6535733947	 1.1927791818	 0.310639
O	 1.8940039403	-1.1434425072	 1.203118612	-0.247228
C	 0.0268739567	-0.5271154174	 2.4522241941	 0.23091
N	-0.5830732901	-0.4349837002	 3.4303411584	-0.301598
H	 0.8279178855	 1.937981596	 0.125502177	 0.149874
H	-0.7212530116	 1.7973949769	-0.724997661	 0.149961
H	-0.6720385837	 1.6562325915	 1.0433972578	 0.15028
H	-0.9303290559	-0.5729885119	-0.0240393689	 0.146477
H	 1.8092238582	-0.9502473351	-3.2071239681	 0.208567
39.7762	120.7933	164.7766	195.6112	216.4514	251.1137	315.6529	381.8516	483.5882	516.7578	594.9945	647.5588	664.2423	718.5261	788.7721	870.8095	1033.193	1035.6307	1066.2059	1142.7721	1274.8294	1345.607	1407.0437	1492.7063	1498.8335	1811.1695	2249.3353	2336.0719	3006.462	3055.2021	3136.168	3143.7005	3502.2898
CC(C#C)C(=O)C#N	C[C@@H](C#C)C(=O)C#N	
InChI=1S/C6H5NO/c1-3-5(2)6(8)4-7/h1,5H,2H3	InChI=1S/C6H5NO/c1-3-5(2)6(8)4-7/h1,5H,2H3/t5-/m0/s1
