20
gdb 16180	4.00257	1.53626	1.33089	1.3497	74.51	-0.2576	0.0766	0.3343	996.1628	0.178831	-349.005076	-348.997287	-348.996343	-349.036982	30.376	
O	-0.0654711912	 1.3792797887	 0.4895641309	-0.423077
C	 0.0245742404	 0.0077862564	 0.1150050859	-0.181361
C	-1.3648057574	-0.5187056017	-0.1010691424	 0.396084
C	-2.1537856558	-1.0281424239	 1.0828302794	-0.324527
C	-1.6903302948	-1.9952005677	 0.0195320043	-0.082445
C	-2.6754891916	-2.3606467459	-1.0825885632	-0.212877
C	-3.2815503393	-1.0099619055	-1.5310473671	-0.229419
C	-2.1757933453	 0.0377770653	-1.2677125468	-0.2585
H	 0.8264837961	 1.7373153389	 0.5260537482	 0.284267
H	 0.6107032521	-0.1032553275	-0.8129182677	 0.079235
H	 0.529858897	-0.5838233461	 0.895858761	 0.077496
H	-1.6361923264	-1.056437269	 2.035947313	 0.107041
H	-3.2089885242	-0.7885368948	 1.165183681	 0.106564
H	-0.9209132715	-2.7132993512	 0.2853107695	 0.074545
H	-2.1309019626	-2.8313915872	-1.9104063966	 0.095699
H	-3.4424656053	-3.0722200174	-0.7574396096	 0.095218
H	-3.6043613463	-1.0235140717	-2.5754399786	 0.094786
H	-4.1699675651	-0.7790003756	-0.9350328221	 0.104495
H	-2.5784803937	 1.0352715955	-1.0690130811	 0.107002
H	-1.5163777151	 0.1271297703	-2.1413026079	 0.089774
91.4869	154.3072	234.5356	256.9853	281.4667	350.2143	390.9523	432.9312	605.3652	625.3399	700.9209	813.2071	839.7025	885.3105	897.7877	921.3357	943.1423	968.195	985.6177	1027.5249	1046.1303	1061.3813	1078.825	1083.4033	1121.3234	1174.2382	1197.2294	1225.8562	1243.7952	1256.9271	1280.3717	1307.0034	1325.6233	1342.7302	1356.9065	1407.1477	1466.3737	1490.8225	1494.0357	1495.7822	1512.6851	1522.3002	2951.4976	2981.4343	3020.6769	3027.8079	3051.7301	3068.1068	3082.5767	3098.603	3127.8857	3155.6857	3209.0632	3825.5769
OCC12CC1CCC2	OC[C@]12C[C@H]1CCC2	
InChI=1S/C7H12O/c8-5-7-3-1-2-6(7)4-7/h6,8H,1-5H2	InChI=1S/C7H12O/c8-5-7-3-1-2-6(7)4-7/h6,8H,1-5H2/t6-,7+/m1/s1
