16
gdb 34344	2.92034	1.60483	1.31139	3.1074	72.46	-0.2792	0.0095	0.2886	978.3288	0.125034	-400.700767	-400.69365	-400.692706	-400.73226	27.956	
N	-0.0082404759	-1.1713885258	 0.009528208	-0.340646
C	-0.0046779737	-0.0139119534	 0.0066231837	 0.188375
C	-0.002417572	 1.4249834943	 0.0107974067	 0.174765
C	-0.4625550809	 2.1985266532	-1.2711790619	-0.277332
C	 0.8742908274	 3.0012605545	-1.2759109102	-0.2234
C	 1.3428119483	 2.2549262839	 0.0044008729	-0.115686
C	 0.9201068832	 2.8629656319	 1.3614822445	 0.027896
O	-0.3519824923	 3.5033642405	 1.1828851864	-0.232601
C	-0.335300588	 2.096015112	 1.3837285678	-0.036675
H	-0.5897017705	 1.5400721185	-2.1313207261	 0.126399
H	-1.3666405091	 2.7898919971	-1.1262595335	 0.127171
H	 1.5027405365	 2.7916541746	-2.1432653863	 0.113421
H	 0.768036093	 4.0805595413	-1.1619295442	 0.12218
H	 2.3020327808	 1.7398910025	 0.0030897348	 0.103146
H	 1.5462064026	 3.2339631029	 2.1641361884	 0.118843
H	-0.9343932392	 1.6866358719	 2.1887197089	 0.124144
132.6833	157.0186	207.0771	288.7124	394.0666	479.1305	530.5238	547.0143	623.7174	701.1191	742.6163	806.0429	823.6578	852.2729	879.5095	917.6867	949.2155	975.8143	1014.5729	1025.4472	1052.8725	1094.4464	1117.9145	1139.1731	1201.1276	1226.5233	1239.0326	1251.5836	1269.3862	1296.49	1307.2585	1377.7627	1461.9629	1481.5074	2343.3195	3080.6575	3088.9353	3130.7844	3137.8245	3153.7537	3184.38	3198.9633
N#CC12CCC1C1OC21	N#C[C@]12CC[C@H]1[C@H]1O[C@@H]21	
InChI=1S/C7H7NO/c8-3-7-2-1-4(7)5-6(7)9-5/h4-6H,1-2H2	InChI=1S/C7H7NO/c8-3-7-2-1-4(7)5-6(7)9-5/h4-6H,1-2H2/t4-,5+,6+,7+/m0/s1
