21
gdb 89246	2.39436	1.78178	1.30809	1.2503	81.49	-0.2277	0.0686	0.2963	1058.4444	0.182528	-387.035679	-387.027413	-387.026469	-387.067734	33.768	
C	-0.0267443146	 1.5092033048	 0.0226226736	-0.491741
C	 0.0056909387	-0.002573383	-0.0025909126	 0.378795
C	-1.3569013989	-0.7658357995	-0.0529398713	-0.357016
C	-0.965823505	-1.5239576515	 1.2649079041	 0.114543
O	-0.9306410624	-2.9348730518	 1.2584757091	-0.424795
C	 0.4252448929	-0.8340374805	 1.2527800873	-0.091534
C	 1.6000996802	-1.4366563648	 0.4555351952	-0.044845
C	 1.1829072823	-2.1178974482	-0.8154268122	-0.297044
C	 1.198543663	-0.617272764	-0.7831418777	-0.106872
H	 0.9565948454	 1.9198388635	 0.2792278791	 0.115746
H	-0.3084958922	 1.9144804665	-0.9575021301	 0.114491
H	-0.7493431813	 1.8826322848	 0.7568370214	 0.108749
H	-2.2329983606	-0.1192643529	 0.0535232326	 0.090207
H	-1.5040047953	-1.4108273667	-0.9225024364	 0.100327
H	-1.5636293493	-1.1598790269	 2.1127599202	 0.066042
H	-1.8382550538	-3.2553250299	 1.2652583201	 0.282323
H	 0.7283047649	-0.3346248748	 2.1745018309	 0.05918
H	 2.5852909521	-1.5950940427	 0.8774744646	 0.081186
H	 2.0066263985	-2.5561312743	-1.3719278538	 0.104475
H	 0.2674948646	-2.694251016	-0.8632722428	 0.122467
H	 1.8274418807	-0.0432903921	-1.4557331213	 0.075315
148.0048	217.9205	229.6042	243.1126	279.5394	291.6003	331.7211	433.3557	456.212	530.1026	621.7699	675.416	744.9879	761.4938	815.8919	843.5601	896.8412	903.7197	924.8515	949.5131	966.5045	991.8355	1009.0236	1051.2061	1055.9359	1065.8822	1083.509	1130.6935	1154.6635	1177.7669	1188.3785	1197.5063	1219.5126	1231.7326	1258.294	1309.5262	1317.5057	1330.407	1367.4389	1409.0028	1423.8922	1471.2003	1489.8535	1494.1455	1504.5398	2986.1379	3014.8925	3051.9681	3076.8105	3088.2132	3092.3556	3109.4387	3131.8607	3157.9236	3178.0175	3219.5632	3814.1533
CC12CC(O)C1C1CC21	C[C@]12C[C@@H](O)[C@H]1[C@H]1C[C@@H]21	
InChI=1S/C8H12O/c1-8-3-6(9)7(8)4-2-5(4)8/h4-7,9H,2-3H2,1H3	InChI=1S/C8H12O/c1-8-3-6(9)7(8)4-2-5(4)8/h4-7,9H,2-3H2,1H3/t4-,5+,6+,7+,8+/m0/s1
