19
gdb 115999	1.88733	1.54379	0.92855	2.7095	79.88	-0.2505	-0.0579	0.1926	1263.7328	0.159214	-423.051415	-423.042408	-423.041464	-423.085595	32.837	
O	 0.8869247475	-0.5355966059	-1.0224984851	-0.415972
C	 0.1686300538	-0.285646241	 0.1758076881	-0.081215
C	-1.3550459703	-0.4131557414	-0.0136933389	-0.123403
C	-1.7930285488	-1.8372604585	-0.4513010836	-0.232187
C	-2.312671291	-2.5322606944	 0.836249317	-0.2591
C	-2.5955430911	-1.3790348224	 1.7594985581	-0.147182
C	-2.0943670828	-0.2232731118	 1.2968597153	 0.239089
C	-2.2148230135	 1.0600442521	 1.9897010508	 0.068195
O	-1.7308344193	 2.0996896434	 1.5937373942	-0.278864
H	 0.7022321862	 0.187475836	-1.6306307427	 0.284068
H	 0.5163874331	-1.0392080154	 0.8919074806	 0.104243
H	 0.4024373602	 0.7035581548	 0.5904435842	 0.115964
H	-1.6578917258	 0.3479425492	-0.7435087382	 0.079447
H	-2.607516977	-1.767523426	-1.178295658	 0.104358
H	-0.9734179443	-2.3744520315	-0.9328220129	 0.1221
H	-3.1981341073	-3.1531637846	 0.659695784	 0.116306
H	-1.5643533842	-3.2004022602	 1.2858863621	 0.124002
H	-3.127416285	-1.484610491	 2.7005390309	 0.110035
H	-2.8053915403	 1.0256866886	 2.9326332941	 0.070116
79.3192	109.8425	124.6159	165.1806	213.278	287.3896	294.5906	314.9931	454.0161	482.8392	545.465	676.6188	728.6543	780.8615	850.3375	870.6494	927.4796	942.149	964.8087	999.8825	1039.8615	1053.9796	1077.1427	1095.5178	1147.7561	1175.5802	1219.1186	1251.9289	1259.3707	1309.6996	1316.935	1352.3374	1369.317	1395.1564	1411.6164	1420.3698	1471.9318	1500.2843	1508.8992	1677.2197	1776.4857	2878.8147	3011.6347	3019.724	3026.4093	3053.3667	3067.2713	3073.4734	3116.5096	3181.5941	3814.5634
OCC1CCC=C1C=O	OC[C@H]1CCC=C1C=O	
InChI=1S/C7H10O2/c8-4-6-2-1-3-7(6)5-9/h2,4,7,9H,1,3,5H2	InChI=1S/C7H10O2/c8-4-6-2-1-3-7(6)5-9/h2,4,7,9H,1,3,5H2/t7-/m1/s1
