17
gdb 124729	4.1478	0.99835	0.94696	1.4135	70.91	-0.2367	-0.0047	0.2319	1294.3524	0.13705	-451.330231	-451.32131	-451.320366	-451.364236	32.818	
C	 0.0217777237	 1.4765749886	-0.0579128564	-0.401352
C	-0.0007043822	-0.0661139744	-0.0450682555	-0.083394
N	 0.6951668257	-0.6900974503	 1.0868839309	-0.518615
C	-1.4158157074	-0.5620256698	-0.0730077743	 0.487441
N	-2.0749867567	-1.0609572444	-1.0735701917	-0.369488
C	-3.3142911812	-1.2886624721	-0.5109205551	 0.402046
N	-4.3543661807	-1.7728957795	-1.2597965479	-0.585861
N	-3.4218503204	-0.9629622439	 0.7573159265	-0.213633
O	-2.1314117659	-0.4571913552	 1.0478188466	-0.221541
H	 1.0576126072	 1.8301284132	-0.073323046	 0.115233
H	-0.4892317121	 1.8767242956	-0.9395135744	 0.132779
H	-0.4677650558	 1.8763923034	 0.8356201502	 0.131246
H	 0.4599670541	-0.4351536352	-0.9664091248	 0.119094
H	 1.6501244438	-0.3453008825	 1.1209722653	 0.230789
H	 0.25328961	-0.4044412549	 1.956726137	 0.240349
H	-4.0652905247	-2.3274047067	-2.0509402036	 0.267919
H	-5.1121084074	-2.174141752	-0.7282502067	 0.266988
40.0215	126.8356	176.4387	248.0504	263.3002	275.4079	313.5156	345.7732	417.7975	425.9991	522.8652	569.1148	655.1499	731.96	767.3283	799.4276	861.9232	919.0612	929.0616	1016.9711	1027.4789	1042.7198	1082.4877	1122.382	1129.9766	1221.649	1331.6375	1346.5087	1399.4763	1401.9151	1449.6089	1488.8361	1498.9529	1583.4646	1640.7191	1657.3678	1662.4859	3032.9698	3071.6814	3108.1009	3116.4103	3487.7662	3568.906	3584.5673	3694.0669
CC(N)C1=NC(N)=NO1	C[C@@H](N)c1nc(N)no1	
InChI=1S/C4H8N4O/c1-2(5)3-7-4(6)8-9-3/h2H,5H2,1H3,(H2,6,8)	InChI=1S/C4H8N4O/c1-2(5)3-7-4(6)8-9-3/h2H,5H2,1H3,(H2,6,8)/t2-/m1/s1
