15
gdb 66288	2.0605	1.66699	1.423	0.8941	67.28	-0.2517	-0.0484	0.2033	997.2366	0.110179	-457.732506	-457.723994	-457.72305	-457.765647	31.509	
O	 0.0905979578	 1.536320379	 0.2232019376	-0.450849
C	-0.0278874986	 0.1446318892	 0.0733631191	 0.101939
C	-1.4823785062	-0.3043681202	-0.1648979595	-0.124057
O	-1.3728062779	-1.5197379992	-0.9037479016	-0.249059
C	-0.3267692583	-1.3782290482	-1.8460335903	-0.178526
C	 0.5992032307	-0.3126223951	-1.2760457576	 0.324371
O	 1.5696194933	 0.1927850764	-1.767649969	-0.307872
C	 0.6113421198	-0.6141338012	 1.1506786875	 0.332706
C	 1.1618532853	-1.2423381915	 2.0153725745	-0.486881
H	 0.9622143271	 1.7740085329	-0.1261301783	 0.295666
H	-2.0355301753	-0.5193144367	 0.7490356196	 0.135596
H	-1.9970037549	 0.4821065914	-0.7368646957	 0.113012
H	 0.1798785065	-2.3383894968	-1.9819536704	 0.151516
H	-0.6909561693	-1.0365761368	-2.8282416949	 0.133838
H	 1.6420696501	-1.7885969333	 2.789812419	 0.2086
79.7555	124.1331	160.4719	231.4044	245.0075	333.9677	376.2984	410.7971	477.6201	552.0064	575.3935	630.4322	638.3996	655.891	679.5803	721.5149	887.7413	947.6875	982.9155	1046.0668	1082.9654	1096.5445	1159.5355	1188.4632	1222.4761	1252.3506	1321.6299	1373.8895	1385.4622	1471.9499	1508.679	1868.3168	2225.5797	2986.9407	3003.4244	3087.4809	3137.8363	3498.9156	3733.6732
OC1(COCC1=O)C#C	O[C@]1(COCC1=O)C#C	
InChI=1S/C6H6O3/c1-2-6(8)4-9-3-5(6)7/h1,8H,3-4H2	InChI=1S/C6H6O3/c1-2-6(8)4-9-3-5(6)7/h1,8H,3-4H2/t6-/m0/s1
