19
gdb 30819	2.2062	1.3854	0.89632	0.7391	81.66	-0.163	0.05	0.213	1321.9763	0.159466	-419.237447	-419.227725	-419.226781	-419.272089	35.887	
C	-0.3559184271	 1.5528192488	-0.2081999555	-0.363109
C	 0.1013141855	 0.0950091459	-0.0166536991	-0.303206
C	 0.9123307944	-0.437879828	-1.1425750373	 0.294504
C	 2.1792338043	-0.9208814215	-1.2722190078	 0.142903
N	 3.1446810053	-1.1189274017	-0.2691321558	-0.611122
C	 2.3521648661	-1.3043270967	-2.6514207795	-0.331414
C	 1.1676988764	-1.0207244933	-3.2604958703	 0.372859
N	 0.7347919076	-1.0848250056	-4.5793171419	-0.596669
O	 0.2810934935	-0.5064495013	-2.3866739894	-0.224064
H	 0.5040228193	 2.2242899687	-0.2944831005	 0.113332
H	-0.9477746303	 1.6513984856	-1.1224865772	 0.128023
H	-0.9713489482	 1.885750415	 0.6339904803	 0.104319
H	 0.6973249748	 0.0118075123	 0.9001899499	 0.096882
H	-0.7840635526	-0.5362394778	 0.1494254321	 0.107336
H	 2.9564540584	-0.574532434	 0.5632128661	 0.237111
H	 4.0784858463	-0.8990420458	-0.5937984828	 0.24037
H	 3.2296297218	-1.7400428876	-3.1023325258	 0.086651
H	 1.2387932635	-1.773467781	-5.120946557	 0.252682
H	-0.2632232589	-1.2417385822	-4.6461893987	 0.252611
55.5781	117.3068	179.0424	188.8608	195.1409	224.8255	279.4156	285.5256	329.3717	415.6182	514.5445	603.9197	618.2944	652.6803	667.5673	704.3856	744.7127	767.8993	781.7629	817.7017	963.9927	992.9834	1046.8486	1065.8221	1083.4108	1114.5485	1185.7478	1214.6189	1260.382	1299.0773	1359.1566	1394.5369	1404.1925	1468.7934	1478.0646	1494.7857	1507.8121	1615.7912	1647.5868	1664.7694	1705.6718	2994.8127	3035.9391	3051.2297	3105.4866	3117.6659	3253.5103	3526.4484	3542.1245	3614.4587	3642.8591
CCC1=C(N)C=C(N)O1	CCc1c(N)cc(N)o1	
InChI=1S/C6H10N2O/c1-2-5-4(7)3-6(8)9-5/h3H,2,7-8H2,1H3	InChI=1S/C6H10N2O/c1-2-5-4(7)3-6(8)9-5/h3H,2,7-8H2,1H3
