19
gdb 6747	4.777	0.92337	0.8175	1.975	72.09	-0.2335	0.0264	0.2599	1430.5375	0.162396	-402.187243	-402.177103	-402.176159	-402.223014	34.558	
C	-0.4896063404	 1.01467957	 0.0691641829	-0.249503
O	 0.6097749128	 0.1140915972	 0.0755363949	-0.19435
C	 0.6025616679	-0.7975792594	 1.0744399274	 0.118195
N	 1.5632655434	-1.6047888818	 1.1750137704	-0.247683
C	 1.5877906479	-2.6202054607	 2.2100213837	-0.137019
C	 0.3164081329	-2.9172594362	 3.0208577282	 0.10421
C	 0.499682487	-4.1455597222	 3.9139719332	-0.397965
O	-0.1177480895	-1.7899418816	 3.7868808829	-0.42675
H	-0.4981341544	 1.6486875845	 0.9644534571	 0.125784
H	-0.3663808613	 1.6454903155	-0.8122494287	 0.141915
H	-1.4472997351	 0.4840529057	-0.0023289525	 0.124139
H	-0.2675089989	-0.7383595171	 1.7365252982	 0.108196
H	 1.9098226212	-3.5567801204	 1.7349994374	 0.110191
H	 2.3982601255	-2.3681718837	 2.9138902013	 0.095842
H	-0.5100941495	-3.1033707465	 2.3234022187	 0.091501
H	 1.3465346253	-4.0088079513	 4.5980394505	 0.108929
H	-0.399062838	-4.3084372547	 4.5142506891	 0.125386
H	 0.6911531866	-5.0453510251	 3.3208905046	 0.119684
H	 0.6117925767	-1.5287649221	 4.3601870607	 0.279296
45.3866	82.6692	110.4484	121.9493	152.1213	229.5296	249.8589	290.7843	296.0415	334.6371	408.3853	455.8078	501.4666	634.619	837.7746	904.9929	930.1726	1003.1738	1038.4114	1067.9828	1073.9486	1099.2517	1153.706	1176.1794	1178.9905	1233.6144	1273.2868	1320.9639	1341.8639	1391.6274	1403.7156	1420.7533	1423.9696	1470.6968	1486.2519	1492.9554	1494.0199	1497.2928	1501.8579	1771.22	2975.6678	3010.2556	3023.9092	3029.9192	3038.6213	3072.0459	3074.8815	3097.461	3122.0711	3140.302	3795.9433
COC=NCC(C)O	COC=NC[C@@H](C)O	
InChI=1S/C5H11NO2/c1-5(7)3-6-4-8-2/h4-5,7H,3H2,1-2H3	InChI=1S/C5H11NO2/c1-5(7)3-6-4-8-2/h4-5,7H,3H2,1-2H3/t5-/m1/s1
