17
gdb 98715	2.81795	1.13446	0.94893	1.7956	76.33	-0.2496	0.0042	0.2538	1283.5723	0.133645	-421.812748	-421.803327	-421.802382	-421.847691	33.538	
C	-0.071917172	 1.3802630955	-0.3638135131	-0.241049
O	-0.2035800391	-0.0458367607	-0.4088356376	-0.240657
C	-1.1722560761	-0.5555437366	 0.3806620121	 0.461896
O	-1.8855761178	 0.1134394431	 1.086567227	-0.368765
C	-1.225766364	-2.0369907966	 0.2481089557	-0.150098
C	-1.9298291855	-2.8183489218	 1.3245663183	-0.292429
C	-2.5835460927	-2.7125599271	-0.0290340434	-0.190774
C	-3.7836652202	-1.9571384579	-0.2323665308	 0.357099
C	-4.8074235566	-1.3606217376	-0.4345967489	-0.464393
H	 0.7434744764	 1.6246858264	-1.0446966464	 0.132034
H	-0.9980989401	 1.8629232477	-0.6855522672	 0.143501
H	 0.162500619	 1.7141921083	 0.6502164474	 0.140477
H	-0.3767973591	-2.4815815612	-0.2553940707	 0.112168
H	-1.5138324521	-3.7754466037	 1.6160238963	 0.124442
H	-2.3661564799	-2.2244491745	 2.1186064395	 0.155001
H	-2.4962954619	-3.5901937454	-0.6634327597	 0.12337
H	-5.7060557683	-0.8187112777	-0.5953686785	 0.198177
47.5676	99.8858	120.528	148.5788	185.7956	230.5635	283.9326	324.3908	411.7387	517.7181	535.7007	605.6938	652.8505	669.2684	768.8229	794.3318	828.9832	866.1562	920.5666	985.0322	1042.8249	1073.3441	1095.5288	1128.9643	1148.2865	1180.0501	1200.3817	1212.6184	1226.5605	1383.1242	1409.5627	1470.4277	1477.6074	1481.3108	1498.1053	1814.5701	2242.8757	3051.8793	3126.3879	3145.3882	3147.8701	3158.4676	3195.7322	3247.1454	3506.2632
COC(=O)C1CC1C#C	COC(=O)[C@H]1C[C@H]1C#C	
InChI=1S/C7H8O2/c1-3-5-4-6(5)7(8)9-2/h1,5-6H,4H2,2H3	InChI=1S/C7H8O2/c1-3-5-4-6(5)7(8)9-2/h1,5-6H,4H2,2H3/t5-,6+/m1/s1
