12
gdb 9461	3.00848	1.80862	1.66751	3.286	56.47	-0.2664	-0.0212	0.2452	820.5781	0.081555	-418.450148	-418.442539	-418.441595	-418.482133	27.099	
O	 0.0323985808	 1.4373367062	 0.0933262765	-0.441257
C	 0.0267795226	 0.0301177436	 0.064703775	 0.054266
C	-1.4029151053	-0.5223276462	-0.1360839494	-0.096374
O	-1.0340672965	-1.0599068959	-1.445766107	-0.234511
C	 0.2423910564	-0.5795981558	-1.3622150357	 0.411435
O	 1.111019013	-0.6306376753	-2.1670034774	-0.316971
C	 0.831125595	-0.5783600106	 1.1110012218	 0.283839
C	 1.5270020017	-1.0687291233	 1.9591368029	-0.46374
H	 0.9513283911	 1.7304243637	 0.0919660188	 0.301834
H	-1.7152295833	-1.3167790791	 0.5408921145	 0.141353
H	-2.1568031534	 0.2601145408	-0.229184628	 0.144803
H	 2.138756998	-1.5052754581	 2.7105659879	 0.215325
114.3112	123.1126	175.4385	209.6457	302.2455	356.7135	407.0974	518.3602	610.5755	645.7977	672.4798	686.635	746.5368	788.4894	929.7395	943.785	994.0834	1115.7889	1134.9187	1153.6167	1210.8171	1332.9294	1382.7988	1501.206	1947.3594	2235.8968	3091.6293	3166.1421	3496.2012	3804.2691
OC1(COC1=O)C#C	O[C@]1(COC1=O)C#C	
InChI=1S/C5H4O3/c1-2-5(7)3-8-4(5)6/h1,7H,3H2	InChI=1S/C5H4O3/c1-2-5(7)3-8-4(5)6/h1,7H,3H2/t5-/m0/s1
