18
gdb 56360	1.99315	1.46652	1.24744	1.33	83.09	-0.2453	0.0231	0.2683	1139.2777	0.144556	-364.709143	-364.699456	-364.698512	-364.743246	36.39	
C	-0.0609312662	 1.4704538108	-0.087346126	-0.404393
C	 0.0059036089	-0.0767708489	 0.0528388532	-0.159219
C	 0.7259801576	-0.4298370648	 1.2854995621	 0.362874
C	 1.3490264517	-0.6973339829	 2.2769823478	-0.476502
C	-1.3613932171	-0.6149762246	 0.0990356159	 0.320487
C	-2.4894111082	-1.0302889179	 0.1015936162	-0.466643
C	 0.7856226925	-0.6517150195	-1.15167151	 0.022716
C	 0.5997769461	-2.040815212	-1.6183932941	-0.249464
N	 0.1282895335	-0.901809403	-2.4352092397	-0.336302
H	 0.951948068	 1.8805726305	-0.1075941676	 0.129971
H	-0.5717015794	 1.7354773921	-1.0163204896	 0.133954
H	-0.6007551842	 1.9076842963	 0.7546888414	 0.135724
H	 1.8887001118	-0.9441581341	 3.1578081368	 0.200787
H	-3.4845125502	-1.4015010175	 0.1297108384	 0.205438
H	 1.7705707606	-0.1983762273	-1.2372860104	 0.102495
H	 1.4406855811	-2.5884547015	-2.0330841775	 0.118742
H	-0.1440591042	-2.648220363	-1.1112815571	 0.125316
H	-0.8808991426	-0.8168400925	-2.3200165898	 0.234019
80.1468	126.3783	146.9229	161.731	221.3053	242.9411	262.1226	356.4172	408.729	473.2125	493.0279	557.7662	599.7562	633.3491	637.1521	650.98	652.2172	661.3696	832.7441	877.3062	929.8932	948.7194	968.8126	999.3569	1071.8334	1109.8861	1149.4138	1174.178	1184.918	1252.6589	1269.154	1310.605	1388.3844	1407.586	1485.4982	1492.3424	1507.0627	2231.4903	2239.0115	3051.1834	3117.2029	3130.71	3134.6725	3141.3525	3205.72	3476.3734	3497.829	3501.5336
CC(C#C)(C#C)C1CN1	CC(C#C)(C#C)[C@H]1CN1	
InChI=1S/C8H9N/c1-4-8(3,5-2)7-6-9-7/h1-2,7,9H,6H2,3H3	InChI=1S/C8H9N/c1-4-8(3,5-2)7-6-9-7/h1-2,7,9H,6H2,3H3/t7-/m1/s1
