16
gdb 56963	2.31829	1.2445	1.03899	2.7976	70.15	-0.2777	-0.0618	0.2159	1199.4443	0.12186	-437.883196	-437.874042	-437.873098	-437.917869	31.866	
C	-0.349420096	 1.285924438	 0.1461948354	-0.402458
C	 0.1243390241	-0.1552480025	-0.1330464113	-0.180428
C	 0.8858049769	-0.2397487364	-1.3826971167	 0.259483
N	 1.5045527712	-0.3067572549	-2.3564925991	-0.315953
C	 0.9835314575	-0.6666707948	 1.0164417844	 0.06994
O	 0.2960619528	-1.0043496837	 2.2006189956	-0.225394
C	 0.9480982448	-2.070502117	 1.50751298	-0.050543
C	 0.0824694856	-3.1094770581	 0.8596134332	 0.148027
O	-1.0739987334	-2.9468937901	 0.563277937	-0.244617
H	 0.4993515866	 1.9688564633	 0.2420404223	 0.136646
H	-0.9876405968	 1.642876108	-0.6648673007	 0.144346
H	-0.9210518464	 1.299155267	 1.0770219713	 0.14977
H	-0.7482236632	-0.8103861345	-0.2160717496	 0.168776
H	 1.9194898565	-0.124594927	 1.1643762023	 0.123992
H	 1.8444971264	-2.4564981091	 1.9932037977	 0.118466
H	 0.6083033933	-4.0668040879	 0.6562499984	 0.099948
46.4234	116.7891	123.9657	190.9128	209.3707	228.6696	269.4972	279.7747	427.5648	444.9524	526.2517	578.3281	754.8024	790.7985	855.4599	884.8114	938.7975	958.9065	995.1272	1069.073	1088.0973	1106.0831	1147.0563	1176.9027	1270.0726	1290.5887	1341.7609	1386.3837	1408.3884	1421.7811	1458.3871	1496.5428	1497.9503	1822.3071	2358.4811	2908.8084	3052.5121	3076.7568	3099.2113	3120.3294	3130.9523	3140.9432
CC(C#N)C1OC1C=O	C[C@@H](C#N)[C@H]1O[C@H]1C=O	
InChI=1S/C6H7NO2/c1-4(2-7)6-5(3-8)9-6/h3-6H,1H3	InChI=1S/C6H7NO2/c1-4(2-7)6-5(3-8)9-6/h3-6H,1H3/t4-,5-,6+/m0/s1
