21
gdb 83998	2.2159	1.65551	1.3923	2.3805	77.65	-0.2262	0.0777	0.3038	1068.2078	0.184156	-424.218428	-424.210108	-424.209164	-424.250691	33.384	
C	 0.0065584569	 1.5346545846	-0.0208622151	-0.47297
C	 0.0210595839	 0.0203356087	-0.0110569836	 0.27837
C	-1.2152823024	-0.6627737331	-0.6020171008	-0.300998
C	-1.7309668345	-1.8070056766	 0.2738269302	-0.079734
O	-0.6636133556	-2.646143472	 0.7124654038	-0.259593
C	 0.1488942861	-1.9820202653	 1.6797719308	-0.125957
C	 0.7343223559	-0.6923630769	 1.1426028961	-0.155412
C	 1.3460089404	-0.6858340785	-0.235090561	 0.097957
O	 1.4466829401	-1.8464305321	-1.002687903	-0.437858
H	 0.9530740899	 1.9449028698	 0.3467831713	 0.112773
H	-0.1498860598	 1.9197973143	-1.0356716278	 0.119344
H	-0.7945622107	 1.9331025694	 0.6139118592	 0.1121
H	-2.0175782947	 0.0709272033	-0.7342998432	 0.099759
H	-0.9713716651	-1.0521193796	-1.5982149767	 0.118108
H	-2.2614350771	-1.4127294076	 1.154792189	 0.093969
H	-2.4205956534	-2.4521170468	-0.2773633493	 0.11053
H	-0.4487018366	-1.7841279337	 2.5839937137	 0.100112
H	 0.9369940512	-2.6951498145	 1.9445315325	 0.118583
H	 1.1951781558	-0.0661301037	 1.9026404096	 0.082271
H	 2.2149320576	-0.0556861504	-0.4019359683	 0.094044
H	 0.7824651221	-2.4724248492	-0.6789127474	 0.294603
149.3656	174.8448	218.9235	239.1445	273.9817	318.4425	370.9154	435.8445	458.5378	530.5399	550.3215	578.9576	663.9813	746.1402	796.066	831.8614	857.6646	918.8129	938.3333	979.6564	1020.4231	1055.2222	1058.3653	1075.6921	1104.8761	1130.7934	1143.5127	1171.1021	1197.8442	1258.4323	1278.8495	1297.3889	1319.8099	1339.1616	1365.3712	1382.5241	1399.4694	1416.0523	1431.2266	1476.0224	1484.7834	1493.4508	1494.5307	1500.3826	1506.5973	2976.4144	2984.4688	3014.8713	3029.8914	3066.7197	3074.5871	3075.0249	3091.1962	3091.6936	3134.2337	3151.4207	3710.273
CC12CCOCC1C2O	C[C@]12CCOC[C@H]1[C@H]2O	
InChI=1S/C7H12O2/c1-7-2-3-9-4-5(7)6(7)8/h5-6,8H,2-4H2,1H3	InChI=1S/C7H12O2/c1-7-2-3-9-4-5(7)6(7)8/h5-6,8H,2-4H2,1H3/t5-,6+,7-/m0/s1
