16
gdb 34217	3.86006	1.38131	1.3603	4.1378	72.61	-0.2567	0.0283	0.2849	971.7393	0.127562	-400.765992	-400.759562	-400.758618	-400.796763	26.198	
N	 0.0906343862	-1.1027894916	-0.0758426383	-0.350926
C	 0.0237544253	 0.0517209424	-0.0166376405	 0.161407
C	-0.0521882897	 1.471069204	 0.0533930254	 0.180569
C	-1.1174231652	 2.2324137826	 0.8441289273	-0.286595
C	-0.6482902502	 3.6339002758	 0.3971058511	 0.037694
C	 0.8468168829	 3.6349404032	 0.7848561248	-0.233693
C	 1.1990460025	 2.380663599	-0.0028950547	-0.157878
C	 0.2288894801	 2.3851502098	-1.1479323585	 0.063544
O	-0.6073352286	 3.5075061693	-1.0383969406	-0.250949
H	-2.1293188003	 2.0025340411	 0.5036397533	 0.128388
H	-1.0452535816	 2.0809092007	 1.9234758635	 0.121881
H	-1.2577443204	 4.4898444051	 0.6749953526	 0.09816
H	 1.3692926813	 4.5195492619	 0.4114509415	 0.121108
H	 1.0058467835	 3.5409217795	 1.8616327411	 0.116498
H	 2.1921170449	 1.960856361	-0.075909501	 0.118154
H	 0.4135047491	 2.0312280763	-2.151357167	 0.132638
145.5872	161.4631	412.1437	414.0668	493.512	531.6112	541.1822	585.2726	667.5303	718.9994	806.4409	872.1053	892.4294	893.9352	911.2228	943.5077	964.795	981.2701	1015.599	1024.461	1066.9309	1087.0066	1135.8286	1153.6811	1175.2712	1213.1443	1243.4704	1274.5183	1280.2737	1302.5844	1341.1644	1395.0504	1475.8966	1494.8998	2346.8312	3068.3418	3076.1946	3122.2215	3132.0152	3164.418	3225.3278	3241.0969
N#CC12CC3CC1C2O3	N#C[C@@]12C[C@H]3C[C@@H]1[C@@H]2O3	
InChI=1S/C7H7NO/c8-3-7-2-4-1-5(7)6(7)9-4/h4-6H,1-2H2	InChI=1S/C7H7NO/c8-3-7-2-4-1-5(7)6(7)9-4/h4-6H,1-2H2/t4-,5-,6+,7+/m1/s1
