16
gdb 6945	2.65841	2.4328	1.75239	2.2805	65.22	-0.2436	-0.0138	0.2298	812.2841	0.130752	-379.981731	-379.973963	-379.973019	-380.013418	28.952	
C	-0.013360943	 1.5356304302	-0.0071681488	-0.402477
C	-0.0042081209	 0.0009168612	-0.0117082281	 0.134578
C	-1.4282746918	-0.5681034444	-0.0729336396	-0.402467
N	 0.7932971435	-0.4998787206	-1.1520533131	-0.260486
C	 1.7586430506	-1.1649181352	-0.650973882	 0.053753
N	 1.795779358	-1.2334024425	 0.7387761757	-0.342163
C	 0.7154260196	-0.5225490867	 1.2497602616	 0.413576
O	 0.4357596914	-0.3707100586	 2.4134894085	-0.374177
H	 1.0051283858	 1.9340780823	-0.0026393038	 0.122416
H	-0.5217122255	 1.9058611464	-0.901088078	 0.128232
H	-0.5328701965	 1.8997957909	 0.8834052361	 0.136014
H	-1.936824349	-0.1986648672	-0.9670674285	 0.12824
H	-1.4127288653	-1.6608604166	-0.1146757973	 0.122417
H	-1.9873479662	-0.2622801765	 0.8156244049	 0.136007
H	 2.5281300518	-1.6644007225	-1.2314753133	 0.138609
H	 2.4798205973	-1.7110319002	 1.3032077558	 0.267928
104.5516	204.2126	212.5771	234.7749	289.5901	298.5976	328.7682	502.1927	518.4976	618.7993	622.6381	723.4218	759.3362	819.2202	905.6375	941.7561	956.6103	979.4572	1026.5089	1059.646	1138.5864	1190.3088	1219.1521	1280.9864	1349.879	1387.7512	1393.7048	1412.1241	1476.7431	1482.8704	1494.4929	1506.0338	1677.0546	1847.7507	3043.2049	3046.1879	3119.2707	3121.3312	3127.7541	3132.0472	3188.8528	3650.6733
CC1(C)N=CNC1=O	CC1(C)N=CNC1=O	
InChI=1S/C5H8N2O/c1-5(2)4(8)6-3-7-5/h3H,1-2H3,(H,6,7,8)	InChI=1S/C5H8N2O/c1-5(2)4(8)6-3-7-5/h3H,1-2H3,(H,6,7,8)
