25
gdb 105076	2.37569	1.13336	1.05071	0.1258	92.32	-0.2415	0.0856	0.3271	1372.5938	0.228305	-352.33141	-352.321218	-352.320274	-352.366692	39.18	
C	-1.4991943226	-0.8226572336	 2.7664391594	-0.407491
C	-1.0736014862	-1.8742910641	 1.7365842473	-0.254134
C	 0.0421279525	-1.4945246382	 0.7617436021	 0.368001
C	 0.1332008706	-0.0793082648	 0.224560773	-0.290968
C	 1.1440511181	-0.5664850699	 1.2306128888	-0.318735
C	 0.4963220635	-2.5922587585	-0.1890155028	-0.087225
C	-0.2032060075	-3.925558226	-0.3435769375	-0.314935
C	-0.2089246423	-2.944294849	-1.487578432	 0.01908
C	-1.4907890178	-2.270274263	-1.9247031305	-0.408111
H	-0.6837265124	-0.5536192882	 3.4443218399	 0.120112
H	-1.864606133	 0.0957359217	 2.296286601	 0.11897
H	-2.3140225011	-1.2165904235	 3.3817923376	 0.113614
H	-0.7590828479	-2.7799335072	 2.2711274344	 0.102345
H	-1.9638628037	-2.1647376174	 1.163766373	 0.098618
H	 0.4543910523	 0.0404225906	-0.8044216898	 0.107903
H	-0.5923413761	 0.6580846627	 0.5493821631	 0.10559
H	 1.0980340918	-0.1584483078	 2.2334503645	 0.106969
H	 2.1532375073	-0.7698023783	 0.8869026176	 0.10531
H	 1.5791040303	-2.6592903568	-0.2584351135	 0.078981
H	 0.405075398	-4.8212818771	-0.4132114551	 0.103852
H	-1.1407075476	-4.0759278481	 0.1806327229	 0.108321
H	 0.4579083577	-3.1840446442	-2.3126638761	 0.075812
H	-2.1404568944	-2.0395284123	-1.0760487043	 0.120491
H	-1.2903966604	-1.3286768351	-2.4474755255	 0.114866
H	-2.056023599	-2.9148771319	-2.6073930275	 0.112762
41.0186	80.1923	151.259	179.6106	211.9973	253.8709	284.6469	318.1684	343.4909	369.0637	398.7595	468.4376	563.2447	657.2665	770.6542	777.9645	785.311	830.9372	850.4185	890.6359	910.1041	936.8988	944.7336	961.9618	1034.0229	1038.8199	1053.2244	1074.1099	1078.2563	1084.0504	1101.0595	1122.0081	1141.5933	1148.8405	1192.1633	1199.3997	1222.7844	1285.8371	1313.3113	1317.6478	1383.7825	1392.563	1410.1813	1418.9627	1424.1892	1465.1392	1487.7279	1491.0489	1495.5903	1500.4008	1505.1534	1507.9689	1515.0838	3013.8054	3031.3123	3038.0471	3043.2709	3086.6292	3101.8995	3106.8947	3107.9209	3121.5937	3129.2622	3131.4069	3134.9737	3136.9011	3208.9148	3212.0114	3223.7047
CCC1(CC1)C1CC1C	CCC1(CC1)[C@H]1C[C@H]1C	
InChI=1S/C9H16/c1-3-9(4-5-9)8-6-7(8)2/h7-8H,3-6H2,1-2H3	InChI=1S/C9H16/c1-3-9(4-5-9)8-6-7(8)2/h7-8H,3-6H2,1-2H3/t7-,8+/m1/s1
