12
gdb 23764	3.31075	2.32973	1.36747	4.8183	60.54	-0.219	-0.0395	0.1795	803.179	0.085572	-422.690097	-422.684041	-422.683096	-422.72031	23.222	
F	-0.0072218445	 0.0264354536	 0.00389116	-0.057909
C	-0.0462566016	 1.3538082646	 0.0108895798	 0.145021
C	-1.224736515	 2.0252233393	 0.029851051	-0.19628
C	-1.2393496798	 3.4513451611	 0.0369551248	-0.161558
C	-0.0531942976	 4.1112033972	 0.0242966312	 0.033133
N	 1.1209165598	 3.4127605474	 0.0052694229	-0.359121
C	 1.2536941006	 2.0160730318	-0.0031353413	 0.33683
O	 2.3446621715	 1.4771011162	-0.0204766517	-0.385688
H	-2.150866635	 1.460741009	 0.0394455711	 0.125531
H	-2.1720866328	 3.9971280112	 0.0520276157	 0.115976
H	 0.0351746923	 5.190024293	 0.028294149	 0.137264
H	 2.0051368422	 3.9028578554	-0.0041616025	 0.2668
150.5188	281.172	307.684	426.4322	474.6103	554.5049	565.936	575.0059	698.1829	751.9743	760.1448	779.9508	908.9341	915.2757	938.1032	1055.5837	1108.8422	1164.1278	1245.5672	1283.4314	1353.0059	1443.7397	1487.9488	1608.2378	1681.3084	1789.9299	3194.5902	3214.689	3237.8947	3604.6317
FC1=CC=CNC1=O	Fc1ccc[nH]c1=O	
InChI=1S/C5H4FNO/c6-4-2-1-3-7-5(4)8/h1-3H,(H,7,8)	InChI=1S/C5H4FNO/c6-4-2-1-3-7-5(4)8/h1-3H,(H,7,8)
