22
gdb 87837	2.71713	1.40396	1.19229	1.0798	87.04	-0.2195	0.0932	0.3127	1174.1393	0.193406	-367.157671	-367.148656	-367.147712	-367.190801	35.295	
C	-0.2122149055	 1.3935185692	-0.0224991424	-0.314335
N	 0.048349324	-0.036215739	 0.0598699338	-0.133334
C	 1.4415501172	-0.4588316427	-0.1144195835	-0.33107
C	 0.7813479166	-0.533557263	 1.2119808748	 0.327843
C	 1.2355286633	 0.205370408	 2.4954992652	-0.328621
C	 0.8510551872	-1.0533100882	 3.2862492731	-0.098887
C	-0.6005669244	-1.3748690917	 3.056372129	-0.325693
C	 0.4029147188	-1.7729269193	 2.0038153976	 0.299962
C	 0.6032458219	-3.1873308303	 1.5431347462	-0.506097
H	 0.5923927322	 2.0194706003	 0.397697244	 0.099348
H	-0.3460068219	 1.6735313188	-1.0725068548	 0.120649
H	-1.1396993582	 1.6272419319	 0.5104236048	 0.120096
H	 1.5929923872	-1.3495301504	-0.719868027	 0.110796
H	 2.1985997741	 0.314703079	-0.2492837506	 0.100075
H	 2.3070053444	 0.4203782053	 2.502131166	 0.105635
H	 0.692239638	 1.1183356986	 2.7635348974	 0.098192
H	 1.406211156	-1.4557524698	 4.1247474906	 0.084767
H	-0.9954038027	-2.1983942625	 3.6440297023	 0.106292
H	-1.3187583897	-0.5791843383	 2.8705838778	 0.105203
H	-0.097916659	-3.4421827216	 0.7395432674	 0.128375
H	 1.6186867053	-3.3465716429	 1.1630468022	 0.115598
H	 0.4372486451	-3.8951272014	 2.361782386	 0.115205
111.8617	139.1292	187.6214	212.4136	224.7877	259.6592	314.7791	401.9049	418.1312	458.3415	488.4755	565.7673	655.1091	767.1562	796.0705	818.4556	868.2967	903.8727	911.1698	952.162	977.1495	1011.4128	1030.8741	1048.5373	1068.597	1090.3051	1109.6639	1115.1169	1121.8661	1159.7884	1178.3832	1189.0975	1211.519	1247.8106	1265.789	1290.6067	1382.2126	1417.1192	1421.7191	1448.4311	1480.9889	1485.8731	1492.2256	1496.334	1500.5197	1501.6927	1515.208	2965.9175	3022.5144	3039.5335	3062.8851	3075.6592	3082.0232	3095.6811	3096.2767	3097.9793	3103.926	3162.7859	3182.4081	3193.9738
CN1CC11CC2CC12C	CN1C[C@]21C[C@H]1C[C@@]21C	
InChI=1S/C8H13N/c1-7-3-6(7)4-8(7)5-9(8)2/h6H,3-5H2,1-2H3	InChI=1S/C8H13N/c1-7-3-6(7)4-8(7)5-9(8)2/h6H,3-5H2,1-2H3/t6-,7-,8-,9?/m1/s1
