21
gdb 105029	2.09707	1.31347	1.08641	2.248	78.86	-0.2637	-0.038	0.2257	1248.7091	0.18013	-424.224876	-424.214947	-424.214003	-424.260036	36.725	
C	 0.4228363786	-1.2483202925	 1.6764284509	-0.368769
C	 0.0539811812	-0.4945262645	 0.3915701574	-0.276487
C	-1.3838758488	-0.6933782265	-0.0835879097	 0.362725
C	-1.6320240722	-0.8314498581	-1.5736130691	-0.325228
C	-1.7553789332	-2.0323878696	-0.6721405864	-0.309629
C	-2.4745413106	 0.0441923182	 0.6898235213	-0.013297
O	-2.5604658562	-0.3404456139	 2.0368694737	-0.433931
C	-2.279088965	 1.5481364931	 0.5955991648	 0.135809
O	-2.2539497107	 2.2511552964	 1.5773564264	-0.267279
H	 1.4712380147	-1.0704544097	 1.936541132	 0.10485
H	-0.205165745	-0.9366133671	 2.5114972088	 0.135848
H	 0.2875681657	-2.3272229947	 1.5474183265	 0.113644
H	 0.2475996521	 0.5782851915	 0.5296912222	 0.100097
H	 0.7252914763	-0.814820442	-0.4145062705	 0.095506
H	-2.5420182614	-0.4146758457	-1.99379601	 0.109834
H	-0.7741975393	-0.7672983335	-2.2336870752	 0.115628
H	-0.9790225545	-2.788038762	-0.7225356168	 0.117412
H	-2.7453412534	-2.4272569181	-0.4714086916	 0.12012
H	-3.4343363104	-0.1577796971	 0.1755596432	 0.085826
H	-2.5416146676	 0.487347327	 2.5442345848	 0.293255
H	-2.1705940404	 1.9647115987	-0.4254500124	 0.104067
42.1222	103.9352	115.4561	197.6629	222.1119	241.1733	282.6221	294.5726	333.5222	372.1203	447.3524	494.266	536.911	697.5461	765.0988	777.6136	796.5873	844.5563	905.8389	931.8552	946.2298	972.3498	1021.3413	1024.3273	1054.6381	1082.1329	1099.8971	1116.9093	1157.6973	1189.2869	1239.0868	1266.2898	1308.6898	1336.4692	1361.2764	1385.684	1394.8301	1412.6898	1439.6003	1470.6109	1481.3535	1494.341	1505.0833	1511.796	1810.2965	2914.7673	2944.5014	3010.0746	3041.5276	3049.1272	3102.1655	3127.9476	3134.8177	3149.7042	3206.7856	3221.5478	3679.2074
CCC1(CC1)C(O)C=O	CCC1(CC1)[C@@H](O)C=O	
InChI=1S/C7H12O2/c1-2-7(3-4-7)6(9)5-8/h5-6,9H,2-4H2,1H3	InChI=1S/C7H12O2/c1-2-7(3-4-7)6(9)5-8/h5-6,9H,2-4H2,1H3/t6-/m0/s1
