15
gdb 124366	5.08019	1.00392	0.84268	3.1383	69.64	-0.232	0.0011	0.233	1303.3911	0.114123	-450.184405	-450.176063	-450.175119	-450.218946	29.097	
C	-0.1780574484	 1.5090720493	 0.0121257988	-0.501953
C	 0.1668276017	 0.0260444443	 0.0024938872	 0.395739
O	 1.2981031745	-0.3978578284	-0.0108996622	-0.315768
N	-0.9556547057	-0.7870374452	 0.0092114848	-0.423369
C	-1.0147149042	-2.1714666432	 0.0016537041	 0.470638
N	 0.0213719629	-2.9948741578	-0.009670176	-0.272578
N	-0.6073629091	-4.2044554772	-0.012272312	-0.173987
C	-1.9405944918	-4.0499798833	-0.0027078973	 0.025491
N	-2.2461058059	-2.7667696312	 0.0064678708	-0.338732
H	 0.7501753777	 2.0787521781	 0.007049238	 0.154439
H	-0.7731996045	 1.7796914562	-0.8665624889	 0.140098
H	-0.7587459598	 1.7716721999	 0.902816651	 0.139994
H	-1.8662239283	-0.3543559591	 0.0187258285	 0.262803
H	-0.0553128716	-5.0457192485	-0.0206936111	 0.286211
H	-2.6381411375	-4.8736662339	-0.0027068057	 0.150975
45.5851	53.7993	95.2568	148.2947	346.5118	347.8856	367.0564	515.5702	540.6046	593.3095	615.4809	671.0527	773.4402	807.737	854.2609	956.9824	978.2824	995.159	1038.8921	1049.2208	1096.9362	1184.7679	1232.3874	1285.5386	1334.9585	1386.2129	1460.9344	1477.059	1479.3267	1483.9685	1574.9764	1598.0631	1819.2489	3041.5788	3103.7135	3166.7906	3263.0107	3636.6351	3673.5401
CC(=O)NC1=NNC=N1	CC(=O)Nc1n[nH]cn1	
InChI=1S/C4H6N4O/c1-3(9)7-4-5-2-6-8-4/h2H,1H3,(H2,5,6,7,8,9)	InChI=1S/C4H6N4O/c1-3(9)7-4-5-2-6-8-4/h2H,1H3,(H2,5,6,7,8,9)
