20
gdb 95508	2.25852	1.64999	1.39647	1.4299	75.06	-0.2453	0.0193	0.2646	1050.6536	0.170533	-440.301459	-440.292278	-440.291334	-440.334997	34.947	
C	 0.0032673367	 1.5366780697	 0.0123576638	-0.393998
C	 0.0139486274	 0.0012266538	 0.0251048072	 0.228468
C	-1.4369781855	-0.511406651	-0.0223060022	-0.405892
N	 0.6973577573	-0.4407487538	-1.2057195815	-0.281203
C	 1.5043926599	-1.4113151459	-1.15916443	 0.093538
O	 1.8652559517	-2.1875026119	-0.1031291092	-0.23387
C	 1.0834015372	-2.0063271899	 1.0898669214	-0.102006
C	 0.747398425	-0.5308853567	 1.2857613381	 0.085624
O	 1.9293119486	 0.1965098869	 1.5924214157	-0.441576
H	 1.0187464719	 1.9338673558	 0.0266843637	 0.119356
H	-0.4988516692	 1.8904287252	-0.8916885008	 0.118029
H	-0.5258292984	 1.9270400774	 0.8879187667	 0.10648
H	-1.9122521237	-0.1766346967	-0.9481548217	 0.132444
H	-1.490929867	-1.603385652	-0.0020541037	 0.11151
H	-2.0116568245	-0.1200494824	 0.8238801176	 0.113883
H	 2.0497190583	-1.728962786	-2.046859624	 0.126772
H	 0.1815424947	-2.6246415863	 1.0192020152	 0.11532
H	 1.7018784574	-2.3717606478	 1.9117878753	 0.125941
H	 0.1032696287	-0.4210382113	 2.1646300835	 0.089727
H	 2.5661038534	 0.040757853	 0.8856431149	 0.291453
62.1955	153.9843	197.9857	234.3769	253.9947	258.938	324.1891	348.9925	362.8293	414.3574	444.9352	522.1248	598.6758	656.8886	729.2616	842.8233	866.035	901.9278	928.9253	943.5702	968.478	1011.1785	1012.7332	1038.7636	1108.8426	1147.4722	1190.3049	1219.5904	1243.8095	1268.2257	1295.4008	1334.0942	1388.3118	1394.2522	1406.1001	1418.3544	1430.1865	1475.8466	1480.0282	1491.9741	1499.6394	1510.5922	1723.1177	3036.1443	3043.2344	3045.8207	3062.511	3109.3502	3115.5364	3118.6766	3122.0889	3144.3859	3151.2639	3801.9128
CC1(C)N=COCC1O	CC1(C)N=COC[C@H]1O	
InChI=1S/C6H11NO2/c1-6(2)5(8)3-9-4-7-6/h4-5,8H,3H2,1-2H3	InChI=1S/C6H11NO2/c1-6(2)5(8)3-9-4-7-6/h4-5,8H,3H2,1-2H3/t5-/m1/s1
