18
gdb 54099	2.85114	1.63301	1.18281	6.0361	72.12	-0.2487	0.0173	0.266	1043.2351	0.148501	-439.052058	-439.044311	-439.043367	-439.084479	30.166	
C	-0.0965557107	 1.5374015842	-0.2130452357	-0.466319
C	 0.0192371637	 0.0269873403	-0.039311416	 0.176929
C	 1.2596313165	-0.7316604453	-0.6526510284	-0.057356
C	 2.1824332976	-0.0707148361	 0.4055099306	-0.249337
C	 0.9002342336	-0.5536611289	 1.1341193176	-0.057389
N	 0.9808596766	-1.8542301674	 0.3415068461	-0.359454
H	-0.6009318432	-2.2586232686	 0.0638724164	 0.316433
H	 1.8420134186	-2.3564576857	 0.5647528699	 0.224771
C	-1.3921622583	-0.5923561102	-0.2616596246	 0.370855
O	-2.334443907	 0.1139887143	-0.5220197629	-0.337837
O	-1.5132292868	-1.9135656741	-0.1539792106	-0.378924
H	 0.8459540593	 2.0664069445	-0.0757957007	 0.106376
H	-0.4812096649	 1.7656791106	-1.2092771124	 0.143045
H	-0.8249092471	 1.9355114291	 0.4965747916	 0.143046
H	 1.459475434	-0.9456820924	-1.7034812488	 0.10301
H	 3.0851040442	-0.6413847061	 0.6439314131	 0.101124
H	 2.4013134033	 0.9931001273	 0.3435420349	 0.118022
H	 0.6740881706	-0.5566942857	 2.20128272	 0.103005
77.2534	135.02	175.3899	324.0821	329.1377	394.4494	433.3204	455.3722	602.0334	649.3078	681.6156	728.7361	789.8336	814.1202	878.0324	880.8427	898.8987	914.7015	994.642	1022.4485	1044.8802	1082.7606	1087.2417	1136.4628	1141.8585	1143.8973	1177.6681	1200.0582	1241.7838	1249.3752	1269.3392	1289.413	1319.3479	1423.8213	1483.0888	1485.6253	1524.4886	1529.9837	1834.2952	3060.7213	3071.7321	3107.8343	3110.2276	3116.8453	3133.4594	3144.9358	3164.0013	3430.1601
CC1(C2CC1[NH2+]2)C([O-])=O	C[C@]1([C@H]2C[C@@H]1N2)C(=O)O	
InChI=1S/C6H9NO2/c1-6(5(8)9)3-2-4(6)7-3/h3-4,7H,2H2,1H3,(H,8,9)	InChI=1S/C6H9NO2/c1-6(5(8)9)3-2-4(6)7-3/h3-4,7H,2H2,1H3,(H,8,9)/t3-,4+,6-
