16
gdb 15880	2.25336	2.23782	1.2746	5.4813	61.35	-0.2374	-0.0116	0.2258	942.2932	0.128391	-420.859056	-420.850624	-420.84968	-420.89223	30.253	
O	 0.3271817529	 0.9260742535	-0.8660189388	-0.422365
C	 0.0708629415	-0.1656899339	-0.0155099131	 0.12963
C	 0.0699274057	 0.0599936691	 1.5214414132	-0.315674
C	-1.2480969266	-0.7599691569	 1.5810260454	 0.129591
O	-2.3243615765	-0.268716902	 2.3434871145	-0.422368
C	-1.4359793202	-0.5554535332	 0.048197157	-0.166701
C	-2.3577320257	 0.6020261664	-0.2825752427	 0.199633
O	-3.2664044501	 0.5138606184	-1.0668159501	-0.261088
H	 1.2693881878	 1.1210475323	-0.8427158027	 0.288538
H	 0.67834596	-1.0376704707	-0.2920332158	 0.079404
H	 0.9282731768	-0.2889776975	 2.1006894544	 0.096189
H	-0.1290199756	 1.1112379599	 1.7483881396	 0.119007
H	-1.0522732416	-1.8174410228	 1.8029723555	 0.07941
H	-2.1334899483	-0.4128783248	 3.2757351269	 0.288539
H	-1.7536859004	-1.4196253518	-0.5359992286	 0.092201
H	-2.1461973096	 1.552447194	 0.2464714653	 0.086053
73.6347	88.1997	188.8729	231.2369	243.3919	255.3127	359.7422	420.1529	459.9581	488.8175	529.3188	644.7587	785.9507	874.3089	893.5045	960.5277	1006.841	1049.2498	1055.3515	1101.4543	1135.3231	1181.0029	1190.9603	1219.8201	1225.3342	1270.8254	1299.1506	1315.2805	1339.7349	1406.3583	1434.2387	1440.1173	1483.2603	1830.478	2928.7668	3004.97	3010.6647	3058.14	3111.654	3121.1743	3819.3964	3819.7194
OC1CC(O)C1C=O	O[C@H]1C[C@@H](O)[C@H]1C=O	
InChI=1S/C5H8O3/c6-2-3-4(7)1-5(3)8/h2-5,7-8H,1H2	InChI=1S/C5H8O3/c6-2-3-4(7)1-5(3)8/h2-5,7-8H,1H2/t3-,4-,5+
