18
gdb 9786	2.91442	1.8168	1.33375	2.731	71.65	-0.2677	0.028	0.2957	967.206	0.1537	-343.982816	-343.974098	-343.973154	-344.015777	32.367	
C	-0.182796653	 1.4855147649	 0.3506652937	-0.458707
C	 0.0291846768	 0.0266446869	-0.0094928519	 0.367681
C	 1.4104420404	-0.4177240402	-0.4354106123	-0.304784
C	 0.868503105	-0.8158476764	 0.9171773036	-0.316313
C	-1.1861017727	-0.5938943264	-0.7053682255	-0.190093
N	-1.448323041	 0.0941820534	-1.9743082055	-0.49505
C	-1.0531041637	-2.0579853842	-0.8794766119	 0.259306
N	-0.9664035633	-3.1953795587	-1.0711484952	-0.339067
H	 0.7213872206	 1.9053728703	 0.8003477525	 0.114325
H	-0.4383858404	 2.0750152457	-0.5331470893	 0.13953
H	-0.9975464296	 1.5960837562	 1.0764922795	 0.114745
H	 1.4989899835	-1.2015046015	-1.1806712232	 0.127486
H	 2.1893626093	 0.3351634585	-0.4840143268	 0.115538
H	 1.270299931	-0.3268725252	 1.7979269508	 0.11337
H	 0.6081752675	-1.8580627598	 1.0634406064	 0.137445
H	-2.0624472602	-0.4335260849	-0.063276409	 0.128992
H	-0.6721953389	-0.0651788932	-2.6108511471	 0.242002
H	-2.2771436214	-0.2891276252	-2.418607699	 0.243595
63.5114	150.8037	194.33	222.8479	248.633	289.8219	339.348	348.1135	355.7298	465.5717	544.2367	602.398	726.0351	791.7844	844.7891	881.5965	904.3603	939.3785	954.231	987.241	1047.6127	1070.7437	1090.7649	1096.8777	1122.9635	1190.592	1210.1576	1263.9454	1336.1653	1358.0533	1389.476	1415.1563	1467.0124	1486.5261	1500.9856	1511.9641	1655.1711	2341.4506	3025.1663	3031.0547	3096.5601	3125.3002	3131.9176	3137.5543	3212.7526	3226.5122	3493.5662	3575.7699
CC1(CC1)C(N)C#N	CC1(CC1)[C@@H](N)C#N	
InChI=1S/C6H10N2/c1-6(2-3-6)5(8)4-7/h5H,2-3,8H2,1H3	InChI=1S/C6H10N2/c1-6(2-3-6)5(8)4-7/h5H,2-3,8H2,1H3/t5-/m0/s1
