21
gdb 83811	2.13936	1.65128	1.37497	1.654	83.82	-0.2261	0.0098	0.2359	1089.6477	0.183554	-387.09222	-387.083621	-387.082676	-387.12488	34.149	
C	 0.0533188488	 1.5433978992	-0.0746537703	-0.468993
C	 0.0273725392	 0.029010471	 0.0134161745	 0.251655
C	-1.2184465977	-0.6196050606	-0.4767907984	-0.159371
C	-1.8726110132	-1.5569579343	 0.2146520587	-0.060686
C	-1.4225765916	-2.0309573851	 1.5750220812	-0.254605
C	 0.1053065242	-1.9374933942	 1.7590436049	-0.241422
C	 0.7162916454	-0.661401126	 1.186197687	-0.135388
C	 1.3256776903	-0.7235536498	-0.2038218253	 0.081222
O	 1.3698787919	-1.9292376806	-0.9034316754	-0.422729
H	 1.0182952166	 1.9404203265	 0.2559092983	 0.115407
H	-0.1112562295	 1.883021339	-1.1043174145	 0.116045
H	-0.725243706	 1.9905115987	 0.5539347736	 0.11849
H	-1.5993426133	-0.2852263441	-1.4405509723	 0.086808
H	-2.792400726	-1.976964912	-0.1854232858	 0.091766
H	-1.9350309518	-1.4290335166	 2.3403256848	 0.113376
H	-1.7542007959	-3.0619662382	 1.7422219863	 0.102196
H	 0.3535882436	-2.0189692999	 2.8212059589	 0.09704
H	 0.5700769556	-2.7971869104	 1.2618935337	 0.115571
H	 1.2084409602	-0.0048387817	 1.8977017627	 0.078259
H	 2.2180909393	-0.1360900116	-0.3998993976	 0.094439
H	 0.4618643499	-2.1752531593	-1.123431025	 0.280921
100.1848	171.8115	213.0504	246.6593	264.7839	293.1629	336.3804	398.6927	460.745	501.8924	565.6801	598.4124	649.1256	743.6485	773.9247	795.2783	832.3761	888.2754	947.6734	959.1647	983.2687	1005.8871	1029.7588	1056.5127	1074.2784	1108.2922	1128.6204	1141.5137	1191.3532	1208.2761	1225.0987	1271.6636	1306.4461	1321.2728	1353.9979	1371.4083	1384.8527	1414.0206	1421.9382	1453.1427	1478.1961	1490.0928	1496.5913	1501.7367	1703.07	2998.6006	3020.4536	3034.0449	3056.6499	3081.8935	3082.1749	3097.5245	3131.3547	3141.956	3152.8403	3161.7807	3749.3072
CC12C=CCCC1C2O	C[C@]12C=CCC[C@H]1[C@H]2O	
InChI=1S/C8H12O/c1-8-5-3-2-4-6(8)7(8)9/h3,5-7,9H,2,4H2,1H3	InChI=1S/C8H12O/c1-8-5-3-2-4-6(8)7(8)9/h3,5-7,9H,2,4H2,1H3/t6-,7+,8-/m0/s1
