19
gdb 100480	5.12766	0.57993	0.54509	3.2931	84.08	-0.2463	0.0245	0.2708	2019.1867	0.157911	-422.976135	-422.966177	-422.965233	-423.012631	35.683	
O	 0.1148025607	 1.4084677145	-0.1872971371	-0.419393
C	 0.1151444703	 0.0136262454	 0.0015621005	-0.051868
C	-1.3310558623	-0.5103324505	 0.0941816578	-0.070184
O	-2.0695962008	-0.0209954709	-1.0381843323	-0.432202
C	-1.3806808411	-1.9616969217	 0.2136736918	 0.025227
C	-1.3829378121	-3.1674446143	 0.2693712111	 0.101519
C	-1.4002522129	-4.5976716112	 0.3492388574	-0.162096
C	-2.0165081949	-5.2858329287	 1.5593458451	-0.249513
C	-2.7178396688	-5.3525691443	 0.2376484577	-0.250955
H	-0.5637606215	 1.5732518598	-0.8557782961	 0.286223
H	 0.6289489415	-0.5163710867	-0.8186092966	 0.081179
H	 0.6536856351	-0.2025728372	 0.9293269216	 0.115791
H	-1.8080579735	-0.0355116256	 0.9597491368	 0.120581
H	-1.9019929296	-0.6280984381	-1.7683028583	 0.28673
H	-0.5357622306	-5.0927217163	-0.0833911357	 0.112946
H	-1.5152496275	-6.1733090695	 1.928326548	 0.122389
H	-2.4342495688	-4.6464646808	 2.3274683767	 0.130893
H	-3.613822011	-4.7584464944	 0.1046665746	 0.130911
H	-2.7048920223	-6.2867698897	-0.312146963	 0.121823
25.5625	73.0078	82.1774	152.0951	170.0154	225.8208	299.9503	315.98	418.2407	468.7316	505.9339	525.1475	528.971	573.1397	740.2514	799.944	823.0437	855.7926	893.7871	920.5504	1028.0336	1061.3282	1063.7704	1081.4621	1083.5266	1095.5906	1117.7703	1183.7206	1201.6014	1201.9548	1230.5885	1268.6198	1297.1456	1374.6391	1390.9367	1417.5125	1437.2248	1467.5534	1497.9726	1503.9078	2349.2167	2961.2895	3046.3021	3085.5276	3142.9392	3144.8233	3149.5034	3228.1689	3243.0859	3760.0646	3801.0618
OCC(O)C#CC1CC1	OC[C@@H](O)C#CC1CC1	
InChI=1S/C7H10O2/c8-5-7(9)4-3-6-1-2-6/h6-9H,1-2,5H2	InChI=1S/C7H10O2/c8-5-7(9)4-3-6-1-2-6/h6-9H,1-2,5H2/t7-/m0/s1
