17
gdb 83916	2.8085	1.41571	1.22697	1.7693	75.11	-0.2346	0.0399	0.2746	1062.7758	0.136025	-421.776717	-421.768753	-421.767809	-421.808889	31.284	
O	 0.1136497	 1.3787373832	-0.083075647	-0.431611
C	 0.0095416018	-0.0018032988	 0.0183365959	 0.099125
C	-0.4275378795	-0.7187930469	 1.2628237163	-0.175386
C	-1.1780958564	 0.1165260435	 2.2798306846	-0.114958
O	-2.0922834092	 0.9144218366	 1.5166430764	-0.280381
C	-2.5240196034	 0.1403631304	 0.3946191648	-0.16919
C	-1.3325163076	-0.7365518647	 0.0135218196	 0.092226
C	-1.5476870463	-1.8924482008	-0.795156702	 0.15936
C	-1.7343604363	-2.8576546449	-1.4896689346	-0.375679
H	-0.5921953923	 1.7653337613	 0.4552489688	 0.30105
H	 0.7906111184	-0.4803886481	-0.5618962735	 0.12004
H	 0.0854445536	-1.6152709597	 1.5902168022	 0.108456
H	-1.7145350825	-0.5268306052	 2.9924184368	 0.111707
H	-0.5455467704	 0.8102798478	 2.84254062	 0.124656
H	-3.3876985121	-0.4890743823	 0.6501633062	 0.115761
H	-2.8176288634	 0.8446075028	-0.3890321285	 0.127959
H	-1.8939794244	-3.7087083743	-2.1039724161	 0.186862
132.6222	148.9863	203.9108	242.4639	280.8962	411.1185	483.4555	500.1589	544.7812	552.7451	575.6843	583.0239	652.3156	714.0662	733.4448	853.5775	877.763	922.086	956.9527	1014.6495	1043.1922	1077.8384	1088.2588	1099.0379	1141.7057	1202.0373	1224.4956	1245.3031	1256.6861	1320.9313	1335.7355	1357.7632	1419.314	1470.091	1508.3318	1521.5683	2232.9238	3001.1818	3011.9078	3079.4096	3090.0604	3179.4862	3189.6913	3503.13	3723.2106
OC1C2COCC12C#C	O[C@H]1[C@H]2COC[C@@]12C#C	
InChI=1S/C7H8O2/c1-2-7-4-9-3-5(7)6(7)8/h1,5-6,8H,3-4H2	InChI=1S/C7H8O2/c1-2-7-4-9-3-5(7)6(7)8/h1,5-6,8H,3-4H2/t5-,6+,7-/m1/s1
