15
gdb 42287	2.62046	1.51287	0.97099	3.2234	76.82	-0.2586	-0.0446	0.214	1148.0453	0.111695	-416.793797	-416.785321	-416.784377	-416.8275	30.549	
N	-0.0424762826	 1.3401165721	 0.0129835415	-0.505638
C	 0.0084083657	 0.0620004926	 0.0037214411	 0.185686
C	-1.2016724533	-0.7089266204	 0.008990086	 0.363049
C	-2.2187605026	-1.3469914602	 0.0135039706	-0.41304
N	 1.187732329	-0.683833383	-0.011814861	-0.15242
C	 2.5816889251	-0.213688805	-0.0204693677	-0.188915
C	 3.0257045369	-1.7021085874	-0.0344620889	-0.380831
C	 1.5258680086	-2.050707675	-0.0236584176	 0.429033
O	 0.8668623798	-3.0466011771	-0.024730004	-0.330714
H	 0.8952821419	 1.7461246999	 0.007521248	 0.222191
H	-3.1142469068	-1.9186260804	 0.0175362266	 0.214383
H	 2.8401949134	 0.3624377276	-0.913736397	 0.131926
H	 2.8554565817	 0.3501495677	 0.8760893905	 0.131929
H	 3.551064251	-2.029174007	-0.9329942472	 0.146689
H	 3.5666656522	-2.0412692845	 0.8502195291	 0.146671
58.1598	118.5322	123.6936	197.1935	226.4904	290.5065	372.1595	480.0394	539.7423	564.9282	659.5466	664.8874	700.9828	716.8623	775.1339	814.965	865.9469	924.0815	994.9981	1047.9284	1048.609	1137.4803	1153.7585	1194.7808	1227.2713	1247.7075	1344.3163	1383.6465	1460.754	1523.2649	1661.8439	1899.7601	2248.4422	3050.8604	3093.7249	3100.1975	3151.2798	3461.7492	3502.1061
N=C(C#C)N1CCC1=O	[NH][C](C#C)N1CCC1=O	
InChI=1S/C6H6N2O/c1-2-5(7)8-4-3-6(8)9/h1,7H,3-4H2	InChI=1S/C6H6N2O/c1-2-5(7)8-4-3-6(8)9/h1,7H,3-4H2
