16
gdb 39517	3.10622	2.10834	1.60816	1.358	73.27	-0.2359	-0.0205	0.2155	841.4506	0.128677	-396.89731	-396.891287	-396.890343	-396.927363	25.31	
C	-0.0053622125	 1.5617098132	 0.0423051478	-0.186198
N	 1.4121414643	 1.973879731	 0.0559001768	-0.214778
C	 2.0879011249	 0.951612707	-0.2936863422	 0.234138
N	 3.3696370705	 0.6658160615	 0.240480591	-0.35015
C	 3.0850249952	-0.0841903571	 1.4246810892	 0.074784
N	 2.0114990079	-0.724764876	 1.6767840264	-0.242258
C	 1.0462282687	-0.902414358	 0.6153749341	 0.021639
C	 0.0129850196	 0.0419612762	-0.0915579987	-0.084278
C	 1.3387438623	-0.2810910647	-0.7164633015	-0.177276
H	-0.4501613192	 1.9183878271	 0.9776198326	 0.127775
H	-0.5675166827	 2.0208169775	-0.7824748703	 0.114484
H	 3.919914058	 1.4912110369	 0.4541838722	 0.252819
H	 3.8842076216	-0.0555582937	 2.1637784499	 0.124137
H	 0.6629892302	-1.9193730385	 0.619616517	 0.10636
H	-0.8927379834	-0.4698291487	-0.3955979244	 0.095147
H	 1.5701826046	-0.8141638138	-1.6308374899	 0.103653
195.8349	277.975	394.8988	423.8776	532.0422	552.7265	625.5918	670.4856	699.3768	758.8796	781.6964	801.8313	853.8384	912.5634	933.4106	959.1038	975.4158	1012.6855	1020.643	1048.2293	1050.6382	1055.4812	1099.0187	1169.6998	1190.6199	1237.7968	1293.611	1315.2289	1346.7848	1376.5362	1393.3551	1403.3884	1477.8335	1664.6734	1696.3282	3017.3613	3069.4589	3139.846	3147.4093	3175.8477	3187.4723	3543.01
C1N=C2NC=NC3C1C23	C1[N][C]2NC=N[C@H]3[C@@H]1[C@@H]23	
InChI=1S/C6H7N3/c1-3-4-5(3)8-2-9-6(4)7-1/h2-5H,1H2,(H,7,8,9)	InChI=1S/C6H7N3/c1-3-4-5(3)8-2-9-6(4)7-1/h2-5H,1H2,(H,7,8,9)/t3-,4+,5-/m0/s1
