18
gdb 14262	3.12535	2.61307	1.8219	0.5618	77.88	-0.2065	-0.0272	0.1793	787.253	0.157772	-310.667633	-310.661457	-310.660513	-310.697439	25.934	
C	-0.0296690177	 1.5323158059	-0.0163371996	-0.220285
C	 1.5317737006	 1.5281155761	 0.007725656	-0.055322
C	 1.4202879572	 0.1014498226	 0.6329159976	-0.220285
C	-0.0077508121	-0.0288515099	 0.0145137716	-0.055322
C	-0.012841742	-0.6548903927	-1.3536868361	-0.083629
C	 0.7851412222	-0.3112778378	-2.3785406635	-0.073166
C	 1.8126391466	 0.7279465565	-2.3830901156	-0.073165
C	 2.1516831503	 1.534274909	-1.3632590709	-0.083629
H	-0.4268539377	 1.9291177841	 0.9208841297	 0.098651
H	-0.5213812412	 2.0148388974	-0.8627624071	 0.104917
H	 1.9999405822	 2.2878770039	 0.6366297402	 0.060793
H	 2.1674541132	-0.6386274845	 0.3412399123	 0.104917
H	 1.3626284125	 0.1632304081	 1.7221595029	 0.098651
H	-0.7594450671	-0.5027543478	 0.6487933764	 0.060793
H	-0.7300136377	-1.4553194818	-1.5158571782	 0.085834
H	 0.6682176842	-0.8540131728	-3.3134021268	 0.082207
H	 2.3498805885	 0.8469094808	-3.3208630508	 0.082207
H	 2.943153588	 2.2597938529	-1.5321331482	 0.085834
219.9729	244.8509	337.0762	377.787	463.3292	556.1614	614.0033	715.1403	787.6261	796.6615	799.8655	820.3662	848.3033	854.2634	920.8955	945.9492	984.244	1002.2777	1003.2949	1014.6456	1075.3049	1083.4828	1110.9637	1151.0864	1173.4148	1240.6634	1249.0315	1253.3598	1257.8113	1266.4997	1365.316	1369.6343	1415.2994	1449.3959	1470.017	1492.8009	1657.9673	1698.4505	3061.3162	3061.8953	3078.8168	3083.6186	3126.317	3127.5982	3139.742	3149.2716	3164.3873	3173.7618
C1C2CC1C=CC=C2	C1[C@H]2C[C@@H]1C=CC=C2	
InChI=1S/C8H10/c1-2-4-8-5-7(3-1)6-8/h1-4,7-8H,5-6H2	InChI=1S/C8H10/c1-2-4-8-5-7(3-1)6-8/h1-4,7-8H,5-6H2/t7-,8+
