14
gdb 19801	4.38623	2.12189	1.89433	2.5513	61.7	-0.2504	0.0014	0.2518	723.0468	0.108752	-378.647967	-378.642119	-378.641175	-378.677796	23.267	
N	-0.0511247229	 1.2595418141	-0.1004911658	-0.543569
C	-0.0377157748	 0.0109379677	-0.0049584878	 0.422423
O	 1.0336520208	-0.8740725235	 0.1154316174	-0.271031
C	 0.1273577467	-2.0230149526	 0.1021648449	 0.089628
C	-0.3890578316	-2.4752004892	 1.4730072198	-0.042929
C	-0.6105453571	-1.3432069427	 2.3903164995	-0.247136
N	-1.626857722	-1.5811154299	 1.3496012556	-0.146131
C	-1.0795627216	-1.0926920841	 0.0054394528	-0.106802
H	 0.8936260741	 1.6487474995	-0.0800872228	 0.233089
H	 0.4186574388	-2.7741928616	-0.6282932258	 0.106905
H	-0.4746712016	-3.5124573455	 1.7784812212	 0.106852
H	-0.9841109391	-1.5875097075	 3.3798025635	 0.133416
H	 0.0231840865	-0.4635824252	 2.3499889917	 0.146639
H	-1.8428070762	-1.1078443195	-0.7676835144	 0.118646
143.5454	244.1088	366.1922	446.8904	547.6167	639.7893	681.9052	717.793	781.2765	815.7532	872.4487	888.4457	893.2679	946.2642	970.6771	987.3363	1000.9265	1032.9013	1061.5474	1107.8728	1137.4559	1183.427	1206.5442	1231.1825	1249.1402	1282.159	1320.641	1358.9806	1504.5457	1816.9971	3130.1212	3145.7604	3160.5958	3173.7627	3216.8644	3471.7504
N=C1OC2C3CN3C12	[NH][C]1O[C@H]2[C@H]3CN3[C@@H]12	
InChI=1S/C5H6N2O/c6-5-3-4(8-5)2-1-7(2)3/h2-4,6H,1H2	InChI=1S/C5H6N2O/c6-5-3-4(8-5)2-1-7(2)3/h2-4,6H,1H2/t2-,3-,4+,7?/m1/s1
