18
gdb 12289	4.2572	1.4179	1.21426	3.1758	63.96	-0.2454	0.0575	0.3029	1021.6849	0.153056	-422.048628	-422.0403	-422.039355	-422.081458	31.05	
C	 0.1483358403	 0.9590952361	-0.4043924718	-0.252318
O	-0.4161244795	 0.0277648809	 0.5060580846	-0.250533
C	 0.523606575	-0.5245176382	 1.4011566906	 0.098453
C	-0.1044664786	-1.398699265	 2.5057249872	-0.313379
C	 0.9739474163	-2.4902550278	 2.2142310528	 0.14858
O	 0.573985139	-3.8237098908	 2.11564636	-0.437991
C	 1.2849460346	-1.7791185768	 0.8590949134	 0.055001
O	 0.5553359639	-2.3950359686	-0.1878590235	-0.452532
H	 0.9181821818	 0.4974784239	-1.037664006	 0.123627
H	-0.6643263497	 1.3214033595	-1.037785427	 0.135062
H	 0.5945358544	 1.8102936929	 0.1286150306	 0.119025
H	 1.1999704891	 0.2503218151	 1.7833757552	 0.073921
H	-0.160923614	-0.9803016697	 3.5120070407	 0.105264
H	-1.096902653	-1.7430894065	 2.2034436933	 0.113955
H	 1.8128637587	-2.43363199	 2.9147064706	 0.080965
H	 0.2052939018	-3.9066038241	 1.2233041012	 0.285677
H	 2.3327800684	-1.677524288	 0.560220686	 0.071428
H	-0.1919424185	-1.8062364829	-0.3745294079	 0.295794
77.6273	99.9416	179.2753	259.6341	272.8372	293.439	387.8424	426.402	458.0078	546.8455	577.6073	637.4565	697.3962	777.3753	860.2159	899.8222	944.93	1016.5658	1067.8041	1096.4763	1124.6712	1132.1143	1166.8945	1174.8847	1186.3196	1237.8724	1240.3701	1252.6657	1282.2932	1328.0616	1347.5964	1379.8591	1410.445	1448.641	1474.4698	1483.0921	1490.4006	1506.7844	2995.6779	3025.0578	3051.1431	3053.675	3067.0899	3071.7903	3124.2513	3132.3977	3699.2427	3718.4377
COC1CC(O)C1O	CO[C@H]1C[C@@H](O)[C@H]1O	
InChI=1S/C5H10O3/c1-8-4-2-3(6)5(4)7/h3-7H,2H2,1H3	InChI=1S/C5H10O3/c1-8-4-2-3(6)5(4)7/h3-7H,2H2,1H3/t3-,4+,5-/m1/s1
