15
gdb 14356	4.52478	2.33703	2.064	1.5657	64.34	-0.2552	0.0037	0.2589	691.1071	0.1217	-362.583851	-362.578526	-362.577582	-362.612917	22.446	
C	-0.0700291496	 1.522468898	 0.0030031591	-0.252885
C	 1.4524038641	 1.2783551761	 0.018621867	-0.108956
C	 1.1748615946	 0.0973832673	 1.0499649748	-0.30704
C	 0.1181374865	-0.0333878945	-0.0857814608	 0.344643
N	-0.8814128886	-0.8481933638	-0.7597354237	-0.358405
C	-0.6089447269	-0.5794824573	-1.9815030343	 0.08781
O	 0.4919643048	 0.1944352259	-2.3091971756	-0.258468
C	 1.244325756	 0.1802179103	-1.0707964543	 0.108591
H	-0.5160647088	 1.9033066554	 0.9234469893	 0.098939
H	-0.4809055326	 2.0075471014	-0.8826107576	 0.112637
H	 2.2519805554	 2.0139271461	 0.0933277628	 0.087988
H	 1.9299970336	-0.6898377965	 1.115913707	 0.107439
H	 0.826000025	 0.4148323702	 2.0340241596	 0.11173
H	-1.1884844777	-0.8982193727	-2.840509013	 0.1416
H	 2.0346857242	-0.5705295058	-1.1622733703	 0.084376
309.3542	323.6306	435.7055	513.5926	580.4399	587.9439	726.5513	772.0199	838.0315	850.7693	908.4791	918.5745	936.5053	950.3439	965.7284	998.8537	1030.5841	1050.5163	1068.9101	1086.024	1122.8235	1150.9822	1178.7194	1196.1874	1226.8671	1242.4188	1269.3012	1318.1103	1386.3218	1492.8031	1532.1693	1605.913	3062.2211	3068.6744	3078.4258	3127.0181	3138.615	3150.0537	3219.9558
C1C2CC11N=COC21	C1[C@H]2C[C@]31[N][CH]O[C@@H]23	
InChI=1S/C6H7NO/c1-4-2-6(1)5(4)8-3-7-6/h3-5H,1-2H2	InChI=1S/C6H7NO/c1-4-2-6(1)5(4)8-3-7-6/h3-5H,1-2H2/t4-,5-,6-/m0/s1
