23
gdb 76853	2.25733	1.66797	1.42051	0.2426	87.88	-0.2273	0.0741	0.3013	1090.604	0.20659	-351.099003	-351.09029	-351.089346	-351.131836	34.705	
C	 0.1903208571	 1.6082782229	 0.5036214646	-0.416487
C	 0.3253810386	 0.1091803533	 0.2549106824	-0.006315
C	 1.038073167	-0.4694727189	-1.0401204638	-0.006317
C	 1.6303679952	 0.4390917159	-2.1130101105	-0.416489
C	 1.94623318	-1.3567729067	-0.1225848105	-0.035459
C	 3.3149772656	-0.8919300752	 0.4278854744	-0.060727
C	 3.3927008363	 0.5675887668	 0.765250673	-0.287074
C	 2.6214741864	-0.3288772673	 1.6880684598	-0.060724
C	 1.2491300097	-0.7907792451	 1.1441251531	-0.035462
H	 1.1398660956	 2.1458417751	 0.4887975256	 0.120118
H	-0.4620606482	 2.0674958945	-0.2478503555	 0.111246
H	-0.2656582821	 1.7873016548	 1.4840663379	 0.113146
H	-0.6867695636	-0.3084036714	 0.2960977683	 0.069664
H	 0.3274446557	-1.1318585464	-1.5468484247	 0.069662
H	 2.3625009906	 1.1531365467	-1.7322863002	 0.120121
H	 2.134699085	-0.1618829079	-2.878332449	 0.113143
H	 0.8408730433	 1.0099839358	-2.6149785548	 0.111247
H	 1.9201515608	-2.4280410032	-0.3277085609	 0.061562
H	 4.2172295919	-1.4893922935	 0.3633998149	 0.079773
H	 4.3578740621	 0.8740787073	 1.1594595791	 0.109203
H	 2.9203562611	 1.3310991028	 0.1641844947	 0.104833
H	 2.917191823	-0.433923806	 2.7257074893	 0.079773
H	 0.732634539	-1.4638833043	 1.8300799728	 0.061562
129.3775	140.8414	178.99	182.2122	220.4108	265.6743	320.6744	442.0529	511.1248	584.9006	622.3461	709.9614	727.8818	733.2118	780.5045	822.594	894.8297	901.2139	909.5932	954.3465	962.8045	1009.6444	1026.0921	1032.5868	1033.1338	1067.0138	1100.2652	1100.6997	1113.1811	1134.4244	1173.4802	1179.5498	1188.3749	1215.5208	1236.1775	1267.15	1295.574	1315.3675	1328.9854	1354.4917	1374.5547	1384.3248	1409.864	1415.4478	1483.808	1491.8222	1492.4931	1500.7094	1508.8273	3017.0763	3031.5352	3032.4652	3041.7719	3084.6095	3085.8172	3087.4402	3097.3238	3127.0678	3129.5115	3139.802	3164.0198	3175.5352	3239.3153
CC1C(C)C2C3CC3C12	C[C@H]1[C@@H](C)[C@H]2[C@H]3C[C@H]3[C@@H]12	
InChI=1S/C9H14/c1-4-5(2)9-7-3-6(7)8(4)9/h4-9H,3H2,1-2H3	InChI=1S/C9H14/c1-4-5(2)9-7-3-6(7)8(4)9/h4-9H,3H2,1-2H3/t4-,5+,6+,7-,8+,9-
