13
gdb 23883	3.48881	1.47796	1.27959	2.0278	49.04	-0.2438	0.0054	0.2492	942.1021	0.091821	-526.290798	-526.282555	-526.28161	-526.324295	28.416	
C	-0.0151770951	 1.4390414236	 0.0647143174	-0.316053
N	 0.0334791855	-0.0064956372	-0.051460814	-0.307529
C	 0.6188913113	-0.5919582567	-1.132409023	 0.223769
N	 1.0497299036	 0.0652608177	-2.1365089207	-0.530959
C	 0.6245727582	-2.1227201306	-1.0492649251	 0.23901
F	 1.5197807664	-2.6470832823	-1.8872712651	-0.064063
F	 0.9235408298	-2.5436035483	 0.1954175743	-0.086273
F	-0.5747363238	-2.6295778704	-1.3598468572	-0.064686
H	 0.9847567032	 1.8811646062	 0.1586432259	 0.135168
H	-0.4804449904	 1.8601033486	-0.8294078429	 0.15778
H	-0.6115814423	 1.7028576144	 0.9401485704	 0.125397
H	-0.0080088138	-0.5524722551	 0.7925589581	 0.257582
H	 1.4082153275	-0.5656585899	-2.8495760081	 0.230856
46.8364	123.8735	131.1253	197.4233	281.3604	312.4458	378.3548	413.5891	441.7996	515.7933	584.5521	713.3849	741.8926	826.4051	850.6652	1012.6982	1153.8602	1163.749	1186.6917	1193.1503	1212.011	1252.2302	1373.5178	1454.9116	1477.4755	1509.7849	1567.7364	1732.9159	3025.9565	3101.0546	3142.1048	3525.9528	3659.3728
CNC(=N)C(F)(F)F	CNC(=N)C(F)(F)F	
InChI=1S/C3H5F3N2/c1-8-2(7)3(4,5)6/h1H3,(H2,7,8)	InChI=1S/C3H5F3N2/c1-8-2(7)3(4,5)6/h1H3,(H2,7,8)
