14
gdb 33619	3.5923	1.66849	1.45548	0.2926	71.14	-0.2521	0.0044	0.2565	889.5072	0.10104	-399.410588	-399.404272	-399.403327	-399.441192	25.729	
C	-0.0239329871	-1.2116865732	-0.0814452537	-0.309769
C	-0.0254104406	-0.0090457295	-0.0516123096	-0.030698
C	-0.0249065649	 1.4108053077	-0.0124564314	 0.316497
C	-0.4776888843	 2.3571285368	 1.1521108601	 0.00825
O	 0.8818063719	 2.6941901037	 1.4891679218	-0.283779
C	 1.1960781517	 2.3849873657	 0.1176789364	 0.008286
C	 0.3419080276	 3.3097027058	-0.7814600159	-0.063851
C	-0.9224532692	 3.2884631074	-0.0002496319	-0.063874
N	-0.7088693222	 2.2833617476	-1.0959614085	-0.207705
H	-0.0235014388	-2.2734355034	-0.10899705	 0.190076
H	-1.1187412356	 2.1155835546	 1.9957415154	 0.106779
H	 2.2428054349	 2.1715416203	-0.081836015	 0.106778
H	 0.6350859934	 4.0720711715	-1.4901884886	 0.111504
H	-1.7058177069	 4.0327039149	-0.043848589	 0.111506
145.1497	156.399	425.9683	457.3162	503.2786	586.6487	612.485	630.2069	670.0674	756.5809	779.8964	817.7713	837.0669	859.0251	869.2155	907.1334	927.8605	942.2136	1001.3741	1001.4688	1031.7028	1075.2216	1118.23	1130.5012	1186.6958	1214.3409	1275.0775	1276.4225	1313.4254	1352.1692	2234.6006	3163.3331	3165.7766	3207.6621	3218.781	3500.5775
C#CC12C3OC1C1C3N21	C#C[C@@]12[C@H]3O[C@@H]1[C@@H]1[C@H]3N21	
InChI=1S/C7H5NO/c1-2-7-5-3-4(8(3)7)6(7)9-5/h1,3-6H	InChI=1S/C7H5NO/c1-2-7-5-3-4(8(3)7)6(7)9-5/h1,3-6H/t3-,4+,5+,6-,7-,8?
