18
gdb 80648	2.99265	1.57766	1.27721	2.2332	70.88	-0.239	-0.042	0.197	1006.6078	0.148975	-439.049875	-439.042472	-439.041528	-439.081659	29.378	
O	 0.1378205937	 1.3400557319	 0.0276401286	-0.443593
C	 0.0803694811	-0.061346254	-0.0563782317	 0.125865
C	-1.3721949214	-0.5341262506	-0.2302654465	-0.042595
C	-1.1647610868	-1.964963719	-0.7791385086	-0.186932
N	-0.5935096905	-1.2930146029	-2.0187436191	-0.144044
C	-1.6083051841	-0.194910201	-1.7204354933	-0.18603
C	 0.6220019494	-0.6865615886	-1.4090834912	-0.119435
C	 1.3085162662	 0.2717371988	-2.3494455448	 0.144569
O	 2.0361436519	 1.1672114721	-1.9851295957	-0.269646
H	 1.00145716	 1.6166203915	-0.3104696911	 0.299535
H	 0.5609487071	-0.5282846688	 0.815287623	 0.070286
H	-2.0696186599	-0.2802974545	 0.568174662	 0.078493
H	-0.4779114195	-2.6452343009	-0.2654425902	 0.103018
H	-2.0925993882	-2.4835804738	-1.0281841734	 0.115194
H	-2.5888062453	-0.4885940839	-2.0988546676	 0.113018
H	-1.3417100797	 0.8044304964	-2.072216066	 0.119086
H	 1.3529443506	-1.4817903844	-1.2094705805	 0.112876
H	 1.1200286354	 0.0784260916	-3.426606974	 0.110336
111.5305	157.6057	231.3923	274.5212	367.6373	417.1145	490.2905	517.6465	569.5287	651.5955	703.5326	777.2403	839.0749	859.0905	874.5124	885.8511	930.9646	971.462	1011.2148	1017.048	1035.063	1079.8099	1091.203	1130.5334	1152.2417	1185.4246	1210.2119	1231.3032	1239.1664	1261.707	1298.9439	1302.0913	1329.9514	1367.6967	1396.7207	1423.7897	1499.6554	1530.8481	1802.4988	2917.9972	2992.9552	3025.3881	3051.4849	3071.9992	3117.7884	3122.2915	3136.4902	3728.4526
OC1C2CN(C2)C1C=O	O[C@H]1[C@@H]2CN(C2)[C@H]1C=O	
InChI=1S/C6H9NO2/c8-3-5-6(9)4-1-7(5)2-4/h3-6,9H,1-2H2	InChI=1S/C6H9NO2/c8-3-5-6(9)4-1-7(5)2-4/h3-6,9H,1-2H2/t5-,6-/m0/s1
