17
gdb 70839	2.50285	1.93339	1.41898	2.3103	67.25	-0.2202	0.0663	0.2865	936.4972	0.135807	-458.912017	-458.904344	-458.9034	-458.943646	30.42	
O	-0.0798307001	 1.3533348341	 0.0568024121	-0.475057
C	 0.0529681499	-0.018483173	 0.0314162072	 0.381324
C	 0.7443837381	-0.9612958483	 1.0514190678	-0.391548
C	 0.0782184796	-1.88896237	 0.0011743113	 0.38132
O	-0.0175050943	-3.2639665988	-0.0178464621	-0.475055
C	-1.1800649559	-0.9698102861	-0.0289091669	-0.142952
C	-1.6765096007	-0.9532201535	-1.4688809357	-0.116409
O	-0.4275230403	-0.924706881	-2.1894190085	-0.28019
C	 0.5239068895	-0.9287027851	-1.1482957119	-0.024441
H	 0.779709191	 1.7521916791	-0.1152509756	 0.287313
H	 1.8391778637	-0.9470135586	 1.0820471929	 0.082491
H	 0.3150368968	-0.9833199942	 2.055085333	 0.105806
H	 0.8525122278	-3.6337275235	-0.2018182859	 0.28731
H	-1.8913577901	-0.9927524591	 0.7959883612	 0.082238
H	-2.2436722691	-1.8509222049	-1.7403851712	 0.110601
H	-2.2678019379	-0.0628338904	-1.7114575887	 0.1106
H	 1.5432584119	-0.9086638668	-1.5362800689	 0.076649
190.2225	210.0889	226.271	258.3736	264.5571	288.4649	429.6083	471.8133	536.2237	615.5284	692.3464	705.5506	719.3066	776.4878	877.9071	921.1846	952.2072	996.7549	1007.1232	1016.6856	1073.2469	1080.7592	1095.025	1098.8451	1111.1317	1125.2556	1142.8017	1200.3539	1276.4836	1276.6087	1301.664	1337.8706	1350.1423	1364.5239	1442.8397	1513.7692	1529.5643	3029.571	3042.2213	3071.7197	3118.0473	3119.4423	3131.9537	3810.5993	3811.311
OC12CC3(O)C1COC23	O[C@@]12C[C@@]3(O)[C@@H]1CO[C@@H]23	
InChI=1S/C6H8O3/c7-5-2-6(8)3(5)1-9-4(5)6/h3-4,7-8H,1-2H2	InChI=1S/C6H8O3/c7-5-2-6(8)3(5)1-9-4(5)6/h3-4,7-8H,1-2H2/t3-,4+,5+,6-
