16
gdb 127915	4.90235	0.91338	0.7978	2.7125	70.64	-0.2179	-0.0052	0.2126	1408.1948	0.123589	-471.185718	-471.176588	-471.175644	-471.220619	31.772	
C	-0.2233324785	 1.2784160304	 0.0266555342	-0.32378
N	-0.3537840723	-0.1124888395	 0.4350076066	-0.388148
C	 0.5777897423	-0.6261033593	 1.1054735246	 0.534926
N	 0.6391127006	-1.925665448	 1.593411681	-0.400321
C	 1.7894904551	-2.0491312734	 2.3163434923	 0.376157
C	 2.175933432	-3.3152937492	 3.0171498953	-0.183125
O	 1.077173222	-3.8808981806	 3.7120334751	-0.409759
N	 2.4975494568	-0.9701318309	 2.3188619706	-0.186913
O	 1.7558437346	-0.0443420296	 1.5238322346	-0.255639
H	 0.4303396277	 1.377129772	-0.8504641136	 0.122002
H	-1.2094088398	 1.6583354924	-0.252796881	 0.119651
H	 0.1865982383	 1.9229052331	 0.8155047044	 0.121071
H	-0.1202950592	-2.5831279065	 1.5604998756	 0.289037
H	 2.4776159169	-4.0645410905	 2.2772944057	 0.145277
H	 3.0394255544	-3.1083908603	 3.6597618369	 0.140409
H	 0.8752471492	-3.3149089201	 4.4650987177	 0.299154
61.6113	64.749	91.8009	167.7809	210.6056	263.2401	302.3639	375.1512	439.8504	457.3685	512.9791	634.6893	700.2936	722.0302	763.5438	894.3291	932.7026	976.5993	1015.4119	1074.4571	1080.5334	1126.1509	1158.4771	1202.7287	1226.4174	1300.8685	1376.462	1411.5713	1447.9382	1487.1317	1492.3862	1501.4459	1507.5681	1661.4846	1820.0837	3001.6967	3041.5038	3051.9628	3087.962	3100.508	3692.831	3810.124
CN=C1NC(CO)=NO1	CN=c1[nH]c(CO)no1	
InChI=1S/C4H7N3O2/c1-5-4-6-3(2-8)7-9-4/h8H,2H2,1H3,(H,5,6,7)	InChI=1S/C4H7N3O2/c1-5-4-6-3(2-8)7-9-4/h8H,2H2,1H3,(H,5,6,7)
