21
gdb 39222	2.44231	2.13373	1.53517	0.2792	85.79	-0.2049	0.0209	0.2257	955.163	0.186753	-349.937924	-349.931138	-349.930194	-349.968405	29.944	
C	-0.0618048965	 1.4880430304	 0.0628292818	-0.42985
C	 1.3026495565	 0.8280532268	 0.0205661753	 0.008494
C	 2.2603163634	 0.4164327426	 1.1263636818	-0.244086
C	 2.3847138666	-1.1447049483	 1.1157494134	-0.20103
C	 1.0027854264	-1.8729508684	 0.9203716705	-0.045835
C	-0.1035599352	-0.8564575936	 1.2721799981	-0.26537
C	 0.0225764527	-0.0044730756	 0.0078109855	 0.327186
C	 0.0348747229	-1.0501572832	-1.0724417679	-0.170764
C	 0.6440442798	-2.1244431981	-0.556027933	-0.082872
H	-0.4306935194	 1.9175351457	 0.9907976705	 0.109165
H	-0.3469272829	 2.0518741057	-0.8204778868	 0.111581
H	 1.7738877207	 0.9001112224	-0.9569711091	 0.082018
H	 3.2494647859	 0.8664789459	 0.9905761296	 0.09067
H	 1.9098279303	 0.7577377734	 2.1053828155	 0.101543
H	 3.0727121822	-1.4481924514	 0.3192001351	 0.097892
H	 2.838179463	-1.4714356278	 2.0578334386	 0.091857
H	 0.976579447	-2.7891628863	 1.5158509994	 0.058417
H	-1.0861525334	-1.336153953	 1.316611972	 0.091986
H	 0.0588173245	-0.3135923979	 2.2059526956	 0.087243
H	-0.2887109799	-0.9053170633	-2.096017076	 0.093349
H	 0.8979667653	-3.0351992959	-1.0851280099	 0.088405
220.7673	261.7203	337.5079	376.5614	417.9842	467.7557	531.6168	579.0324	585.4449	724.5779	748.5084	775.3862	792.6496	814.8636	845.7208	884.2094	900.4932	931.9973	934.8684	944.5479	952.5095	1001.7555	1042.1543	1055.6426	1080.5335	1097.5592	1115.8237	1145.1648	1162.9946	1188.5837	1217.9515	1250.3637	1259.4469	1298.8815	1306.8943	1323.5206	1343.3752	1352.4485	1372.9499	1431.8821	1481.5277	1486.2217	1488.1301	1515.5616	1631.3963	3032.7827	3042.5039	3053.2047	3064.3623	3072.2891	3083.6253	3107.2311	3111.3516	3127.4817	3190.5389	3193.9028	3216.1266
C1C2CCC3CC12C=C3	C1[C@H]2CC[C@H]3C[C@@]12C=C3	
InChI=1S/C9H12/c1-2-8-6-9(8)4-3-7(1)5-9/h3-4,7-8H,1-2,5-6H2	InChI=1S/C9H12/c1-2-8-6-9(8)4-3-7(1)5-9/h3-4,7-8H,1-2,5-6H2/t7-,8-,9+/m1/s1
