20
gdb 107824	3.2861	1.47327	1.2763	0.7358	77.17	-0.2303	0.0814	0.3117	1067.756	0.172114	-403.107464	-403.099687	-403.098743	-403.139564	30.964	
C	-0.0253534891	 1.5542484716	-0.0030324455	-0.384958
C	-0.0450769327	 0.0245643363	-0.0966640859	-0.278773
C	-1.4329442591	-0.5580451748	 0.0329316356	 0.411306
C	-2.2162987475	-0.4658855168	 1.3731942527	-0.209491
N	-2.6654958842	-1.8971256857	 1.2586487974	-0.156937
C	-3.1208169184	-2.0939986346	-0.1512515317	-0.051561
C	-3.4574597469	-0.8745467614	-0.9963553978	-0.113402
O	-2.2563269972	-0.100901527	-1.0411964479	-0.302341
C	-1.6786726153	-2.0875042619	 0.1330374887	-0.116623
H	 0.9926465042	 1.9384808793	-0.1142241984	 0.111768
H	-0.6482991352	 1.9954048718	-0.7849150817	 0.138634
H	-0.4071868512	 1.8981028347	 0.9644878718	 0.116475
H	 0.3713322897	-0.2968483202	-1.0591629429	 0.107533
H	 0.5872020079	-0.4124754775	 0.6852367918	 0.101452
H	-1.567415003	-0.3811016106	 2.2487020751	 0.109894
H	-3.0161314347	 0.2790638335	 1.4365333447	 0.103084
H	-3.6701138646	-3.0174279033	-0.2941551792	 0.104834
H	-3.7347363547	-1.1614155343	-2.0171743665	 0.111652
H	-4.2835917896	-0.2868165706	-0.5720627728	 0.104346
H	-0.9812275183	-2.9142277385	 0.0732039226	 0.093107
96.6164	164.7894	198.7232	258.9303	333.3082	355.839	423.591	460.9763	620.6698	662.186	715.3311	774.963	777.7594	794.173	854.7221	917.6608	924.0467	960.0878	970.0161	991.049	1001.8344	1023.925	1042.1237	1065.6442	1100.9391	1127.2971	1159.4232	1193.8995	1200.5339	1223.9314	1241.1997	1269.9385	1300.3875	1330.7032	1356.418	1395.6536	1396.1167	1409.9567	1474.9078	1494.1408	1497.1178	1508.5629	1524.4118	3004.4889	3030.2362	3039.9594	3046.3756	3056.6999	3067.2056	3104.9782	3105.8627	3127.6898	3179.9744	3191.518
CCC12CN3C(CO1)C23	CC[C@@]12CN3[C@@H](CO1)[C@@H]23	
InChI=1S/C7H11NO/c1-2-7-4-8-5(3-9-7)6(7)8/h5-6H,2-4H2,1H3	InChI=1S/C7H11NO/c1-2-7-4-8-5(3-9-7)6(7)8/h5-6H,2-4H2,1H3/t5-,6-,7-,8?/m0/s1
