16
gdb 46947	2.79156	1.91733	1.414	2.467	67.81	-0.2454	-0.0396	0.2058	909.8583	0.126176	-437.846049	-437.839394	-437.838449	-437.877175	26.502	
O	 0.0142999098	-0.0127896437	 0.1326514347	-0.310444
C	-0.0358427539	 1.1881997725	-0.0040227852	 0.363792
C	-1.3912036418	 1.8806363971	-0.1806684257	-0.18977
O	-1.3561948354	 3.2194609317	-0.648206641	-0.260284
C	-0.2538407352	 3.9621978143	-0.1866141451	 0.08369
C	 0.2053040345	 3.777391835	 1.2891247399	-0.206887
N	 1.5105884205	 3.1674331271	 0.8588702473	-0.144508
C	 1.1264489444	 3.4157113592	-0.5739477412	-0.065981
C	 1.2055611539	 2.0253218125	-0.0598757159	-0.129564
H	-1.9639320862	 1.2952944582	-0.9051047881	 0.14774
H	-1.9256479459	 1.8145727852	 0.7806821438	 0.12922
H	-0.438185007	 4.9966591563	-0.4770856204	 0.104696
H	 0.4121178705	 4.7278876702	 1.7844924966	 0.126959
H	-0.4002783995	 3.1559430446	 1.9535789684	 0.120054
H	 1.8173912787	 3.8125747206	-1.3095276917	 0.10768
H	 2.0989484526	 1.4456634791	-0.2663857865	 0.123606
92.0117	214.6991	326.7348	377.4063	434.3283	489.609	514.0888	576.5815	655.1583	735.8135	773.2609	802.031	855.0784	877.2768	940.5789	967.695	1005.6429	1022.6138	1032.2166	1061.5545	1087.9057	1142.6861	1185.6681	1199.6675	1242.1183	1253.5601	1266.8464	1282.0461	1324.6488	1350.2273	1379.1357	1397.3157	1468.6465	1501.748	1802.1727	2983.0712	3070.3525	3096.5429	3112.4559	3127.3804	3173.1605	3183.038
O=C1COC2CN3C2C13	O=C1CO[C@H]2CN3[C@H]2[C@H]13	
InChI=1S/C6H7NO2/c8-3-2-9-4-1-7-5(3)6(4)7/h4-6H,1-2H2	InChI=1S/C6H7NO2/c8-3-2-9-4-1-7-5(3)6(4)7/h4-6H,1-2H2/t4-,5-,6+,7?/m0/s1
