23
gdb 53280	2.35973	0.93168	0.77022	0.1615	95.97	-0.2253	0.0568	0.2821	1635.0787	0.203266	-351.133356	-351.122264	-351.12132	-351.171468	39.63	
C	 0.2194783491	 1.5646360256	 0.2881479385	-0.498436
C	 0.1398118027	 0.1137335555	 0.1920589403	 0.046632
C	 0.0787980033	-1.0884444915	 0.1189275396	 0.095835
C	 0.0258458882	-2.5192750666	 0.0168962224	-0.205879
C	-0.5351178154	-3.3560296677	 1.160755899	-0.309777
C	-1.3010680621	-3.2592221088	-0.1258291919	 0.028112
C	-2.6214678939	-2.5155859135	-0.2070781849	 0.020959
C	-2.881909998	-2.0211594452	-1.637025893	-0.389603
C	-3.7735109637	-3.3952065693	 0.3000937264	-0.386851
H	 1.242403369	 1.9167958821	 0.1132182674	 0.146731
H	-0.4277896777	 2.0548516237	-0.4479787114	 0.144616
H	-0.0831336883	 1.9168478709	 1.2808711499	 0.144999
H	 0.8625693222	-2.9618353217	-0.5169615416	 0.103991
H	-0.02266133	-4.2794099623	 1.4073273071	 0.111917
H	-0.9172170654	-2.8090783877	 2.0160624866	 0.120159
H	-1.2502309864	-4.1346386753	-0.7711517809	 0.081247
H	-2.546768313	-1.6360719132	 0.4449819921	 0.080356
H	-2.0786274442	-1.3598792789	-1.9741722513	 0.125072
H	-2.9454737188	-2.8632196491	-2.3370710525	 0.10562
H	-3.8260449017	-1.4695301774	-1.6974302376	 0.105522
H	-3.5993269713	-3.7270394123	 1.3285537951	 0.11216
H	-4.7235894233	-2.8511557247	 0.2749970087	 0.108001
H	-3.8883746511	-4.2899238625	-0.3236758278	 0.108617
12.0563	65.9391	71.0342	134.5444	182.9121	225.8233	228.1559	251.1642	303.5937	328.4067	337.2499	417.9918	451.6905	520.1117	594.7883	702.8844	757.3628	842.4049	888.1111	921.3308	930.6721	966.0057	968.7509	993.7777	1051.978	1054.0168	1065.8514	1083.7187	1123.7506	1143.8872	1180.2772	1188.0635	1211.8476	1249.8716	1314.5423	1345.1113	1386.8402	1397.1753	1414.4488	1416.5585	1428.6283	1477.7496	1480.3565	1486.3147	1487.6745	1490.903	1503.4042	1511.7548	2363.1662	3022.9808	3023.3238	3024.7453	3029.9796	3081.1536	3083.4016	3086.6065	3093.0234	3101.7247	3111.1604	3119.2614	3132.0871	3138.508	3220.7749
CC#CC1CC1C(C)C	CC#C[C@H]1C[C@H]1C(C)C	
InChI=1S/C9H14/c1-4-5-8-6-9(8)7(2)3/h7-9H,6H2,1-3H3	InChI=1S/C9H14/c1-4-5-8-6-9(8)7(2)3/h7-9H,6H2,1-3H3/t8-,9-/m0/s1
