14
gdb 131153	4.04491	1.55202	1.30092	2.7396	66.45	-0.2532	-0.024	0.2293	929.725	0.102989	-432.805544	-432.799055	-432.79811	-432.83628	25.524	
O	 0.0443753488	 1.4300069737	-0.1277298025	-0.441611
C	 0.0195363007	 0.0771942169	 0.042761504	 0.311588
C	-0.1902907312	-0.8426292186	-1.1391072096	-0.299663
C	-1.143012029	-0.9385037452	 0.0378305424	-0.101515
N	-0.4677638473	-1.60028034	 1.168191955	 0.055364
N	-0.1037113413	-2.8463125933	 1.5768182338	-0.257048
C	 1.1587422658	-2.6223584109	 1.9372583552	 0.032382
N	 1.6777611713	-1.3758230785	 1.6511987691	-0.331145
C	 0.6111528572	-0.7801375521	 1.1625048216	 0.172715
H	-0.2133163749	 1.8534337277	 0.6998082706	 0.301683
H	-0.5976987116	-0.348334576	-2.0176299468	 0.14059
H	 0.5006301616	-1.6532988734	-1.3463792026	 0.149914
H	-2.2145516427	-0.8016468766	 0.0066670173	 0.134523
H	 1.7385838526	-3.3820890336	 2.4427017126	 0.132224
157.8769	215.2038	277.5672	381.8104	406.9172	486.6034	528.5404	616.6534	671.8999	741.2345	764.0128	849.1332	883.8009	911.5089	930.7056	975.644	995.5325	1034.5916	1050.0843	1102.5643	1152.7122	1173.9793	1220.3626	1255.4367	1271.269	1314.7073	1364.8054	1400.5498	1425.9028	1488.8887	1554.6347	3122.8732	3214.6926	3225.8042	3247.8627	3790.5634
OC12CC1N1N=CN=C21	O[C@]12C[C@H]1N1N=C[N][C]21	
InChI=1S/C5H5N3O/c9-5-1-3(5)8-4(5)6-2-7-8/h2-3,9H,1H2	InChI=1S/C5H5N3O/c9-5-1-3(5)8-4(5)6-2-7-8/h2-3,9H,1H2/t3-,5-/m1/s1
