14
gdb 23919	3.35649	1.69412	1.49481	1.2894	51.	-0.2458	0.0851	0.3309	854.6665	0.10319	-510.196408	-510.188808	-510.187864	-510.22864	27.464	
C	-0.875011881	 1.1974420113	 0.3487630964	-0.32689
N	-0.1937360401	-0.0845225916	 0.1872568799	-0.079081
C	 1.1182667168	-0.1206119479	-0.4381469942	-0.248009
C	 0.9518555166	-0.4334363342	 1.0103433326	-0.15497
C	 1.5271669816	 0.4884446034	 2.058025237	 0.278431
F	 1.8472623245	 1.7061871832	 1.5881278161	-0.078854
F	 0.662596113	 0.6722059467	 3.0707592957	-0.081111
F	 2.6415599097	-0.0473640329	 2.578428313	-0.070863
H	-0.2059580478	 2.0565721577	 0.4850691398	 0.121399
H	-1.4844778926	 1.3690102267	-0.5429499377	 0.127836
H	-1.542196038	 1.1367281147	 1.212981207	 0.136036
H	 1.2926521147	-0.9246418192	-1.1477056971	 0.1259
H	 1.600135466	 0.8245790404	-0.6794055148	 0.128563
H	 0.9697123266	-1.4640163484	 1.3579111663	 0.121613
71.5215	159.8234	207.0607	233.1808	301.5401	359.578	413.2719	461.603	529.2202	590.3977	671.0576	756.8619	812.3424	920.0335	986.8531	1043.1865	1096.43	1130.0517	1133.7646	1157.2073	1177.528	1196.7757	1209.4655	1280.2499	1340.3245	1429.9436	1452.4923	1490.8371	1505.9814	1514.624	3019.3674	3091.4487	3103.7611	3117.858	3137.7127	3191.664
CN1CC1C(F)(F)F	CN1C[C@H]1C(F)(F)F	
InChI=1S/C4H6F3N/c1-8-2-3(8)4(5,6)7/h3H,2H2,1H3	InChI=1S/C4H6F3N/c1-8-2-3(8)4(5,6)7/h3H,2H2,1H3/t3-,8?/m0/s1
