21
gdb 89566	4.03932	1.10481	1.03676	1.5486	83.53	-0.2376	0.0292	0.2668	1255.8843	0.182587	-387.097035	-387.08856	-387.087616	-387.130572	32.943	
C	-0.7879324527	 1.232246844	 0.2304456338	-0.398785
C	 0.0582486134	-0.0061778747	 0.0133719225	 0.168886
C	 0.7468160091	-0.1990871339	-1.3530886687	-0.377704
C	 2.0630018165	-0.2386180317	-0.5463280761	 0.450093
C	 2.8117602479	-1.5893548657	-0.4258972107	-0.31152
C	 4.2469644971	-1.18550771	-0.1998061391	-0.062307
C	 4.438283365	 0.114225722	-0.4203554392	-0.063037
C	 3.1637503688	 0.8075934026	-0.8305410239	-0.315188
O	 1.3401532106	 0.0739639051	 0.6807544842	-0.335552
H	-0.2653729578	 2.12629274	-0.1242995746	 0.116327
H	-1.7389810324	 1.1462157041	-0.3071144698	 0.113025
H	-1.0078993316	 1.3638198741	 1.2946780094	 0.126019
H	-0.4905812415	-0.8983443468	 0.3481681677	 0.069587
H	 0.4935435148	-1.1070131887	-1.9037631653	 0.102643
H	 0.6573073432	 0.6626525504	-2.0199128695	 0.102361
H	 2.3877249301	-2.1817091682	 0.3922501136	 0.11518
H	 2.7072172339	-2.1864943964	-1.3431702871	 0.101773
H	 5.0163865332	-1.8940065851	 0.0860556649	 0.090124
H	 5.3880557095	 0.6314797399	-0.3429426146	 0.090157
H	 3.1820139055	 1.0825408298	-1.895166262	 0.102583
H	 2.9575375972	 1.7240441089	-0.2671479056	 0.115336
51.1848	72.9925	224.0967	232.9437	315.6409	346.5316	376.8595	409.2704	459.0671	490.3788	683.2936	739.8151	779.5366	793.5007	860.9369	873.1706	908.9038	924.0253	933.1933	952.9828	974.9151	983.9148	993.4071	1054.7877	1087.3259	1107.3036	1126.2062	1152.8631	1173.0903	1191.6266	1227.7855	1233.4859	1263.8632	1287.0168	1317.5437	1343.6422	1368.8817	1389.4719	1409.2054	1461.3513	1468.307	1482.171	1488.888	1494.7776	1686.7125	2991.5971	3003.7214	3005.924	3030.6332	3062.1038	3066.4245	3067.4472	3102.881	3109.3575	3119.2613	3182.5336	3207.7817
CC1CC2(CC=CC2)O1	C[C@H]1C[C@]2(CC=CC2)O1	
InChI=1S/C8H12O/c1-7-6-8(9-7)4-2-3-5-8/h2-3,7H,4-6H2,1H3	InChI=1S/C8H12O/c1-7-6-8(9-7)4-2-3-5-8/h2-3,7H,4-6H2,1H3/t7-/m0/s1
