16
gdb 125219	3.03216	1.42486	0.97656	4.8242	78.57	-0.2168	-0.058	0.1589	1160.	0.124733	-434.061176	-434.052964	-434.05202	-434.093775	31.405	
C	-0.1512305522	 1.4941966581	 0.023634578	-0.510745
C	-0.0639088008	-0.0042957023	-0.0051963874	 0.266578
C	-0.0808540334	-0.7290014842	-1.1351660997	-0.220835
C	-0.0174803682	-2.1771123727	-1.1084429276	 0.405643
N	-0.0326064969	-2.8794191575	-2.1700704886	-0.539162
O	 0.0522907538	-2.7727964103	 0.132378497	-0.293001
N	 0.1144020954	-2.0448452982	 1.3286259267	-0.177434
C	 0.0308237996	-0.7572432944	 1.2463670176	 0.322719
N	-0.0375193991	-0.0629580283	 2.4495301919	-0.558008
H	 0.7621792832	 1.9429767538	 0.435259265	 0.135369
H	-0.2903569459	 1.8933535128	-0.983025741	 0.142114
H	-0.9847073573	 1.8255068114	 0.6519020366	 0.154836
H	-0.1512077442	-0.2771408572	-2.1175099346	 0.130562
H	 0.0190469756	-3.8734449875	-1.9408279806	 0.224087
H	 0.1481329147	-0.6609833063	 3.245068108	 0.262634
H	 0.5040744856	 0.7895099928	 2.4817785386	 0.254641
84.8789	171.1315	211.8712	295.2753	306.304	331.045	355.538	404.8253	447.2096	519.3356	559.3366	624.4397	699.1308	712.6525	760.2107	794.85	853.8629	886.4624	933.7566	969.8173	1026.8246	1068.5352	1107.6959	1165.089	1196.0601	1294.6206	1349.2761	1412.3883	1434.0043	1478.3694	1492.236	1611.2739	1642.717	1690.493	1739.1793	3023.9595	3083.3984	3131.853	3209.7429	3477.2563	3545.6708	3648.9472
CC1=CC(=N)ON=C1N	C[C]1C=C([NH])ON=C1N	
InChI=1S/C5H7N3O/c1-3-2-4(6)9-8-5(3)7/h2,6H,1H3,(H2,7,8)	InChI=1S/C5H7N3O/c1-3-2-4(6)9-8-5(3)7/h2,6H,1H3,(H2,7,8)
