15
gdb 17095	4.86899	1.6929	1.62214	4.5637	64.65	-0.2692	0.0137	0.2829	817.1569	0.121053	-362.648976	-362.642795	-362.641851	-362.679289	24.23	
N	-0.0717890938	-1.1295558568	-0.0713118029	-0.326589
C	-0.022160376	 0.0233614418	-0.0143985607	 0.290129
C	 0.0525515736	 1.4896928341	 0.0274574546	-0.028955
O	-0.4225214447	 1.9957941695	 1.292336377	-0.280447
C	 0.7348569482	 2.7214129933	 1.7686672544	 0.114579
C	 1.1906748563	 3.5055754051	 0.515901542	-0.242832
C	 1.4907221118	 2.053304439	 0.0246688036	-0.067104
C	 1.9046411203	 1.7472801129	 1.4996566281	-0.242133
H	-0.559649508	 1.8909169355	-0.7888321112	 0.125355
H	 0.5027004188	 3.1664713136	 2.733518343	 0.094956
H	 0.4356085055	 4.0929763925	-0.0115384018	 0.109252
H	 2.1022642379	 4.0839435172	 0.6703070778	 0.113973
H	 2.1123995818	 1.8215006294	-0.8376275974	 0.097554
H	 2.8807989386	 2.1652902982	 1.7473822859	 0.113247
H	 1.8074313096	 0.7245232145	 1.8681472377	 0.129015
132.1617	167.9079	346.3347	454.3931	481.8832	533.0631	569.0092	688.2159	826.3536	844.1943	863.178	875.3305	903.9193	927.6586	976.081	998.9202	1015.399	1042.3709	1056.1311	1098.4346	1109.1298	1138.2575	1213.1936	1239.3478	1251.8709	1274.4184	1279.9838	1326.0166	1366.4964	1475.7831	1508.9187	2359.6423	3040.8801	3073.2588	3083.4114	3142.3726	3145.3311	3151.2178	3155.4379
N#CC1OC2CC1C2	N#C[C@H]1O[C@@H]2C[C@H]1C2	
InChI=1S/C6H7NO/c7-3-6-4-1-5(2-4)8-6/h4-6H,1-2H2	InChI=1S/C6H7NO/c7-3-6-4-1-5(2-4)8-6/h4-6H,1-2H2/t4-,5+,6-/m1/s1
