15
gdb 20744	3.278	1.89045	1.28901	0.9691	62.69	-0.2534	-0.0023	0.2511	918.5736	0.120316	-395.987684	-395.979862	-395.978918	-396.020351	27.568	
C	 0.1124485916	 1.4852776056	 0.0537001086	-0.505559
C	 0.0504087097	-0.0069661137	 0.0604641649	 0.252428
N	 0.0307642422	-0.7343125054	-1.0578284789	-0.258182
N	-0.0273296261	-1.9854296721	-0.6121357805	-0.084868
N	-0.0370529762	-2.1460124471	 0.7024514573	-0.262867
C	 0.005522511	-0.8933972239	 1.1635136614	 0.207181
C	 0.0409772123	-0.5845920069	 2.627857053	-0.175322
O	 1.1917905814	 0.1707580825	 2.9983612002	-0.411311
H	 0.7911334743	 1.8376051856	 0.8344466802	 0.149713
H	 0.4531323464	 1.8490551159	-0.9177524042	 0.140712
H	-0.8718518703	 1.9256525552	 0.2524010096	 0.135036
H	-0.0485983174	-2.770294241	-1.2423451743	 0.291072
H	-0.8117040698	 0.0412020671	 2.9120370765	 0.121449
H	-0.0338752054	-1.5244229274	 3.1910227156	 0.114474
H	 1.9657369063	-0.3466922642	 2.7515180307	 0.286043
69.0678	99.2422	162.8209	234.1444	275.9833	354.1609	396.4889	452.4077	498.0394	665.6961	714.3431	721.8314	780.7479	958.4546	996.2336	1024.615	1053.481	1071.0916	1176.7694	1191.2653	1209.053	1258.2157	1348.92	1388.7649	1411.9768	1420.6028	1454.1895	1480.4088	1492.6104	1500.3637	1524.6064	1567.9979	3019.6634	3037.8867	3074.3823	3102.0099	3141.7694	3671.8066	3810.6465
CC1=NNN=C1CO	Cc1n[nH]nc1CO	
InChI=1S/C4H7N3O/c1-3-4(2-8)6-7-5-3/h8H,2H2,1H3,(H,5,6,7)	InChI=1S/C4H7N3O/c1-3-4(2-8)6-7-5-3/h8H,2H2,1H3,(H,5,6,7)
