19
gdb 63791	3.33668	1.20624	1.13464	2.7128	75.44	-0.2383	-0.0198	0.2185	1143.9963	0.157507	-423.02041	-423.011827	-423.010883	-423.05379	33.467	
C	 0.330607512	 1.4917326319	-0.120515776	-0.45525
C	 0.0668801325	-0.0029056885	-0.0149020435	 0.40962
O	-1.3260461495	-0.2745389414	-0.1088153247	-0.476965
C	 0.9076947375	-0.9491010928	-0.9377961123	-0.295794
C	 1.3225066008	-1.8011767927	 0.3040939448	-0.148651
C	 0.5668502394	-0.7795813876	 1.2363285168	-0.05434
C	 1.9176462662	-0.3377090909	 1.8643453351	-0.378233
C	 2.6404172877	-1.3235602106	 0.9220915039	 0.404777
O	 3.788343826	-1.6197416559	 0.757910945	-0.298905
H	 1.3953328771	 1.729661709	-0.0452210583	 0.120636
H	-0.0151095012	 1.8679574718	-1.0918719217	 0.108825
H	-0.2075715904	 2.0329231827	 0.6639275444	 0.127664
H	-1.6411202555	 0.0800742581	-0.9479406587	 0.274602
H	 0.2783778289	-1.4978630322	-1.6410713193	 0.111438
H	 1.7354897882	-0.4894524831	-1.4845604173	 0.10868
H	 1.1398019564	-2.8746068109	 0.2606397893	 0.093357
H	-0.2239063792	-1.0735975136	 1.9236201782	 0.086317
H	 2.2131382083	 0.7131019692	 1.8082721267	 0.125842
H	 2.0206935648	-0.6598344026	 2.9064198275	 0.13638
38.7965	148.257	223.0039	271.6898	309.3129	334.7905	369.4792	387.31	445.7757	460.6866	511.4766	589.2375	690.9963	728.8883	815.8975	835.5646	873.1639	913.8216	935.4933	955.2844	960.8937	1004.1902	1040.0034	1083.9699	1096.5686	1116.7456	1138.7479	1186.6492	1196.5976	1216.8948	1239.1787	1259.5107	1271.9722	1298.7394	1375.0391	1409.9686	1435.9961	1465.7394	1489.7461	1499.3717	1887.1441	3025.259	3053.2446	3060.0624	3090.5391	3106.052	3113.8914	3119.4095	3124.5143	3136.7689	3795.2886
CC1(O)CC2C1CC2=O	C[C@@]1(O)C[C@@H]2[C@H]1CC2=O	
InChI=1S/C7H10O2/c1-7(9)3-4-5(7)2-6(4)8/h4-5,9H,2-3H2,1H3	InChI=1S/C7H10O2/c1-7(9)3-4-5(7)2-6(4)8/h4-5,9H,2-3H2,1H3/t4-,5-,7-/m1/s1
