23
gdb 58526	2.87233	1.25345	1.09071	1.3567	85.8	-0.2455	0.0206	0.2661	1243.5151	0.204943	-388.311564	-388.301954	-388.30101	-388.345239	37.784	
C	 0.0010300328	 1.5456891762	 0.0310529333	-0.397218
C	-0.0480919751	 0.0112980314	-0.0240004165	 0.007404
C	-1.5030626918	-0.4814716409	-0.0299505832	-0.397219
C	 0.745978101	-0.5418306289	-1.2219628031	 0.405534
O	 0.1082708965	-0.0330375488	-2.3986122389	-0.483416
C	 2.2505997001	-0.133876701	-1.23811158	-0.307634
C	 2.9228449254	-1.3058785786	-1.9116876628	-0.082259
C	 2.1282970226	-2.3765190204	-1.9440122217	-0.082264
C	 0.7927305239	-2.0983318921	-1.2974230413	-0.307638
H	 1.0258048594	 1.9183447419	 0.1224277266	 0.107632
H	-0.4339075905	 1.9751776443	-0.8754851606	 0.132601
H	-0.5645538917	 1.9167244889	 0.8917853906	 0.103211
H	 0.4440580788	-0.3809700348	 0.8766144586	 0.064789
H	-2.0140455197	-0.1544518426	-0.9395628484	 0.132595
H	-1.5646410613	-1.5729647045	 0.0173434956	 0.107633
H	-2.0469178027	-0.081176861	 0.8316751498	 0.103213
H	 0.5964102886	-0.37243554	-3.1570320412	 0.27791
H	 2.3845116195	 0.8171914913	-1.7635460271	 0.109469
H	 2.6427337867	 0.0056258453	-0.2207421142	 0.105707
H	 3.9401462333	-1.2670240449	-2.2856308724	 0.092386
H	 2.3970674548	-3.3462992224	-2.348405246	 0.092386
H	 0.7436658591	-2.5533310545	-0.298004251	 0.10571
H	-0.0629939599	-2.4807838539	-1.8631203362	 0.109469
97.8536	116.7828	193.6146	218.1938	232.7263	283.4824	329.76	343.0567	380.3411	398.3011	404.7951	460.9412	494.8178	638.5491	704.6426	780.9822	788.6627	872.9494	918.854	920.1522	932.8098	954.7603	968.4729	975.0428	982.3931	1023.742	1039.6364	1079.9716	1130.229	1137.518	1149.1364	1193.0007	1197.6495	1234.4068	1280.3056	1303.0196	1346.2534	1349.794	1366.7134	1397.7541	1403.5706	1420.8596	1470.4479	1478.0612	1490.6283	1493.6513	1504.1722	1517.36	1678.5291	3005.3483	3007.7132	3015.1889	3037.0656	3041.5884	3071.226	3072.1678	3100.293	3103.7881	3119.0929	3123.3295	3179.1994	3204.4265	3799.9158
CC(C)C1(O)CC=CC1	CC(C)[C@@]1(O)CC=CC1	
InChI=1S/C8H14O/c1-7(2)8(9)5-3-4-6-8/h3-4,7,9H,5-6H2,1-2H3	InChI=1S/C8H14O/c1-7(2)8(9)5-3-4-6-8/h3-4,7,9H,5-6H2,1-2H3
