18
gdb 76970	2.85022	1.10228	0.93414	2.2614	74.74	-0.2536	0.0032	0.2568	1285.7621	0.145805	-439.052055	-439.042936	-439.041992	-439.086638	32.344	
C	 0.021648739	 1.4287978286	 0.3541195639	-0.410624
C	-0.1072134792	-0.030950823	-0.0121784732	-0.012351
C	 0.6075870703	-0.6759554516	-1.1864013835	-0.074024
C	 1.5285502359	 0.0887791505	-2.0816993932	 0.073669
C	 2.11931319	-0.539091494	-3.2725924671	-0.183863
O	 1.017397727	 0.3618444179	-3.3870448028	-0.227289
N	 0.9811411321	-0.9607522771	 0.1846397606	-0.072725
C	 2.1836843697	-0.7575101324	 0.8244674023	 0.144681
O	 2.3166801922	-0.1932378994	 1.8847867403	-0.304363
H	 0.9850777921	 1.8524611959	 0.0651446163	 0.130914
H	-0.7707483314	 2.0036511853	-0.1348809846	 0.129849
H	-0.075181242	 1.5510204962	 1.4359406718	 0.151676
H	-1.0804503573	-0.4608449955	 0.2234314406	 0.108766
H	 0.0903456464	-1.4858792922	-1.6999500853	 0.107614
H	 2.0693657904	 0.916055465	-1.6230104743	 0.108602
H	 3.0685897609	-0.1720469038	-3.6592741444	 0.124974
H	 1.8949552884	-1.5813335847	-3.4958388003	 0.121402
H	 3.0201283653	-1.2477419557	 0.2882251629	 0.083091
62.964	91.687	137.5175	153.212	195.2852	246.9478	288.5006	326.4761	400.4227	461.3639	563.9505	645.0877	801.6265	816.287	856.5643	869.8193	952.1337	992.5213	1030.002	1054.2348	1073.5577	1095.7821	1116.8704	1155.7556	1160.5406	1167.8483	1181.0262	1206.7465	1287.4856	1322.7502	1379.2012	1415.4562	1422.0301	1430.5119	1475.45	1485.7484	1500.5255	1529.928	1791.1822	2939.0358	3052.4654	3085.579	3105.2006	3114.5568	3119.934	3122.3367	3141.5025	3175.2986
CC1C(C2CO2)N1C=O	C[C@H]1[C@@H]([C@H]2CO2)N1C=O	
InChI=1S/C6H9NO2/c1-4-6(5-2-9-5)7(4)3-8/h3-6H,2H2,1H3	InChI=1S/C6H9NO2/c1-4-6(5-2-9-5)7(4)3-8/h3-6H,2H2,1H3/t4-,5+,6-,7?/m0/s1
