21
gdb 113191	2.55317	0.99589	0.908	1.7791	75.01	-0.2526	0.0669	0.3195	1415.0985	0.178445	-461.336643	-461.325617	-461.324673	-461.373242	39.422	
C	 0.1045493561	 1.3567955844	-0.3996758923	-0.423899
C	 0.0169960152	 0.0470879437	 0.3834866506	 0.064374
O	 0.4345466631	 0.1992415245	 1.7387481084	-0.433636
C	-1.3778337491	-0.5824758402	 0.3158831673	 0.394468
C	-2.4921679046	 0.1874852313	 0.9956619697	-0.490184
O	-1.7138508148	-1.1285479221	-0.970506538	-0.302181
C	-1.5383989064	-2.0337292371	 0.129734882	 0.017089
C	-0.4152645195	-3.0385231794	 0.065598389	-0.120561
O	-0.9729205878	-4.2577894673	-0.403642534	-0.422957
H	 1.1303631851	 1.7346835311	-0.3830093732	 0.124173
H	-0.198041016	 1.1994345716	-1.4387383948	 0.14165
H	-0.547973349	 2.1264285817	 0.029244665	 0.109836
H	 0.7299115125	-0.6569163217	-0.0529889986	 0.089837
H	 0.0273134761	 0.9989966332	 2.0874428337	 0.282156
H	-2.6166926129	 1.1823886186	 0.5560687266	 0.125868
H	-3.4396795347	-0.3448295405	 0.8881476172	 0.134091
H	-2.2839565999	 0.3050468523	 2.0640090506	 0.121899
H	-2.4684897898	-2.4814000281	 0.4850578722	 0.095127
H	 0.3734788866	-2.6747859899	-0.6059023512	 0.101373
H	 0.0182908592	-3.1562888712	 1.0721286385	 0.102559
H	-0.2686586794	-4.9109176947	-0.4492835186	 0.288918
35.095	69.3116	139.7867	160.3658	200.9266	223.8594	249.4878	250.8957	271.897	286.3134	306.2156	396.5721	436.9745	486.8653	514.93	590.5302	709.3284	798.6306	893.8443	914.615	951.4909	1006.4365	1060.7011	1067.3407	1069.5819	1082.8472	1102.9957	1122.0072	1139.2546	1251.0352	1259.5847	1281.2856	1287.0224	1325.6374	1375.8619	1399.3031	1405.7016	1409.1644	1436.8885	1482.811	1486.5309	1496.6265	1501.6851	1505.4165	1519.2643	2973.3034	3029.8973	3033.2256	3041.1351	3080.2504	3097.4961	3103.6023	3108.5701	3126.0796	3127.6594	3812.5291	3831.4348
CC(O)C1(C)OC1CO	C[C@@H](O)[C@@]1(C)O[C@H]1CO	
InChI=1S/C6H12O3/c1-4(8)6(2)5(3-7)9-6/h4-5,7-8H,3H2,1-2H3	InChI=1S/C6H12O3/c1-4(8)6(2)5(3-7)9-6/h4-5,7-8H,3H2,1-2H3/t4-,5+,6-/m1/s1
