16
gdb 44106	3.15037	1.74364	1.52764	2.4241	75.09	-0.2315	-0.0383	0.1933	896.5889	0.126021	-400.702009	-400.695548	-400.694604	-400.732766	26.387	
O	-0.1319968748	 0.108622444	 0.2899889554	-0.305931
C	-0.1033796364	 1.3012145131	 0.1602562271	 0.38829
C	-1.3663627234	 2.2428052162	 0.0142645618	-0.36914
C	-0.639663705	 3.4430922848	 0.5495775462	 0.091457
C	-0.4014289981	 3.6187178868	 1.8595349178	-0.116452
C	 1.0895184339	 3.7014249347	 2.0911217106	-0.18952
N	 1.7053499644	 3.355503637	 0.7924025651	-0.121278
C	 1.1618893629	 2.1613169784	-0.0101128737	-0.134025
C	 0.6752208113	 3.5550296281	-0.203319679	-0.09708
H	-1.6697135001	 2.3010226501	-1.0367465623	 0.126128
H	-2.1981649881	 1.8741001548	 0.6154797867	 0.130452
H	-1.107118439	 3.4083496941	 2.6552547107	 0.112856
H	 1.4782826471	 4.6890627519	 2.3749355511	 0.12673
H	 1.3910220067	 2.9966854514	 2.8741148891	 0.133548
H	 1.9617093613	 1.6984135698	-0.5787494818	 0.121492
H	 0.8323966472	 4.1771595747	-1.0792401148	 0.102473
104.6029	249.3969	363.1159	393.1113	431.6237	557.5395	560.1805	646.8473	701.752	741.0774	776.9263	799.3419	820.5164	854.3907	895.8485	925.4248	970.8819	984.0495	1004.1087	1040.3565	1048.1213	1086.9011	1133.0133	1153.9984	1200.1	1217.678	1231.5314	1268.1006	1301.0375	1308.6902	1323.6166	1468.5419	1474.6799	1640.749	1836.0221	3018.3659	3050.401	3070.8998	3134.6873	3155.881	3174.9095	3197.96
O=C1CC2=CCN3C1C23	O=C1C[C]2[CH]CN3[C@@H]1[C@@H]23	
InChI=1S/C7H7NO/c9-5-3-4-1-2-8-6(4)7(5)8/h1,6-7H,2-3H2	InChI=1S/C7H7NO/c9-5-3-4-1-2-8-6(4)7(5)8/h1,6-7H,2-3H2/t6-,7+,8?/m1/s1
