20
gdb 116814	3.65879	0.55362	0.48665	2.3461	85.92	-0.2454	0.0228	0.2681	2195.9187	0.167536	-403.104578	-403.093603	-403.092658	-403.142326	37.392	
C	 0.0003208605	 0.9980301185	-0.6687991373	-0.251237
O	-0.4680888885	 0.1548085323	 0.3750446345	-0.19516
C	-1.2344441862	-0.8863283027	-0.0187766237	 0.130271
N	-1.6918820152	-1.6837565537	 0.8376572006	-0.236472
C	-2.5173548816	-2.8107230354	 0.4473806598	-0.127157
C	-2.8329013775	-3.0252159165	-1.0390446222	-0.195119
C	-3.7197583155	-4.2700396571	-1.245484586	-0.364391
C	-4.0442834443	-4.5114920416	-2.6459253163	 0.28826
C	-4.2969301178	-4.6880445381	-3.8078189032	-0.430874
H	 0.5942951429	 1.7779149076	-0.1907307653	 0.145785
H	 0.63396768	 0.4503204493	-1.3775609497	 0.125345
H	-0.8291580985	 1.4647939196	-1.2146307465	 0.125342
H	-1.389836062	-0.9351807732	-1.1046996163	 0.077298
H	-2.0346632313	-3.7154563904	 0.8439386536	 0.112043
H	-3.46164808	-2.7256554198	 1.0040315447	 0.11204
H	-3.3490962108	-2.1511687807	-1.4523578204	 0.112385
H	-1.9082992036	-3.1508618705	-1.6139926458	 0.112383
H	-3.2137540692	-5.1520899935	-0.8310395652	 0.132935
H	-4.6482406994	-4.1567790047	-0.6702407128	 0.132933
H	-4.5273666917	-4.8554573599	-4.8304341226	 0.19339
42.1921	69.7312	78.9829	106.1565	131.6734	160.4024	164.0713	281.6246	290.6457	317.8405	347.922	463.6518	538.7093	615.4975	615.851	635.4395	747.1191	846.8334	942.7389	985.7165	1022.7865	1039.1496	1045.6605	1084.6981	1110.8976	1176.3603	1178.8711	1203.4468	1266.1846	1278.4954	1314.5461	1327.0163	1363.6909	1398.0401	1420.3992	1472.9471	1478.5429	1487.8958	1494.0247	1501.7198	1505.2522	1781.7243	2239.0881	3001.647	3007.8314	3014.72	3022.1026	3029.2032	3040.6905	3042.8774	3071.7609	3083.8298	3143.0641	3508.0065
COC=NCCCC#C	COC=NCCCC#C	
InChI=1S/C7H11NO/c1-3-4-5-6-8-7-9-2/h1,7H,4-6H2,2H3	InChI=1S/C7H11NO/c1-3-4-5-6-8-7-9-2/h1,7H,4-6H2,2H3
