21
gdb 106500	2.39024	1.65667	1.27086	1.3985	77.8	-0.2379	0.0773	0.3153	1091.5044	0.182279	-424.198301	-424.189613	-424.188669	-424.231423	33.659	
C	 0.0530082563	 1.3297930386	-0.1069097961	-0.264737
O	-0.0042753054	-0.0675530315	 0.1126842858	-0.299567
C	-1.2750123591	-0.615223256	 0.0472611494	 0.392493
C	-2.2044565092	-0.5693732766	-1.2204626412	-0.305573
C	-2.848883093	-1.7462978543	-0.4494951005	 0.100949
C	-1.4243919213	-2.1594982523	-0.0127150037	-0.298035
O	-3.3962746918	-1.1246727679	 0.7282604404	-0.29536
C	-2.3177934415	-0.2515854138	 1.1427021175	 0.094958
C	-1.9104607496	-0.4938535197	 2.585379791	-0.414443
H	 1.1094396295	 1.6066290114	-0.1078215182	 0.130555
H	-0.3881807097	 1.6045485812	-1.0752391249	 0.115112
H	-0.458046578	 1.8973333027	 0.6830761771	 0.113906
H	-2.8267944056	 0.312431749	-1.3892130164	 0.097877
H	-1.6849464912	-0.8746814493	-2.1302507724	 0.10367
H	-3.5761643825	-2.42942306	-0.8816715712	 0.084016
H	-0.8296337771	-2.5895667648	-0.8197848505	 0.105809
H	-1.3225244309	-2.7399114735	 0.9048821899	 0.103538
H	-2.6519666291	 0.7894345119	 1.0327533511	 0.069393
H	-1.5393487988	-1.5100301295	 2.7401513286	 0.122026
H	-1.1220069033	 0.2077029306	 2.8770921769	 0.118912
H	-2.7678635587	-0.3413458362	 3.2475057173	 0.1245
79.6116	170.2631	172.1036	201.4205	234.1307	248.8416	391.1252	422.9687	486.1377	501.779	547.7708	595.7958	665.4635	802.3713	834.648	856.5668	916.8781	939.8156	951.5969	970.8648	986.4103	1024.254	1068.0663	1092.3377	1103.3166	1122.7032	1148.8736	1162.566	1181.0645	1208.1073	1218.0204	1231.67	1256.3571	1275.1005	1302.968	1355.7118	1392.6726	1410.6953	1469.7544	1482.3105	1487.1924	1491.0682	1494.9644	1507.4303	1516.3306	2990.9075	3001.4612	3042.9053	3046.2187	3067.5437	3084.5572	3111.4979	3121.5627	3124.5903	3137.9159	3149.9567	3152.1261
COC12CC(C1)OC2C	CO[C@@]12C[C@@H](C1)O[C@H]2C	
InChI=1S/C7H12O2/c1-5-7(8-2)3-6(4-7)9-5/h5-6H,3-4H2,1-2H3	InChI=1S/C7H12O2/c1-5-7(8-2)3-6(4-7)9-5/h5-6H,3-4H2,1-2H3/t5-,6-,7-/m0/s1
