19
gdb 95056	2.18038	1.87606	1.19113	4.0566	74.74	-0.2312	-0.0164	0.2148	1063.5648	0.159852	-423.044098	-423.036027	-423.035082	-423.076917	31.44	
O	 0.0232695447	 1.4461256736	 0.1337594893	-0.423286
C	 0.0495922732	 0.0334313682	 0.1348710849	 0.133032
C	 0.6205124858	-0.6066185736	 1.4172070829	-0.261512
C	 0.0151208772	-2.0204598366	 1.4296605327	-0.222789
C	-1.4174686473	-1.8245560986	 0.9031815371	-0.01587
C	-2.4163360129	-1.1457753767	 1.8939780733	-0.364389
C	-2.4332828367	 0.0883169209	 0.976282803	 0.424492
O	-3.0872262176	 1.0884175891	 0.9555054362	-0.292588
C	-1.3861429241	-0.5226116374	 0.0221287309	-0.165568
H	 0.9314521239	 1.7638562503	 0.153259759	 0.28497
H	 0.6201594238	-0.3423249159	-0.7306457856	 0.069848
H	 1.7147218289	-0.6065305849	 1.436491957	 0.092744
H	 0.2779086181	-0.0208727357	 2.2786652139	 0.113708
H	 0.5745273448	-2.6726583755	 0.7484724875	 0.10101
H	 0.0412922411	-2.4902699429	 2.4178155337	 0.102668
H	-1.8245071361	-2.715880995	 0.4247858351	 0.074629
H	-3.3926310568	-1.6272333477	 2.0028269087	 0.127939
H	-2.0198581266	-0.950106822	 2.8964300743	 0.125903
H	-1.7274563134	-0.5738547496	-1.014192964	 0.095061
59.1144	136.5842	198.4756	258.7671	332.5178	359.2537	424.3323	450.856	516.3682	576.7284	578.2792	723.0231	734.7524	818.769	851.3401	881.3376	922.795	947.8674	952.598	1005.1665	1039.4362	1059.7719	1078.9159	1105.3116	1146.3249	1164.3678	1167.2687	1204.5359	1223.9144	1236.2393	1267.4572	1286.4584	1303.5471	1331.4509	1346.1819	1376.5693	1421.4463	1434.4954	1489.0055	1501.8295	1892.6481	2955.9969	3034.6014	3037.707	3047.7558	3079.6401	3087.6771	3089.9622	3097.4754	3109.9197	3820.0797
OC1CCC2CC(=O)C12	O[C@H]1CC[C@H]2CC(=O)[C@@H]12	
InChI=1S/C7H10O2/c8-5-2-1-4-3-6(9)7(4)5/h4-5,7-8H,1-3H2	InChI=1S/C7H10O2/c8-5-2-1-4-3-6(9)7(4)5/h4-5,7-8H,1-3H2/t4-,5-,7+/m0/s1
