18
gdb 22880	2.82528	1.26834	0.96186	0.9706	79.24	-0.2315	-0.0381	0.1933	1220.3938	0.147149	-439.057891	-439.048952	-439.048007	-439.091687	33.685	
C	-0.237187641	 1.5342683227	 0.0300806845	-0.383643
C	 0.0526312424	 0.0347960986	-0.0018129517	-0.113204
C	 0.865921836	-0.4658709611	-1.2414055574	 0.065462
O	 1.5860229558	 0.5466819436	-1.9406857475	-0.419364
C	 1.8064472212	-1.4965188395	-0.6576312948	-0.118569
C	 1.8251898087	-1.4695714242	 0.6823024655	-0.14381
C	 0.8508478789	-0.4974847334	 1.1814564007	 0.36312
N	 0.6221563456	-0.1104089645	 2.3777833432	-0.236355
O	 1.4508112246	-0.7648360851	 3.3052118024	-0.393329
H	 0.6856691942	 2.12028144	 0.0271674776	 0.108508
H	-0.8252313953	 1.8349034998	-0.8413106276	 0.118189
H	-0.7923420186	 1.7871921312	 0.9364069188	 0.131197
H	-0.9038959425	-0.5043088274	-0.0082641203	 0.101305
H	 0.1990079742	-0.8873244217	-1.999850414	 0.093768
H	 2.2999159707	 0.8464032022	-1.3664128651	 0.27987
H	 2.4365956153	-2.1130961466	-1.2887860258	 0.112353
H	 2.4545369078	-2.0582420282	 1.3348645262	 0.127317
H	 1.1647363419	-0.3786124663	 4.1394162151	 0.307186
44.001	172.558	202.0338	227.8553	242.3925	272.7255	323.099	357.6319	392.2826	453.1945	494.6287	567.5655	663.2952	707.0935	749.9214	811.2205	826.2534	867.9774	964.2152	991.6219	992.7478	1005.9439	1058.1721	1095.171	1128.1093	1150.1374	1231.8819	1244.8663	1274.84	1324.6068	1343.8951	1361.2215	1401.7917	1414.4335	1431.1218	1488.2598	1499.9931	1640.3616	1726.1694	3017.0008	3050.4067	3065.4193	3119.9051	3129.4537	3198.8651	3242.9933	3798.2229	3823.5627
CC1C(O)C=CC1=NO	C[C@H]1[C@@H](O)C=CC1=NO	
InChI=1S/C6H9NO2/c1-4-5(7-9)2-3-6(4)8/h2-4,6,8-9H,1H3	InChI=1S/C6H9NO2/c1-4-5(7-9)2-3-6(4)8/h2-4,6,8-9H,1H3/t4-,6+/m1/s1
