18
gdb 128804	2.81403	1.31806	1.06252	2.1766	73.68	-0.2557	0.0013	0.257	1174.975	0.148865	-435.280889	-435.271923	-435.270978	-435.315386	31.218	
C	-0.1789758678	 0.6224864706	-0.1990451069	-0.242935
O	 1.0677769157	 0.3654791084	 0.4227174467	-0.227609
C	 0.9724662249	-0.5063122833	 1.5355826754	-0.201824
C	 0.66932036	-1.9301910358	 1.1648632084	 0.329228
N	-0.3308555475	-2.6555766948	 1.6461741239	-0.314935
C	-0.1600724735	-3.8530148678	 1.0277179485	 0.018908
N	 0.8659639162	-3.9136725021	 0.1943122874	-0.25163
N	 1.3931254848	-2.6691672341	 0.2909922676	 0.007213
C	 2.5835494407	-2.3128723909	-0.4584580515	-0.340518
H	-0.8823934317	 1.09459317	 0.5022029148	 0.116653
H	 0.0151472521	 1.3077909269	-1.0268546292	 0.131755
H	-0.6427587503	-0.2930959971	-0.5903597829	 0.124306
H	 1.9406567738	-0.4384806278	 2.0436856187	 0.124435
H	 0.1934809536	-0.1828272361	 2.2386235557	 0.130823
H	-0.8112708619	-4.6997651638	 1.1861002104	 0.124616
H	 2.5199842731	-2.7662755288	-1.4486319641	 0.15798
H	 2.6254623357	-1.2276611872	-0.5491446002	 0.169026
H	 3.483189162	-2.6836027965	 0.0427887273	 0.14451
56.3705	90.6888	131.5027	155.4538	206.8228	232.5405	268.3541	351.2909	422.9096	471.8004	661.4258	695.9241	725.3243	785.5471	905.0061	934.6504	991.7008	1019.0471	1041.4948	1123.2642	1155.0636	1180.91	1193.56	1217.8832	1225.491	1300.5252	1312.2777	1317.1175	1382.8521	1429.4656	1456.741	1475.2886	1486.525	1488.0758	1490.4995	1496.9871	1507.6611	1524.7951	1557.3821	2993.1343	3023.5879	3048.7986	3050.9897	3075.7047	3125.0631	3129.058	3169.3295	3258.242
COCC1=NC=NN1C	COCc1ncnn1C	
InChI=1S/C5H9N3O/c1-8-5(3-9-2)6-4-7-8/h4H,3H2,1-2H3	InChI=1S/C5H9N3O/c1-8-5(3-9-2)6-4-7-8/h4H,3H2,1-2H3
