16
gdb 49627	5.01368	1.00216	0.9259	3.9552	72.29	-0.2463	-0.0021	0.2442	1239.7145	0.123143	-437.826516	-437.818793	-437.817849	-437.859114	28.846	
O	 0.1510435354	 0.0926856183	 0.4557451773	-0.292068
C	 0.0888436622	 1.2176981947	 0.0227581783	 0.13557
N	 1.1255705206	 1.8831638335	-0.6096358019	-0.069209
C	 2.500155045	 1.8377816581	-0.1607785909	-0.029548
C	 3.3649471323	 2.3458472927	-1.3281170396	-0.350468
C	 2.5747948942	 3.6790178972	-1.2405529868	 0.47002
C	 3.0635898433	 5.0445950606	-1.4211672527	-0.270229
O	 2.1151342016	 4.4516100607	-2.3230114649	-0.257783
C	 1.7112688843	 3.1322494391	-0.1216973836	-0.174591
H	-0.8413857375	 1.8166346424	 0.0122343898	 0.090443
H	 2.7818557875	 1.1957876696	 0.6624806169	 0.131673
H	 4.4213244063	 2.4630512264	-1.0772489824	 0.120835
H	 3.257124551	 1.7869708129	-2.2591776292	 0.133682
H	 2.6744035247	 5.8518518562	-0.8017449728	 0.12126
H	 4.0599552808	 5.2082608415	-1.8292064928	 0.123043
H	 1.2724299883	 3.653353636	 0.7212328553	 0.117369
79.4125	134.4863	179.5074	238.9967	311.157	341.1767	419.679	471.1943	576.4554	687.6977	767.9257	823.5672	831.2169	873.8395	887.5629	939.7128	953.4798	996.6692	1024.3665	1032.0135	1068.5232	1107.3032	1122.8503	1150.9549	1177.477	1190.1932	1221.2351	1250.4466	1283.2951	1405.6509	1415.0285	1445.4984	1471.7928	1538.6924	1795.0162	2958.6719	3077.0906	3081.5891	3138.3933	3169.5183	3189.7776	3224.4424
O=CN1C2CC3(CO3)C12	O=CN1[C@H]2C[C@]3(CO3)[C@@H]12	
InChI=1S/C6H7NO2/c8-3-7-4-1-6(2-9-6)5(4)7/h3-5H,1-2H2	InChI=1S/C6H7NO2/c8-3-7-4-1-6(2-9-6)5(4)7/h3-5H,1-2H2/t4-,5-,6-,7?/m0/s1
