16
gdb 86769	3.17232	0.99764	0.84254	3.5383	70.67	-0.2736	-0.0528	0.2208	1346.2166	0.122056	-437.899214	-437.890142	-437.889198	-437.934209	31.505	
C	 0.3282687666	 1.5188030361	-0.1504585479	-0.403772
C	 0.0199294457	 0.0515345637	 0.078125019	 0.034145
O	 0.7761839837	-0.8552403616	-0.7734054982	-0.302938
C	 1.2920608567	-1.6338051988	 0.3212060065	 0.014406
C	 2.8211085508	-1.7256047522	 0.3646870933	-0.355172
C	 3.3627940905	-2.5767350641	-0.6917269945	 0.266939
N	 3.7819293547	-3.2581787331	-1.5249813852	-0.294874
C	 0.6365418906	-0.6434922847	 1.3010681508	 0.31969
O	 0.6705855824	-0.4593403903	 2.4779250458	-0.272876
H	 1.3964380597	 1.7212971097	-0.0353277032	 0.128514
H	 0.0255821883	 1.8130261588	-1.1591909299	 0.144945
H	-0.2246448963	 2.1286277554	 0.5702966794	 0.142178
H	-1.0586451083	-0.1422760295	-0.0091365611	 0.117111
H	 0.849974345	-2.6388385897	 0.3543246728	 0.128596
H	 3.2544060338	-0.7241565776	 0.2773816827	 0.160881
H	 3.1163777362	-2.129693472	 1.3400538996	 0.172228
44.7892	79.3533	109.7915	187.3294	190.3725	211.1614	367.2781	379.0721	390.1996	463.4013	546.1559	622.2917	697.3889	838.7253	851.7264	879.2315	942.9769	996.4315	1031.5561	1060.5251	1075.72	1109.999	1138.9589	1218.7134	1236.8374	1273.7469	1318.404	1342.4005	1384.3445	1400.9481	1447.8012	1479.9979	1492.9848	1922.3091	2366.746	3010.5541	3022.7126	3045.8918	3050.2463	3096.991	3124.491	3126.0311
CC1OC(CC#N)C1=O	C[C@H]1O[C@@H](CC#N)C1=O	
InChI=1S/C6H7NO2/c1-4-6(8)5(9-4)2-3-7/h4-5H,2H2,1H3	InChI=1S/C6H7NO2/c1-4-6(8)5(9-4)2-3-7/h4-5H,2H2,1H3/t4-,5+/m1/s1
