19
gdb 111121	3.49103	1.33019	1.22647	1.393	74.17	-0.2434	0.0882	0.3316	1086.0672	0.160231	-422.959765	-422.952319	-422.951375	-422.991689	29.677	
C	-0.2131742762	 1.317463172	 0.0952953189	-0.246065
O	 0.3298714078	 0.0307825686	-0.1042571186	-0.269398
C	 0.8648056207	-0.5305717782	 1.0673098022	 0.19383
C	-0.1727957998	-1.2571369846	 1.9932891441	-0.13277
C	-0.1582564899	-2.3944926266	 0.9085974732	-0.226793
C	 1.3548626466	-1.9781671679	 0.8077298211	-0.124805
C	 1.8306197582	-2.413611352	 2.209362673	 0.037896
O	 2.0755359384	-1.3549214861	 3.1525468234	-0.255535
C	 0.7467009656	-1.9010107313	 3.0502292036	 0.037637
H	 0.5367499267	 2.0131829074	 0.5017723159	 0.10932
H	-0.5435022014	 1.6829246732	-0.8799160361	 0.127098
H	-1.0753287076	 1.3039195527	 0.7784084097	 0.106909
H	 1.5574110327	 0.1637575757	 1.5491786879	 0.089186
H	-1.0909374881	-0.7776850244	 2.3310923512	 0.065112
H	-0.3794718955	-3.4115901765	 1.2444773154	 0.089195
H	-0.7292862872	-2.1433714036	 0.0157304678	 0.119398
H	 1.975674698	-2.215666361	-0.0550782973	 0.071418
H	 2.3755761402	-3.3367032632	 2.37423249	 0.104313
H	 0.3597799509	-2.3803954645	 3.9431337747	 0.104056
95.37	178.7901	182.8356	316.5354	370.5163	389.6797	448.277	511.4852	606.5936	676.097	796.9486	823.0878	845.6026	869.3562	890.3606	906.9242	948.2909	963.8455	985.3085	1007.5026	1034.5072	1073.4717	1075.6634	1088.7524	1118.0623	1156.0473	1184.3939	1213.6428	1216.4274	1228.1827	1252.0449	1255.8087	1265.3688	1276.1858	1309.1895	1377.8274	1409.5685	1479.7699	1487.2328	1493.7811	1509.9519	2980.0402	3028.0993	3063.674	3077.9903	3116.0933	3121.0589	3127.7283	3151.8818	3167.6379	3179.8883
COC1C2CC1C1OC21	CO[C@H]1[C@H]2C[C@@H]1[C@H]1O[C@@H]21	
InChI=1S/C7H10O2/c1-8-5-3-2-4(5)7-6(3)9-7/h3-7H,2H2,1H3	InChI=1S/C7H10O2/c1-8-5-3-2-4(5)7-6(3)9-7/h3-7H,2H2,1H3/t3-,4+,5+,6+,7-
