19
gdb 35807	2.95607	1.46106	1.14424	1.6931	80.56	-0.2531	0.0361	0.2891	1106.2791	0.15998	-385.847518	-385.8395	-385.838556	-385.880618	31.089	
C	-0.0427077705	-1.2401077136	 0.0370472743	-0.434719
C	-0.0291033424	-0.0427133764	 0.1338574262	 0.307077
C	 0.0060171835	 1.411010971	 0.2036893147	-0.054721
O	-0.4002799569	 1.8533356477	 1.5022510998	-0.262909
C	-0.0095834042	 3.2211925317	 1.5835485174	-0.09229
C	 1.3686652161	 3.3009223154	 0.9230977268	-0.028311
C	 2.5456275345	 2.6899002417	 1.7356936172	-0.220277
C	 2.5685297813	 1.4555295747	 0.7914772233	-0.224671
C	 1.3927419369	 2.0532715919	-0.027076256	-0.041681
H	-0.0628323217	-2.299150187	-0.0397534705	 0.197319
H	-0.691484672	 1.8177893405	-0.5499757382	 0.091818
H	-0.7327642821	 3.8582344763	 1.0475384781	 0.087127
H	-0.0150523471	 3.5017869476	 2.6405717951	 0.109754
H	 1.5612561024	 4.2767467824	 0.4740864957	 0.070624
H	 3.457704685	 3.2907771521	 1.7195404616	 0.098675
H	 2.3000509649	 2.4655978001	 2.7773322004	 0.104162
H	 3.4906977593	 1.3427434183	 0.2174792894	 0.098976
H	 2.3403646537	 0.4994576376	 1.2671352721	 0.118062
H	 1.5844781093	 2.220467478	-1.0876642375	 0.075984
43.6006	131.0218	155.8999	242.6528	333.4285	367.2266	490.5786	510.5483	614.0045	629.0348	666.2452	691.7559	747.6048	762.8878	828.9349	860.5149	882.5026	936.5186	965.5359	992.0202	996.2984	1036.2417	1069.1247	1086.2738	1109.1212	1148.2816	1177.4665	1223.2264	1236.2426	1256.9628	1270.6008	1276.4527	1305.8214	1325.214	1336.3209	1366.9554	1386.1226	1472.3899	1492.2605	1504.6513	2242.8951	2939.5395	2965.5472	3058.0807	3069.8889	3088.2363	3088.5628	3103.2853	3106.7253	3127.6989	3503.9581
C#CC1OCC2CCC12	C#C[C@H]1OC[C@H]2CC[C@@H]12	
InChI=1S/C8H10O/c1-2-8-7-4-3-6(7)5-9-8/h1,6-8H,3-5H2	InChI=1S/C8H10O/c1-2-8-7-4-3-6(7)5-9-8/h1,6-8H,3-5H2/t6-,7-,8-/m1/s1
