22
gdb 113357	2.15994	1.12922	0.8476	2.2333	84.89	-0.2545	-0.0325	0.222	1474.2075	0.192267	-404.349954	-404.33949	-404.338545	-404.385901	37.578	
C	 0.4703360348	 1.4295543517	 0.1008553525	-0.379381
C	-0.1934028576	 0.0815501141	-0.210210964	-0.195392
C	 0.4980132654	-0.6182974009	-1.3575648829	-0.027844
N	 1.6931957702	-1.3987924727	-1.0647315657	-0.362712
C	 0.5060242822	-2.1192025478	-1.5606029928	 0.215012
C	-0.1699214744	-3.1123427034	-0.6353610954	-0.273494
C	 0.6895670627	-4.3600163772	-0.3948432529	-0.380053
C	 0.5613951675	-2.5074428031	-3.0031812949	 0.101133
O	 1.367389103	-2.0630223407	-3.7883479298	-0.277026
H	 1.5203594865	 1.2863448432	 0.3731606861	 0.13328
H	 0.435138431	 2.1001527459	-0.7646736447	 0.116189
H	-0.032394842	 1.9314794808	 0.9327687903	 0.114625
H	-0.1623475699	-0.5511284377	 0.6812139046	 0.109809
H	-1.2499505571	 0.2336950747	-0.4645559147	 0.100117
H	 0.5151403388	-0.0473331719	-2.28641093	 0.099348
H	 2.3480491249	-1.320931279	-1.8440105408	 0.244115
H	-0.3934596804	-2.635167318	 0.3214552879	 0.111494
H	-1.1364299947	-3.3970755486	-1.0726816696	 0.099042
H	 0.1944430262	-5.0516896984	 0.2929469224	 0.115065
H	 0.8847447604	-4.9018136839	-1.3271929103	 0.115739
H	 1.6541277411	-4.0762624998	 0.0353803254	 0.13958
H	-0.2066139287	-3.2439371173	-3.3258227408	 0.081353
58.6754	76.3028	123.0047	143.997	176.7473	216.1369	235.7587	258.858	295.6483	308.2149	376.4876	472.7674	562.357	622.4658	747.8931	776.6587	781.0489	817.1019	899.5159	944.9865	976.7	1006.7561	1027.9101	1035.9779	1084.0468	1096.2175	1120.0853	1141.3096	1143.2576	1249.5448	1257.6102	1308.73	1317.6107	1325.9906	1348.7568	1377.1567	1407.0002	1408.0792	1424.7971	1461.5115	1474.7374	1483.4758	1497.6576	1497.9015	1506.9302	1508.6563	1797.2994	2894.4619	3024.7681	3032.6535	3035.1612	3035.8683	3081.8124	3091.5004	3103.1457	3108.9249	3113.0277	3116.7415	3121.2708	3455.9062
CCC1NC1(CC)C=O	CC[C@H]1N[C@]1(CC)C=O	
InChI=1S/C7H13NO/c1-3-6-7(4-2,5-9)8-6/h5-6,8H,3-4H2,1-2H3	InChI=1S/C7H13NO/c1-3-6-7(4-2,5-9)8-6/h5-6,8H,3-4H2,1-2H3/t6-,7-/m1/s1
