22
gdb 101799	3.27694	0.74966	0.74643	1.2425	81.36	-0.2496	0.0368	0.2864	1702.8897	0.190964	-441.489405	-441.478159	-441.477214	-441.527176	38.849	
C	 0.0754081444	 1.3103136153	-0.0840873827	-0.232255
O	 0.0075137697	-0.0727695467	 0.1658560773	-0.245767
C	-1.2830182532	-0.644356306	 0.0114474784	 0.12293
C	-1.6980469794	-0.7750605773	-1.4575020506	-0.402259
C	-1.2681409067	-1.9810010307	 0.7390381206	-0.059295
O	-0.4271798332	-2.886017176	 0.0179073886	-0.237227
C	-0.3065278506	-4.1312757901	 0.5183513905	 0.404567
C	 0.6300015437	-4.9433423543	-0.3400988744	-0.461321
N	-0.9292602715	-4.4830633016	 1.5684050436	-0.523567
H	 1.0832121548	 1.6359328228	 0.1862930137	 0.126878
H	-0.0972701077	 1.5634566764	-1.140414007	 0.10592
H	-0.6514398103	 1.8707382216	 0.526219135	 0.100376
H	-2.021613581	-0.015731806	 0.5402874161	 0.06345
H	-0.9794699691	-1.3966886891	-1.9955107646	 0.137398
H	-2.6865994708	-1.2394672	-1.5328789568	 0.114678
H	-1.7542852244	 0.2021120293	-1.943996117	 0.114027
H	-0.883918117	-1.8561612894	 1.7554303793	 0.122866
H	-2.2798227543	-2.3948708074	 0.8082045151	 0.113343
H	 1.6168290524	-4.471455704	-0.3681397112	 0.149191
H	 0.7293866975	-5.9604580783	 0.0421092108	 0.12456
H	 0.2609383979	-4.9810505632	-1.3695432818	 0.143896
H	-0.7202298613	-5.4518675152	 1.7978490971	 0.217612
41.8517	57.555	74.4738	108.652	138.3445	175.5261	197.5348	229.5151	246.4271	316.3682	364.3455	411.7537	459.6729	574.7485	596.5896	648.7582	813.3162	850.4092	908.9165	918.5582	934.9431	984.4479	1046.8671	1067.9689	1099.7383	1113.5188	1121.8404	1144.778	1175.9188	1182.7173	1226.3352	1277.7351	1358.257	1371.7695	1384.1962	1393.493	1404.963	1433.0097	1471.5679	1476.8225	1481.624	1483.0572	1492.653	1498.1406	1505.4753	1513.4812	1725.2954	2946.7015	2970.7037	3020.8357	3047.5092	3048.594	3052.4171	3100.1618	3108.6685	3112.4914	3113.5826	3140.0482	3142.9151	3515.0673
COC(C)COC(C)=N	CO[C@@H](C)CO[C](C)[NH]	
InChI=1S/C6H13NO2/c1-5(8-3)4-9-6(2)7/h5,7H,4H2,1-3H3	InChI=1S/C6H13NO2/c1-5(8-3)4-9-6(2)7/h5,7H,4H2,1-3H3/t5-/m0/s1
