19
gdb 35328	5.51186	0.84214	0.83483	1.1713	82.1	-0.2468	0.0446	0.2914	1410.4755	0.158314	-385.820788	-385.812136	-385.811191	-385.854876	32.468	
C	-0.8778054728	-0.7768088158	-1.1622461691	-0.447135
C	-0.4187818188	 0.1765133434	-0.5899303856	 0.307803
C	 0.1482884323	 1.3042421716	 0.1180688358	-0.159397
C	-0.0144961975	 1.3805789505	 1.6718275199	-0.303172
C	 1.4439615211	 1.8836042561	 1.7710594989	 0.300824
C	 1.7290508346	 3.3639958616	 2.1110767203	-0.123304
O	 2.5811967261	 2.995188241	 3.2124846886	-0.274015
C	 2.3683743318	 1.5908182469	 2.9630880877	-0.145859
C	 1.6957640787	 1.3570503622	 0.3395255458	-0.303222
H	-1.2863588778	-1.6138435858	-1.6718532592	 0.194661
H	-0.1936399371	 2.2397113497	-0.3373963114	 0.105083
H	-0.8034686827	 2.0298495533	 2.0594907877	 0.109536
H	-0.1297317007	 0.3823843637	 2.1031505927	 0.115148
H	 2.2722764157	 3.9315742042	 1.3431491743	 0.099066
H	 0.8612865392	 3.9512129843	 2.4413785711	 0.099087
H	 1.8929305383	 1.0873755384	 3.8158808779	 0.100115
H	 3.3031937382	 1.068734972	 2.7174908245	 0.100097
H	 2.1250383195	 0.3513750702	 0.3466454323	 0.115153
H	 2.275611802	 1.9875160625	-0.3391537423	 0.109531
54.8587	56.1043	150.9117	211.3846	260.1938	360.454	360.5783	425.3203	521.9436	537.178	620.5018	627.6794	676.8039	824.8544	848.6497	873.6708	881.9044	928.3957	941.8134	989.0054	1001.7682	1040.7407	1056.9092	1071.3665	1132.9153	1149.8412	1158.537	1198.4588	1221.6374	1235.6703	1248.0043	1256.5612	1304.9545	1311.5492	1357.4096	1390.7448	1471.1929	1491.0107	1506.5005	1532.2426	2233.4938	2989.4047	3002.0259	3036.1206	3039.0498	3046.9301	3056.1706	3061.502	3114.8089	3117.2577	3504.9213
C#CC1CC2(COC2)C1	C#CC1CC2(COC2)C1	
InChI=1S/C8H10O/c1-2-7-3-8(4-7)5-9-6-8/h1,7H,3-6H2	InChI=1S/C8H10O/c1-2-7-3-8(4-7)5-9-6-8/h1,7H,3-6H2
