20
gdb 10824	4.03441	1.44245	1.16296	3.0407	74.98	-0.233	-0.0098	0.2232	1070.2836	0.17825	-349.054685	-349.046724	-349.04578	-349.086888	30.646	
C	-0.0108238338	 1.583590823	 0.0105860217	-0.405826
C	 0.0019433648	 0.0518078455	 0.0022251801	 0.050045
C	 0.669159534	-0.5006474467	-1.2678749659	-0.198598
C	 0.68452365	-2.0416128137	-1.2989695307	-0.305356
C	 1.2850834139	-2.6274409196	-0.0280978308	 0.396343
O	 2.1436871249	-3.4786643957	-0.043344291	-0.308721
C	 0.7164204362	-2.0553374158	 1.2635293795	-0.305356
C	 0.7004927986	-0.5141290905	 1.2493341086	-0.198599
H	 1.0096827755	 1.9843590546	 0.0000213804	 0.115931
H	-0.5327810708	 1.9819082477	-0.8657186343	 0.112883
H	-0.5107413901	 1.9724346319	 0.9038323687	 0.112883
H	-1.0416786157	-0.2989513551	 0.0133371358	 0.069177
H	 0.1595819786	-0.1205122182	-2.1604437436	 0.09875
H	 1.7016790817	-0.1281930992	-1.3188971102	 0.103832
H	-0.3497341831	-2.4078478309	-1.3741942072	 0.113494
H	 1.236915829	-2.4303014648	-2.1578087188	 0.11652
H	-0.3156941487	-2.4224933927	 1.3605459576	 0.113494
H	 1.2899653865	-2.4531294682	 2.1041412391	 0.11652
H	 1.7340118906	-0.1421045628	 1.278627676	 0.103832
H	 0.2133397078	-0.1436447687	 2.158330465	 0.09875
77.8594	173.7779	201.6645	232.8612	299.6768	372.3016	420.2228	423.4176	488.034	501.0795	688.195	747.1745	761.7169	806.3908	897.0484	917.3327	955.2186	966.8913	1011.8943	1016.8385	1070.4905	1095.8101	1134.2775	1145.2319	1197.1934	1238.8491	1265.4537	1272.0093	1315.1156	1332.1222	1345.3574	1351.108	1379.653	1395.8932	1413.1572	1460.8031	1471.2226	1485.5504	1497.4415	1500.9029	1502.8284	1818.1104	2983.6641	3006.6953	3013.1115	3015.1874	3020.3891	3027.6825	3061.3235	3065.157	3092.8803	3099.572	3103.7631	3105.3144
CC1CCC(=O)CC1	CC1CCC(=O)CC1	
InChI=1S/C7H12O/c1-6-2-4-7(8)5-3-6/h6H,2-5H2,1H3	InChI=1S/C7H12O/c1-6-2-4-7(8)5-3-6/h6H,2-5H2,1H3
