17
gdb 40478	3.84198	1.32732	1.2041	1.2514	72.22	-0.2318	0.0557	0.2874	1052.7956	0.136931	-417.853343	-417.846278	-417.845334	-417.885186	27.803	
C	-0.431378966	 1.0588257348	-0.5141455926	-0.235893
N	 0.6204001056	 1.5234629025	 0.4078722925	-0.323603
C	 0.3933588934	 0.0751930882	 0.2318312257	-0.213467
C	-0.1429623565	-0.6261346419	 1.4218384727	 0.389898
N	-1.2447665105	-0.0841708478	 2.2807992901	-0.384516
C	-0.9028175515	-1.3827963413	 2.9475710959	-0.08067
C	-0.6658864244	-2.0920262524	 1.5835185566	 0.05247
O	 0.6292931989	-2.6480384909	 1.948691321	-0.333664
C	 0.6195620303	-1.3440086745	 2.5998289964	 0.025245
H	-1.4439436838	 1.2561549812	-0.1772254608	 0.138822
H	-0.2697849257	 1.1519592729	-1.5846268915	 0.114079
H	 1.4428037897	 1.8097210162	-0.116705043	 0.235202
H	 1.1302652663	-0.4972049471	-0.3277176299	 0.098635
H	-0.8946780622	 0.7063587247	 2.8264330091	 0.222728
H	-1.4025244176	-1.7590631924	 3.8397826692	 0.093133
H	-1.3417994216	-2.675056261	 0.9598053284	 0.103888
H	 1.4867842155	-1.0370572513	 3.1863990202	 0.097713
83.8312	150.0687	178.0624	304.388	417.2909	512.8159	589.3795	643.7155	759.4674	788.6811	821.9249	829.772	862.6172	869.8416	891.2883	906.633	919.9772	946.1363	974.9716	1004.88	1035.6572	1088.1181	1105.8002	1121.0193	1131.9672	1159.9686	1164.7422	1180.6945	1192.3085	1246.4946	1255.5501	1273.6883	1290.2942	1321.0047	1339.6686	1467.2584	1510.4883	3110.0031	3115.9418	3125.2193	3133.4011	3141.0691	3209.3782	3425.5045	3504.6919
C1NC1C12NC3C1OC23	C1N[C@H]1[C@@]12N[C@H]3[C@@H]1O[C@@H]23	
InChI=1S/C6H8N2O/c1-2(7-1)6-4-3(8-6)5(6)9-4/h2-5,7-8H,1H2	InChI=1S/C6H8N2O/c1-2(7-1)6-4-3(8-6)5(6)9-4/h2-5,7-8H,1H2/t2-,3-,4-,5+,6+/m1/s1
