18
gdb 57798	4.18147	0.66563	0.58969	5.7403	78.29	-0.2576	0.0152	0.2728	1843.9335	0.145829	-439.089471	-439.079182	-439.078238	-439.126735	35.926	
C	 0.172736733	 1.6510429097	-0.1508030819	-0.382897
C	-0.0542511586	 0.1348198393	 0.0148058882	-0.134748
N	 0.4155318611	-0.6912998861	-1.1119212446	-0.505503
H	 1.4048532309	-0.5126048579	-1.2668855457	 0.23105
H	 1.3722762001	-2.7443593605	 1.4463512368	 0.313994
H	-0.0640804878	-0.3985150094	-1.959337445	 0.231597
C	 0.5731058059	-0.3592637061	 1.2445224527	 0.248736
C	 1.1154703563	-0.7661086862	 2.2415687317	-0.078811
C	 1.7704004515	-1.3855978967	 3.3833626364	-0.507511
C	 2.1697983208	-2.8635582509	 3.1678549393	 0.437131
O	 1.8294927571	-3.4078794543	 1.990481399	-0.360199
O	 2.7498226779	-3.4836320853	 4.0139046295	-0.320093
H	 1.2417140494	 1.8711492647	-0.2338541389	 0.123726
H	-0.32702456	 2.0048862281	-1.0582870986	 0.11419
H	-0.2256495981	 2.2088498298	 0.7021622903	 0.129576
H	-1.1355138918	-0.0413317959	 0.0947862151	 0.119024
H	 2.6860084992	-0.8530591285	 3.6628114799	 0.169434
H	 1.127160473	-1.3639120238	 4.2705351259	 0.171303
27.1482	48.7691	57.4534	141.1537	167.4961	259.8579	264.1393	306.049	365.5184	390.4514	449.7479	537.3778	555.0645	574.1589	638.1452	659.2686	745.4965	847.0996	863.3444	926.6975	949.9876	1011.4592	1073.0709	1092.859	1191.6871	1205.9019	1212.6257	1221.1477	1304.3792	1338.1293	1357.2362	1402.4802	1407.8361	1443.7529	1487.5584	1496.6458	1651.0879	1875.039	2359.6316	3017.3352	3033.3178	3048.9881	3082.4537	3110.0924	3114.3262	3475.4046	3558.5783	3664.2407
CC([NH3+])C#CCC([O-])=O	C[C@@H](N)C#CCC(=O)O	
InChI=1S/C6H9NO2/c1-5(7)3-2-4-6(8)9/h5H,4,7H2,1H3,(H,8,9)	InChI=1S/C6H9NO2/c1-5(7)3-2-4-6(8)9/h5H,4,7H2,1H3,(H,8,9)/t5-/m1/s1
