18
gdb 81104	2.55527	1.69583	1.29955	2.0936	76.96	-0.2219	-0.0361	0.1858	1019.9982	0.146458	-401.887703	-401.879625	-401.878681	-401.920462	31.17	
C	-0.5155043451	 1.2966737583	-0.2220120324	-0.340738
N	-0.0936182852	-0.0997111063	-0.1129835036	-0.132099
C	 1.2433581829	-0.4386158091	-0.7758673519	-0.057857
C	 1.9948864626	 0.1409395283	 0.4673260253	-0.270002
C	 0.7291419397	-0.4722184589	 1.137456678	 0.229402
C	 0.2004519094	-0.0751493116	 2.4784895711	 0.024753
O	 0.8014334989	 0.607027542	 3.2697901318	-0.242404
C	 0.9276911326	-1.9703814144	 0.8224256188	-0.114958
C	 1.2829572724	-1.9367902195	-0.4628696342	-0.071697
H	 0.2397992661	 2.0619842857	 0.015152082	 0.106849
H	-0.855106771	 1.4648733639	-1.2494945371	 0.12607
H	-1.3760236985	 1.4581014271	 0.4354481488	 0.12673
H	 1.4045152276	-0.0896086038	-1.7955371131	 0.074287
H	 2.9644393479	-0.2872031773	 0.726218537	 0.107357
H	 2.0338382544	 1.2301371656	 0.5106775466	 0.114964
H	-0.8204279582	-0.4612273952	 2.7015880604	 0.086554
H	 0.7853813674	-2.7946247214	 1.5052370739	 0.118412
H	 1.5228433361	-2.7381488833	-1.1458449614	 0.114377
54.8086	167.405	199.1916	217.2445	302.8963	329.5061	452.8463	484.9402	535.6821	557.7126	649.8394	701.0343	713.6383	800.0345	836.8821	852.9053	896.4464	915.2202	934.6048	1004.2799	1018.2101	1050.4165	1089.404	1102.4313	1129.5832	1166.7684	1180.2052	1200.7326	1223.8686	1250.7675	1300.3112	1322.3164	1415.516	1441.5282	1478.4676	1498.3068	1516.8389	1617.3328	1824.5874	2873.4769	2979.0193	3063.4412	3082.3376	3097.766	3125.3812	3142.8944	3230.9399	3257.6236
CN1C2CC1(C=O)C=C2	CN1[C@H]2C[C@]1(C=O)C=C2	
InChI=1S/C7H9NO/c1-8-6-2-3-7(8,4-6)5-9/h2-3,5-6H,4H2,1H3	InChI=1S/C7H9NO/c1-8-6-2-3-7(8,4-6)5-9/h2-3,5-6H,4H2,1H3/t6-,7+/m1/s1
