17
gdb 11452	3.98429	1.44235	1.13475	2.3322	65.83	-0.2457	0.018	0.2637	1050.7303	0.142787	-401.022248	-401.014173	-401.013229	-401.055229	28.928	
C	-0.098228415	 1.4163450832	 0.0138293461	-0.47182
C	-0.1044543475	-0.0724400691	-0.0476830415	 0.411922
N	-1.0943807094	-0.8371604274	 0.1816848695	-0.335645
C	-0.6229488184	-2.2208774866	-0.0115153423	-0.006152
C	-1.5069558178	-2.906285694	-1.0581126965	-0.052409
O	-2.8604709163	-2.8915596831	-0.6689857843	-0.422317
C	 0.8601633235	-2.0628690031	-0.4271290609	-0.132102
O	 1.0885587899	-0.6360539592	-0.3800743169	-0.251571
H	 0.6314871705	 1.7595424339	 0.7538120851	 0.148856
H	 0.199102788	 1.833663281	-0.9531411244	 0.148027
H	-1.0898239428	 1.778552322	 0.2821428931	 0.152183
H	-0.7301832507	-2.7644716416	 0.9343506937	 0.093917
H	-1.3533712764	-2.4045472127	-2.0298913497	 0.080165
H	-1.2138555436	-3.9560031841	-1.1769475558	 0.103727
H	-3.0367342018	-1.9872339232	-0.3780687616	 0.294999
H	 1.5641243957	-2.5466971964	 0.253894592	 0.122037
H	 1.058736592	-2.4078217398	-1.4481763956	 0.116184
65.9152	127.056	143.482	181.5985	235.9305	340.1912	395.4071	478.6604	488.5087	629.7223	663.4913	739.1378	864.1419	915.2598	935.8461	1010.0294	1015.7438	1044.3478	1066.6973	1086.0908	1105.7476	1140.4808	1213.776	1233.8451	1260.0365	1326.0051	1330.4912	1383.4045	1389.5307	1415.3071	1444.3991	1475.0149	1476.0708	1507.7291	1520.9176	1737.036	2950.1661	3036.9593	3041.9214	3052.5996	3061.1097	3100.9926	3110.5608	3167.457	3767.6226
CC1=NC(CO)CO1	CC1=N[C@@H](CO)CO1	
InChI=1S/C5H9NO2/c1-4-6-5(2-7)3-8-4/h5,7H,2-3H2,1H3	InChI=1S/C5H9NO2/c1-4-6-5(2-7)3-8-4/h5,7H,2-3H2,1H3/t5-/m0/s1
