16
gdb 14615	14.72932	0.5883	0.5754	1.8046	67.48	-0.2588	-0.0373	0.2215	1779.1673	0.128944	-379.928944	-379.91982	-379.918876	-379.964292	30.062	
O	-0.2448991083	 0.0374650309	 0.2607852416	-0.229648
C	-0.0124188337	 1.1614936623	-0.0961089924	 0.147707
C	 1.3835318906	 1.7549278048	-0.2044521672	-0.225262
N	 1.437897319	 2.7477746411	-1.2675898986	-0.312146
C	 2.6576547201	 3.5432140631	-1.281395936	-0.123791
C	 2.538412717	 4.6495832007	-2.3452204682	-0.346884
C	 3.7219842701	 5.5032308063	-2.3903895997	 0.25714
N	 4.666200065	 6.1687409723	-2.4100618831	-0.299006
H	-0.8196957565	 1.8776706053	-0.3697990675	 0.088658
H	 1.5758007684	 2.2673791796	 0.7503777571	 0.139081
H	 2.1153391583	 0.9348412632	-0.2791206268	 0.118234
H	 1.3244821861	 2.2870790175	-2.1661688354	 0.225736
H	 2.7753327635	 4.0065132952	-0.2956611355	 0.132163
H	 3.5722630443	 2.9550997595	-1.4665262066	 0.11173
H	 2.3922874821	 4.205554444	-3.3376026967	 0.150687
H	 1.6544223737	 5.2608301243	-2.1368734149	 0.1656
43.2053	64.571	85.8206	117.2046	139.6573	210.3979	330.2443	379.3016	399.9167	534.1597	561.9464	738.2071	784.3288	818.1656	948.722	1013.0439	1030.962	1055.0324	1083.5018	1141.2582	1160.0759	1201.5317	1265.5102	1297.5012	1318.1248	1334.2625	1397.767	1415.5778	1468.0496	1473.6894	1504.4097	1516.9429	1842.5193	2365.9017	2887.297	2964.0033	2980.6009	3026.0943	3040.5924	3065.7084	3093.0439	3501.1111
O=CCNCCC#N	O=CCNCCC#N	
InChI=1S/C5H8N2O/c6-2-1-3-7-4-5-8/h5,7H,1,3-4H2	InChI=1S/C5H8N2O/c6-2-1-3-7-4-5-8/h5,7H,1,3-4H2
