19
gdb 124440	3.15204	1.22695	1.09822	4.1621	77.26	-0.2675	-0.0328	0.2347	1181.8978	0.157431	-419.202633	-419.193539	-419.192595	-419.236403	34.066	
C	 0.1783852856	 1.5140733422	 0.1717772793	-0.415019
C	 0.0341968176	-0.0119838383	 0.0425353504	 0.117635
C	 0.5775376788	-0.7018526679	 1.3142456996	-0.405579
C	-1.4520607638	-0.3855187727	-0.1571416899	-0.405599
C	 0.821705123	-0.4910676676	-1.1465702248	 0.453562
C	 1.5967682035	 0.1278450995	-2.0819971747	-0.237537
N	 2.0632727094	-0.8443991427	-2.9341381622	-0.114455
N	 1.6411607518	-1.9758427145	-2.5954001349	-0.015801
O	 0.8196345494	-1.7964959741	-1.4242904033	-0.238049
H	 1.2228839346	 1.8064802314	 0.3180107284	 0.12315
H	-0.2026223614	 2.0287666372	-0.7158054277	 0.123145
H	-0.3926130912	 1.867967307	 1.0351741108	 0.121523
H	 0.0035234349	-0.3764336164	 2.1873971698	 0.117685
H	 0.4990858844	-1.7890122305	 1.2356034051	 0.136799
H	 1.6283986281	-0.4471384401	 1.4825012358	 0.123231
H	-1.8635181086	 0.097275452	-1.0488334563	 0.123227
H	-1.5744212388	-1.4658156063	-0.2677748362	 0.1368
H	-2.0367314493	-0.0586260781	 0.7083670956	 0.117687
H	 1.850919242	 1.16496843	-2.2098966649	 0.137596
51.0902	146.442	188.7679	220.3923	272.0303	280.2513	323.3886	329.1262	333.2371	428.3102	458.5477	586.4191	640.7614	697.9826	752.9747	827.5553	828.4225	934.7353	943.5193	965.3357	989.1407	1029.3222	1045.0186	1050.3761	1126.3007	1182.5114	1227.0479	1235.2304	1293.685	1356.0362	1397.014	1398.9647	1429.9233	1458.8748	1476.4281	1488.204	1489.4157	1501.3694	1502.0849	1520.7051	1593.1042	3034.9561	3037.714	3042.8729	3106.5343	3108.8681	3110.2321	3114.4742	3122.7125	3126.739	3299.1327
CC(C)(C)C1=CN=NO1	CC(C)(C)c1cnno1	
InChI=1S/C6H10N2O/c1-6(2,3)5-4-7-8-9-5/h4H,1-3H3	InChI=1S/C6H10N2O/c1-6(2,3)5-4-7-8-9-5/h4H,1-3H3
