19
gdb 103213	3.53737	1.2814	1.12273	2.6117	74.42	-0.229	0.0646	0.2936	1120.6191	0.157727	-422.920404	-422.91216	-422.911216	-422.953011	32.195	
C	-0.1285681069	 1.5823457563	 0.0152469141	-0.462049
C	-0.0738954072	 0.0564433445	 0.0035010469	 0.297656
C	-1.4324320796	-0.5451646142	-0.3317660303	-0.136466
O	-1.7775207944	-0.1424487946	-1.652029986	-0.423055
C	 1.1436716323	-0.5946239815	-0.7079328728	-0.114165
C	 2.084417798	-0.3295041132	 0.5110035101	 0.077368
O	 2.5672751422	-1.7008533106	 0.598770153	-0.334268
C	 1.1554890563	-1.8230452885	 0.256832012	 0.076022
C	 0.6961955817	-0.6340079757	 1.1613061979	-0.152808
H	 0.8527038574	 2.0245792463	 0.2109644573	 0.110531
H	-0.4885109376	 1.9570110608	-0.9464559349	 0.138458
H	-0.8162746961	 1.9412454247	 0.7903035153	 0.109906
H	-1.3943110435	-1.6428566851	-0.2550101757	 0.083636
H	-2.1800547807	-0.1918223872	 0.3977375669	 0.083587
H	-2.6629997422	-0.4634305825	-1.8450349762	 0.288589
H	 1.4193555662	-0.5874651261	-1.7619979958	 0.085339
H	 2.7870775976	 0.4808017953	 0.6984826267	 0.097937
H	 0.7393212101	-2.8220475497	 0.1364405041	 0.096508
H	 0.4708765165	-0.6715058689	 2.2282923273	 0.077275
87.7492	187.4005	206.307	224.8109	258.9444	281.2698	353.7654	413.4573	530.5341	570.4942	659.7052	770.623	799.308	805.6027	825.9374	879.3509	884.8339	910.3017	957.8386	966.5597	982.9391	1028.419	1065.5099	1106.5683	1115.1295	1124.6326	1146.6674	1155.9322	1182.7205	1188.4837	1197.681	1223.2961	1260.3163	1281.5033	1332.3001	1351.1592	1409.9155	1458.9611	1487.3975	1506.8112	1518.6888	2961.6729	2995.6461	3032.1377	3095.4681	3104.4794	3120.9315	3122.6998	3127.9824	3140.8365	3832.3158
CC1(CO)C2C3OC2C13	C[C@@]1(CO)[C@H]2[C@@H]3O[C@H]2[C@H]13	
InChI=1S/C7H10O2/c1-7(2-8)3-5-4(7)6(3)9-5/h3-6,8H,2H2,1H3	InChI=1S/C7H10O2/c1-7(2-8)3-5-4(7)6(3)9-5/h3-6,8H,2H2,1H3/t3-,4+,5-,6+,7-
