12
gdb 129445	4.44908	1.12567	0.89837	5.6198	58.04	-0.2798	-0.0693	0.2104	1166.1671	0.077963	-505.973124	-505.965384	-505.96444	-506.005895	27.743	
N	 0.3573725144	 0.3703330472	 1.1209794913	-0.532384
C	-0.1509764276	 0.2289953835	-0.1284329735	 0.332275
O	 0.2357071162	 0.8015074458	-1.1227509834	-0.333709
C	-1.2918628396	-0.7495198849	-0.1660872427	 0.373505
N	-1.7960033197	-1.4234804273	 0.8301283093	-0.413538
C	-2.7881504475	-2.1328648405	 0.2042628069	 0.447543
O	-3.5895272832	-2.9791171808	 0.8442557147	-0.397042
N	-2.9008573443	-1.9226560752	-1.0860316967	-0.179621
O	-1.8861726222	-0.9868538681	-1.3276179941	-0.17791
H	 1.1264983185	 1.00396804	 1.2602214169	 0.276112
H	-0.0251698495	-0.1448799161	 1.8960278434	 0.282426
H	-3.3325918555	-2.9786339037	 1.774260208	 0.322342
62.8326	158.3473	169.4934	260.2397	350.7279	374.7027	397.2281	404.7076	550.3159	559.1557	653.4478	654.4806	759.4412	760.5097	819.0499	950.494	1037.9307	1064.6601	1098.6834	1210.3356	1277.0179	1383.6193	1442.4782	1573.9889	1607.8096	1661.589	1818.0057	3601.7529	3741.513	3817.1359
NC(=O)C1=NC(O)=NO1	NC(=O)c1nc(O)no1	
InChI=1S/C3H3N3O3/c4-1(7)2-5-3(8)6-9-2/h(H2,4,7)(H,6,8)	InChI=1S/C3H3N3O3/c4-1(7)2-5-3(8)6-9-2/h(H2,4,7)(H,6,8)
