19
gdb 76703	3.21244	0.84783	0.80334	5.6494	76.88	-0.2302	0.0262	0.2564	1487.3933	0.158281	-419.182718	-419.172778	-419.171834	-419.218349	35.419	
C	 0.0632902809	 1.5795038042	-0.2185645581	-0.427798
C	 0.0259414937	 0.0733264267	-0.0627995951	-0.090003
C	 1.3090491885	-0.7427560701	 0.007154357	 0.045863
O	 2.5314991691	-0.0691388611	 0.1228047552	-0.419079
C	 0.4120542112	-0.6192068391	 1.2239839271	-0.000748
N	 0.8070120099	 0.1407687503	 2.3798152272	-0.297993
C	 1.7984350882	-0.5697226462	 3.1914959263	-0.261239
C	 2.1605263083	 0.2133956874	 4.3762819578	 0.253633
N	 2.4653423994	 0.8376498096	 5.2990471173	-0.302688
H	 1.0130432006	 2.0015066379	 0.121187286	 0.124721
H	-0.0560621205	 1.8574711948	-1.2710606053	 0.121596
H	-0.7433334825	 2.059397674	 0.3444982063	 0.135986
H	-0.7917951627	-0.4046897407	-0.5957077008	 0.093614
H	 1.3556808908	-1.6918672117	-0.5258182536	 0.087147
H	 2.7703473223	 0.2864375202	-0.7398590902	 0.295148
H	-0.1663754167	-1.5004794639	 1.4918119409	 0.097781
H	 1.1965114322	 1.0326010315	 2.0990005389	 0.238897
H	 1.3610730498	-1.5178382752	 3.5280062887	 0.150349
H	 2.7208644178	-0.8164857286	 2.6429819343	 0.154814
56.1001	74.4806	92.8029	163.5818	194.7889	214.111	280.8155	298.4795	318.1665	393.3953	477.3726	532.489	604.2572	644.0639	735.8271	751.2131	808.9939	902.1749	957.224	974.2079	1005.1651	1016.7118	1068.9727	1105.9403	1119.9975	1151.1449	1170.7286	1184.8311	1243.7815	1264.3584	1293.9238	1341.5919	1373.729	1394.2784	1412.4608	1441.968	1488.5536	1496.6309	1505.1333	1528.2581	2367.3727	2991.3003	3038.1568	3052.4044	3098.2449	3100.6447	3111.7354	3127.8511	3145.1465	3559.3611	3802.226
CC1C(O)C1NCC#N	C[C@H]1[C@@H](O)[C@H]1NCC#N	
InChI=1S/C6H10N2O/c1-4-5(6(4)9)8-3-2-7/h4-6,8-9H,3H2,1H3	InChI=1S/C6H10N2O/c1-4-5(6(4)9)8-3-2-7/h4-6,8-9H,3H2,1H3/t4-,5+,6-/m1/s1
