19
gdb 68864	2.48738	1.78726	1.42573	2.3033	73.92	-0.2312	0.0632	0.2944	985.4608	0.159471	-423.004477	-422.996487	-422.995543	-423.036247	32.736	
O	-0.1490930551	 1.377491551	-0.1454178135	-0.479885
C	-0.0132439468	-0.0146523106	-0.0688275791	 0.305341
C	-0.3696167836	-0.7051830472	 1.2362368453	-0.41688
C	-1.3046579974	-0.7850422297	 0.0411543719	 0.401521
O	-2.5184505032	-0.1057627201	 0.0730182575	-0.488385
C	-1.1903911014	-2.0102942724	-0.8117742939	-0.089019
C	-1.0625940339	-1.7577509439	-2.2904443571	-0.296001
C	 0.1826484475	-1.972956145	-1.4656322975	-0.017831
C	 0.9509938275	-0.7251629527	-1.0161497482	-0.30968
H	 0.438820388	 1.785524955	 0.4983108009	 0.289415
H	 0.1961258925	-1.5787420507	 1.545824505	 0.109554
H	-0.7038388305	-0.0570573173	 2.0400501266	 0.108498
H	-2.3031314594	 0.8328440674	-0.0181933647	 0.286614
H	-1.6190555291	-2.9441779251	-0.4635648377	 0.086221
H	-1.3626562153	-2.5525348131	-2.964388049	 0.109774
H	-1.2762552225	-0.757390132	-2.6543686002	 0.117441
H	 0.7362197583	-2.8933494637	-1.6115734542	 0.082445
H	 1.1949452654	-0.0645076604	-1.8554991188	 0.10803
H	 1.8940523089	-0.9921421095	-0.5236790632	 0.092827
149.6801	202.4823	228.0311	271.746	344.3754	369.2171	398.7401	428.1305	475.0966	537.9622	551.8947	632.617	729.6066	771.9816	806.8953	829.9031	896.4734	907.5483	910.1481	933.3272	994.7814	1009.9184	1033.0395	1057.8066	1066.5418	1100.4714	1110.3839	1135.7153	1179.5181	1195.9753	1220.2436	1263.6262	1284.8224	1319.5179	1348.5171	1373.4632	1391.9754	1424.5996	1467.7772	1487.1955	1500.9676	3024.5952	3067.9606	3118.566	3127.5512	3160.702	3175.007	3214.117	3214.6257	3743.5073	3810.2615
OC12CC1(O)C1CC1C2	O[C@@]12C[C@]1(O)[C@H]1C[C@H]1C2	
InChI=1S/C7H10O2/c8-6-2-4-1-5(4)7(6,9)3-6/h4-5,8-9H,1-3H2	InChI=1S/C7H10O2/c8-6-2-4-1-5(4)7(6,9)3-6/h4-5,8-9H,1-3H2/t4-,5-,6-,7-/m0/s1
