20
gdb 64812	3.081	1.17688	1.04661	2.6569	79.55	-0.233	-0.0193	0.2137	1217.8353	0.16876	-403.124817	-403.115946	-403.115002	-403.158486	34.254	
C	-0.2493151304	 1.444419251	-0.3585010696	-0.424685
C	 0.0590403903	-0.0153880877	-0.0319615054	 0.316109
C	 1.1716059881	-0.6018219465	-0.989904392	-0.409961
C	 2.1633520695	-0.4293882105	 0.1693933159	 0.412253
O	 3.3582339098	-0.4243273945	 0.2384044846	-0.293029
C	 1.038126326	-0.1685559335	 1.1758659693	-0.380048
N	-1.2065713231	-0.7099257056	 0.1629212207	-0.105441
C	-1.887837803	-1.2794649133	-0.9906987757	-0.225167
C	-1.295914239	-2.1579187673	 0.0584497138	-0.240903
H	 0.6699968634	 2.032433428	-0.4457284743	 0.117847
H	-0.7902304806	 1.5214823715	-1.3074973175	 0.118813
H	-0.8715973768	 1.882117167	 0.4268434819	 0.129312
H	 1.043029155	-1.6601134006	-1.2399565092	 0.128624
H	 1.3954949939	-0.0548993323	-1.9091605974	 0.125443
H	 1.1600327367	 0.6810355287	 1.8520187391	 0.128435
H	 0.820567656	-1.0640995563	 1.76842986	 0.132976
H	-2.9608207696	-1.1170848087	-1.04185152	 0.120455
H	-1.3765761463	-1.2555804364	-1.9522430567	 0.11507
H	-0.414037546	-2.7335412963	-0.2158300752	 0.112676
H	-1.9293111739	-2.6380192266	 0.7991558176	 0.121222
54.3357	101.9699	198.2006	252.1443	260.746	307.1394	354.0677	406.7667	413.9122	475.3172	520.0664	561.1897	681.2474	719.2431	797.4721	839.507	866.4035	879.3905	920.6976	944.8316	990.6873	1001.6383	1033.6023	1075.173	1109.849	1119.3714	1124.4785	1147.1765	1162.6801	1173.1754	1187.9032	1208.5697	1251.1225	1278.8573	1340.1781	1409.8526	1421.0471	1442.7684	1486.3664	1493.5175	1498.3366	1521.3814	1892.9124	3034.9283	3051.5197	3057.3121	3093.0738	3101.372	3103.1497	3112.4569	3115.6872	3118.881	3174.8848	3188.665
CC1(CC(=O)C1)N1CC1	CC1(CC(=O)C1)N1CC1	
InChI=1S/C7H11NO/c1-7(8-2-3-8)4-6(9)5-7/h2-5H2,1H3	InChI=1S/C7H11NO/c1-7(8-2-3-8)4-6(9)5-7/h2-5H2,1H3
