16
gdb 8558	2.84354	2.78692	1.74437	0.8336	63.91	-0.215	0.067	0.282	777.2126	0.129496	-383.671457	-383.664404	-383.66346	-383.702143	27.87	
C	 0.0272479126	 1.4239353053	-0.0139695845	-0.516786
C	 0.0051570535	-0.0643683377	 0.0160644921	 0.401534
O	 0.8973023387	-0.8169002901	-0.8145583986	-0.325777
C	 0.1022463134	-1.9868147374	-0.4613113107	 0.065474
C	 0.4561098652	-2.2480424094	 1.0264493562	-0.30289
C	-0.2884294637	-0.9321242608	 1.2669304026	 0.291848
O	-0.7582604792	-0.4089865637	 2.4522987193	-0.454859
C	-1.0990422392	-1.07967115	-0.0123547564	-0.241288
H	 1.0265418244	 1.7993053013	 0.2345159351	 0.128747
H	-0.2440156506	 1.809067052	-1.0015663729	 0.133516
H	-0.6811578412	 1.8174385221	 0.7208834797	 0.134199
H	 0.1064098211	-2.7674222894	-1.2179624563	 0.08964
H	-0.101266045	-3.0949890165	 1.4348974599	 0.108125
H	 1.5213043947	-2.3240093023	 1.2685588012	 0.095277
H	-0.0377350848	 0.0633272318	 2.8850547799	 0.28982
H	-2.1570768101	-1.0461571553	-0.2322599967	 0.103421
183.6819	207.3202	235.1029	288.721	354.2366	403.747	458.9381	521.6561	638.8913	652.9703	741.7577	783.6091	806.8181	886.6247	902.8426	925.0991	929.3457	1004.5727	1028.5031	1063.967	1091.8623	1120.7099	1137.4766	1154.6214	1224.8909	1235.9362	1283.935	1307.5518	1371.9394	1412.315	1452.1804	1477.3514	1491.191	1504.8211	3033.2193	3045.0044	3097.1221	3113.3497	3118.1073	3151.7523	3211.3101	3786.9267
CC12OC3CC1(O)C23	C[C@@]12O[C@H]3C[C@]1(O)[C@@H]23	
InChI=1S/C6H8O2/c1-5-4-3(8-5)2-6(4,5)7/h3-4,7H,2H2,1H3	InChI=1S/C6H8O2/c1-5-4-3(8-5)2-6(4,5)7/h3-4,7H,2H2,1H3/t3-,4+,5-,6-/m0/s1
