18
gdb 9502	2.8542	1.67364	1.52261	2.6441	68.41	-0.2427	-0.0196	0.2231	938.9454	0.151438	-384.940037	-384.931179	-384.930234	-384.973485	31.934	
C	-0.0559419664	 1.6994643032	 0.3143580666	-0.453603
C	-0.0702405582	 0.1826146366	 0.1134773015	 0.209025
C	 0.9374069042	-0.3478102854	-0.9422582885	-0.268149
C	 1.925133015	-0.7104111715	 0.1990090875	-0.264681
C	 0.7525049363	-0.593155495	 1.2082271875	 0.096322
O	 0.935940311	 0.1239826872	 2.402801782	-0.424882
C	-1.4876411546	-0.3224134505	 0.0011062854	 0.099507
O	-1.8860046061	-1.1019129575	-0.827980082	-0.257928
H	 0.958870534	 2.0645323913	 0.4882564112	 0.13076
H	-0.4549288034	 2.2037085956	-0.5721852391	 0.120189
H	-0.6589368602	 1.9890794874	 1.1801887446	 0.130944
H	 0.5348485436	-1.2192310881	-1.4618726726	 0.126797
H	 1.2826172674	 0.377946119	-1.6810990471	 0.103672
H	 2.4422039279	-1.6711917712	 0.141848894	 0.098982
H	 2.6587021849	 0.0797302054	 0.3787647709	 0.110193
H	 0.2999047155	-1.5767913676	 1.4004927827	 0.078179
H	 1.4115536446	-0.4350546915	 3.0252574449	 0.288886
H	-2.1719636854	 0.0666877025	 0.7919578404	 0.075788
63.8843	105.1415	188.2765	203.7713	221.9279	242.9157	282.1288	336.9429	400.7325	477.0976	566.4282	655.7263	742.928	807.9221	882.951	900.0915	939.1892	960.1417	967.6943	1011.5953	1109.3341	1127.5308	1166.617	1168.4715	1210.4305	1235.7884	1244.3401	1273.078	1298.3911	1323.8395	1403.0516	1420.1754	1425.9186	1479.1101	1491.6159	1493.7632	1499.3337	1820.8899	2853.1881	2992.0869	3039.0109	3062.0496	3076.7825	3107.678	3113.8549	3123.8915	3135.7409	3820.0366
CC1(CCC1O)C=O	C[C@]1(CC[C@H]1O)C=O	
InChI=1S/C6H10O2/c1-6(4-7)3-2-5(6)8/h4-5,8H,2-3H2,1H3	InChI=1S/C6H10O2/c1-6(4-7)3-2-5(6)8/h4-5,8H,2-3H2,1H3/t5-,6+/m1/s1
