18
gdb 109850	2.97179	1.18544	1.08498	1.5093	70.28	-0.2346	0.0056	0.2403	1194.2402	0.146052	-476.172645	-476.16342	-476.162476	-476.207172	33.132	
C	-0.1138911762	 1.2064817487	-0.0515919516	-0.234345
O	-0.4183826884	 0.2667756521	-1.0718744057	-0.230054
C	 0.6540811392	-0.5407666304	-1.3965658067	 0.036522
C	 1.0042709904	-1.7016857313	-0.4769688659	 0.037143
O	 0.3177949327	-1.819982101	 0.7148996362	-0.419504
C	 0.3057432031	-1.9517895425	-1.8002169941	 0.024117
O	-1.076255935	-2.2424473562	-1.8957695487	-0.189599
C	-1.5949894754	-3.3015913485	-1.2726703468	 0.155958
N	-1.0037943548	-4.0039431642	-0.3967171433	-0.487778
H	 0.1632497242	 0.7017830683	 0.879925046	 0.13914
H	 0.7014835654	 1.8793689055	-0.3576589551	 0.09969
H	-1.0176912595	 1.7993492008	 0.1071534747	 0.124025
H	 1.4684157844	-0.044487036	-1.9292195161	 0.084599
H	 2.0518426313	-2.0103603864	-0.4552852382	 0.085532
H	-0.0827843041	-2.7091894471	 0.692863937	 0.302359
H	 0.8665292882	-2.4257656371	-2.6008594994	 0.109044
H	-2.6149607592	-3.4547049324	-1.6359972865	 0.124285
H	-1.6102165562	-4.7506125322	-0.067875416	 0.238867
47.9731	119.4078	134.3513	187.527	222.3207	234.1582	263.6485	302.8794	321.8762	544.5369	610.601	648.4453	680.3732	756.511	784.3163	820.1271	822.8266	886.6467	1031.0325	1045.5213	1077.0888	1090.7536	1098.9822	1127.915	1156.2712	1176.9454	1195.7011	1235.6389	1276.146	1327.0007	1357.8089	1369.912	1401.3985	1423.5816	1462.542	1484.6675	1487.7424	1508.8137	1708.2554	2990.4755	3065.9308	3075.6962	3077.4241	3100.7198	3125.1903	3143.639	3530.5478	3567.4555
COC1C(O)C1OC=N	CO[C@H]1[C@@H](O)[C@H]1O[CH][NH]	
InChI=1S/C5H9NO3/c1-8-4-3(7)5(4)9-2-6/h2-7H,1H3	InChI=1S/C5H9NO3/c1-8-4-3(7)5(4)9-2-6/h2-7H,1H3/t3-,4+,5-/m1/s1
