20
gdb 65286	2.5706	1.35887	1.10481	1.2091	86.58	-0.2317	0.036	0.2677	1193.7792	0.169296	-365.95008	-365.94081	-365.939866	-365.983839	35.507	
C	-0.1114664976	 1.5292416928	 0.1269964358	-0.459228
C	-0.0352451184	 0.0150832441	 0.0861113091	 0.060241
N	 1.2907162895	-0.53687162	-0.32112752	-0.424097
C	 0.8376519461	-0.7427731685	 1.0441909273	 0.341495
C	 1.5314500821	-0.2049472482	 2.3019520054	-0.289803
C	 0.8856903373	-1.3797486417	 3.0955974933	-0.209006
C	 0.4884411743	-2.0574616134	 1.749738467	-0.313937
C	-1.2158873965	-0.6541935226	-0.3960033974	 0.303796
C	-2.2078685185	-1.2016382757	-0.8028035435	-0.468167
H	 0.8375319285	 1.9424001721	 0.4747106704	 0.131329
H	-0.3131958591	 1.9282636947	-0.8715682226	 0.130018
H	-0.9120084378	 1.8613554388	 0.7954735917	 0.122448
H	 1.1553376135	-1.3862251096	-0.8667553175	 0.233581
H	 2.619686332	-0.2861727222	 2.2257719405	 0.111678
H	 1.278620182	 0.8094170671	 2.619366729	 0.103318
H	 1.5501093753	-1.9480043201	 3.7487102193	 0.102216
H	 0.0144582822	-1.0641071196	 3.6738899582	 0.108357
H	-0.5393390523	-2.4120036703	 1.6426731974	 0.11607
H	 1.1711059417	-2.8671184779	 1.4708754346	 0.103777
H	-3.0806273846	-1.6848035199	-1.166635938	 0.195914
83.4959	125.6752	139.6656	181.6052	222.1901	235.3018	349.8488	395.6739	439.6315	512.3168	555.9999	584.7624	608.8637	649.785	656.681	718.2857	782.8887	808.7557	881.2434	931.3264	933.601	970.8236	1001.1546	1037.7455	1072.994	1095.5259	1127.7345	1140.2873	1193.4976	1223.0231	1248.6236	1250.8356	1273.0489	1277.0855	1313.8426	1410.7188	1424.0071	1469.9847	1479.2628	1483.911	1494.7972	1504.4651	2226.5045	3042.8591	3047.5167	3058.8498	3072.4748	3102.7509	3108.9046	3110.0025	3129.6763	3133.9072	3486.2798	3501.7827
CC1(NC11CCC1)C#C	C[C@]1(NC21CCC2)C#C	
InChI=1S/C8H11N/c1-3-7(2)8(9-7)5-4-6-8/h1,9H,4-6H2,2H3	InChI=1S/C8H11N/c1-3-7(2)8(9-7)5-4-6-8/h1,9H,4-6H2,2H3/t7-/m0/s1
