17
gdb 6256	4.03563	1.13415	1.01019	4.9401	74.22	-0.2598	-0.0377	0.2221	1197.1084	0.140575	-360.063097	-360.053808	-360.052864	-360.097006	33.311	
C	-0.3134071672	 1.8780556458	 0.2285899916	-0.37726
C	-0.1677073493	 0.4180012566	-0.2080364101	 0.036917
C	 0.7691709748	-0.3626240454	 0.7290574241	-0.378291
N	-1.4906983161	-0.1970119903	-0.2056877501	-0.257873
C	-1.7440586072	-1.1664889226	-0.9911541652	 0.252503
N	-0.9107207321	-1.8199946064	-1.8820561334	-0.553272
C	-3.0811874484	-1.737282313	-0.9417569631	 0.273674
N	-4.1386059542	-2.2036316924	-0.9361684384	-0.319467
H	 0.6583235635	 2.3819338249	 0.2309620841	 0.107765
H	-0.9832631625	 2.4184686403	-0.4457768688	 0.120078
H	-0.7378146608	 1.927575801	 1.2357520389	 0.129313
H	 0.2749328953	 0.4156247102	-1.2213880119	 0.053173
H	 0.3570383746	-0.3755372681	 1.7423243855	 0.134753
H	 0.8916645841	-1.3987028591	 0.3999374386	 0.119934
H	 1.7564907737	 0.1083605011	 0.761854848	 0.1167
H	-0.056312169	-1.3520965681	-2.1406405066	 0.268285
H	-1.3494346591	-2.3415586646	-2.6247883431	 0.273068
63.5904	104.7717	139.7488	221.4127	231.5549	260.9182	311.7797	334.5259	389.9546	436.04	452.0059	493.3095	536.1546	608.7813	722.4455	829.1747	845.1334	930.066	950.8713	957.4381	1114.968	1138.7938	1155.319	1198.4576	1328.5834	1328.9966	1387.4468	1395.1375	1415.717	1481.4919	1487.2489	1494.6073	1509.8384	1632.2189	1718.2828	2358.7608	2914.252	3037.4128	3041.3063	3110.7164	3114.1852	3117.7705	3120.9498	3584.627	3698.5086
CC(C)N=C(N)C#N	CC(C)N=C(N)C#N	
InChI=1S/C5H9N3/c1-4(2)8-5(7)3-6/h4H,1-2H3,(H2,7,8)	InChI=1S/C5H9N3/c1-4(2)8-5(7)3-6/h4H,1-2H3,(H2,7,8)
