17
gdb 80131	2.54597	1.78014	1.27437	2.0088	72.8	-0.2392	-0.0357	0.2035	1004.9718	0.137097	-418.013695	-418.005971	-418.005027	-418.046257	28.913	
C	-0.8209827695	 1.2626529609	 0.1758100192	-0.417923
C	-0.0952651336	-0.0645204248	 0.0260969996	-0.084785
N	 0.6492502302	-0.3583450996	-1.259739968	-0.125169
C	 1.03110907	 0.7384078191	-2.0569261365	 0.037724
N	 2.2635939648	 1.0524293069	-2.1275131208	-0.222923
C	 3.0058848279	 0.1556134329	-1.2259843457	-0.191473
C	 1.9200620402	-0.7112886769	-0.5394551883	-0.126972
C	 1.2532826299	-0.2444768814	 0.7669170953	 0.372405
O	 1.6266882746	-0.0269926618	 1.8795793468	-0.283927
H	-0.1622834312	 2.1100435738	-0.0348968149	 0.140544
H	-1.6879081872	 1.3190544569	-0.4891741732	 0.133572
H	-1.1759516483	 1.3571775925	 1.2059948835	 0.145738
H	-0.7733713734	-0.895954225	 0.2524142186	 0.119312
H	 0.2621172947	 1.2644536009	-2.6150916078	 0.129747
H	 3.6960985031	-0.4647604422	-1.806521198	 0.125678
H	 3.6061635199	 0.7391616071	-0.5202321327	 0.132202
H	 2.144242618	-1.7813615292	-0.5457164773	 0.11625
66.032	161.0529	190.2334	224.5002	232.501	381.9326	485.1312	536.8447	553.1956	645.1517	717.9557	784.8635	816.8628	883.0629	926.7457	933.6766	963.3711	989.3354	1006.2925	1059.971	1072.1559	1079.8697	1138.6725	1181.3261	1192.2964	1223.7817	1259.717	1285.573	1311.6763	1334.8114	1362.89	1404.2462	1489.7315	1493.3486	1497.2309	1677.5228	1902.6723	3038.1653	3043.3531	3047.5452	3071.6531	3086.0735	3117.2756	3122.5109	3186.0022
CC1N2C=NCC2C1=O	C[C@H]1N2C=NC[C@H]2C1=O	
InChI=1S/C6H8N2O/c1-4-6(9)5-2-7-3-8(4)5/h3-5H,2H2,1H3	InChI=1S/C6H8N2O/c1-4-6(9)5-2-7-3-8(4)5/h3-5H,2H2,1H3/t4-,5+/m1/s1
