21
gdb 114346	2.59735	1.42641	1.25567	2.9729	77.91	-0.2182	0.0676	0.2858	1122.8774	0.183792	-424.212358	-424.203853	-424.202909	-424.245316	33.205	
C	 0.2897930396	 0.5731894935	 0.6692557118	-0.246859
O	 0.1498059526	-0.6363564979	-0.0488052414	-0.248739
C	 0.5925830546	-0.5801652544	-1.4114607498	 0.081164
C	 2.136692294	-0.6395807674	-1.5469813239	-0.248156
C	 2.4993961432	-2.0918825969	-1.8308533767	-0.105979
C	 1.9658966771	-3.1739287329	-0.9208641613	 0.137272
O	 1.5084985115	-2.9918936262	 0.3778211029	-0.442584
C	 1.2102228544	-2.8397348436	-2.1852414471	-0.109894
C	 0.0614443117	-1.8410713139	-2.1275038987	-0.246476
H	 1.3383857132	 0.8834056142	 0.7718154028	 0.117543
H	-0.2681567582	 1.3843038797	 0.1793157416	 0.114785
H	-0.1258421719	 0.4046159931	 1.6650795594	 0.137077
H	 0.18462733	 0.3399822355	-1.8500230607	 0.076192
H	 2.4548265881	-0.0143432614	-2.3888115425	 0.103572
H	 2.6267576831	-0.239071499	-0.6527526794	 0.110083
H	 3.4275873718	-2.276099521	-2.3626820437	 0.077262
H	 2.5210768156	-4.1067376517	-0.9696279867	 0.095988
H	 0.9616373825	-2.1903441733	 0.4232378574	 0.297311
H	 1.1841896452	-3.5785159354	-2.9799924446	 0.077519
H	-0.8261806915	-2.2123736423	-1.6057193217	 0.118642
H	-0.2429320367	-1.5828435186	-3.1473022176	 0.104278
105.0748	136.2356	149.5563	210.3489	251.0247	311.8395	386.9827	448.7578	483.2038	570.933	580.7931	697.0817	733.7222	741.7926	786.4687	796.7617	878.8479	906.8777	948.4325	998.6181	1042.9442	1046.2881	1061.2918	1092.3971	1106.0327	1114.4024	1127.3887	1184.4213	1197.1482	1205.4564	1231.1852	1249.8035	1265.2437	1318.6705	1323.7556	1357.8461	1362.8856	1390.3215	1417.3021	1472.9064	1477.4109	1485.546	1490.8513	1503.6691	1510.8282	2993.008	3012.6477	3038.9989	3048.0146	3050.1801	3075.4549	3089.5211	3123.9409	3142.9211	3147.3213	3161.1477	3632.8739
COC1CC2C(O)C2C1	CO[C@H]1C[C@H]2[C@@H](O)[C@H]2C1	
InChI=1S/C7H12O2/c1-9-4-2-5-6(3-4)7(5)8/h4-8H,2-3H2,1H3	InChI=1S/C7H12O2/c1-9-4-2-5-6(3-4)7(5)8/h4-8H,2-3H2,1H3/t4-,5+,6-,7+
