17
gdb 42894	2.79712	1.54724	1.22609	3.745	72.45	-0.2429	-0.0205	0.2225	1037.0246	0.13603	-421.787294	-421.779637	-421.778693	-421.81991	28.745	
O	-0.1280762072	 0.0456658621	-0.2016463327	-0.32176
C	-0.1271152871	 1.2294628209	-0.0114618645	 0.362725
C	-1.1840692032	 2.2905166233	-0.0129816975	-0.172686
C	-0.9464974863	 3.2370378892	 1.1573304994	-0.294035
C	-0.0469612568	 3.3546678497	-0.0201418706	-0.13509
C	 1.0250503598	 2.2648578848	 0.0476869087	 0.167057
C	 2.1921196381	 2.2451050297	 1.0541484474	-0.133325
O	 3.1678984485	 2.1619549497	-0.0024954106	-0.271068
C	 2.1423888193	 2.1383149948	-1.0123567796	-0.139198
H	-2.1314750681	 2.2653426665	-0.535923862	 0.116526
H	-1.7108303886	 4.0002407018	 1.2610502838	 0.132247
H	-0.5724622921	 2.8548401986	 2.1031071883	 0.128666
H	 0.0033403868	 4.2363508375	-0.6458908199	 0.112443
H	 2.3032486668	 3.1571890838	 1.6546133496	 0.104841
H	 2.2266324889	 1.3678562136	 1.7121916912	 0.114729
H	 2.1337576268	 1.194527146	-1.5704602779	 0.123401
H	 2.2248212643	 2.9806693181	-1.7109955031	 0.104528
79.751	110.6718	180.9219	228.3312	258.0827	385.8219	487.6785	580.0038	630.2042	730.5797	770.9346	810.8247	854.4884	899.0247	921.1571	932.625	965.0927	987.2112	1002.2457	1042.7642	1046.9854	1074.7549	1103.8237	1122.1257	1149.4242	1164.0216	1177.6121	1197.2683	1231.0925	1296.6057	1308.1462	1335.9535	1376.0771	1495.0211	1500.3681	1525.4464	1876.94	3004.4225	3015.7943	3054.7631	3063.032	3119.9625	3198.0729	3201.5797	3212.4676
O=C1C2CC2C11COC1	O=C1[C@H]2C[C@H]2C21COC2	
InChI=1S/C7H8O2/c8-6-4-1-5(4)7(6)2-9-3-7/h4-5H,1-3H2	InChI=1S/C7H8O2/c8-6-4-1-5(4)7(6)2-9-3-7/h4-5H,1-3H2/t4-,5+/m0/s1
