18
gdb 84801	2.73197	1.34569	1.1007	2.6504	73.25	-0.2374	0.0029	0.2403	1133.8513	0.148928	-439.125684	-439.117145	-439.116201	-439.15932	32.493	
N	 0.5942958494	 0.3305463821	-0.7651995313	-0.511802
C	-0.1060207952	 0.0202739131	 0.3697622476	 0.338075
O	 0.1062188191	 0.5549706868	 1.4419463148	-0.364967
C	-1.238269421	-0.9904993054	 0.1776800764	-0.103365
C	-2.412520041	-0.4611464652	-0.6957711899	-0.277109
C	-2.9238273205	-1.7051984022	-1.3737020375	-0.058517
C	-2.1120650192	-2.747213528	-1.2136785539	-0.062042
C	-0.8744644569	-2.3894035756	-0.432114552	 0.024374
O	 0.2339060863	-2.3988549396	-1.350777001	-0.429718
H	 1.3966408385	 0.9295222368	-0.6472796095	 0.251688
H	 0.5925045602	-0.335795547	-1.5244041439	 0.262651
H	-1.6200714772	-1.1743564763	 1.1837927622	 0.106897
H	-3.1719609367	 0.0320737985	-0.0799212917	 0.120571
H	-2.08217537	 0.2819325825	-1.4321880885	 0.12454
H	-3.8482901048	-1.7167125012	-1.9411615367	 0.10197
H	-2.2465508742	-3.7351401781	-1.6376565868	 0.101277
H	-0.65970707	-3.1048121077	 0.3715849504	 0.086897
H	 1.0409488334	-2.5134980936	-0.8377026787	 0.288581
59.637	67.5812	220.8788	243.5999	303.9931	320.3419	357.9681	399.5724	507.5744	517.0716	593.7342	653.4805	718.0421	748.649	765.7178	788.9163	816.2602	917.7224	963.6966	975.1301	986.5072	997.0444	1029.0446	1081.5427	1127.2873	1138.1528	1181.3315	1235.459	1277.7204	1305.5931	1314.3715	1340.2884	1355.7936	1368.3852	1425.6325	1486.8892	1621.9417	1690.7575	1793.4774	3019.9626	3034.989	3068.9273	3096.5983	3186.5718	3215.2361	3550.4561	3691.6677	3810.6493
NC(=O)C1CC=CC1O	NC(=O)[C@H]1CC=C[C@H]1O	
InChI=1S/C6H9NO2/c7-6(9)4-2-1-3-5(4)8/h1,3-5,8H,2H2,(H2,7,9)	InChI=1S/C6H9NO2/c7-6(9)4-2-1-3-5(4)8/h1,3-5,8H,2H2,(H2,7,9)/t4-,5+/m0/s1
