20
gdb 19860	3.86211	1.99972	1.72407	0.2471	76.7	-0.2397	0.0818	0.3215	849.5564	0.18086	-311.851344	-311.844954	-311.84401	-311.88152	27.023	
C	 0.0159648861	 1.4678255768	 0.004075258	-0.284915
C	 1.3348643148	 0.751755248	 0.0720004408	-0.064519
C	 0.0177603296	-0.032556333	 0.0802646193	-0.064547
C	 0.3708087742	-0.6733115857	-1.2786198768	 0.006574
C	-0.3780063782	-0.3012261897	-2.5732761957	-0.238367
C	 0.7396271563	 0.2151361661	-3.51220952	-0.186648
C	 1.7343930876	 0.9574529702	-2.5866107768	-0.238385
C	 1.7173641075	 0.1288776454	-1.2871937252	 0.006565
H	-0.277005861	 1.9696135941	 0.9210561771	 0.108244
H	-0.3010909889	 1.990857978	-0.8941081523	 0.103956
H	 2.0260587307	 0.923153811	 0.8887595397	 0.078981
H	-0.4546583833	-0.5540338171	 0.904342071	 0.078984
H	 0.5223627232	-1.7512665915	-1.1883748886	 0.065506
H	-0.9292097346	-1.1405228901	-3.0073085794	 0.090029
H	-1.1067405062	 0.4947808937	-2.3840566964	 0.098585
H	 1.2457784967	-0.6392748491	-3.9791562135	 0.095278
H	 0.3602952424	 0.8431474243	-4.3246943664	 0.090562
H	 2.7307651698	 1.0403366747	-3.0304597761	 0.090031
H	 1.382930901	 1.9782488498	-2.3996796823	 0.098591
H	 2.5939717724	-0.5171406258	-1.2016712864	 0.065496
162.572	192.3055	319.5835	413.8986	518.419	554.3751	616.8888	664.5141	755.245	802.9617	811.7801	854.9016	870.8251	903.4787	934.1052	936.8569	959.3744	994.4392	1010.7576	1018.1986	1052.024	1058.894	1066.1155	1092.2951	1108.2433	1161.3702	1173.3792	1187.2148	1193.7151	1255.0025	1258.447	1295.8503	1304.9639	1319.4339	1336.4045	1340.6011	1352.9739	1369.093	1486.2991	1493.8441	1497.3353	1511.4062	3026.652	3042.9373	3043.0651	3065.4226	3072.207	3082.1583	3088.959	3097.8579	3112.9728	3170.1249	3178.472	3197.358
C1C2C1C1CCCC21	C1[C@H]2[C@@H]1[C@H]1CCC[C@@H]21	
InChI=1S/C8H12/c1-2-5-6(3-1)8-4-7(5)8/h5-8H,1-4H2	InChI=1S/C8H12/c1-2-5-6(3-1)8-4-7(5)8/h5-8H,1-4H2/t5-,6+,7-,8+
