16
gdb 29814	2.49991	1.41278	0.90885	6.129	80.2	-0.2025	-0.0512	0.1513	1226.6097	0.124801	-434.11036	-434.101506	-434.100562	-434.14516	31.378	
C	-0.0187316695	 1.4480536113	 0.0390851522	-0.347752
N	-0.0206738368	-0.0073565467	 0.0173395759	-0.019822
C	-0.0501020635	-0.7717452571	-1.1183586502	-0.187462
C	-0.0300329078	-2.0931587931	-0.685981329	 0.291524
N	-0.1117005587	-3.2535811408	-1.4492069317	-0.598516
N	 0.0089741433	-2.1426417433	 0.6636861877	-0.326724
C	 0.0108867561	-0.8758651599	 1.0809408274	 0.230795
C	 0.0505399435	-0.4239643751	 2.4667749277	 0.07426
O	 0.0804605479	-1.149254222	 3.4352770136	-0.266927
H	 0.9021321137	 1.834887887	 0.4833902308	 0.156106
H	-0.0879623664	 1.8100743323	-0.9873491502	 0.148879
H	-0.8737396997	 1.8324813078	 0.6004096881	 0.158222
H	-0.0897937623	-0.3288792928	-2.0999439295	 0.12961
H	 0.3955776765	-3.2163984789	-2.3222278618	 0.245205
H	 0.1568654706	-4.0643502885	-0.9069985609	 0.257165
H	 0.0528110431	 0.6835182499	 2.5832071498	 0.055438
20.0511	135.1347	180.8736	185.0352	211.5415	254.9315	288.6183	375.8754	420.8346	545.6244	619.8105	646.9721	681.8935	691.4644	704.0759	766.0171	893.8633	1008.5137	1037.1324	1075.1501	1109.1029	1145.19	1194.1935	1227.3856	1363.9532	1400.4447	1431.3273	1465.141	1485.8037	1495.4259	1508.5393	1525.8412	1596.883	1647.0107	1787.6672	2867.1823	3053.1498	3120.1684	3146.9638	3266.0904	3551.0864	3649.4201
CN1C=C(N)N=C1C=O	Cn1cc(N)nc1C=O	
InChI=1S/C5H7N3O/c1-8-2-4(6)7-5(8)3-9/h2-3H,6H2,1H3	InChI=1S/C5H7N3O/c1-8-2-4(6)7-5(8)3-9/h2-3H,6H2,1H3
