18
gdb 108030	3.96589	1.39723	1.27854	2.1278	73.15	-0.2267	0.0688	0.2955	1017.3789	0.149349	-401.883751	-401.876638	-401.875693	-401.915297	28.775	
O	 0.2510939787	 1.0990199234	 0.6236371093	-0.415303
C	-0.0497722449	-0.0088817164	-0.2140678104	-0.168076
C	-1.4682519481	-0.4857723897	-0.0390001043	 0.287259
C	-1.9879221535	-0.9793153396	 1.2962531622	-0.287422
C	-3.3601786426	-1.4318932464	 0.8495245487	-0.081921
C	-3.8756005745	-0.5541678916	-0.2863077137	-0.112541
C	-3.2770707401	-1.9025091365	-0.5784867673	-0.019318
N	-2.0200499261	-1.2974540124	-1.1718928743	-0.199627
C	-2.5894958221	 0.0559721006	-0.8621090268	-0.102558
H	-0.3471330345	 1.8140503863	 0.3825574934	 0.282538
H	 0.1321448945	 0.2132200938	-1.2753800841	 0.100533
H	 0.6481293381	-0.8005103496	 0.0777385924	 0.116498
H	-1.3825051424	-1.8037489683	 1.6893102042	 0.108157
H	-2.009137121	-0.1780649434	 2.0408135649	 0.113727
H	-4.0745190828	-1.8911706558	 1.5210830268	 0.093269
H	-4.8871190364	-0.1879138623	-0.3846995632	 0.095096
H	-3.6850986874	-2.8158725487	-0.9890452513	 0.099482
H	-2.5170609149	 0.8734305567	-1.5718687463	 0.090206
89.2387	158.8199	272.9512	328.2112	376.6468	435.1948	544.0291	650.7062	709.0971	727.5758	766.3938	787.2824	811.3759	844.253	894.3251	921.6694	936.8402	963.1239	970.637	1007.9207	1023.3187	1033.1031	1042.4194	1063.9551	1071.5071	1093.3368	1163.3216	1179.6361	1200.1323	1236.6436	1254.6672	1286.1092	1331.5714	1354.5202	1381.2647	1402.2622	1420.9552	1490.4748	1505.0868	3004.4122	3047.9461	3076.7929	3095.9254	3162.6484	3199.0959	3205.5606	3222.8891	3810.7749
OCC12CC3C4C3N1C24	OC[C@]12C[C@H]3[C@@H]4[C@H]3N1[C@H]24	
InChI=1S/C7H9NO/c9-2-7-1-3-4-5(3)8(7)6(4)7/h3-6,9H,1-2H2	InChI=1S/C7H9NO/c9-2-7-1-3-4-5(3)8(7)6(4)7/h3-6,9H,1-2H2/t3-,4+,5-,6-,7-,8?/m0/s1
