15
gdb 124305	4.77384	0.96227	0.93297	3.9074	67.17	-0.2655	-0.0298	0.2357	1273.7604	0.111416	-453.968063	-453.959617	-453.958673	-454.003109	28.806	
C	 0.0142839884	 1.5030905754	-0.0500242853	-0.478051
C	 0.0348170591	-0.0055421992	 0.0844429783	 0.387499
O	 0.0781664848	-0.572298091	 1.1462128639	-0.264493
C	-0.0042024326	-0.7829725258	-1.2464901063	-0.448404
C	-0.0478118449	-2.2550427825	-1.050861218	 0.462479
N	-1.0831596688	-3.040290525	-1.0871320517	-0.312406
C	-0.5142600891	-4.2602273298	-0.8164363499	 0.041605
N	 0.7765731897	-4.2465345075	-0.6315672547	-0.109784
O	 1.0981364848	-2.8932934061	-0.7888850335	-0.191821
H	 0.8513685645	 1.8447165767	-0.6690175526	 0.144712
H	-0.9054431685	 1.825868631	-0.5509495476	 0.147559
H	 0.0740136201	 1.9609409667	 0.9375276373	 0.153573
H	-0.8863439893	-0.4754776219	-1.8156553241	 0.16283
H	 0.8763056015	-0.5025092732	-1.835870547	 0.156489
H	-1.0775417496	-5.1802118577	-0.7604017488	 0.148212
34.9603	51.2508	101.118	113.7165	289.2687	315.197	335.0219	467.9604	562.4273	656.7052	695.5697	789.068	827.2681	837.3326	920.6291	931.0316	976.851	981.709	1021.6874	1048.8218	1172.9944	1175.9468	1202.1477	1265.2622	1321.1384	1352.2654	1385.8137	1436.7025	1463.2897	1475.6346	1517.6843	1627.7818	1830.1951	3037.7626	3055.2917	3097.8824	3108.9699	3158.2625	3263.564
CC(=O)CC1=NC=NO1	CC(=O)Cc1ncno1	
InChI=1S/C5H6N2O2/c1-4(8)2-5-6-3-7-9-5/h3H,2H2,1H3	InChI=1S/C5H6N2O2/c1-4(8)2-5-6-3-7-9-5/h3H,2H2,1H3
