18
gdb 23546	2.02378	1.53385	0.96828	1.646	75.96	-0.2501	-0.0053	0.2448	1234.0089	0.145701	-438.997902	-438.989006	-438.988061	-439.031699	32.941	
C	-0.1661705731	 1.5103991257	 0.0441612358	-0.383781
C	 0.1453601624	 0.0109426001	 0.074184425	-0.191024
C	 0.6997035804	-0.5064044333	-1.2511168177	-0.114011
C	 0.8713222808	-2.0389196966	-1.4157848646	 0.010103
O	-0.4210881757	-2.6277789709	-1.3084289141	-0.235208
C	-0.0308165614	-2.0818357674	-2.5895034658	-0.083536
C	-0.2244507058	-0.595306282	-2.4787462732	 0.425902
N	-0.7839753111	 0.3182290792	-3.1519770251	-0.254459
O	-1.4375586586	-0.2059772319	-4.2823284695	-0.392744
H	 0.7381353507	 2.1001479578	-0.1438697022	 0.110357
H	-0.8834294484	 1.7438035506	-0.7480276897	 0.141096
H	-0.5881469083	 1.8414699873	 0.9979183133	 0.111213
H	 0.8764283099	-0.2032477004	 0.8648051233	 0.095023
H	-0.757031239	-0.5596176789	 0.3162048638	 0.117057
H	 1.6214616606	 0.0219532824	-1.5260004358	 0.097253
H	 1.730631762	-2.6560700658	-1.1827620389	 0.113056
H	-0.0705040937	-2.7365535283	-3.4487603092	 0.12518
H	-1.8042651819	 0.5860655925	-4.6899460453	 0.308523
90.1751	109.4446	165.5911	169.2081	234.0192	256.648	303.3705	366.9107	416.4547	531.6409	551.1359	662.6454	730.1903	784.1284	812.3341	847.4397	876.9583	885.2667	952.4838	976.2045	986.1042	1035.1019	1061.0115	1089.6286	1129.8068	1166.5479	1206.9018	1221.6076	1258.2117	1277.3334	1328.7871	1352.9862	1381.8231	1407.7619	1414.2204	1489.4517	1499.324	1508.3844	1787.6913	3023.6039	3033.9034	3036.7374	3077.754	3102.4115	3117.933	3194.5672	3225.9032	3817.5051
CCC1C2OC2C1=NO	CC[C@H]1[C@H]2O[C@H]2C1=NO	
InChI=1S/C6H9NO2/c1-2-3-4(7-8)6-5(3)9-6/h3,5-6,8H,2H2,1H3	InChI=1S/C6H9NO2/c1-2-3-4(7-8)6-5(3)9-6/h3,5-6,8H,2H2,1H3/t3-,5-,6+/m1/s1
