18
gdb 18349	3.29518	2.29101	1.62013	1.5263	72.44	-0.2415	0.0177	0.2592	840.8446	0.155554	-347.798781	-347.791842	-347.790898	-347.829754	27.096	
C	 0.1277749118	 1.592661231	 0.0149260771	-0.390701
C	 0.0410549074	 0.0607085475	-0.0120592079	-0.046704
C	 0.7325664351	-0.5857278741	-1.1970356576	-0.060935
C	 1.5529531253	-1.5793025598	-0.8551622084	-0.093744
C	 1.6099859918	-1.7852830827	 0.6337272397	-0.121139
C	 2.7666025033	-1.0583157108	 1.3594555518	-0.073032
O	 1.9173902461	 0.0697273856	 1.6561112978	-0.289822
C	 0.7372723216	-0.6250427291	 1.1846834428	 0.114122
H	 1.1686591535	 1.9149609772	 0.0855254591	 0.136027
H	-0.3124254967	 2.0193911907	-0.8919227897	 0.107339
H	-0.4124599906	 2.002435247	 0.8743945036	 0.114555
H	-1.0229739102	-0.2211306188	-0.0125708224	 0.075527
H	 0.5520926395	-0.2525993872	-2.2144278512	 0.0919
H	 2.1380963245	-2.1739882447	-1.5486696841	 0.093184
H	 1.4072700986	-2.808987247	 0.9575322765	 0.079093
H	 3.1126892336	-1.5547743108	 2.2760636424	 0.094385
H	 3.6326237015	-0.7759064011	 0.7497198163	 0.101927
H	 0.0570600839	-0.8428611429	 2.0157856842	 0.068019
108.4045	212.5903	233.5236	252.6706	334.5931	460.6805	528.3873	660.4957	735.9483	776.7591	822.6661	849.3884	868.9212	895.3298	929.9661	975.6957	978.4482	1008.8572	1041.2736	1067.5103	1080.2751	1108.1655	1123.5361	1151.9664	1165.7591	1221.6344	1247.1523	1299.2833	1310.2585	1329.2337	1334.6994	1360.5793	1386.103	1408.9297	1494.2413	1503.7197	1520.0766	1677.4077	2983.1958	3004.9057	3038.4321	3041.3799	3059.1658	3080.5943	3102.3481	3134.2528	3172.5347	3198.4788
CC1C=CC2COC12	C[C@H]1C=C[C@H]2CO[C@@H]12	
InChI=1S/C7H10O/c1-5-2-3-6-4-8-7(5)6/h2-3,5-7H,4H2,1H3	InChI=1S/C7H10O/c1-5-2-3-6-4-8-7(5)6/h2-3,5-7H,4H2,1H3/t5-,6-,7-/m0/s1
