16
gdb 55498	4.37608	0.58545	0.5381	2.0483	75.83	-0.246	-0.0391	0.2069	1942.4884	0.121045	-437.902296	-437.89198	-437.891036	-437.941188	34.366	
N	 1.0015268862	-0.6919615545	-0.2351094565	-0.521522
C	 0.0450189325	 0.0782974061	 0.3385258572	 0.426018
O	 0.2358773017	 1.1983040148	 0.7640716061	-0.357352
C	-1.3617336326	-0.5547511561	 0.4299746846	-0.482555
C	-1.5151404903	-1.910609979	-0.0768939067	 0.058338
C	-1.6378373906	-3.0275927058	-0.5137206467	 0.071908
C	-1.7660667506	-4.3978028038	-0.9904508494	-0.413129
C	-1.0029186538	-5.3874393517	-0.1057561966	 0.168319
O	-0.3402440339	-6.2906384798	-0.5362017235	-0.22546
H	 1.9327758434	-0.3198383931	-0.3173594235	 0.264361
H	 0.7964792925	-1.6162978944	-0.5736320552	 0.266351
H	-1.6482514611	-0.5020709104	 1.4863715445	 0.166124
H	-2.0366411666	 0.1310987511	-0.0950188108	 0.16709
H	-2.8237204947	-4.7027168922	-0.9709573293	 0.159701
H	-1.4167806477	-4.5184521313	-2.0209505795	 0.155071
H	-1.1195155345	-5.20625285	 0.9846646154	 0.096736
13.309	30.4265	46.1905	102.2189	128.8104	251.8371	266.9338	293.2656	381.0643	424.0992	464.8731	513.2727	525.8847	569.2789	676.169	733.3645	833.982	853.5889	945.2336	1035.2473	1041.222	1098.5488	1160.312	1209.7311	1217.4626	1286.6028	1306.2599	1349.8761	1415.3085	1442.6567	1443.0503	1606.0355	1811.2111	1842.4374	2359.6955	2903.191	3003.6548	3046.4831	3079.7733	3081.7079	3600.8831	3737.3764
NC(=O)CC#CCC=O	NC(=O)CC#CCC=O	
InChI=1S/C6H7NO2/c7-6(9)4-2-1-3-5-8/h5H,3-4H2,(H2,7,9)	InChI=1S/C6H7NO2/c7-6(9)4-2-1-3-5-8/h5H,3-4H2,(H2,7,9)
