15
gdb 132539	3.17629	1.39609	0.97621	2.1199	73.52	-0.2211	-0.0352	0.186	1137.1772	0.11301	-458.161527	-458.153555	-458.15261	-458.194042	30.046	
C	 0.0014118415	 1.4926895662	 0.0312747975	-0.470703
C	-0.0041054595	-0.0100700448	-0.0094310609	 0.310167
C	-0.1361800418	-0.7167616932	-1.1959285795	-0.103009
N	-0.1492619574	-2.0649831819	-1.2162722131	-0.287348
C	-0.0208767345	-2.6608675275	-0.0761485187	 0.27741
F	-0.0375332636	-4.000494955	-0.0428060084	-0.082767
C	 0.1246708286	-1.9794410314	 1.1552829001	 0.253014
N	 0.3090876662	-2.672470983	 2.3239210888	-0.569343
N	 0.1211410925	-0.6542113661	 1.1678709735	-0.368558
H	 0.9389261425	 1.8619735403	 0.4594416767	 0.140277
H	-0.1169045351	 1.9191355143	-0.9676540876	 0.124271
H	-0.8091219522	 1.8629210536	 0.667305163	 0.138657
H	-0.2399112882	-0.2121294774	-2.1504575304	 0.110451
H	 0.008703259	-3.6332667099	 2.337540536	 0.265383
H	 0.1560522019	-2.1433649344	 3.168291593	 0.262099
93.7108	131.7428	224.11	282.2462	311.9652	386.9907	424.9446	447.5562	496.5179	508.8043	533.5407	601.2512	643.2626	719.7341	795.0195	800.4253	887.4517	999.2726	1008.854	1059.8415	1116.7229	1232.4433	1258.036	1309.8904	1349.0407	1411.1056	1467.2461	1475.214	1493.579	1508.6205	1596.3475	1617.8519	1655.4231	3040.6411	3099.5147	3126.5953	3185.1101	3590.9001	3714.0641
CC1=CN=C(F)C(N)=N1	Cc1cnc(F)c(N)n1	
InChI=1S/C5H6FN3/c1-3-2-8-4(6)5(7)9-3/h2H,1H3,(H2,7,9)	InChI=1S/C5H6FN3/c1-3-2-8-4(6)5(7)9-3/h2H,1H3,(H2,7,9)
