16
gdb 130120	3.23369	1.39494	0.97618	1.8735	80.24	-0.1797	-0.0165	0.1632	1148.2816	0.127522	-430.273739	-430.265638	-430.264694	-430.305822	32.18	
N	 0.0723071095	 1.3518751112	-0.0436595274	-0.58506
C	-0.0316617077	 0.0010776096	-0.0283516166	 0.385232
C	-1.1821820923	-0.7306888263	-0.0757011465	-0.301102
C	-1.1141647667	-2.1577283578	 0.0034966484	 0.39576
N	-2.2964337317	-2.895730643	-0.0998027906	-0.569482
N	-0.0022055801	-2.8274670741	 0.1162405725	-0.320971
N	 1.1380139888	-2.0656879433	 0.1144522014	-0.325836
C	 1.2607788886	-0.7030535145	 0.0591976235	 0.356437
N	 2.349170802	-0.0055479118	 0.0614659458	-0.596679
H	 1.0151231642	 1.6980353824	-0.1647221099	 0.27779
H	-0.7027707259	 1.9179411707	-0.3405825152	 0.254231
H	-2.1483895389	-0.2481647097	-0.1798611085	 0.082161
H	-3.0736572088	-2.4955132579	 0.4081485287	 0.244949
H	-2.152904449	-3.8653224049	 0.1519579916	 0.249852
H	 1.9786620637	-2.6179007111	 0.1758479898	 0.255872
H	 3.1840239543	-0.5878597196	 0.1120297928	 0.196845
116.1224	191.8657	296.527	306.8791	336.6477	351.6485	371.0034	436.5446	472.2492	529.4108	550.0648	567.2638	590.0243	650.4149	736.262	749.7831	753.376	782.9293	818.8651	851.6491	980.4006	1070.1843	1109.7434	1143.3083	1238.4475	1272.6499	1339.8103	1429.5825	1470.2884	1491.0787	1583.8022	1623.3699	1645.4965	1661.7849	1707.4426	3177.1635	3483.0912	3542.9204	3552.5175	3634.53	3643.8819	3714.567
NC1=CC(N)=NNC1=N	NC1=C(NN=C(C1)N)[NH]	
InChI=1S/C4H7N5/c5-2-1-3(6)8-9-4(2)7/h1H,(H2,7,9)(H4,5,6,8)	InChI=1S/C4H8N5/c5-2-1-3(6)8-9-4(2)7/h7,9H,1,5H2,(H2,6,8)
