21
gdb 115611	2.87811	1.0564	0.95852	2.7883	78.8	-0.2431	0.0599	0.303	1343.4813	0.181535	-424.189013	-424.179549	-424.178605	-424.223579	35.096	
C	-0.0635109236	 1.5189961865	-0.0084172726	-0.408131
C	 0.116145448	 0.0189812683	-0.0888599582	-0.059421
C	 1.4998619037	-0.5891145684	-0.1680370993	-0.357307
C	 0.676920996	-0.7497772618	 1.0737698023	 0.278043
C	 0.9905870357	-0.267444123	 2.4866413278	-0.140676
O	 0.5164379996	-1.517880031	 3.0415602428	-0.312211
C	 0.1636100812	-2.0318079056	 1.7253250403	 0.038837
C	-1.3282195544	-2.3244752532	 1.6823795785	-0.065461
O	-1.6746411245	-3.2404426151	 2.7021993798	-0.422114
H	 0.7382565468	 1.9837464833	 0.5754723189	 0.116456
H	-0.0489245639	 1.9713254713	-1.0057269618	 0.122747
H	-1.0152136812	 1.7846383774	 0.4649769822	 0.121734
H	-0.6513163877	-0.4952952684	-0.6633464409	 0.090117
H	 1.652273089	-1.4584787719	-0.800267198	 0.115146
H	 2.3514135477	 0.0842179076	-0.1222627752	 0.111883
H	 2.0506663508	-0.100862702	 2.715810811	 0.105019
H	 0.4073591498	 0.5891912591	 2.8490463996	 0.103818
H	 0.7345637333	-2.9437571923	 1.5048275519	 0.082548
H	-1.8866885412	-1.3791958121	 1.77779048	 0.08227
H	-1.6046396047	-2.7842282428	 0.7265972442	 0.103547
H	-1.2993440505	-2.877536036	 3.5145473366	 0.293157
76.7728	94.2177	116.1573	188.3931	197.4156	217.3061	280.6656	378.7203	420.5931	469.0559	479.5233	518.2193	579.0713	788.7159	823.157	867.0345	893.0958	907.3517	927.7877	1004.9524	1017.6464	1035.5064	1054.5015	1068.9143	1094.9157	1110.9231	1127.3773	1130.2007	1155.4938	1185.3644	1213.5617	1227.782	1274.1625	1307.931	1335.4658	1366.6993	1393.3423	1414.3427	1431.3679	1443.6713	1490.9031	1492.8716	1499.1122	1509.1742	1524.5284	2973.294	3004.4075	3018.8524	3027.6819	3046.8764	3065.9147	3091.2776	3094.3595	3116.3843	3131.7463	3201.4126	3778.6131
CC1CC11COC1CO	C[C@H]1C[C@]21CO[C@H]2CO	
InChI=1S/C7H12O2/c1-5-2-7(5)4-9-6(7)3-8/h5-6,8H,2-4H2,1H3	InChI=1S/C7H12O2/c1-5-2-7(5)4-9-6(7)3-8/h5-6,8H,2-4H2,1H3/t5-,6-,7+/m0/s1
