14
gdb 20328	6.27661	1.37115	1.15967	2.0681	68.78	-0.2416	0.019	0.2606	979.7917	0.108232	-341.563058	-341.555971	-341.555026	-341.595203	25.789	
C	-0.3414488948	-0.8792755581	-0.884754172	-0.430285
C	-0.0709146169	 0.0837796905	-0.2206973849	 0.28647
C	 0.2236911792	 1.2633192886	 0.5826779151	-0.276566
N	 1.5117474637	 1.8648215093	 0.2620909193	 0.045689
C	 2.1407900491	 1.9364013568	-0.9374311454	-0.017619
C	 3.2684057723	 2.7073070665	-0.7451961371	-0.236633
C	 3.2231504577	 3.0623000916	 0.6181305338	-0.001866
N	 2.1543111886	 2.5541037047	 1.2269841597	-0.262282
H	-0.5754562734	-1.7389370125	-1.4632585578	 0.209537
H	-0.5745446328	 2.0068058243	 0.455261044	 0.155188
H	 0.2588846838	 1.0117477366	 1.6466302404	 0.168136
H	 1.7485023249	 1.4304468638	-1.8042842746	 0.141935
H	 4.0157504851	 2.9614936849	-1.478971154	 0.105332
H	 3.9246150035	 3.6583382531	 1.1834518834	 0.112963
37.6007	121.6236	209.4066	324.8698	333.071	474.7848	621.3917	626.4377	666.8503	684.5163	760.2672	770.9446	839.2122	891.7144	930.8664	969.9974	988.6154	994.4439	1072.4865	1106.3705	1202.9919	1238.8096	1298.0641	1352.7281	1376.6755	1431.8481	1470.8358	1501.5583	1556.3012	2248.7341	3018.9746	3089.2	3244.0167	3265.704	3283.3152	3502.9554
C#CCN1C=CC=N1	C#CCn1cccn1	
InChI=1S/C6H6N2/c1-2-5-8-6-3-4-7-8/h1,3-4,6H,5H2	InChI=1S/C6H6N2/c1-2-5-8-6-3-4-7-8/h1,3-4,6H,5H2
