18
gdb 77037	2.84972	1.10541	1.02703	1.502	80.07	-0.2353	-0.0422	0.193	1240.5126	0.144516	-401.886195	-401.876576	-401.875632	-401.920857	34.72	
C	-1.8789363595	 0.6414618049	-0.679830886	-0.338522
N	-0.8213427009	-0.3528013349	-0.5042380963	-0.088164
C	 0.3690227219	-0.337994882	-1.3033693266	 0.00424
C	 0.6646426161	 0.7032756714	-2.378273307	-0.401257
C	-0.0567088797	 0.4165488905	-3.6144345398	 0.303771
C	-0.6566306267	 0.1612591069	-4.6240521333	-0.442084
C	 0.4420481238	-0.0182639659	 0.1831253903	-0.136825
C	 0.787652743	 1.3447420288	 0.6587634152	 0.151604
O	 0.4481185284	 2.3955570082	 0.1575356396	-0.276169
H	-1.5324140995	 1.6753353064	-0.7663389175	 0.149066
H	-2.4389827509	 0.3711943466	-1.5789851319	 0.140539
H	-2.5518437321	 0.5734887598	 0.1798521373	 0.125931
H	 0.7198400496	-1.3347269495	-1.5707717993	 0.112849
H	 0.4268181829	 1.7069479144	-2.0173155559	 0.172025
H	 1.7444653094	 0.6931535383	-2.5751556184	 0.136266
H	-1.1844291685	-0.0517510759	-5.5204273049	 0.198299
H	 0.7958068398	-0.8025470018	 0.8500145934	 0.101056
H	 1.4155115029	 1.3395794437	 1.5772312812	 0.087375
55.0341	104.1212	160.5967	175.8826	196.0544	215.2509	262.2836	343.6579	367.6584	394.3538	461.9539	549.1382	620.6663	645.1966	706.6207	757.2641	822.3989	853.2533	955.597	973.538	992.5872	1024.486	1081.3177	1116.9254	1148.6258	1163.3799	1174.1008	1233.0375	1318.0236	1348.4543	1382.1517	1420.2199	1432.1615	1451.4764	1472.6773	1483.5346	1519.8956	1786.3723	2239.278	2886.2198	3030.3909	3039.6967	3095.7414	3108.091	3112.0437	3122.6616	3124.928	3506.3344
CN1C(CC#C)C1C=O	CN1[C@@H](CC#C)[C@H]1C=O	
InChI=1S/C7H9NO/c1-3-4-6-7(5-9)8(6)2/h1,5-7H,4H2,2H3	InChI=1S/C7H9NO/c1-3-4-6-7(5-9)8(6)2/h1,5-7H,4H2,2H3/t6-,7+,8?/m0/s1
