21
gdb 35773	3.54261	1.12746	0.9522	0.8107	87.84	-0.2519	0.0603	0.3122	1282.2575	0.184259	-349.927632	-349.919303	-349.918359	-349.960349	33.427	
C	 0.0640427221	-1.2358687824	 0.0177208348	-0.438663
C	 0.0125393976	-0.0343279389	 0.0129330139	 0.295328
C	-0.0311009602	 1.4238803613	 0.03141562	-0.15715
C	-0.7928062699	 1.9638135996	 1.2620133733	-0.206315
C	-1.0184563945	 3.4768474381	 1.1319986389	-0.235191
C	 0.2422894203	 4.2513239804	 0.7888756518	 0.001992
C	 1.5085589393	 4.0928496523	 1.5873447538	-0.286702
C	 1.4339001453	 3.5338542121	 0.183729768	-0.042056
C	 1.3979717864	 2.0214846988	-0.0320501791	-0.219482
H	 0.1019004733	-2.2968476818	 0.0117275842	 0.188864
H	-0.5778130836	 1.7609590697	-0.8616161616	 0.099642
H	-1.7552283138	 1.4524124664	 1.3561790251	 0.10688
H	-0.223733561	 1.7233882977	 2.1682997819	 0.106047
H	-1.7570698771	 3.6462495947	 0.3368461036	 0.097404
H	-1.4647096177	 3.8688246133	 2.0544236722	 0.096385
H	 0.0530735153	 5.2527116047	 0.4120390712	 0.079656
H	 2.1180814472	 4.9720789068	 1.7660001798	 0.105877
H	 1.5157038744	 3.3782232855	 2.4052461873	 0.108329
H	 1.9863112611	 4.0842866799	-0.5712231125	 0.081358
H	 2.014951243	 1.5129842464	 0.717756446	 0.109954
H	 1.8362444126	 1.7750334354	-1.0036126824	 0.107843
83.3861	144.2603	175.2078	269.6094	330.0072	347.5834	405.0142	482.8305	510.2199	525.7299	618.4181	625.385	630.716	752.075	780.6424	816.5041	850.7924	894.2683	907.949	948.0336	973.2456	1012.6554	1042.0765	1059.1009	1075.2876	1098.252	1128.043	1131.529	1146.7437	1196.6848	1234.025	1246.1172	1276.3483	1308.655	1321.7131	1350.1383	1367.6307	1380.0292	1389.1094	1417.1165	1485.5821	1490.4277	1491.7402	1507.0409	2233.2667	2993.677	3011.5744	3034.3441	3038.8175	3050.978	3081.6767	3086.6606	3121.7684	3136.7745	3151.3685	3205.9471	3505.75
C#CC1CCC2CC2C1	C#C[C@H]1CC[C@H]2C[C@H]2C1	
InChI=1S/C9H12/c1-2-7-3-4-8-6-9(8)5-7/h1,7-9H,3-6H2	InChI=1S/C9H12/c1-2-7-3-4-8-6-9(8)5-7/h1,7-9H,3-6H2/t7-,8-,9+/m0/s1
