12
gdb 130884	3.88604	1.2321	0.93549	2.124	65.48	-0.268	-0.1233	0.1447	1120.6064	0.078678	-468.837321	-468.830226	-468.829281	-468.869489	25.34	
O	-0.8947523901	 1.1903735669	 0.1457575952	-0.228728
C	 0.2267964166	 0.8340560166	-0.1090728165	 0.115816
C	 1.4141032696	 1.7558325145	-0.0257379905	 0.218665
N	 2.567952178	 1.238410552	-0.3289423027	-0.353436
C	 3.6950471143	 2.0640880957	-0.2632694955	 0.457523
O	 4.8229891345	 1.7204979143	-0.5155450316	-0.354168
N	 3.423295841	 3.3909517018	 0.1358044319	-0.245054
N	 2.2482739316	 3.9256027175	 0.4466619419	-0.142693
C	 1.2273406946	 3.1191252044	 0.371194871	-0.042107
H	 0.4881900596	-0.1944487153	-0.4254968558	 0.119905
H	 4.2177575255	 4.0157648756	 0.1937796078	 0.291756
H	 0.2496139849	 3.5110902861	 0.6154686649	 0.162521
95.3138	123.3053	197.6169	239.2173	405.1934	423.1919	508.7029	585.0977	627.7196	654.7037	749.1285	779.3073	803.5454	913.2568	927.289	1027.9258	1040.7184	1111.6961	1182.2297	1273.044	1378.5958	1404.4865	1433.3122	1575.9333	1641.5819	1818.1592	1829.7524	2960.4362	3237.789	3587.358
O=CC1=NC(=O)NN=C1	O=Cc1nc(=O)[nH]nc1	
InChI=1S/C4H3N3O2/c8-2-3-1-5-7-4(9)6-3/h1-2H,(H,6,7,9)	InChI=1S/C4H3N3O2/c8-2-3-1-5-7-4(9)6-3/h1-2H,(H,6,7,9)
