17
gdb 123424	4.94803	0.9839	0.90132	3.1496	73.73	-0.2863	-0.0209	0.2654	1293.3908	0.138277	-414.161067	-414.153339	-414.152395	-414.1949	27.897	
C	-0.0623985151	 1.5440081673	-0.2648978946	-0.18236
C	-0.1242444711	 0.0352150327	-0.2292327951	 0.01632
C	-0.1409475944	-0.6859970151	 1.0934830803	-0.247907
C	-1.3884484596	-0.6340216645	 0.2504743832	-0.27174
N	 1.2918295397	 2.0547226111	-0.0639421175	 0.156728
N	 1.8550203237	 2.1835068268	 1.131681083	-0.244704
C	 3.0671519963	 2.6124721098	 0.8008163147	 0.078003
N	 3.2332716077	 2.7361461992	-0.5341449105	-0.209776
N	 2.0927642127	 2.3748677994	-1.0716904744	-0.128699
H	-0.3888471527	 1.9357164322	-1.2307890117	 0.150253
H	-0.6837358187	 1.9790471719	 0.5215826984	 0.137573
H	 0.4068536075	-0.445730771	-1.0449962808	 0.106686
H	 0.3956333291	-1.6249254282	 1.1651371692	 0.121882
H	-0.1049137356	-0.0838573635	 1.9945420091	 0.132363
H	-2.2032332579	-0.0005472088	 0.5860287437	 0.117153
H	-1.7113427961	-1.5337244831	-0.260418201	 0.122635
H	 3.8310653046	 2.843050064	 1.5253979039	 0.145589
36.8676	72.0593	109.0742	270.7357	304.7176	368.1998	421.9528	702.8029	727.2118	760.0595	776.8888	812.9687	849.2833	901.2811	906.8338	957.1077	1001.6578	1029.4936	1048.1844	1062.4259	1082.4538	1118.2144	1139.9373	1162.9434	1196.2379	1216.0041	1230.914	1255.3334	1319.8527	1349.133	1369.0514	1392.0377	1422.0778	1466.853	1474.4847	1494.229	1509.2449	3075.8636	3129.7047	3135.1681	3143.7165	3159.5776	3215.5049	3231.7711	3286.6592
C(C1CC1)N1N=CN=N1	C(C1CC1)n1ncnn1	
InChI=1S/C5H8N4/c1-2-5(1)3-9-7-4-6-8-9/h4-5H,1-3H2	InChI=1S/C5H8N4/c1-2-5(1)3-9-7-4-6-8-9/h4-5H,1-3H2
