21
gdb 115458	3.82936	0.82893	0.77403	2.4437	79.49	-0.2462	-0.0167	0.2295	1509.1051	0.182387	-424.246027	-424.236389	-424.235445	-424.283576	34.476	
O	 0.2450611379	 1.0766926879	-0.6265392083	-0.420784
C	-0.0012439461	-0.3085387183	-0.4347342621	-0.078119
C	-1.3359028032	-0.4507122801	 0.2983520783	 0.01874
C	-2.525729637	 0.0605014109	-0.5410106295	-0.215353
C	-3.051295131	-1.1651151784	-1.3390813661	-0.238101
C	-2.3323847293	-2.4212996623	-0.7585860217	-0.045159
C	-1.6935812611	-1.9249173445	 0.5625114527	-0.259304
C	-3.2933792177	-3.5594080128	-0.520327453	 0.14967
O	-3.1994293891	-4.669024652	-0.9765607406	-0.252867
H	 1.0497236236	 1.172398917	-1.1439093889	 0.288129
H	-0.0339470038	-0.8396818506	-1.3997846612	 0.086067
H	 0.7960331178	-0.7735715972	 0.1670811335	 0.087271
H	-1.2450131394	 0.1093225272	 1.2348825558	 0.079472
H	-3.3090892627	 0.4392331347	 0.122546802	 0.098184
H	-2.2260913898	 0.8889546532	-1.1862615674	 0.119156
H	-4.1383054039	-1.2560833836	-1.2339834551	 0.104331
H	-2.8538198255	-1.0817241765	-2.4103816283	 0.114309
H	-1.5620878876	-2.7840364216	-1.4436489423	 0.090706
H	-0.8401034262	-2.5384644821	 0.8668451463	 0.107514
H	-2.4335276252	-1.9767440922	 1.3715759827	 0.101427
H	-4.1465143107	-3.2838669984	 0.1488548833	 0.064708
4.7547	75.4351	88.512	132.0444	236.5214	260.0436	298.154	323.5528	366.6442	406.7537	496.5012	655.9659	698.6699	781.6489	831.3903	864.9163	900.4766	920.5112	969.5469	984.216	1016.7756	1039.3185	1071.9871	1088.4516	1097.2722	1118.0287	1187.8046	1195.3741	1218.4173	1256.3438	1270.7753	1285.7484	1304.6291	1312.125	1321.092	1339.1358	1361.686	1380.7413	1425.2869	1458.5305	1488.0031	1489.7655	1511.3899	1520.8532	1834.9207	2823.0715	2964.1759	2991.5112	3025.2052	3039.8676	3052.2295	3066.4861	3072.3638	3086.8165	3096.0768	3116.6606	3833.4066
OCC1CCC(C1)C=O	OC[C@H]1CC[C@@H](C1)C=O	
InChI=1S/C7H12O2/c8-4-6-1-2-7(3-6)5-9/h4,6-7,9H,1-3,5H2	InChI=1S/C7H12O2/c8-4-6-1-2-7(3-6)5-9/h4,6-7,9H,1-3,5H2/t6-,7-/m0/s1
