23
gdb 110102	1.72532	1.37157	0.96513	1.8889	83.1	-0.2227	0.0724	0.2951	1389.0466	0.202305	-425.403232	-425.392137	-425.391193	-425.439233	40.351	
C	-0.1666590925	 1.5389274429	 0.0773463457	-0.37332
C	 0.1635488603	 0.0560092496	-0.1329301659	-0.200589
C	 0.8285863384	-0.5538328697	 1.0853773626	-0.084613
C	 0.0173466929	-1.1118425232	 2.23129019	 0.024335
O	-1.3692351267	-1.0821253172	 2.0868010463	-0.229948
C	-2.036784599	-1.9788972031	 2.9515750223	-0.232193
C	 0.8659520234	-2.0367910649	 1.3711774205	 0.30878
C	 0.2272889527	-3.0457110245	 0.4456077852	-0.452846
O	 2.0960866529	-2.4448463266	 1.9225717484	-0.459055
H	 0.7351377646	 2.1182235553	 0.3046014054	 0.110145
H	-0.6253473973	 1.9723607824	-0.8170121567	 0.106171
H	-0.8641879902	 1.6621120757	 0.9113288986	 0.128952
H	-0.7574696632	-0.4840265452	-0.3674205944	 0.108141
H	 0.8271797788	-0.057809019	-0.9994715818	 0.095449
H	 1.7349684375	-0.0431734395	 1.4023499684	 0.094805
H	 0.3733106916	-0.9263269121	 3.2467495036	 0.080864
H	-3.1087012144	-1.8596826149	 2.7764263261	 0.12748
H	-1.7554271557	-3.0234268547	 2.75578789	 0.105395
H	-1.8216946635	-1.7541393744	 4.0072839658	 0.107799
H	-0.7690471763	-2.727772932	 0.1330854228	 0.134304
H	 0.844083413	-3.2019253622	-0.445300384	 0.124408
H	 0.1237379691	-4.0139446439	 0.9517870551	 0.100582
H	 1.9287485934	-3.214855829	 2.4783208361	 0.274954
61.4119	110.4889	133.4584	155.1472	182.1741	194.6878	219.5942	242.3211	283.8564	303.7748	320.7406	389.1964	402.8492	495.4503	523.2905	588.7887	730.106	777.9428	835.5622	876.4774	961.2776	974.9348	1007.4878	1027.0635	1055.632	1076.8954	1118.2204	1124.9193	1165.839	1178.4665	1184.1673	1221.795	1251.9198	1287.2348	1298.2884	1327.4017	1344.2908	1382.8785	1406.8196	1414.7723	1450.6694	1479.2358	1486.2535	1487.7779	1493.7551	1498.3752	1504.9099	1508.3248	1509.7623	2983.4242	3023.0999	3028.3947	3032.5881	3035.0223	3079.9141	3084.3805	3086.4492	3104.131	3113.2005	3116.5904	3135.0853	3139.3586	3783.2314
CCC1C(OC)C1(C)O	CC[C@H]1[C@@H](OC)[C@]1(C)O	
InChI=1S/C7H14O2/c1-4-5-6(9-3)7(5,2)8/h5-6,8H,4H2,1-3H3	InChI=1S/C7H14O2/c1-4-5-6(9-3)7(5,2)8/h5-6,8H,4H2,1-3H3/t5-,6+,7+/m0/s1
