20
gdb 115425	3.97004	0.91093	0.83524	5.0639	80.16	-0.2648	0.0415	0.3063	1422.2982	0.171733	-403.173017	-403.163794	-403.16285	-403.208206	33.241	
C	-0.7165072485	 0.6914362501	-0.184757822	-0.239278
O	 0.1075159623	-0.414905208	 0.1013851072	-0.249976
C	 0.9708152914	-0.2349638598	 1.2159871125	 0.11294
C	 0.2377487845	-0.4396128115	 2.5636280119	-0.237195
C	 0.3428665149	-1.9555096264	 2.888504748	-0.217691
C	 1.1574091483	-2.5717234992	 1.7116023956	-0.126367
C	 1.9821913311	-1.381372138	 1.1691184112	-0.231029
C	 1.9607334935	-3.7249509394	 2.0990819946	 0.256725
N	 2.6026903674	-4.6330252709	 2.4155465375	-0.329967
H	-0.1214993493	 1.597009393	-0.3804350092	 0.108146
H	-1.2880555432	 0.4434087134	-1.0822523766	 0.132264
H	-1.4238201602	 0.9158635081	 0.6274274286	 0.107513
H	 1.4536150742	 0.7508005159	 1.1512043949	 0.066779
H	 0.7195995345	 0.1563152545	 3.3442977563	 0.109486
H	-0.7986058744	-0.1000635568	 2.4998514689	 0.11144
H	 0.8733964914	-2.1155900712	 3.83025027	 0.124402
H	-0.6316088869	-2.4381909253	 2.9833056074	 0.119921
H	 0.4671845305	-2.8881313861	 0.9233320311	 0.139026
H	 2.3688428881	-1.5493456489	 0.1626793977	 0.125435
H	 2.8215744404	-1.1696442435	 1.8390910244	 0.117426
31.6954	82.4735	116.2366	160.4812	207.773	243.1483	310.4708	374.8445	427.6223	534.781	543.0646	566.7966	754.0537	772.4339	826.9862	863.1838	904.8511	949.9247	982.639	1002.6289	1043.3924	1069.3153	1080.314	1134.6948	1181.1821	1185.8997	1200.79	1222.0258	1248.3565	1279.4682	1295.115	1321.5213	1326.9075	1336.0435	1371.6063	1387.6306	1473.3565	1479.9704	1480.9498	1491.6569	1506.1436	1511.5745	2355.8369	2977.7604	2999.1005	3025.5986	3058.3024	3062.8783	3069.5459	3076.6581	3101.1673	3116.715	3124.0758	3130.4326
COC1CCC(C1)C#N	CO[C@H]1CC[C@@H](C1)C#N	
InChI=1S/C7H11NO/c1-9-7-3-2-6(4-7)5-8/h6-7H,2-4H2,1H3	InChI=1S/C7H11NO/c1-9-7-3-2-6(4-7)5-8/h6-7H,2-4H2,1H3/t6-,7-/m0/s1
