16
gdb 33545	2.16937	1.68557	1.15317	2.9915	68.57	-0.2779	-0.0015	0.2764	1072.2156	0.123545	-437.845944	-437.837657	-437.836713	-437.879542	29.719	
N	 0.8837536423	-1.3355891843	-0.3058976596	-0.328843
C	 0.615656084	-0.2143662029	-0.2249917214	 0.256409
C	 0.2543232552	 1.2105502256	-0.128079647	 0.260809
C	-0.5546455403	 1.597702212	 1.1408410829	-0.34048
C	 0.7202282512	 2.3631935792	 1.5426027086	-0.072721
O	 1.3780304236	 2.0085043802	 0.2995041234	-0.306796
C	-0.2780585604	 1.6847432377	-1.4682333286	 0.020178
C	-1.6846978324	 1.5228490908	-1.8441496052	-0.176929
O	-1.162350399	 2.7957019267	-1.443851582	-0.229048
H	-1.4096863415	 2.2308359317	 0.9087229739	 0.146851
H	-0.8459714639	 0.7681630348	 1.782797236	 0.135217
H	 0.6193766988	 3.4475220328	 1.6447523599	 0.125546
H	 1.2563240547	 1.9597560582	 2.4078818516	 0.121978
H	 0.4841500422	 1.7176406655	-2.2463322525	 0.126885
H	-1.9504544689	 1.433792704	-2.8949291716	 0.135256
H	-2.3818326856	 1.065449138	-1.1437965985	 0.125687
75.4205	82.3377	143.5175	193.3093	221.2882	278.6823	410.5341	481.3876	539.0554	573.5041	619.4756	783.1112	857.3913	874.1952	891.0085	933.7052	971.5774	981.5516	1020.0997	1058.7411	1090.7792	1152.1877	1158.1853	1163.9415	1181.8105	1208.4766	1239.916	1272.6114	1295.6229	1349.0344	1420.4514	1476.6302	1525.9104	1529.3561	2352.2009	3043.8816	3094.7719	3094.9917	3106.2173	3123.6847	3172.9413	3186.3976
N#CC1(CCO1)C1CO1	N#C[C@]1(CCO1)[C@H]1CO1	
InChI=1S/C6H7NO2/c7-4-6(1-2-9-6)5-3-8-5/h5H,1-3H2	InChI=1S/C6H7NO2/c7-4-6(1-2-9-6)5-3-8-5/h5H,1-3H2/t5-,6-/m1/s1
