22
gdb 107328	2.50298	1.50525	1.15216	1.5822	86.48	-0.2249	0.0163	0.2412	1175.2514	0.19477	-367.20404	-367.195095	-367.194151	-367.237332	35.043	
C	 0.2574274792	 1.4497469723	-0.2897986604	-0.378892
C	-0.1459109859	 0.0257264378	 0.1188798139	-0.289116
C	 0.5924374875	-0.5188536668	 1.3216500427	 0.335005
N	 1.9870201965	-1.0008043021	 1.1698678295	-0.370414
C	 0.8903875689	-1.9692423037	 1.478820621	-0.146802
C	 0.7848327775	-2.2801519378	 2.9328902943	-0.061966
C	 0.4818393051	-1.1774829543	 3.6193896357	-0.07988
C	 0.3220889401	 0.0470723796	 2.7329162603	-0.076398
C	 1.2526465611	 1.1972281618	 3.1521358867	-0.399337
H	 1.334718827	 1.5197110421	-0.4724084842	 0.120657
H	-0.2602210207	 1.7505215794	-1.2059041278	 0.111855
H	 0.0045651753	 2.178404456	 0.4859726475	 0.124966
H	-1.224854839	-0.0030481038	 0.320346322	 0.101532
H	 0.0221091328	-0.6533537896	-0.7277435355	 0.089254
H	 2.1945243109	-1.0588126884	 0.1725922973	 0.219055
H	 0.6221399313	-2.6991918427	 0.7210864792	 0.082539
H	 0.9622016542	-3.2639490726	 3.3507195949	 0.095614
H	 0.3994624988	-1.1114738337	 4.6995024071	 0.091542
H	-0.7174022759	 0.4062099306	 2.7802493033	 0.071841
H	 2.2946281564	 0.896698873	 3.0191360637	 0.141828
H	 1.0729823865	 2.0970457849	 2.5565348693	 0.111034
H	 1.0964503824	 1.4592585281	 4.2038647995	 0.106081
75.7456	137.0962	205.6324	226.4573	238.9893	268.5204	316.6514	352.5329	432.7751	486.6186	566.7805	632.0319	699.8721	757.7625	778.5931	796.6798	866.5873	877.4629	901.3973	929.572	954.8889	967.4992	1012.4532	1027.9802	1060.6158	1076.7957	1101.7905	1108.8339	1126.4439	1132.1729	1171.447	1251.7489	1260.0187	1299.0529	1319.7184	1349.1256	1370.2783	1381.22	1403.6287	1410.4717	1433.6261	1477.8295	1491.7113	1498.7982	1507.8683	1510.2814	1670.3733	2985.1244	3010.4943	3037.7585	3040.4691	3044.1574	3102.1868	3106.1153	3112.8795	3131.2159	3155.1565	3179.4393	3210.4212	3454.3457
CCC12NC1C=CC2C	CC[C@]12N[C@H]1C=C[C@H]2C	
InChI=1S/C8H13N/c1-3-8-6(2)4-5-7(8)9-8/h4-7,9H,3H2,1-2H3	InChI=1S/C8H13N/c1-3-8-6(2)4-5-7(8)9-8/h4-7,9H,3H2,1-2H3/t6-,7+,8-/m1/s1
