15
gdb 131545	3.03284	1.62506	1.14595	3.6752	67.31	-0.2182	-0.0218	0.1964	1012.0073	0.114949	-453.911096	-453.903887	-453.902943	-453.943232	27.328	
O	 0.0611216624	 1.4546115326	 0.0402264736	-0.420325
C	 0.060695729	 0.0345782014	 0.0277162096	-0.023799
C	-1.3739031761	-0.6297768322	-0.0480141253	-0.202917
N	-1.5188982612	-1.3509340545	-1.3536902105	-0.419595
C	-0.2548683425	-1.2405939291	-1.9533687469	 0.160176
C	 0.6522319658	-0.5757054091	-1.2000198651	 0.330581
O	 1.8622112834	-0.5782532324	-1.7765975329	-0.223871
N	 1.746375974	-1.268426735	-2.9874712504	-0.135656
C	 0.4919857468	-1.6673374217	-3.0810015926	-0.08797
H	-0.1527305672	 1.7596582948	-0.8489390573	 0.281931
H	 0.5575962106	-0.2499789282	 0.958489548	 0.116277
H	-1.4900813249	-1.3525919665	 0.7649307712	 0.128919
H	-2.1375287607	 0.1430013967	 0.0722502977	 0.122485
H	-2.2814020899	-1.0011706951	-1.9213469085	 0.238271
H	 0.1936288505	-2.2298182518	-3.9537845704	 0.135493
60.9888	147.9117	269.9353	318.9496	329.4957	409.523	486.9444	613.1519	636.5771	659.5665	707.9437	753.5981	817.3275	887.77	893.0235	899.8057	962.648	972.0106	1014.7952	1076.2529	1134.738	1203.2524	1226.2488	1243.2714	1286.7437	1338.0875	1342.9625	1377.5081	1428.1182	1442.1902	1492.3668	1518.3005	1668.7714	3054.0874	3085.3134	3109.2527	3249.1289	3541.1829	3797.1713
OC1CNC2=C1ON=C2	O[C@H]1CNc2c1onc2	
InChI=1S/C5H6N2O2/c8-4-2-6-3-1-7-9-5(3)4/h1,4,6,8H,2H2	InChI=1S/C5H6N2O2/c8-4-2-6-3-1-7-9-5(3)4/h1,4,6,8H,2H2/t4-/m0/s1
