20
gdb 22787	2.2945	1.32108	0.907	0.8903	80.24	-0.2407	0.0013	0.242	1329.6883	0.168462	-440.221718	-440.21173	-440.210786	-440.256763	36.184	
C	 0.5535069617	 1.887736108	-0.7471415274	-0.248634
O	 0.3344124833	 0.6240051527	-0.1463371265	-0.240452
C	 0.6537402026	-0.4702649234	-0.9498269656	 0.074497
C	 0.8022480996	-1.8095470594	-0.1798079269	-0.279943
C	-0.007011032	-2.5467082082	-1.2951009678	-0.057535
C	-1.0927264776	-3.5360606821	-0.8918371161	-0.398257
C	-0.4290011077	-1.1723104058	-1.7898596766	 0.362967
N	-1.4277690177	-0.8717000936	-2.5052356454	-0.252462
O	-1.5575727397	 0.5202759752	-2.6858106472	-0.386177
H	 1.6066798528	 2.0069928707	-1.0454684504	 0.10013
H	-0.0863896839	 2.0345808327	-1.624067582	 0.134251
H	 0.3152598996	 2.6402719332	 0.0082856643	 0.122959
H	 1.5374815119	-0.257648755	-1.5736640472	 0.081108
H	 1.8165376641	-2.1539937188	 0.0273876643	 0.102325
H	 0.2350810329	-1.7554879397	 0.7530733316	 0.121816
H	 0.674514081	-3.0142404918	-2.0171037859	 0.091629
H	-1.7805663328	-3.0853398215	-0.1696792373	 0.121249
H	-1.6783080207	-3.8463246337	-1.7621092636	 0.130641
H	-0.6549046372	-4.4307935662	-0.4369729846	 0.113996
H	-2.3508244003	 0.5803897365	-3.2285915098	 0.305893
52.7243	127.5118	147.4965	173.7659	191.5906	212.8781	249.5057	286.5586	321.2675	389.6198	424.6119	448.5017	534.3746	600.5553	657.9383	783.7025	844.0825	925.1731	939.0718	964.2873	996.1939	1052.393	1098.5168	1104.0596	1150.5655	1165.3213	1178.6594	1188.2696	1226.2683	1249.0212	1260.0179	1278.6141	1345.5097	1385.8242	1400.3537	1409.6416	1479.2253	1483.121	1489.6632	1492.137	1497.276	1515.6897	1776.823	2965.4076	2986.1583	3024.2976	3035.877	3071.066	3071.8567	3105.7082	3113.7149	3122.119	3132.7271	3819.1066
COC1CC(C)C1=NO	CO[C@H]1C[C@@H](C)C1=NO	
InChI=1S/C6H11NO2/c1-4-3-5(9-2)6(4)7-8/h4-5,8H,3H2,1-2H3	InChI=1S/C6H11NO2/c1-4-3-5(9-2)6(4)7-8/h4-5,8H,3H2,1-2H3/t4-,5+/m1/s1
