17
gdb 82127	3.35615	1.26061	1.06445	4.9491	72.15	-0.2461	0.0383	0.2844	1123.4422	0.13667	-417.969913	-417.961741	-417.960796	-418.002871	30.838	
O	 0.0887301388	 1.3854202187	 0.1139428438	-0.425778
C	 0.0321569277	-0.0072163746	-0.0059797929	 0.13496
C	-1.3717274669	-0.5979334723	 0.034878876	-0.065381
N	-2.093479921	-0.1268848352	-1.1705205243	-0.324205
C	-1.1700016913	-1.2752343727	-1.2810534574	-0.077697
C	 0.2301750881	-0.6696756909	-1.4379061532	-0.062224
C	 0.4282252609	 0.3019144466	-2.6083372751	-0.340724
C	 1.6653963173	 1.0634552252	-2.4524835436	 0.253462
N	 2.6502044289	 1.6444571926	-2.2781859351	-0.32881
H	 1.0093082047	 1.6645498505	 0.0482461037	 0.301111
H	 0.6786919268	-0.5114871623	 0.7244425105	 0.080539
H	-1.9177295476	-0.9268939276	 0.9100149659	 0.100609
H	-3.04108749	-0.4969669669	-1.1119214528	 0.236091
H	-1.5109670835	-2.2470819349	-1.6146353997	 0.100481
H	 1.0219048911	-1.4216755659	-1.418508871	 0.089945
H	 0.4595049796	-0.2373433885	-3.5616573201	 0.142948
H	-0.4168623238	 0.9952651683	-2.6380723947	 0.184673
79.0101	111.8095	174.2715	231.7145	273.2068	364.7687	397.4603	430.8506	493.1814	586.5596	635.1552	684.6334	788.533	834.6645	850.5757	898.3394	933.2914	945.9644	985.3709	991.5076	1033.8225	1096.0327	1102.9752	1116.8178	1146.2397	1173.712	1216.0998	1236.4938	1285.7681	1294.1816	1299.6573	1339.203	1370.7692	1386.6574	1443.0249	1463.5106	2352.0072	3014.0307	3051.3916	3086.8266	3111.6978	3190.1684	3202.6702	3484.6226	3801.8361
OC1C2NC2C1CC#N	O[C@H]1[C@H]2N[C@H]2[C@H]1CC#N	
InChI=1S/C6H8N2O/c7-2-1-3-4-5(8-4)6(3)9/h3-6,8-9H,1H2	InChI=1S/C6H8N2O/c7-2-1-3-4-5(8-4)6(3)9/h3-6,8-9H,1H2/t3-,4+,5+,6-/m1/s1
