17
gdb 13332	6.03843	1.13967	1.00291	2.9532	70.68	-0.2154	-0.0235	0.192	1133.5756	0.141452	-363.859907	-363.852065	-363.85112	-363.893034	27.912	
O	-0.4576846556	 0.1992763396	 0.4267195467	-0.237638
C	-0.1258381028	 1.29492915	 0.058456594	 0.158748
C	 1.3118758158	 1.724938896	-0.1967267069	-0.237865
N	 1.3947295758	 2.6803206362	-1.2731286394	-0.079403
C	 1.1723476073	 2.1488665913	-2.6243813966	-0.204242
C	 1.9643876678	 3.087636976	-3.4929839157	-0.063775
C	 2.7400013497	 3.8719409892	-2.7514766056	-0.070452
C	 2.5699392337	 3.560464352	-1.2898514028	-0.197453
H	-0.8636715262	 2.1118738432	-0.1138979058	 0.082765
H	 1.6458367516	 2.2122405336	 0.731140285	 0.128108
H	 1.9326098428	 0.8201495901	-0.3300022386	 0.104005
H	 1.5368548303	 1.1081057809	-2.7360616018	 0.096471
H	 0.1017294126	 2.1297912148	-2.8746475566	 0.111216
H	 1.9014224425	 3.0774230075	-4.573739809	 0.10397
H	 3.4311646972	 4.623132877	-3.1121990792	 0.103553
H	 2.3998227527	 4.4554575727	-0.6738739989	 0.108596
H	 3.479333675	 3.0714212699	-0.8895432788	 0.093396
61.1473	81.5371	108.7553	210.6559	327.3442	372.9549	406.6462	453.2892	667.1548	695.1537	775.2943	795.9516	869.6046	942.8438	963.9512	996.0425	1029.8534	1035.0891	1059.5835	1082.4893	1131.2976	1172.1925	1188.3102	1209.7789	1217.952	1269.624	1321.9779	1341.5539	1389.4201	1390.2495	1405.9397	1458.0378	1510.6007	1523.7636	1693.9248	1839.5285	2876.2659	2900.6347	2909.8566	2942.8408	2998.2728	3001.6947	3026.8267	3204.924	3229.2444
O=CCN1CC=CC1	O=CCN1CC=CC1	
InChI=1S/C6H9NO/c8-6-5-7-3-1-2-4-7/h1-2,6H,3-5H2	InChI=1S/C6H9NO/c8-6-5-7-3-1-2-4-7/h1-2,6H,3-5H2
