17
gdb 10098	3.26256	1.16457	0.91492	3.5703	69.48	-0.2628	-0.037	0.2258	1249.321	0.13996	-363.892611	-363.883346	-363.882402	-363.927574	31.435	
C	-0.1256120012	 1.5751356384	 0.0709067383	-0.401546
C	 0.0085706856	 0.0528539186	 0.0081118241	-0.178286
C	 0.7513229764	-0.4548191194	-1.2508572384	-0.143987
C	 0.9507901687	-1.9907182398	-1.2127154801	-0.28938
C	 1.7655100636	-2.5262747613	-2.3749698777	 0.146382
O	 2.7329473157	-3.2301430307	-2.2452441727	-0.233275
C	 0.0385700688	-0.053726449	-2.4699936092	 0.28402
N	-0.5396374678	 0.2539956827	-3.4226854733	-0.329939
H	 0.8562496696	 2.0605847683	 0.0717065526	 0.122717
H	-0.6912737599	 1.9605230211	-0.7824726471	 0.147403
H	-0.6468529168	 1.8760991412	 0.9838259302	 0.126528
H	 0.5624798975	-0.312595865	 0.8798983187	 0.113278
H	-0.9811696267	-0.4167697836	 0.0430724897	 0.120243
H	 1.7390588827	 0.0242242334	-1.283222832	 0.137197
H	 1.4499237246	-2.2750422334	-0.2830529297	 0.132378
H	-0.0348593159	-2.4748545657	-1.2378109578	 0.139808
H	 1.4013599151	-2.2245721658	-3.3814930156	 0.10646
56.1404	70.5368	104.6313	156.4864	168.0985	218.0997	270.769	343.0412	361.627	488.9475	554.852	594.7609	754.4942	818.4998	835.6129	924.9665	990.6477	1031.6622	1043.3576	1091.9493	1129.1471	1141.7119	1213.612	1268.9551	1291.6728	1328.5908	1367.423	1371.1448	1418.5898	1430.89	1458.9163	1486.7283	1498.612	1505.9869	1834.944	2352.6262	2900.1852	3021.9789	3032.234	3039.1501	3041.8035	3077.8864	3110.3427	3112.6787	3120.4175
CCC(CC=O)C#N	CC[C@@H](CC=O)C#N	
InChI=1S/C6H9NO/c1-2-6(5-7)3-4-8/h4,6H,2-3H2,1H3	InChI=1S/C6H9NO/c1-2-6(5-7)3-4-8/h4,6H,2-3H2,1H3/t6-/m0/s1
