21
gdb 97912	4.85759	0.51904	0.49304	1.4845	85.11	-0.2422	0.0366	0.2788	2220.1677	0.179141	-424.186384	-424.174786	-424.173841	-424.225932	39.577	
C	 0.2071904599	 1.5953939581	 0.1205268954	-0.388348
C	 0.0065930657	 0.0848886796	-0.0323855303	 0.042611
C	 0.6590500792	-0.441121905	-1.3110934261	-0.079491
O	 0.0435872689	 0.1945468062	-2.4208411355	-0.424106
C	 0.5512417871	-0.6997458748	 1.184617703	-0.367042
C	-0.1120794622	-0.3741315077	 2.4414283952	 0.020092
C	-0.6696140641	-0.094792687	 3.4713542264	 0.152302
C	-1.3531539899	 0.2189812254	 4.7190461135	-0.217275
O	-0.6887829497	 1.2940969975	 5.3747404318	-0.409641
H	 1.2731858475	 1.8377015802	 0.2153736563	 0.104492
H	-0.1817520902	 2.1204706722	-0.7541809814	 0.131204
H	-0.3004964552	 1.9678299891	 1.0140082275	 0.128257
H	-1.0683539035	-0.1207308518	-0.1116816431	 0.091855
H	 1.7423122099	-0.2321798611	-1.2826512837	 0.082345
H	 0.5373514052	-1.5355717268	-1.3670404524	 0.080628
H	 0.4998914416	-0.083961077	-3.2197552389	 0.286745
H	 0.4533473732	-1.777810111	 0.9977767166	 0.122542
H	 1.6288104934	-0.5072861905	 1.2863063345	 0.127289
H	-2.4028615602	 0.475989491	 4.5008597144	 0.113993
H	-1.3737946704	-0.6812614193	 5.3553442702	 0.11353
H	-1.1692901163	 1.4716611228	 6.1898423564	 0.288018
8.5789	46.278	76.7179	113.6254	141.7279	218.5965	229.4123	237.3484	242.5336	273.6128	321.6604	349.7885	409.9518	416.4735	535.1273	568.0908	777.9266	836.5688	888.4418	931.6883	946.5228	1028.2534	1045.2144	1073.6509	1093.1725	1124.3124	1155.7321	1169.0761	1222.0277	1246.0872	1256.394	1258.3527	1279.405	1309.5938	1362.222	1381.8744	1407.8186	1459.9929	1461.3189	1467.8106	1494.738	1503.6829	1504.4692	1519.5366	2371.2198	2950.0435	2959.7789	2976.6377	2978.4255	3004.5679	3026.26	3031.9766	3046.0554	3104.9625	3136.5736	3816.9329	3834.7614
CC(CO)CC#CCO	C[C@@H](CO)CC#CCO	
InChI=1S/C7H12O2/c1-7(6-9)4-2-3-5-8/h7-9H,4-6H2,1H3	InChI=1S/C7H12O2/c1-7(6-9)4-2-3-5-8/h7-9H,4-6H2,1H3/t7-/m1/s1
