23
gdb 104668	2.07404	1.25824	1.16912	1.4569	82.77	-0.2325	0.0684	0.3009	1277.1976	0.202522	-425.399261	-425.387992	-425.387048	-425.435237	40.438	
C	 1.7623589949	 0.6213991106	 1.2426059935	-0.239261
O	 0.9802325719	-0.3476724789	 0.5566170301	-0.295066
C	 1.3147753698	-0.5671465417	-0.784550881	 0.41325
C	 1.0642349717	 0.5918499787	-1.7202355373	-0.154426
O	 2.1099490862	 1.5530718073	-1.5891716124	-0.42047
C	 2.4460011037	-1.5317893287	-1.0997728727	-0.065126
C	 3.3251615914	-2.124858342	-0.0199242962	-0.419581
C	 0.9971385089	-1.9612150759	-1.2777459508	-0.098976
C	 0.330630973	-2.9787297481	-0.3765342265	-0.407149
H	 2.8354162091	 0.411104111	 1.1585652432	 0.112543
H	 1.5842329612	 1.6330004251	 0.8641319413	 0.11918
H	 1.4651267772	 0.5665659368	 2.2933798464	 0.113285
H	 1.0152415843	 0.2135569669	-2.7523662094	 0.085439
H	 0.0860251262	 1.0341515063	-1.4763819132	 0.093628
H	 1.8787537005	 2.3179737671	-2.1249635392	 0.285847
H	 2.9763494658	-1.3145585636	-2.023768026	 0.082106
H	 2.8079451039	-2.1784195283	 0.9401170045	 0.1296
H	 3.6426931098	-3.1391201024	-0.2873252208	 0.112317
H	 4.2296948541	-1.523669258	 0.1197266871	 0.118014
H	 0.6602658449	-2.0120166674	-2.3107535184	 0.075971
H	 0.5558424655	-2.7957386373	 0.6746311986	 0.134003
H	-0.7579171138	-2.9342431226	-0.4890434791	 0.114357
H	 0.6491125399	-3.9959206749	-0.6300478816	 0.110515
82.7822	113.6789	133.6139	146.7621	160.1407	184.1277	212.8853	219.2835	250.3911	270.9372	300.3074	355.1804	393.5723	502.3056	545.7725	601.7724	695.4157	784.2385	878.6133	926.1783	949.7313	1010.8488	1021.4935	1050.6341	1061.4975	1096.082	1111.6888	1142.4226	1149.6184	1178.8913	1186.4496	1211.0878	1245.766	1246.662	1260.5312	1329.1835	1370.0924	1408.4835	1416.3718	1443.9396	1463.6549	1479.3529	1487.5703	1490.1313	1492.8504	1502.3658	1504.8491	1508.9311	1515.8142	2974.5447	3011.541	3019.9867	3032.4709	3036.758	3084.3522	3088.3565	3089.5315	3114.1164	3117.1383	3125.2181	3137.7307	3147.5489	3822.4372
COC1(CO)C(C)C1C	CO[C@@]1(CO)[C@@H](C)[C@H]1C	
InChI=1S/C7H14O2/c1-5-6(2)7(5,4-8)9-3/h5-6,8H,4H2,1-3H3	InChI=1S/C7H14O2/c1-5-6(2)7(5,4-8)9-3/h5-6,8H,4H2,1-3H3/t5-,6+,7-
