18
gdb 70210	3.58196	1.30347	1.08576	4.4022	72.2	-0.2416	0.0335	0.2752	1128.1697	0.148418	-439.121852	-439.113612	-439.112668	-439.15471	31.326	
C	-0.0934969961	 1.5332822077	 0.0569399484	-0.469314
C	-0.0121855667	 0.0254368939	 0.0610611568	 0.382327
C	-1.1334782459	-0.680694006	-0.6805976352	-0.21477
N	-1.0634810962	-2.124576384	-0.5784756183	-0.309694
C	-0.4369783051	-2.8764264607	 0.3738972993	 0.392394
O	-0.452995836	-4.0921526391	 0.3443590898	-0.375538
C	 0.2625471128	-2.1101486402	 1.4914235302	-0.358274
C	 0.6720599787	-0.7044725627	 1.1344801605	-0.005531
O	 1.2925910786	-0.5273562472	-0.1490302873	-0.287653
H	 0.7593629736	 1.9592446878	 0.5899059044	 0.136244
H	-0.0805511186	 1.9187554443	-0.9685428671	 0.130088
H	-1.0148098157	 1.8803659149	 0.5363765485	 0.125229
H	-2.0908719069	-0.2963002606	-0.2948652087	 0.112319
H	-1.0873042031	-0.4019392793	-1.7409208878	 0.122284
H	-1.5070157122	-2.6736910587	-1.2996966111	 0.249265
H	-0.4139511727	-2.0804298823	 2.3559757076	 0.132762
H	 1.1260066807	-2.7095832085	 1.7935609499	 0.145399
H	 1.1385157209	-0.1292214792	 1.9353287003	 0.092463
70.2722	149.516	178.0422	231.7598	297.7482	356.5738	384.3253	446.829	490.8987	507.4619	602.0291	641.5902	686.3974	762.6034	770.1143	873.1477	904.6626	951.0161	971.9749	1007.4938	1058.9353	1102.6915	1120.3645	1141.5455	1214.6495	1242.9118	1280.9004	1304.3415	1335.5876	1365.4382	1405.0057	1416.0607	1453.0417	1475.6064	1486.5198	1491.9149	1507.3441	1530.014	1795.203	2979.9382	3035.1095	3036.5579	3039.1833	3095.4059	3099.6516	3102.0345	3129.7868	3617.8337
CC12CNC(=O)CC1O2	C[C@]12CNC(=O)C[C@H]1O2	
InChI=1S/C6H9NO2/c1-6-3-7-5(8)2-4(6)9-6/h4H,2-3H2,1H3,(H,7,8)	InChI=1S/C6H9NO2/c1-6-3-7-5(8)2-4(6)9-6/h4H,2-3H2,1H3,(H,7,8)/t4-,6+/m1/s1
