14
gdb 124334	2.898	1.5787	1.02856	4.0795	66.33	-0.2477	-0.0457	0.202	1074.2692	0.100158	-470.013611	-470.005668	-470.004724	-470.04672	28.606	
C	-0.032304309	 1.5190978448	-0.0378011974	-0.51204
C	-0.0232447091	 0.0087323795	 0.0962675689	 0.421736
O	-0.03517853	-0.5699756018	 1.1459948839	-0.268782
N	 0.001014901	-0.695239499	-1.1384286009	-0.198969
C	 0.0185412492	-0.1557243923	-2.411485759	 0.081965
N	 0.039543771	-1.0302031951	-3.3470543362	-0.126817
O	 0.0373471152	-2.2804246186	-2.6836309806	-0.252854
C	 0.0136168643	-2.0998761136	-1.3171291323	 0.507008
N	 0.0050014499	-2.9928246851	-0.4344616856	-0.543643
H	 0.8607818487	 1.8799875151	-0.5581530774	 0.153668
H	-0.9115753164	 1.8670298346	-0.5894890952	 0.153575
H	-0.0530040078	 1.9367188347	 0.9677368922	 0.167288
H	 0.0146306721	 0.9036702693	-2.6095530119	 0.174912
H	 0.0183791208	-3.9155598824	-0.8659917986	 0.242953
62.3174	113.0107	182.639	213.4669	232.2483	352.8472	452.5655	509.9333	573.7283	600.2617	641.7942	726.5341	756.6264	806.5293	877.2591	906.7702	913.5656	952.4605	1008.1252	1052.8433	1092.6548	1225.8167	1253.7526	1301.2301	1377.6464	1392.1417	1473.2334	1484.3585	1665.0366	1778.1761	1855.053	3045.01	3110.2858	3169.466	3285.6869	3519.0281
CC(=O)N1C=NOC1=N	CC(=O)N1C=NO[C@@H]1[NH]	
InChI=1S/C4H5N3O2/c1-3(8)7-2-6-9-4(7)5/h2,5H,1H3	InChI=1S/C4H6N3O2/c1-3(8)7-2-6-9-4(7)5/h2,4-5H,1H3/t4-/m1/s1
