16
gdb 35417	2.91683	1.59112	1.31506	1.4252	73.33	-0.2467	0.0143	0.2609	986.7025	0.125283	-400.713634	-400.706246	-400.705302	-400.746071	28.329	
C	-0.5571181803	-1.1694055182	-0.5573672179	-0.457733
C	-0.3288806845	-0.0162563671	-0.305333672	 0.347446
C	-0.0582730215	 1.3666843163	 0.0217577993	-0.231842
C	-0.1122090088	 1.7794450933	 1.5419639529	-0.240199
C	 1.3663414145	 2.2442866844	 1.4720610124	-0.016786
N	 2.3103923399	 1.3281289326	 2.1290158064	-0.261609
C	 2.7993033664	 0.6143093933	 1.2024230712	 0.117237
O	 2.4219954006	 0.8156368079	-0.0897899624	-0.215231
C	 1.4319842172	 1.8524891031	-0.0347199058	 0.083849
H	-0.7573965457	-2.18649008	-0.7872385372	 0.198481
H	-0.6860002789	 2.0204659962	-0.5925601487	 0.109271
H	-0.836398031	 2.5686031657	 1.7534845209	 0.111426
H	-0.270722221	 0.9482585611	 2.2292300103	 0.126195
H	 1.5655852917	 3.2772125486	 1.7642620416	 0.087024
H	 3.5314030218	-0.1745512426	 1.33180021	 0.145711
H	 1.6613512295	 2.5891924454	-0.804932771	 0.096759
45.1674	137.47	209.7178	301.8458	356.1718	482.8694	532.4377	606.9035	622.4928	632.7827	668.6262	750.4824	792.1066	852.1525	873.0885	910.7838	922.4902	965.4195	1016.1499	1028.105	1067.9478	1089.6933	1103.2544	1136.6216	1193.421	1241.9386	1263.1211	1274.4669	1302.8332	1318.5722	1330.468	1361.6023	1476.2632	1689.8546	2236.7052	3050.1467	3077.7341	3087.3135	3110.7106	3145.5909	3222.8796	3504.3077
C#CC1CC2N=COC12	C#C[C@H]1C[C@H]2N=CO[C@@H]12	
InChI=1S/C7H7NO/c1-2-5-3-6-7(5)9-4-8-6/h1,4-7H,3H2	InChI=1S/C7H7NO/c1-2-5-3-6-7(5)9-4-8-6/h1,4-7H,3H2/t5-,6+,7-/m0/s1
