19
gdb 38076	3.39622	1.83664	1.80432	0.3084	82.36	-0.2239	0.0063	0.2302	864.1094	0.16425	-348.759859	-348.753995	-348.75305	-348.789506	26.684	
C	-0.0427916008	 1.5754820841	 0.0387860277	-0.207268
C	 1.4933554204	 1.9029027844	 0.0151278874	-0.068119
C	 1.9221073699	 1.723247116	 1.4621613297	-0.086091
C	 1.8417893413	 0.4183115584	 1.7440764737	-0.10025
C	 1.4608839299	-0.3036577156	 0.47677623	-0.040465
C	-0.0046157517	 0.0070695384	-0.0395305916	-0.06812
C	 0.1530907879	-0.2755429967	-1.5245468606	-0.086091
C	 1.3777228659	 0.1273438532	-1.8805553679	-0.100251
C	 2.0911436931	 0.5871996124	-0.6347867006	-0.040464
H	-0.5061041367	 1.9436315631	 0.9571424125	 0.094849
H	-0.5797429764	 1.9958099184	-0.8147817556	 0.094848
H	 1.7555970012	 2.8463352509	-0.4624602797	 0.05998
H	 2.1016011178	 2.5377992285	 2.1538796232	 0.090961
H	 1.976109019	-0.0547066672	 2.7088239004	 0.0921
H	 1.7012409625	-1.3663378495	 0.4180675555	 0.06067
H	-0.821140864	-0.4994435351	 0.4739450008	 0.05998
H	-0.6506644179	-0.5979945102	-2.1758456064	 0.090961
H	 1.7905586475	 0.1690526856	-2.8807315911	 0.0921
H	 3.1818182211	 0.600664741	-0.6622671774	 0.060671
308.1212	350.9885	416.6001	431.4644	566.2313	576.9781	690.3505	702.7826	750.0369	773.6223	789.1061	815.0445	863.1803	872.4802	893.73	920.4892	937.5829	943.9771	952.1431	964.7641	994.1218	1002.4389	1012.5182	1039.9027	1107.4446	1111.687	1136.2267	1151.4661	1164.4044	1241.7467	1250.4118	1260.91	1280.7659	1289.5933	1300.3556	1323.9839	1349.0019	1353.6547	1490.6558	1640.034	1646.742	3062.6544	3099.3375	3105.3148	3108.7044	3118.4803	3120.2897	3190.1634	3190.3308	3216.8794	3217.3663
C1C2C=CC3C1C=CC23	C1[C@H]2C=C[C@H]3[C@@H]1C=C[C@@H]23	
InChI=1S/C9H10/c1-3-8-7-2-4-9(8)6(1)5-7/h1-4,6-9H,5H2	InChI=1S/C9H10/c1-3-8-7-2-4-9(8)6(1)5-7/h1-4,6-9H,5H2/t6-,7-,8+,9+/m1/s1
