17
gdb 30791	2.27726	1.37618	0.88731	2.3834	72.93	-0.194	0.0391	0.2332	1274.8001	0.136116	-455.189318	-455.180171	-455.179226	-455.223444	33.289	
C	-0.1588035269	 1.4936011716	 0.1304281645	-0.492206
C	 0.0038986665	 0.0162816553	-0.0126278887	 0.183502
C	 0.0961127601	-0.7373016313	-1.1515369619	 0.255511
C	 0.1097761482	-0.4256368166	-2.6027003643	-0.214206
O	-0.7333884243	-1.3696606169	-3.2691533126	-0.425535
N	 0.2717288817	-2.0515760423	-0.7116374189	-0.348705
C	 0.2401925976	-2.0061593774	 0.6396942319	 0.432875
O	 0.3429992317	-3.1409202315	 1.3523255015	-0.425403
N	 0.102503035	-0.797659239	 1.1129384514	-0.420893
H	 0.7360848002	 1.9551912204	 0.5640269682	 0.129633
H	-0.3488892196	 1.9718299613	-0.83432434	 0.114339
H	-0.9944961112	 1.7254557998	 0.7990471925	 0.133523
H	-0.234282317	 0.6076241434	-2.752150533	 0.105837
H	 1.1325987446	-0.4900795069	-3.012047327	 0.096386
H	-0.6067512459	-1.2608957583	-4.2169921684	 0.288478
H	 0.222190391	-2.8718596586	-1.2919195129	 0.274097
H	 0.2770022483	-2.879164283	 2.2793267677	 0.312767
66.3936	121.1134	140.5341	218.3917	233.5804	272.5372	296.5117	344.9762	414.9912	427.8588	506.9894	531.1899	628.6885	638.7222	691.8158	731.5682	822.5877	993.0564	1012.4159	1033.9266	1062.7005	1071.2293	1162.8807	1177.2399	1218.0161	1243.3558	1274.0882	1306.9595	1408.2892	1425.2126	1455.9106	1473.3605	1492.99	1512.0889	1567.2392	1621.9301	1660.1688	2947.4271	3014.6567	3030.4416	3083.063	3114.0947	3673.8187	3804.9399	3818.0729
CC1=C(CO)NC(O)=N1	Cc1c(CO)[nH]c(O)n1	
InChI=1S/C5H8N2O2/c1-3-4(2-8)7-5(9)6-3/h8H,2H2,1H3,(H2,6,7,9)	InChI=1S/C5H8N2O2/c1-3-4(2-8)7-5(9)6-3/h8H,2H2,1H3,(H2,6,7,9)
