21
gdb 59647	2.68412	1.32131	1.14559	3.4235	74.74	-0.2434	0.0598	0.3032	1177.8909	0.182274	-461.368537	-461.359268	-461.358324	-461.402357	35.468	
C	-0.5416835703	 1.3401938583	-0.0946309561	-0.391704
C	-0.1196263177	-0.1307922943	-0.1333872254	 0.146417
O	-1.2522881032	-0.9841741342	-0.1390849083	-0.455659
C	 0.8369036492	-0.4259540069	-1.2963717576	 0.089907
C	 1.1312033801	-1.9355556158	-1.5112857125	-0.276565
C	 0.4245245916	-2.2620478038	-2.8321501421	 0.106388
O	-0.9214020128	-2.6271610452	-2.5194708527	-0.422616
C	 0.4848225542	-0.9080415461	-3.5397943251	-0.097442
O	 0.2372110294	 0.0388415524	-2.5199847468	-0.268082
H	 0.32522486	 1.999437726	 0.0272991084	 0.09954
H	-1.0547378354	 1.6117182864	-1.0203285682	 0.128446
H	-1.2223599865	 1.5020383301	 0.7449749895	 0.116311
H	 0.4350648603	-0.3612012281	 0.7887752334	 0.071222
H	-1.4201513341	-1.2752231064	-1.0464630767	 0.285109
H	 1.7705021581	 0.1304321944	-1.1285632939	 0.07011
H	 2.2042177776	-2.1175191694	-1.6076129397	 0.104891
H	 0.7388951932	-2.5518096966	-0.7014526793	 0.140858
H	 0.9181075531	-3.0632840559	-3.3963034883	 0.075803
H	-1.4227801011	-2.6734888972	-3.3403971213	 0.28806
H	 1.4760452031	-0.7631777111	-4.0027244391	 0.089116
H	-0.277790009	-0.7848936866	-4.3169083282	 0.099889
68.0969	120.6226	188.2928	223.3358	247.4125	264.3897	305.4062	360.1047	396.478	408.1991	461.8359	484.4398	635.1413	705.842	765.6673	803.1035	871.6349	888.2045	914.7348	952.3267	977.2079	1001.8637	1037.5767	1059.0442	1079.873	1108.532	1130.8393	1173.3406	1188.5441	1203.7892	1256.751	1304.7556	1309.9501	1319.1897	1348.8776	1350.6409	1385.6172	1397.1953	1398.0201	1410.5778	1444.971	1474.8784	1491.1123	1499.2301	1508.1674	2960.8814	2985.9707	2999.7444	3029.1041	3038.1227	3064.4986	3078.3315	3110.2875	3133.107	3138.2752	3732.425	3812.5842
CC(O)C1CC(O)CO1	C[C@@H](O)[C@H]1C[C@@H](O)CO1	
InChI=1S/C6H12O3/c1-4(7)6-2-5(8)3-9-6/h4-8H,2-3H2,1H3	InChI=1S/C6H12O3/c1-4(7)6-2-5(8)3-9-6/h4-8H,2-3H2,1H3/t4-,5-,6-/m1/s1
