18
gdb 39643	4.35226	1.03692	0.92138	2.8052	73.02	-0.2464	0.0185	0.2648	1282.4469	0.149346	-439.077051	-439.068848	-439.067903	-439.111687	28.68	
C	-0.020516913	 1.3708414803	-0.2761935866	-0.069843
O	 1.3241464351	 1.5947550168	 0.1787746922	-0.27099
C	 1.4660003296	 0.2220138656	 0.6081983374	-0.079105
C	 0.0640753561	-0.1389764058	 0.08136925	-0.156807
C	-0.9286028518	-0.6471157154	 1.0665101066	 0.413825
N	-0.7245510826	-0.9057714633	 2.2927396994	-0.311746
C	-2.0092399989	-1.3582687966	 2.8465457467	-0.18554
C	-2.9996325213	-1.2839952222	 1.6545987991	-0.112064
O	-2.1809367518	-0.8228775329	 0.5557802547	-0.263076
H	-0.7578492836	 1.9418735376	 0.3017016125	 0.107338
H	-0.1440616517	 1.5985256551	-1.341221103	 0.107026
H	 2.3042901218	-0.277274568	 0.1096986987	 0.101168
H	 1.5703259469	 0.1321230356	 1.6934342414	 0.132778
H	 0.056970432	-0.7835033231	-0.8004419747	 0.107172
H	-1.906534468	-2.3729677357	 3.2454408242	 0.118927
H	-2.3053605642	-0.7115816183	 3.6789735597	 0.120002
H	-3.4298391985	-2.2506961516	 1.3791126195	 0.120521
H	-3.8105068261	-0.5654004281	 1.8032941022	 0.120414
42.7219	59.1449	95.6342	144.571	202.9372	325.6895	417.8342	591.4685	716.394	757.4528	826.8196	830.9091	890.9029	906.9915	941.2834	975.9356	997.6592	999.9731	1041.1155	1052.1761	1074.8751	1114.704	1126.4906	1161.7088	1167.717	1206.9525	1215.9836	1240.7385	1246.7976	1309.7224	1320.5122	1363.1897	1379.3245	1419.3143	1503.5541	1511.7448	1528.1006	1536.6211	1739.3813	3015.982	3035.5566	3042.0543	3056.6083	3060.6935	3070.1276	3085.7439	3098.9109	3104.4281
C1OCC1C1=NCCO1	C1OCC1C1=NCCO1	
InChI=1S/C6H9NO2/c1-2-9-6(7-1)5-3-8-4-5/h5H,1-4H2	InChI=1S/C6H9NO2/c1-2-9-6(7-1)5-3-8-4-5/h5H,1-4H2
