18
gdb 113179	3.22781	1.04478	0.91851	5.2775	69.26	-0.2473	0.0203	0.2676	1308.6311	0.14663	-476.230916	-476.221538	-476.220594	-476.265425	34.11	
C	 0.1968016805	 1.3316566276	 0.169153748	-0.237768
O	-0.409587586	 0.2068957918	-0.4453519701	-0.251356
C	 0.4156445781	-0.4320474012	-1.3611602965	 0.109106
C	 1.3945165935	-1.4625300715	-0.8876530289	-0.350278
C	 0.1020741012	-1.9003587484	-1.5710989956	 0.087827
N	-0.999691537	-2.4814497741	-0.8382865095	-0.609087
H	-0.6798507666	-3.1410282768	-0.1373698742	 0.245669
H	-1.5258734573	-1.752900988	-0.3651148504	 0.258938
H	-1.3381206378	-3.2824729955	-2.570538787	 0.304392
C	 0.225603959	-2.3863227544	-2.996348697	 0.425015
O	-0.7610845621	-3.213254134	-3.3617792731	-0.379427
O	 1.1158858765	-2.0490481711	-3.7355828206	-0.363025
H	 1.1009496556	 1.0473371093	 0.7243652159	 0.117238
H	 0.4669455866	 2.0946808581	-0.5739782375	 0.120893
H	-0.5366850414	 1.7512089283	 0.8606849545	 0.133708
H	 0.6698309959	 0.1463237906	-2.2481537191	 0.122219
H	 2.3094917858	-1.5968189504	-1.4520877357	 0.149102
H	 1.4482599054	-1.6406507104	 0.1811060468	 0.116833
72.569	83.5321	154.517	161.9735	210.654	269.9172	314.7207	317.1908	373.4342	441.1134	482.5106	537.6787	619.619	745.7185	771.041	842.7926	851.996	876.3463	906.805	931.4238	1017.3604	1045.9353	1063.0287	1118.4889	1162.741	1181.746	1194.3966	1237.9997	1245.7057	1274.9364	1331.6305	1385.6272	1429.5393	1450.25	1485.3522	1488.8756	1508.3484	1658.1895	1853.7133	2997.6296	3053.385	3125.4562	3127.5888	3137.0491	3240.1194	3492.9481	3509.5929	3579.8688
COC1CC1([NH3+])C([O-])=O	CO[C@H]1C[C@]1(N)C(=O)O	
InChI=1S/C5H9NO3/c1-9-3-2-5(3,6)4(7)8/h3H,2,6H2,1H3,(H,7,8)	InChI=1S/C5H9NO3/c1-9-3-2-5(3,6)4(7)8/h3H,2,6H2,1H3,(H,7,8)/t3-,5+/m0/s1
