21
gdb 97845	3.56868	0.73528	0.65793	1.9006	89.03	-0.2411	0.0304	0.2716	1801.6542	0.180793	-387.050885	-387.040481	-387.039537	-387.089517	36.12	
C	-0.2970634821	 1.6630277522	-0.0913443703	-0.364511
C	 0.0368656328	 0.1698991981	 0.0799352145	-0.316457
C	 0.7832117294	-0.3865161428	-1.0432705601	 0.066554
C	 1.4057470955	-0.8219325292	-1.9794676677	 0.100909
C	 2.1492121886	-1.3460737614	-3.1118510538	-0.067723
O	 3.5513244293	-1.5972540037	-2.8250813781	-0.279628
C	 3.4349411928	-2.9890245108	-3.1826694529	-0.073466
C	 1.935332765	-2.8442904441	-3.5163464848	-0.036749
C	 0.9568017167	-3.6786606793	-2.7072164521	-0.406886
H	 0.6161407484	 2.2557018135	-0.1908111936	 0.131604
H	-0.9035353382	 1.8254407939	-0.9864756545	 0.127502
H	-0.855173078	 2.0305484674	 0.774949349	 0.11455
H	 0.6155180765	 0.0255336711	 1.001385852	 0.133649
H	-0.8905516942	-0.4013142306	 0.2167550753	 0.129507
H	 2.0561094091	-0.6551794583	-3.9607680906	 0.096422
H	 4.092530759	-3.2530757657	-4.019981171	 0.098299
H	 3.6591374226	-3.6480253105	-2.3333260581	 0.099614
H	 1.7248197864	-2.9405037886	-4.5844009049	 0.082043
H	 1.1469028641	-3.5803289477	-1.634542485	 0.129939
H	-0.0763166917	-3.3678161985	-2.8917616211	 0.121582
H	 1.043401018	-4.737148255	-2.9757941822	 0.113245
9.1297	31.2924	78.9955	112.5966	163.083	214.1941	226.8313	301.9539	345.914	372.2211	468.4766	514.4964	544.4705	728.9175	766.8694	783.2803	868.2836	893.8077	925.5977	957.6596	989.4789	1018.4071	1061.4272	1081.0445	1102.7161	1128.2241	1152.1285	1180.0798	1193.2685	1248.2181	1273.0529	1285.9067	1344.1838	1348.5156	1358.7296	1381.6343	1408.6818	1415.1671	1471.5259	1491.832	1494.4933	1494.6322	1505.0293	1526.8578	2355.6732	3001.6554	3008.5858	3019.9085	3034.9782	3044.7734	3047.1054	3047.3998	3075.1655	3101.1449	3116.2023	3118.0834	3124.9566
CCC#CC1OCC1C	CCC#C[C@H]1OC[C@H]1C	
InChI=1S/C8H12O/c1-3-4-5-8-7(2)6-9-8/h7-8H,3,6H2,1-2H3	InChI=1S/C8H12O/c1-3-4-5-8-7(2)6-9-8/h7-8H,3,6H2,1-2H3/t7-,8-/m1/s1
