18
gdb 93189	2.85752	1.34299	0.94907	5.2295	74.88	-0.2531	-0.0626	0.1905	1221.6003	0.147667	-439.116515	-439.107931	-439.106987	-439.150504	31.785	
C	-0.1817134164	 1.521437763	-0.0099116506	-0.404435
C	 0.0352668617	 0.0063214407	-0.0373059644	-0.026011
C	 0.8966321164	-0.4112421535	-1.2222064982	-0.072291
O	 1.0366412803	-1.8335278693	-1.3300675648	-0.257561
C	 1.2692033103	-2.599433811	-0.2266108573	 0.28083
N	 1.5934994336	-3.8189755024	-0.3205919625	-0.462033
C	 1.0688913134	-1.9850944517	 1.1650131142	 0.324098
O	 1.195233417	-2.6633615961	 2.1508700466	-0.267308
C	 0.7166914882	-0.5082196406	 1.2348678518	-0.313555
H	 0.7725813962	 2.055561297	 0.0645097986	 0.122284
H	-0.6923618102	 1.8672572866	-0.9142187083	 0.122792
H	-0.7913866516	 1.8106459257	 0.8511919968	 0.12874
H	-0.9384012744	-0.4904934475	-0.1451016566	 0.098003
H	 0.4555962135	-0.1001061655	-2.1725536484	 0.123061
H	 1.8941082027	 0.046824908	-1.1463756085	 0.108846
H	 1.673040285	-4.080849399	-1.306616226	 0.228446
H	 1.6625618516	 0.0361258219	 1.3807862662	 0.13207
H	 0.1206764927	-0.3447068763	 2.1369856614	 0.134023
38.837	85.7282	206.8183	221.1579	269.8289	351.9163	395.5717	403.7904	407.3167	461.6848	570.2188	603.3989	681.4158	734.8538	873.9342	890.3255	923.3554	942.5636	970.5613	996.942	1069.8536	1108.7742	1143.1711	1163.1621	1186.069	1223.0545	1287.3516	1296.934	1311.3861	1356.3714	1380.1843	1411.0139	1427.7843	1454.456	1497.368	1498.8955	1513.8624	1715.6874	1825.3167	2998.6304	3001.3499	3024.7846	3032.992	3094.7459	3095.882	3101.8574	3110.5445	3456.4255
CC1COC(=N)C(=O)C1	C[C@H]1CO[C]([NH])C(=O)C1	
InChI=1S/C6H9NO2/c1-4-2-5(8)6(7)9-3-4/h4,7H,2-3H2,1H3	InChI=1S/C6H9NO2/c1-4-2-5(8)6(7)9-3-4/h4,7H,2-3H2,1H3/t4-/m1/s1
