19
gdb 53438	2.45157	1.12751	0.93258	1.9158	79.34	-0.248	0.0339	0.2818	1351.6286	0.158384	-423.002813	-422.993045	-422.992101	-423.039637	34.134	
C	-0.2031003505	 1.4439175965	 0.1732249802	-0.500544
C	-0.1226879987	-0.007133848	 0.0792832087	 0.058625
C	-0.0187590251	-1.2061571485	-0.0015274645	 0.074464
C	 0.05876428	-2.6716237235	-0.0868125529	-0.112405
O	 0.7795492947	-3.2557425105	 0.9872796516	-0.252574
C	-0.1239164544	-3.5776362241	 2.0618628665	-0.07091
C	-1.5510363972	-3.3641119692	 1.5351767714	-0.270223
C	-1.3585871211	-3.3044561344	 0.0072149746	 0.128113
O	-2.3618571895	-2.6381909176	-0.7123007745	-0.434788
H	 0.7565546151	 1.868595889	 0.4870179352	 0.157475
H	-0.4628649496	 1.8891095122	-0.7932639494	 0.154431
H	-0.959906087	 1.7583790363	 0.8999010203	 0.150479
H	 0.5687650445	-2.9578320742	-1.0124130711	 0.109987
H	 0.0655423816	-4.6189836115	 2.3450492642	 0.107867
H	 0.0976238464	-2.9453840987	 2.9298023577	 0.105206
H	-2.2423975495	-4.1519222416	 1.8401497063	 0.111057
H	-1.9589065802	-2.4062519866	 1.8735096653	 0.107939
H	-1.3038378908	-4.3157397673	-0.4075629932	 0.097673
H	-2.2578644687	-1.6939842682	-0.5316304266	 0.27813
27.2258	34.7032	90.5946	101.329	175.7484	258.6519	321.8048	355.2784	406.5175	424.1494	474.9697	573.5545	620.565	689.2556	790.5523	861.6625	888.7195	920.3067	993.2273	1023.8148	1050.683	1054.7948	1087.9481	1100.7105	1131.1633	1156.0919	1199.311	1221.6055	1251.8621	1287.6119	1303.8856	1355.6151	1362.776	1390.9993	1413.3067	1441.0413	1476.3584	1477.7273	1490.8096	1528.7196	2352.6991	3026.0174	3030.4704	3052.0727	3057.1768	3064.6834	3070.3782	3092.5219	3094.0587	3119.7268	3747.1349
CC#CC1OCCC1O	CC#C[C@H]1OCC[C@H]1O	
InChI=1S/C7H10O2/c1-2-3-7-6(8)4-5-9-7/h6-8H,4-5H2,1H3	InChI=1S/C7H10O2/c1-2-3-7-6(8)4-5-9-7/h6-8H,4-5H2,1H3/t6-,7-/m1/s1
