20
gdb 76399	2.71637	1.13198	1.12266	1.6111	74.81	-0.2347	0.0487	0.2834	1220.5432	0.169417	-440.224842	-440.215118	-440.214174	-440.259451	36.195	
C	 0.073864993	 1.6638681766	 0.3226220255	-0.441039
C	-0.024803072	 0.1820707739	 0.0106030583	 0.203993
C	-1.4370730815	-0.3385661715	 0.0723986827	-0.049658
C	-2.3356024374	-0.2679163917	-1.1076340468	-0.23915
N	-1.8879927868	-1.573485083	-0.5891950192	-0.334784
C	 0.9666435385	-0.4245938176	-0.9763005645	 0.043442
O	 1.9743534192	 0.3663434377	-1.5256276528	-0.437359
C	 1.0648213122	-0.7520806106	 0.4963480408	-0.005969
O	 2.1484514355	-0.1659957088	 1.1770045015	-0.430523
H	 1.1005340291	 2.0254875505	 0.2733819301	 0.12347
H	-0.5229273991	 2.238263665	-0.3929061928	 0.121968
H	-0.308690325	 1.8723694427	 1.3274899289	 0.119085
H	-1.8923168083	-0.2113742475	 1.0547929083	 0.092097
H	-3.39510602	-0.062093063	-0.9848979973	 0.117861
H	-1.9054605027	 0.0907727995	-2.0395686231	 0.116707
H	-1.1643680688	-1.9497363819	-1.196239078	 0.229821
H	 0.6356279119	-1.1873771973	-1.6767785352	 0.086461
H	 2.5847237902	 0.560049247	-0.8002046658	 0.285395
H	 0.7697393774	-1.7352493416	 0.8578710354	 0.100308
H	 2.8547508946	-0.8199039384	 1.2220024342	 0.297873
61.127	104.4973	137.7174	205.7552	207.3322	228.3262	273.1061	307.4439	346.9128	438.9455	492.2944	508.5201	559.7538	659.7376	688.6589	802.1123	844.3862	870.3783	889.2426	944.7825	977.5339	1003.2467	1016.2903	1069.8309	1089.0777	1107.2856	1136.6126	1161.6283	1165.2871	1200.6052	1221.6695	1252.4848	1271.1881	1295.0529	1303.0339	1338.8508	1402.4952	1411.5523	1422.5617	1468.0155	1485.9943	1503.2089	1510.5151	3041.5267	3097.757	3100.6369	3106.9989	3118.6154	3131.0399	3150.718	3192.8386	3503.0645	3734.2316	3803.1659
CC1(C2CN2)C(O)C1O	C[C@@]1([C@H]2CN2)[C@@H](O)[C@H]1O	
InChI=1S/C6H11NO2/c1-6(3-2-7-3)4(8)5(6)9/h3-5,7-9H,2H2,1H3	InChI=1S/C6H11NO2/c1-6(3-2-7-3)4(8)5(6)9/h3-5,7-9H,2H2,1H3/t3-,4-,5+,6+/m1/s1
