16
gdb 28634	5.71256	1.00291	0.85766	2.58	91.36	-0.2365	-0.04	0.1965	1312.5232	0.124617	-363.647086	-363.638898	-363.637954	-363.68032	30.426	
C	-0.0195203832	 1.5316304258	 0.007885587	-0.499478
C	 0.000242672	 0.0262386201	 0.0130641254	 0.277953
C	-0.0851809092	-0.709296431	-1.1732823241	-0.076636
N	-0.0741801785	-2.0377359517	-1.2512923025	-0.316143
C	 0.0266917464	-2.7283111501	-0.1031538116	 0.159995
C	 0.1182622612	-2.0945444159	 1.1447239497	-0.15292
C	 0.1043475642	-0.7099117557	 1.1954519203	-0.157344
C	 0.0386988657	-4.1563907665	-0.1853880809	 0.223513
C	 0.0516777212	-5.3593393299	-0.218981515	-0.377564
H	 0.8948402054	 1.9443859316	 0.4486319135	 0.13729
H	-0.1067213672	 1.9223415512	-1.0092643697	 0.131743
H	-0.8614267242	 1.9218604472	 0.5906199404	 0.137265
H	-0.1680508808	-0.1824864967	-2.1227505889	 0.102899
H	 0.1980623271	-2.690952338	 2.0457882286	 0.111461
H	 0.1741696838	-0.1995285171	 2.1518661479	 0.103468
H	 0.0617261061	-6.4201300432	-0.2669560201	 0.194498
51.8641	97.7311	148.0521	247.0416	330.7401	396.9906	433.7659	436.7384	541.5061	559.638	612.9543	650.5038	661.3142	705.8162	785.2521	843.8959	864.1324	956.2941	991.5997	1005.8963	1042.5498	1066.9487	1155.4132	1237.9858	1252.8034	1283.5034	1327.5154	1406.4751	1415.39	1484.043	1491.5777	1508.8441	1588.7869	1635.3944	2230.5965	3032.03	3085.7908	3116.6036	3138.116	3169.8744	3205.3787	3503.1134
CC1=CN=C(C=C1)C#C	Cc1cnc(cc1)C#C	
InChI=1S/C8H7N/c1-3-8-5-4-7(2)6-9-8/h1,4-6H,2H3	InChI=1S/C8H7N/c1-3-8-5-4-7(2)6-9-8/h1,4-6H,2H3
