22
gdb 116008	1.83167	1.63089	0.90956	0.8368	84.15	-0.2426	0.0367	0.2793	1347.5308	0.194778	-404.376662	-404.366959	-404.366015	-404.41149	35.366	
C	 0.0594718147	 1.5801676231	 0.2274382346	-0.390748
C	-0.0373840484	 0.0651245302	 0.0220713624	-0.183283
C	 0.6270950728	-0.4541524297	-1.2639938665	-0.083033
C	 0.7948932445	-1.9885606211	-1.3264274884	-0.242902
C	 0.573481822	-2.3195038914	-2.823551338	-0.163328
N	-0.1864799143	-1.1992937154	-3.3921685587	-0.31909
C	-0.1405208028	-0.2383064641	-2.559015483	 0.421712
O	-0.7022282805	 0.9611598669	-2.7611910584	-0.253733
C	-1.3905473057	 1.1223832806	-4.0039946626	-0.234088
H	 1.1062228258	 1.9033942645	 0.2635829805	 0.109578
H	-0.4301120421	 2.1223557265	-0.5840570393	 0.138175
H	-0.4101348806	 1.875238375	 1.1711144381	 0.10817
H	 0.4382394307	-0.442917929	 0.8705518156	 0.097168
H	-1.0887444506	-0.2495379449	 0.0316141834	 0.098514
H	 1.6044540215	 0.0400446274	-1.3710042822	 0.088364
H	 1.7599335879	-2.3298636703	-0.94398563	 0.099538
H	 0.014179152	-2.4616112153	-0.7197109413	 0.103835
H	 1.524761207	-2.4177300955	-3.364370628	 0.101747
H	 0.0305085	-3.2583353165	-2.9735050713	 0.103865
H	-0.7073045917	 0.9734044786	-4.8446825693	 0.137072
H	-2.2057928807	 0.3984816913	-4.0895621418	 0.137088
H	-1.7799433713	 2.1412309291	-3.9999675657	 0.125378
67.229	118.5906	127.3506	161.1175	177.5191	241.0839	258.8889	277.0792	323.3713	381.0187	496.1226	590.5518	681.2339	710.5074	765.2366	822.3971	865.6529	941.9197	944.5675	980.9252	1022.9299	1045.9904	1059.2394	1086.6614	1130.1244	1143.3656	1180.0862	1200.1498	1217.158	1233.7416	1273.1266	1287.5954	1312.0111	1333.4249	1339.5373	1377.2412	1383.8161	1410.2556	1475.4472	1477.1282	1485.9683	1491.5666	1497.0553	1500.3558	1510.1191	1512.9413	1712.6274	2993.8475	3012.6425	3019.2323	3034.9511	3040.8791	3044.5762	3054.0913	3066.1722	3096.4552	3101.751	3116.9137	3134.4089	3149.7092
CCC1CCN=C1OC	CC[C@H]1CC[N][C]1OC	
InChI=1S/C7H13NO/c1-3-6-4-5-8-7(6)9-2/h6H,3-5H2,1-2H3	InChI=1S/C7H13NO/c1-3-6-4-5-8-7(6)9-2/h6H,3-5H2,1-2H3/t6-/m0/s1
