21
gdb 63742	3.31007	1.14044	1.11187	1.1507	86.06	-0.227	0.0176	0.2445	1232.2294	0.181633	-387.092306	-387.083327	-387.082383	-387.125853	35.508	
C	 0.0630248697	 1.565927435	-0.0318371992	-0.436175
C	 0.0004926454	 0.0369506824	 0.0186551786	 0.351259
O	-1.3769623673	-0.3833601225	 0.0270489343	-0.470988
C	 0.6649835301	-0.6517581154	-1.2041150375	-0.335498
C	 1.5019110629	-1.8053024179	-0.6360703621	 0.348503
C	 1.4408249528	-3.2147112335	-1.1921622307	-0.306113
C	 2.6816517855	-2.386151214	-1.384220094	-0.319554
C	 1.5404898062	-1.5710715237	 0.8283351768	-0.137403
C	 0.7519948849	-0.5616119592	 1.1943938079	-0.142853
H	 1.0980033662	 1.9199844115	-0.0697184237	 0.116023
H	-0.4704884199	 1.9382191449	-0.911848761	 0.12181
H	-0.4066917935	 2.0020486898	 0.8582805321	 0.099705
H	-1.7692923174	-0.0838369841	 0.8544934455	 0.269327
H	-0.1085373741	-0.984596125	-1.8996975032	 0.115697
H	 1.3084220014	 0.0607456312	-1.7299176109	 0.098159
H	 1.4760517989	-4.0426912083	-0.491777791	 0.111226
H	 0.7971328517	-3.383474986	-2.0490748327	 0.116217
H	 2.8863597917	-1.9926662388	-2.3750088838	 0.111468
H	 3.5698626762	-2.6480235676	-0.8180472049	 0.109706
H	 2.1405751128	-2.1819618612	 1.4956838676	 0.09514
H	 0.6030985656	-0.2089663976	 2.2102776718	 0.084343
41.4234	168.5171	238.4065	247.9466	270.1328	294.6526	327.4416	351.6363	403.7491	432.5204	513.8157	583.263	654.0024	776.8675	787.5259	802.0147	831.3038	837.9368	915.8463	920.9995	935.2094	954.545	965.6329	976.0655	997.1726	1058.6054	1073.6464	1096.0908	1123.3741	1143.7208	1166.5697	1191.6806	1241.373	1291.8934	1302.4758	1317.3206	1360.2258	1399.9046	1413.5352	1466.2451	1477.4955	1489.8082	1492.3709	1498.8888	1677.3419	3023.8415	3051.25	3090.6716	3108.4982	3112.6051	3121.345	3128.5768	3166.4386	3191.9325	3200.9865	3218.1786	3802.0299
CC1(O)CC2(CC2)C=C1	C[C@@]1(O)CC2(CC2)C=C1	
InChI=1S/C8H12O/c1-7(9)2-3-8(6-7)4-5-8/h2-3,9H,4-6H2,1H3	InChI=1S/C8H12O/c1-7(9)2-3-8(6-7)4-5-8/h2-3,9H,4-6H2,1H3/t7-/m0/s1
