17
gdb 66842	2.7202	1.91682	1.45892	2.3234	71.31	-0.2239	0.0702	0.2941	922.4223	0.135937	-421.736813	-421.729672	-421.728728	-421.767772	29.657	
O	-0.123359606	 1.274765539	 0.0105569404	-0.468188
C	-0.0023373221	-0.0923890413	 0.0766524995	 0.358396
C	 0.2125774353	-0.996750791	-1.1783307266	-0.254961
C	 0.9560560252	-2.1790725319	-0.5272689541	-0.047667
C	 1.9527980536	-1.5830488569	 0.5023081717	-0.250861
C	 0.6917904163	-0.960572452	 1.1520918864	-0.118033
C	-0.1878202625	-2.1350590754	 0.5609185778	-0.137985
C	-1.0239762635	-1.1201387136	-0.2944177302	 0.3262
O	-2.3626858145	-0.9723340013	-0.5340667295	-0.453475
H	 0.7056066538	 1.6432360681	-0.3156894663	 0.284327
H	 0.3154964382	-0.5477639987	-2.1586815518	 0.084897
H	 1.1954781688	-3.0555669523	-1.129784694	 0.062504
H	 2.3901222095	-2.3616776343	 1.1348366261	 0.098624
H	 2.7440818695	-0.916366459	 0.1420910905	 0.083424
H	 0.6489176224	-0.6359791974	 2.1910534855	 0.071382
H	-0.5449747075	-2.9822371063	 1.1412538467	 0.072921
H	-2.6318711164	-1.6300108958	-1.1855039322	 0.288493
201.2183	249.5824	284.9712	298.8915	314.8069	379.3587	464.7601	570.8623	625.6342	661.316	697.695	753.5293	799.8303	826.1145	833.8789	892.3737	915.6676	921.9137	960.0029	981.1781	1011.2438	1029.9583	1051.6461	1079.3554	1136.3049	1141.986	1165.0411	1193.5746	1200.0821	1239.5003	1245.0001	1270.477	1296.6596	1306.2435	1366.5207	1493.649	1534.7672	3035.6893	3093.4691	3108.065	3125.0386	3149.0785	3192.8509	3782.5706	3787.0297
OC12C3C4CC1C4C23O	O[C@@]12[C@H]3[C@H]4C[C@@H]1[C@H]4[C@@]23O	
InChI=1S/C7H8O2/c8-6-3-1-2-4(3)7(6,9)5(2)6/h2-5,8-9H,1H2	InChI=1S/C7H8O2/c8-6-3-1-2-4(3)7(6,9)5(2)6/h2-5,8-9H,1H2/t2-,3+,4-,5+,6+,7-/m0/s1
