19
gdb 125546	4.57398	1.21729	0.98942	2.6337	83.61	-0.2224	0.037	0.2594	1220.54	0.1627	-382.117736	-382.109855	-382.108911	-382.150368	29.8	
C	-0.0361300929	 1.4288406049	-0.0960600186	-0.488146
C	 0.0051456609	-0.0608401335	 0.0445346547	 0.367043
N	-0.0012658899	-0.8417187949	-1.044115193	-0.358782
N	 0.0678224404	-2.0860374796	-0.5447840433	 0.055365
C	 0.0035139825	-3.3696222737	-1.2161635154	-0.166772
C	 0.4152170221	-4.3284380534	-0.0694194548	-0.215482
C	 0.1018122008	-3.5661006622	 1.2563345738	-0.354721
C	 0.0992266917	-2.1369898904	 0.8061184992	 0.437815
C	 0.0637691573	-0.8273230438	 1.2395444065	-0.483357
H	 0.8649461306	 1.897928555	 0.3152048312	 0.124412
H	-0.1115131584	 1.6994860731	-1.1514323518	 0.136525
H	-0.8940155215	 1.8585918032	 0.4329731256	 0.123575
H	-1.0129527079	-3.5634343778	-1.5809652782	 0.120379
H	 0.6833402245	-3.400921342	-2.0711051259	 0.129414
H	-0.099079181	-5.2891572343	-0.1334469235	 0.112004
H	 1.4894220692	-4.5229676204	-0.1305975851	 0.121959
H	-0.8775793877	-3.8530173593	 1.6590517076	 0.122128
H	 0.8401254416	-3.777896039	 2.0343625881	 0.122158
H	 0.0849077876	-0.4629107119	 2.2540709929	 0.094481
88.2472	114.8109	179.2688	208.2647	269.8912	322.6635	488.079	528.7075	641.0665	666.6984	684.0083	740.6452	784.3904	800.2323	870.6632	900.2169	920.2796	985.2552	1004.7101	1030.8244	1063.6367	1092.6576	1125.3416	1156.0141	1187.469	1225.8696	1231.3818	1298.16	1313.883	1332.4591	1357.3403	1401.0654	1409.5536	1476.1289	1480.2725	1484.0484	1491.7908	1501.4471	1508.0916	1534.9943	1590.4239	3026.8848	3029.4629	3031.4301	3065.8678	3080.8107	3086.3332	3095.3838	3121.3291	3129.3278	3259.3696	88.2481	114.8113	179.2691	208.2649	269.8912	322.6636	488.0791	528.7075	641.0667	666.6984	684.0083	740.6452	784.3907	800.2323	870.6632	900.2169	920.2795	985.2552	1004.7101	1030.8244	1063.6365	1092.6576	1125.3417	1156.0143	1187.4689	1225.8695	1231.3817	1298.16	1313.8829	1332.4591	1357.3403	1401.0653	1409.5536	1476.1288	1480.2725	1484.0481	1491.7906	1501.4471	1508.0915	1534.9942	1590.4239	3026.8849	3029.4629	3031.4302	3065.8678	3080.8107	3086.3333	3095.3839	3121.3292	3129.3278	3259.3696
CC1=NN2CCCC2=C1	Cc1nn2CCCc2c1	
InChI=1S/C7H10N2/c1-6-5-7-3-2-4-9(7)8-6/h5H,2-4H2,1H3	InChI=1S/C7H10N2/c1-6-5-7-3-2-4-9(7)8-6/h5H,2-4H2,1H3
