17
gdb 32336	4.56024	0.99374	0.87348	6.0827	79.32	-0.2304	-0.0555	0.1749	1328.2353	0.137873	-418.080256	-418.072117	-418.071173	-418.113644	30.105	
C	 0.0613238198	 1.5769166678	 0.1042290108	-0.368124
C	 0.0174344477	 0.0477729858	-0.0566649917	-0.300356
C	-1.3817775444	-0.5127444505	-0.0539116235	 0.204773
C	-2.0265479924	-0.9370317144	-1.1774004995	-0.032588
N	-3.2934391308	-1.4065782396	-1.095347428	-0.336087
C	-4.039558472	-1.4944689689	 0.1065336108	 0.442098
O	-5.1741332531	-1.9158630688	 0.0743638508	-0.382674
N	-3.3695060292	-1.0785962277	 1.2497765392	-0.319752
C	-2.1503304371	-0.6301784903	 1.1464705992	-0.016497
H	 1.0942052468	 1.9380133136	 0.1185782842	 0.119712
H	-0.463253889	 2.0720468295	-0.7189356154	 0.121039
H	-0.4176317601	 1.8902343081	 1.037450703	 0.12681
H	 0.5186168686	-0.2361855879	-0.9891629346	 0.104978
H	 0.5956351643	-0.4159610734	 0.7522784725	 0.115469
H	-1.5764804794	-0.9259584908	-2.1650153104	 0.135667
H	-3.7829115285	-1.7257357022	-1.9194246725	 0.269993
H	-1.678081631	-0.3241894403	 2.0832844252	 0.115538
59.7763	83.1918	178.5037	208.3657	319.4005	385.3244	400.2755	481.8996	503.8904	540.6448	653.9535	710.2948	749.5627	784.926	812.8402	839.0985	934.5482	971.367	1012.518	1013.1511	1056.5485	1088.5396	1118.5571	1213.0941	1257.684	1281.8601	1354.1841	1386.8272	1411.9219	1437.8026	1462.9508	1482.9764	1497.0044	1505.3745	1566.1582	1698.5119	1814.724	3026.3284	3036.7756	3062.301	3098.0275	3109.9143	3111.6492	3184.8574	3611.2454
CCC1=CNC(=O)N=C1	CCc1c[nH]c(=O)nc1	
InChI=1S/C6H8N2O/c1-2-5-3-7-6(9)8-4-5/h3-4H,2H2,1H3,(H,7,8,9)	InChI=1S/C6H8N2O/c1-2-5-3-7-6(9)8-4-5/h3-4H,2H2,1H3,(H,7,8,9)
