14
gdb 133298	5.09499	1.05085	0.87599	3.4832	69.4	-0.23	-0.0697	0.1603	1225.6305	0.100836	-474.165672	-474.157621	-474.156677	-474.199348	28.326	
C	-0.0163049127	 1.4455178376	 0.0138892479	-0.310645
N	-0.0731410223	-0.0011260926	-0.0267079563	-0.342711
C	-1.2282432467	-0.704815603	-0.0025266073	 0.505256
N	-1.1140520448	-2.0571572046	 0.0170210737	-0.295618
C	-2.2528579128	-2.7124838645	 0.0237123644	-0.116211
C	-3.46229797	-2.0068778292	 0.0110632416	 0.309594
F	-4.6138864034	-2.6687628219	 0.0150772696	-0.064777
N	-3.5191892867	-0.7010678788	-0.0002577997	-0.219161
N	-2.3815092495	-0.0112447493	-0.0045047249	-0.283805
H	 1.0279496987	 1.7524263214	-0.0674494441	 0.126025
H	-0.5809832376	 1.8810151766	-0.8156415007	 0.150696
H	-0.4340177859	 1.8443316036	 0.9455574986	 0.14056
H	 0.7700572526	-0.5442093584	 0.0397925932	 0.259957
H	-2.2333775289	-3.7994615471	 0.040772864	 0.14084
44.4574	84.9483	147.8977	198.6399	355.9076	386.3171	405.8198	436.4353	494.8067	567.3177	570.1148	658.4514	796.8606	824.7172	869.4709	967.86	1046.6601	1096.656	1156.6072	1162.1371	1190.3539	1280.8068	1352.1999	1376.5725	1443.6429	1471.7683	1476.097	1516.9574	1556.6057	1596.0261	1632.6093	3032.0548	3090.5858	3136.1669	3163.1446	3674.2722
CNC1=NC=C(F)N=N1	CNc1ncc(F)nn1	
InChI=1S/C4H5FN4/c1-6-4-7-2-3(5)8-9-4/h2H,1H3,(H,6,7,9)	InChI=1S/C4H5FN4/c1-6-4-7-2-3(5)8-9-4/h2H,1H3,(H,6,7,9)
