13
gdb 49951	2.35543	1.27566	0.97943	2.2837	73.58	-0.264	-0.0577	0.2064	1185.8945	0.083861	-419.327817	-419.318897	-419.317952	-419.361725	31.99	
O	-0.2631378813	 0.4798873364	 0.8122224547	-0.237722
C	 0.2708025132	 0.8423131966	-0.2033409203	 0.145017
C	 1.4440007747	 1.7757814259	-0.2081594528	-0.09883
O	 2.3018158409	 1.7045558641	-1.3395666595	-0.257108
C	 1.5131542343	 2.8973206715	-1.2108996226	 0.08328
C	 0.4611395865	 3.0789764662	-2.1843174043	 0.27632
C	-0.4096975267	 3.2580259549	-2.9914658514	-0.427954
C	 2.2297019359	 4.0925930564	-0.8360041614	 0.2649
C	 2.8156023095	 5.0921747664	-0.5207055664	-0.416332
H	-0.0548334033	 0.5129607888	-1.2106859887	 0.108536
H	 1.9239715144	 1.9379348497	 0.7552224064	 0.133596
H	-1.1792631564	 3.4131754781	-3.707713251	 0.213505
H	 3.3368548183	 5.9767353451	-0.2469509928	 0.212792
81.3624	104.0201	129.3251	183.5002	209.7222	301.6409	321.3366	450.3569	469.4278	518.4837	564.9047	614.9192	637.3064	641.0278	648.0228	677.0936	679.5435	833.6687	940.3803	986.9043	1076.445	1107.1848	1213.5584	1259.1188	1341.7537	1421.0593	1826.1838	2243.6007	2247.9539	2937.9837	3145.953	3497.7284	3499.113
O=CC1OC1(C#C)C#C	O=C[C@H]1OC1(C#C)C#C	
InChI=1S/C7H4O2/c1-3-7(4-2)6(5-8)9-7/h1-2,5-6H	InChI=1S/C7H4O2/c1-3-7(4-2)6(5-8)9-7/h1-2,5-6H/t6-/m1/s1
