16
gdb 51270	5.24114	0.95202	0.86945	3.9911	71.56	-0.2575	-0.0264	0.2311	1297.9661	0.124744	-437.909845	-437.90221	-437.901266	-437.942681	28.297	
O	 0.0397037623	 0.0213572097	 0.0372591414	-0.250428
C	-0.006316091	 1.2050248909	 0.1410804576	 0.168643
O	 1.107569474	 1.9757006812	-0.1162956373	-0.229635
C	 0.9823733651	 3.3324103716	-0.1131639113	 0.422864
N	-0.1194710137	 3.9614382923	-0.1704226279	-0.288134
C	 0.1830024335	 5.3749103563	-0.0825994383	 0.011819
C	 0.7714078113	 5.8477919095	 1.220792821	-0.283945
C	 1.6907925625	 5.5499247038	 0.0585814307	-0.054449
C	 2.259828455	 4.1426262968	-0.0322485387	-0.349025
H	-0.8689810682	 1.8118570828	 0.4450893798	 0.13905
H	-0.4523755564	 6.0278709082	-0.6677660316	 0.102592
H	 0.6367232665	 6.891899892	 1.482107027	 0.121321
H	 0.7423478688	 5.1628565824	 2.0633498428	 0.11707
H	 2.2184076113	 6.3679340827	-0.4144655498	 0.099392
H	 2.8654467265	 3.8396180103	 0.8285717626	 0.136385
H	 2.8725848827	 3.9848545395	-0.927417958	 0.136478
67.1537	105.9104	171.9204	228.6925	334.9148	406.3323	473.0567	525.9604	545.0124	706.8892	769.7632	800.6269	801.1238	895.7027	913.2091	961.833	991.568	1028.5078	1050.5201	1059.5812	1075.775	1080.3395	1099.3131	1146.2046	1179.534	1194.5969	1253.7507	1326.7177	1337.9901	1372.8336	1396.8142	1467.039	1481.32	1702.3711	1877.2956	3044.6344	3074.3848	3081.9204	3123.6073	3189.4309	3195.7988	3216.1242
O=COC1=NC2CC2C1	O=COC1=N[C@H]2C[C@H]2C1	
InChI=1S/C6H7NO2/c8-3-9-6-2-4-1-5(4)7-6/h3-5H,1-2H2	InChI=1S/C6H7NO2/c8-3-9-6-2-4-1-5(4)7-6/h3-5H,1-2H2/t4-,5-/m0/s1
