23
gdb 106810	2.36371	1.44066	1.07888	1.2005	85.29	-0.2477	0.0793	0.3271	1239.6148	0.206093	-388.301597	-388.292305	-388.291361	-388.335122	36.613	
C	 0.2159628003	 1.4407349699	 0.2849816382	-0.37863
C	-0.1727314944	 0.0196660624	-0.1420809653	-0.267663
C	 0.592067028	-0.4821898437	-1.3472629653	 0.333208
C	 2.0050536313	-1.0226157214	-1.1503579621	-0.409234
C	 0.8828777953	-1.9497989134	-1.5550680487	 0.358618
O	 0.3982253355	-2.8771898019	-0.6277877383	-0.475005
C	 0.7329612352	-2.278463027	-3.0332546294	-0.268878
C	 0.8301958558	-0.9118523836	-3.7451627673	-0.231318
C	 0.2970883863	 0.1176932956	-2.7198643586	-0.267129
H	 1.2814229286	 1.4991261256	 0.532013133	 0.113888
H	 0.0213241539	 2.16699903	-0.5113750631	 0.113838
H	-0.3516059905	 1.7558761438	 1.1663156634	 0.108119
H	-0.0157092924	-0.6766132817	 0.6887295024	 0.105635
H	-1.2481840179	-0.0121769757	-0.3641276187	 0.0912
H	 2.7941809938	-0.77513143	-1.8540516195	 0.101788
H	 2.333447299	-1.1080559577	-0.119321063	 0.105955
H	 1.0657595376	-3.5617391283	-0.5127711279	 0.281023
H	 1.4768901845	-2.9962381131	-3.398725127	 0.086219
H	-0.2559501212	-2.730373516	-3.1758572187	 0.105267
H	 1.8725990023	-0.6903870488	-3.9956812999	 0.103431
H	 0.2725182006	-0.889726847	-4.6849624938	 0.098437
H	-0.7898838075	 0.2333864943	-2.8233022242	 0.096062
H	 0.7394768557	 1.1090480879	-2.8661506963	 0.095168
85.1616	141.143	193.6106	222.9273	239.6445	273.8749	290.276	348.9428	377.7398	452.3958	497.6329	562.645	600.9394	678.8167	724.9187	787.4383	813.8262	899.9604	903.7929	911.3455	926.4573	951.378	983.4261	1007.9089	1035.6281	1048.0956	1077.4414	1101.8198	1111.7975	1178.8774	1219.0062	1225.2514	1254.5097	1264.4239	1285.9585	1313.9303	1330.9135	1340.4683	1356.3446	1372.6818	1408.4199	1411.7814	1481.022	1486.6143	1491.284	1495.0346	1499.5226	1508.8435	1518.9592	3014.5062	3020.4779	3028.0983	3031.6583	3047.9101	3064.7744	3066.747	3069.3387	3098.6035	3101.4163	3101.753	3118.4934	3205.3615	3800.3918
CCC12CC1(O)CCC2	CC[C@@]12C[C@]1(O)CCC2	
InChI=1S/C8H14O/c1-2-7-4-3-5-8(7,9)6-7/h9H,2-6H2,1H3	InChI=1S/C8H14O/c1-2-7-4-3-5-8(7,9)6-7/h9H,2-6H2,1H3/t7-,8-/m1/s1
