19
gdb 78171	2.07332	1.78008	1.24753	4.4964	75.3	-0.2587	0.0128	0.2715	1090.7528	0.159742	-423.072341	-423.064004	-423.06306	-423.105093	31.971	
C	-0.0761222372	 1.545614006	 0.0202904709	-0.427449
C	 0.0592758665	 0.0397931651	-0.0606291372	-0.029523
C	 0.737069655	-0.6942200808	-1.1796979209	-0.083164
C	 1.3593846752	-0.714035416	 0.1991017282	-0.211022
C	 2.6177558465	 0.0853935814	 0.0954548281	 0.43588
O	 3.4618974269	 0.2656681848	 0.9250154773	-0.347418
O	 2.7043900993	 0.629859215	-1.1586471657	-0.237964
C	 1.7068928866	 0.0900294956	-2.0565828928	 0.103891
C	 2.3923253518	-0.7664499812	-3.1122779016	-0.398907
H	 0.8075475539	 2.0653966856	-0.3566762385	 0.145614
H	-0.9408684131	 1.8827502968	-0.5616005558	 0.120872
H	-0.229223817	 1.8604457669	 1.0572370896	 0.130768
H	-0.7989546437	-0.4932885896	 0.3413813104	 0.100312
H	 0.2733338676	-1.5748836376	-1.6086775845	 0.099621
H	 1.3672995168	-1.5652926631	 0.8661441337	 0.115945
H	 1.2235500644	 0.9516558665	-2.5311409327	 0.097434
H	 2.8656129349	-1.6406690717	-2.6544950555	 0.128991
H	 1.661788375	-1.1126820492	-3.8506956326	 0.120279
H	 3.1613374606	-0.1878859845	-3.6299867604	 0.135839
120.4308	127.1194	198.5061	210.6695	240.9961	293.9565	376.2641	423.0462	477.0205	549.0017	642.4278	692.7931	756.8647	782.8319	806.3376	848.2301	916.2678	935.745	972.3439	997.0302	1020.7404	1055.8544	1081.686	1101.5351	1131.4205	1134.8232	1159.3498	1184.5139	1218.2951	1320.82	1338.2607	1360.6252	1393.4646	1409.03	1422.3062	1433.8179	1487.0719	1495.3671	1502.1981	1503.7821	1876.1833	3039.4502	3040.4889	3042.7182	3099.3393	3113.4238	3123.8151	3127.7002	3142.7509	3179.1347	3210.9564
CC1C2C1C(=O)OC2C	C[C@H]1[C@@H]2[C@H]1C(=O)O[C@H]2C	
InChI=1S/C7H10O2/c1-3-5-4(2)9-7(8)6(3)5/h3-6H,1-2H3	InChI=1S/C7H10O2/c1-3-5-4(2)9-7(8)6(3)5/h3-6H,1-2H3/t3-,4-,5-,6-/m0/s1
