22
gdb 14740	9.95526	0.5274	0.51032	0.1804	88.67	-0.2392	0.0651	0.3043	2226.9078	0.197848	-313.062573	-313.051695	-313.050751	-313.10038	36.759	
C	-0.0340258347	 1.6032742413	-0.0143043269	-0.379139
C	-0.0016814352	 0.0724743455	-0.0037269363	-0.16972
C	 0.7257408919	-0.5070662539	 1.2143865265	-0.155718
C	 0.7608618324	-2.0378434934	 1.2294793031	-0.167633
C	 1.4957859999	-2.605143655	 2.4612012113	-0.357718
C	 1.5359538802	-4.0634820648	 2.4879761093	 0.027311
C	 1.5537808443	-5.2677249246	 2.4832128752	 0.104471
C	 1.5835469271	-6.7236617139	 2.4890528562	-0.496824
H	 0.9791221997	 2.0206706051	-0.0231621471	 0.113091
H	-0.5592384004	 1.9867257524	-0.8947197044	 0.110904
H	-0.5430989759	 1.9947094253	 0.8736102915	 0.113091
H	-1.0282732176	-0.3164461592	-0.0301790543	 0.095266
H	 0.4824103285	-0.2906714179	-0.9200402056	 0.095263
H	 1.7535488089	-0.1177925471	 1.2417471461	 0.091408
H	 0.2417686008	-0.1436661056	 2.1322050817	 0.091411
H	-0.261020235	-2.4357558451	 1.2116504503	 0.104081
H	 1.2507882742	-2.4098862094	 0.3214865039	 0.104072
H	 2.5198543872	-2.2074370259	 2.484984368	 0.121638
H	 1.0102041006	-2.2328812054	 3.3739180307	 0.121626
H	 2.1140591438	-7.1083878912	 3.3674921707	 0.144923
H	 0.5718605983	-7.1447651325	 2.5052641278	 0.144084
H	 2.089850311	-7.1175014251	 1.6004384423	 0.144111
29.2411	45.9161	64.9788	91.8085	130.2233	165.5019	221.4046	252.4654	275.2551	346.4849	388.3302	395.8525	524.6399	730.1423	754.559	766.3948	842.2896	903.9529	969.4881	1002.8936	1035.8577	1054.3823	1054.4879	1068.4277	1126.945	1132.1374	1168.3751	1230.1957	1258.0324	1291.7024	1323.1224	1330.3953	1330.7724	1378.5141	1397.0801	1413.3023	1415.8492	1473.5594	1479.6068	1480.3264	1482.2673	1488.4977	1500.903	1502.2394	1512.6903	2372.9271	2998.8802	3004.5582	3014.0975	3023.3319	3023.698	3028.9155	3029.4674	3031.8381	3048.9423	3075.9054	3082.3378	3082.6295	3095.3595	3101.0652
CCCCCC#CC	CCCCCC#CC	
InChI=1S/C8H14/c1-3-5-7-8-6-4-2/h3,5,7-8H2,1-2H3	InChI=1S/C8H14/c1-3-5-7-8-6-4-2/h3,5,7-8H2,1-2H3
