16
gdb 24439	3.47199	1.64097	1.15727	2.2097	69.73	-0.2073	0.0174	0.2247	1009.6139	0.127976	-437.924606	-437.917989	-437.917044	-437.955638	26.124	
C	 0.0008538673	 1.5100411705	-0.0021874379	-0.229015
C	 1.4328760681	 2.057995014	 0.0651163382	-0.083441
O	 2.1373280171	 1.6500353627	 1.2628830358	-0.262742
C	 1.8970267033	 0.3618485072	 1.5125008106	 0.395603
C	 0.9773706078	-0.486539054	 0.9955241736	 0.121287
C	-0.0346604579	-0.036987012	-0.0060297656	-0.331582
N	 1.1573817223	-1.730443706	 1.5998885525	-0.316649
C	 2.1413747337	-1.5536106465	 2.415313165	 0.035772
O	 2.6604445788	-0.2819570139	 2.4233030447	-0.189695
H	-0.5564643793	 1.8881379901	 0.8621111145	 0.12258
H	-0.4768475138	 1.9166251462	-0.8993122859	 0.110341
H	 2.0159942285	 1.7170133463	-0.8006181202	 0.117576
H	 1.4426539333	 3.1489841088	 0.0886771483	 0.125776
H	-1.037808724	-0.3924275873	 0.2526114275	 0.122383
H	 0.1859108945	-0.4287422766	-1.0076936651	 0.114268
H	 2.6028878602	-2.2574411897	 3.087975914	 0.147538
122.8162	221.0809	306.472	345.368	404.3478	459.911	528.1983	658.6444	683.714	709.2386	725.7158	776.1685	864.273	885.0955	913.4904	943.5703	995.607	1054.0398	1088.7695	1095.5526	1162.5587	1201.0917	1220.1683	1271.8698	1286.4955	1298.4834	1354.5929	1367.4728	1396.6647	1452.5125	1476.1387	1493.7604	1504.8326	1550.6626	1696.5382	3017.8934	3023.9904	3045.5936	3068.7566	3093.9277	3121.0091	3287.8382
C1COC2=C(C1)N=CO2	C1COc2c(C1)nco2	
InChI=1S/C6H7NO2/c1-2-5-6(8-3-1)9-4-7-5/h4H,1-3H2	InChI=1S/C6H7NO2/c1-2-5-6(8-3-1)9-4-7-5/h4H,1-3H2
