12
gdb 132937	3.20908	1.4042	0.97679	3.7995	59.94	-0.2473	-0.0484	0.199	1059.695	0.079008	-513.996136	-513.989108	-513.988164	-514.02785	26.3	
F	-0.0157216931	-0.0095573109	 0.0036945294	-0.05377
C	-0.0378658375	 1.3177843054	 0.0110744783	 0.095489
C	-1.1932217808	 2.0026170063	 0.0296143862	-0.07173
N	-1.1992253878	 3.3796600547	 0.0369892621	-0.381111
C	-0.0520121552	 4.160632865	 0.0263879711	 0.497934
O	-0.0725015842	 5.3701039169	 0.0329050524	-0.384076
N	 1.1095880874	 3.4024088546	 0.0072733102	-0.437738
C	 1.2547209209	 2.0051405635	-0.0019336122	 0.367157
O	 2.3416820169	 1.4751692998	-0.0189271346	-0.353761
H	-2.1552472658	 1.5070020433	 0.0393624467	 0.159654
H	-2.0661660938	 3.892555163	 0.0508933185	 0.281982
H	 1.9717210431	 3.9316737183	-0.001120668	 0.279969
117.3276	155.0159	300.3439	350.7015	387.1166	388.8798	453.3662	535.1978	547.4992	630.8591	684.3014	743.157	764.1483	777.3189	817.8149	905.5631	966.5074	1159.0987	1184.5844	1282.7334	1349.8405	1394.473	1425.5889	1496.8145	1723.1131	1809.7654	1839.3266	3224.593	3608.4307	3656.8946
FC1=CNC(=O)NC1=O	Fc1c[nH]c(=O)[nH]c1=O	
InChI=1S/C4H3FN2O2/c5-2-1-6-4(9)7-3(2)8/h1H,(H2,6,7,8,9)	InChI=1S/C4H3FN2O2/c5-2-1-6-4(9)7-3(2)8/h1H,(H2,6,7,8,9)
