18
gdb 67023	2.17439	2.15007	1.61482	2.2974	75.89	-0.225	-0.0027	0.2223	928.4041	0.147593	-401.906537	-401.898825	-401.897881	-401.938033	31.257	
C	-0.1331319138	 1.5046360533	-0.0046192167	-0.52219
C	 0.0884464427	 0.0275212004	 0.0429894719	 0.268334
C	 0.8989009205	-0.8374292932	-0.8435533006	-0.118933
C	 1.7515041386	-1.7225099479	-0.0163993934	-0.075198
C	 1.3009867829	-1.7289470034	 1.2457890651	-0.202767
C	 0.0300544892	-0.9228290484	 1.3043114296	 0.310722
O	-0.4281699865	-0.4664375076	 2.5400254396	-0.489446
C	-1.0225255092	-1.7003356225	 0.4562975809	-0.169243
N	-0.6449911641	-0.9749432359	-0.7872598118	-0.198429
H	 0.7275640741	 2.0487122321	 0.4006290009	 0.120232
H	-0.2915583954	 1.8291542761	-1.0373493052	 0.134449
H	-1.015008446	 1.7830286879	 0.581899771	 0.134194
H	 1.2048820227	-0.5071837069	-1.8290679518	 0.09598
H	 2.5630606629	-2.3162823605	-0.4173832238	 0.105005
H	 1.6348454617	-2.3610150444	 2.060632273	 0.104781
H	 0.3173184466	-0.0869462205	 3.0175886208	 0.281689
H	-0.9590062599	-2.7926252494	 0.4275682236	 0.098056
H	-2.032239807	-1.3797210793	 0.7244717068	 0.122764
170.7396	198.6016	204.1035	292.1317	341.1676	355.4657	418.1568	461.4375	548.7382	599.2365	612.87	686.6375	725.9581	758.1988	797.5747	830.9896	905.4788	911.6129	939.7778	980.3865	989.0639	1026.9438	1055.7801	1102.7164	1115.1497	1127.9532	1154.3091	1204.3722	1261.6667	1266.3544	1293.6928	1348.67	1372.8923	1393.4087	1432.6918	1478.8066	1488.8963	1492.0321	1632.1991	3030.098	3047.046	3094.2843	3112.4711	3115.9533	3185.6034	3195.0669	3222.2375	3806.1283
CC12C3C=CC1(O)CN23	C[C@@]12[C@H]3C=C[C@]1(O)CN23	
InChI=1S/C7H9NO/c1-6-5-2-3-7(6,9)4-8(5)6/h2-3,5,9H,4H2,1H3	InChI=1S/C7H9NO/c1-6-5-2-3-7(6,9)4-8(5)6/h2-3,5,9H,4H2,1H3/t5-,6-,7+,8?/m1/s1
