22
gdb 61917	3.48903	0.70715	0.61857	4.2844	87.33	-0.2864	0.0388	0.3253	1807.5466	0.193355	-367.225126	-367.21496	-367.214016	-367.261153	36.878	
C	-0.1904762086	 1.4206830997	 0.1315204845	-0.399683
C	 0.0355810425	-0.0908840744	-0.0254760833	 0.00354
C	 0.7629276558	-0.4522024525	-1.334284927	-0.177095
C	-0.0374385634	-0.1023235583	-2.6062695758	-0.355013
C	 0.6405665035	-0.5362946828	-3.825777391	 0.258951
N	 1.1911323999	-0.8857839939	-4.7799203384	-0.306377
C	 0.8039862542	-0.6439680572	 1.1631197841	 0.036731
C	 0.0892427904	-0.9917441498	 2.4432930316	-0.278217
C	 0.6563728493	-2.0871863407	 1.572256164	-0.275667
H	 0.7636889026	 1.9605627352	 0.1184731102	 0.117341
H	-0.8188641016	 1.8339301804	-0.6634985772	 0.112028
H	-0.681360185	 1.6372318994	 1.0847824548	 0.123483
H	-0.9475686938	-0.5856516539	-0.0405877097	 0.068263
H	 1.7326819104	 0.0587906154	-1.3719511986	 0.115385
H	 0.9766874294	-1.5258073639	-1.3399786081	 0.122408
H	-1.0261023148	-0.5761601962	-2.5732907493	 0.148937
H	-0.2089578366	 0.9767538802	-2.6779020452	 0.153708
H	 1.79914413	-0.2184052352	 1.2782260125	 0.081853
H	 0.5778055963	-0.7759226406	 3.3869097128	 0.113776
H	-0.9897706317	-0.8757115796	 2.4670590383	 0.110468
H	-0.0454013787	-2.7014241372	 1.0166896093	 0.110164
H	 1.53339068	-2.6222352642	 1.9188027116	 0.115016
54.6519	75.2502	102.5662	107.8209	201.8076	215.2669	255.2076	291.5487	367.972	399.0468	437.785	460.5934	565.2139	756.5085	769.1348	817.1469	830.009	889.5186	930.2251	945.3198	951.6603	969.8513	1004.8995	1030.9622	1057.7931	1079.5936	1118.9212	1136.9875	1140.0428	1192.5307	1198.546	1226.153	1227.8187	1277.5895	1314.1808	1319.2979	1359.0052	1382.6534	1410.9773	1419.9702	1468.0286	1470.246	1490.8247	1497.7382	1502.8931	1507.0429	2361.4674	2988.0583	3030.0172	3034.8428	3044.7651	3073.4416	3094.6384	3097.5264	3109.1241	3122.7251	3127.5995	3132.8387	3206.1604	3221.0839
CC(CCC#N)C1CC1	C[C@@H](CCC#N)C1CC1	
InChI=1S/C8H13N/c1-7(3-2-6-9)8-4-5-8/h7-8H,2-5H2,1H3	InChI=1S/C8H13N/c1-7(3-2-6-9)8-4-5-8/h7-8H,2-5H2,1H3/t7-/m0/s1
