12
gdb 33333	3.12428	0.87859	0.71517	4.2771	79.79	-0.2791	-0.0634	0.2156	1457.89	0.075212	-398.266034	-398.257628	-398.256684	-398.300016	29.503	
C	-0.2530247429	-1.1867955159	 0.0063324412	-0.387343
C	-0.1145139552	 0.0062547912	 0.018784525	 0.336638
C	 0.0178127963	 1.4344975962	 0.0049587018	-0.153933
O	 0.5464218471	 2.0746638645	 1.1699589066	-0.211907
C	 1.3493268978	 2.1115193441	-0.0109153178	-0.210346
C	 2.5725417937	 1.3636287281	-0.0048301903	 0.108682
C	 3.6184183055	 0.75958299	-0.0230303251	 0.147754
C	 4.7953374987	 0.0689334427	-0.0406561871	 0.205996
N	 5.7974417385	-0.5183460476	-0.0584942947	-0.328164
H	-0.3670120462	-2.2434011472	 0.003563422	 0.2164
H	-0.7993412413	 1.9798289857	-0.4665045987	 0.136106
H	 1.4063473483	 3.0877276482	-0.4917843728	 0.140116
55.2407	97.7015	147.7354	203.0396	255.658	261.4279	417.1115	483.3201	541.898	566.0883	575.401	609.4027	652.5725	686.2543	726.8828	840.7151	855.9288	976.6028	1069.5061	1108.8693	1184.0109	1268.9869	1370.5706	1410.0828	2246.9892	2268.2298	2398.8636	3113.3778	3122.6742	3498.9084
C#CC1OC1C#CC#N	C#C[C@H]1O[C@H]1C#CC#N	
InChI=1S/C7H3NO/c1-2-6-7(9-6)4-3-5-8/h1,6-7H	InChI=1S/C7H3NO/c1-2-6-7(9-6)4-3-5-8/h1,6-7H/t6-,7+/m1/s1
