17
gdb 23555	2.18311	1.49634	0.97134	1.802	72.58	-0.239	-0.0061	0.2329	1186.9626	0.135188	-455.038793	-455.030169	-455.029225	-455.072326	32.113	
O	 0.9431548254	-0.9477197503	 0.6753348662	-0.416507
C	 0.1803628448	-0.0499729224	-0.1102263763	-0.082114
C	-1.2943724649	-0.4131180896	-0.0617516566	-0.072701
N	-1.9709791753	-0.3216899849	 1.3034652794	-0.153311
C	-2.0532708602	 1.1057733041	 1.6475710172	-0.249292
C	-3.0395588725	 0.5782975714	 0.6721874164	-0.123306
C	-2.3954200224	 0.4473852168	-0.6575922917	 0.411464
N	-2.7996193151	 0.7694403901	-1.8129887005	-0.260672
O	-1.8713147886	 0.3645993113	-2.7904409875	-0.393785
H	 0.5396627879	-0.9776445818	 1.5503228662	 0.295036
H	 0.3457156118	 0.9943759292	 0.1951320999	 0.088925
H	 0.5331346767	-0.1437970223	-1.1412867849	 0.135465
H	-1.4060870103	-1.4460890392	-0.408975616	 0.125373
H	-2.408232252	 1.2707244317	 2.6603947556	 0.134387
H	-1.2850777195	 1.7996183631	 1.3184125856	 0.128292
H	-4.0960189262	 0.477211214	 0.8907881048	 0.121794
H	-2.2985926897	 0.6435885487	-3.6073738077	 0.310953
81.8668	119.0648	139.7697	199.9376	294.8551	311.7853	358.4625	388.8037	420.8698	519.5144	558.5996	602.74	703.2188	739.9245	780.0419	884.7947	908.7766	979.872	1000.8364	1034.9237	1052.9749	1073.0434	1104.0808	1116.4556	1145.7279	1180.1253	1212.136	1224.4494	1251.2378	1318.7391	1322.4793	1386.5302	1416.3571	1424.6235	1494.3025	1513.8871	1793.3007	2992.6134	3060.2805	3094.0449	3118.845	3189.4462	3207.033	3800.0535	3819.0736
OCC1N2CC2C1=NO	OC[C@H]1N2C[C@H]2C1=NO	
InChI=1S/C5H8N2O2/c8-2-4-5(6-9)3-1-7(3)4/h3-4,8-9H,1-2H2	InChI=1S/C5H8N2O2/c8-2-4-5(6-9)3-1-7(3)4/h3-4,8-9H,1-2H2/t3-,4+,7?/m0/s1
