15
gdb 133048	4.98954	1.00399	0.84028	3.0631	71.69	-0.2298	-0.0304	0.1994	1275.0719	0.11317	-461.964106	-461.956592	-461.955648	-461.99644	28.098	
C	 0.0668321332	 1.3961328701	 0.0069923208	-0.24867
O	-0.0035438564	-0.0191494481	 0.0030388816	-0.266309
C	-1.2333242896	-0.5944955057	 0.0107716645	 0.346907
C	-2.4477123739	 0.091492017	 0.022482594	-0.123829
N	-3.6345250489	-0.5339803831	 0.0297243045	-0.311282
C	-3.6358700533	-1.8413917154	 0.0254961475	 0.332206
F	-4.8283203399	-2.438713182	 0.032861395	-0.079222
C	-2.4919538374	-2.6404074929	 0.0139635436	-0.256374
C	-1.2700915651	-1.9956932152	 0.0065103449	-0.148578
H	 1.1285303117	 1.646560252	-0.0005264089	 0.140201
H	-0.4129381919	 1.8261354139	-0.8814736409	 0.130112
H	-0.3989367949	 1.8204512589	 0.9055837453	 0.130112
H	-2.4858650206	 1.1749370879	 0.0262936809	 0.113004
H	-2.5747512887	-3.7201143793	 0.0111024279	 0.119662
H	-0.3364004642	-2.546376668	-0.0025731523	 0.122061
80.4194	153.5022	229.3894	247.4735	386.5413	387.8395	452.0081	475.0195	527.7793	550.3715	646.6669	752.018	766.8847	859.6166	876.5433	919.3058	976.5123	1027.119	1071.0925	1131.8805	1177.191	1209.7219	1280.7132	1305.0633	1323.476	1345.7205	1421.1237	1478.5594	1489.756	1504.4183	1533.465	1620.9772	1647.8166	3006.6637	3067.5736	3138.8551	3191.3717	3199.365	3216.1069
COC1=CN=C(F)C=C1	COc1cnc(F)cc1	
InChI=1S/C6H6FNO/c1-9-5-2-3-6(7)8-4-5/h2-4H,1H3	InChI=1S/C6H6FNO/c1-9-5-2-3-6(7)8-4-5/h2-4H,1H3
