16
gdb 36335	5.20448	0.78665	0.71997	4.5083	74.19	-0.2671	-0.0014	0.2657	1482.0741	0.125202	-396.930956	-396.922422	-396.921478	-396.9651	30.424	
N	-0.3479112396	-0.9448145982	 0.7649959371	-0.295647
C	-0.2517275388	 0.1759072545	 0.5000603291	 0.258421
C	-0.0798185364	 1.58941707	 0.1728499355	-0.362071
C	 1.3047154912	 1.8698976209	-0.4507262899	 0.050902
C	 1.6884438931	 3.3734128983	-0.440777527	-0.271255
C	 2.5931431502	 3.0243156969	 0.7813410979	-0.113234
N	 2.468340885	 1.6001800141	 0.4150112223	-0.301486
C	 3.9589323285	 3.5509215858	 0.7871627923	 0.295138
N	 5.0286764387	 3.9875768503	 0.7934965179	-0.314424
H	-0.8676907567	 1.8947601119	-0.5256154062	 0.160908
H	-0.2167504534	 2.1774393922	 1.0883424927	 0.15189
H	 1.3655267664	 1.360531174	-1.4173082563	 0.110032
H	 2.2650501993	 3.673518948	-1.3147437066	 0.146525
H	 0.8902123885	 4.0932948241	-0.258600143	 0.124816
H	 2.1209287635	 3.3029671377	 1.7335031309	 0.117662
H	 2.3547085005	 0.9305607996	 1.1684951033	 0.241823
54.2638	81.1193	132.1096	173.4479	236.5113	335.112	381.1164	397.1561	529.7995	556.4342	565.2412	620.2313	765.9385	826.709	879.8709	943.7209	946.471	992.7857	999.6717	1061.1717	1085.2667	1109.0914	1150.7432	1223.4662	1239.2425	1259.5606	1288.2102	1333.4729	1354.8421	1371.5318	1417.3936	1460.8159	1485.6968	2360.1784	2361.4915	3004.9654	3037.1713	3056.5537	3082.4759	3097.8341	3161.251	3537.1382
N#CCC1CC(N1)C#N	N#CC[C@H]1C[C@@H](N1)C#N	
InChI=1S/C6H7N3/c7-2-1-5-3-6(4-8)9-5/h5-6,9H,1,3H2	InChI=1S/C6H7N3/c7-2-1-5-3-6(4-8)9-5/h5-6,9H,1,3H2/t5-,6+/m0/s1
