19
gdb 100639	2.16524	1.23248	1.10096	2.7465	73.43	-0.254	0.0394	0.2934	1226.2045	0.154952	-460.109445	-460.098848	-460.097904	-460.14447	39.637	
C	-0.1769613173	 1.5014535552	 0.2446012596	-0.43324
C	 0.0249915879	 0.0220104303	-0.1214295123	 0.147192
O	 0.950322574	-0.4939678312	 0.8321909347	-0.460505
C	-1.2620714696	-0.6890594722	-0.0238139934	 0.355257
C	-2.305709976	-1.2803637938	 0.0525310475	-0.485061
C	 0.5776372769	-0.1493810908	-1.5827635807	 0.078446
O	-0.0806928239	 0.6918355583	-2.5090355353	-0.428491
C	 2.1022235209	 0.0031977512	-1.6706969265	-0.137731
O	 2.6795180348	-1.2099647576	-1.1802407284	-0.416502
H	 0.7498845887	 2.0654055849	 0.0932822359	 0.1091
H	-0.986009249	 1.9491941586	-0.3365207103	 0.13007
H	-0.4372590102	 1.5657010746	 1.3029690104	 0.144643
H	 1.4977460493	-1.1611954006	 0.3931980396	 0.289834
H	-3.2256859081	-1.8058774129	 0.1250812171	 0.194154
H	 0.3515956504	-1.1696939393	-1.9085681497	 0.117673
H	 0.0775889945	 1.6070201516	-2.2543252679	 0.286313
H	 2.3612646914	 0.1605978297	-2.7257645114	 0.109044
H	 2.451237352	 0.8684700974	-1.0901236358	 0.101017
H	 3.6145917134	-1.0611466335	-1.0110744429	 0.298787
52.2618	136.7296	163.414	188.1315	239.454	250.6246	266.0002	287.552	326.718	358.8752	380.2108	397.2202	468.7231	487.5223	511.6032	560.0887	609.9621	630.175	653.5013	708.6603	887.5563	936.5264	1008.7754	1020.2406	1059.098	1112.8882	1119.4822	1154.582	1189.5666	1214.001	1255.6969	1302.8105	1361.444	1394.8459	1421.443	1435.3807	1450.611	1489.0846	1496.8328	1512.1593	2230.6569	3001.4098	3041.0129	3046.1633	3072.3633	3119.1092	3140.7509	3502.1379	3716.0666	3811.7499	3833.9792
CC(O)(C#C)C(O)CO	C[C@@](O)(C#C)[C@@H](O)CO	
InChI=1S/C6H10O3/c1-3-6(2,9)5(8)4-7/h1,5,7-9H,4H2,2H3	InChI=1S/C6H10O3/c1-3-6(2,9)5(8)4-7/h1,5,7-9H,4H2,2H3/t5-,6+/m0/s1
