18
gdb 110344	2.33002	1.47533	1.37861	3.3106	72.97	-0.2344	0.0132	0.2476	1069.8944	0.146477	-439.061265	-439.052334	-439.05139	-439.095192	32.092	
C	 0.1019890325	 0.7497155917	-0.4058620822	-0.245634
O	-0.4685617574	-0.2136764462	 0.4683378558	-0.235249
C	 0.4242253694	-0.7025855703	 1.404321638	 0.114895
C	 0.315403965	-2.1156330553	 1.8648080418	-0.076619
C	 1.5368916201	-1.6938325283	 1.0399833048	-0.310595
C	 0.9754818124	-2.6207770441	-0.0355676298	 0.427188
O	 1.2585688025	-2.907656189	-1.1664818985	-0.368085
N	-0.0881494036	-3.0089900402	 0.7799502241	-0.086543
C	-1.4413854499	-3.2939557448	 0.3429666344	-0.346216
H	 0.925496425	 0.3168197993	-0.9875288193	 0.13603
H	-0.6915699484	 1.0704635745	-1.0831408925	 0.134959
H	 0.474790326	 1.6223003606	 0.1496452016	 0.109658
H	 0.727885372	 0.0211158024	 2.1667685355	 0.099182
H	 0.2676922625	-2.4340952302	 2.8986782675	 0.114438
H	 2.5681227076	-1.5676988935	 1.3375957494	 0.11709
H	-1.3772970202	-3.7554687742	-0.6454116583	 0.153864
H	-1.9270855573	-3.9978957564	 1.0255741037	 0.12378
H	-2.0432610382	-2.3803908959	 0.2733480241	 0.137856
72.5165	122.8536	147.9253	155.4559	206.3211	233.6408	257.0084	337.9212	475.04	506.0061	642.4067	718.6231	737.2138	775.769	830.922	852.5678	932.4771	964.0963	979.5432	1032.9556	1062.9254	1078.5368	1113.0189	1151.6096	1177.5357	1192.3767	1236.4576	1246.1864	1266.7804	1280.701	1366.2582	1411.6245	1444.5402	1484.7879	1487.8826	1488.4297	1503.6548	1511.7856	1883.4013	2996.8929	3027.737	3061.6156	3065.2063	3093.224	3130.6291	3133.164	3193.6308	3224.0786
COC1C2C1C(=O)N2C	CO[C@H]1[C@@H]2[C@H]1C(=O)N2C	
InChI=1S/C6H9NO2/c1-7-4-3(6(7)8)5(4)9-2/h3-5H,1-2H3	InChI=1S/C6H9NO2/c1-7-4-3(6(7)8)5(4)9-2/h3-5H,1-2H3/t3-,4+,5-/m1/s1
