14
gdb 12409	3.15775	2.23488	1.42812	2.9003	53.21	-0.2831	-0.0067	0.2764	823.685	0.108064	-456.838417	-456.831468	-456.830524	-456.869882	25.451	
O	 0.4509102939	 0.6008107531	 0.8770864168	-0.43736
C	-0.1175520773	-0.2560138086	-0.0682344178	-0.035657
C	-1.6171582389	 0.0599488903	-0.2762406203	-0.09193
O	-2.0639787965	-0.3139948204	-1.5828702947	-0.229678
C	-1.2785468967	-1.283186868	-2.1769146397	 0.010193
O	 0.0554103423	-0.7940908189	-2.4318610878	-0.212523
C	 0.6314969275	-0.1655529408	-1.3945834901	 0.413353
O	 1.6776970623	 0.4202276173	-1.4988997707	-0.347945
H	 1.2618666673	 0.938382449	 0.4635214431	 0.30137
H	-0.0205826011	-1.3049729503	 0.2625825743	 0.111477
H	-2.2249984569	-0.4428904231	 0.4856088158	 0.117703
H	-1.7569454402	 1.1392588663	-0.1829058082	 0.142083
H	-1.2052808063	-2.2013779453	-1.5741835977	 0.111746
H	-1.6981228292	-1.5068702806	-3.1574102231	 0.14717
86.9032	129.9775	301.3592	328.1259	390.5339	403.94	467.1844	486.3532	581.497	647.5399	765.2736	799.42	970.1191	991.2958	1039.6686	1075.761	1114.1798	1132.0156	1186.5272	1230.6727	1260.9985	1287.9956	1298.8781	1357.1162	1398.5415	1444.5628	1452.9422	1515.0299	1527.1208	1843.2386	2950.8702	2990.6071	3033.3326	3112.658	3141.7753	3690.4212
OC1COCOC1=O	O[C@H]1COCOC1=O	
InChI=1S/C4H6O4/c5-3-1-7-2-8-4(3)6/h3,5H,1-2H2	InChI=1S/C4H6O4/c5-3-1-7-2-8-4(3)6/h3,5H,1-2H2/t3-/m0/s1
