17
gdb 85306	2.49281	1.85432	1.33352	4.2949	67.79	-0.2487	-0.0014	0.2473	982.5921	0.137029	-458.983129	-458.975761	-458.974817	-459.014887	28.695	
C	-0.2526611289	 1.5512708712	 0.1428884512	-0.402635
C	 0.0766478751	 0.0722452184	 0.0068971362	 0.134246
O	 0.9284613699	-0.0939101796	-1.1623933797	-0.25894
C	 2.1819813962	-0.5987069733	-1.0253932646	 0.447282
O	 2.8999529592	-0.7304024648	-1.975584972	-0.332342
C	 2.5263532653	-0.9941122629	 0.4038223026	-0.05494
C	 1.3898582561	-1.8807321819	 0.9548654035	-0.269499
C	 0.7728623957	-0.4973412212	 1.239150194	 0.068086
O	 2.1074013856	 0.0863700805	 1.284128225	-0.286586
H	 0.6459166458	 2.1078790912	 0.4205028752	 0.146645
H	-0.6333167534	 1.941188519	-0.803769517	 0.137453
H	-1.0154676833	 1.7020163004	 0.9134527396	 0.118137
H	-0.8309956529	-0.5072205489	-0.20285682	 0.098194
H	 3.575329636	-1.2686262678	 0.5054838445	 0.111567
H	 0.8740107674	-2.5596521544	 0.2729312994	 0.123641
H	 1.6860591617	-2.3951469178	 1.8693257672	 0.125749
H	 0.1987390443	-0.3271648681	 2.1533469347	 0.093942
116.8776	161.7833	244.0968	270.9514	346.6771	416.5463	447.3175	473.4989	549.3932	678.2025	727.5788	774.9303	826.2986	889.6944	927.8654	929.2385	949.8773	971.6963	1014.0002	1038.1358	1056.4033	1102.6456	1140.152	1155.5195	1211.3743	1222.7566	1261.1434	1297.7581	1309.6238	1333.0375	1375.594	1385.2759	1405.7466	1485.3824	1489.5603	1501.0583	1863.6089	3035.3973	3047.4131	3078.743	3089.0161	3122.3522	3137.2599	3139.3964	3147.7441
CC1OC(=O)C2CC1O2	C[C@H]1OC(=O)[C@@H]2C[C@H]1O2	
InChI=1S/C6H8O3/c1-3-4-2-5(9-4)6(7)8-3/h3-5H,2H2,1H3	InChI=1S/C6H8O3/c1-3-4-2-5(9-4)6(7)8-3/h3-5H,2H2,1H3/t3-,4-,5+/m1/s1
