19
gdb 84362	2.6189	1.51982	1.22413	2.3586	77.52	-0.2427	-0.0118	0.2309	1107.6499	0.158601	-419.270119	-419.260674	-419.25973	-419.304136	34.222	
C	-0.0123002204	 1.4732730653	 0.0115272424	-0.354145
N	 0.0101632233	 0.0265939594	-0.0109062907	-0.10413
C	 0.0416552104	-0.8100517007	-1.124681818	 0.047465
N	 0.0572670741	-2.0649498023	-0.8965759381	-0.276903
C	 0.0350531423	-2.2157494055	 0.5735394457	 0.137574
C	-1.2288705517	-2.9699142539	 1.0084858765	-0.402692
C	 1.3065161141	-2.930691687	 1.0507316786	-0.402683
C	 0.0036491812	-0.7775333067	 1.1236236341	 0.395594
O	-0.021543616	-0.3903676642	 2.2691611376	-0.391275
H	 0.8826334058	 1.8938607112	-0.4586632803	 0.138432
H	-0.8988610183	 1.8664233061	-0.4966427583	 0.138402
H	-0.0391520672	 1.773803486	 1.0609243483	 0.171915
H	 0.0513345528	-0.3663480225	-2.116265038	 0.134062
H	-1.2065831504	-3.9896602733	 0.6156191336	 0.127609
H	-1.2835590697	-3.0023636261	 2.1001194461	 0.135301
H	-2.1290520089	-2.4771461016	 0.6303346964	 0.121285
H	 2.2031334343	-2.4098580671	 0.702940594	 0.121279
H	 1.3255766158	-2.9624705174	 2.1435867941	 0.135292
H	 1.3290846584	-3.9502574599	 0.6574158959	 0.127619
84.5332	107.3113	160.1334	203.0613	227.6717	237.5715	275.8859	291.648	319.0658	325.7966	527.1609	583.4219	608.6039	707.2097	761.236	766.1892	885.6812	942.367	955.9276	959.1525	1026.0648	1028.2002	1060.2546	1155.2048	1189.17	1194.7095	1258.6797	1304.4793	1320.1058	1388.9173	1393.9265	1413.4013	1456.86	1476.648	1481.0755	1494.3442	1495.8404	1505.1381	1509.5394	1677.8259	1826.2988	3033.4515	3042.588	3045.7093	3093.4175	3118.2518	3120.4147	3126.5706	3131.0484	3140.5615	3179.5113
CN1C=NC(C)(C)C1=O	CN1C=NC(C)(C)C1=O	
InChI=1S/C6H10N2O/c1-6(2)5(9)8(3)4-7-6/h4H,1-3H3	InChI=1S/C6H10N2O/c1-6(2)5(9)8(3)4-7-6/h4H,1-3H3
