19
gdb 80979	2.29444	1.79276	1.606	1.8883	75.55	-0.2302	0.0128	0.2431	975.5549	0.159036	-423.015843	-423.007659	-423.006715	-423.047871	32.482	
C	-0.0068867263	 1.4848852217	-0.0232162829	-0.49859
C	-0.0465576521	-0.0222937441	 0.0263748685	 0.342711
O	 0.2631013709	-0.6520678811	-1.2683550114	-0.330597
C	-0.5802809039	-1.7713941918	-0.8857827846	 0.02998
C	 0.2204925545	-2.755974717	-0.0237227854	-0.262657
C	 0.9884612743	-1.982046914	 1.0241766673	-0.064643
C	 0.8508738996	-0.6590619519	 1.07212731	-0.065975
C	-1.3992370545	-0.7813078352	-0.0186350628	 0.069681
O	-1.9635824061	-1.1764042485	 1.2026639977	-0.426203
H	 1.0165593901	 1.8384287025	-0.1866287332	 0.129184
H	-0.6370256078	 1.8622180777	-0.8328786204	 0.119471
H	-0.3627496009	 1.9009109248	 0.9253790661	 0.126606
H	-1.0536885751	-2.2435896257	-1.7516201968	 0.067153
H	-0.4638872056	-3.469093733	 0.4551043043	 0.109523
H	 0.9011783277	-3.3437283279	-0.6527820581	 0.110144
H	 1.6285098559	-2.5253807201	 1.713090129	 0.091833
H	 1.3480001948	-0.0354123383	 1.8077220767	 0.085846
H	-2.11053012	-0.2311514038	-0.6459229867	 0.077681
H	-2.8906412853	-1.3846214943	 1.0563580226	 0.288851
184.0899	194.3591	203.1571	216.6937	244.3503	301.0293	355.8299	457.3663	505.9114	531.9355	579.9037	673.4257	719.0736	726.1029	824.9836	847.2651	893.7876	911.7113	943.5829	959.0546	966.7433	994.0787	1049.6412	1119.7802	1123.4271	1154.8221	1170.4197	1175.3133	1246.4933	1263.7318	1275.0446	1304.0845	1335.407	1362.5742	1399.8747	1406.3364	1439.3417	1457.5361	1480.1479	1492.6802	1702.1347	3018.0252	3033.1032	3036.2479	3049.9906	3067.6945	3104.98	3119.7068	3162.5153	3188.0925	3834.9466
CC12OC(CC=C1)C2O	C[C@@]12O[C@@H](CC=C1)[C@H]2O	
InChI=1S/C7H10O2/c1-7-4-2-3-5(9-7)6(7)8/h2,4-6,8H,3H2,1H3	InChI=1S/C7H10O2/c1-7-4-2-3-5(9-7)6(7)8/h2,4-6,8H,3H2,1H3/t5-,6+,7+/m0/s1
