15
gdb 123646	4.05371	1.55761	1.22237	4.3341	70.39	-0.246	-0.0094	0.2367	963.6073	0.116117	-416.774331	-416.768219	-416.767275	-416.804755	24.9	
C	-0.0438695179	 1.5164327459	 0.0103286481	-0.348988
C	 1.4403650377	 1.9193238936	-0.0380106099	-0.027132
N	 2.2034767578	 1.522664387	 1.1575450467	-0.325379
C	 2.3176828222	 0.7005274351	-0.0793424599	-0.256073
C	 1.3915734718	-0.4506126146	-0.0455385	 0.246033
C	 1.2597097764	-1.795435193	-0.0385584863	-0.095508
O	-0.0496811796	-2.1226219668	 0.047469679	-0.177025
N	-0.8261057792	-0.9519530324	 0.1056193653	-0.24236
C	 0.0474795663	 0.0119247132	 0.0430051959	 0.369089
H	-0.5448462213	 1.926867693	 0.891554445	 0.143486
H	-0.5803607515	 1.8684284806	-0.8770948483	 0.129459
H	 1.719208576	 2.830671459	-0.5560372706	 0.096927
H	 3.0280639024	 2.1147117847	 1.2369940048	 0.235136
H	 3.2569542692	 0.6785354342	-0.6189175508	 0.10082
H	 1.9401506797	-2.6308298195	-0.0894233389	 0.151515
160.0258	238.3065	364.1572	442.6444	457.3538	594.6354	611.2964	697.5961	720.6904	782.4318	815.2899	836.8021	845.6894	878.2411	888.5623	940.9945	959.2117	990.2892	1055.8042	1111.981	1121.7796	1139.2582	1183.943	1190.3001	1221.993	1273.4675	1304.5744	1348.0347	1397.1878	1418.2599	1465.0351	1563.2985	1683.4055	3055.7367	3100.9338	3168.5662	3186.1839	3266.6852	3488.9723
C1C2NC2C2=CON=C12	C1[C@H]2N[C@H]2c2conc12	
InChI=1S/C6H6N2O/c1-4-3(2-9-8-4)6-5(1)7-6/h2,5-7H,1H2	InChI=1S/C6H6N2O/c1-4-3(2-9-8-4)6-5(1)7-6/h2,5-7H,1H2/t5-,6+/m1/s1
