16
gdb 19572	3.98133	2.07709	1.90413	2.7857	64.05	-0.2364	0.0794	0.3158	760.1324	0.131957	-383.68517	-383.679055	-383.678111	-383.715152	24.664	
C	 0.0486096003	 1.4857173252	 0.013665313	-0.304609
O	 1.222851678	 0.6433337919	-0.0129559886	-0.291376
C	-0.0403648915	 0.0340819721	-0.0008094345	 0.544171
C	-0.5893432486	-0.9716699977	 1.0295305148	-0.18808
C	-1.7695609521	-1.1433136317	 0.0148902666	-0.242638
C	-0.6150591182	-0.9672387724	-1.0083172142	-0.007036
O	 0.1926451904	-2.134855888	-0.7942467666	-0.279976
C	 0.2747557632	-2.1861086957	 0.653668954	-0.076251
H	-0.107450936	 2.0325282266	 0.942638554	 0.11972
H	-0.1288709992	 2.0569958216	-0.8964499599	 0.121778
H	-0.7277751845	-0.7385534151	 2.0833985276	 0.081408
H	-2.2826148036	-2.1061188212	-0.0036304442	 0.108477
H	-2.475043244	-0.3114695364	 0.0343000912	 0.107752
H	-0.7428049648	-0.785012602	-2.0729411759	 0.088573
H	 1.3177323713	-2.0811324028	 0.9721420609	 0.116596
H	-0.1253336608	-3.1393514145	 1.0162760716	 0.10149
170.4202	267.0867	282.6218	402.611	434.6789	556.0149	629.722	705.4513	795.8862	843.2871	879.5616	894.9837	915.4806	937.7915	960.3491	971.6303	1042.4765	1044.706	1068.9925	1083.1477	1116.2697	1126.9903	1156.3072	1170.1987	1188.6408	1230.3946	1244.0267	1258.1044	1281.6455	1361.0518	1455.7079	1483.8341	1521.5193	1554.0783	3031.5699	3076.573	3080.3473	3083.2243	3142.2707	3148.6974	3154.9561	3169.1733
C1OC11C2CC1OC2	C1O[C@]21[C@H]1C[C@@H]2OC1	
InChI=1S/C6H8O2/c1-4-2-7-5(1)6(4)3-8-6/h4-5H,1-3H2	InChI=1S/C6H8O2/c1-4-2-7-5(1)6(4)3-8-6/h4-5H,1-3H2/t4-,5-,6+/m0/s1
