20
gdb 100900	2.3384	1.08813	0.77918	2.8236	76.42	-0.2757	0.0149	0.2906	1466.881	0.167901	-440.281245	-440.270291	-440.269346	-440.317766	37.903	
C	-0.2394205784	 1.3507131797	 0.0804293887	-0.251602
O	 0.1546783503	-0.0029803374	-0.0621893132	-0.233504
C	 0.7612068841	-0.5548786888	 1.0825161971	-0.018848
C	-0.2276702734	-0.6805392331	 2.1817592067	 0.277305
N	-1.0080743288	-0.7598881549	 3.0306814339	-0.336452
C	 1.3729061369	-1.9164561868	 0.6965923133	 0.008257
C	 2.3999333985	-1.7387401514	-0.4267204204	-0.408116
C	 1.9887585589	-2.6092775556	 1.9160124943	-0.097625
O	 2.4562793872	-3.8792016117	 1.4909461474	-0.419667
H	 0.6191675069	 1.9929252433	 0.3264806174	 0.112892
H	-0.6528074183	 1.6586291172	-0.8816074112	 0.139906
H	-1.0062400086	 1.4712257624	 0.8571938363	 0.135606
H	 1.5629041568	 0.1109654448	 1.4478052531	 0.107633
H	 0.5516937573	-2.5479301663	 0.337660497	 0.110943
H	 3.2199790672	-1.0848707751	-0.1043710083	 0.105931
H	 2.8263019747	-2.7082894513	-0.6888223738	 0.14175
H	 1.9385411565	-1.2968091385	-1.3109715843	 0.133262
H	 2.814480761	-1.9932399239	 2.3126077972	 0.08531
H	 1.2380961761	-2.7110318502	 2.712377826	 0.115285
H	 2.7979228051	-4.3461510524	 2.2586510529	 0.291735
55.218	86.7008	108.7955	134.1825	177.4579	189.6692	223.9359	236.9364	272.5899	291.7729	348.9042	360.9649	423.8322	469.7895	591.0373	617.1903	861.3589	886.8312	935.1075	984.0596	986.5897	1075.2113	1107.4644	1130.1719	1157.0276	1168.8486	1183.9271	1212.28	1257.9526	1267.7853	1300.4331	1340.865	1362.4266	1382.5632	1399.3391	1466.0111	1479.103	1488.127	1497.5817	1500.1427	1507.8793	1524.7107	2348.9722	2950.2581	2956.2174	2991.6784	3017.9182	3033.071	3052.8403	3054.8509	3118.6832	3133.1609	3152.8695	3836.8823
COC(C#N)C(C)CO	CO[C@@H](C#N)[C@@H](C)CO	
InChI=1S/C6H11NO2/c1-5(4-8)6(3-7)9-2/h5-6,8H,4H2,1-2H3	InChI=1S/C6H11NO2/c1-5(4-8)6(3-7)9-2/h5-6,8H,4H2,1-2H3/t5-,6-/m0/s1
