17
gdb 54548	3.50506	1.41248	1.21876	2.768	71.48	-0.2369	0.0146	0.2514	1031.6271	0.136842	-417.96876	-417.960824	-417.95988	-418.002311	29.951	
N	 0.1350125837	 1.1800189191	-0.4719566189	-0.534801
C	-0.0103785626	 0.0845104751	 0.3280837574	 0.269571
O	 0.8243536857	-0.2479928855	 1.1494236523	-0.367964
C	-1.2742472154	-0.7060438318	 0.1298984895	 0.216245
C	-2.2149731718	-0.9424989468	 1.3512325801	-0.274978
C	-2.6007544382	-2.2459441589	 0.6623480736	-0.037487
C	-1.353828665	-2.2660439606	-0.1316685646	-0.076548
N	-2.6452280796	-2.0400045249	-0.8344897006	-0.151066
C	-2.2810175906	-0.599240798	-1.0322080009	-0.224761
H	 0.9488689962	 1.7595015427	-0.3448811466	 0.263128
H	-0.5722408397	 1.4717012493	-1.1227126612	 0.26413
H	-1.6277252872	-1.1318391055	 2.2515885113	 0.13548
H	-2.9832528723	-0.1857569812	 1.5441949864	 0.096271
H	-3.1880396409	-3.0717844291	 1.0403202806	 0.105503
H	-0.6247873857	-3.0233595601	-0.3848554992	 0.108036
H	-3.1099430455	 0.1133344759	-0.9385502647	 0.099101
H	-1.8114997312	-0.5028996298	-2.0156994843	 0.110138
22.8756	139.6293	166.897	195.461	365.1572	406.5153	439.9669	500.5216	578.4781	641.6284	719.8129	738.2601	757.4157	802.4034	855.3314	927.6712	940.915	962.596	981.2052	992.7347	1017.4508	1067.908	1086.1544	1110.5509	1136.2392	1164.7601	1174.7394	1203.8388	1216.1	1262.575	1296.1557	1337.5521	1398.5641	1491.4722	1513.4145	1615.2924	1784.8669	3022.967	3043.7106	3089.8818	3127.5313	3205.9555	3219.9874	3602.4403	3741.1176
NC(=O)C12CC3C1N3C2	NC(=O)[C@]12C[C@@H]3[C@H]1N3C2	
InChI=1S/C6H8N2O/c7-5(9)6-1-3-4(6)8(3)2-6/h3-4H,1-2H2,(H2,7,9)	InChI=1S/C6H8N2O/c7-5(9)6-1-3-4(6)8(3)2-6/h3-4H,1-2H2,(H2,7,9)/t3-,4-,6+,8?/m1/s1
