21
gdb 81704	2.59425	1.594	1.31161	0.4815	77.81	-0.2363	0.08	0.3163	1074.5148	0.184375	-424.204175	-424.196309	-424.195365	-424.235937	32.014	
C	-0.0413202669	 1.5527170067	 0.0470338213	-0.42869
C	-0.0050706491	 0.0264884164	 0.0429858679	-0.016823
C	 1.055448054	-0.5801359736	-0.9288283739	 0.120192
C	 2.0411668395	-0.651110136	 0.2734111558	-0.28567
C	 0.8087365734	-0.6089515711	 1.2177935621	 0.117664
O	 0.3116452661	-1.8691864399	 1.635532434	-0.27096
C	 0.4744255279	-2.9590822657	 0.7422345264	-0.09119
C	-0.035264642	-2.7324100653	-0.6839059859	-0.090736
O	 0.7336933367	-1.8457695713	-1.4816383206	-0.272102
H	 0.9577930012	 1.9883122654	 0.1560373885	 0.116568
H	-0.4668164992	 1.9355242228	-0.8865768635	 0.121165
H	-0.65549802	 1.9255510359	 0.8735579371	 0.120719
H	-1.0206105744	-0.3627217701	-0.0595368056	 0.076777
H	 1.3559508734	 0.035918687	-1.7804868002	 0.076829
H	 2.7175492861	-1.5054532684	 0.32284057	 0.106753
H	 2.6307952112	 0.2643151529	 0.3645951493	 0.10532
H	 0.8924676805	-0.0138814646	 2.1311671152	 0.076022
H	 1.5240330577	-3.2851267845	 0.7021305428	 0.099412
H	-0.1062366388	-3.7764017665	 1.1834724102	 0.109617
H	-0.0010026043	-3.6912428185	-1.2125237993	 0.108496
H	-1.088060413	-2.4167705819	-0.6433563717	 0.100637
185.939	209.331	235.0377	253.9132	312.2764	347.2341	386.155	409.6024	446.4906	530.9787	580.4688	762.2386	809.2266	829.9086	847.6487	893.1692	902.4859	928.8803	942.76	1033.882	1042.5342	1063.2282	1074.4813	1110.8779	1117.6718	1130.1922	1157.1315	1183.3351	1205.2389	1247.0809	1267.5587	1274.4282	1282.007	1326.2792	1335.4535	1365.7777	1392.9913	1407.1763	1410.5417	1416.2467	1467.3992	1495.0813	1498.4948	1500.7115	1502.6408	2994.9863	3004.6931	3029.5647	3067.1805	3070.3994	3071.9159	3075.0497	3078.7925	3084.1719	3098.1212	3102.0859	3132.0691
CC1C2CC1OCCO2	C[C@H]1[C@H]2C[C@@H]1OCCO2	
InChI=1S/C7H12O2/c1-5-6-4-7(5)9-3-2-8-6/h5-7H,2-4H2,1H3	InChI=1S/C7H12O2/c1-5-6-4-7(5)9-3-2-8-6/h5-7H,2-4H2,1H3/t5-,6+,7-
