20
gdb 116387	2.79819	1.29704	0.95124	1.6693	76.3	-0.2649	0.0106	0.2755	1262.8273	0.172257	-440.301391	-440.292654	-440.29171	-440.335067	32.726	
C	 0.1399144828	 1.5379210173	 0.2520600794	-0.388332
C	-0.0672758954	 0.0426309488	-0.00767687	-0.182027
C	 0.5728889211	-0.4655632219	-1.3083607701	-0.057253
C	 0.8234659125	-1.9818991773	-1.2699915815	-0.125826
O	 1.3822400482	-2.421892852	-2.5013120816	-0.220009
C	 0.5031074582	-2.1794688105	-3.5435891115	 0.007959
O	 0.1756821102	-0.7958949787	-3.6971902754	-0.253413
C	-0.2061639541	-0.117875464	-2.5651841114	 0.370272
N	-1.0864680769	 0.7888396665	-2.6058113749	-0.496084
H	 1.2070466203	 1.7837374363	 0.3013434933	 0.105234
H	-0.3160290988	 2.1306561199	-0.5426382932	 0.153258
H	-0.3113193458	 1.8302133002	 1.2053901758	 0.107723
H	 0.3622273738	-0.5302643316	 0.8253113382	 0.088037
H	-1.1384596073	-0.1841564275	-0.0266523981	 0.112298
H	 1.5610733179	 0.0003348493	-1.4343422703	 0.110669
H	 1.5432346633	-2.2356121518	-0.4887257884	 0.121703
H	-0.1148294337	-2.5242192647	-1.0652594091	 0.100225
H	 0.9883222659	-2.4792518957	-4.4734845699	 0.129476
H	-0.4377636187	-2.7386750536	-3.4015040617	 0.094381
H	-1.4625674934	 0.866009191	-3.5532147496	 0.221708
74.9637	105.2919	153.8818	210.8905	243.9524	302.3709	367.9974	375.3084	448.8868	465.8455	544.5547	616.9105	723.2713	754.8978	825.7795	916.1716	933.6908	961.808	981.6541	1023.3756	1033.0635	1055.6668	1087.6877	1145.3282	1149.4042	1153.99	1200.4575	1253.9911	1270.1807	1298.8933	1309.9709	1331.0257	1374.3033	1382.4331	1404.1351	1413.3874	1454.8953	1479.053	1496.5835	1501.1539	1516.5239	1520.1114	1750.4795	2955.9599	2972.1924	3009.8968	3016.0001	3035.0114	3073.0342	3098.4315	3105.4639	3125.1949	3143.8535	3462.6585
CCC1COCOC1=N	CC[C@H]1COCO[C]1[NH]	
InChI=1S/C6H11NO2/c1-2-5-3-8-4-9-6(5)7/h5,7H,2-4H2,1H3	InChI=1S/C6H11NO2/c1-2-5-3-8-4-9-6(5)7/h5,7H,2-4H2,1H3/t5-/m0/s1
