21
gdb 78289	2.80492	1.33502	1.07738	1.7816	83.31	-0.2173	0.0742	0.2915	1235.1879	0.179685	-387.03563	-387.026325	-387.02538	-387.068865	36.068	
C	-0.1405854469	 1.418161535	-0.038633738	-0.427014
C	 0.0650223008	-0.0796242139	 0.0428791346	-0.011649
C	 1.4623885406	-0.6031258874	-0.1749394856	-0.144485
C	 0.8437234537	-0.6121414893	 1.2193803582	-0.144473
C	 0.941047103	-2.1748219392	 1.2197309087	 0.335352
C	 1.089491318	-3.0459204884	 2.4223298646	-0.505563
O	 0.2023761839	-2.6791038645	 0.0868787302	-0.328206
C	 1.5356050049	-2.1661370655	-0.1197347048	 0.335376
C	 2.5312191332	-3.0248956533	-0.8256877665	-0.505568
H	 0.7251368904	 1.9659152315	 0.3490181841	 0.11131
H	-0.2987984034	 1.7356740432	-1.074941637	 0.119144
H	-1.0165856388	 1.7251985869	 0.5428587433	 0.119146
H	-0.7577113456	-0.6812899817	-0.3260510589	 0.1081
H	 2.272170843	 0.0180263422	-0.5375775901	 0.082986
H	 1.1152945635	 0.0011525941	 2.069794375	 0.082991
H	 0.1588867778	-3.0684778111	 3.0015927207	 0.131341
H	 1.3334283863	-4.0707123569	 2.1302537635	 0.130971
H	 1.881803271	-2.6682355545	 3.0773583936	 0.123962
H	 2.3367267536	-3.0366449848	-1.9046289416	 0.13134
H	 3.5466905834	-2.6440307579	-0.67328269	 0.123964
H	 2.4830682476	-4.0539627646	-0.460019274	 0.130976
171.6834	182.2191	185.0725	188.9296	204.2915	215.6897	258.4963	333.966	342.13	411.425	541.6	565.4084	575.8096	725.1489	729.9495	798.3355	815.8264	819.0812	871.9307	899.7871	943.037	1003.3993	1004.855	1040.9481	1077.6296	1091.4691	1127.1982	1127.2657	1155.2015	1174.4713	1181.407	1233.2098	1256.4844	1280.9521	1393.0357	1407.6241	1411.1362	1415.6406	1472.9822	1475.2224	1486.5188	1492.184	1495.9813	1499.728	1539.255	3027.7591	3029.3406	3031.0565	3090.2057	3090.8674	3093.2241	3094.111	3118.4651	3120.759	3178.055	3182.2506	3192.7345
CC1C2C1C1(C)OC21C	C[C@H]1[C@H]2[C@@H]1[C@@]1(C)O[C@@]21C	
InChI=1S/C8H12O/c1-4-5-6(4)8(3)7(5,2)9-8/h4-6H,1-3H3	InChI=1S/C8H12O/c1-4-5-6(4)8(3)7(5,2)9-8/h4-6H,1-3H3/t4-,5-,6+,7-,8+
