17
gdb 42443	4.72515	0.74425	0.71812	4.1541	76.02	-0.2688	0.005	0.2737	1578.6275	0.136047	-418.040166	-418.031049	-418.030105	-418.075479	32.216	
O	 0.2477431745	 0.2456189105	-0.8086119449	-0.386819
C	 0.0753679428	 1.2505283774	-0.1394210462	 0.457354
N	 1.0837312226	 1.807659228	 0.6112336544	-0.342913
C	 2.425373935	 1.2666506013	 0.5712993042	-0.28125
C	 3.406617812	 2.2311078455	 0.0569811629	 0.253365
N	 4.174673982	 3.0063876292	-0.3218645941	-0.298844
C	-1.233590842	 1.9591642683	-0.0561271071	-0.133065
C	-2.0921356467	 1.9578859813	-1.3092788041	-0.246715
C	-2.4848664286	 1.103964674	-0.1501770539	-0.248547
H	 0.9235658197	 2.671582178	 1.1025162697	 0.259613
H	 2.7548549326	 0.9292711795	 1.5615417591	 0.157589
H	 2.3825664938	 0.392437117	-0.0861598476	 0.198789
H	-1.2758185709	 2.839097378	 0.5773038015	 0.083094
H	-2.6608337053	 2.8564410331	-1.5179474451	 0.120648
H	-1.6638308892	 1.461693569	-2.1718838802	 0.144852
H	-2.3183773015	 0.03709204	-0.2385558526	 0.143364
H	-3.3315910008	 1.3999246399	 0.4580277939	 0.119485
36.154	65.5255	88.9788	191.0459	225.4292	288.8031	317.8603	373.5413	379.6548	446.3895	594.3854	663.892	754.5523	791.9902	832.0069	850.1534	917.7238	930.9754	936.3479	1039.2281	1070.2994	1093.3476	1098.2728	1118.2323	1119.5647	1208.2152	1209.6811	1232.5276	1269.3519	1367.4114	1415.6591	1454.4556	1468.3034	1488.3754	1529.3268	1768.7437	2363.3073	3035.8794	3097.7129	3145.4761	3146.9096	3159.7342	3233.9484	3247.6606	3650.9088
O=C(NCC#N)C1CC1	O=C(NCC#N)C1CC1	
InChI=1S/C6H8N2O/c7-3-4-8-6(9)5-1-2-5/h5H,1-2,4H2,(H,8,9)	InChI=1S/C6H8N2O/c7-3-4-8-6(9)5-1-2-5/h5H,1-2,4H2,(H,8,9)
