17
gdb 26517	3.82469	1.5281	1.27477	3.3663	78.21	-0.2162	0.0083	0.2246	1007.557	0.13797	-380.844939	-380.837808	-380.836864	-380.876265	28.166	
C	 0.0788445966	 1.5954475503	 0.0519923206	-0.496722
C	 0.0985646154	 0.0973525339	-0.0024926029	 0.206972
C	-0.8911730897	-0.8127401741	 0.7242970165	-0.315713
C	 0.5826817687	-0.9331792085	 1.019807643	-0.068507
N	 1.2701190591	-1.6548606954	-0.0723333785	 0.006061
C	 1.4367492874	-2.8774172169	-0.6949930358	-0.168575
C	 1.1647124415	-2.6162257756	-2.0218656036	-0.077171
N	 0.6892281425	-1.3243597934	-2.2211972349	-0.334443
C	 0.7799919065	-0.7996676724	-1.02507552	 0.239856
H	 1.0803908475	 2.0100983646	-0.0979309515	 0.133074
H	-0.5735355996	 2.0028204521	-0.7276013807	 0.14036
H	-0.2979163539	 1.9468857765	 1.0175397725	 0.120952
H	-1.4913243081	-0.3350722689	 1.4959154372	 0.120627
H	-1.3939343044	-1.6129065724	 0.1901963874	 0.139663
H	 1.0510351294	-0.7929148789	 1.984865729	 0.118731
H	 1.8338522455	-3.7516989491	-0.2063911706	 0.126677
H	 1.3131329057	-3.2825693918	-2.8597213275	 0.10816
144.8324	191.7515	193.3613	255.2414	363.0171	484.3319	507.0072	606.1802	633.3198	724.9459	737.6853	757.8444	827.3711	837.2482	860.5925	924.6739	960.1096	981.1791	990.6232	1037.5733	1075.3782	1090.0338	1108.4563	1113.6795	1136.3089	1211.9015	1233.494	1257.2567	1333.6672	1365.2488	1406.8884	1430.2893	1464.9973	1482.9233	1485.4716	1498.6754	1566.6607	3035.4706	3100.7041	3108.6811	3112.6532	3201.872	3208.7592	3237.1382	3276.3581
CC12CC1N1C=CN=C21	C[C@]12C[C@H]1N1[CH]C=N[C]21	
InChI=1S/C7H8N2/c1-7-4-5(7)9-3-2-8-6(7)9/h2-3,5H,4H2,1H3	InChI=1S/C7H8N2/c1-7-4-5(7)9-3-2-8-6(7)9/h2-3,5H,4H2,1H3/t5-,7+/m1/s1
