18
gdb 90605	2.88505	1.35611	1.04837	2.1315	73.68	-0.2229	-0.0325	0.1904	1163.2909	0.146408	-439.045732	-439.037057	-439.036113	-439.079265	32.042	
C	 0.0195912611	 1.5923153173	 0.2060480818	-0.327699
N	 0.0569197779	 0.149113111	 0.1720017639	-0.07191
C	-1.2117369144	-0.6016455197	 0.2386498954	-0.181853
C	-0.5411816624	-1.6225689066	 1.1905537031	-0.184407
C	 0.6344136611	-0.5926811641	 1.312230719	-0.02196
C	 1.6727483854	-1.6202900187	 0.8076364743	 0.02152
O	 2.440364953	-2.1402714974	 1.8783683569	-0.438494
C	 0.467613685	-2.5713755507	 0.5180130035	 0.375536
O	 0.4014434798	-3.6813344621	 0.0751660388	-0.305064
H	 1.0395815962	 1.9885259828	 0.2432638804	 0.127104
H	-0.4522595178	 1.9713987451	-0.7066760032	 0.125688
H	-0.5384232322	 1.9967131266	 1.0717443619	 0.094213
H	-2.0145719582	-0.0520504507	 0.7553774773	 0.095941
H	-1.5922458128	-0.9649485968	-0.7219920409	 0.116658
H	-1.1251028397	-2.0300466631	 2.0140192949	 0.107429
H	 0.8631691154	-0.0339776694	 2.2225695746	 0.080129
H	 2.2829556301	-1.2954851721	-0.0441035151	 0.089359
H	 2.7519717525	-3.0142886215	 1.6161712836	 0.297809
61.8635	142.925	180.706	201.5006	226.3531	307.6847	326.7165	337.4154	421.7881	432.1913	611.6806	694.7148	743.9658	822.8791	851.2431	927.6402	951.6682	975.616	1001.0153	1025.29	1057.819	1088.7611	1124.9222	1134.3517	1167.2447	1174.4399	1207.2583	1216.9499	1234.8455	1263.509	1285.3444	1304.7325	1342.8553	1387.6213	1454.3201	1488.1654	1500.9791	1520.4471	1885.0648	2928.1511	2975.0257	3033.074	3057.8664	3061.841	3091.3249	3101.2606	3134.1408	3798.3237
CN1CC2C1C(O)C2=O	CN1C[C@@H]2[C@H]1[C@@H](O)C2=O	
InChI=1S/C6H9NO2/c1-7-2-3-4(7)6(9)5(3)8/h3-4,6,9H,2H2,1H3	InChI=1S/C6H9NO2/c1-7-2-3-4(7)6(9)5(3)8/h3-4,6,9H,2H2,1H3/t3-,4+,6-/m1/s1
