18
gdb 12200	3.85127	1.4631	1.24171	4.6278	72.38	-0.2498	0.019	0.2688	1019.8071	0.153954	-343.983384	-343.974969	-343.974024	-344.016166	30.936	
C	 0.07645106	 1.5622980126	-0.144238335	-0.400223
C	 0.0914202868	 0.0550357752	 0.0328768938	 0.061697
N	 1.0894703397	-0.6714871581	-0.7928122254	-0.314416
C	 1.3239515819	-1.6405895618	 0.2945976096	-0.1289
C	 2.7120329897	-2.0730021427	 0.4646853905	 0.297886
N	 3.802979948	-2.4227767798	 0.6184417229	-0.331752
C	 0.7263296285	-0.6003025684	 1.3037166592	-0.025692
C	 1.7501679404	 0.2300029116	 2.0650874644	-0.402271
H	 1.0710843604	 1.9893518996	 0.0024925186	 0.129903
H	-0.2547656186	 1.8208809831	-1.1558591176	 0.119204
H	-0.61777185	 2.0306162139	 0.5620100556	 0.116578
H	-0.9288298134	-0.3375821571	-0.1028056964	 0.066302
H	 0.7586394038	-1.0679847668	-1.666299795	 0.224476
H	 0.6947304635	-2.5411892108	 0.2462734439	 0.107505
H	 0.001773571	-1.0369488477	 1.9936991323	 0.084211
H	 2.5134387873	 0.6405996701	 1.398756841	 0.144145
H	 1.2632033057	 1.0619229549	 2.5834580788	 0.118501
H	 2.2596649555	-0.3815383878	 2.8158979789	 0.132846
72.2595	136.7692	198.3547	222.8698	238.6671	260.9135	352.9149	360.4215	473.9566	552.9874	564.9912	666.7683	769.5906	795.8872	845.1059	926.3743	982.0859	999.2353	1041.1842	1053.9653	1087.4959	1100.0433	1164.6994	1170.9929	1196.1059	1262.2421	1306.363	1346.1594	1368.7827	1382.7711	1401.1232	1415.5886	1423.2295	1482.8076	1489.057	1497.3017	1504.4483	2354.2493	2967.1888	2993.659	3036.1946	3042.2532	3087.1856	3098.1037	3108.5874	3122.6999	3130.3552	3523.1256
CC1NC(C#N)C1C	C[C@H]1N[C@@H](C#N)[C@H]1C	
InChI=1S/C6H10N2/c1-4-5(2)8-6(4)3-7/h4-6,8H,1-2H3	InChI=1S/C6H10N2/c1-4-5(2)8-6(4)3-7/h4-6,8H,1-2H3/t4-,5+,6-/m0/s1
