16
gdb 70237	4.1526	1.09324	0.95107	4.2561	77.69	-0.2648	-0.0568	0.208	1216.5982	0.124111	-400.763798	-400.755883	-400.754939	-400.796176	29.954	
C	-0.11355443	 1.5518624844	 0.0847068923	-0.496398
C	 0.1316367557	 0.0738980064	-0.0088597611	 0.395869
O	-0.7169114126	-0.7789579555	 0.8023433908	-0.286807
C	 0.6894614323	-0.7981214385	 1.0476117407	-0.034613
C	 1.4156441879	-1.9667906718	 0.3985977139	-0.344734
C	 1.1613989921	-1.7277128805	-1.0855882772	 0.183701
C	 0.4815245395	-0.5903615833	-1.3036090853	-0.222881
C	 1.587711345	-2.6432942926	-2.0842450669	 0.214076
N	 1.9592723833	-3.4038005819	-2.8755281571	-0.331842
H	 0.7440496135	 2.1139723077	-0.298946739	 0.132372
H	-0.9934891282	 1.8354263807	-0.5025032032	 0.137362
H	-0.2899833124	 1.8430994191	 1.1225483934	 0.139195
H	 1.0039541141	-0.4216094056	 2.0173864425	 0.104871
H	 2.4875297404	-1.9569835193	 0.6266312105	 0.133435
H	 1.0189032881	-2.9326246628	 0.7289325408	 0.147619
H	 0.1981190113	-0.2069642566	-2.2757187353	 0.128774
114.2201	148.8917	183.3513	234.21	299.0801	340.5021	419.9238	493.8078	539.2965	561.8252	570.7559	632.7824	737.2599	823.4529	884.3152	897.138	917.9965	937.1453	986.1085	1031.8215	1067.6646	1099.4659	1148.2404	1189.2874	1228.9606	1292.7627	1316.4369	1321.5705	1409.9391	1438.3532	1460.0408	1483.3242	1493.3808	1659.6541	2336.2127	3039.8557	3047.2033	3087.9878	3102.9641	3130.7043	3151.5321	3219.0373
CC12OC1CC(=C2)C#N	C[C@]12O[C@H]1CC(=C2)C#N	
InChI=1S/C7H7NO/c1-7-3-5(4-8)2-6(7)9-7/h3,6H,2H2,1H3	InChI=1S/C7H7NO/c1-7-3-5(4-8)2-6(7)9-7/h3,6H,2H2,1H3/t6-,7+/m0/s1
