19
gdb 133854	3.78892	1.61275	1.37922	1.4429	97.02	-0.1575	-0.0912	0.0663	987.1182	0.156184	-348.566447	-348.558725	-348.557781	-348.597729	31.934	
C	 1.1660756073	-0.2454723075	-1.2115329815	-0.50179
C	 2.6321603505	-0.370314555	-0.8706213305	 0.31692
C	 3.146050836	-1.6492707793	-0.105948792	-0.28583
C	 4.1397179258	-0.8089207774	 0.6821745429	 0.075365
C	 5.6455386572	-0.7969549916	 0.5254662946	-0.243161
C	 5.8549806268	 0.4056858371	-0.3655678569	-0.25343
C	 4.4616338294	 0.6668346299	-0.8610967392	 0.14778
C	 3.4321321992	 0.5047452874	 0.197122898	-0.165472
C	 3.7601858985	 0.0205007956	-1.8315571584	-0.193474
H	 0.9324661735	 0.7596704063	-1.5771035313	 0.124407
H	 0.5325501003	-0.4431041622	-0.339649075	 0.114822
H	 0.8848240735	-0.9588711505	-1.99567608	 0.118892
H	 3.5044784103	-2.4940180481	-0.7018009002	 0.102695
H	 2.3633676603	-2.0134169409	 0.575617918	 0.116111
H	 5.9738926358	-1.7580268223	 0.1176480418	 0.133115
H	 6.1863327994	-0.6420788493	 1.4691548839	 0.135222
H	 6.4176497639	 1.2487551939	 0.0445866844	 0.090989
H	 3.0154860651	 1.2505457116	 0.8728818295	 0.073103
H	 4.0750647071	-0.4351666778	-2.767406158	 0.093736
194.8484	205.0205	232.1827	272.0475	325.0638	363.7423	395.0266	487.4422	515.789	579.9485	637.2744	732.0112	779.5435	787.4324	805.1286	826.6952	869.6135	878.9058	917.9175	951.045	987.9674	1019.162	1046.8659	1065.7938	1083.1106	1111.8808	1137.9175	1145.5319	1171.9266	1180.4282	1208.0678	1242.5894	1247.5767	1306.2299	1316.0935	1382.4971	1408.8898	1460.4933	1486.5611	1492.8222	1562.0064	3002.2771	3022.6872	3024.0701	3071.4063	3078.3989	3084.8239	3085.696	3098.0829	3112.3062	3155.9941
CC12CC34CC=C(C13)C24	C[C@]12C[C]3C[CH][C]([C@@H]13)[CH]2	
InChI=1S/C9H10/c1-8-4-9-3-2-5(6(8)9)7(8)9/h2,6-7H,3-4H2,1H3	InChI=1S/C9H10/c1-9-4-6-2-3-7(5-9)8(6)9/h2,4,8H,3,5H2,1H3/t8-,9+/m1/s1
