23
gdb 62941	1.85653	1.78711	1.48171	1.785	84.3	-0.2475	0.0786	0.3261	1103.0323	0.202895	-388.263775	-388.25394	-388.252995	-388.297209	38.73	
C	-0.052252931	 1.5465834768	-0.1228066203	-0.444615
C	-0.0240079866	 0.0211171249	-0.0272803902	 0.239357
C	-1.4173360354	-0.5522132172	-0.2970988078	-0.450108
C	 1.0480810695	-0.6577245418	-0.9071337624	-0.000761
O	 2.3350693395	-0.17131028	-0.5083896961	-0.261738
C	 1.7412593794	-1.2307805044	 0.25112669	-0.000755
C	 0.7419770062	-0.6122828469	 1.2527440855	 0.239343
C	 1.3611882018	 0.3776857583	 2.2393971837	-0.444604
C	-0.0391687023	-1.6918978547	 2.0058294755	-0.4501
H	 0.9530644722	 1.9682718502	-0.0750012497	 0.133002
H	-0.5036402487	 1.8600128934	-1.0712555912	 0.106727
H	-0.6500644144	 1.9837940416	 0.684680597	 0.109603
H	-1.8004819537	-0.1602772817	-1.2460924647	 0.112425
H	-1.4188144581	-1.642859838	-0.3717388069	 0.114061
H	-2.1272481851	-0.2665676965	 0.4859980249	 0.117514
H	 0.9501937662	-1.0201061793	-1.9258530734	 0.09366
H	 2.3139251225	-2.1475127348	 0.3528572728	 0.093661
H	 2.0370509706	 1.0718747285	 1.7373267118	 0.132991
H	 0.5890412171	 0.958558334	 2.75606457	 0.109598
H	 1.9358389729	-0.157001183	 3.0045334855	 0.106732
H	 0.6021070178	-2.1469452043	 2.7691770064	 0.112425
H	-0.9112943613	-1.2724583039	 2.5179563036	 0.117519
H	-0.3868348389	-2.4961232513	 1.3520413059	 0.114064
107.1488	189.8048	220.2415	228.8815	246.0932	258.1172	279.8382	301.5386	319.8206	326.6874	388.2787	448.5582	514.7919	557.5498	614.68	644.9917	837.4451	843.4287	852.033	868.1363	946.2614	954.9575	955.6539	981.083	990.1371	1013.9177	1019.2656	1062.6813	1164.4388	1175.56	1193.5764	1201.0236	1203.0434	1259.6219	1295.2772	1299.5183	1381.1175	1394.3417	1404.0098	1410.7963	1431.9182	1473.9267	1479.9934	1490.13	1490.6969	1502.5577	1504.0261	1511.3925	1526.471	3026.132	3029.623	3030.148	3036.6519	3082.8359	3087.3781	3090.9351	3094.9891	3103.5536	3117.619	3128.6414	3138.7873	3155.9698	3171.854
CC1(C)C2OC2C1(C)C	CC1(C)[C@H]2O[C@H]2C1(C)C	
InChI=1S/C8H14O/c1-7(2)5-6(9-5)8(7,3)4/h5-6H,1-4H3	InChI=1S/C8H14O/c1-7(2)5-6(9-5)8(7,3)4/h5-6H,1-4H3/t5-,6+
