14
gdb 28029	6.17957	0.89555	0.78648	4.6275	68.09	-0.2211	0.016	0.2371	1343.5846	0.102185	-432.918753	-432.910734	-432.909789	-432.951981	29.098	
N	 0.6918349106	 1.1392628859	-0.8151028165	-0.5874
C	 0.1315598688	 0.0095512652	-0.286081183	 0.460509
N	-0.96161972	-0.5882016245	-0.6541211625	-0.391254
C	-1.0043416127	-1.7183624918	 0.1618592461	 0.25564
C	-2.1397307137	-2.6893737794	 0.0351489271	-0.452811
C	-2.0472273371	-3.7982670163	 0.983172075	 0.27235
N	-1.9647071386	-4.670028206	 1.7363311811	-0.311846
C	 0.0654577398	-1.7326819633	 0.982722539	-0.116622
O	 0.8187743476	-0.6061945999	 0.6990326809	-0.183785
H	 1.2799054114	 1.6651609893	-0.1863198545	 0.269857
H	 0.043012282	 1.7016823888	-1.3441326169	 0.275237
H	-3.0939192882	-2.1698386797	 0.1867122161	 0.171135
H	-2.1740851834	-3.0944525118	-0.9838414525	 0.172402
H	 0.4317524337	-2.3812059665	 1.7575370806	 0.166588
46.1437	109.0486	198.2155	273.1788	314.195	339.5092	385.239	436.1373	483.263	563.2984	632.3422	714.1622	717.9682	758.624	778.7031	946.0512	959.7807	971.3066	1017.2547	1109.0163	1129.4235	1215.2133	1231.074	1254.2281	1362.9003	1447.493	1458.8632	1603.1901	1648.8849	1688.6842	2369.7562	3035.2057	3063.9871	3311.3664	3584.8186	3695.4251
NC1=NC(CC#N)=CO1	Nc1nc(CC#N)co1	
InChI=1S/C5H5N3O/c6-2-1-4-3-9-5(7)8-4/h3H,1H2,(H2,7,8)	InChI=1S/C5H5N3O/c6-2-1-4-3-9-5(7)8-4/h3H,1H2,(H2,7,8)
