18
gdb 50447	3.23054	1.24046	0.95628	3.8359	82.97	-0.2171	-0.0011	0.216	1220.2844	0.149433	-401.978092	-401.969955	-401.96901	-402.011781	30.315	
O	-0.3363437402	 0.2485839592	-0.9828249593	-0.326694
C	-0.0908637819	 1.4056041376	-0.7262767013	 0.14941
N	 1.0063919078	 1.8471501147	-0.0223046877	-0.070352
C	 1.2461862267	 3.2794229694	 0.1377081162	-0.23976
C	 1.4031596521	 3.7430589339	 1.5661615429	-0.066591
C	 2.3096919266	 3.2755580352	 2.4193089597	-0.031964
C	 3.3261861315	 2.1915776071	 2.1697225481	-0.328937
C	 2.9953858485	 1.0793169503	 1.2077764007	-0.116502
C	 1.9914635199	 0.9192577593	 0.3421988683	 0.025652
H	-0.7408651165	 2.2454633638	-1.0374115962	 0.076949
H	 2.1460308681	 3.5424598481	-0.4363960291	 0.128656
H	 0.4077203083	 3.8004876149	-0.3317599231	 0.119301
H	 0.7407935306	 4.5422171698	 1.8870566815	 0.096945
H	 2.3552719557	 3.7218011983	 3.4105333888	 0.096796
H	 4.2825955434	 2.6614604333	 1.8800693667	 0.127551
H	 3.5554959099	 1.717632715	 3.1340364772	 0.124037
H	 3.6773481049	 0.2352102182	 1.2705970026	 0.09859
H	 1.8710530743	-0.0179026383	-0.188752256	 0.136914
35.1106	83.472	217.2544	270.136	289.4936	354.9575	379.1643	423.2415	500.6098	582.2397	673.5857	756.9376	777.0976	810.1221	871.2571	896.4961	946.3507	961.0819	990.7972	1003.9976	1014.542	1019.0309	1073.3486	1197.1227	1226.3412	1236.5226	1268.7502	1343.5394	1365.4851	1381.2743	1393.5548	1425.6819	1443.5773	1453.7737	1461.7145	1489.2058	1740.5264	1745.6003	1795.8673	2948.3369	2956.3822	3003.3223	3018.8101	3089.4178	3142.8702	3157.1805	3170.9556	3207.454
O=CN1CC=CCC=C1	O=CN1CC=CCC=C1	
InChI=1S/C7H9NO/c9-7-8-5-3-1-2-4-6-8/h1,3-4,6-7H,2,5H2	InChI=1S/C7H9NO/c9-7-8-5-3-1-2-4-6-8/h1,3-4,6-7H,2,5H2
