18
gdb 19934	3.63845	2.28111	1.87792	1.3869	69.42	-0.2278	0.0754	0.3032	779.0647	0.156286	-347.7786	-347.772348	-347.771404	-347.80877	25.811	
C	 0.2660338549	 1.6258019852	 0.2580635937	-0.328609
C	 1.3640729325	 0.6550006734	-0.079375413	 0.111621
O	 2.1748788003	 0.1667737619	 0.9581857674	-0.266895
C	 1.4008999773	-0.6290282671	 1.8463389488	 0.122128
C	 0.8294216057	 0.0590683298	 3.1201539319	-0.246365
C	-0.6169351712	-0.2499875205	 2.6292080048	-0.239492
C	-0.0458049032	-0.7710215027	 1.2755650446	-0.044715
C	-0.0468366427	 0.1489544544	 0.0646081744	-0.082332
H	 0.2389204872	 2.0526584176	 1.2540422936	 0.118292
H	-0.0644023831	 2.3010009799	-0.5247719895	 0.111708
H	 1.8930852987	 0.7160104644	-1.0240669723	 0.096288
H	 1.9560770504	-1.5502483078	 2.0475320561	 0.077431
H	 1.11751187	-0.4036547951	 4.0671983287	 0.098088
H	 1.0812642731	 1.1208113087	 3.1668585055	 0.11033
H	-1.1116145714	-1.0308599036	 3.2114344464	 0.100468
H	-1.295920084	 0.6024102899	 2.5551334522	 0.103338
H	-0.3634458831	-1.775477087	 0.9882209856	 0.069983
H	-0.6319543712	-0.1397542113	-0.8004330589	 0.08873
124.7187	218.6543	331.6714	422.3859	480.4118	635.0801	682.5453	716.3612	734.225	778.31	809.4511	842.5271	886.936	907.1515	950.5785	959.0673	973.735	997.6392	1039.3626	1045.7662	1087.0885	1097.1765	1111.9463	1123.5695	1164.4184	1194.1794	1204.0605	1229.2601	1250.5147	1268.1488	1274.8424	1321.0872	1330.5126	1364.3574	1388.7556	1470.1532	1482.941	1495.6924	3054.069	3063.3418	3068.5721	3083.7926	3108.4855	3126.5931	3133.2488	3168.23	3178.5772	3221.3469
C1C2OC3CCC3C12	C1[C@H]2O[C@H]3CC[C@H]3[C@@H]12	
InChI=1S/C7H10O/c1-2-6-4(1)5-3-7(5)8-6/h4-7H,1-3H2	InChI=1S/C7H10O/c1-2-6-4(1)5-3-7(5)8-6/h4-7H,1-3H2/t4-,5+,6-,7+/m0/s1
