19
gdb 63507	2.10179	1.6075	1.07186	1.485	79.1	-0.2506	-0.0478	0.2028	1161.8906	0.155746	-423.045939	-423.036312	-423.035368	-423.07971	35.679	
C	 0.0556061564	 1.4480654905	 0.0391850184	-0.463961
C	 0.10959249	-0.0668430529	 0.0171294135	 0.288518
C	-1.1406852776	-0.7107192807	-0.5490731979	-0.463961
C	 1.4091371242	-0.7444593586	-0.1389434991	-0.337492
C	 0.8101735935	-0.7965032633	 1.2703661203	 0.077995
C	 1.4182048661	 0.0427489021	 2.329409777	 0.088544
O	 2.1846147614	 0.962204936	 2.1526763217	-0.276231
C	 0.2431125401	-2.0780749116	 1.7516582589	 0.088543
O	-0.0302339887	-3.0351912887	 1.0637400521	-0.276233
H	 0.9534046357	 1.8921283396	 0.4671288377	 0.162946
H	-0.0484589245	 1.8052580694	-0.9918224503	 0.1266
H	-0.8162875131	 1.8031444158	 0.5986201547	 0.121613
H	-1.25957554	-0.3805399013	-1.5874564937	 0.126608
H	-1.0919851093	-1.7987811783	-0.5385133854	 0.162931
H	-2.0321389185	-0.3907931205	 0.0006587939	 0.121616
H	 1.4336255013	-1.7069781933	-0.6395011881	 0.144259
H	 2.3044375659	-0.135532389	-0.2113517571	 0.144255
H	 1.119126319	-0.2467479699	 3.3620009011	 0.081727
H	 0.083477448	-2.1157037054	 2.8528389723	 0.081723
122.3773	142.1096	190.2044	219.1863	220.9027	240.6176	243.4708	287.3604	315.5869	384.2423	427.9619	435.4626	508.1908	580.8757	712.1019	715.5588	819.4422	934.4163	937.5	981.6266	1015.1267	1029.9444	1053.0484	1061.4995	1084.5141	1131.5983	1209.8466	1211.5599	1304.3328	1366.7826	1409.4023	1425.1113	1438.3216	1449.2944	1467.6549	1483.0177	1495.1215	1508.9387	1517.2597	1777.2043	1817.1626	2863.6815	2886.7856	3034.1551	3039.8139	3090.7409	3095.2211	3129.696	3160.0561	3160.4798	3228.2331
CC1(C)CC1(C=O)C=O	CC1(C)CC1(C=O)C=O	
InChI=1S/C7H10O2/c1-6(2)3-7(6,4-8)5-9/h4-5H,3H2,1-2H3	InChI=1S/C7H10O2/c1-6(2)3-7(6,4-8)5-9/h4-5H,3H2,1-2H3
