19
gdb 95730	3.02681	1.20746	0.92279	3.575	72.08	-0.2158	0.0228	0.2386	1243.486	0.161593	-456.366262	-456.357582	-456.356638	-456.399671	33.131	
O	-0.1626006904	 1.4866392948	-0.1162090392	-0.419439
C	 0.0013953041	 0.0826735099	 0.0248309529	 0.104141
C	-1.4246559527	-0.4892031908	 0.0707136778	-0.165718
N	-1.5575097299	-1.927763638	 0.2095640713	-0.282903
C	-1.0499997183	-2.7544908211	-0.8772196078	-0.264431
C	 0.4698458847	-2.9734465974	-0.9377690824	 0.360208
O	 0.95866564	-4.0886329874	-0.9173207931	-0.364144
N	 1.255405142	-1.8519024328	-0.9844527838	-0.293709
C	 0.8308654914	-0.4716562518	-1.1475029421	-0.19727
H	 0.6963894916	 1.9093888545	-0.0179866475	 0.286321
H	 0.5220023572	-0.1685325408	 0.9637982881	 0.06703
H	-1.9539376231	-0.0057973771	 0.8983309505	 0.114038
H	-1.9358226409	-0.1798850374	-0.8508646694	 0.113746
H	-1.2013798938	-2.2494202793	 1.1023945981	 0.225101
H	-1.4781751536	-3.7575434698	-0.804640331	 0.130882
H	-1.394241181	-2.3186223459	-1.8247144157	 0.118335
H	 2.2424437493	-2.0565092741	-1.0242389978	 0.246766
H	 0.2672895435	-0.3253061296	-2.0797844347	 0.120144
H	 1.7411193798	 0.1295819241	-1.239300384	 0.100901
61.3282	129.7004	218.7522	277.6158	285.5877	319.2124	325.5567	365.7017	443.4889	476.3873	506.0142	536.0018	614.8523	701.3136	723.2556	828.2865	886.6093	890.7601	967.4095	1020.7999	1042.6107	1090.8428	1111.1048	1140.6327	1187.3598	1203.2661	1248.8031	1283.0736	1324.2937	1333.8847	1346.8744	1361.3458	1388.8941	1402.4926	1434.5465	1461.9324	1467.1734	1479.1967	1495.7948	1506.7343	1784.5082	2967.0673	3007.6255	3024.0138	3027.8805	3074.3926	3081.0546	3100.0734	3538.5622	3619.5099	3816.7333
OC1CNCC(=O)NC1	O[C@H]1CNCC(=O)NC1	
InChI=1S/C5H10N2O2/c8-4-1-6-3-5(9)7-2-4/h4,6,8H,1-3H2,(H,7,9)	InChI=1S/C5H10N2O2/c8-4-1-6-3-5(9)7-2-4/h4,6,8H,1-3H2,(H,7,9)/t4-/m0/s1
