23
gdb 115916	3.19371	1.15676	0.94721	1.2685	85.77	-0.2367	0.0849	0.3216	1342.3882	0.206969	-388.292553	-388.283678	-388.282734	-388.326058	34.716	
C	 0.0744461852	 1.5615458351	-0.0358243559	-0.385535
C	-0.0031887813	 0.033849407	 0.0218797297	-0.184514
C	 0.6878979192	-0.5615360384	 1.2453190309	 0.157892
C	 0.5659331211	-2.0844478825	 1.3341122516	-0.219094
C	 1.2151450516	-2.5996460118	 2.6294817443	-0.239802
C	 2.5346108352	-1.9098182623	 2.9351430385	-0.036472
C	 3.6935633883	-1.8887809477	 1.960842964	-0.308072
C	 2.8837792654	-0.6398079028	 2.2008762236	 0.103205
O	 2.0666965298	-0.1946433103	 1.1561589274	-0.271936
H	 1.1155179961	 1.8928439328	-0.0382033143	 0.13505
H	-0.4124294219	 1.9471710209	-0.9367141112	 0.106974
H	-0.420531573	 2.0149490104	 0.8305583417	 0.107882
H	-1.050582234	-0.2916699416	 0.0297048208	 0.090974
H	 0.4566928688	-0.3985987018	-0.8753680752	 0.100666
H	 0.2523079414	-0.1158399925	 2.1580517603	 0.057056
H	-0.488098935	-2.3819372469	 1.3037954116	 0.094028
H	 1.0481644505	-2.5186756888	 0.4497037835	 0.101922
H	 0.5287183757	-2.3971763926	 3.4618412943	 0.098828
H	 1.3436153709	-3.6879718398	 2.592488966	 0.098403
H	 2.816708624	-1.9346567885	 3.9839910558	 0.084987
H	 4.7005566157	-1.9513912092	 2.3590456053	 0.106512
H	 3.5585067588	-2.3559758372	 0.9912140946	 0.115515
H	 3.3371960376	 0.1801715986	 2.7541812826	 0.085531
93.0058	102.3389	168.167	187.6208	243.9501	306.725	363.7088	415.2945	456.9413	484.6905	510.9862	653.3799	734.8634	763.0632	820.7571	827.9639	866.6828	916.8099	940.971	955.3723	964.149	1024.6087	1037.5563	1047.4087	1051.2071	1102.5741	1119.4187	1120.5941	1142.7334	1164.8584	1187.8257	1224.5079	1248.3785	1251.9165	1298.8927	1319.0741	1345.4041	1365.1916	1378.8876	1393.6861	1405.2803	1410.7519	1414.4119	1471.8296	1480.0412	1482.2502	1496.8676	1497.4394	1510.1139	2937.0109	3017.3809	3024.9966	3031.5781	3035.8347	3052.7634	3063.6002	3077.9567	3099.6662	3116.7897	3127.8844	3130.6271	3141.8912	3219.5651
CCC1CCC2CC2O1	CC[C@H]1CC[C@H]2C[C@H]2O1	
InChI=1S/C8H14O/c1-2-7-4-3-6-5-8(6)9-7/h6-8H,2-5H2,1H3	InChI=1S/C8H14O/c1-2-7-4-3-6-5-8(6)9-7/h6-8H,2-5H2,1H3/t6-,7-,8+/m0/s1
