18
gdb 31618	2.93864	1.25903	0.93724	2.7369	76.05	-0.182	0.0402	0.2222	1253.9672	0.148683	-435.297805	-435.288579	-435.287635	-435.331853	33.54	
C	 0.2501357599	 0.8043557516	-0.6003530645	-0.335273
N	-0.4274929539	 0.1320525339	 0.5192263102	-0.380468
C	 0.3973624542	-0.5930134573	 1.3861788195	 0.365583
N	 0.8106255671	-0.1964381416	 2.5799087483	-0.41724
C	 1.5374912918	-1.2454901566	 3.0677496297	 0.340237
O	 2.114308483	-1.1895843933	 4.2901531286	-0.442324
C	 1.5890045527	-2.2818173804	 2.1766112572	-0.245516
N	 0.8286150228	-1.8477004784	 1.0902630691	-0.010137
C	 0.4911707528	-2.6235963478	-0.0828447573	-0.343478
H	 0.712743378	 0.0599867693	-1.2540212378	 0.128657
H	-0.4945533003	 1.3476131634	-1.1882906799	 0.124608
H	 1.0301756386	 1.5077161599	-0.2753248391	 0.123107
H	-0.930661525	 0.8133933767	 1.0756501215	 0.243622
H	 1.8983289455	-0.3191952827	 4.6454405603	 0.296627
H	 2.0691020422	-3.2437359471	 2.1964511589	 0.120758
H	 0.2614713753	-3.652460858	 0.2074320226	 0.139663
H	-0.391455941	-2.1795585284	-0.5466778536	 0.158756
H	 1.3102247962	-2.641583303	-0.8113721837	 0.132817
68.5329	141.6081	163.5316	173.8331	185.0441	284.5907	309.228	321.7394	366.5148	412.0833	533.5514	610.2159	629.4964	649.6288	706.7119	743.4083	806.004	832.0583	1033.979	1045.5382	1075.1722	1150.1005	1154.3739	1157.4572	1167.2817	1230.2722	1275.9682	1365.9344	1404.5207	1437.3135	1449.0459	1454.2599	1490.0243	1493.8637	1507.0209	1513.1075	1558.9957	1573.826	1665.7762	3000.6989	3028.93	3085.5217	3094.8421	3119.9015	3141.3133	3290.507	3554.0575	3806.7898
CNC1=NC(O)=CN1C	CNc1nc(O)cn1C	
InChI=1S/C5H9N3O/c1-6-5-7-4(9)3-8(5)2/h3,9H,1-2H3,(H,6,7)	InChI=1S/C5H9N3O/c1-6-5-7-4(9)3-8(5)2/h3,9H,1-2H3,(H,6,7)
