17
gdb 7292	4.40251	1.09725	1.03331	3.4474	70.56	-0.2457	0.0261	0.2717	1168.5949	0.139621	-363.871177	-363.861533	-363.860589	-363.906233	33.913	
C	-0.0720502753	 1.6637089148	 0.2034015688	-0.389891
C	-0.0604311655	 0.1370547225	 0.0134142139	-0.087762
C	 0.7795270622	-0.5750460098	 1.0999419893	-0.352193
C	 2.1796474375	-0.1728845748	 1.098867479	 0.295573
C	 3.3341003225	 0.1628566169	 1.0768890451	-0.44547
C	-1.4980828976	-0.386286357	 0.0851385749	 0.413123
N	-2.1071978196	-0.5790656306	-1.1199919341	-0.529954
O	-2.0636912761	-0.5930298207	 1.1425057558	-0.371331
H	 0.9488105642	 2.0535139839	 0.2018784148	 0.136128
H	-0.6333113973	 2.1572624149	-0.5958076181	 0.112581
H	-0.542623896	 1.9206972116	 1.1573236386	 0.13823
H	 0.370065177	-0.0960346774	-0.9678301946	 0.079069
H	 0.3180760596	-0.3740289792	 2.0728209626	 0.155285
H	 0.7126933294	-1.6602695869	 0.9555405081	 0.133054
H	 4.3557742502	 0.4516079327	 1.074949145	 0.192844
H	-1.6496804516	-0.3859367155	-1.992921995	 0.25958
H	-3.0751776935	-0.8568587453	-1.1283629639	 0.261133
34.3681	70.8092	133.9529	153.1746	223.5414	233.2569	280.2576	314.6815	352.1281	416.2131	542.279	587.1404	613.7808	616.1281	641.0946	769.015	803.0496	879.8628	906.0747	979.6467	1040.0246	1089.8031	1102.5795	1128.1505	1230.7881	1267.5699	1330.41	1345.6912	1395.9224	1412.3335	1468.6215	1497.2689	1502.8796	1616.6346	1791.7314	2236.14	3032.9174	3035.6031	3042.0472	3079.1973	3112.8379	3127.1142	3506.7697	3601.939	3741.0353
CC(CC#C)C(N)=O	C[C@@H](CC#C)C(=O)N	
InChI=1S/C6H9NO/c1-3-4-5(2)6(7)8/h1,5H,4H2,2H3,(H2,7,8)	InChI=1S/C6H9NO/c1-3-4-5(2)6(7)8/h1,5H,4H2,2H3,(H2,7,8)/t5-/m0/s1
