17
gdb 69120	2.39596	1.63019	1.17304	2.736	69.52	-0.2573	-0.0466	0.2107	1068.4955	0.134118	-458.959719	-458.951296	-458.950352	-458.99274	30.97	
C	-0.0171781248	 1.5074881243	-0.0356783169	-0.488433
C	-0.027134888	 0.0082632901	 0.0795632505	 0.302935
C	-1.2435146587	-0.7902713194	-0.3723422263	-0.126914
O	-1.0706276221	-2.1044784693	 0.1267227708	-0.253852
C	-0.2555522866	-2.0651190196	 1.2926124418	-0.148902
C	 0.5958131664	-0.8221582823	 1.1460088722	 0.217012
O	 1.1908529172	-0.6910242045	-0.1581600065	-0.311074
C	 1.3633117444	-0.256589498	 2.2846461371	 0.083301
O	 1.1926728876	-0.5859182362	 3.4326283104	-0.255357
H	 0.9187559255	 1.9256549366	 0.339041875	 0.140045
H	-0.1221982386	 1.8030753234	-1.0851101157	 0.140695
H	-0.8496141304	 1.9468774925	 0.5222797338	 0.137861
H	-2.1545387692	-0.3132761406	 0.0255836139	 0.099051
H	-1.3289121005	-0.8492276081	-1.4627924784	 0.122937
H	-0.8463863304	-1.9894090401	 2.2167698096	 0.119913
H	 0.329894005	-2.9884218259	 1.3239135552	 0.128485
H	 2.1244377632	 0.4961130971	 1.9878541137	 0.092295
97.5549	166.5477	171.0482	201.7655	223.5642	255.1071	326.6393	450.0941	455.254	483.4794	583.9077	676.7152	730.4363	778.0795	881.18	920.3834	958.4434	992.4212	1004.3301	1076.618	1079.9765	1116.522	1135.0414	1216.7039	1232.4601	1242.8343	1267.8733	1358.4691	1369.2477	1402.161	1414.6659	1454.1605	1484.1633	1496.3648	1500.7252	1511.6146	1811.8714	2909.4687	2972.7385	3011.6064	3043.936	3069.5588	3090.5067	3106.4769	3138.2663
CC12COCC1(O2)C=O	C[C@]12COC[C@]1(O2)C=O	
InChI=1S/C6H8O3/c1-5-3-8-4-6(5,2-7)9-5/h2H,3-4H2,1H3	InChI=1S/C6H8O3/c1-5-3-8-4-6(5,2-7)9-5/h2H,3-4H2,1H3/t5-,6+/m0/s1
