20
gdb 26092	3.14387	1.21518	1.07389	0.8118	81.66	-0.1986	0.043	0.2415	1210.6849	0.170823	-403.194501	-403.185346	-403.184402	-403.228109	35.607	
C	-0.0669109699	 1.5606917811	 0.10465841	-0.420104
C	 0.018205314	 0.0347635051	-0.0116865998	 0.21864
C	 0.6685875482	-0.569560006	 1.2415003451	-0.381406
O	-1.3054744116	-0.5355205608	-0.041509959	-0.46361
C	 0.7559153507	-0.3794653346	-1.262770805	 0.301516
C	 1.7421860999	 0.2137090036	-2.0238548422	-0.26292
C	 2.0851431493	-0.6910401342	-3.0680917229	-0.146194
C	 1.297026478	-1.8085629809	-2.9178592974	-0.097063
N	 0.5030450939	-1.6103324585	-1.818790344	-0.286182
H	 0.9282026719	 2.0075457443	 0.1849272274	 0.124411
H	-0.5557410054	 1.9911125735	-0.7754997563	 0.11142
H	-0.6414733508	 1.8313680411	 0.9947526749	 0.119769
H	 0.0936612646	-0.2988871909	 2.1322576394	 0.116641
H	 0.6975996857	-1.6597319642	 1.1660803431	 0.116328
H	 1.6929826167	-0.2054909877	 1.3514883959	 0.121111
H	-1.7719268685	-0.131679171	-0.7824989408	 0.276097
H	 2.1778509443	 1.1854332328	-1.8489906439	 0.087348
H	 2.8211212212	-0.5346722206	-3.8418583774	 0.090864
H	 1.2266857395	-2.712951851	-3.50068624	 0.11297
H	-0.2202407718	-2.2198141411	-1.4761020473	 0.260366
55.855	141.3408	194.9641	222.4802	265.5873	322.9324	341.6054	349.3523	385.3527	454.203	497.714	567.3352	606.7044	641.3923	701.024	723.8754	796.8379	844.9601	848.9257	897.5748	928.9522	950.7788	969.9537	1013.5655	1056.8311	1097.8561	1118.1862	1135.4585	1181.5076	1199.191	1278.4749	1295.8971	1357.9811	1394.2157	1413.0569	1437.422	1452.6977	1477.9773	1479.8518	1487.6958	1496.1914	1506.8851	1601.2616	3036.9363	3044.7172	3108.7687	3117.2902	3122.2153	3130.7957	3240.6148	3253.4988	3269.7625	3672.9973	3793.1209
CC(C)(O)C1=CC=CN1	CC(C)(O)c1ccc[nH]1	
InChI=1S/C7H11NO/c1-7(2,9)6-4-3-5-8-6/h3-5,8-9H,1-2H3	InChI=1S/C7H11NO/c1-7(2,9)6-4-3-5-8-6/h3-5,8-9H,1-2H3
