21
gdb 59185	3.29327	1.02942	0.9916	3.2284	83.29	-0.2381	0.0131	0.2512	1321.6921	0.181886	-387.061636	-387.052684	-387.05174	-387.095476	34.27	
C	 0.0090528437	 1.4708211779	 0.1079771982	-0.385786
C	 0.0957547104	-0.0633216403	 0.113039465	-0.025889
C	 0.8089756065	-0.5692266337	 1.3765745227	-0.385788
C	-1.3070133284	-0.6691954613	 0.0232761197	 0.062812
C	-2.1367953796	-0.6213608033	-1.3201620098	-0.201734
C	-1.2402408976	-1.7993093494	-1.8365122098	-0.245902
C	-1.5214744059	-2.1904935556	-0.3445749793	-0.201732
C	-2.9565151777	-1.7431836993	-0.6637499236	 0.451594
O	-4.0866529397	-2.0812133001	-0.4946374738	-0.328001
H	 1.0055409532	 1.917763945	 0.1841362461	 0.113493
H	-0.4582539074	 1.844668772	-0.8082537071	 0.115899
H	-0.5824933714	 1.8332822441	 0.9570289863	 0.115869
H	 0.6957187283	-0.3659040721	-0.7518511141	 0.077288
H	 0.9152703768	-1.658389862	 1.3701357836	 0.115899
H	 1.8099935759	-0.133824428	 1.4598459117	 0.113493
H	 0.2512819206	-0.2929615286	 2.2792642877	 0.11587
H	-1.879922095	-0.3478147839	 0.901519263	 0.081907
H	-2.4768781515	 0.2542698335	-1.868996312	 0.091107
H	-1.6664339542	-2.4451738746	-2.6065110049	 0.114106
H	-0.2091095269	-1.5410607488	-2.0715049099	 0.114388
H	-1.17406998	-3.0680189217	 0.1965942701	 0.091107
55.8359	131.4831	146.3389	217.1547	234.4204	280.518	331.2811	392.6398	443.729	489.0183	498.5618	700.4972	720.5328	765.7497	788.8496	868.6405	887.321	896.7023	926.5454	956.6795	970.5719	1003.5816	1026.0551	1042.3245	1066.9857	1108.3738	1120.4584	1143.9966	1153.0523	1192.5344	1196.1824	1202.6665	1235.2892	1236.1057	1326.	1338.782	1399.4878	1416.254	1432.7663	1486.5604	1491.3084	1503.6422	1508.819	1523.4029	1917.5258	3025.9994	3027.6382	3031.5121	3046.43	3084.2343	3091.2221	3099.4183	3103.8557	3106.4675	3143.3652	3146.4746	3156.7011
CC(C)C1C2CC1C2=O	CC(C)[C@H]1[C@H]2C[C@@H]1C2=O	
InChI=1S/C8H12O/c1-4(2)7-5-3-6(7)8(5)9/h4-7H,3H2,1-2H3	InChI=1S/C8H12O/c1-4(2)7-5-3-6(7)8(5)9/h4-7H,3H2,1-2H3/t5-,6+,7+
