19
gdb 84382	2.0933	1.82774	1.19165	1.083	76.32	-0.2625	-0.0001	0.2624	1079.0039	0.159619	-423.015199	-423.006794	-423.00585	-423.048196	33.166	
O	 0.3901397559	 1.0778353543	-0.6453225928	-0.423522
C	 0.1243434168	-0.1839879713	-0.041540696	 0.014505
C	 0.6094020124	-0.2786282167	 1.3847010405	-0.11768
C	-0.3245232818	-0.7339384939	 2.2177763993	-0.117687
C	-1.6292098134	-1.0389155428	 1.5226566565	 0.014506
O	-2.7596771798	-0.4578381058	 2.1643461181	-0.423519
C	-1.3659793335	-0.5687350994	 0.076083105	 0.259143
C	-2.4130707863	 0.2371714422	-0.657296758	-0.308485
C	-2.1076759886	-1.1723380032	-1.0853066504	-0.31513
H	-0.0124096374	 1.7518327015	-0.0858311436	 0.272653
H	 0.6583355361	-0.8943104392	-0.6848807963	 0.098203
H	 1.6240321634	-0.0013474147	 1.6497022882	 0.105722
H	-0.2083267521	-0.894665931	 3.284195691	 0.105722
H	-1.8442464328	-2.1144330932	 1.5474753077	 0.098204
H	-2.5986189764	 0.4909442969	 2.2211023481	 0.272654
H	-3.3487317708	 0.4165400162	-0.1399302766	 0.119113
H	-2.060524099	 1.0445891124	-1.2890321378	 0.119114
H	-1.5630212516	-1.3164735533	-2.0133725766	 0.113242
H	-2.8438862713	-1.9409220988	-0.8708213063	 0.113242
47.3342	193.8088	250.502	269.444	277.3685	337.4974	340.0056	387.1793	487.2172	503.1662	550.8745	607.765	723.8597	758.3442	796.8436	825.7473	873.626	952.7322	957.5936	967.8035	986.832	1016.7153	1027.7983	1056.0943	1058.8016	1088.2584	1094.918	1143.7675	1204.1351	1250.2526	1260.0396	1260.6047	1275.3341	1281.8367	1358.9379	1364.3889	1425.2214	1433.2586	1455.6977	1494.9967	1682.1589	3031.274	3032.782	3119.1171	3138.1359	3182.3588	3202.2346	3207.0974	3231.6253	3795.0907	3795.9621
OC1C=CC(O)C11CC1	O[C@H]1C=C[C@@H](O)C21CC2	
InChI=1S/C7H10O2/c8-5-1-2-6(9)7(5)3-4-7/h1-2,5-6,8-9H,3-4H2	InChI=1S/C7H10O2/c8-5-1-2-6(9)7(5)3-4-7/h1-2,5-6,8-9H,3-4H2/t5-,6+
