16
gdb 79686	2.71981	1.52751	1.2281	3.4536	71.01	-0.2329	-0.025	0.2079	1023.667	0.123953	-437.804194	-437.796787	-437.795843	-437.836053	29.068	
O	 0.0872108831	 1.4206452282	-0.0747740892	-0.416836
C	-0.0534693934	 0.0587111099	 0.0374071797	 0.089047
C	-0.4210482279	-0.7349358532	 1.2437452396	-0.175206
C	-1.6078063224	-0.1809821162	 2.0604764892	-0.043642
N	-2.0340546155	 1.1282679951	 1.48452547	-0.377606
C	-2.4879285614	-0.1535926043	 0.8774254642	-0.116133
C	-1.3776371937	-0.7161068802	-0.0325670132	 0.17316
C	-1.6157831127	-1.818156264	-0.9552514884	 0.064262
O	-2.7139013998	-2.2477050289	-1.2376461922	-0.287007
H	-0.6283405846	 1.7939634404	 0.4742254952	 0.306382
H	 0.7073643804	-0.4472796719	-0.5564386126	 0.118315
H	 0.1494418848	-1.5937550573	 1.5763879125	 0.111827
H	-1.8232051088	-0.4331071104	 3.0895789141	 0.115146
H	-2.7952588646	 1.4867146376	 2.0585346765	 0.245189
H	-3.535386491	-0.3950790232	 0.7676905125	 0.12741
H	-0.6908878224	-2.2559212016	-1.3965653078	 0.06569
102.7309	181.6315	238.8921	269.7902	305.1457	429.1054	458.3133	586.0433	622.9555	676.0132	696.1376	732.4494	742.5041	835.9648	840.7728	876.2232	912.9942	943.7186	959.7674	1009.5422	1048.3609	1069.3743	1098.4879	1123.3576	1128.6882	1224.5028	1243.9536	1255.3552	1318.9642	1329.4723	1342.306	1421.0535	1439.2258	1501.7283	1778.3427	2864.5963	3121.7199	3188.1559	3211.4871	3230.4198	3490.0841	3558.9114
OC1C2C3NC3C12C=O	O[C@H]1[C@H]2[C@H]3N[C@H]3[C@@]12C=O	
InChI=1S/C6H7NO2/c8-1-6-2(5(6)9)3-4(6)7-3/h1-5,7,9H	InChI=1S/C6H7NO2/c8-1-6-2(5(6)9)3-4(6)7-3/h1-5,7,9H/t2-,3-,4-,5+,6+/m1/s1
