20
gdb 89787	1.95579	1.63959	1.00956	2.7575	81.06	-0.2227	-0.0263	0.1964	1228.0075	0.168893	-403.113662	-403.104362	-403.103418	-403.148334	33.958	
C	-0.3322949962	 1.5606308008	-0.0223662232	-0.32813
N	-0.1801511501	 0.122809358	 0.0286425963	-0.084837
C	-1.3201657663	-0.6924138489	 0.5030671951	-0.242238
C	-0.3327009912	-1.5464696433	 1.2992421649	 0.331696
C	-0.5489404626	-2.3519117567	 2.5376494969	-0.318672
C	-0.1486759454	-3.0342340518	 1.2481382511	-0.325682
C	 0.7301017781	-0.4557273279	 1.0326305341	-0.121334
C	 2.0499066638	-0.9520481208	 0.4849483297	 0.150645
O	 2.9682275477	-1.318349699	 1.1742603682	-0.256651
H	 0.617018511	 2.0254690502	-0.3085596235	 0.124461
H	-1.0759694521	 1.8261677645	-0.7808647729	 0.125116
H	-0.6530380944	 2.0008242386	 0.9405084431	 0.095913
H	-2.0176637794	-0.1348672077	 1.1496816858	 0.089736
H	-1.8909200964	-1.1807559425	-0.2956483536	 0.105841
H	 0.1942763454	-2.2822533245	 3.3253311506	 0.126995
H	-1.5680646812	-2.4742358353	 2.8912559329	 0.115515
H	-0.8964526933	-3.6165837651	 0.7193583439	 0.116122
H	 0.8603529736	-3.4267391861	 1.178301714	 0.132558
H	 0.9111506568	 0.1740365492	 1.9184497095	 0.080942
H	 2.0820795921	-0.9994959717	-0.6272454127	 0.082005
50.1869	74.1411	167.5822	186.8303	213.9404	236.9774	291.113	334.1529	386.5325	464.8735	495.1224	540.8525	737.7775	775.0094	866.3445	883.363	905.9838	948.9708	987.757	1005.6541	1038.189	1059.5685	1072.972	1086.5923	1109.8176	1139.9682	1168.3673	1189.9745	1192.6366	1214.5712	1233.454	1267.8461	1301.1803	1335.1316	1393.2978	1398.2655	1453.2564	1459.9977	1485.2914	1499.607	1504.8683	1518.4163	1822.0487	2881.8388	2931.5511	2964.7067	2977.5788	3043.545	3058.9382	3100.8105	3124.6985	3128.7902	3204.9923	3219.5511
CN1CC2(CC2)C1C=O	CN1CC2(CC2)[C@H]1C=O	
InChI=1S/C7H11NO/c1-8-5-7(2-3-7)6(8)4-9/h4,6H,2-3,5H2,1H3	InChI=1S/C7H11NO/c1-8-5-7(2-3-7)6(8)4-9/h4,6H,2-3,5H2,1H3/t6-/m1/s1
