19
gdb 117297	4.35485	0.73269	0.66738	3.6053	75.08	-0.2413	0.0128	0.2542	1699.3067	0.158791	-456.423868	-456.413689	-456.412745	-456.461129	35.915	
C	 0.2053914254	 1.2414659226	 0.1878775828	-0.37355
C	-0.1432200548	-0.2459768391	 0.1088828781	-0.148818
N	 0.1237571731	-0.8194053479	-1.203093349	-0.30698
C	 1.1274369576	-1.701410622	-1.4398568721	 0.418449
O	 1.8708473184	-2.1143176194	-0.5557405857	-0.394346
C	 1.2748129357	-2.1424284879	-2.8922434819	-0.416542
C	 1.3234458868	-3.6679971835	-3.106149174	 0.384467
N	 2.133115225	-4.3271412841	-2.2395379921	-0.507055
O	 0.7202409052	-4.1895548236	-4.0231550517	-0.361014
H	 1.2690818372	 1.4013732776	-0.0099915447	 0.134308
H	-0.3689906031	 1.8260128521	-0.5391074995	 0.114424
H	-0.0221805821	 1.6319114258	 1.1845635631	 0.124922
H	 0.4547378336	-0.8218648461	 0.8175065615	 0.15345
H	-1.1998505848	-0.4030769643	 0.356147405	 0.112796
H	-0.4374380199	-0.5138642793	-1.9814616873	 0.251517
H	 0.4798616805	-1.7611511619	-3.534485808	 0.122981
H	 2.2263326844	-1.7318131721	-3.2511307132	 0.156625
H	 2.4268209045	-3.8466151837	-1.3972012257	 0.2793
H	 2.1314898571	-5.3336081632	-2.2774884755	 0.255066
23.2665	44.7926	66.3316	100.7952	197.186	244.1771	304.6433	367.7703	387.631	438.8953	466.6366	488.878	538.3748	587.9641	639.606	709.4503	748.833	804.1474	872.9072	913.4559	950.125	962.5413	1073.5645	1113.1638	1139.5317	1172.9878	1183.8141	1248.0344	1315.9087	1325.4229	1360.1372	1393.5678	1412.2736	1454.1171	1484.377	1493.6535	1502.2824	1552.3148	1612.453	1747.1797	1809.3458	3036.3958	3037.3903	3050.0689	3100.2156	3119.3117	3127.0383	3132.3199	3513.7267	3643.165	3689.0458
CCNC(=O)CC(N)=O	CCNC(=O)CC(=O)N	
InChI=1S/C5H10N2O2/c1-2-7-5(9)3-4(6)8/h2-3H2,1H3,(H2,6,8)(H,7,9)	InChI=1S/C5H10N2O2/c1-2-7-5(9)3-4(6)8/h2-3H2,1H3,(H2,6,8)(H,7,9)
