17
gdb 51385	3.13368	1.03316	0.90062	3.5491	73.76	-0.2512	-0.0281	0.2231	1292.1419	0.134293	-421.821201	-421.812804	-421.811859	-421.855725	30.45	
O	-0.6098611378	 0.5188783741	 0.2495312155	-0.234279
C	 0.3809998153	 0.8740533964	-0.3334620137	 0.162762
C	 1.2653233545	 2.0292113762	 0.0973621979	-0.315195
C	 1.3884486582	 3.070232979	-1.0062703836	-0.022504
C	 2.5395537898	 3.9930408021	-1.2196868042	-0.084047
C	 3.8775041288	 3.3250336893	-0.8725221345	-0.365199
C	 3.5449627968	 2.2628273371	-1.9553833115	 0.409436
O	 4.1834934513	 1.3848999616	-2.4611010856	-0.308352
C	 2.2212826471	 2.897120583	-2.2779764333	-0.194977
H	 0.7189191014	 0.3623375432	-1.2630038991	 0.089944
H	 0.8404156977	 2.4710160906	 1.0036183355	 0.126512
H	 2.2481519907	 1.6124560781	 0.3494242619	 0.130081
H	 0.4337576478	 3.5361853778	-1.2437231197	 0.115947
H	 2.401451447	 5.0588718865	-1.3445121211	 0.111082
H	 4.745308041	 3.9074739312	-1.1958078561	 0.138691
H	 4.0390101664	 2.9949197458	 0.1572098647	 0.124888
H	 1.7677038439	 2.9664015879	-3.259078463	 0.115209
42.8445	58.2748	108.4353	191.0372	247.448	405.1864	448.0466	452.6041	516.4735	592.9021	638.4495	739.3018	797.3879	831.4922	847.8179	895.1842	942.5685	962.0513	999.5924	1018.8014	1039.7981	1065.336	1098.014	1111.9741	1140.1409	1177.6117	1215.2195	1238.7926	1286.4167	1296.1638	1325.9635	1425.0646	1430.3697	1458.2722	1463.1012	1836.2496	1883.3771	2880.2253	3037.5165	3060.9893	3097.7542	3111.9328	3131.0945	3193.9162	3206.7204
O=CCC1C2CC(=O)C12	O=CC[C@H]1[C@H]2CC(=O)[C@@H]12	
InChI=1S/C7H8O2/c8-2-1-4-5-3-6(9)7(4)5/h2,4-5,7H,1,3H2	InChI=1S/C7H8O2/c8-2-1-4-5-3-6(9)7(4)5/h2,4-5,7H,1,3H2/t4-,5+,7-/m0/s1
