19
gdb 84218	2.9307	1.53711	1.30024	2.1603	82.89	-0.2129	-0.035	0.1779	1044.8695	0.158911	-385.788679	-385.78082	-385.779876	-385.820525	31.809	
C	-0.0150189812	 1.4644360359	-0.094866886	-0.483919
C	 0.0020857534	-0.0431997424	-0.0627556616	 0.3047
C	 0.5272930449	-0.8998274542	-1.2899106744	-0.308241
C	-0.2507763704	-2.0077961734	-0.5840747259	 0.060676
C	 0.4132355694	-2.7931828178	 0.2837579813	-0.16437
C	 0.3242215007	-2.1812241081	 1.6956563814	 0.114638
O	 1.600813523	-2.1730283893	 2.3079105426	-0.428795
C	-0.2408415102	-0.8002378756	 1.3236338744	-0.13907
C	-1.140793854	-0.9914225698	 0.1500982538	-0.159013
H	 0.9891826953	 1.8803779938	 0.0454733439	 0.121911
H	-0.3926442188	 1.826502809	-1.058152518	 0.120649
H	-0.6577053737	 1.8752036805	 0.6900556485	 0.124103
H	 0.0854482788	-0.4798622316	-2.2023327048	 0.103772
H	 1.6013188103	-1.0566833877	-1.4329246455	 0.094886
H	 1.3217831473	-3.3348016558	 0.0327236122	 0.095063
H	-0.3302746415	-2.6761754401	 2.4239503078	 0.094156
H	 2.1854456514	-1.6576623526	 1.739771315	 0.275899
H	-0.5174181081	-0.1145262282	 2.1226315661	 0.081439
H	-2.2107491166	-0.8440842227	 0.0774331591	 0.091516
127.6439	191.5894	200.6114	295.3426	324.0461	378.9535	392.0275	460.3822	535.4495	558.6032	629.1378	702.2547	722.1682	796.5258	842.583	861.9271	905.9127	918.4897	941.1125	990.1106	1008.8061	1013.1072	1044.4247	1050.9183	1074.5509	1089.0671	1132.8594	1177.5645	1196.3086	1223.1715	1234.8424	1251.2884	1281.4845	1290.9374	1387.6912	1410.8498	1420.8948	1484.3872	1494.6485	1503.1001	1600.4144	3016.0703	3024.4467	3027.3222	3079.762	3083.5527	3100.2701	3133.8149	3160.4782	3192.517	3789.2709
CC12CC3=CC(O)C1C23	C[C@@]12C[C]3[CH][C@@H](O)[C@@H]1[C@@H]23	
InChI=1S/C8H10O/c1-8-3-4-2-5(9)7(8)6(4)8/h2,5-7,9H,3H2,1H3	InChI=1S/C8H10O/c1-8-3-4-2-5(9)7(8)6(4)8/h2,5-7,9H,3H2,1H3/t5-,6+,7-,8+/m1/s1
