18
gdb 18573	3.59973	1.93938	1.59995	1.1086	73.99	-0.2309	0.0164	0.2473	862.269	0.155417	-347.784506	-347.77754	-347.776596	-347.815451	27.863	
O	 0.1565420791	 1.4044319133	-0.0027131005	-0.42429
C	 0.076135278	 0.001450053	 0.0108424722	 0.115326
C	 0.1575841607	-0.633909088	 1.4568106495	-0.352295
C	-1.3530540127	-0.6414209563	 1.3969274552	 0.27296
C	-2.4563052995	-0.1640696272	 1.9660725924	-0.235712
C	-3.5024146924	 0.1166661143	 0.8882176693	-0.23402
C	-2.6547506971	 0.2245126172	-0.4248036232	-0.255562
C	-1.3901518207	-0.5911126036	-0.1075077614	-0.049911
H	-0.454058296	 1.7402520425	 0.6655512564	 0.280869
H	 0.808411256	-0.3528476127	-0.7179920552	 0.087946
H	 0.6024171968	-1.6340983682	 1.4259997171	 0.112726
H	 0.6533849296	-0.0417828857	 2.2303425941	 0.109793
H	-2.6089277493	 0.0672934237	 3.0143560631	 0.092016
H	-4.2476790606	-0.6882652274	 0.8193370632	 0.106032
H	-4.063994237	 1.0347868026	 1.0941930782	 0.100636
H	-3.1958123181	-0.1254797915	-1.3076893949	 0.096594
H	-2.3812119332	 1.2710454056	-0.6036548539	 0.1045
H	-1.3586247936	-1.5713315915	-0.5972065917	 0.072393
99.5135	218.9833	244.9354	352.0508	374.0063	416.6595	518.7648	587.7006	654.6939	761.5132	784.9016	798.9316	838.4314	863.9836	896.7835	932.5714	950.5566	966.8035	1003.3558	1047.8059	1075.6614	1110.8799	1116.2478	1157.5045	1173.6017	1210.2393	1218.7841	1246.9341	1261.9642	1293.8	1306.2902	1332.9137	1343.4889	1428.5602	1469.7433	1484.0209	1498.438	1729.4541	3007.8832	3034.5936	3040.1869	3047.0857	3060.205	3089.8539	3098.9225	3106.9117	3193.611	3769.2995
OC1CC2=CCCC12	O[C@H]1C[C]2[CH]CC[C@@H]12	
InChI=1S/C7H10O/c8-7-4-5-2-1-3-6(5)7/h2,6-8H,1,3-4H2	InChI=1S/C7H10O/c8-7-4-5-2-1-3-6(5)7/h2,6-8H,1,3-4H2/t6-,7+/m1/s1
