13
gdb 130716	3.49094	1.35134	0.97422	0.5873	72.08	-0.2647	-0.1008	0.164	1094.3656	0.091147	-452.769326	-452.762209	-452.761264	-452.801507	26.235	
O	 0.0067065772	-0.0895223323	 0.0025287227	-0.341769
C	 0.0178344329	 1.1257253353	 0.0089797699	 0.424314
N	-1.2191949465	 1.7840974807	 0.0287113653	-0.286338
N	-1.6436909459	 3.0511273012	 0.0407596543	-0.163645
C	-0.9049453846	 4.1023208687	 0.0362339332	-0.051321
C	 0.5610254974	 4.3165236075	 0.017660675	 0.32106
O	 0.9808345595	 5.4622643637	 0.0175096714	-0.321019
C	 1.5213445753	 3.1930886323	 0.0002185982	-0.144427
C	 1.2867117904	 1.8757376625	-0.0032279288	-0.146525
H	-1.9835711689	 1.1198349897	 0.035191269	 0.27909
H	-1.4578086104	 5.0387322232	 0.0482728693	 0.144168
H	 2.5511534632	 3.5392839793	-0.0111423267	 0.14031
H	 2.1290705705	 1.191148138	-0.0172655226	 0.146102
66.1654	126.1713	277.1825	362.1964	383.8816	409.2508	415.954	545.2447	629.613	665.789	732.4549	755.5233	785.7089	850.5553	885.5839	888.0857	948.0031	1058.4821	1146.9738	1193.7137	1267.7487	1359.1513	1392.106	1401.5153	1481.417	1672.1868	1689.1852	1730.1671	1770.9792	3166.923	3176.3542	3196.2438	3578.5536
O=C1NN=CC(=O)C=C1	O=c1[nH]ncc(=O)cc1	
InChI=1S/C5H4N2O2/c8-4-1-2-5(9)7-6-3-4/h1-3H,(H,7,9)	InChI=1S/C5H4N2O2/c8-4-1-2-5(9)7-6-3-4/h1-3H,(H,7,9)
