21
gdb 122103	3.04607	0.65791	0.55779	2.825	81.69	-0.2591	0.0453	0.3044	1944.8119	0.179607	-424.182224	-424.171102	-424.170158	-424.219464	39.258	
O	 0.0617031855	 1.4431576528	 0.0440115198	-0.420742
C	 0.0887648654	 0.0246009196	 0.05615956	-0.079537
C	-1.3479575745	-0.4700085298	-0.0600286406	-0.177833
C	-1.4356563869	-1.9996054963	-0.0812863641	-0.20107
C	-2.8808210479	-2.5486590271	-0.0495844622	-0.18826
C	-3.6943332975	-2.177813386	-1.3138460566	-0.052926
O	-5.008099307	-2.6884014527	-1.2812956979	-0.422075
C	-2.8854686559	-4.0030093276	 0.1067475439	 0.289841
C	-2.9081328319	-5.2037773424	 0.1849975025	-0.45035
H	 0.9652651128	 1.7630026687	 0.1199152467	 0.286493
H	 0.6866393539	-0.3710685845	-0.7816274444	 0.085719
H	 0.5395994888	-0.3595806683	 0.9859993617	 0.086025
H	-1.9219868223	-0.069213912	 0.7846474437	 0.109193
H	-1.7806024309	-0.0351931892	-0.9675166322	 0.115726
H	-0.9268532743	-2.3962032811	-0.9691630534	 0.107673
H	-0.8997253759	-2.407356303	 0.7837479766	 0.109849
H	-3.4053090984	-2.1116342128	 0.8112939326	 0.113492
H	-3.7916699658	-1.091199304	-1.3804892031	 0.114757
H	-3.1414512292	-2.5232657292	-2.2027702611	 0.090383
H	-4.9373594772	-3.6419797056	-1.1504093461	 0.284745
H	-2.9152751708	-6.2613876396	 0.282762814	 0.198899
55.0395	67.2471	92.2243	116.1868	141.0512	169.2862	233.9885	261.2297	268.0486	305.1452	413.2374	415.7398	472.3654	541.5854	598.2228	627.0438	653.4001	751.7389	809.3223	863.9987	979.2069	998.1545	1034.788	1056.6589	1074.1277	1086.972	1093.89	1149.0837	1204.6326	1219.6126	1234.2216	1281.1431	1302.3467	1317.4888	1335.0259	1347.5466	1380.119	1395.0831	1432.6644	1463.5097	1487.2746	1500.5182	1506.5028	1528.9088	2225.2314	2958.0754	2971.1239	2983.62	3016.5136	3026.5139	3037.6251	3059.0617	3086.4619	3098.8283	3501.7023	3776.2536	3831.8055
OCCCC(CO)C#C	OCCC[C@@H](CO)C#C	
InChI=1S/C7H12O2/c1-2-7(6-9)4-3-5-8/h1,7-9H,3-6H2	InChI=1S/C7H12O2/c1-2-7(6-9)4-3-5-8/h1,7-9H,3-6H2/t7-/m0/s1
