17
gdb 82477	2.68999	1.73915	1.54019	1.222	66.53	-0.2341	0.0636	0.2977	921.5983	0.13675	-458.905454	-458.898331	-458.897387	-458.93649	29.41	
O	-0.0911918795	 1.4151659794	-0.0661406612	-0.437597
C	-0.0105150393	 0.0065554385	-0.0798945662	 0.152004
C	-1.3824888871	-0.6385853073	-0.3561847308	-0.127185
C	-1.7848560807	 0.0220029034	-1.7036524606	-0.313697
C	-0.6140447074	-0.8028143038	-2.2628064288	 0.407834
O	-0.3175789134	-0.9873611842	-3.6002587296	-0.482432
C	-0.8355542168	-1.8987173114	-1.1801203748	 0.022331
O	 0.569645092	-2.0507156287	-0.9356927932	-0.290659
C	 0.6441659555	-0.6482779389	-1.3230173622	-0.037361
H	 0.7958261178	 1.7609448188	 0.0732568833	 0.287627
H	 0.4641745872	-0.3841715757	 0.8281232681	 0.079142
H	-2.0882950081	-0.7394772865	 0.4639514011	 0.077092
H	-2.7384210774	-0.3688091375	-2.0757467452	 0.08681
H	-1.7646357688	 1.1093091307	-1.764881262	 0.125238
H	-1.1280974851	-1.2209155466	-4.0651125995	 0.28369
H	-1.4160668417	-2.8174456607	-1.2503131902	 0.086261
H	 1.6209008628	-0.3253820296	-1.682867658	 0.080901
176.6214	265.6874	297.1293	314.316	347.8853	376.3553	453.4362	520.2567	545.7315	639.7452	700.8672	737.0486	795.6482	864.1823	885.8518	912.2446	932.9979	958.3339	969.4458	1030.3126	1047.3501	1055.8702	1095.0186	1114.5337	1138.1697	1156.0879	1186.964	1208.8733	1232.1817	1243.9199	1262.2816	1310.3806	1316.702	1346.8819	1395.3908	1418.4358	1495.5252	3034.7455	3050.6192	3128.3831	3134.1366	3144.2927	3154.9612	3807.8727	3822.5157
OC1C2CC3(O)C2OC13	O[C@H]1[C@H]2C[C@]3(O)[C@H]2O[C@H]13	
InChI=1S/C6H8O3/c7-3-2-1-6(8)4(2)9-5(3)6/h2-5,7-8H,1H2	InChI=1S/C6H8O3/c7-3-2-1-6(8)4(2)9-5(3)6/h2-5,7-8H,1H2/t2-,3+,4+,5-,6+/m1/s1
