21
gdb 95273	2.73396	1.63597	1.21583	1.5027	82.27	-0.2412	0.022	0.2632	1086.2858	0.185306	-387.113141	-387.105335	-387.104391	-387.145634	31.146	
C	-0.40802393	 1.4012285792	-0.2408650113	-0.396023
C	-0.2086282454	-0.0699186642	 0.1193579284	 0.126551
O	 0.210546489	-0.8157206693	-1.0312564888	-0.263081
C	 1.6000155159	-1.0673723107	-0.931526349	-0.094158
C	 1.8788722287	-1.3181242599	 0.5573807304	-0.013561
C	 3.2809716835	-0.8613993777	 1.0208409244	-0.286002
C	 3.0283486012	 0.5226103739	 1.5687824702	-0.070854
C	 1.7287551755	 0.7921990451	 1.6856496238	-0.068425
C	 0.8541653962	-0.353790151	 1.2296024257	-0.095924
H	 0.5336174454	 1.8691971281	-0.5428098425	 0.121741
H	-1.1163780886	 1.4839641564	-1.0696622105	 0.120488
H	-0.8096696785	 1.9627357495	 0.6099039914	 0.108068
H	-1.1766585295	-0.4928256946	 0.4132235363	 0.074213
H	 1.8313465416	-1.923663514	-1.5718785576	 0.10373
H	 2.1901825057	-0.2054665545	-1.2861793298	 0.085121
H	 1.6764116396	-2.3634043969	 0.8005099139	 0.073092
H	 3.6876457177	-1.5211945735	 1.798580014	 0.107341
H	 4.014016374	-0.8682307531	 0.2034144897	 0.103393
H	 3.832567732	 1.1913457308	 1.8569922108	 0.091845
H	 1.3213391205	 1.7118515762	 2.0908826703	 0.093731
H	 0.3538031054	-0.8105884996	 2.0917365002	 0.078715
52.8754	183.1076	220.9377	268.4226	312.2616	379.5625	431.2669	465.9627	584.0102	660.4514	701.505	776.5459	792.3553	831.7885	855.2343	884.8411	926.324	949.6561	978.5372	991.2758	1025.8021	1034.917	1046.4465	1084.4139	1105.6768	1116.3181	1136.0759	1149.4528	1203.9082	1221.9196	1262.4511	1280.6679	1304.0409	1321.5002	1328.75	1349.5173	1368.9695	1391.6346	1401.8563	1407.3855	1486.098	1490.0723	1495.5687	1517.4203	1682.1484	2962.7369	3015.262	3016.9453	3034.5406	3037.3392	3039.86	3073.6956	3090.8018	3105.5133	3120.0565	3178.7315	3204.413
CC1OCC2CC=CC12	C[C@H]1OC[C@H]2CC=C[C@@H]12	
InChI=1S/C8H12O/c1-6-8-4-2-3-7(8)5-9-6/h2,4,6-8H,3,5H2,1H3	InChI=1S/C8H12O/c1-6-8-4-2-3-7(8)5-9-6/h2,4,6-8H,3,5H2,1H3/t6-,7-,8+/m1/s1
