20
gdb 10532	2.68379	1.34868	1.04429	2.6529	71.32	-0.2588	0.0706	0.3294	1185.1741	0.175534	-386.113631	-386.104061	-386.103117	-386.148595	34.346	
O	-2.8426663247	 0.6238694545	-2.1719113768	-0.41986
C	-2.4834703454	-0.7125545662	-1.8487514329	-0.075641
C	-1.8925346691	-0.7004960649	-0.4416955867	-0.254699
C	-1.5619461168	-2.0793537541	 0.10677909	 0.380921
C	-0.461104566	-2.8307044021	-0.6090423592	-0.150133
O	 0.7317558062	-2.0596371962	-0.5362473968	-0.421354
C	-1.6574175564	-2.2850140044	 1.59910476	-0.304883
C	-2.6820661586	-2.9132036099	 0.6870581839	-0.316671
H	-3.1793947773	 0.634690881	-3.0723586255	 0.283269
H	-3.3602809726	-1.379870714	-1.8789188259	 0.082031
H	-1.7482188075	-1.1054382603	-2.5683572798	 0.084272
H	-0.9893523552	-0.0821588566	-0.4437478463	 0.12342
H	-2.6165538973	-0.2086830102	 0.2177677892	 0.09812
H	-0.3266150018	-3.8161883383	-0.1345360992	 0.0783
H	-0.7440009095	-3.0141115127	-1.6580610397	 0.084298
H	 1.3934633404	-2.4759445689	-1.0960532415	 0.286231
H	-0.9262650273	-2.932708261	 2.0708190378	 0.112219
H	-1.9633942369	-1.4421523042	 2.209151403	 0.112213
H	-3.6818273845	-2.4920665823	 0.6739007489	 0.111679
H	-2.6546813996	-3.9893738393	 0.5485835574	 0.106268
40.5768	77.5567	127.4531	179.5274	233.5732	247.2851	261.9433	312.4791	343.1309	398.9799	429.5448	542.812	748.6442	783.2554	799.7672	894.7241	934.1998	941.0542	965.7048	1024.8118	1044.4913	1052.1513	1071.5436	1078.7332	1087.8861	1102.5536	1186.9461	1216.841	1240.9018	1242.8793	1252.3383	1305.772	1325.1129	1352.0521	1382.1728	1458.6663	1464.8624	1468.5091	1488.5011	1504.8532	1521.5125	1525.733	2959.8437	2965.0452	2986.1434	2995.4704	3043.0872	3093.0881	3125.9343	3133.4281	3204.1854	3220.0859	3830.8578	3831.0993
OCCC1(CO)CC1	OCCC1(CO)CC1	
InChI=1S/C6H12O2/c7-4-3-6(5-8)1-2-6/h7-8H,1-5H2	InChI=1S/C6H12O2/c7-4-3-6(5-8)1-2-6/h7-8H,1-5H2
