16
gdb 54963	3.27925	1.09483	0.98951	4.6027	73.92	-0.2331	0.0015	0.2346	1217.6013	0.121925	-437.871231	-437.862093	-437.861149	-437.904966	34.396	
N	-0.0533408211	 1.2044731152	 0.3505347184	-0.535616
C	-0.011643277	-0.0501857551	-0.1648521984	 0.460883
O	 1.0369145092	-0.5422701613	-0.5803283774	-0.411909
C	-1.2976673552	-0.7951548553	-0.1811120708	-0.230673
C	-1.5536415913	-1.7529155649	-1.3359629679	-0.335435
C	-1.193356225	-2.3395133837	-0.0012237557	 0.219767
O	 0.0454562246	-2.9217337359	 0.1997061501	-0.459715
C	-2.2373787661	-2.9502908032	 0.7809132473	 0.313748
C	-3.1252064314	-3.4476073679	 1.4200295982	-0.432981
H	 0.8087603348	 1.7195751206	 0.4236185926	 0.268123
H	-0.8972634956	 1.6099985758	 0.7138121861	 0.266658
H	-2.1581469772	-0.3138533123	 0.2692179252	 0.099613
H	-2.5727928127	-1.8389579389	-1.6927456005	 0.130603
H	-0.7764939284	-1.7966932154	-2.0914972374	 0.142132
H	 0.705412841	-2.2924584288	-0.1531668151	 0.307445
H	-3.9008796785	-3.8989400291	 1.9876201652	 0.197357
82.6777	108.2683	154.4652	193.6673	245.0723	270.2619	367.9655	394.5094	431.3554	534.4295	565.5983	589.3281	598.7444	617.0221	652.7037	677.2807	685.3907	781.9368	804.4882	829.6561	922.3629	981.719	1047.1883	1068.7089	1075.495	1123.2478	1208.5783	1281.5187	1293.4494	1438.4091	1452.9533	1491.6885	1617.6805	1737.6935	2244.1728	3139.3051	3174.6475	3239.5713	3503.6712	3541.3883	3606.477	3744.347
NC(=O)C1CC1(O)C#C	NC(=O)[C@H]1C[C@]1(O)C#C	
InChI=1S/C6H7NO2/c1-2-6(9)3-4(6)5(7)8/h1,4,9H,3H2,(H2,7,8)	InChI=1S/C6H7NO2/c1-2-6(9)3-4(6)5(7)8/h1,4,9H,3H2,(H2,7,8)/t4-,6-/m1/s1
