19
gdb 80948	2.5148	1.32635	1.20721	1.4212	82.43	-0.2393	0.0358	0.2751	1156.4166	0.156352	-385.800464	-385.791431	-385.790487	-385.833651	34.833	
C	-0.0251851926	 1.6357633993	 0.017595042	-0.435449
C	-0.0267930356	 0.1196791736	-0.0023219877	-0.026024
C	 1.2085949169	-0.6272291227	-0.5667797345	 0.026916
O	 1.9960929206	-0.2000478603	 0.6054104149	-0.343948
C	 0.6889280328	-0.6500047196	 1.1551342308	 0.398363
C	 0.4739837515	-0.5977133305	 2.6337121998	-0.520933
C	 0.8129624107	-1.9115691027	 0.2253459215	-0.216293
C	-0.34131519	-2.7078208933	-0.1263645641	 0.299218
C	-1.2954419817	-3.3843645939	-0.408624423	-0.44654
H	 0.9537712444	 2.0164382999	 0.3163664508	 0.136765
H	-0.2683588883	 2.0370721	-0.9720895136	 0.116364
H	-0.7774655097	 2.0173868439	 0.716678281	 0.114996
H	-0.9919123856	-0.2996622601	-0.2989252121	 0.087568
H	 1.6844254106	-0.5605773534	-1.5453831717	 0.096272
H	 0.4888689937	 0.4366818938	 2.9905283649	 0.135893
H	-0.495735156	-1.038870919	 2.8841400735	 0.136822
H	 1.2565089812	-1.1568428681	 3.1552576988	 0.136613
H	 1.6847634817	-2.5185482956	 0.4797117514	 0.107611
H	-2.1372537146	-3.9802611915	-0.6614608827	 0.195786
122.2922	137.0879	186.403	193.3166	214.7949	282.2539	316.9207	352.3947	419.6594	517.381	547.7935	629.3829	638.5765	648.3909	667.8606	719.2476	786.4069	812.8161	885.2176	900.1464	950.4893	1019.8324	1057.0651	1057.5727	1087.7476	1108.7413	1138.0966	1172.2528	1206.9236	1213.4909	1241.6788	1295.6972	1358.0438	1396.0051	1405.4587	1426.3323	1476.1302	1486.0441	1495.4959	1505.3112	2229.1928	3035.3456	3040.2423	3079.5193	3091.1425	3091.7399	3114.7839	3117.7508	3119.5125	3132.3999	3502.327
CC1C2OC1(C)C2C#C	C[C@H]1[C@H]2O[C@]1(C)[C@H]2C#C	
InChI=1S/C8H10O/c1-4-6-7-5(2)8(6,3)9-7/h1,5-7H,2-3H3	InChI=1S/C8H10O/c1-4-6-7-5(2)8(6,3)9-7/h1,5-7H,2-3H3/t5-,6-,7+,8-/m0/s1
