19
gdb 7982	3.34317	1.66301	1.20901	3.7584	72.24	-0.2355	0.0373	0.2727	1037.4668	0.166365	-365.127497	-365.119206	-365.118262	-365.160086	31.111	
C	-0.1511081559	 1.583050617	 0.0151024623	-0.399138
C	 0.0546575197	 0.0713166354	 0.0183324377	 0.052621
C	 0.8401643419	-0.4692615625	-1.198706127	-0.226614
C	 1.5751153781	-1.7126186496	-0.6694428282	-0.097697
C	 2.8963089537	-2.0671070485	-1.3451899059	-0.400224
C	 1.7384211948	-1.4134348431	 0.8299197358	 0.414072
O	 2.4666797098	-1.9872722533	 1.6112375876	-0.390336
N	 0.891103974	-0.3795709968	 1.1239683598	-0.317345
H	 0.8112887702	 2.1030215229	-0.0227107649	 0.125236
H	-0.7438205564	 1.8837448431	-0.8548151705	 0.122767
H	-0.685974351	 1.9154198601	 0.9113313811	 0.115973
H	-0.9320602449	-0.4173018866	 0.064929037	 0.078371
H	 0.1867040028	-0.6727096416	-2.0504005094	 0.104187
H	 1.5733920112	 0.2836427503	-1.513036584	 0.10498
H	 0.9046085557	-2.5828553286	-0.7211814344	 0.099268
H	 3.5696995445	-1.2034256078	-1.3648144198	 0.117166
H	 3.3938153528	-2.8658638792	-0.7892010324	 0.141651
H	 2.740252261	-2.3993407555	-2.3759781686	 0.109595
H	 0.7273071577	-0.1154099257	 2.0832283538	 0.245467
93.5137	111.7766	207.3068	232.1515	251.1944	294.2197	368.5215	451.8467	492.1193	527.787	567.4285	644.4388	705.1367	784.5208	870.9159	900.4559	929.1918	974.4692	1007.7062	1073.91	1080.1705	1134.2393	1154.3952	1182.3207	1208.1664	1254.8342	1300.0683	1314.381	1342.041	1365.6115	1395.3092	1408.7295	1410.7675	1431.7303	1490.8454	1491.4099	1496.7549	1499.2065	1499.545	1825.6347	2963.5942	3004.7516	3031.9509	3035.7295	3039.5904	3099.8685	3101.274	3104.8385	3113.2925	3124.5375	3631.4329
CC1CC(C)C(=O)N1	C[C@H]1C[C@@H](C)C(=O)N1	
InChI=1S/C6H11NO/c1-4-3-5(2)7-6(4)8/h4-5H,3H2,1-2H3,(H,7,8)	InChI=1S/C6H11NO/c1-4-3-5(2)7-6(4)8/h4-5H,3H2,1-2H3,(H,7,8)/t4-,5+/m1/s1
