16
gdb 36192	3.92904	1.1758	1.14717	4.9544	71.86	-0.247	0.0292	0.2762	1098.9825	0.124672	-400.69264	-400.685337	-400.684393	-400.724991	27.982	
N	 0.013634445	-1.1291132662	-0.3278338591	-0.30404
C	 0.0815871734	-0.0189610413	-0.0169323466	 0.272249
C	 0.1609883817	 1.3930644583	 0.3685309028	-0.468956
C	 1.5169349552	 1.989695401	 0.1363896681	 0.504241
O	 2.5913731574	 1.6192679951	 0.9964788396	-0.321311
C	 3.3200265267	 2.7475664962	 0.4278765481	 0.064107
C	 3.6265834955	 2.2863383315	-1.0203431188	-0.230219
C	 2.1150326607	 2.3842225098	-1.2274826165	-0.154289
C	 1.9740704877	 3.39073639	-0.0829078609	-0.219273
H	-0.5832141218	 1.9555387274	-0.2063634506	 0.161177
H	-0.1076793892	 1.4882206802	 1.4267271026	 0.167344
H	 4.0623657363	 3.1675337814	 1.1020052292	 0.095961
H	 4.155916592	 3.0559168082	-1.5874163086	 0.110105
H	 4.118558572	 1.3154064096	-1.1257930941	 0.114645
H	 1.5466082615	 2.3326399067	-2.1474253824	 0.101821
H	 1.505761926	 4.3614439622	 0.0022264771	 0.106439
62.3293	99.478	266.5438	284.442	385.6199	451.3967	459.3628	548.1424	687.8001	759.0742	786.9621	806.589	825.2537	875.7156	909.3513	919.9836	943.3162	961.3627	971.4171	1009.3389	1042.2515	1073.6583	1097.7749	1128.7337	1157.685	1171.6151	1241.7143	1247.5529	1268.6597	1320.8317	1330.8303	1445.3706	1446.1726	1487.0571	2368.2042	3045.7956	3058.9203	3087.5955	3121.7013	3155.9727	3199.5968	3213.4839
N#CCC12OC3CC1C23	N#CC[C@@]12O[C@H]3C[C@@H]1[C@@H]23	
InChI=1S/C7H7NO/c8-2-1-7-4-3-5(9-7)6(4)7/h4-6H,1,3H2	InChI=1S/C7H7NO/c8-2-1-7-4-3-5(9-7)6(4)7/h4-6H,1,3H2/t4-,5+,6-,7-/m1/s1
