17
gdb 12574	3.09475	2.03948	1.25804	3.4556	74.71	-0.2349	-0.0165	0.2184	962.3028	0.141954	-363.907018	-363.898803	-363.897859	-363.939662	29.647	
C	 0.093859496	 1.4922247595	 0.0357672547	-0.500353
C	-0.0172177481	 0.0047338353	-0.001507748	 0.181888
C	-1.1014131023	-0.7840862466	 0.0288162958	 0.147759
C	-2.5529675278	-0.4474116277	 0.1093504315	-0.494148
C	-0.6541879353	-2.1868325321	-0.033273947	 0.354101
N	-1.400883408	-3.2105054108	-0.0261651293	-0.550946
O	 0.7171097795	-2.2106256383	-0.1009333645	-0.24905
C	 1.2056884702	-0.8698362669	-0.0863221766	-0.173071
H	 0.6876661513	 1.8223945197	 0.8974556379	 0.136129
H	 0.6025157401	 1.8727660776	-0.8589827641	 0.136119
H	-0.8850541276	 1.9722439892	 0.0969926363	 0.137558
H	-3.087635267	-0.8574770365	-0.7537169533	 0.147387
H	-3.0024186738	-0.9084802186	 0.9949619046	 0.147408
H	-2.7253689599	 0.6306142284	 0.1491812975	 0.116062
H	-0.8434590916	-4.0641199561	-0.0778714967	 0.219997
H	 1.7927074196	-0.6889646967	-0.9979006275	 0.121579
H	 1.8791868647	-0.7397718994	 0.7726098487	 0.121581
94.2899	128.1515	140.3871	221.3368	264.1369	270.1361	292.0993	473.5168	509.3266	568.9656	656.7655	732.9057	754.2488	867.4912	895.5162	962.4268	967.4057	1015.2145	1065.2321	1078.4998	1087.3388	1136.5324	1188.7592	1199.1531	1236.9953	1366.6474	1390.4908	1419.1344	1420.3431	1471.0546	1478.5141	1482.6905	1486.6172	1505.0102	1737.1464	1755.0915	3001.3105	3022.2697	3028.9035	3042.2485	3066.8235	3096.98	3123.1689	3126.926	3482.2208
CC1=C(C)C(=N)OC1	C[C]1C(=C([NH])OC1)C	
InChI=1S/C6H9NO/c1-4-3-8-6(7)5(4)2/h7H,3H2,1-2H3	InChI=1S/C6H9NO/c1-4-3-8-6(7)5(4)2/h7H,3H2,1-2H3
