25
gdb 59458	2.57811	0.97589	0.81067	1.6914	89.64	-0.2555	0.0747	0.3302	1584.6077	0.225869	-389.491077	-389.479822	-389.478877	-389.527747	41.281	
C	-0.4557482155	 0.9989353668	 2.8377909318	-0.386557
C	-1.0416124781	-0.4143616262	 2.6968493242	-0.004767
C	-1.9575126422	-0.7664230186	 3.8778951207	-0.397731
C	-1.8006181844	-0.5237856527	 1.3898462704	 0.068708
O	-1.0397968607	-0.4738549255	 0.176390555	-0.280707
C	-1.7772805359	-1.6690717198	 0.4616918878	 0.068705
C	-0.989911649	-2.951367536	 0.6408235912	-0.004767
C	-1.8904675574	-4.0561993113	 1.2118183299	-0.39773
C	-0.3667755707	-3.3671701771	-0.7005639577	-0.386559
H	 0.1319799951	 1.0897186062	 3.7569042252	 0.109014
H	 0.1915190283	 1.2349415703	 1.9887018274	 0.132
H	-1.2523837157	 1.7515551257	 2.8754567532	 0.110956
H	-0.2071928852	-1.1237648789	 2.6744909353	 0.078878
H	-2.8153485158	-0.0853116977	 3.9261935076	 0.115488
H	-2.3464363908	-1.786632742	 3.7986926311	 0.119683
H	-1.4175332368	-0.6839682175	 4.8262907332	 0.115837
H	-2.6962434156	 0.1055694076	 1.3601435124	 0.078846
H	-2.6575713085	-1.7922371336	-0.1778647974	 0.078846
H	-0.1738017216	-2.7622245374	 1.3466552537	 0.078878
H	-1.3298282958	-4.9875654552	 1.3385924595	 0.115837
H	-2.3058579684	-3.7772571711	 2.1854736801	 0.119683
H	-2.7301654034	-4.2654306677	 0.538574303	 0.115488
H	 0.269043866	-2.569610528	-1.094566817	 0.132001
H	 0.241213605	-4.2704412846	-0.587048266	 0.109014
H	-1.1437528229	-3.5792970358	-1.4447359145	 0.110956
43.0679	60.386	128.0951	164.5393	212.2267	217.9812	238.4292	241.1188	255.905	315.889	324.3648	362.5156	417.2964	459.2487	510.3414	587.236	769.4999	826.4989	872.1485	893.2577	925.0733	928.6961	956.7845	960.6017	966.9991	985.2364	1062.3186	1109.088	1144.1795	1151.659	1183.0013	1185.6148	1207.9833	1209.9462	1299.7636	1305.4874	1328.5627	1334.4195	1348.5065	1393.0497	1397.0444	1406.8457	1417.1325	1425.3955	1485.3726	1487.876	1488.6809	1490.3267	1491.0112	1501.5403	1505.0478	1509.5122	1517.495	3026.2903	3026.6249	3029.7196	3030.4572	3036.884	3048.859	3049.2973	3062.7537	3091.0102	3091.5403	3097.5289	3100.3667	3104.0509	3105.6707	3116.6379	3116.8716
CC(C)C1OC1C(C)C	CC(C)[C@H]1O[C@H]1C(C)C	
InChI=1S/C8H16O/c1-5(2)7-8(9-7)6(3)4/h5-8H,1-4H3	InChI=1S/C8H16O/c1-5(2)7-8(9-7)6(3)4/h5-8H,1-4H3/t7-,8+
