16
gdb 126132	4.51567	1.07609	0.87831	1.2861	72.42	-0.2747	-0.0622	0.2125	1279.4816	0.124353	-434.096753	-434.088456	-434.087512	-434.13063	29.34	
C	-0.067337681	 1.5046813442	-0.0828175557	-0.387231
C	 0.0308250342	-0.0134220836	 0.0484996147	-0.299514
C	 0.7742303555	-0.4293749171	 1.2948333499	 0.452989
O	 1.2492048862	 0.3128129825	 2.1139880313	-0.304491
N	 0.9064945422	-1.8394794019	 1.4865063765	-0.023815
C	 1.5283707179	-2.4739839028	 2.522564808	-0.069398
C	 1.3779269956	-3.8001068241	 2.2389047638	-0.071386
N	 0.682054549	-3.9255588266	 1.0606109259	-0.178786
N	 0.398174723	-2.7515073555	 0.6071291258	-0.133239
H	 0.9242525748	 1.9617477245	-0.127320135	 0.135721
H	-0.6104311271	 1.76696821	-0.9941975711	 0.120631
H	-0.5921448035	 1.9413453075	 0.7704371285	 0.135721
H	-0.9567699593	-0.4878844635	 0.070554314	 0.154464
H	 0.5344537665	-0.4678163931	-0.8122138782	 0.154462
H	 1.9934634602	-1.922978501	 3.320494225	 0.17476
H	 1.7141891857	-4.6642825696	 2.7876459966	 0.139113
54.5243	84.7103	158.7346	165.6013	200.1006	290.6198	381.4167	504.5981	550.529	646.1312	714.5058	720.9501	805.5404	822.3736	888.6471	941.8011	965.7859	1001.6768	1045.9723	1069.2631	1103.7571	1111.4565	1130.6154	1202.1507	1276.601	1295.3514	1349.5645	1386.2978	1417.5195	1442.3278	1449.5076	1492.589	1499.1667	1539.3622	1830.6816	3054.7887	3055.914	3082.0984	3129.0819	3130.8043	3278.2748	3313.3688
CCC(=O)N1C=CN=N1	CCC(=O)n1ccnn1	
InChI=1S/C5H7N3O/c1-2-5(9)8-4-3-6-7-8/h3-4H,2H2,1H3	InChI=1S/C5H7N3O/c1-2-5(9)8-4-3-6-7-8/h3-4H,2H2,1H3
