21
gdb 117776	2.56452	0.98409	0.8433	4.1501	79.35	-0.2708	0.0319	0.3027	1486.0283	0.181528	-420.422905	-420.412268	-420.411324	-420.458634	38.578	
C	-0.012141351	 1.6244223218	 0.0939922009	-0.385884
C	 0.0167541098	 0.0943035717	 0.0633053556	-0.18478
C	-1.3844184155	-0.5122049271	-0.0672169291	-0.199238
C	-1.407980407	-2.0469638017	-0.0394610039	 0.222437
O	-0.8550735036	-2.4902397336	 1.1782994186	-0.444836
C	-2.849414144	-2.601887166	-0.1687825765	-0.202353
N	-2.8159480634	-4.0397269189	 0.1022562693	-0.530265
C	-0.6163568421	-2.5959920555	-1.1807330204	 0.262609
N	-0.0364741567	-3.0582164295	-2.0679288811	-0.356207
H	 0.9975575024	 2.0351176024	 0.1876686514	 0.11731
H	-0.4540807629	 2.0341207919	-0.8213202479	 0.113949
H	-0.6014123256	 1.9946687712	 0.9404950451	 0.114051
H	 0.6387702397	-0.2463553264	-0.7730197339	 0.11789
H	 0.4830283255	-0.2916542747	 0.9752757836	 0.12458
H	-2.0132500421	-0.1762050358	 0.7660865008	 0.106198
H	-1.8612133337	-0.1700608481	-0.9943719365	 0.104542
H	-1.2097124154	-3.3897889697	 1.2916264886	 0.29205
H	-3.4478350918	-2.1194820406	 0.609951243	 0.119331
H	-3.2704760208	-2.3274968576	-1.1461924279	 0.10931
H	-3.7305129266	-4.3851277046	 0.3667150396	 0.245608
H	-2.5194385051	-4.5549809889	-0.7207506994	 0.253699
79.7925	89.1337	114.5398	127.9944	186.8932	206.7619	246.3782	291.7781	303.283	328.2788	382.4637	407.9819	476.6967	591.9939	625.5788	686.6006	709.1127	753.3314	853.9548	872.7845	900.6983	936.6755	1001.9456	1033.0518	1049.0204	1090.3158	1106.7159	1129.2997	1190.2647	1229.8766	1279.5884	1313.6008	1324.6341	1350.4491	1389.0184	1409.6181	1414.6381	1434.3866	1468.672	1491.2357	1494.1673	1500.7692	1510.3932	1655.9527	2341.9005	3005.2143	3025.2456	3029.1415	3041.4816	3064.7879	3080.725	3088.8397	3103.1771	3106.1606	3514.1995	3600.698	3639.5425
CCCC(O)(CN)C#N	CCC[C@@](O)(CN)C#N	
InChI=1S/C6H12N2O/c1-2-3-6(9,4-7)5-8/h9H,2-4,7H2,1H3	InChI=1S/C6H12N2O/c1-2-3-6(9,4-7)5-8/h9H,2-4,7H2,1H3/t6-/m1/s1
