16
gdb 12248	3.38178	1.56783	1.20553	2.8808	61.08	-0.2653	-0.0025	0.2629	1008.1937	0.129101	-420.901681	-420.893253	-420.892309	-420.935028	29.492	
C	-0.2236314346	 1.459562064	 0.1804384583	-0.392322
C	-0.0204340126	-0.0517643118	 0.0404459581	-0.180925
C	 0.9668498659	-0.5987368381	 1.0494223842	 0.116349
O	 0.4762467623	-0.4555639818	 2.442607119	-0.252512
C	 0.4057913655	-1.8084066225	 2.61553392	 0.41556
O	-0.03140102	-2.4173360721	 3.5396434992	-0.329777
C	 1.028616477	-2.130163412	 1.24683376	-0.077736
O	 0.2555372438	-2.8871621056	 0.355567056	-0.419752
H	 0.7132337886	 2.0048911331	 0.021940149	 0.116036
H	-0.9498836817	 1.8225787641	-0.5520105018	 0.120163
H	-0.5926975229	 1.7099438898	 1.1789839101	 0.139974
H	-0.970477347	-0.5830353363	 0.1518586939	 0.119139
H	 0.3562311136	-0.300180654	-0.9593353144	 0.115309
H	 1.9431601039	-0.1119929018	 0.9738350194	 0.098257
H	 2.054074776	-2.5142787067	 1.340306468	 0.106984
H	 0.0028026721	-3.7028088884	 0.802651191	 0.305253
81.602	102.5534	136.2379	168.8669	227.1463	261.7366	300.3426	429.8183	478.1822	568.6949	706.4472	747.8188	805.4652	835.859	883.1651	939.2514	980.8456	1055.0809	1090.5505	1134.1378	1143.7429	1184.8552	1204.2856	1279.0386	1302.4487	1321.8412	1352.6653	1406.0844	1411.5364	1414.7403	1474.8911	1499.2496	1508.7107	1932.1377	3009.2628	3038.9027	3043.3188	3073.9705	3090.8518	3110.9667	3122.1733	3809.5156
CCC1OC(=O)C1O	CC[C@H]1OC(=O)[C@H]1O	
InChI=1S/C5H8O3/c1-2-3-4(6)5(7)8-3/h3-4,6H,2H2,1H3	InChI=1S/C5H8O3/c1-2-3-4(6)5(7)8-3/h3-4,6H,2H2,1H3/t3-,4+/m1/s1
