15
gdb 132267	1.93507	1.74828	0.92371	3.4835	72.68	-0.2183	-0.0319	0.1864	1177.6881	0.112694	-461.991894	-461.984109	-461.983165	-462.024351	29.379	
C	-0.0188498859	 1.5214071245	 0.030930184	-0.485985
C	 0.0007044739	 0.0162456727	 0.0004871265	 0.375006
C	-0.0216333308	-0.6715173275	-1.1805859846	-0.364443
C	-0.0030895595	-2.1161300737	-1.2489498121	 0.444875
O	-0.020007494	-2.8218495777	-2.2403340734	-0.393599
N	 0.040185851	-2.7222097146	 0.0379941141	-0.44303
C	 0.0619598332	-2.036864312	 1.200752261	 0.44433
F	 0.1018253144	-2.8001554432	 2.2826265389	-0.054
C	 0.044241327	-0.6840117734	 1.2485668924	-0.438336
H	 0.8738363194	 1.9101004008	 0.53398453	 0.140241
H	-0.0584114929	 1.9428751748	-0.9752701605	 0.135453
H	-0.8855131254	 1.8864039583	 0.5935842041	 0.139993
H	-0.0547493197	-0.1564496431	-2.132729937	 0.111563
H	 0.054734815	-3.7332171365	 0.053091672	 0.27118
H	 0.0627569544	-0.1744463494	 2.2012308144	 0.116752
114.8183	168.9665	187.9546	233.5866	291.004	346.4909	490.5819	517.4567	557.6056	559.7182	610.786	614.3713	683.5748	749.9871	790.7762	868.7971	937.0624	993.865	1004.4676	1060.9461	1069.3176	1142.823	1211.5945	1259.2187	1297.0883	1407.6154	1432.7245	1480.2105	1486.7127	1509.8196	1595.3066	1692.117	1791.8301	3034.2204	3087.7083	3132.2957	3210.6724	3234.2504	3608.8242
CC1=CC(=O)NC(F)=C1	Cc1cc(=O)[nH]c(F)c1	
InChI=1S/C6H6FNO/c1-4-2-5(7)8-6(9)3-4/h2-3H,1H3,(H,8,9)	InChI=1S/C6H6FNO/c1-4-2-5(7)8-6(9)3-4/h2-3H,1H3,(H,8,9)
