20
gdb 80066	3.06431	1.78236	1.51603	1.0328	82.97	-0.1993	0.0155	0.2147	962.9157	0.173387	-365.955758	-365.948829	-365.947885	-365.986474	29.606	
C	 0.0278256699	 1.4244938506	-0.1722211742	-0.324765
N	 0.0123756262	-0.0221832295	 0.0080396974	-0.094224
C	-1.2805007847	-0.5286657116	 0.643916115	-0.053987
C	-1.3665998886	-1.9669597485	 0.2062277682	-0.06522
C	-0.314016378	-2.6951101043	 0.5816037885	-0.049982
C	 0.6201328121	-2.0059233755	 1.5443607345	-0.120143
C	-0.2505305912	-1.6776246272	 2.8077167063	-0.234389
C	-0.6383880172	-0.3756935932	 2.0997819684	-0.045778
C	 0.6670029262	-0.4274014837	 1.2659874565	 0.033054
H	 1.0361742381	 1.7400341913	-0.4614684416	 0.117478
H	-0.6527144957	 1.6914973067	-0.9876071935	 0.115817
H	-0.2643844246	 2.0080726726	 0.7201009323	 0.089243
H	-2.1612473809	 0.0759120014	 0.4219665447	 0.063323
H	-2.1651638728	-2.3185358077	-0.4364802752	 0.091497
H	-0.1523092684	-3.7283434939	 0.2936075552	 0.091177
H	 1.5711120044	-2.5179476324	 1.6916377154	 0.064151
H	-1.0193012832	-2.4044677615	 3.0817691458	 0.094869
H	 0.3721501294	-1.4471364648	 3.6788493774	 0.096165
H	-0.9836884575	 0.4878940368	 2.6689034874	 0.068036
H	 1.6073989566	 0.0670886242	 1.5201082215	 0.063679
194.1234	237.7013	286.8366	353.4282	366.5217	418.9927	535.5279	598.4742	670.301	710.4454	713.4696	773.7827	797.2999	822.1778	853.4589	906.2092	947.1041	949.4948	962.9235	974.6734	1005.6264	1037.098	1057.6808	1079.9024	1111.8235	1127.2554	1148.1612	1163.5919	1173.8592	1191.9341	1218.1414	1236.4374	1260.0611	1289.4054	1301.9867	1314.6728	1338.0656	1384.0811	1449.48	1481.9259	1489.0233	1501.7676	1677.8017	2935.2921	3042.2424	3053.0708	3081.6654	3092.287	3095.4354	3102.2663	3104.9065	3109.3721	3176.0255	3202.8382
CN1C2C=CC3CC2C13	CN1[C@H]2C=C[C@@H]3C[C@H]2[C@H]13	
InChI=1S/C8H11N/c1-9-7-3-2-5-4-6(7)8(5)9/h2-3,5-8H,4H2,1H3	InChI=1S/C8H11N/c1-9-7-3-2-5-4-6(7)8(5)9/h2-3,5-8H,4H2,1H3/t5-,6-,7+,8-/m1/s1
