19
gdb 19185	4.05461	1.87219	1.71088	0.8547	75.84	-0.2097	0.0044	0.2141	866.2668	0.16619	-327.873376	-327.86613	-327.865186	-327.904136	29.308	
C	-0.1672766328	 1.5959573036	-0.0203630002	-0.43017
C	 0.0568665182	 0.097746817	 0.0392612478	 0.060782
C	 1.2557047108	-0.617099427	-0.6930115328	-0.07249
C	 2.4648664964	 0.1196817751	-0.0733799578	-0.087646
C	 2.1552460094	 0.1253961181	 1.2253711242	-0.087632
C	 0.7953676184	-0.609045792	 1.2390134853	-0.072482
N	 0.9883778618	-1.7400934559	 0.2688262256	-0.06732
C	 2.0127513237	-2.7397228493	 0.5170586977	-0.326923
H	 0.7418445149	 2.1624718635	 0.1937737405	 0.117624
H	-0.5259813899	 1.8885031224	-1.013538765	 0.114629
H	-0.9345613549	 1.8956560471	 0.7022063177	 0.11463
H	-0.8681043773	-0.4421882261	-0.1788526339	 0.086208
H	 1.2540363564	-0.8444423791	-1.7601238595	 0.06117
H	 3.3179394383	 0.5336700334	-0.5915659331	 0.101429
H	 2.6836368839	 0.5453250508	 2.0692309695	 0.10143
H	 0.3122793344	-0.8279816578	 2.192486507	 0.061176
H	 1.6940682738	-3.3723574451	 1.3522775985	 0.114965
H	 2.1037273913	-3.3795272103	-0.3671072545	 0.114966
H	 3.0061872934	-2.3271502086	 0.7520361232	 0.095651
212.9123	217.5719	225.517	243.8036	312.6709	336.3616	538.9445	566.892	607.9529	688.3853	760.3591	772.2084	781.8661	809.0038	846.8753	886.2079	913.347	940.0288	987.3689	1037.0183	1061.8902	1103.944	1116.7799	1127.9532	1156.3946	1197.7554	1211.9237	1222.4733	1242.9273	1245.2599	1280.5786	1312.4662	1376.5474	1411.1853	1440.0069	1484.4355	1494.3511	1501.8111	1506.1109	1614.5487	2983.5569	3033.3228	3063.7112	3080.053	3089.5455	3096.1464	3105.3089	3109.0744	3123.6948	3221.0719	3248.7793
CC1C2C=CC1N2C	C[C@H]1[C@H]2C=C[C@@H]1N2C	
InChI=1S/C7H11N/c1-5-6-3-4-7(5)8(6)2/h3-7H,1-2H3	InChI=1S/C7H11N/c1-5-6-3-4-7(5)8(6)2/h3-7H,1-2H3/t5-,6+,7-
