23
gdb 121637	4.14835	0.62429	0.59486	1.4567	83.71	-0.2416	-0.0108	0.2308	1999.0916	0.201984	-425.444037	-425.432455	-425.431511	-425.482283	39.855	
C	-0.1064772587	 1.3405245278	-0.0736209716	-0.227911
O	 0.0840747351	-0.0536163909	-0.0645483982	-0.235796
C	 0.6380651447	-0.5197032081	 1.1474306266	-0.052372
C	 0.7961376165	-2.028139938	 1.0387327347	-0.323417
C	 1.4055040279	-2.6636528896	 2.2761322929	 0.381267
O	 1.8366232437	-1.9947813211	 3.1901405584	-0.321717
C	 1.4207245128	-4.1944479865	 2.3252687367	-0.059099
C	 2.6791020434	-4.7107584128	 3.0301590975	-0.385497
C	 0.1388817431	-4.6655706839	 3.0444190561	-0.387364
H	 0.8423844014	 1.8843017462	 0.0591687433	 0.104743
H	-0.5335573834	 1.6072178407	-1.0435449768	 0.125086
H	-0.7981163124	 1.6642388799	 0.720574812	 0.104048
H	 1.6135770736	-0.0490159985	 1.3431003061	 0.103363
H	-0.0116693455	-0.2642438386	 1.9998466309	 0.096964
H	-0.1713257708	-2.499542751	 0.8235729872	 0.128843
H	 1.4335195127	-2.275645901	 0.1784190843	 0.133982
H	 1.3901523566	-4.5707578475	 1.2949778134	 0.078327
H	 2.7558719278	-4.2752896128	 4.0294093191	 0.139242
H	 2.6496040653	-5.8007465266	 3.1217362636	 0.108649
H	 3.5846150218	-4.4398702475	 2.4786223299	 0.115064
H	 0.098082183	-5.7587003613	 3.0682027216	 0.120791
H	 0.1257098819	-4.2994618198	 4.0757962229	 0.135187
H	-0.7672608202	-4.3074263691	 2.5451958395	 0.117616
32.3717	58.8022	79.1677	106.5203	125.2217	205.1993	228.9387	230.7773	239.1286	271.5775	283.0966	327.1763	400.5678	498.6451	576.2894	649.6167	805.1648	809.5526	891.3328	933.4557	971.8183	990.4969	1024.0402	1039.1716	1101.9792	1118.6207	1133.0009	1164.959	1181.7988	1198.6735	1222.0494	1231.5749	1297.9543	1316.6549	1334.5826	1377.0941	1395.8094	1416.3848	1422.0389	1455.4168	1483.4653	1485.7932	1486.6962	1489.4123	1501.8042	1504.9869	1511.9293	1526.1412	1798.2487	2966.068	2980.4779	3007.3287	3013.1647	3023.0264	3030.5222	3034.2594	3042.6371	3061.4907	3103.9466	3108.3194	3112.3395	3112.8578	3129.1773
COCCC(=O)C(C)C	COCCC(=O)C(C)C	
InChI=1S/C7H14O2/c1-6(2)7(8)4-5-9-3/h6H,4-5H2,1-3H3	InChI=1S/C7H14O2/c1-6(2)7(8)4-5-9-3/h6H,4-5H2,1-3H3
