20
gdb 39868	3.29371	1.60176	1.45892	1.7105	81.77	-0.2173	0.0694	0.2867	989.5878	0.173491	-365.942239	-365.935291	-365.934346	-365.973276	29.081	
C	-0.0485424857	 1.5265040179	 0.0110005939	-0.337817
C	 1.2634816183	 0.7733394858	-0.0063974513	-0.342323
C	-0.0366283564	 0.0269745307	 0.0023612521	 0.418131
C	-0.4814101337	-0.9652771987	 1.068873844	-0.089117
C	-2.0037465903	-0.9867374402	 1.3189063676	-0.247805
C	-2.132708508	-1.7960612799	 0.0129490491	 0.01789
C	-2.0297868726	-0.9719277244	-1.2860395195	-0.247805
C	-0.5027540061	-0.9531373725	-1.0662603945	-0.089115
N	-0.6177742293	-2.0609035023	-0.0037006491	-0.158157
H	-0.3374379704	 2.0311027524	 0.9278423753	 0.113063
H	-0.3556585577	 2.0414551541	-0.8940874172	 0.113063
H	 1.8434514936	 0.7769884571	-0.9240970858	 0.114656
H	 1.8616836213	 0.7666312571	 0.8995056548	 0.114656
H	 0.1865321054	-1.1386017347	 1.9166723528	 0.069618
H	-2.257948164	-1.5949801545	 2.191087017	 0.106851
H	-2.525914152	-0.0280417523	 1.3902282428	 0.098043
H	-2.8071381814	-2.6547230979	 0.014809365	 0.071656
H	-2.3014410867	-1.5702450135	-2.1598228146	 0.106851
H	-2.5531675593	-0.0125429457	-1.3360057947	 0.098043
H	 0.1480879149	-1.1167350385	-1.9291573377	 0.069618
134.6448	200.8552	256.5417	349.2359	373.172	439.9848	565.1511	672.0051	708.6028	769.2255	793.781	842.6984	863.5243	895.6986	908.0631	912.8443	940.4561	947.9733	963.5069	974.7132	1000.617	1028.7253	1031.434	1051.6724	1076.3285	1092.7334	1126.7939	1139.8591	1178.4788	1188.1512	1206.2176	1243.5334	1253.86	1259.5924	1276.9007	1303.9511	1305.9526	1351.1866	1412.9403	1464.6295	1474.191	1486.9372	1504.6016	3048.8989	3049.1515	3067.2162	3070.1928	3081.516	3103.4394	3107.2168	3120.1658	3123.7623	3197.5905	3212.4496
C1CC11C2CC3CC1N23	C1CC21[C@H]1C[C@H]3C[C@@H]2N13	
InChI=1S/C8H11N/c1-2-8(1)6-3-5-4-7(8)9(5)6/h5-7H,1-4H2	InChI=1S/C8H11N/c1-2-8(1)6-3-5-4-7(8)9(5)6/h5-7H,1-4H2/t5-,6+,7-
