21
gdb 101319	2.79455	0.83717	0.72224	2.2565	75.04	-0.2613	0.0618	0.3231	1610.7712	0.180144	-461.329463	-461.318856	-461.317912	-461.366179	37.736	
C	-2.6131377076	 3.1836963965	 0.8816534976	-0.415794
C	-1.7514268711	 2.0436166234	 0.3200918015	-0.030102
C	-0.5770202027	 1.6925995403	 1.2507701681	-0.069869
O	 0.3128941086	 2.7748321948	 1.4624708286	-0.419698
C	-2.6076034184	 0.8143254873	 0.0930708617	 0.062438
O	-3.5197689353	 0.8304618699	-1.0108494238	-0.279699
C	-2.4649856862	-0.1496274394	-1.0123695405	 0.026371
C	-1.4835462509	-0.0390155918	-2.1528543734	-0.087781
O	-2.0830916157	-0.4497203757	-3.3707024058	-0.418355
H	-2.0283255633	 4.1019817752	 0.9929355677	 0.112852
H	-3.4472007822	 3.4011816365	 0.2091701377	 0.139297
H	-3.0312385136	 2.9198386337	 1.8612217042	 0.112508
H	-1.330841245	 2.3702172687	-0.6359729419	 0.089963
H	-0.9648625686	 1.302043026	 2.206564665	 0.087002
H	 0.0258846593	 0.8971144921	 0.7999823655	 0.113643
H	-0.1312712224	 3.4240579475	 2.0156520116	 0.286613
H	-3.0579774739	 0.4211167258	 1.0094326205	 0.087681
H	-2.822598835	-1.1669500928	-0.841678744	 0.097842
H	-1.0887055042	 0.9827844366	-2.2264083032	 0.097724
H	-0.6386296142	-0.7156249548	-1.9835719156	 0.114202
H	-2.8603075177	 0.1063924101	-3.4973636117	 0.293163
40.3579	64.5251	90.1582	146.4808	160.7959	230.7943	253.7892	281.4119	313.7448	363.0974	400.2943	409.6057	486.4258	513.6514	596.1495	800.6179	816.9572	876.8418	913.426	938.7172	968.7494	1036.205	1068.3887	1077.9239	1096.8026	1112.3077	1127.2282	1170.9995	1185.8728	1227.4264	1232.2474	1280.9898	1302.2569	1347.2473	1363.6766	1390.0671	1401.2846	1406.7854	1423.2029	1434.3877	1489.2407	1493.0987	1499.2462	1499.7605	1512.0226	2966.3577	3017.3958	3026.0285	3056.7571	3065.4441	3073.1573	3075.682	3097.2824	3100.426	3117.6713	3801.6098	3830.9323
CC(CO)C1OC1CO	C[C@@H](CO)[C@H]1O[C@H]1CO	
InChI=1S/C6H12O3/c1-4(2-7)6-5(3-8)9-6/h4-8H,2-3H2,1H3	InChI=1S/C6H12O3/c1-4(2-7)6-5(3-8)9-6/h4-8H,2-3H2,1H3/t4-,5-,6+/m0/s1
