21
gdb 56261	5.41925	0.59248	0.55935	1.9618	80.49	-0.2646	0.0202	0.2848	2011.6405	0.180559	-424.256027	-424.245679	-424.244735	-424.293629	35.848	
C	 0.009501207	 1.4172180706	-0.1294042008	-0.477906
C	-0.0059930939	-0.0829329919	 0.0468815112	 0.424794
O	-0.0789322308	-0.6656095366	 1.0992128862	-0.349996
O	 0.0740119564	-0.7035793214	-1.1485300451	-0.241529
C	 0.0667157579	-2.1433516531	-1.1110617045	-0.05142
C	 0.1919800381	-2.6442687925	-2.5429173088	-0.232434
C	 0.2073490677	-4.1563833279	-2.612335365	 0.03148
C	-1.0868413511	-4.9341189964	-2.6242280332	-0.254436
C	-0.231698463	-4.8681536473	-3.8656084624	-0.277601
H	-0.0517486016	 1.8977144614	 0.8462021203	 0.146994
H	 0.925254595	 1.7259052395	-0.6414915372	 0.148173
H	-0.8322891247	 1.7304659329	-0.7534999923	 0.148092
H	 0.8966999569	-2.4892528472	-0.4856950176	 0.118366
H	-0.8602779371	-2.4877536488	-0.6417360347	 0.12253
H	-0.6457338674	-2.2533289783	-3.1331613203	 0.102313
H	 1.1070511223	-2.2324618	-2.9862659569	 0.107156
H	 1.0291016746	-4.6205763434	-2.0718565201	 0.085005
H	-1.1358802861	-5.8700092528	-2.079041415	 0.113807
H	-2.0147685043	-4.3709787978	-2.6206549414	 0.111599
H	-0.5860913048	-4.2621928875	-4.693158981	 0.111937
H	 0.307559909	-5.7587643112	-4.1683991813	 0.113076
34.5746	49.0209	63.227	93.1983	114.3597	189.4802	229.4401	273.7424	376.7387	411.2558	475.2414	607.7086	646.0054	773.9982	778.9117	825.7335	836.8589	905.6457	928.9473	966.0208	985.0801	1038.0658	1063.3129	1064.7041	1070.3279	1079.6342	1100.155	1141.202	1192.6975	1199.0489	1229.0842	1252.5615	1268.9801	1302.8042	1312.0108	1389.3563	1408.088	1427.4836	1469.7153	1469.8107	1476.4126	1489.0831	1508.5284	1516.236	1823.8401	3025.8998	3046.8146	3056.4752	3060.5324	3095.1201	3120.9842	3128.6747	3130.9808	3134.8288	3168.3888	3206.9722	3222.0306
CC(=O)OCCC1CC1	CC(=O)OCCC1CC1	
InChI=1S/C7H12O2/c1-6(8)9-5-4-7-2-3-7/h7H,2-5H2,1H3	InChI=1S/C7H12O2/c1-6(8)9-5-4-7-2-3-7/h7H,2-5H2,1H3
