18
gdb 114603	3.20197	1.14183	0.96486	3.5795	75.5	-0.2424	-0.0361	0.2063	1253.8847	0.146286	-439.036463	-439.027695	-439.026751	-439.070199	31.837	
C	-0.0238606152	 1.4238458859	-0.3894732033	-0.236832
O	-0.0192128647	 0.1811588629	 0.2796917639	-0.238499
C	-1.2198834342	-0.5154422259	 0.1575331297	 0.077669
C	-1.588933242	-1.2214408514	-1.2065667397	-0.266839
C	-1.6998403554	-2.5376537498	-0.4347934883	-0.082387
N	-0.391004647	-2.821367527	 0.1197947278	-0.350116
C	-1.2481540951	-1.8656127997	 0.8600425819	 0.21895
C	-1.7438278355	-2.2108233958	 2.1959095503	 0.052594
O	-1.7104250762	-3.3345942195	 2.6504551075	-0.287788
H	 0.9459927202	 1.8917567927	-0.2082046915	 0.134581
H	-0.1632074984	 1.3055167554	-1.4741778483	 0.111642
H	-0.8171137802	 2.0869316113	-0.0092872727	 0.104846
H	-2.0693629676	 0.1009354839	 0.4959639366	 0.073261
H	-2.5237514021	-0.8653746357	-1.6415770323	 0.109379
H	-0.7933979586	-1.2216755244	-1.9545501393	 0.125064
H	-2.465274876	-3.299659902	-0.5168180167	 0.120068
H	-0.455382691	-3.6904634354	 0.6553741734	 0.253638
H	-2.1812140609	-1.3651144453	 2.7685906411	 0.08077
88.5296	115.5905	145.167	193.7913	209.3685	233.2972	312.8379	363.9053	442.9188	483.1908	611.2299	723.8753	740.2325	812.7293	842.9263	908.5577	934.7003	1014.4019	1026.0773	1040.4943	1067.605	1094.0288	1115.5749	1165.5378	1182.4213	1188.6535	1204.2166	1239.5211	1250.5439	1307.1427	1335.9633	1387.3534	1401.9096	1441.1163	1467.7213	1484.5535	1489.0436	1507.549	1779.3717	2902.9483	2965.3736	2976.9101	3026.2923	3076.6766	3123.2154	3140.7032	3197.7629	3448.4134
COC1CC2NC12C=O	CO[C@H]1C[C@H]2N[C@@]12C=O	
InChI=1S/C6H9NO2/c1-9-5-2-4-6(5,3-8)7-4/h3-5,7H,2H2,1H3	InChI=1S/C6H9NO2/c1-9-5-2-4-6(5,3-8)7-4/h3-5,7H,2H2,1H3/t4-,5+,6-/m1/s1
