18
gdb 103453	2.66227	1.68143	1.36729	2.5342	71.23	-0.2334	0.0186	0.252	1006.623	0.147045	-439.064193	-439.055822	-439.054877	-439.096904	31.371	
C	-0.4102748256	 1.1303857599	 0.0735792488	-0.254078
O	 0.2899035602	-0.0961841191	-0.0692270438	-0.273055
C	 0.7957109532	-0.6129550115	 1.1177012265	 0.395032
C	 2.0318908196	 0.0666864454	 1.6658258722	-0.46002
C	-0.1697296005	-1.1992296659	 2.1206096666	-0.041152
O	-1.4778077153	-1.4609763853	 1.6368000863	-0.213499
C	-1.3232556518	-2.3913114368	 0.6533898523	 0.112166
N	-0.1628447329	-2.8488328826	 0.4169661678	-0.250577
C	 0.730556643	-2.1228129953	 1.2813040773	-0.116218
H	 0.2554213481	 1.9535150591	 0.3674888104	 0.108902
H	-0.8355017639	 1.3603308559	-0.9058538366	 0.130587
H	-1.2210090178	 1.0462607054	 0.8075661782	 0.123939
H	 1.8307484939	 1.1077832148	 1.9391460633	 0.123581
H	 2.3963820329	-0.4447994482	 2.5616511297	 0.12289
H	 2.8287878098	 0.0531899095	 0.9158311622	 0.136397
H	-0.1375330729	-1.0057822993	 3.1862583876	 0.108726
H	-2.2408621149	-2.6779932233	 0.1558537178	 0.144973
H	 1.6027337849	-2.6540093027	 1.6445489934	 0.101405
116.7276	166.226	174.7588	193.4141	227.853	271.8038	335.8145	372.8017	456.7429	585.1613	661.4786	686.0956	760.6366	839.8481	870.8253	883.4017	934.1663	958.4612	1029.0988	1034.5753	1049.8869	1083.6024	1101.1117	1109.5697	1140.3808	1179.6434	1199.1898	1230.7532	1277.7763	1295.0104	1337.2229	1392.3709	1412.3947	1475.6109	1482.2843	1494.6504	1502.868	1506.6569	1674.5686	3002.5638	3036.3134	3065.6277	3102.7958	3113.6383	3123.2553	3174.5637	3182.9421	3238.0723
COC1(C)C2OC=NC12	CO[C@@]1(C)[C@H]2OC=N[C@@H]12	
InChI=1S/C6H9NO2/c1-6(8-2)4-5(6)9-3-7-4/h3-5H,1-2H3	InChI=1S/C6H9NO2/c1-6(8-2)4-5(6)9-3-7-4/h3-5H,1-2H3/t4-,5+,6-/m1/s1
