21
gdb 91108	2.74581	1.78986	1.44358	1.5871	80.1	-0.2385	0.0767	0.3152	999.834	0.185781	-387.09952	-387.09215	-387.091206	-387.13111	30.253	
C	-0.2022032372	 1.558051434	-0.0105963383	-0.407232
C	 0.0109335348	 0.0472714802	 0.0004465926	 0.046692
C	 0.7665062571	-0.5257512633	-1.2293475879	-0.254639
C	 1.4344325127	-1.8021417765	-0.7169187156	-0.05329
C	 2.6295686597	-1.6927963833	 0.2151486274	-0.070753
C	 3.1016972879	-0.317615493	 0.6504168044	-0.096244
O	 2.0283374464	 0.2776853053	 1.3773711703	-0.272248
C	 0.8263435981	-0.4844356089	 1.2010433653	 0.073563
C	 1.2547462502	-1.896272953	 0.7842111851	-0.094414
H	 0.7581520231	 2.0798019812	 0.0218136882	 0.128186
H	-0.7384801194	 1.8752928543	-0.9111822453	 0.106173
H	-0.7871306865	 1.8833744721	 0.8566346355	 0.108764
H	-0.9648453212	-0.4563557173	 0.0482758569	 0.067276
H	 0.0832489279	-0.7435388217	-2.0551385065	 0.096036
H	 1.4980347637	 0.1973380045	-1.6110332786	 0.100651
H	 1.3854578427	-2.697289036	-1.3272861347	 0.081227
H	 3.3503229563	-2.5025833176	 0.2064062254	 0.08796
H	 3.9737856259	-0.3938492986	 1.3121859876	 0.099971
H	 3.3819160879	 0.3228650724	-0.1992161568	 0.094602
H	 0.2722661183	-0.4375530761	 2.1428261673	 0.072901
H	 0.9416334617	-2.7823593888	 1.3207291778	 0.084819
99.2661	214.5027	232.1955	255.1888	334.1349	439.1821	504.605	573.0648	670.561	722.96	739.1148	772.0077	808.6716	828.6305	885.367	928.3797	938.006	948.4797	972.8356	984.8869	1008.2085	1028.2024	1035.5151	1061.7877	1097.2099	1118.9903	1134.2595	1151.7943	1156.8093	1213.4441	1225.3674	1268.8509	1289.2004	1297.1826	1326.1472	1332.2451	1355.0614	1361.4788	1379.6978	1409.8488	1416.3531	1493.6074	1501.0981	1503.7747	1531.8016	2990.7376	3004.5876	3031.6084	3034.2243	3034.6336	3071.9775	3082.1708	3094.3537	3117.448	3164.6115	3175.4584	3196.4512
CC1CC2C3COC1C23	C[C@H]1C[C@H]2[C@H]3CO[C@@H]1[C@@H]23	
InChI=1S/C8H12O/c1-4-2-5-6-3-9-8(4)7(5)6/h4-8H,2-3H2,1H3	InChI=1S/C8H12O/c1-4-2-5-6-3-9-8(4)7(5)6/h4-8H,2-3H2,1H3/t4-,5-,6+,7-,8-/m0/s1
