17
gdb 51604	3.05216	0.797	0.67142	3.8503	71.53	-0.2553	-0.0286	0.2267	1598.7801	0.132828	-458.971548	-458.962102	-458.961158	-459.008283	32.037	
O	-0.1860526541	 0.158399748	 0.0613439433	-0.233443
C	 0.1912702805	 1.2998409174	 0.105033863	 0.167012
C	 1.5537420743	 1.777633877	-0.3574522539	-0.309072
C	 1.4390814976	 2.9268713097	-1.3410054334	-0.05728
C	 1.1818771165	 4.3424172511	-0.8492723451	-0.322763
C	 2.5124126398	 3.9852193968	-1.4227308306	 0.101357
O	 3.5790035043	 3.9430041899	-0.4960819104	-0.185459
C	 4.757407551	 3.4552757789	-0.9484274164	 0.175222
O	 5.7174246523	 3.3542549046	-0.2485947616	-0.265081
H	-0.4654264234	 2.1088914986	 0.5003169556	 0.077438
H	 2.1099071522	 2.114330678	 0.5272301469	 0.141967
H	 2.0898699552	 0.9265387131	-0.788331092	 0.12705
H	 0.983131301	 2.6640796232	-2.2918488196	 0.109004
H	 0.5276586007	 4.9930121716	-1.4174269327	 0.130941
H	 1.15649339	 4.4969043199	 0.2240937259	 0.140614
H	 2.7957651257	 4.372842663	-2.3969505542	 0.118192
H	 4.7252064865	 3.1800848191	-2.0197867747	 0.084302
24.3713	62.5396	76.9524	112.3776	166.6962	209.0124	267.5744	365.6879	456.6844	490.2955	550.5818	641.8072	778.376	818.7442	827.5615	901.475	941.1974	1023.2297	1043.591	1049.2046	1078.8103	1084.9358	1123.9069	1152.8909	1162.6499	1187.5733	1235.6791	1247.9224	1293.7631	1375.1711	1407.0019	1426.1506	1433.2991	1462.2697	1487.1873	1837.273	1873.3012	2867.755	2960.8829	3034.222	3095.5474	3141.5209	3142.8785	3152.4236	3231.756
O=CCC1CC1OC=O	O=CC[C@H]1C[C@H]1OC=O	
InChI=1S/C6H8O3/c7-2-1-5-3-6(5)9-4-8/h2,4-6H,1,3H2	InChI=1S/C6H8O3/c7-2-1-5-3-6(5)9-4-8/h2,4-6H,1,3H2/t5-,6+/m0/s1
