13
gdb 7013	8.22146	0.935	0.84999	5.3422	64.99	-0.2741	-0.0427	0.2314	1245.675	0.092015	-361.452595	-361.443981	-361.443037	-361.487163	29.112	
O	-0.0474114406	-0.1828399464	 0.0130790065	-0.237561
C	-0.0260451574	 1.0142744398	 0.0140649948	 0.385407
C	 1.2569040083	 1.8537573887	 0.1120155366	-0.483318
C	 2.4835093702	 1.0857665742	 0.0036380934	 0.316444
C	 3.5004851561	 0.4554544059	-0.08761804	-0.40441
C	-1.3064188791	 1.8697664854	-0.0867914626	-0.458628
C	-2.5341975344	 1.0977650458	 0.0483555364	 0.289814
N	-3.5193270409	 0.5065066379	 0.1588961224	-0.288952
H	 1.2162040513	 2.6409963757	-0.6535701863	 0.154861
H	 1.2168106293	 2.3872171104	 1.0734409477	 0.164886
H	 4.3966155115	-0.108719218	-0.1694145021	 0.2077
H	-1.2817606067	 2.6641945934	 0.6686549174	 0.172134
H	-1.2992615675	 2.3784764072	-1.0596831543	 0.181623
37.5863	41.7487	103.8676	175.9728	306.079	317.7975	367.9723	397.7234	436.3268	455.2456	636.4096	659.3625	710.7259	791.3887	871.9056	910.0922	987.9399	1005.7423	1056.2778	1184.6466	1254.481	1317.4686	1344.3097	1431.4856	1443.0145	1852.1179	2254.0289	2377.6258	3006.9756	3035.1873	3038.4927	3074.1989	3505.6026
O=C(CC#C)CC#N	O=C(CC#C)CC#N	
InChI=1S/C6H5NO/c1-2-3-6(8)4-5-7/h1H,3-4H2	InChI=1S/C6H5NO/c1-2-3-6(8)4-5-7/h1H,3-4H2
