23
gdb 112009	2.46982	1.36951	1.0666	0.27	90.69	-0.2225	0.0225	0.245	1264.603	0.206041	-351.163825	-351.154677	-351.153733	-351.197335	35.906	
C	 0.0526688651	 1.6059881927	-0.076201686	-0.387292
C	 0.0845212677	 0.0746247519	-0.0444258546	-0.174753
C	 0.6785876181	-0.5116147293	 1.2511471807	-0.086927
C	-0.1369519808	-0.2685244341	 2.5086099249	-0.092267
C	-0.3513086775	-1.3904944244	 3.1998111182	-0.084786
C	 0.2141860879	-2.5811716128	 2.5043633236	-0.125674
C	-0.4067582147	-2.8774105508	 1.1491231078	-0.324969
C	 0.8501253284	-2.0436772763	 1.2315629525	 0.345188
C	 2.1389650795	-2.5995051555	 0.6740079306	-0.486383
H	 1.0560998719	 2.0262196748	 0.0562732616	 0.112894
H	-0.3363465495	 1.9712494396	-1.0318970849	 0.111065
H	-0.5839537021	 2.0148833914	 0.7151403123	 0.116955
H	-0.9282852348	-0.3185652833	-0.1897332025	 0.09618
H	 0.679777707	-0.2891496173	-0.8918482045	 0.09407
H	 1.6747935145	-0.055249445	 1.3774088656	 0.069555
H	-0.4986181791	 0.7143823132	 2.7888289947	 0.091001
H	-0.8971735565	-1.4584868613	 4.1346077595	 0.09123
H	 0.6534036346	-3.3963245195	 3.0704331003	 0.080447
H	-0.2932862458	-3.8834390774	 0.7559416312	 0.10317
H	-1.3580086919	-2.4084231005	 0.9208601935	 0.108391
H	 2.249058516	-2.3616001482	-0.3914272954	 0.115875
H	 3.009402734	-2.1855776599	 1.1965670481	 0.114957
H	 2.1789601481	-3.6892089178	 0.770952633	 0.112074
84.7308	131.9102	174.5045	211.5725	240.3478	275.1848	298.5444	330.0435	437.3049	465.002	545.1909	589.3112	729.6146	744.6264	762.9123	790.2443	848.7025	861.3455	897.0468	947.4461	962.6851	965.5244	984.2714	1019.0385	1053.5841	1059.568	1066.0886	1077.5582	1103.5804	1119.7278	1141.3978	1155.6581	1225.5496	1272.8021	1280.9052	1305.1349	1337.6532	1368.0657	1377.6481	1401.8704	1413.3807	1419.9158	1479.171	1486.1297	1491.3499	1499.8748	1501.5959	1507.3543	1667.2658	2956.3721	3017.2662	3021.3843	3031.1847	3060.0871	3074.1036	3095.165	3098.2135	3102.3963	3119.8611	3158.5883	3181.5159	3206.8681	3208.3891
CCC1C=CC2CC12C	CC[C@H]1C=C[C@H]2C[C@@]12C	
InChI=1S/C9H14/c1-3-7-4-5-8-6-9(7,8)2/h4-5,7-8H,3,6H2,1-2H3	InChI=1S/C9H14/c1-3-7-4-5-8-6-9(7,8)2/h4-5,7-8H,3,6H2,1-2H3/t7-,8-,9-/m0/s1
