15
gdb 54298	2.44733	1.66108	1.08692	6.7356	63.23	-0.2613	-0.0173	0.2439	1060.1046	0.112113	-491.107511	-491.099344	-491.0984	-491.140423	30.77	
N	-0.0237312089	 1.2909627975	 0.2158099281	-0.540348
C	 0.0962224558	-0.0613419943	 0.1442967201	 0.341525
N	 1.1709399043	-0.7638252454	 0.2039169392	-0.587492
H	 0.6140701727	-2.2353780037	-0.324591353	 0.334785
H	 2.0243727467	-0.2158142348	 0.2822024288	 0.221952
C	-1.2169973572	-0.7916352984	 0.0191801482	 0.173354
C	-2.3028528866	-0.4835221313	 0.9829943591	-0.185795
O	-2.3193565825	 0.0491425276	-0.332585369	-0.25582
C	-1.267402326	-2.2014087668	-0.5964862369	 0.387408
O	-0.1116826317	-2.8414814098	-0.6663818335	-0.377568
O	-2.3213082047	-2.6684325983	-0.9377070521	-0.343594
H	 0.8011180585	 1.8634983962	 0.1441564662	 0.262035
H	-0.8967395845	 1.6821542284	-0.106195504	 0.282175
H	-3.0388897351	-1.2612174117	 1.1695875232	 0.157907
H	-2.1137495707	 0.230436135	 1.7820496356	 0.129476
73.9981	104.457	268.0034	282.1418	287.6678	335.8317	399.7638	436.2666	442.0558	545.5704	562.8396	615.3554	693.89	741.2281	759.575	819.0527	895.2372	910.6267	934.6316	950.8101	1093.6094	1137.2426	1138.745	1161.7001	1185.6644	1276.4875	1352.1534	1456.2676	1497.1436	1558.5015	1614.7179	1712.0843	1862.0933	3009.5179	3099.9444	3206.6532	3508.2079	3577.3354	3704.9311
NC(=[NH2+])C1(CO1)C([O-])=O	NC(=N)[C@]1(CO1)C(=O)O	
InChI=1S/C4H6N2O3/c5-2(6)4(1-9-4)3(7)8/h1H2,(H3,5,6)(H,7,8)	InChI=1S/C4H6N2O3/c5-2(6)4(1-9-4)3(7)8/h1H2,(H3,5,6)(H,7,8)/t4-/m1/s1
