17
gdb 34112	3.48946	1.52493	1.40144	1.7995	78.78	-0.2434	0.0314	0.2748	970.5515	0.136579	-384.611319	-384.604493	-384.603549	-384.642244	28.577	
C	 0.0169917117	-1.1466029874	-0.1068605143	-0.326711
C	 0.0178070728	 0.0541272164	-0.0537411	 0.075413
C	 0.0483320921	 1.4864584361	 0.0571132406	 0.342581
C	-0.3988058426	 2.2695519516	 1.3231825273	-0.277681
C	 0.3957825966	 3.4008120754	 0.6623978701	-0.100692
C	-0.061643467	 3.4432395429	-0.8577980055	 0.081127
C	 1.3889512535	 3.1274407721	-1.2854099546	-0.244937
C	 1.3932161824	 2.3589764412	 0.040633986	-0.101629
O	-0.7008298151	 2.1629374771	-0.9765333269	-0.308736
H	 0.0091463388	-2.207085811	-0.1620652828	 0.183776
H	-1.4766450811	 2.3630203712	 1.4728927846	 0.10844
H	 0.0977404635	 1.9117186937	 2.2283078178	 0.110215
H	 0.7037271293	 4.3212444106	 1.1531388248	 0.080229
H	-0.6773630647	 4.2259495774	-1.2970483539	 0.082695
H	 1.5219275592	 2.5950015723	-2.2299184493	 0.108839
H	 2.0464191105	 3.9997207727	-1.2294695026	 0.102403
H	 2.2683989603	 1.9580185277	 0.5468556187	 0.084667
139.0593	160.7307	381.0048	407.6378	486.9079	505.3585	539.4822	564.2783	627.83	649.3353	670.676	731.0058	801.4681	835.5279	868.6693	877.1717	940.6354	951.9203	961.4407	984.8084	1009.3012	1023.6637	1044.1929	1073.0956	1093.8966	1138.056	1180.0153	1188.4151	1208.3516	1242.0891	1258.5902	1270.294	1305.3999	1313.4662	1478.8864	1479.3131	2243.9834	3059.6014	3065.9545	3123.1409	3131.5901	3137.8143	3143.5203	3151.1678	3502.579
C#CC12CC3C(CC13)O2	C#C[C@@]12C[C@@H]3[C@@H](C[C@H]13)O2	
InChI=1S/C8H8O/c1-2-8-4-5-6(8)3-7(5)9-8/h1,5-7H,3-4H2	InChI=1S/C8H8O/c1-2-8-4-5-6(8)3-7(5)9-8/h1,5-7H,3-4H2/t5-,6-,7+,8+/m0/s1
