17
gdb 66376	2.39939	1.44342	1.35213	1.2199	69.62	-0.2495	0.0238	0.2733	1046.7326	0.135003	-458.916761	-458.90821	-458.907265	-458.949625	32.441	
O	-0.060989167	 1.3770385537	 0.0509196128	-0.456892
C	 0.0367850395	-0.0437697332	-0.0313655678	 0.160389
C	 0.7488592497	-0.5905416632	 1.2320059926	-0.124453
O	 0.6009070251	-1.9937060308	 1.3329080857	-0.22963
C	-0.754435684	-2.3586622925	 1.3518693443	 0.022485
O	-1.4325513072	-1.9784435562	 0.1837057303	-0.23244
C	-1.413323533	-0.575657653	 0.0052979224	-0.112845
C	 0.7308444124	-0.4599908198	-1.2488999417	 0.329095
C	 1.3315218399	-0.7427464022	-2.2509526362	-0.498487
H	 0.7083565129	 1.7526465194	-0.3891133552	 0.291468
H	 1.8197275921	-0.3765160305	 1.2037159477	 0.114239
H	 0.3038750632	-0.0799060365	 2.1009266244	 0.100439
H	-0.7925339286	-3.4477213233	 1.4041714357	 0.122556
H	-1.249270213	-1.9084124265	 2.2343497575	 0.078686
H	-1.9308334451	-0.0615537669	 0.8311204759	 0.102994
H	-1.9301582827	-0.3540106367	-0.9295998307	 0.126281
H	 1.8517974058	-1.0118101418	-3.1372148476	 0.206116
110.9203	138.7426	185.5414	215.6164	268.2906	318.3541	352.3119	435.8433	445.0034	459.0461	576.0978	596.2043	630.5082	669.546	674.0521	755.0247	948.142	951.2093	972.4906	980.6781	1072.3518	1075.1195	1128.3528	1147.467	1191.7151	1215.4889	1240.4573	1294.5913	1331.6161	1359.0836	1382.4581	1404.3676	1441.5475	1488.9947	1494.7775	1508.2573	2232.5009	2917.8379	2981.0695	2990.4442	3104.94	3121.3977	3125.1689	3499.2511	3826.7075
OC1(COCOC1)C#C	OC1(COCOC1)C#C	
InChI=1S/C6H8O3/c1-2-6(7)3-8-5-9-4-6/h1,7H,3-5H2	InChI=1S/C6H8O3/c1-2-6(7)3-8-5-9-4-6/h1,7H,3-5H2
