20
gdb 118932	2.35809	1.35048	1.12076	3.357	75.93	-0.2482	0.0328	0.281	1190.4364	0.169586	-440.297148	-440.287229	-440.286285	-440.332097	35.505	
C	-0.57006086	 0.759201852	 0.1115183116	-0.259299
O	 0.7683948578	 0.290718865	 0.0479822219	-0.235166
C	 1.1489310794	-0.5570490926	 1.1029508184	-0.119994
C	 0.7408859838	-2.0319389264	 0.9233908808	 0.120061
C	 1.1049388589	-2.5618743791	-0.4601913079	-0.438826
C	 1.1921065074	-2.9234619285	 2.1306180766	-0.207293
N	-0.2248960318	-3.1480189654	 2.4160281479	-0.322825
C	-0.7069887663	-2.4006154497	 1.3749090361	 0.408846
O	-1.8241674622	-2.1655029721	 0.9898067954	-0.371106
H	-0.7519561666	 1.3030560351	 1.0515644977	 0.100219
H	-0.6967960948	 1.4520832839	-0.7239127292	 0.120543
H	-1.3002952548	-0.0536560846	 0.0319374774	 0.153978
H	 2.2455008738	-0.516894373	 1.1363544947	 0.105394
H	 0.7733713461	-0.1795155273	 2.0687382667	 0.088081
H	 2.1814749924	-2.4667475375	-0.6403210987	 0.11722
H	 0.8298653963	-3.6156689557	-0.5670067184	 0.117105
H	 0.5859821718	-1.9883236285	-1.2307955215	 0.148234
H	 1.744656839	-3.8254402262	 1.8485380501	 0.113423
H	 1.7309024862	-2.396419089	 2.9260903708	 0.110277
H	-0.6953175863	-3.7101345604	 3.1095880894	 0.251129
67.8324	95.6013	130.0494	181.7044	204.8062	207.6649	242.1778	268.2159	296.5352	395.4501	468.1661	474.3499	521.2356	720.8377	745.6242	768.6615	858.4608	919.5454	960.3756	982.7773	998.7992	1014.5205	1129.7106	1153.2888	1155.7495	1183.7897	1187.5136	1215.1972	1247.106	1248.8181	1296.2357	1345.8682	1392.3204	1395.5647	1419.1525	1476.1466	1483.7356	1492.9485	1493.7522	1502.2736	1520.1776	1525.9233	1875.2482	2963.7002	2985.8369	3030.6538	3035.8987	3040.3562	3071.7896	3079.3257	3101.3285	3121.176	3133.866	3611.7025
COCC1(C)CNC1=O	COC[C@@]1(C)CNC1=O	
InChI=1S/C6H11NO2/c1-6(4-9-2)3-7-5(6)8/h3-4H2,1-2H3,(H,7,8)	InChI=1S/C6H11NO2/c1-6(4-9-2)3-7-5(6)8/h3-4H2,1-2H3,(H,7,8)/t6-/m1/s1
