18
gdb 44851	3.29284	1.63281	1.48963	2.9876	74.32	-0.2337	-0.0129	0.2208	935.8129	0.150956	-401.949613	-401.943146	-401.942201	-401.980243	27.365	
O	 0.0415698008	 0.0331966396	 0.0817903565	-0.326746
C	 0.0107282679	 1.2327147463	 0.0369434198	 0.427854
C	-1.2440107025	 2.1368747165	 0.0490156567	-0.310497
C	-0.611658676	 3.5415441389	 0.0166076152	 0.003593
C	 0.5860346362	 3.2979458744	-0.9357451396	-0.272587
C	 1.2071200915	 2.2050116604	-0.0419176305	-0.137651
C	 1.1803126316	 2.8625170385	 1.3450429633	-0.0195
C	 1.2661403679	 4.3410913238	 1.4751267013	-0.270714
N	-0.0529199012	 3.7012894772	 1.3910298381	-0.096477
H	-1.8580196639	 1.9288645781	-0.8332970242	 0.124591
H	-1.8470657184	 1.9592576977	 0.9423723017	 0.138914
H	-1.2869362373	 4.358791353	-0.2386866948	 0.078341
H	 0.2680781346	 2.9139952218	-1.9086208874	 0.11081
H	 1.2290009505	 4.1601055969	-1.1095438655	 0.111004
H	 2.143878303	 1.7398266142	-0.342986789	 0.086709
H	 1.3723296717	 2.2305663575	 2.2071414969	 0.109807
H	 1.4807794472	 4.7487280019	 2.4587182573	 0.124314
H	 1.6393887761	 4.9483499933	 0.6577292141	 0.118236
123.6429	281.5747	354.8328	439.5753	480.3553	504.7139	542.3767	605.7601	683.6521	731.1709	764.7925	801.2366	821.2116	880.31	904.375	926.9419	943.4416	987.2362	1004.3026	1005.1801	1040.797	1082.5768	1095.7632	1110.5812	1144.2279	1149.8658	1181.4997	1194.5712	1227.0998	1252.4992	1266.3164	1293.0338	1299.0145	1315.5137	1369.2815	1441.4183	1489.0814	1533.6327	1861.6307	3061.0065	3077.8088	3110.3977	3119.517	3121.8887	3133.8734	3140.8205	3155.5222	3206.2191
O=C1CC2CC1C1CN21	O=C1C[C@@H]2C[C@H]1[C@H]1CN21	
InChI=1S/C7H9NO/c9-7-2-4-1-5(7)6-3-8(4)6/h4-6H,1-3H2	InChI=1S/C7H9NO/c9-7-2-4-1-5(7)6-3-8(4)6/h4-6H,1-3H2/t4-,5-,6+,8?/m0/s1
