19
gdb 128124	3.13268	1.21261	0.8989	2.3081	80.51	-0.1846	0.0517	0.2363	1314.8603	0.160381	-415.401036	-415.391092	-415.390148	-415.436004	35.534	
C	-0.0135640642	 1.3910061497	-0.3271465519	-0.33576
N	-0.0356171104	 0.0648186018	 0.2711028635	-0.385022
C	-1.1637935717	-0.7204447621	 0.1315727675	 0.455116
C	-1.2504172353	-2.1024087287	 0.0454892148	-0.060346
N	-0.1042597384	-2.9497189753	 0.0084516419	-0.624801
C	-2.6427005719	-2.376677967	-0.0153910083	 0.322614
C	-3.3063736025	-3.7122155027	-0.1238360896	-0.497574
N	-3.3636053107	-1.2617609933	 0.0197423688	-0.317513
N	-2.436699326	-0.2597124476	 0.1115299171	-0.291418
H	 0.9837948633	 1.8180307904	-0.2012946968	 0.132744
H	-0.2669547969	 1.3992399489	-1.3987317811	 0.118298
H	-0.7129365982	 2.0554017602	 0.1933302063	 0.124919
H	 0.7838338324	-0.49612728	 0.071722516	 0.24802
H	-0.0189265048	-3.5114690764	 0.8507963673	 0.236084
H	-0.1447248287	-3.5989383259	-0.7710340863	 0.234676
H	-3.0520186465	-4.3587267074	 0.7244348537	 0.118426
H	-4.3908301919	-3.586759126	-0.1485691905	 0.140215
H	-3.0019443961	-4.2436272654	-1.0337262716	 0.116944
H	-2.7554386014	 0.6891939868	 0.1866917192	 0.264379
63.0917	96.2335	129.6485	182.5315	194.3227	225.9623	238.3137	292.6672	317.6981	348.7227	432.2083	545.0835	564.7192	677.7959	697.3499	735.7195	756.9966	785.8635	852.3623	994.7138	1018.8931	1063.525	1111.0846	1124.7276	1154.6951	1177.3867	1215.9254	1254.9585	1332.5826	1397.0034	1421.103	1461.6317	1473.1766	1482.579	1486.7032	1491.8453	1513.3575	1524.6348	1575.2243	1635.718	1679.0126	2981.6025	3024.4673	3057.3704	3070.3899	3120.2493	3130.4205	3483.0289	3547.1979	3561.1388	3695.5338
CNC1=C(N)C(C)=NN1	CNc1c(N)c(C)n[nH]1	
InChI=1S/C5H10N4/c1-3-4(6)5(7-2)9-8-3/h6H2,1-2H3,(H2,7,8,9)	InChI=1S/C5H10N4/c1-3-4(6)5(7-2)9-8-3/h6H2,1-2H3,(H2,7,8,9)
