17
gdb 127972	4.64803	1.07112	0.88002	3.2117	84.21	-0.2268	-0.0665	0.1602	1314.7119	0.134691	-417.996539	-417.9878	-417.986855	-418.030226	31.72	
C	-0.2437848594	 1.4295117922	 0.1924634751	-0.320596
N	-0.2493915929	-0.0240095834	 0.1691485186	-0.314634
C	 0.6480448076	-0.6438637743	 0.8180127795	 0.423518
O	 1.6137192595	 0.0512647981	 1.5341972627	-0.302518
N	 2.6293729415	-0.5716822579	 2.2697854052	-0.131497
C	 2.6579178594	-1.8607827555	 2.2737479957	 0.346476
C	 3.7612766551	-2.4941301715	 3.0733866515	-0.473595
C	 1.6997738451	-2.6858794162	 1.5612665544	-0.148403
C	 0.7272889232	-2.0887382909	 0.8570244443	-0.138589
H	 0.6910966131	 1.842263738	-0.2100594719	 0.12635
H	-1.076028083	 1.7980257602	-0.4114047544	 0.117116
H	-0.3491750556	 1.8235323502	 1.2122799979	 0.126349
H	 4.3801170064	-1.7250444131	 3.5367370235	 0.154392
H	 3.3473514197	-3.1402116629	 3.8557095168	 0.139705
H	 4.3901975433	-3.1213878959	 2.4316757594	 0.139708
H	 1.7927284822	-3.7648715337	 1.6151280825	 0.117985
H	-0.0276282151	-2.6266284433	 0.2971686193	 0.138233
63.072	115.3581	171.7368	191.2689	193.1831	321.2356	325.5153	358.0368	432.5467	548.8887	565.5934	612.6551	723.9107	755.4986	774.1946	843.7122	920.8979	969.3649	1015.3708	1036.3179	1061.8131	1071.348	1104.0204	1133.983	1177.9118	1239.2297	1283.69	1409.9479	1432.4722	1442.7945	1474.5145	1479.5228	1484.8475	1495.4967	1617.2592	1687.6979	1731.8318	3001.9303	3035.8043	3051.1925	3090.7627	3109.4203	3151.0735	3192.0301	3223.4607
CN=C1ON=C(C)C=C1	C[N]C1=C[CH]C(=NO1)C	
InChI=1S/C6H8N2O/c1-5-3-4-6(7-2)9-8-5/h3-4H,1-2H3	InChI=1S/C6H8N2O/c1-5-3-4-6(7-2)9-8-5/h3-4H,1-2H3
