20
gdb 93926	3.33525	1.14799	0.99257	2.9931	74.45	-0.2293	0.0338	0.2631	1253.1488	0.171521	-440.339421	-440.330211	-440.329267	-440.374238	34.34	
C	 0.798483253	 1.4716230332	 0.161054732	-0.385839
C	 0.2342325321	 0.0959422575	 0.5014767939	 0.13733
C	-0.1716323937	-0.7449120814	-0.7243912717	-0.244875
C	 1.076797742	-1.6001947636	-0.9885494429	-0.236243
C	 1.6003440532	-1.8338366141	 0.4323389657	 0.022386
O	 1.2477519865	-0.6742208305	 1.1875810266	-0.298344
C	 1.031915539	-3.1275746055	 1.048410127	 0.360438
N	 0.4738843939	-2.959535492	 2.2732799356	-0.515449
O	 1.1080027025	-4.1923725882	 0.4637789858	-0.373994
H	 1.6028053761	 1.395111331	-0.5778253403	 0.1183
H	 0.014409642	 2.1181319377	-0.2470236914	 0.113554
H	 1.2052317999	 1.9470741821	 1.0578832708	 0.124833
H	-0.6087556807	 0.2140013727	 1.1934223128	 0.075831
H	-1.023658262	-1.3869358496	-0.4804253323	 0.115101
H	-0.4555711149	-0.1217175959	-1.5754615593	 0.105598
H	 0.8703473208	-2.5445109185	-1.492724326	 0.137079
H	 1.8152611076	-1.0463040795	-1.5751879224	 0.103866
H	 2.6913773434	-1.9374447821	 0.4571607364	 0.11057
H	 0.5154922663	-2.0537142942	 2.7092791605	 0.27032
H	 0.1604279932	-3.7671678692	 2.7846086291	 0.259537
36.0031	64.5846	127.8278	238.9495	247.6069	299.2017	321.0078	368.3854	400.9356	496.2707	512.7259	600.6611	675.0038	704.6751	737.9784	802.4391	844.2282	876.5874	907.6715	953.2849	978.0237	1020.6191	1042.2095	1085.2721	1098.4713	1120.6529	1127.0454	1202.6954	1207.2627	1287.0126	1315.9684	1323.7165	1335.005	1362.3466	1373.8621	1387.319	1407.201	1483.3637	1492.0588	1496.0111	1505.4001	1582.4816	1797.8821	3021.069	3035.6361	3043.3905	3060.1093	3068.1664	3107.4497	3109.6129	3117.8308	3140.0752	3597.781	3739.8419
CC1CCC(O1)C(N)=O	C[C@H]1CC[C@@H](O1)C(=O)N	
InChI=1S/C6H11NO2/c1-4-2-3-5(9-4)6(7)8/h4-5H,2-3H2,1H3,(H2,7,8)	InChI=1S/C6H11NO2/c1-4-2-3-5(9-4)6(7)8/h4-5H,2-3H2,1H3,(H2,7,8)/t4-,5+/m0/s1
