19
gdb 98482	2.38023	1.28913	0.95843	3.2741	73.11	-0.2557	-0.0274	0.2283	1266.6404	0.156248	-460.150875	-460.141122	-460.140178	-460.185743	35.365	
C	 0.7272138123	 0.0872934796	 0.9323542006	-0.257672
O	-0.1327451531	 0.0544027081	-0.1976111635	-0.283982
C	-1.2923015488	-0.7023446976	-0.032890017	 0.30518
C	-1.6148663479	-1.6769532592	-1.1555526685	-0.282522
C	-1.1978965915	-2.2016558796	 0.1818234565	-0.310089
C	-2.4719598441	 0.0145251073	 0.5374823435	 0.287771
O	-3.5011147181	-0.5643390198	 0.8347326425	-0.351572
C	-2.406920878	 1.5298214306	 0.6778157398	-0.135636
O	-3.6199651036	 2.0362897554	 1.1488614887	-0.424855
H	 1.5594949917	 0.7436780726	 0.6703459685	 0.136509
H	 0.2257013478	 0.4869467705	 1.823894152	 0.115479
H	 1.1184815594	-0.9093998409	 1.1731567975	 0.116289
H	-2.6555171786	-1.7641911098	-1.4437794496	 0.139149
H	-0.8895819018	-1.6969291893	-1.9602935098	 0.135131
H	-0.1997288435	-2.6129910973	 0.2747711445	 0.127783
H	-1.955768402	-2.641308188	 0.8191777307	 0.145617
H	-1.577928234	 1.7946782932	 1.35220404	 0.117098
H	-2.1402955426	 1.9503581804	-0.3049817496	 0.127728
H	-4.1911768136	 1.2585062538	 1.2584291232	 0.292594
62.7959	101.8446	138.7412	152.1746	203.0808	242.9137	265.5485	313.1917	350.9089	421.8632	457.0956	483.6724	562.5237	604.7724	773.9045	788.4017	855.7886	875.1508	953.0695	975.3796	1022.1712	1051.2898	1080.6807	1091.731	1099.3941	1146.4884	1180.5643	1204.4806	1219.3689	1240.5465	1287.3433	1294.2191	1343.7244	1442.0564	1452.9426	1472.6846	1481.0579	1482.798	1489.1129	1506.5233	1769.2421	2988.4777	3001.4839	3006.2931	3059.9369	3129.0731	3146.8176	3147.623	3237.5584	3251.2018	3675.0179
COC1(CC1)C(=O)CO	COC1(CC1)C(=O)CO	
InChI=1S/C6H10O3/c1-9-6(2-3-6)5(8)4-7/h7H,2-4H2,1H3	InChI=1S/C6H10O3/c1-9-6(2-3-6)5(8)4-7/h7H,2-4H2,1H3
