21
gdb 103094	2.1477	1.22955	1.18387	3.3624	84.15	-0.243	0.0164	0.2594	1243.7288	0.180465	-383.264309	-383.253967	-383.253022	-383.299216	37.731	
C	 0.6437742951	 0.7355156309	 0.1998846479	-0.393893
C	 0.1935337062	-0.6687328443	-0.2272582592	-0.252805
C	-1.2972375399	-0.9267144319	-0.0386625556	 0.311467
C	-2.2188790407	-0.0539258734	-0.8717023745	-0.44584
C	-1.7711542518	-2.3421913833	 0.2279813456	-0.230877
C	-0.814616755	-3.414390055	 0.3458841408	 0.300246
N	-0.0625704221	-4.2879222723	 0.4520582548	-0.35054
N	-1.8621185197	-1.2966601708	 1.2572159794	-0.123175
C	-1.0469109898	-1.4069787251	 2.4616794966	-0.32942
H	 1.7229019759	 0.8454041045	 0.0590509722	 0.123205
H	 0.1544373211	 1.5179385027	-0.3872591731	 0.12422
H	 0.4252444421	 0.9247003189	 1.2553751714	 0.123558
H	 0.4230932813	-0.8166621992	-1.2897504453	 0.111816
H	 0.7800691659	-1.4201695959	 0.3069043174	 0.125548
H	-1.9889747913	-0.1513207486	-1.9380679173	 0.12206
H	-3.262132689	-0.3324601222	-0.707871071	 0.129884
H	-2.1106529666	 0.9995721832	-0.5963762573	 0.129616
H	-2.7264360672	-2.6660230739	-0.1794130419	 0.127614
H	-0.0393992098	-1.8148945375	 2.3116816695	 0.128968
H	-0.9616146353	-0.4136925544	 2.9112810586	 0.131508
H	-1.5697669995	-2.0558092625	 3.170393781	 0.13684
86.0849	116.7571	134.8857	179.3747	186.4188	203.8838	229.0679	283.9893	298.027	361.4319	391.2616	407.2284	490.3705	597.7688	625.1357	685.5855	728.1711	788.6098	855.0722	947.1236	1002.4699	1011.4224	1034.1214	1058.9114	1080.6774	1132.0588	1153.1868	1167.4713	1173.6068	1263.4689	1302.0615	1328.6738	1367.3589	1404.1187	1412.9039	1418.4986	1454.6416	1478.3668	1487.141	1491.0603	1494.9985	1503.4032	1508.798	1513.5017	2342.5953	3018.0891	3036.8743	3041.5888	3044.3034	3086.9039	3095.3593	3106.8071	3111.6561	3115.0818	3119.3341	3127.3094	3129.766
CCC1(C)C(C#N)N1C	CC[C@@]1(C)[C@@H](C#N)N1C	
InChI=1S/C7H12N2/c1-4-7(2)6(5-8)9(7)3/h6H,4H2,1-3H3	InChI=1S/C7H12N2/c1-4-7(2)6(5-8)9(7)3/h6H,4H2,1-3H3/t6-,7+,9?/m1/s1
