25
gdb 100939	2.0626	1.09145	0.78641	3.0775	85.92	-0.2432	0.0753	0.3185	1577.1437	0.226436	-426.621379	-426.609718	-426.608774	-426.658758	41.853	
C	-0.1788658128	 1.5410148618	 0.064150602	-0.387972
C	 0.1879887875	 0.053472658	 0.1063161356	-0.190042
C	 0.8055783526	-0.4762515229	-1.2062792513	-0.009679
C	 2.2861187442	-0.0539952349	-1.3048401384	-0.06579
O	 2.8060278437	-0.0935132921	-2.6155408729	-0.431699
C	 0.639274278	-2.0074650152	-1.31077287	 0.127582
C	-0.7979363756	-2.4356116398	-1.6198309044	-0.407852
O	 1.5243686696	-2.4857028905	-2.3339496556	-0.260897
C	 1.8363730582	-3.8601009093	-2.2655297765	-0.243253
H	 0.6856148225	 2.1708671855	-0.1666707495	 0.125258
H	-0.9402070984	 1.734570808	-0.6991197575	 0.117893
H	-0.5797607513	 1.8725400061	 1.0270911527	 0.112218
H	 0.8956431214	-0.1301100789	 0.9268960525	 0.096922
H	-0.7114342322	-0.5180143272	 0.3594770754	 0.093997
H	 0.2863864945	-0.0178626497	-2.0590982673	 0.078314
H	 2.3931781494	 0.981888542	-0.9668684275	 0.097301
H	 2.878405431	-0.6764153056	-0.6097620646	 0.072715
H	 2.6340760247	-0.9925897768	-2.9235330472	 0.286197
H	 0.9602448409	-2.4530637989	-0.353044912	 0.064824
H	-1.1027254028	-2.03520806	-2.5916963904	 0.127898
H	-0.8945160377	-3.5244920193	-1.6520278378	 0.115928
H	-1.496261962	-2.0726601678	-0.8615249163	 0.12378
H	 2.2419857607	-4.1317301148	-1.2793441924	 0.110177
H	 0.9662846805	-4.4980247735	-2.4712539999	 0.114372
H	 2.5960515334	-4.0563175241	-3.0260479566	 0.131807
49.2741	63.955	85.2762	142.1901	181.8075	189.3672	204.9211	217.1323	269.9668	301.323	322.9011	347.4987	401.3241	484.0367	498.4568	530.9741	568.7172	768.9948	822.4479	871.7112	913.6954	965.4365	981.1651	1029.9665	1050.9698	1090.4516	1103.7502	1116.1344	1135.051	1159.2063	1170.2974	1186.229	1221.3123	1250.3282	1271.8387	1308.7068	1331.7699	1363.5958	1372.9092	1393.8709	1401.4045	1405.8705	1413.5088	1457.0305	1480.4129	1482.086	1488.1105	1491.5051	1498.4297	1503.59	1507.5455	1509.8084	1514.9913	2938.3081	2952.1405	2988.0939	3011.2354	3023.6945	3035.9917	3041.1427	3047.7892	3061.4102	3067.826	3102.3191	3109.2896	3113.8299	3116.2863	3125.5521	3765.6034
CCC(CO)C(C)OC	CC[C@@H](CO)[C@@H](C)OC	
InChI=1S/C7H16O2/c1-4-7(5-8)6(2)9-3/h6-8H,4-5H2,1-3H3	InChI=1S/C7H16O2/c1-4-7(5-8)6(2)9-3/h6-8H,4-5H2,1-3H3/t6-,7+/m1/s1
