20
gdb 70379	2.34089	1.52547	1.32641	3.8506	82.84	-0.2659	0.0374	0.3034	1092.2526	0.170185	-366.011034	-366.001972	-366.001028	-366.044168	34.773	
C	-0.0909211546	 1.5459703418	 0.0489940486	-0.506471
C	 0.0346938659	 0.0489480003	 0.036022765	 0.338781
C	-0.8189303693	-0.8504685619	 0.8914532504	-0.344137
C	 0.6740799162	-0.9129825186	 1.0422425753	-0.07887
C	 1.2613634844	-1.7642149196	-0.0845720822	-0.279427
C	 0.6369127016	-0.7716430394	-1.1471530089	 0.084081
C	-0.3217103087	-1.3424425192	-2.1997541101	-0.454865
C	 1.6975026162	-0.0156003669	-1.812340431	 0.257465
N	 2.5311107218	 0.5871223505	-2.3413344666	-0.358076
H	 0.8378816609	 2.0293477752	-0.2696261693	 0.145041
H	-0.8907841629	 1.8845385398	-0.620547414	 0.124227
H	-0.3316748271	 1.9026932485	 1.0553719423	 0.120717
H	-1.3499727295	-0.3292417629	 1.6817277252	 0.117718
H	-1.3661863435	-1.6957942488	 0.4814230673	 0.107465
H	 1.1743464394	-0.6829461631	 1.9747485651	 0.094119
H	 2.3510013132	-1.7737190872	-0.1189810625	 0.130782
H	 0.8929406279	-2.7930602137	-0.1513164959	 0.105242
H	-1.1138154155	-1.924228392	-1.7228443946	 0.124021
H	-0.7854784026	-0.5401862869	-2.7812375839	 0.135976
H	 0.2123821563	-1.9977591459	-2.8941451103	 0.136212
119.0107	142.7052	188.8774	205.7794	215.1709	251.3451	319.138	340.8066	428.2028	435.2736	527.564	556.3554	629.7774	653.2474	782.9491	828.6013	858.6917	878.8848	908.0016	953.7516	981.3485	997.5109	1031.8224	1047.7238	1091.9859	1109.0309	1125.6245	1144.573	1187.6137	1234.607	1252.1007	1276.6496	1293.9106	1382.147	1409.2587	1424.8112	1481.4657	1485.3092	1488.9665	1490.9819	1499.4761	1506.4922	2346.1813	3027.0763	3044.7617	3051.1242	3089.1296	3107.6207	3109.9232	3115.0461	3127.3055	3129.8515	3187.3594	3199.5999
CC12CC1CC2(C)C#N	C[C@]12C[C@H]1C[C@]2(C)C#N	
InChI=1S/C8H11N/c1-7(5-9)3-6-4-8(6,7)2/h6H,3-4H2,1-2H3	InChI=1S/C8H11N/c1-7(5-9)3-6-4-8(6,7)2/h6H,3-4H2,1-2H3/t6-,7-,8+/m1/s1
