18
gdb 73918	2.71947	1.43119	1.01724	3.0901	82.56	-0.2323	-0.0488	0.1835	1167.0279	0.14767	-401.955697	-401.947449	-401.946505	-401.988525	30.995	
C	-0.0087171733	 1.502560018	 0.1331197385	-0.492911
C	-0.0193693854	 0.0194961678	-0.0166192386	 0.227251
C	-0.0154807741	-0.7513965315	-1.1298750076	 0.141802
C	-0.0095166963	-2.2214281096	-0.7561847341	-0.340007
C	 0.0786525982	-2.1536871664	 0.7640846307	-0.023068
C	 1.2292234637	-1.4736644298	 1.4049025165	-0.247292
N	-0.0467799953	-0.7332376015	 1.193465309	-0.146346
C	-0.003540084	-0.2991905193	-2.5103725704	 0.060636
O	 0.0489910425	-1.0483098243	-3.4667338649	-0.288158
H	 0.8594511612	 1.8137605807	 0.7262928141	 0.142938
H	 0.018948633	 2.0213202043	-0.8258580053	 0.137789
H	-0.8970547153	 1.8247056554	 0.6871133182	 0.15272
H	-0.931327436	-2.7199821265	-1.0765821832	 0.126333
H	 0.816547213	-2.7658594363	-1.2256287473	 0.130646
H	-0.4935535205	-2.860824448	 1.3554760325	 0.10452
H	 1.466155543	-1.6763687627	 2.4446116079	 0.128009
H	 2.0716418306	-1.1852720009	 0.7815078045	 0.125936
H	-0.0444871549	 0.8019594508	-2.6579915309	 0.059203
106.9515	151.8534	181.3703	196.839	224.74	315.3006	366.5238	393.6706	511.4018	604.6264	630.2483	691.3358	776.9848	792.4136	817.8912	908.8302	925.9877	987.6701	1022.469	1054.4086	1068.9935	1084.642	1096.349	1108.7924	1155.2566	1175.7277	1214.1021	1260.8058	1292.1507	1352.6455	1386.6078	1411.1403	1429.6522	1469.5581	1474.9899	1485.8661	1498.7727	1672.5123	1762.1033	2886.7171	3036.0271	3043.1869	3074.079	3088.1982	3112.8954	3143.6933	3165.2389	3207.2231
CC1=C(CC2CN12)C=O	CC1=C(C[C@H]2CN12)C=O	
InChI=1S/C7H9NO/c1-5-6(4-9)2-7-3-8(5)7/h4,7H,2-3H2,1H3	InChI=1S/C7H9NO/c1-5-6(4-9)2-7-3-8(5)7/h4,7H,2-3H2,1H3/t7-,8?/m0/s1
