21
gdb 117629	2.76897	1.05818	0.96793	3.4784	75.12	-0.2328	-0.0061	0.2266	1333.9944	0.178759	-461.384233	-461.373413	-461.372469	-461.420367	39.566	
C	 0.0598105896	 1.3039545641	-0.5634967889	-0.471832
C	-0.0038592439	-0.0097253705	 0.1810114635	 0.376072
O	 0.8892924866	-0.395686515	 0.9022172096	-0.329323
C	-1.2789089644	-0.8659151795	 0.0142176614	 0.255145
C	-2.0188180756	-0.8420251592	 1.3668979009	-0.417113
O	-2.0775440664	-0.2636530925	-0.9954845833	-0.482338
C	-0.8399143735	-2.2896037107	-0.4019360856	-0.213996
C	-1.9567804846	-3.3248552816	-0.4320157786	-0.115022
O	-2.9795112845	-2.8664797473	-1.3247009385	-0.419005
H	 0.9820631363	 1.8248023458	-0.3042698413	 0.127753
H	 0.009124144	 1.1202874597	-1.6409870003	 0.150933
H	-0.8136218368	 1.9193006271	-0.326880475	 0.147176
H	-2.2653270428	 0.1892397329	 1.6358612625	 0.122398
H	-2.9585278772	-1.3971895235	 1.2979657163	 0.1113
H	-1.4003311916	-1.2711365693	 2.159612586	 0.130585
H	-2.7105479768	-0.9386862009	-1.2775756744	 0.288896
H	-0.3929849361	-2.2234048978	-1.400843837	 0.111534
H	-0.059752868	-2.629465595	 0.2850211521	 0.127394
H	-1.5534331253	-4.2876692784	-0.7768925427	 0.100862
H	-2.3676173471	-3.4799397223	 0.5749019552	 0.102566
H	-3.7419053219	-3.4475543061	-1.2529832718	 0.296016
36.6746	66.1367	157.6691	168.301	196.8364	234.2501	272.5216	282.5895	291.0504	323.8864	375.2014	408.0153	461.9824	506.3672	549.3475	582.428	599.7691	693.9742	827.1871	887.2729	923.0742	961.1016	975.3357	1013.8757	1024.9025	1076.9497	1120.2571	1137.0774	1192.2238	1219.3998	1241.5034	1259.1529	1312.1577	1370.8596	1379.5961	1396.8566	1424.8551	1450.0901	1457.0579	1462.7212	1467.279	1488.9377	1502.8925	1527.7922	1803.0422	2997.2733	3026.8132	3042.9347	3048.2524	3050.5693	3105.7497	3112.6656	3113.7327	3128.6365	3158.117	3731.839	3838.9776
CC(=O)C(C)(O)CCO	CC(=O)[C@@](C)(O)CCO	
InChI=1S/C6H12O3/c1-5(8)6(2,9)3-4-7/h7,9H,3-4H2,1-2H3	InChI=1S/C6H12O3/c1-5(8)6(2,9)3-4-7/h7,9H,3-4H2,1-2H3/t6-/m0/s1
