23
gdb 96000	2.49772	1.35089	0.97159	1.516	85.53	-0.2368	0.0826	0.3194	1298.6262	0.20659	-388.287994	-388.278795	-388.27785	-388.322485	34.941	
C	-0.7578679891	 1.1658483694	 0.0704256925	-0.408593
C	 0.0698748747	-0.1132563658	-0.0314577117	-0.000842
C	 1.2864083654	-0.0399276897	-0.9681130404	-0.232722
C	 2.0856353064	-1.2619660221	-0.519362439	-0.069094
O	 1.8714773535	-1.3757000061	 0.8842398426	-0.276488
C	 0.711991699	-0.6281216976	 1.2855651438	 0.111257
C	 1.1253853809	 0.435821034	 2.2772639219	 0.030948
C	 0.1922551469	 0.835872208	 3.3952654663	-0.271334
C	 1.4313754454	 0.0329993439	 3.6957275184	-0.273021
H	-0.1526688733	 2.0121084721	 0.4087575295	 0.117755
H	-1.1817196869	 1.4261392381	-0.9050711549	 0.110369
H	-1.5886762413	 1.0508460518	 0.7736272929	 0.1172
H	-0.5810320134	-0.9160557671	-0.4024063904	 0.076092
H	 1.0161905082	-0.0692668025	-2.0271047177	 0.097587
H	 1.8534390698	 0.8816338391	-0.7895069397	 0.101375
H	 1.7299678611	-2.1693090448	-1.0335697823	 0.086217
H	 3.1626280129	-1.1755873946	-0.6989035662	 0.100757
H	 0.0245115235	-1.3191338865	 1.7957768019	 0.061699
H	 1.7494283771	 1.2232178589	 1.8625864664	 0.0768
H	 0.1624975836	 1.8782222096	 3.6923433376	 0.109287
H	-0.7667124613	 0.3316352142	 3.46200392	 0.108467
H	 1.3108051275	-1.0131688989	 3.9566621365	 0.116838
H	 2.2547169093	 0.5238421267	 4.2021388021	 0.109444
47.9015	81.7993	164.0452	188.1422	225.2871	262.9533	280.6923	339.4222	424.4909	519.051	576.5491	685.3896	760.4752	819.2582	827.2439	865.7862	895.6004	915.0747	929.2243	956.5501	975.9402	990.1551	1003.6653	1055.2302	1073.2824	1076.3274	1088.8594	1128.9497	1136.1585	1177.5854	1184.8774	1196.187	1209.0078	1225.6184	1242.8141	1300.757	1313.3641	1330.1595	1348.5334	1379.958	1395.7967	1413.838	1435.7862	1470.0912	1490.6573	1494.665	1497.8983	1505.822	1529.0584	2971.8715	2983.4658	3014.8123	3035.0317	3037.5505	3063.3253	3097.5821	3100.2872	3109.4548	3128.7493	3134.3667	3140.6149	3206.6862	3222.5659
CC1CCOC1C1CC1	C[C@H]1CCO[C@H]1C1CC1	
InChI=1S/C8H14O/c1-6-4-5-9-8(6)7-2-3-7/h6-8H,2-5H2,1H3	InChI=1S/C8H14O/c1-6-4-5-9-8(6)7-2-3-7/h6-8H,2-5H2,1H3/t6-,8+/m0/s1
