18
gdb 98422	2.64924	1.26547	0.99442	4.2565	70.97	-0.2305	0.02	0.2505	1230.9707	0.146081	-476.237196	-476.227711	-476.226767	-476.271529	35.119	
C	 0.1190290107	 1.4389549641	 0.0708315916	-0.334883
N	 0.1203438016	-0.0051120496	-0.045044866	-0.32477
C	 0.5346758827	-0.6533872729	-1.1559641021	 0.393624
O	 0.89127696	-0.0883538676	-2.1927764065	-0.435607
C	 0.5704169935	-2.1468297685	-1.0377749066	 0.19525
O	 0.1820470765	-2.6846188329	 0.2012723691	-0.467626
C	 0.3208524894	-2.9564710208	-2.3043654348	-0.382623
C	 1.7211875789	-2.8336430471	-1.7738262036	 0.125287
O	 2.7015844966	-2.118237672	-2.4261337274	-0.424675
H	 0.852159198	 1.7813214601	 0.8098775826	 0.131924
H	 0.3823033563	 1.8487583844	-0.9049164402	 0.170983
H	-0.869867654	 1.808379742	 0.3618138286	 0.127929
H	-0.0558075145	-0.5838731513	 0.7617947755	 0.255325
H	-0.7478532501	-2.9323289008	 0.1383099522	 0.288628
H	-0.1963002182	-3.902149803	-2.1756613905	 0.114952
H	 0.0666154121	-2.3881789281	-3.1923961663	 0.140684
H	 2.1252799647	-3.6942921976	-1.2504113084	 0.120859
H	 2.3030327558	-1.2624107885	-2.6703619673	 0.30474
73.2464	92.0099	148.3505	191.1494	217.946	279.9098	332.9473	348.3821	365.9785	449.324	471.354	500.4664	563.5884	604.0234	639.963	766.1403	807.7107	840.4789	874.2026	928.4215	975.7895	1037.2813	1063.5703	1097.5413	1153.902	1173.3248	1180.2395	1200.9999	1255.9261	1303.7498	1348.2239	1368.5362	1432.9554	1443.1462	1485.8602	1498.6536	1500.1917	1577.6478	1724.665	3030.9691	3084.7187	3126.2971	3153.9171	3172.3275	3228.4165	3597.47	3627.4608	3782.8656
CNC(=O)C1(O)CC1O	CNC(=O)[C@@]1(O)C[C@H]1O	
InChI=1S/C5H9NO3/c1-6-4(8)5(9)2-3(5)7/h3,7,9H,2H2,1H3,(H,6,8)	InChI=1S/C5H9NO3/c1-6-4(8)5(9)2-3(5)7/h3,7,9H,2H2,1H3,(H,6,8)/t3-,5-/m1/s1
