15
gdb 130350	3.1406	1.64976	1.16986	1.5808	66.43	-0.2298	-0.0108	0.219	997.9088	0.116589	-450.10499	-450.097704	-450.09676	-450.137252	27.174	
N	-0.1927505108	 1.5321399967	-0.0611694348	-0.501533
C	 0.0635166728	 0.0881362314	-0.0053195859	-0.156756
C	-1.2897121662	-0.7222695219	-0.026660898	-0.095378
O	-1.3922913073	-1.4903756787	-1.2699094716	-0.272529
C	-0.182264542	-1.3819322137	-1.8427693024	 0.408396
N	 0.340954334	-1.9102237297	-2.9335257659	-0.332185
N	 1.5746312837	-1.3534575388	-2.9030553548	-0.106257
N	 1.8581944279	-0.5340394757	-1.8875573436	-0.310706
C	 0.7240596228	-0.5468005164	-1.1962526936	 0.230905
H	 0.6888240282	 2.0307772826	 0.0263585837	 0.23889
H	-0.5554952179	 1.7747981772	-0.9807335275	 0.230766
H	 0.5925312886	-0.105997066	 0.9322726856	 0.1084
H	-1.3425687967	-1.4363075893	 0.7990861282	 0.129353
H	-2.1443708168	-0.0452358623	 0.0222507895	 0.135783
H	 2.2580455797	-1.5757330654	-3.6069836291	 0.292852
53.8011	157.974	254.2851	295.9124	336.444	377.5678	456.4744	529.3029	653.0736	682.9405	715.0169	756.477	792.8817	884.7898	914.0875	975.2085	982.5086	1013.1939	1111.3097	1152.4947	1160.35	1199.57	1211.4494	1250.9059	1260.0025	1356.1312	1413.5958	1446.461	1456.9604	1501.1136	1556.8336	1621.2703	1662.8822	3061.5618	3073.2076	3131.5823	3475.8705	3555.5617	3685.682
NC1COC2=NNN=C12	N[C@H]1COc2n[nH]nc12	
InChI=1S/C4H6N4O/c5-2-1-9-4-3(2)6-8-7-4/h2H,1,5H2,(H,6,7,8)	InChI=1S/C4H6N4O/c5-2-1-9-4-3(2)6-8-7-4/h2H,1,5H2,(H,6,7,8)/t2-/m0/s1
