22
gdb 92604	2.51636	1.54351	1.35295	1.7041	81.76	-0.2069	0.0789	0.2857	1096.324	0.194794	-404.335733	-404.327022	-404.326077	-404.368486	34.155	
C	-0.0139884213	 1.4049984695	-0.1896438686	-0.33092
N	 0.0519448899	-0.003772154	 0.1158414094	-0.101658
C	-1.1833187221	-0.7419424336	 0.4179349919	-0.204501
C	-0.4098042329	-1.5720609467	 1.4723741766	 0.080619
O	 0.0952611366	-2.8218485142	 1.0566388682	-0.272221
C	 1.3120746569	-2.6106056199	 0.3336644151	-0.082685
C	 1.9622510182	-1.3757348768	 0.9714142528	-0.257811
C	 0.7402018938	-0.5237784791	 1.3372576326	 0.304999
C	 0.9379469129	 0.4526871258	 2.4877024919	-0.486843
H	 0.9949478021	 1.8147932533	-0.3072021068	 0.117746
H	-0.5362776527	 1.5435368255	-1.1430495558	 0.121149
H	-0.5430814335	 2.0110445219	 0.569287111	 0.089694
H	-1.9731041963	-0.1235256768	 0.8774176464	 0.080049
H	-1.6122564151	-1.2964492556	-0.4245396114	 0.100797
H	-0.8980138091	-1.7032143821	 2.4401290642	 0.078044
H	 1.9086993021	-3.5224769906	 0.4208593226	 0.102914
H	 1.1018991197	-2.4251167897	-0.7278261024	 0.103637
H	 2.5163114656	-1.6530676224	 1.8752206719	 0.096567
H	 2.6400169303	-0.8572203322	 0.2880915639	 0.100375
H	 1.675896986	 1.223134414	 2.2389738245	 0.119778
H	 0.0041474983	 0.9580185133	 2.7537204443	 0.119336
H	 1.2978503306	-0.0775863695	 3.3752013378	 0.120933
107.2848	199.2722	216.5714	224.9415	237.8724	271.6246	292.6903	382.3526	389.5106	444.4149	591.9791	623.8147	669.8316	723.6165	834.2586	869.3178	893.8909	927.5064	967.2642	977.8683	994.2677	1020.413	1031.9215	1108.062	1138.2466	1152.2969	1171.2405	1179.3319	1195.4512	1214.3768	1232.215	1251.9934	1265.6182	1280.9383	1327.1653	1336.3902	1362.3774	1396.4975	1405.2517	1451.6738	1470.4173	1482.8368	1493.239	1495.2429	1507.8745	1514.097	1515.3562	2929.5582	2957.2305	3019.0188	3030.9386	3044.2265	3049.1565	3051.14	3088.6809	3090.2743	3093.9953	3098.0087	3103.6113	3108.2655
CN1CC2OCCC12C	CN1C[C@H]2OCC[C@@]12C	
InChI=1S/C7H13NO/c1-7-3-4-9-6(7)5-8(7)2/h6H,3-5H2,1-2H3	InChI=1S/C7H13NO/c1-7-3-4-9-6(7)5-8(7)2/h6H,3-5H2,1-2H3/t6-,7-/m1/s1
