20
gdb 83975	2.30899	1.76338	1.29255	2.115	78.25	-0.2208	-0.022	0.1988	1059.0911	0.172152	-403.157004	-403.148813	-403.147868	-403.189831	31.642	
C	-0.7168536621	 1.3911837178	 0.1282164302	-0.420593
C	-0.0696434304	 0.0150016057	 0.0390341492	-0.068997
N	 0.5845004578	-0.4550517037	-1.2364550284	-0.116382
C	 0.8672795567	 0.5359648196	-2.2855794265	-0.167564
C	 2.1990839219	 1.2268645687	-1.9170624455	-0.226918
C	 2.9887548759	 0.1087933982	-1.2098734768	-0.228826
C	 1.8891185572	-0.7406798018	-0.5437448362	-0.101795
C	 1.2787126791	-0.1840565051	 0.7514879221	 0.369979
O	 1.7095844749	 0.0965379648	 1.83173095	-0.300509
H	-0.0237653752	 2.1995533183	-0.1207203129	 0.127028
H	-1.585827796	 1.4619725025	-0.5332276368	 0.129969
H	-1.0609156942	 1.5517842584	 1.154150282	 0.139402
H	-0.8005436185	-0.7386073246	 0.3629097119	 0.108577
H	 0.9750135809	 0.0047713186	-3.2398656447	 0.103875
H	 0.0335052338	 1.2328661004	-2.4012958838	 0.107023
H	 2.7225476317	 1.6296338041	-2.7880652276	 0.102842
H	 2.0217097147	 2.0596548756	-1.2272752677	 0.109864
H	 3.5380052014	-0.4985744874	-1.9363152066	 0.109015
H	 3.7077047425	 0.4810690395	-0.4755591153	 0.123227
H	 2.1459419779	-1.8041266797	-0.4936137967	 0.100784
67.7054	169.95	185.8824	214.8518	230.9308	298.7745	445.0518	506.688	554.7545	587.1685	601.5667	702.9827	746.7043	833.7512	869.2012	878.2634	902.7859	913.1296	958.995	1005.2482	1016.1549	1049.4739	1080.7803	1107.999	1123.6223	1166.2073	1175.5018	1194.7377	1244.3856	1259.0839	1281.1287	1291.2193	1316.4474	1338.8167	1354.286	1365.9696	1399.7563	1483.7122	1488.4967	1489.7495	1504.1621	1512.9056	1893.1046	3006.2631	3020.9571	3042.2193	3043.1062	3044.8085	3057.7972	3096.2959	3099.7844	3109.5332	3113.1111	3119.9253
CC1N2CCCC2C1=O	C[C@H]1N2CCC[C@H]2C1=O	
InChI=1S/C7H11NO/c1-5-7(9)6-3-2-4-8(5)6/h5-6H,2-4H2,1H3	InChI=1S/C7H11NO/c1-5-7(9)6-3-2-4-8(5)6/h5-6H,2-4H2,1H3/t5-,6+/m1/s1
