23
gdb 112814	2.44561	1.12682	0.8608	1.3063	82.44	-0.2393	0.0688	0.3081	1446.8211	0.204443	-425.408468	-425.398177	-425.397232	-425.443963	37.897	
C	-0.0229120546	 1.5691871653	-0.2392320333	-0.382075
C	 0.0036120253	 0.0614619693	 0.0307777378	-0.185564
C	-1.3904491499	-0.5532169596	 0.0745775957	 0.00932
C	-2.2381185991	-0.6133182411	-1.230819528	-0.284928
C	-2.6986538322	-2.0428130651	-0.8291207271	 0.14197
O	-2.7250165546	-3.0473369814	-1.8073970296	-0.436906
C	-1.5237230016	-2.0961141652	 0.2052261845	 0.053811
O	-0.3995342413	-2.7571283264	-0.3485860407	-0.260201
C	-0.3155472839	-4.1242095428	 0.0162352996	-0.248418
H	 0.9894764915	 1.9837139646	-0.2726790661	 0.110998
H	-0.505076011	 1.7935424644	-1.196977897	 0.118206
H	-0.5761426894	 2.1042474559	 0.541100549	 0.110433
H	 0.5940244798	-0.4481315701	-0.7378267975	 0.106903
H	 0.5137368367	-0.1336910422	 0.9829999524	 0.092321
H	-1.9730686031	-0.0864713438	 0.8778718375	 0.06983
H	-3.0108517452	 0.1432245144	-1.383709479	 0.098467
H	-1.6013753192	-0.6489078147	-2.1214694576	 0.098425
H	-3.6783881312	-2.0429598483	-0.3435135183	 0.086546
H	-1.811571226	-3.1414825625	-2.1063680003	 0.283399
H	-1.7392610188	-2.4951981602	 1.2051471634	 0.055389
H	-0.2170463689	-4.237324185	 1.1060507761	 0.111233
H	-1.1935933865	-4.6913092193	-0.3179098655	 0.125141
H	 0.5793961331	-4.5292880261	-0.463187346	 0.125696
70.3777	87.3496	110.7994	146.6171	182.659	220.8	257.6514	275.744	332.7625	396.1296	416.6126	463.3023	492.0467	640.0695	689.1846	762.8502	785.9822	841.0924	917.7901	939.6728	970.7034	977.8492	1033.0243	1065.3511	1085.3392	1109.9769	1150.2654	1154.1362	1171.376	1183.3818	1209.2541	1222.2733	1246.4978	1267.0414	1286.1224	1295.3938	1321.3983	1344.8274	1381.9182	1387.9753	1411.3096	1441.1197	1477.7781	1479.8574	1487.7515	1489.3476	1499.9139	1507.9546	1515.7464	2990.0175	3009.106	3025.3603	3028.6	3034.3793	3048.327	3054.467	3071.4482	3075.4314	3098.1228	3101.2875	3111.8756	3114.2152	3773.1308
CCC1CC(O)C1OC	CC[C@H]1C[C@@H](O)[C@H]1OC	
InChI=1S/C7H14O2/c1-3-5-4-6(8)7(5)9-2/h5-8H,3-4H2,1-2H3	InChI=1S/C7H14O2/c1-3-5-4-6(8)7(5)9-2/h5-8H,3-4H2,1-2H3/t5-,6+,7-/m0/s1
