18
gdb 19837	3.27639	2.45446	1.76182	1.9706	70.37	-0.219	0.067	0.286	792.3049	0.15773	-343.935001	-343.928711	-343.927767	-343.965036	26.084	
C	 0.049008105	 1.4740674477	-0.1654920375	-0.259188
C	 1.3049544026	 0.6895246181	 0.0038610211	-0.001081
C	 2.1079622415	 0.7770361105	 1.2726461347	-0.038751
N	 1.8416774954	 1.8782499001	 2.2175594699	-0.334189
C	 1.4434104959	 0.5073507449	 2.5815752814	-0.03131
C	-0.0483959046	 0.2146146185	 2.5753985169	-0.236146
C	-0.4800700921	-0.5195340044	 1.2858714769	-0.139764
N	-0.0114545829	 0.0259789451	 0.0120169393	-0.098911
H	-0.2237060966	 2.1306783937	 0.6554839352	 0.130265
H	-0.2378171461	 1.8305433682	-1.1514499622	 0.108764
H	 1.8951216514	 0.4591902365	-0.880601478	 0.082496
H	 3.1407923958	 0.4555476526	 1.165669557	 0.080104
H	 2.700305518	 2.1356457357	 2.6968417539	 0.230097
H	 2.0348569466	 0.0009141557	 3.3400506966	 0.084288
H	-0.3169649024	-0.4117505374	 3.432291684	 0.098342
H	-0.5984331299	 1.1536883633	 2.6894462911	 0.117571
H	-0.1165893135	-1.5542544461	 1.3286992624	 0.101857
H	-1.5734945441	-0.5695933228	 1.2408171573	 0.105554
178.3108	236.0596	340.6427	403.305	471.5823	482.0911	568.311	686.6785	708.6402	763.8105	789.4566	866.8231	889.2923	917.1937	931.4125	941.6776	988.3574	1036.418	1049.4182	1063.2837	1111.6236	1120.2938	1141.301	1161.1165	1164.8541	1196.3617	1251.1882	1255.5722	1283.6299	1321.8241	1357.2775	1371.9062	1406.5728	1413.2877	1453.5278	1480.1981	1489.1339	1514.8564	3022.4061	3046.621	3067.592	3089.3013	3109.183	3117.1755	3132.208	3142.475	3198.0865	3503.285
C1C2C3NC3CCN12	C1[C@H]2[C@H]3N[C@H]3CCN12	
InChI=1S/C6H10N2/c1-2-8-3-5(8)6-4(1)7-6/h4-7H,1-3H2	InChI=1S/C6H10N2/c1-2-8-3-5(8)6-4(1)7-6/h4-7H,1-3H2/t4-,5-,6-,8?/m0/s1
