16
gdb 31437	2.92787	1.25257	0.88209	5.3591	75.95	-0.2109	-0.0284	0.1825	1244.054	0.125839	-437.95099	-437.942903	-437.941959	-437.984102	30.07	
O	 0.0358530177	 1.4275423793	 0.0077345049	-0.408617
C	 0.0116006026	 0.0175178874	 0.0021553535	-0.156053
C	-1.4104291434	-0.4851946585	 0.0123977362	 0.298615
C	-2.4739988136	 0.3666829286	 0.0225111765	-0.338768
C	-3.8446726436	-0.1070751817	 0.0322131109	 0.433353
O	-4.8593900418	 0.5705138671	 0.0413104258	-0.401135
N	-3.9424348212	-1.515604459	 0.0297171208	-0.36243
C	-2.8872129752	-2.3739147853	 0.0196529203	 0.041437
C	-1.6146182011	-1.9020529106	 0.0108914464	-0.237987
H	 0.9528357109	 1.714701845	-0.0015011447	 0.294717
H	 0.5184919258	-0.3933205719	-0.8878683021	 0.107081
H	 0.533952194	-0.4005939148	 0.8797646363	 0.107007
H	-2.3304544281	 1.4381052441	 0.0237446832	 0.133461
H	-4.8904177305	-1.8650008348	 0.0362684866	 0.25958
H	-3.1294902145	-3.4300449023	 0.0191974764	 0.132962
H	-0.778810398	-2.5899753426	 0.0029765191	 0.096777
64.4443	170.456	176.3031	195.523	224.3261	397.012	419.7336	482.1472	556.0428	566.5857	577.7638	697.9086	752.283	760.2825	767.569	898.3088	918.1728	926.2153	1008.0164	1039.6238	1087.4206	1126.6963	1158.6778	1212.5926	1220.1101	1252.3642	1257.9253	1334.6897	1427.6043	1461.0288	1500.6703	1514.5208	1587.5317	1678.6818	1782.7533	2952.0481	2970.9448	3197.9157	3216.7465	3240.9011	3610.7971	3845.7329
OCC1=CC(=O)NC=C1	OCc1cc(=O)[nH]cc1	
InChI=1S/C6H7NO2/c8-4-5-1-2-7-6(9)3-5/h1-3,8H,4H2,(H,7,9)	InChI=1S/C6H7NO2/c8-4-5-1-2-7-6(9)3-5/h1-3,8H,4H2,(H,7,9)
