15
gdb 26786	3.64621	1.13326	0.86924	2.6553	83.26	-0.1937	-0.0157	0.1781	1268.09	0.112054	-416.825935	-416.81723	-416.816286	-416.859208	32.116	
C	-0.0286343332	 1.5320009778	 0.1402546522	-0.520509
C	 0.0133404304	 0.051218572	-0.0019935791	 0.218858
C	 0.0550306673	-0.770999601	-1.1093869478	 0.271072
O	 0.0672186862	-0.3591883785	-2.3975000645	-0.446553
N	 0.083940993	-2.0845185095	-0.7770694046	-0.392505
C	 0.0607396098	-2.1090486715	 0.5536041278	 0.177291
N	 0.0179193886	-0.8379700703	 1.0548303724	-0.351473
C	 0.076111037	-3.248018582	 1.3845815618	 0.265505
C	 0.0882962661	-4.2026805584	 2.1192232613	-0.408216
H	 0.8352955718	 1.9228589908	 0.692371698	 0.130786
H	-0.0206187764	 1.9854920448	-0.8531477352	 0.157734
H	-0.9334546847	 1.8762516513	 0.6567790565	 0.130852
H	 0.0983490997	-1.1584950097	-2.9369430664	 0.30245
H	-0.005952846	-0.60014429	 2.0326348855	 0.269196
H	 0.0995008206	-5.0533535457	 2.754480092	 0.195512
100.0108	124.4904	140.2785	224.1282	244.5273	331.6349	363.1523	411.5664	450.0299	532.1157	546.6029	548.1398	590.7535	650.7158	687.3026	700.1035	735.8982	811.9225	999.8426	1037.4254	1063.6326	1151.9002	1210.4054	1284.4204	1341.9183	1414.1355	1430.8498	1462.4272	1482.8277	1495.5635	1537.1094	1673.4304	2229.7117	3015.8355	3059.6814	3129.843	3502.6282	3662.4688	3806.6747
CC1=C(O)N=C(N1)C#C	Cc1c(O)nc([nH]1)C#C	
InChI=1S/C6H6N2O/c1-3-5-7-4(2)6(9)8-5/h1,9H,2H3,(H,7,8)	InChI=1S/C6H6N2O/c1-3-5-7-4(2)6(9)8-5/h1,9H,2H3,(H,7,8)
