15
gdb 13833	4.57533	1.47701	1.14623	14.9096	65.88	-0.1717	-0.0249	0.1468	987.465	0.120888	-399.769262	-399.761879	-399.760935	-399.801808	26.268	
O	 0.0368875227	-0.0094080829	-0.394995133	-0.45949
C	 0.0530372985	 1.1937915678	-0.1241334718	 0.291578
O	 0.964445944	 2.030609982	 0.0695091833	-0.488328
C	-1.3327718416	 1.8673530748	 0.0301781677	 0.248789
C	-2.5675171936	 1.3682972295	-0.0092057978	-0.197489
C	-3.6231152313	 2.4012738243	 0.2599668772	-0.243807
N	-2.8303102364	 3.7016298931	 0.1131313268	-0.27254
H	-2.943576856	 4.0485182749	-0.8385290169	 0.314839
H	-3.1570210257	 4.4313003403	 0.7466813	 0.302703
C	-1.340909979	 3.3363489506	 0.3218598786	-0.29213
H	-2.8001642651	 0.3265473576	-0.1830173748	 0.141578
H	-4.4650067182	 2.428082688	-0.4390262833	 0.1508
H	-4.03033431	 2.3805499758	 1.2791784168	 0.155441
H	-1.0752360758	 3.5783502154	 1.3542539425	 0.168579
H	-0.7193414625	 3.9272209986	-0.3492699753	 0.179477
54.8328	111.8221	165.9104	183.5794	355.0642	404.4698	497.3853	635.6366	736.8896	752.6807	783.006	835.0883	850.953	858.7008	908.0773	972.1472	1004.1471	1042.6658	1075.8532	1128.7188	1209.8703	1231.989	1248.1188	1298.0197	1337.138	1351.3235	1365.6964	1476.3148	1507.3451	1630.7099	1692.0691	1779.8792	3025.0985	3079.42	3086.1731	3162.5891	3236.6473	3457.7193	3529.767
[O-]C(=O)C1=CC[NH2+]C1	O=C([O])C1=CC[NH2]C1	
InChI=1S/C5H7NO2/c7-5(8)4-1-2-6-3-4/h1,6H,2-3H2,(H,7,8)	InChI=1S/C5H7NO2/c7-5(8)4-1-2-6-3-4/h1H,2-3,6H2
