14
gdb 129434	4.60662	1.03947	0.84827	2.4401	66.65	-0.23	-0.0314	0.1986	1249.9448	0.102543	-470.065077	-470.056885	-470.05594	-470.098195	30.07	
N	 0.6223174465	 0.309414298	-0.9850376348	-0.542236
C	-0.1665206685	 0.2425325497	 0.1229098032	 0.342253
O	-0.0055464903	 0.9533503836	 1.1028663744	-0.384137
C	-1.2454118323	-0.7698537164	 0.0947176029	 0.348093
C	-1.6824455331	-1.737955511	-0.7995163067	-0.469566
C	-2.7778550254	-2.3306239719	-0.1426419685	 0.457714
O	-3.5352138043	-3.3344176559	-0.6258862159	-0.429575
N	-3.0108783245	-1.7901043616	 1.05121584	-0.324741
N	-2.0626679038	-0.8434049435	 1.1682102346	-0.240412
H	 1.3076605571	 1.0458048209	-1.0248687968	 0.267914
H	 0.3909709193	-0.178983761	-1.8321120756	 0.268027
H	-1.2831907754	-1.9963087644	-1.7658987188	 0.110966
H	-4.203709627	-3.533980872	 0.0416212892	 0.306457
H	-1.9871919583	-0.2633875244	 1.9885398629	 0.289245
63.5997	143.5843	166.0861	197.1896	347.9083	379.5248	399.3933	406.6496	515.7789	531.2568	572.7079	650.1226	663.7569	707.3191	751.908	771.7507	806.4566	1008.0987	1027.9059	1085.468	1143.8695	1174.3127	1233.5126	1293.5122	1380.582	1441.3617	1509.1812	1565.0092	1599.3625	1623.5434	1770.874	3271.7975	3607.291	3663.7305	3741.6775	3794.9321
NC(=O)C1=CC(O)=NN1	NC(=O)c1cc(O)n[nH]1	
InChI=1S/C4H5N3O2/c5-4(9)2-1-3(8)7-6-2/h1H,(H2,5,9)(H2,6,7,8)	InChI=1S/C4H5N3O2/c5-4(9)2-1-3(8)7-6-2/h1H,(H2,5,9)(H2,6,7,8)
