21
gdb 86353	2.4622	1.22138	0.8816	4.2202	83.94	-0.2246	0.0356	0.2602	1351.0257	0.181975	-383.269158	-383.259428	-383.258484	-383.30397	35.515	
C	-0.1262511591	 1.5777242439	-0.0848631213	-0.400796
C	-0.055217598	 0.0557562697	-0.0301641461	-0.034688
C	 1.0995199472	-0.5656346722	-0.860991077	-0.172705
N	 1.8896036877	-0.6949352308	 0.3767073427	-0.069331
C	 2.7505604845	-1.8491530725	 0.5361014588	-0.338674
C	 0.6746670726	-0.5760746815	 1.1956634905	 0.051358
C	 0.8128863873	 0.2367579687	 2.4931443807	-0.35732
C	 1.5832672108	-0.4694256265	 3.5146026204	 0.268949
N	 2.192121127	-1.0460583166	 4.3103265447	-0.315796
H	 0.8609208565	 2.0291107234	 0.0552805734	 0.131157
H	-0.5029423993	 1.9030342316	-1.0601359925	 0.120095
H	-0.8005774868	 1.9826641183	 0.6775807427	 0.115136
H	-1.0404592702	-0.3746593693	-0.2213194514	 0.079408
H	 0.8227139691	-1.5366615132	-1.3032569097	 0.085616
H	 1.5590200522	 0.0581396547	-1.6365453958	 0.100595
H	 3.5672583359	-1.7989894395	-0.1915942708	 0.121614
H	 3.1890513926	-1.8547274694	 1.5375610574	 0.148661
H	 2.2164507918	-2.8064968211	 0.3866968355	 0.092418
H	 0.2324924744	-1.5568607339	 1.4415753112	 0.071798
H	 1.3020305274	 1.1923473573	 2.2835970982	 0.15421
H	-0.1820282736	 0.4537932189	 2.9000759386	 0.148297
64.6951	92.2894	119.2114	211.2773	218.3195	254.4817	258.8675	296.583	354.4272	392.3886	415.3285	466.8044	548.0356	692.565	791.3032	844.3284	890.1984	917.846	944.0724	971.5112	1005.2349	1053.1366	1093.5991	1108.655	1117.7094	1167.7367	1185.0215	1215.6296	1229.9138	1239.5162	1273.5137	1285.116	1308.3098	1349.0019	1373.6147	1392.8431	1411.156	1453.1545	1456.903	1490.0247	1497.5547	1500.2065	1503.3152	1519.4944	2357.5057	2931.0526	2948.7734	2968.1706	3031.4933	3045.1651	3048.4852	3066.8687	3080.911	3096.1	3099.8752	3111.0325	3117.2632
CC1CN(C)C1CC#N	C[C@H]1CN(C)[C@H]1CC#N	
InChI=1S/C7H12N2/c1-6-5-9(2)7(6)3-4-8/h6-7H,3,5H2,1-2H3	InChI=1S/C7H12N2/c1-6-5-9(2)7(6)3-4-8/h6-7H,3,5H2,1-2H3/t6-,7-/m0/s1
