17
gdb 30099	3.71453	1.18291	1.16512	3.0023	75.64	-0.2141	0.0082	0.2223	1123.2816	0.136823	-418.007238	-417.999326	-417.998382	-418.041098	29.295	
C	-0.0656152568	 1.5129715981	-0.3383838462	-0.415367
C	 0.0005348203	 0.0250196094	-0.1015644713	 0.009998
C	 1.2682113445	-0.733082756	-0.2782730603	-0.254575
N	 0.7307546766	-0.5300413022	 1.0673413409	-0.202659
C	 1.3797439526	 0.3027924722	 1.9618714328	 0.383824
C	 1.0769999436	 0.6988059949	 3.2256060394	-0.183976
N	 2.0829439046	 1.530692558	 3.7043066993	-0.253932
C	 2.934494334	 1.5908906835	 2.7373678329	 0.06515
O	 2.5884072753	 0.8793876322	 1.6325642671	-0.179474
H	 0.9087712483	 1.987439832	-0.1973258488	 0.13546
H	-0.3994119056	 1.7141995974	-1.3614683947	 0.127084
H	-0.7775135988	 1.9864173571	 0.3459634446	 0.13437
H	-0.9305881417	-0.5088855787	-0.2791414304	 0.102984
H	 1.2549220543	-1.7636248727	-0.6224410685	 0.124764
H	 2.1524456696	-0.1670780059	-0.5566952725	 0.136483
H	 0.2158495004	 0.4365511014	 3.8173894912	 0.12393
H	 3.8785924386	 2.1110972595	 2.7002864344	 0.145936
19.5001	109.7955	190.1712	222.418	292.526	370.0496	462.758	503.6777	587.3167	664.6158	712.0493	777.7933	806.9514	843.361	849.9338	911.476	930.633	964.35	1005.7643	1050.2935	1111.3828	1119.2267	1125.6055	1132.7139	1156.5964	1196.5651	1218.7535	1250.9964	1336.8714	1356.6694	1398.554	1422.1543	1489.8046	1495.9968	1510.1589	1553.2669	1643.374	3039.1994	3101.9509	3113.2725	3118.1725	3137.6024	3203.2303	3273.2849	3277.5275
CC1CN1C1=CN=CO1	C[C@H]1CN1c1cnco1	
InChI=1S/C6H8N2O/c1-5-3-8(5)6-2-7-4-9-6/h2,4-5H,3H2,1H3	InChI=1S/C6H8N2O/c1-5-3-8(5)6-2-7-4-9-6/h2,4-5H,3H2,1H3/t5-,8?/m0/s1
