21
gdb 111151	3.94285	1.03569	0.9522	1.7765	84.11	-0.2318	0.0867	0.3184	1344.0143	0.181561	-387.000299	-386.991709	-386.990765	-387.033491	33.536	
C	 0.0256104142	 1.5460416061	-0.1417364072	-0.378349
C	 0.0034733551	 0.0473393099	 0.1814909389	-0.224743
C	-1.3946010555	-0.5438778857	 0.1194431964	 0.046459
C	-2.0170261315	-0.8988095228	-1.2680806136	-0.067176
O	-1.0480997036	-2.0186804483	-1.3896937643	-0.312768
C	-1.5680176209	-2.0879092475	 0.0018045877	-0.082947
C	-2.9758456545	-1.8637620863	-0.5616498371	 0.47593
C	-4.3415202003	-1.7561995009	 0.0224662223	-0.360253
C	-4.0213101449	-2.788911021	-1.0590337531	-0.364352
H	 1.0399978442	 1.9502803804	-0.070652767	 0.113751
H	-0.3370243969	 1.7385791334	-1.1573291488	 0.115587
H	-0.6079569588	 2.1144212925	 0.5486956259	 0.111089
H	 0.6474439207	-0.5001521935	-0.5124308967	 0.117673
H	 0.4093728439	-0.1129269171	 1.1890511293	 0.091465
H	-2.0872707897	-0.0581090483	 0.8157806119	 0.07071
H	-2.1787046739	-0.2743802702	-2.1478103754	 0.090796
H	-1.1888778219	-2.8852644253	 0.6428454293	 0.090165
H	-4.5066445076	-2.1154068805	 1.0334862364	 0.115603
H	-4.9615237004	-0.9088574406	-0.2532830862	 0.11564
H	-4.429847564	-2.626095973	-2.0511543791	 0.117813
H	-3.9743878538	-3.8322720515	-0.7642888098	 0.117904
85.437	125.7966	162.3464	227.9975	249.6896	288.4793	330.1069	410.343	479.8148	604.324	711.2577	734.1175	749.1517	772.9664	798.8039	861.9818	885.7116	888.9901	919.8036	942.4556	967.8939	1015.6495	1047.4858	1061.7661	1074.7011	1079.2481	1109.8594	1114.9239	1142.8507	1153.5769	1177.9576	1189.1923	1212.0179	1213.4705	1263.9318	1288.1342	1345.9984	1406.4255	1414.5377	1428.3151	1461.4373	1489.0303	1500.3043	1506.0297	1524.6749	3022.9674	3029.3923	3050.0514	3082.07	3102.6834	3104.8985	3106.8955	3112.903	3122.5017	3128.0967	3200.1113	3214.686
CCC1C2OC1C21CC1	CC[C@H]1[C@H]2O[C@@H]1C12CC1	
InChI=1S/C8H12O/c1-2-5-6-8(3-4-8)7(5)9-6/h5-7H,2-4H2,1H3	InChI=1S/C8H12O/c1-2-5-6-8(3-4-8)7(5)9-6/h5-7H,2-4H2,1H3/t5-,6+,7-
