18
gdb 57800	4.25031	0.64213	0.57244	2.9513	78.32	-0.2422	0.0245	0.2667	1886.2033	0.145057	-439.09345	-439.082753	-439.081809	-439.131403	37.222	
C	 0.2799115307	 1.2534037953	 0.1968741363	-0.388759
C	 0.0299064539	-0.2550348422	 0.3206273844	-0.027497
O	 0.2889084281	-0.7291826525	 1.6420597664	-0.413039
C	-1.3227560896	-0.6233255141	-0.115822984	 0.148306
C	-2.4488695223	-0.928048812	-0.4217106333	-0.023116
C	-3.796324082	-1.3618076254	-0.7582428438	-0.481527
C	-4.2896971002	-2.6591991732	-0.0763837249	 0.424732
N	-3.3906629801	-3.2782689468	 0.7270607819	-0.522666
O	-5.41700118	-3.0616446958	-0.2768754997	-0.35983
H	 1.2932500359	 1.4835853445	 0.5357699956	 0.128625
H	 0.1651444652	 1.5834167946	-0.8395450557	 0.12977
H	-0.4342523942	 1.8121536467	 0.8107865779	 0.118877
H	 0.760513595	-0.784798167	-0.3023363668	 0.121272
H	-0.3575653341	-0.315771894	 2.225830632	 0.282273
H	-4.5341633766	-0.5900526859	-0.5124082842	 0.162203
H	-3.8905933401	-1.5316455616	-1.8371275823	 0.165056
H	-2.4613182147	-2.9133849163	 0.8535872644	 0.27289
H	-3.6624427049	-4.1353522544	 1.1785987757	 0.262429
21.4233	37.474	57.2624	138.1663	169.6524	248.9936	278.7118	297.3329	336.9006	367.4008	398.5347	443.0877	518.71	542.7896	551.4447	603.4914	682.7065	753.3287	841.0624	900.5686	948.3915	1017.8526	1064.4739	1099.3406	1100.9404	1173.3085	1215.4126	1286.6633	1299.6274	1339.9511	1349.1727	1400.6212	1417.502	1445.7424	1488.146	1491.4797	1607.9428	1809.6258	2353.5395	3038.1037	3042.7847	3046.3271	3079.5029	3114.3011	3128.8287	3594.7226	3731.7877	3797.7176
CC(O)C#CCC(N)=O	C[C@@H](O)C#CCC(=O)N	
InChI=1S/C6H9NO2/c1-5(8)3-2-4-6(7)9/h5,8H,4H2,1H3,(H2,7,9)	InChI=1S/C6H9NO2/c1-5(8)3-2-4-6(7)9/h5,8H,4H2,1H3,(H2,7,9)/t5-/m1/s1
