15
gdb 31180	2.84956	1.28914	0.89477	6.7433	74.65	-0.2167	-0.0293	0.1875	1231.3401	0.112534	-453.979802	-453.97132	-453.970376	-454.01354	29.651	
C	-0.0272810243	 1.4957155464	-0.1116994534	-0.335185
N	 0.1728939644	 0.0616178988	 0.0407575687	-0.393185
C	 0.6407780363	-0.7123987744	-0.9662716984	 0.394878
C	 0.6945909538	-2.0787889802	-1.1981600779	 0.062712
C	 0.156114084	-3.1275050889	-0.3627148923	 0.072047
O	 0.2072133335	-4.3195193086	-0.5713505474	-0.28338
N	 1.3672102027	-2.2782105228	-2.4113464434	-0.272955
C	 1.661813906	-1.1088409962	-2.8287308186	 0.054992
O	 1.2466937943	-0.080711189	-1.9957771704	-0.18816
H	 0.8982651628	 1.9644917585	-0.451810549	 0.15915
H	-0.8232787898	 1.7402869985	-0.8273189814	 0.137185
H	-0.2873845344	 1.9125755222	 0.8626211609	 0.141372
H	-0.4142256947	-0.4141279635	 0.7064319298	 0.267149
H	-0.3499966072	-2.7356074307	 0.5566568145	 0.026147
H	 2.1772620428	-0.80236582	-3.7241785816	 0.157233
72.6453	128.282	154.4074	157.5502	220.95	244.912	349.2769	376.3127	455.0487	572.4018	657.8604	711.6294	736.4428	797.7178	819.3023	932.4775	1013.3056	1041.3561	1053.2281	1097.6448	1151.0236	1188.2491	1281.895	1310.1401	1413.0588	1443.5155	1465.0942	1487.1303	1500.899	1517.6319	1601.8859	1662.0934	1791.7658	2786.9973	3018.4129	3105.6597	3146.1228	3287.9062	3644.5238
CNC1=C(C=O)N=CO1	CNc1c(C=O)nco1	
InChI=1S/C5H6N2O2/c1-6-5-4(2-8)7-3-9-5/h2-3,6H,1H3	InChI=1S/C5H6N2O2/c1-6-5-4(2-8)7-3-9-5/h2-3,6H,1H3
