21
gdb 7444	3.01642	1.42552	1.24247	3.4304	76.07	-0.2311	0.0371	0.2682	1119.7059	0.18635	-366.302986	-366.292738	-366.291793	-366.338405	36.247	
C	-0.4843435072	 1.3643063077	-0.4189369089	-0.390613
C	-0.2033510508	-0.1389705845	-0.3005918538	 0.038484
C	-1.4874758747	-0.9754924507	-0.3678838493	-0.390054
N	 0.7904021539	-0.5874123712	-1.2920691392	-0.083655
C	 0.5351793877	-0.3211878219	-2.6980554316	-0.343386
C	 1.967175168	-1.1359945579	-0.8388447278	 0.404578
C	 3.001283296	-1.5198337194	-1.8898219606	-0.502792
O	 2.1899939358	-1.3206136311	 0.3478762911	-0.378337
H	 0.4413520813	 1.9426460178	-0.3443420514	 0.122571
H	-0.9737694898	 1.6200060652	-1.3652641209	 0.109718
H	-1.149298825	 1.6831636645	 0.3894592063	 0.120064
H	 0.2779111153	-0.3290850519	 0.6598155415	 0.130856
H	-2.0226897834	-0.8406467083	-1.3147069886	 0.109227
H	-1.2626994637	-2.0389157001	-0.2488073614	 0.126522
H	-2.1697100051	-0.6787387285	 0.4350177241	 0.118436
H	 0.9332146767	 0.6483537494	-3.0282724213	 0.124303
H	 0.9641089822	-1.0990648159	-3.3311318172	 0.134352
H	-0.5422386482	-0.3173059704	-2.8791861357	 0.132905
H	 3.2524878036	-0.6847079445	-2.5506974098	 0.131896
H	 3.8961709484	-1.8442735079	-1.3601978215	 0.146521
H	 2.6468272191	-2.3436852104	-2.5185186636	 0.138405
37.5143	90.665	103.3086	168.8539	204.6276	232.2553	235.9645	252.6142	304.1567	370.7567	430.6589	451.9375	522.0471	596.0261	604.5561	712.0602	855.7818	929.8724	947.3142	958.1908	1020.574	1048.5438	1087.6881	1141.098	1147.5564	1155.7861	1204.4399	1268.4315	1354.247	1374.1951	1393.0246	1398.5043	1416.4771	1430.0542	1463.6458	1477.7998	1485.0808	1488.353	1493.097	1496.633	1505.3341	1509.3243	1521.1	1753.0887	3006.8515	3031.0808	3035.6449	3043.1009	3089.5965	3095.9843	3096.7753	3105.4168	3113.0194	3116.9563	3122.5529	3135.7103	3162.0923
CC(C)N(C)C(C)=O	CC(C)N(C)C(=O)C	
InChI=1S/C6H13NO/c1-5(2)7(4)6(3)8/h5H,1-4H3	InChI=1S/C6H13NO/c1-5(2)7(4)6(3)8/h5H,1-4H3
