14
gdb 23092	2.40143	1.47391	1.00657	3.4446	73.98	-0.2133	-0.0378	0.1755	1124.12	0.101733	-432.839012	-432.831041	-432.830097	-432.871858	29.322	
O	-0.0896555516	 1.3466017784	 0.056044042	-0.389316
N	 0.0262510741	-0.0509093058	 0.0671486028	-0.241731
C	-1.1240937732	-0.603118905	-0.0033612177	 0.393418
C	-2.4754503985	-0.0815037213	-0.0696999948	-0.235287
C	-3.3247021531	-1.1266190477	 0.0065229511	 0.001711
N	-2.6915946828	-2.349158215	 0.200158599	-0.309843
C	-1.2409147784	-2.137186244	 0.0200862747	-0.194457
C	-0.7613631551	-2.757716933	-1.2225628443	 0.290013
N	-0.4115886536	-3.2768869749	-2.193704351	-0.319297
H	 0.8303325513	 1.6273918636	 0.104114878	 0.310624
H	-2.7298549598	 0.9633192555	-0.1185765018	 0.133238
H	-4.4066779733	-1.1064280608	-0.0151513375	 0.141237
H	-3.0857462508	-3.1631813254	-0.2502591273	 0.26212
H	-0.6772912653	-2.5607431545	 0.8569555568	 0.157571
83.931	115.3454	203.3656	233.328	286.204	363.6744	425.3458	443.421	489.8959	580.473	590.136	683.8201	739.9725	787.1992	844.8981	883.0597	932.6108	962.4387	1003.8822	1041.6883	1091.4681	1157.5641	1223.8668	1243.4389	1316.2569	1368.9061	1404.4267	1436.7542	1629.1166	1728.7477	2359.0684	3066.25	3226.6697	3290.4508	3598.114	3819.6774
ON=C1C=CNC1C#N	ON=C1C=CN[C@H]1C#N	
InChI=1S/C5H5N3O/c6-3-5-4(8-9)1-2-7-5/h1-2,5,7,9H	InChI=1S/C5H5N3O/c6-3-5-4(8-9)1-2-7-5/h1-2,5,7,9H/t5-/m0/s1
