19
gdb 56280	4.97906	0.64787	0.63129	4.3107	72.78	-0.2526	0.0168	0.2693	1762.7698	0.16008	-456.33788	-456.328698	-456.327754	-456.373425	32.877	
O	-0.5290994588	 0.0239434328	 0.6630163	-0.361332
C	-0.263884399	 1.2922532376	 0.3149217651	 0.422523
O	 0.6571119842	 1.9215831409	 0.7569579092	-0.328877
C	-1.2405981528	 1.8458856523	-0.736707418	-0.308206
N	-2.4571105856	 1.0395274399	-0.8093982776	-0.319775
H	-2.8131202476	 0.9958062865	-1.7569660301	 0.239397
H	-1.3323114717	-0.2153477887	 0.1518020376	 0.302574
C	-3.5219927079	 1.461924079	 0.1075522189	-0.173402
C	-4.7452411394	 0.5978141642	-0.059323641	 0.017878
C	-6.0916426762	 1.1332571567	 0.2459131384	-0.244038
N	-5.702481945	 0.8667691939	-1.1511933286	-0.317065
H	-1.4164628093	 2.9062366433	-0.5114765408	 0.129594
H	-0.7215879377	 1.802917048	-1.700028826	 0.142484
H	-3.1372942618	 1.3725344311	 1.1316370837	 0.131069
H	-3.7965579347	 2.5223984904	-0.0370584374	 0.090681
H	-4.5667293277	-0.4642338942	 0.0954422621	 0.104551
H	-6.8586439721	 0.4748826224	 0.6422630479	 0.128993
H	-6.1681592195	 2.166073615	 0.5766389489	 0.116549
H	-5.4701679775	 1.7486811692	-1.6050213923	 0.2264
52.6502	56.5028	88.2578	122.1554	187.8163	308.7728	330.4153	399.9765	437.0425	547.6128	561.9343	664.3264	753.6997	807.5551	830.4201	855.6843	874.7118	922.076	944.031	972.7186	1006.2941	1041.3222	1096.0951	1125.2484	1142.3726	1159.4731	1193.559	1217.2091	1254.3957	1261.8986	1280.118	1306.154	1348.0131	1361.6842	1413.9712	1439.1081	1467.9481	1482.2201	1503.3915	1514.8211	1881.0372	2943.1183	3021.8148	3043.5977	3084.3602	3111.9403	3134.4708	3198.0356	3475.6818	3494.6678	3544.7086
[O-]C(=O)C[NH2+]CC1CN1	OC(=O)CNC[C@H]1CN1	
InChI=1S/C5H10N2O2/c8-5(9)3-6-1-4-2-7-4/h4,6-7H,1-3H2,(H,8,9)	InChI=1S/C5H10N2O2/c8-5(9)3-6-1-4-2-7-4/h4,6-7H,1-3H2,(H,8,9)/t4-/m0/s1
