21
gdb 116229	2.34351	1.45851	1.0295	2.8035	77.91	-0.2446	0.0844	0.329	1212.419	0.183592	-424.212867	-424.204188	-424.203244	-424.246737	33.453	
O	-0.1053697298	 1.4698343472	-0.1342445954	-0.426292
C	-0.0076155222	 0.0630274631	-0.0588044935	-0.067316
C	-1.3726567274	-0.5532861864	 0.2457056086	 0.037458
O	-2.297630526	-0.0840507594	-0.7562313047	-0.289055
C	-2.6938556152	-1.1769037787	-1.5820977579	-0.082695
C	-2.6752201078	-2.3900804825	-0.6526048923	-0.295197
C	-1.4576154432	-2.08446319	 0.2135593356	 0.323238
C	-0.2307071838	-2.9667386022	 0.1517092788	-0.314264
C	-1.0883038505	-2.934848936	 1.3941969415	-0.322089
H	-0.8677422275	 1.6406426092	-0.7018744359	 0.287812
H	 0.3839473825	-0.3675534519	-0.995103647	 0.083655
H	 0.7074607155	-0.1665872817	 0.7395664211	 0.101538
H	-1.7275221659	-0.1515844149	 1.2039079307	 0.08579
H	-3.6794679497	-0.9433284496	-1.9939943845	 0.109526
H	-1.9917421788	-1.3129243203	-2.4193313754	 0.093833
H	-3.5879605074	-2.4094980251	-0.0459251477	 0.109563
H	-2.5967285895	-3.3415196662	-1.1853123876	 0.102863
H	-0.275315477	-3.8481434599	-0.4799071956	 0.111697
H	 0.7520891983	-2.5120689249	 0.2020144193	 0.120677
H	-0.685755936	-2.4406637946	 2.2732805436	 0.116087
H	-1.7096897488	-3.7964094054	 1.6165772782	 0.113174
37.946	133.4172	187.0221	193.7377	256.7312	306.8784	391.7736	445.2376	464.1523	491.2873	541.4704	638.399	773.854	784.0116	824.1756	886.1657	914.9253	923.0183	956.7481	982.2235	1008.3945	1013.0894	1060.0125	1078.072	1084.4773	1090.3467	1106.2456	1128.4724	1189.4316	1195.88	1225.5911	1238.2939	1271.3798	1308.8869	1317.0105	1344.8485	1370.0338	1389.6192	1401.4697	1440.201	1469.6033	1487.544	1501.2477	1507.6083	1521.9858	2967.5865	2982.999	3018.4682	3038.3655	3061.8202	3087.6285	3098.7961	3121.3102	3132.13	3200.9279	3219.1074	3775.3207
OCC1OCCC11CC1	OC[C@H]1OCCC21CC2	
InChI=1S/C7H12O2/c8-5-6-7(1-2-7)3-4-9-6/h6,8H,1-5H2	InChI=1S/C7H12O2/c8-5-6-7(1-2-7)3-4-9-6/h6,8H,1-5H2/t6-/m1/s1
