18
gdb 79426	3.76399	1.23303	1.05048	2.2813	77.6	-0.2283	-0.0367	0.1916	1162.3013	0.146705	-401.856417	-401.848436	-401.847491	-401.889055	30.291	
C	-0.1055845481	 1.595866517	-0.0214581136	-0.428538
C	-0.0510666047	 0.0763258552	-0.0122898803	-0.011658
C	 1.1669923373	-0.6287958864	-0.6290014892	-0.056673
N	 2.0717028163	-0.2512006467	 0.5768327046	-0.164214
C	 2.51701342	-1.7082952774	 0.6949720466	-0.233502
C	 1.0635298138	-1.9007810989	 0.2898530973	 0.234224
C	 0.2817641372	-3.1472418369	 0.0676927912	 0.023359
O	 0.7424326902	-4.2561147615	 0.1931756054	-0.248371
C	 0.67511365	-0.6357727501	 1.1395647329	-0.0566
H	 0.8637134335	 2.0208269764	 0.2498753612	 0.14595
H	-0.3812841103	 1.9689046189	-1.0135800839	 0.118535
H	-0.8547953209	 1.9621903914	 0.6884441493	 0.118534
H	-1.013866437	-0.3702749779	-0.2818271732	 0.077052
H	 1.5626878569	-0.6005322436	-1.6465133961	 0.092707
H	 3.292045297	-1.98700627	-0.0244769903	 0.112194
H	 2.8097393743	-1.993828778	 1.7092394446	 0.11222
H	-0.7824348987	-2.9970546796	-0.2281780763	 0.072052
H	 0.4885728632	-0.615876902	 2.21544147	 0.09273
84.8197	134.0992	216.8503	237.8671	242.4039	301.1863	383.6226	443.6332	588.6194	675.8015	694.6006	777.3699	848.1241	849.1556	861.8841	881.3155	916.7829	1019.0751	1022.2823	1028.5146	1045.8526	1084.9082	1092.1417	1102.4675	1126.8025	1150.7791	1190.9662	1194.3973	1226.5045	1255.913	1294.2826	1322.0467	1397.4939	1411.0906	1427.1933	1495.8591	1503.1853	1520.9118	1810.5117	2857.9981	3036.8628	3052.9464	3054.696	3093.1889	3096.7188	3098.5895	3114.5106	3129.2887
CC1C2N3CC2(C=O)C13	C[C@H]1[C@H]2N3C[C@@]2(C=O)[C@H]13	
InChI=1S/C7H9NO/c1-4-5-7(3-9)2-8(5)6(4)7/h3-6H,2H2,1H3	InChI=1S/C7H9NO/c1-4-5-7(3-9)2-8(5)6(4)7/h3-6H,2H2,1H3/t4-,5+,6-,7-
