19
gdb 14104	3.13495	1.73154	1.46477	1.8546	71.97	-0.2339	0.0771	0.3109	958.2287	0.164248	-365.012105	-365.003779	-365.002835	-365.044656	30.968	
C	-0.260340766	 1.5150444927	 0.0641741167	-0.403007
C	 0.1303008948	 0.0523939859	-0.018475761	 0.089189
O	 1.3524349247	-0.1503664275	-0.7735132784	-0.300014
C	 1.9836449776	-0.8777576121	 0.3040637568	-0.140536
C	 0.7776344128	-0.6280653035	 1.1985543022	 0.27707
C	 0.6792926185	-0.272323605	 2.6336953798	-0.316015
N	 0.2230600256	-1.5742196373	 2.1392267572	-0.122469
C	-1.2156793486	-1.8000393862	 2.1116965966	-0.319048
H	 0.5304977525	 2.1032585105	 0.5383867484	 0.121739
H	-0.4334640681	 1.9138137337	-0.940541641	 0.128996
H	-1.1834536913	 1.638126458	 0.6412242066	 0.11471
H	-0.6903167855	-0.5368146836	-0.4548204848	 0.076229
H	 2.1511757154	-1.9335983321	 0.0559715469	 0.106899
H	 2.9321230296	-0.41947455	 0.6097444833	 0.103926
H	 1.5591629423	-0.2872946206	 3.2725613861	 0.117217
H	-0.0767703978	 0.4602483903	 2.9169515694	 0.108699
H	-1.8058673993	-0.8961013956	 1.8868152761	 0.101656
H	-1.4510873518	-2.5588846123	 1.3587046026	 0.127432
H	-1.5344174754	-2.1792514653	 3.0872754966	 0.127325
84.6809	156.1121	195.1463	218.0664	229.9276	248.6099	382.9535	423.0317	429.9296	513.9622	570.8181	746.834	805.9508	879.054	891.3854	925.3495	1007.904	1022.0648	1039.516	1078.909	1089.4291	1114.2912	1134.1941	1145.9135	1153.2487	1175.4762	1206.1863	1231.9212	1285.7198	1332.1077	1376.6339	1402.1258	1437.6608	1451.1498	1482.8671	1490.6657	1493.2098	1497.4429	1518.9911	1520.9267	2965.5825	2986.8165	3012.8973	3033.8769	3057.7875	3069.5481	3082.8584	3103.9914	3106.3354	3117.1465	3169.3775
CC1OCC11CN1C	C[C@H]1OC[C@]21CN2C	
InChI=1S/C6H11NO/c1-5-6(4-8-5)3-7(6)2/h5H,3-4H2,1-2H3	InChI=1S/C6H11NO/c1-5-6(4-8-5)3-7(6)2/h5H,3-4H2,1-2H3/t5-,6+,7?/m1/s1
