23
gdb 63185	2.7354	1.27395	1.17436	1.3718	84.89	-0.2368	0.076	0.3128	1203.8523	0.207116	-388.296186	-388.287229	-388.286285	-388.329095	35.883	
C	-0.3748673455	 1.5316384163	-0.1211181622	-0.462608
C	-0.0732114152	 0.0546515961	-0.0125064078	 0.388562
O	-1.1916891911	-0.7467777577	-0.3324561246	-0.470661
C	 1.2750805545	-0.5531424376	-0.3576838262	-0.111917
C	 2.5097262836	 0.2788709004	-0.6983192865	-0.229732
C	 3.4067961943	 0.5250100783	 0.5262070066	-0.177832
C	 2.6101663321	 1.1439900342	 1.6801556757	-0.201562
C	 1.4896883088	 0.203594937	 2.1723220021	-0.225815
C	 0.7525294395	-0.5597848217	 1.0794449971	-0.0646
H	 0.4690781217	 2.1650462669	 0.1545413569	 0.122812
H	-0.6562887309	 1.7896799351	-1.1505838344	 0.104141
H	-1.2191524414	 1.7865043186	 0.5273593683	 0.125976
H	-1.3651449361	-0.6410064428	-1.2749117172	 0.273557
H	 1.1956929798	-1.503926253	-0.8758740397	 0.080629
H	 3.0821933506	-0.2348678179	-1.477354665	 0.094704
H	 2.2225938565	 1.2470015043	-1.1288209079	 0.094098
H	 3.84239679	-0.4279340113	 0.85587218	 0.093375
H	 4.2437478128	 1.1764396801	 0.2505588759	 0.087593
H	 3.2727692186	 1.374420718	 2.5216096223	 0.091648
H	 2.1963441092	 2.1057598867	 1.353336271	 0.098331
H	 1.9511792258	-0.546520687	 2.8268613688	 0.100288
H	 0.7823502655	 0.7564596965	 2.8030234754	 0.096921
H	 0.344582987	-1.5107923295	 1.4082587016	 0.092093
123.3179	161.7729	194.2776	229.4202	251.155	311.9713	332.1697	380.2298	414.8264	450.107	464.9397	518.6154	643.3698	704.4635	771.2191	786.5339	844.5555	857.9056	919.0935	933.8861	963.259	980.8785	990.4653	1047.2043	1060.6645	1077.4676	1105.9049	1142.8277	1145.4162	1147.6794	1200.7727	1223.7451	1279.8118	1287.5876	1301.9026	1330.4243	1339.9275	1366.1692	1370.1547	1377.5129	1385.193	1415.224	1453.0839	1479.5136	1482.7537	1489.1512	1496.7285	1504.5603	1509.7895	3014.4323	3016.9461	3019.9713	3022.8218	3028.159	3047.3347	3063.6168	3066.0064	3072.0855	3087.0368	3140.7186	3144.6191	3155.0984	3785.1796
CC1(O)C2CCCCC12	C[C@@]1(O)[C@H]2CCCC[C@@H]12	
InChI=1S/C8H14O/c1-8(9)6-4-2-3-5-7(6)8/h6-7,9H,2-5H2,1H3	InChI=1S/C8H14O/c1-8(9)6-4-2-3-5-7(6)8/h6-7,9H,2-5H2,1H3/t6-,7+,8+
