16
gdb 22628	2.54757	1.52331	1.20268	1.8706	68.83	-0.2438	-0.0012	0.2426	1047.3648	0.123686	-474.936212	-474.928289	-474.927345	-474.968497	30.626	
O	-0.0523684281	 1.3114799953	-0.0423665676	-0.390795
N	 0.0441043455	-0.0876348514	 0.0993091291	-0.304807
C	-1.089071785	-0.6345350608	 0.1638616873	 0.408712
C	-2.5832296879	-0.3690057598	 0.0065062209	-0.007421
C	-2.5674440095	-1.6019003945	-0.9391682166	-0.30436
C	-1.505465594	-2.1017607667	 0.1265174888	 0.268465
O	-0.6492520397	-3.1695508766	-0.0183374246	-0.470804
C	-2.4019153277	-2.1431480906	 1.3790399052	-0.101679
O	-3.1341591023	-0.904410927	 1.2241105495	-0.276219
H	 0.8735867008	 1.5778816574	-0.050433335	 0.307782
H	-3.0182724167	 0.5945713057	-0.2341929447	 0.112058
H	-3.5018683632	-2.1628554645	-1.0131804555	 0.114737
H	-2.1272168829	-1.3999668874	-1.9171054946	 0.115186
H	 0.0700642489	-2.9032312645	-0.6018731969	 0.29785
H	-3.0882707581	-2.9965742396	 1.3827250909	 0.112621
H	-1.8204106002	-2.133753245	 2.3066460838	 0.118673
113.2763	144.4971	253.4425	285.4853	308.3564	335.7798	375.225	421.9841	461.9788	583.8279	616.8569	668.2319	716.2429	786.5263	868.0634	895.5888	910.6081	935.9708	974.3533	1005.9718	1048.0211	1067.8907	1097.7065	1118.4651	1170.1776	1197.6839	1205.6532	1268.6956	1301.0137	1357.3077	1403.5518	1421.7555	1475.3236	1528.3452	1811.2205	3037.8527	3069.2431	3087.1353	3145.3556	3195.7678	3807.9838	3813.5638
ON=C1C2CC1(O)CO2	ON=C1[C@H]2C[C@]1(O)CO2	
InChI=1S/C5H7NO3/c7-5-1-3(9-2-5)4(5)6-8/h3,7-8H,1-2H2	InChI=1S/C5H7NO3/c7-5-1-3(9-2-5)4(5)6-8/h3,7-8H,1-2H2/t3-,5+/m1/s1
