13
gdb 25545	3.76653	1.17798	0.89734	6.7224	64.32	-0.2122	-0.0259	0.1864	1173.3027	0.090287	-489.955545	-489.948025	-489.94708	-489.988137	27.499	
O	-0.2027572172	-0.0313813301	 0.0033440788	-0.319212
C	-0.0696598455	 1.1744423588	 0.0111129526	 0.154677
N	 1.1282523899	 1.8380174723	 0.0046688775	-0.414007
C	 2.3853733238	 1.2435844848	-0.0119112787	 0.417371
C	 3.6120999482	 1.7916390169	-0.0195572801	-0.14355
O	 4.5533186124	 0.7792674582	-0.0362446528	-0.209971
C	 3.8977486892	-0.4403526288	-0.0391725339	 0.500078
O	 4.4434130291	-1.5065995254	-0.0524756183	-0.394528
N	 2.5522539748	-0.1332201065	-0.0239176483	-0.422551
H	-0.919744378	 1.8784876328	 0.0245248004	 0.106005
H	 1.1056623251	 2.8462235929	 0.0122807175	 0.272988
H	 3.968473677	 2.8054759871	-0.0152708784	 0.149627
H	 1.7891355712	-0.7921136229	-0.0215780463	 0.303071
67.4404	158.5066	175.44	257.8661	337.6892	398.4573	524.084	533.0772	566.9631	587.8826	634.4954	659.9268	754.487	767.2994	863.5761	910.2199	1011.9944	1018.6405	1097.8723	1145.4441	1166.7941	1264.5835	1321.8095	1429.5888	1472.5679	1509.9244	1726.955	1793.997	1905.921	2988.3561	3303.2097	3632.1426	3644.1445
O=CNC1=COC(=O)N1	O=CNc1coc(=O)[nH]1	
InChI=1S/C4H4N2O3/c7-2-5-3-1-9-4(8)6-3/h1-2H,(H,5,7)(H,6,8)	InChI=1S/C4H4N2O3/c7-2-5-3-1-9-4(8)6-3/h1-2H,(H,5,7)(H,6,8)
