13
gdb 28761	5.14699	0.9265	0.81757	2.8387	63.19	-0.2316	0.0008	0.2324	1311.7537	0.089303	-489.901493	-489.893727	-489.892783	-489.935462	27.415	
O	 0.0289897562	 1.3320535198	 0.2978143884	-0.394224
C	 0.0739371946	 0.0109186523	 0.1606039292	 0.490055
N	 1.0114074566	-0.7189637804	-0.3449978831	-0.375329
C	 0.5054709312	-2.0190883814	-0.2340949399	-0.20896
C	-0.7129988813	-1.9691626288	 0.3376239156	 0.365532
O	-1.6013088467	-2.885801847	 0.7534609649	-0.209388
C	-2.7071182591	-3.0917167627	-0.0406779413	 0.115427
N	-3.5930853816	-3.8849881202	 0.3548841276	-0.41355
O	-1.0134482902	-0.6403844245	 0.6062631244	-0.192523
H	 0.8599875799	 1.6768645366	-0.0546520407	 0.325712
H	 1.0567978247	-2.8834251449	-0.5645744924	 0.140584
H	-2.6652119491	-2.5151078679	-0.971090815	 0.112585
H	-4.3408033552	-3.9523969809	-0.3324828877	 0.244081
25.01	100.1729	122.5241	274.7648	344.1963	418.3883	445.8139	462.0713	527.1301	647.6244	726.8512	749.8985	811.6923	827.6759	848.4459	970.5937	1012.7717	1026.2447	1042.8799	1130.3778	1225.3759	1244.0793	1251.0618	1289.0369	1401.901	1491.394	1654.9569	1685.9818	1765.8572	3067.3009	3278.8235	3526.0557	3802.4881
OC1=NC=C(OC=N)O1	Oc1ncc(O[CH][NH])o1	
InChI=1S/C4H4N2O3/c5-2-8-3-1-6-4(7)9-3/h1-2,5H,(H,6,7)	InChI=1S/C4H4N2O3/c5-2-8-3-1-6-4(7)9-3/h1-2,5H,(H,6,7)
