23
gdb 107465	2.0728	1.56408	1.24365	1.0592	85.5	-0.2373	0.0713	0.3086	1180.3436	0.204047	-388.272809	-388.262976	-388.262032	-388.306925	38.238	
C	 0.0928624772	 1.5144912975	 0.3381943787	-0.37799
C	 0.0110064429	 0.0495490632	-0.1132391714	-0.292468
C	-1.3848822951	-0.5142231785	-0.0819955153	 0.370338
C	-2.0268915692	-1.0537674278	 1.1705955769	-0.343111
C	-1.8584263288	-1.9685275139	-0.009787441	-0.116405
C	-2.9641156571	-1.6950692588	-1.0331984956	-0.286512
C	-2.469852998	-0.2062356276	-1.1406710773	 0.346565
C	-3.4796679495	 0.903690672	-0.8719622343	-0.458308
O	-1.7911377906	 0.0316279743	-2.3689706877	-0.479471
H	 1.1285567306	 1.8691349698	 0.3341334563	 0.107201
H	-0.4810967525	 2.1632462172	-0.3309613199	 0.123186
H	-0.3037447525	 1.6408923735	 1.3512530471	 0.111072
H	 0.4063639205	-0.0409926317	-1.1302235049	 0.115955
H	 0.650483373	-0.5683876495	 0.530445087	 0.08757
H	-1.3362157036	-1.2164244575	 1.9926814064	 0.10871
H	-3.0194433258	-0.744007968	 1.4901778856	 0.099023
H	-1.260666294	-2.8707389878	 0.0450558702	 0.081397
H	-2.8107840575	-2.2061863639	-1.9859549057	 0.100119
H	-3.9920204622	-1.8615326395	-0.6904349884	 0.08389
H	-3.9790842086	 0.7772463587	 0.0922450818	 0.118037
H	-2.9889664959	 1.8814185843	-0.8837745156	 0.125592
H	-4.2601776287	 0.9050434569	-1.6443252369	 0.102463
H	-2.4571870848	 0.1276221568	-3.0582094259	 0.273147
63.9169	121.373	203.846	211.7548	227.4841	261.9839	286.9564	303.6374	354.5566	414.611	437.119	455.0303	485.6272	638.3354	658.7797	770.0088	816.1608	838.5484	856.3392	889.0254	938.1552	962.5105	976.3681	986.7742	1010.4642	1031.9265	1059.297	1089.3187	1097.3103	1102.6022	1151.898	1199.0078	1220.03	1235.7396	1257.0701	1267.5645	1309.7423	1354.941	1378.1663	1399.1893	1403.1289	1416.3368	1469.6199	1479.2931	1485.886	1491.9872	1499.14	1504.8261	1508.2531	3021.1875	3023.1603	3031.7446	3032.8092	3073.3477	3090.4221	3101.6543	3103.2788	3107.0694	3108.9707	3122.3631	3174.5026	3190.552	3803.7041
CCC12CC1CC2(C)O	CC[C@]12C[C@H]1C[C@]2(C)O	
InChI=1S/C8H14O/c1-3-8-5-6(8)4-7(8,2)9/h6,9H,3-5H2,1-2H3	InChI=1S/C8H14O/c1-3-8-5-6(8)4-7(8,2)9/h6,9H,3-5H2,1-2H3/t6-,7+,8+/m1/s1
