15
gdb 133264	3.11292	1.47592	1.00749	3.7966	77.19	-0.2033	-0.0333	0.17	1107.8951	0.11279	-458.090664	-458.082632	-458.081688	-458.123628	29.533	
C	 0.1363078685	 1.4608699212	 0.0067724229	-0.319105
N	 0.0391388992	 0.0109001776	 0.0042746278	-0.338968
C	-1.0855359509	-0.6068633555	 0.011104155	 0.187628
C	-1.1258168563	-2.0621210868	 0.0081804987	-0.172362
C	-2.2984956686	-2.7311145206	 0.0137581486	 0.030302
N	-3.4844288149	-2.0555012421	 0.0219069203	-0.240934
N	-3.5647625564	-0.7110461375	 0.0280239275	-0.236749
C	-2.460291754	-0.0580577881	 0.0227348294	 0.26437
F	-2.5995189824	 1.2647572912	 0.0284809804	-0.063342
H	 1.195909953	 1.7316558236	-0.0019960992	 0.112666
H	-0.3350757598	 1.9219321887	-0.8708124253	 0.116833
H	-0.3193121814	 1.9176745955	 0.8948417912	 0.116878
H	-0.1815526374	-2.5896666057	 0.0009807522	 0.123025
H	-2.3787999925	-3.8113493904	 0.0114052251	 0.137686
H	-4.373309496	-2.524243001	 0.0302212954	 0.282072
59.6754	119.5563	225.0563	244.2849	331.2623	343.8124	368.5045	454.5214	474.9724	568.5779	574.6091	609.4235	714.0231	756.8447	829.106	905.3287	953.95	1034.5089	1057.9288	1095.9035	1106.6874	1173.8589	1218.2501	1294.0934	1355.267	1423.9455	1433.9095	1487.2435	1506.2844	1522.3239	1646.3595	1660.0438	1694.5202	3001.5474	3055.3601	3089.8302	3208.5359	3233.2771	3675.9994
CN=C1C=CNN=C1F	C[N]C1=CCNN=C1F	
InChI=1S/C5H6FN3/c1-7-4-2-3-8-9-5(4)6/h2-3H,1H3,(H,7,8)	InChI=1S/C5H7FN3/c1-7-4-2-3-8-9-5(4)6/h2,8H,3H2,1H3
