20
gdb 57927	3.2766	0.87715	0.7794	5.659	78.09	-0.2395	-0.0197	0.2199	1556.4725	0.167825	-440.35685	-440.345963	-440.345019	-440.394269	37.599	
C	 0.1979828517	 1.3656394395	-0.3934092639	-0.383418
C	-0.0164079011	-0.0740763391	 0.0814382528	-0.097902
C	 0.6386465314	-0.3227404199	 1.4552926587	-0.38259
C	-1.5172189378	-0.3767610056	 0.1924396375	 0.430145
O	-2.3360424885	 0.4539219597	 0.4922436237	-0.313191
N	-1.8267251719	-1.7242323122	-0.0495035011	-0.385432
C	-3.0769716261	-2.3583338461	 0.0457355478	 0.410523
C	-3.0058024284	-3.8395786963	-0.2997559712	-0.501838
O	-4.0920917281	-1.7974084227	 0.3642433079	-0.291844
H	 1.2651321073	 1.6058590065	-0.4139070173	 0.108835
H	-0.2083558669	 1.518960321	-1.3972548108	 0.121013
H	-0.3089904836	 2.0612980532	 0.2791465239	 0.145873
H	 0.4326492502	-0.7640690145	-0.6459275103	 0.072483
H	 0.4984073022	-1.354300149	 1.7939126962	 0.112086
H	 1.7136250961	-0.1255928651	 1.4058188147	 0.122145
H	 0.2023205146	 0.3413325277	 2.2076217404	 0.142747
H	-1.0524322037	-2.3125795317	-0.3171020026	 0.249633
H	-2.3172899721	-4.3655068827	 0.3705975547	 0.140443
H	-4.0025055695	-4.2673216764	-0.2004159012	 0.158512
H	-2.6495495657	-3.9851422262	-1.3253660799	 0.141777
32.3326	49.939	94.1901	107.447	145.6705	206.5415	235.172	246.8616	290.8517	310.1263	372.3436	428.7967	560.2196	571.5897	623.7361	673.5971	759.8886	837.0281	903.128	930.9403	935.6093	973.5636	1021.682	1051.0242	1107.5877	1118.7125	1151.9879	1197.193	1225.2228	1322.758	1377.2918	1384.8282	1398.7659	1418.7772	1465.9636	1483.5258	1484.9185	1488.2831	1499.9995	1501.3132	1512.1405	1807.8975	1862.9961	3009.622	3036.7191	3039.8782	3046.3438	3102.2184	3106.3204	3113.7729	3116.8211	3134.3854	3166.8932	3621.142
CC(C)C(=O)NC(C)=O	CC(C)C(=O)NC(=O)C	
InChI=1S/C6H11NO2/c1-4(2)6(9)7-5(3)8/h4H,1-3H3,(H,7,8,9)	InChI=1S/C6H11NO2/c1-4(2)6(9)7-5(3)8/h4H,1-3H3,(H,7,8,9)
