19
gdb 50228	2.86553	1.54287	1.33777	2.7532	78.14	-0.2377	-0.0183	0.2195	1021.3092	0.159843	-385.841938	-385.834424	-385.83348	-385.874023	29.813	
O	-0.8309276314	 0.9555429806	-0.8854891022	-0.253098
C	 0.0576755278	 0.9824128564	-0.0694394552	 0.153051
C	 1.1900653246	 1.9668916858	-0.0452104148	-0.095603
C	 1.1945176854	 3.1784314002	-1.0235032167	-0.282975
C	 1.3952910159	 4.1451884624	 0.1859879705	-0.012073
C	 0.1676542836	 4.8009772893	 0.861258484	-0.052409
C	-1.0441781069	 3.9202355963	 0.8206517829	-0.304587
C	 0.0420075835	 3.5953913913	 1.8123434245	-0.065515
C	 1.2967492856	 2.9544646936	 1.180331236	-0.052722
H	 0.0893054488	 0.2378212756	 0.7608883967	 0.072378
H	 2.1140852462	 1.3775992855	-0.1050895393	 0.096259
H	 2.0268536184	 3.1700412446	-1.7301191505	 0.102005
H	 0.2674536247	 3.301211477	-1.5861699499	 0.125768
H	 2.2906576756	 4.7657639251	 0.1700923742	 0.07186
H	 0.0914510697	 5.857482365	 1.0900169778	 0.085117
H	-1.9290392062	 4.3577448059	 1.2734181997	 0.112661
H	-1.2673029156	 3.2814722722	-0.0256672106	 0.141381
H	-0.1630965804	 3.5861937949	 2.8763444391	 0.085969
H	 2.0953828307	 2.7551231284	 1.8945263237	 0.072532
86.7216	145.3173	184.7405	270.5587	324.4552	415.8708	540.6195	592.3808	669.7147	710.0291	738.8682	751.138	844.5231	866.3771	877.7334	906.8639	931.1063	958.5782	962.216	998.4879	1024.7908	1058.1406	1062.9318	1086.503	1096.6176	1102.1499	1110.5833	1149.8628	1187.2673	1196.7404	1212.016	1251.7662	1284.293	1303.8721	1314.0819	1341.3065	1365.5733	1422.0398	1481.4948	1507.5124	1815.0488	2852.841	3029.161	3075.1057	3104.2941	3114.1527	3130.1186	3135.8735	3170.8457	3181.1294	3218.6125
O=CC1CC2C3CC3C12	O=C[C@H]1C[C@H]2[C@H]3C[C@H]3[C@@H]12	
InChI=1S/C8H10O/c9-3-4-1-6-5-2-7(5)8(4)6/h3-8H,1-2H2	InChI=1S/C8H10O/c9-3-4-1-6-5-2-7(5)8(4)6/h3-8H,1-2H2/t4-,5-,6+,7-,8+/m1/s1
