18
gdb 90233	2.70047	1.72807	1.54144	2.0111	70.32	-0.2377	0.0355	0.2732	938.8856	0.148509	-438.983992	-438.976672	-438.975728	-439.015405	29.84	
O	 0.3432125566	 1.1733286174	-0.4978718256	-0.430563
C	 0.1575561669	-0.1268267661	-0.0292436954	 0.093012
C	 0.2824239379	-0.3391475871	 1.5452261121	-0.334735
C	-1.2224844728	-0.7033759047	 1.574735939	 0.368172
C	-2.3574469599	 0.3427609832	 1.7452547362	-0.243853
N	-2.279264056	 0.5952579004	 0.2592014741	-0.386897
C	-1.3528470515	-0.5392377479	 0.0872239378	 0.155276
C	-1.8098047123	-2.0125017407	 0.1004745473	-0.155994
O	-1.6167488394	-2.0913586521	 1.551707284	-0.331664
H	-0.5044235151	 1.6215338238	-0.3358460858	 0.282751
H	 0.7845038773	-0.802595569	-0.6192997511	 0.0843
H	 0.9354875257	-1.1594273768	 1.8497748054	 0.115578
H	 0.5612562202	 0.5702821159	 2.0830778436	 0.109764
H	-3.2896314259	-0.1177904347	 2.0887812672	 0.117315
H	-2.1485452102	 1.2352833883	 2.3436293459	 0.112875
H	-3.1490715872	 0.5825285442	-0.261929787	 0.228426
H	-2.8541161395	-2.1914469501	-0.1835968211	 0.10359
H	-1.1633569148	-2.7209830742	-0.4312665466	 0.112646
109.7973	244.1489	273.1501	311.0827	350.368	386.0571	443.7744	553.8868	562.3271	628.9941	709.0427	728.6189	774.8231	811.3733	870.4445	896.7166	905.0184	935.9927	947.7733	964.5705	1033.0384	1099.0769	1127.084	1140.8957	1149.3439	1174.1225	1197.5005	1225.1915	1239.9446	1249.9609	1260.5444	1309.461	1331.3866	1335.7297	1361.7968	1445.431	1455.79	1498.7246	1508.5557	3013.2215	3034.6457	3055.1831	3064.8802	3067.8777	3090.3688	3133.405	3530.1244	3646.7748
OC1CC23CNC12CO3	O[C@H]1C[C@@]23CN[C@@]12CO3	
InChI=1S/C6H9NO2/c8-4-1-5-2-7-6(4,5)3-9-5/h4,7-8H,1-3H2	InChI=1S/C6H9NO2/c8-4-1-5-2-7-6(4,5)3-9-5/h4,7-8H,1-3H2/t4-,5+,6-/m0/s1
