18
gdb 92073	2.93802	1.49954	1.08995	4.2106	71.71	-0.2537	0.0213	0.275	1095.4717	0.150234	-439.118288	-439.110683	-439.109738	-439.150272	30.401	
O	 0.0508637195	 1.4028755946	 0.1200492781	-0.443961
C	 0.007242098	 0.0061842028	 0.0506916354	 0.049821
C	-1.4334813142	-0.5314027982	 0.0313278562	-0.25972
C	-1.3935061397	-2.0530673575	-0.0314623245	-0.031136
C	-1.7499389698	-2.8084611523	-1.2892727248	-0.304084
C	-0.302162219	-2.6691156192	-0.874134803	 0.005569
N	 0.5458274117	-1.7520231059	-1.5761612835	-0.308261
C	 0.7340648863	-0.4543139144	-1.2190799184	 0.378121
O	 1.4034397697	 0.3333136336	-1.870316466	-0.398303
H	 0.6682416172	 1.6648531971	-0.584353988	 0.292299
H	 0.5299051137	-0.4417939248	 0.9141788737	 0.087761
H	-1.9635356677	-0.1885348566	 0.9237967743	 0.11802
H	-1.9539492106	-0.1023232767	-0.831170988	 0.113373
H	-1.5901563027	-2.564411102	 0.9048767811	 0.101211
H	-2.215638488	-3.7832436628	-1.1957686518	 0.119873
H	-2.072732916	-2.2267637112	-2.1462843538	 0.123514
H	 0.2043877813	-3.5512417488	-0.4924303833	 0.104765
H	 0.9635418106	-2.0298727677	-2.4537541035	 0.251141
110.7011	129.752	300.3132	323.4247	364.449	414.5779	452.7838	475.8311	505.8323	555.3189	598.1635	701.994	723.968	780.3428	825.8644	846.1663	885.4106	956.6892	1010.8312	1023.088	1061.0184	1084.9851	1113.6988	1125.6426	1159.9139	1164.3995	1215.3862	1240.7763	1283.3126	1293.8907	1338.6633	1377.6979	1395.9083	1414.7899	1453.3033	1469.1725	1484.8653	1501.6435	1778.8575	2947.9003	3052.5242	3098.7464	3133.0826	3137.4231	3163.7811	3224.6227	3590.1382	3653.4538
OC1CC2CC2NC1=O	O[C@H]1C[C@H]2C[C@H]2NC1=O	
InChI=1S/C6H9NO2/c8-5-2-3-1-4(3)7-6(5)9/h3-5,8H,1-2H2,(H,7,9)	InChI=1S/C6H9NO2/c8-5-2-3-1-4(3)7-6(5)9/h3-5,8H,1-2H2,(H,7,9)/t3-,4-,5+/m1/s1
