17
gdb 26491	3.75059	1.21761	1.03959	2.6432	74.62	-0.2155	0.0263	0.2418	1152.3721	0.137609	-418.02737	-418.019493	-418.018549	-418.060396	30.326	
O	 0.1967423741	 1.3322886185	 0.2958938694	-0.465083
C	 0.0159378551	-0.0536128957	 0.1002680151	 0.27327
C	-0.7646407683	-0.8174645306	 1.1383383568	-0.325149
C	-1.4167240034	-0.4343489014	-0.1722545806	-0.288538
C	 1.129126758	-0.6993124082	-0.6260414919	 0.253802
C	 1.7631835201	-1.9154378903	-0.5470116549	-0.186695
N	 2.7497928125	-2.0206655801	-1.5010501625	-0.258965
C	 2.724620943	-0.8787407143	-2.1493752008	 0.013256
N	 1.7612206921	-0.0462057091	-1.6659672973	-0.300664
H	 0.926071426	 1.4430868945	 0.9176932258	 0.284201
H	-0.5207793046	-1.8588671483	 1.3145780326	 0.125346
H	-1.0570871174	-0.259157721	 2.0202922802	 0.119421
H	-2.1380325069	 0.3747139255	-0.1547090844	 0.126145
H	-1.6025350799	-1.212301628	-0.9029360228	 0.125718
H	 1.5645396593	-2.7216058026	 0.1428195312	 0.105252
H	 3.3765735344	-0.5964480942	-2.9626759573	 0.128621
H	 1.5507791059	 0.8945252153	-1.9565477986	 0.270062
38.351	140.7511	180.1759	314.0399	330.536	386.4669	433.7306	514.5975	536.0383	576.772	687.1457	701.2805	772.9848	811.4143	844.9591	862.4325	912.3868	921.3449	935.3652	987.9332	1008.692	1056.9262	1079.4767	1103.075	1144.1572	1175.7874	1191.6796	1248.3598	1270.6242	1320.3001	1352.0879	1395.685	1426.2526	1448.518	1490.4404	1501.3961	1612.9653	3139.1632	3142.846	3225.4478	3240.6826	3246.8448	3250.9618	3661.6978	3780.5391
OC1(CC1)C1=CN=CN1	OC1(CC1)c1cnc[nH]1	
InChI=1S/C6H8N2O/c9-6(1-2-6)5-3-7-4-8-5/h3-4,9H,1-2H2,(H,7,8)	InChI=1S/C6H8N2O/c9-6(1-2-6)5-3-7-4-8-5/h3-4,9H,1-2H2,(H,7,8)
