21
gdb 65098	2.96742	1.42717	1.17183	1.7972	82.26	-0.2261	0.0766	0.3026	1136.7738	0.183474	-383.200724	-383.192284	-383.19134	-383.233635	33.361	
C	-0.0574786028	 1.5128091736	 0.0321487934	-0.487864
C	-0.0085252682	-0.0009124989	-0.0186612383	 0.202814
C	 1.1754596867	-0.6559763928	-0.6410708942	-0.276728
N	 0.9904087645	-0.6994827721	 0.8197029588	-0.344745
C	-1.3316665992	-0.696502691	-0.0815817	 0.356007
C	-2.5550267172	-0.1303385278	-0.6879551104	-0.293579
N	-2.5231311135	-0.2767560518	 0.7809351928	-0.174681
C	-2.7860572007	-1.7368146761	 1.0373222012	-0.149596
C	-1.5416817174	-2.1812527069	 0.2271810228	-0.325431
H	 0.9449417122	 1.9242143855	 0.1869373835	 0.107248
H	-0.4459259786	 1.9361524452	-0.8996967337	 0.124138
H	-0.7036670605	 1.8447417829	 0.8507170469	 0.148688
H	 1.073660319	-1.6159140293	-1.1404414529	 0.115897
H	 1.9476895094	-0.0129257377	-1.056435324	 0.109398
H	 1.597586915	-0.0195681597	 1.2705800493	 0.227963
H	-2.5462838499	 0.9062746193	-1.0076569584	 0.115063
H	-3.2148372647	-0.7731174083	-1.2696042111	 0.102977
H	-2.712810624	-1.9455848131	 2.1061410129	 0.112661
H	-3.7651599091	-2.0688798612	 0.6749601918	 0.09939
H	-1.698082734	-2.8395265378	-0.6326073433	 0.092592
H	-0.7482648271	-2.5837301221	 0.8561007629	 0.137787
62.4236	160.7799	198.6487	239.977	296.6773	310.564	382.8362	408.2166	465.4645	517.8802	570.6034	741.6839	776.2141	793.367	807.99	846.1181	875.432	930.5074	940.0248	967.973	974.0176	996.1255	1005.269	1053.6287	1081.058	1106.0736	1116.7626	1124.8085	1143.132	1185.5122	1209.8857	1222.2841	1264.5818	1268.3202	1296.5412	1320.716	1356.9795	1411.9416	1425.6071	1482.2712	1487.1416	1495.0007	1507.3067	1516.408	1518.1896	3033.837	3040.9992	3056.4297	3093.3638	3100.1264	3102.367	3109.6153	3111.9326	3143.657	3185.9046	3196.4988	3498.0227
CC1(CN1)C12CN1CC2	C[C@]1(CN1)[C@]12CN1CC2	
InChI=1S/C7H12N2/c1-6(4-8-6)7-2-3-9(7)5-7/h8H,2-5H2,1H3	InChI=1S/C7H12N2/c1-6(4-8-6)7-2-3-9(7)5-7/h8H,2-5H2,1H3/t6-,7-,9?/m0/s1
