21
gdb 108818	2.7868	1.15201	0.92463	3.7681	79.98	-0.2271	0.0253	0.2524	1340.5988	0.182995	-420.429299	-420.419788	-420.418844	-420.463552	35.731	
C	 0.2701366467	 1.5236634118	-0.2549018749	-0.403043
C	 0.0443595527	 0.0376878442	 0.0363279834	 0.007419
N	 0.5794868541	-0.8190065764	-1.0437533958	-0.349021
C	 1.8069105956	-1.2788578709	-0.5969310561	 0.338577
C	 2.8005445769	-1.9315483564	-1.5194479545	-0.132761
O	 3.9602486663	-2.3086415185	-0.8288691831	-0.421196
N	 2.0375481336	-1.1715994387	 0.6561686373	-0.329783
C	 0.8406870846	-0.54743277	 1.2544523811	 0.049813
C	 1.1987911037	 0.4234968368	 2.373879703	-0.399933
H	 1.3350603716	 1.7496823606	-0.3692460005	 0.129953
H	-0.2413136921	 1.8128838994	-1.1797586354	 0.111532
H	-0.1284249389	 2.1490467471	 0.549174309	 0.126593
H	-1.0272972646	-0.146766416	 0.1584679952	 0.083801
H	 0.5270482346	-0.4637387331	-1.9895864257	 0.234309
H	 2.3178602098	-2.8026341481	-1.9925796726	 0.112876
H	 3.0494119231	-1.2334405668	-2.3363239761	 0.099577
H	 3.7808799319	-2.0941743212	 0.1011053728	 0.293511
H	 0.2363935662	-1.3585030662	 1.686634203	 0.087918
H	 1.8340462741	 1.2371575392	 2.0136631982	 0.120871
H	 0.3010031678	 0.8571140541	 2.8266006495	 0.110336
H	 1.7499017423	-0.1087645309	 3.1535367923	 0.128652
72.3797	108.8719	150.0816	195.304	245.6386	270.0335	276.7918	363.7348	373.037	401.9593	470.5578	483.9946	585.9264	631.9097	701.7827	739.9661	762.2935	906.3469	934.7706	1002.7647	1010.5725	1035.8737	1042.2373	1100.1895	1114.6836	1124.9706	1149.091	1159.9023	1238.8291	1252.5164	1286.7355	1316.483	1336.5404	1366.0135	1381.9897	1407.2876	1411.6371	1446.9271	1484.5672	1488.989	1499.2272	1501.8952	1507.6557	1511.1942	1707.0633	2966.7778	2980.6477	2988.9646	3033.2457	3042.7964	3054.1764	3099.5579	3112.0215	3118.1417	3123.8836	3573.9583	3669.9705
CC1NC(CO)=NC1C	C[C@H]1N[C](CO)[N][C@H]1C	
InChI=1S/C6H12N2O/c1-4-5(2)8-6(3-9)7-4/h4-5,9H,3H2,1-2H3,(H,7,8)	InChI=1S/C6H12N2O/c1-4-5(2)8-6(3-9)7-4/h4-5,9H,3H2,1-2H3,(H,7,8)/t4-,5+
