15
gdb 12460	3.7189	1.96982	1.35144	1.8258	64.01	-0.2422	-0.0009	0.2413	868.1287	0.122761	-396.030941	-396.024023	-396.023079	-396.062351	25.757	
O	-0.0012397275	-0.1521426188	-0.0027749399	-0.396305
C	-0.0423881694	 1.0637171033	-0.0225402309	 0.442764
N	-1.1659762803	 1.782546071	 0.2609567911	-0.331124
C	-1.4170368415	 3.1683239111	-0.1020738388	-0.191537
C	-0.4882663103	 4.1565309872	 0.609476983	-0.14192
N	 0.8968727882	 4.15957475	 0.1849312523	-0.2432
C	 1.5039718935	 3.1194408413	-0.2045439807	 0.10274
N	 1.1143758481	 1.7890383472	-0.3494374943	-0.352312
H	-1.9606898447	 1.1836806616	 0.4196201594	 0.258436
H	-1.3423638915	 3.3171755593	-1.1884665255	 0.123334
H	-2.4494835974	 3.3875444642	 0.1834063995	 0.119427
H	-0.8799030117	 5.1685691117	 0.4501622249	 0.110416
H	-0.5359026815	 3.970972813	 1.6910026408	 0.120487
H	 2.5492048803	 3.2318295542	-0.5005550453	 0.116351
H	 1.8542334256	 1.1498784136	-0.6019305855	 0.262443
92.0463	114.6225	264.3794	344.032	402.0581	483.8272	504.0958	532.9664	638.6513	659.3337	763.3056	768.8632	853.6952	922.4454	945.7546	963.2757	1009.3413	1094.1203	1131.6252	1186.0279	1259.7856	1293.3103	1346.9627	1377.9217	1427.4735	1455.336	1464.5627	1481.9644	1486.2512	1506.141	1768.3579	1808.5834	3007.854	3017.9465	3052.8314	3092.68	3105.7757	3615.8975	3641.7629
O=C1NCCN=CN1	O=C1NCCN=CN1	
InChI=1S/C4H7N3O/c8-4-6-2-1-5-3-7-4/h3H,1-2H2,(H2,5,6,7,8)	InChI=1S/C4H7N3O/c8-4-6-2-1-5-3-7-4/h3H,1-2H2,(H2,5,6,7,8)
