17
gdb 109855	2.59442	1.05984	0.92722	3.1352	65.46	-0.2651	-0.0152	0.25	1290.6849	0.133815	-496.082744	-496.073279	-496.072335	-496.118032	33.214	
O	 0.2307056589	 0.9521472429	-0.3119368819	-0.422401
C	-0.0542824819	-0.2090152386	 0.4436338218	-0.090788
C	-1.4877389901	-0.6753981962	 0.2373725664	-0.116742
C	-1.8843970126	-1.10940788	-1.1588373385	 0.075118
O	-0.8834268417	-1.1311237237	-2.1365400895	-0.428377
C	-1.8320785341	-2.1264546902	-0.0580342661	 0.013265
O	-0.8035948791	-3.0822637744	-0.2293259555	-0.20521
C	-0.3092597983	-3.6702578526	 0.8899931755	 0.179477
O	 0.5301815398	-4.5138896499	 0.8440997425	-0.259029
H	 0.1506837998	 0.6871464983	-1.2368004949	 0.296316
H	 0.6477646917	-1.0189755661	 0.206071566	 0.09941
H	 0.1017310738	 0.0569292517	 1.4937159381	 0.114809
H	-2.2410810884	-0.1306865949	 0.7988815247	 0.105087
H	-2.855311274	-0.8213294636	-1.5516669281	 0.112782
H	-0.4801582239	-2.0084382093	-2.1340532494	 0.310081
H	-2.7551318029	-2.5503235715	 0.3260674557	 0.120842
H	-0.7745177369	-3.2795661119	 1.8131471732	 0.09536
49.191	90.6296	119.6545	132.9561	174.1931	257.292	269.4329	310.5454	358.1399	516.5035	524.8848	594.4027	641.2065	702.9616	789.7188	800.5203	908.7865	974.3051	1039.2986	1047.9432	1072.6508	1084.0064	1123.2031	1124.5562	1154.4235	1161.2778	1235.2699	1246.997	1334.3288	1353.2076	1365.3155	1409.8788	1416.3969	1438.1292	1440.8524	1506.1614	1875.2113	2980.6185	3017.2534	3079.5462	3144.1453	3148.2681	3162.031	3777.4114	3784.0903
OCC1C(O)C1OC=O	OC[C@H]1[C@@H](O)[C@H]1OC=O	
InChI=1S/C5H8O4/c6-1-3-4(8)5(3)9-2-7/h2-6,8H,1H2	InChI=1S/C5H8O4/c6-1-3-4(8)5(3)9-2-7/h2-6,8H,1H2/t3-,4+,5-/m0/s1
