19
gdb 104227	2.69277	1.29163	1.1768	3.8652	71.6	-0.2532	0.0531	0.3063	1139.0982	0.157172	-460.117246	-460.1081	-460.107156	-460.151076	34.548	
O	-0.1151361858	 1.4386277638	-0.2603106956	-0.434547
C	-0.0038864221	 0.0176821443	-0.296510809	-0.140873
C	-1.3816171905	-0.5265750699	 0.0711494761	 0.353261
O	-1.7648389829	-0.0425912612	 1.3281341022	-0.479602
C	-2.4190576653	-0.4183101331	-1.0975970321	-0.288065
C	-2.2119066692	-1.931636078	-1.4090194424	-0.31583
C	-1.469861414	-2.0595620316	-0.0749219894	 0.398269
C	-0.6373401102	-3.1219962979	 0.4941810197	-0.274656
O	-1.9648037873	-2.8704609983	 0.9711438612	-0.258398
H	 0.7676288268	 1.8185671606	-0.2676095365	 0.295822
H	 0.3043030941	-0.3354574194	-1.291647624	 0.091883
H	 0.7295281365	-0.3386984915	 0.4408189008	 0.096923
H	-1.4969203118	 0.885975287	 1.3427205277	 0.284791
H	-3.4129238341	-0.2134679745	-0.6959517425	 0.117458
H	-2.1905417746	 0.2967973624	-1.8899124493	 0.103631
H	-3.1136532481	-2.5419309134	-1.4862524948	 0.119838
H	-1.5781760733	-2.1228908855	-2.2796838952	 0.104732
H	-0.5033955268	-4.0545070417	-0.0536283906	 0.111992
H	 0.1595251486	-2.8759389919	 1.1954200837	 0.11337
66.229	118.3612	151.3746	231.4724	254.981	272.0244	321.8808	353.9505	417.4787	446.3103	460.651	540.2958	599.2208	729.0004	744.2044	852.8506	875.7573	901.5997	920.5464	951.051	985.3514	1031.8273	1066.6998	1104.1062	1125.0576	1145.8465	1158.6998	1167.2213	1207.9993	1215.3949	1233.5203	1251.9186	1262.3738	1300.3361	1386.2196	1437.9835	1447.066	1468.0139	1490.5167	1506.8632	1534.2746	2987.1892	3029.0401	3061.125	3075.6072	3077.611	3117.8162	3139.981	3160.7229	3763.0666	3841.6631
OCC1(O)CCC11CO1	OC[C@@]1(O)CC[C@]21CO2	
InChI=1S/C6H10O3/c7-3-5(8)1-2-6(5)4-9-6/h7-8H,1-4H2	InChI=1S/C6H10O3/c7-3-5(8)1-2-6(5)4-9-6/h7-8H,1-4H2/t5-,6+/m0/s1
