18
gdb 122778	5.75504	0.50987	0.47383	3.8543	74.77	-0.2744	-0.0852	0.1892	2170.2272	0.144868	-439.102719	-439.092284	-439.09134	-439.139766	35.128	
O	-0.1360272648	 1.49117459	 0.0115851441	-0.420314
C	 0.0113492778	 0.0803960304	 0.0025182777	-0.074847
C	-1.383762615	-0.5316361478	 0.0123143914	-0.177889
C	-1.3565167207	-2.0622503424	 0.0036303819	-0.196564
C	-2.7609084531	-2.6653176781	 0.0135167947	-0.308754
C	-2.767749629	-4.1750388964	 0.0052824189	 0.285774
O	-1.790710248	-4.8797555734	-0.0076398372	-0.26229
C	-4.1191174007	-4.7854214503	 0.0152822419	 0.228585
N	-5.178995914	-5.2476318208	 0.0232717822	-0.294183
H	 0.7402089171	 1.8871350251	 0.0058557124	 0.288092
H	 0.5594753905	-0.2600321348	-0.8913820008	 0.088268
H	 0.5761719577	-0.2696925925	 0.8821765843	 0.08827
H	-1.9164460585	-0.1646204454	 0.8982805972	 0.109659
H	-1.9330194185	-0.1549501848	-0.8593592659	 0.109662
H	-0.8176575646	-2.4281037539	-0.8778625605	 0.119596
H	-0.8012079631	-2.4377349506	 0.8707494577	 0.119597
H	-3.3372652107	-2.3383987045	 0.8912681987	 0.148675
H	-3.3535678225	-2.3288964098	-0.8496734287	 0.148662
53.2171	58.1987	77.2232	126.0829	138.0072	164.8348	233.236	267.1782	276.1018	335.6027	432.1847	516.4837	571.6762	610.5052	742.1962	807.5407	823.7558	927.749	1003.413	1034.3048	1063.6	1074.659	1108.3052	1115.7981	1200.9498	1232.7494	1271.4337	1295.2905	1319.0367	1323.7245	1361.4447	1403.5741	1440.9875	1465.7865	1488.2097	1503.3064	1529.7749	1799.5559	2336.9245	2960.4588	2985.8804	3013.6746	3028.5955	3039.1668	3044.1718	3063.1849	3088.6444	3831.1584
OCCCCC(=O)C#N	OCCCCC(=O)C#N	
InChI=1S/C6H9NO2/c7-5-6(9)3-1-2-4-8/h8H,1-4H2	InChI=1S/C6H9NO2/c7-5-6(9)3-1-2-4-8/h8H,1-4H2
