20
gdb 115146	3.12005	1.12409	0.91206	3.6851	76.07	-0.2526	0.0303	0.2829	1300.3613	0.171678	-440.303445	-440.294241	-440.293296	-440.337517	34.131	
C	 0.066666108	 1.6501340303	 0.199057965	-0.403879
C	 0.0081498993	 0.124835102	 0.0006874337	-0.115301
C	 0.8091959508	-0.4339403806	-1.1971610048	 0.005621
C	 0.8825093158	 0.4268599948	-2.4470839487	-0.114675
O	 1.6571219499	-0.2924108265	-3.3978658585	-0.424018
C	 2.1784489066	-0.7195097983	-0.5630921273	-0.089118
O	 1.898711385	-1.0539302421	 0.8064271248	-0.240931
C	 0.6734734522	-0.5766551342	 1.1744572655	 0.409255
N	 0.1764996454	-0.6860861685	 2.3301901716	-0.546216
H	 1.0969274046	 2.0171440354	 0.2561115356	 0.119938
H	-0.4379674883	 2.1772476777	-0.6162588019	 0.115688
H	-0.4308733321	 1.9086205883	 1.1367340279	 0.145924
H	-1.0404373039	-0.1779801031	-0.0417415883	 0.105174
H	 0.3681251127	-1.3948405714	-1.4868209899	 0.097988
H	-0.1327362804	 0.6257822443	-2.8252446903	 0.094684
H	 1.3453408428	 1.3980538365	-2.215862239	 0.092441
H	 1.7487506039	 0.2489339858	-4.1872684622	 0.290719
H	 2.7048935882	-1.5591261151	-1.0180313493	 0.131647
H	 2.8341772008	 0.1611665061	-0.5922826166	 0.105713
H	 0.8244976686	-1.1686089814	 2.9554781028	 0.219346
72.7504	114.4043	170.8756	179.2385	244.336	267.8131	275.8951	300.435	364.2423	456.0521	490.1886	661.8791	679.1339	685.1189	794.5028	843.0606	892.9959	911.2668	975.2683	1013.8052	1028.2222	1057.3348	1074.9609	1089.4511	1119.1368	1134.4377	1167.8087	1218.9379	1248.1093	1259.7146	1282.881	1298.5379	1328.5373	1353.7593	1376.0043	1403.34	1415.9376	1462.4686	1496.4841	1502.4879	1520.4566	1528.5393	1773.4299	2973.3341	3005.6626	3017.3488	3038.503	3045.3414	3083.1539	3107.4824	3124.4813	3126.6479	3469.4081	3832.4561
CC1C(CO)COC1=N	C[C@H]1[C@@H](CO)CO[C]1[NH]	
InChI=1S/C6H11NO2/c1-4-5(2-8)3-9-6(4)7/h4-5,7-8H,2-3H2,1H3	InChI=1S/C6H11NO2/c1-4-5(2-8)3-9-6(4)7/h4-5,7-8H,2-3H2,1H3/t4-,5-/m0/s1
