19
gdb 38597	3.10248	2.10282	1.78065	1.7912	76.06	-0.2374	0.0804	0.3178	844.3141	0.164282	-385.867591	-385.861961	-385.861017	-385.897188	25.45	
C	-0.0431633936	 1.5111984203	 0.0663674465	-0.247997
C	 1.5058491677	 1.5216026491	-0.0001890671	-0.039735
C	 2.0768270511	 1.3291651847	 1.41993112	-0.247688
C	 1.8307775466	-0.1502666257	 1.6722732358	-0.032338
C	 0.4413864805	-0.7692981456	 1.2847973537	 0.044087
O	 1.1463999434	-1.916547148	 0.7149859382	-0.301723
C	 2.1659131845	-0.9307927435	 0.3847547018	 0.076855
C	 1.4663501723	 0.0555074284	-0.5933443108	-0.050842
C	 0.0170659666	-0.0286060702	-0.003867564	-0.009228
H	-0.5100450696	 1.9751754101	 0.9425459937	 0.087197
H	-0.5014583651	 1.9275528758	-0.8348908133	 0.099007
H	 1.9835371392	 2.3211470914	-0.5683094468	 0.062009
H	 3.1562354028	 1.5231360256	 1.4502145017	 0.09698
H	 1.6046687257	 1.9971584851	 2.1482811579	 0.097821
H	 2.2340438595	-0.5829650433	 2.5872718713	 0.076591
H	-0.3198510056	-1.037715855	 2.0179989134	 0.074057
H	 3.1411122981	-1.3548308546	 0.1465285965	 0.075138
H	 1.6109016533	-0.0770212524	-1.663113119	 0.06707
H	-0.7635900574	-0.5722203321	-0.5373615294	 0.072737
275.3219	382.9806	410.8972	504.3815	580.9856	640.8221	670.9698	768.2814	828.4895	833.5211	848.4906	866.3784	890.3718	893.711	897.7686	926.9207	944.1799	964.6075	997.6778	1017.2412	1035.9174	1062.0932	1069.9185	1078.6736	1110.9022	1156.7243	1178.4764	1200.2325	1224.0353	1238.791	1245.369	1249.8384	1271.3201	1285.5193	1302.6935	1306.6162	1328.574	1347.5037	1369.7246	1484.6868	1496.6784	3027.0346	3034.1204	3071.1988	3087.665	3095.5955	3100.9328	3114.5152	3119.2171	3128.8318	3143.8974
C1C2CC3C4OC3C2C14	C1[C@H]2C[C@H]3[C@@H]4O[C@H]3[C@H]2[C@H]14	
InChI=1S/C8H10O/c1-3-2-5-7-4(1)6(3)8(5)9-7/h3-8H,1-2H2	InChI=1S/C8H10O/c1-3-2-5-7-4(1)6(3)8(5)9-7/h3-8H,1-2H2/t3-,4-,5-,6+,7+,8+/m0/s1
