21
gdb 38422	3.61142	1.2302	1.22818	2.0603	80.48	-0.2427	0.0686	0.3113	1123.5649	0.184874	-387.068754	-387.061075	-387.060131	-387.101159	30.663	
C	-0.0099696504	 1.4406154315	 0.870800637	-0.293897
C	 1.1567806511	 0.9964990163	 0.0216554974	-0.025164
C	 2.2491616227	 0.1815542797	 0.6954626006	-0.292415
C	 1.5097771457	-0.8939376896	 1.520639459	 0.28787
C	 2.3180929936	-2.1318381918	 1.9683082066	-0.136305
O	 2.1490112262	-1.816278152	 3.3635487827	-0.275892
C	 1.3833377045	-0.6396771128	 3.0481044263	-0.115105
C	 0.1973016816	-1.1402811875	 0.745422272	-0.292421
C	-0.1166555139	 0.1761418309	 0.0526715677	-0.025177
H	 0.0569810586	 1.3776328644	 1.9520866781	 0.116487
H	-0.5720184543	 2.2998753241	 0.5214264731	 0.109339
H	 1.4183096933	 1.5959548632	-0.8431504111	 0.081368
H	 2.8630983037	-0.3055332191	-0.0738481589	 0.098522
H	 2.9284661027	 0.7778386604	 1.3152037632	 0.101195
H	 1.8742057948	-3.1027082259	 1.7093485903	 0.094754
H	 3.3760176912	-2.1354428665	 1.6725590491	 0.094757
H	 1.865986956	 0.2752226791	 3.4175787797	 0.095498
H	 0.3641837015	-0.692190203	 3.4544106412	 0.095498
H	 0.3607987524	-1.9175644117	-0.0129408434	 0.098525
H	-0.6045303331	-1.4982454372	 1.4011733399	 0.101195
H	-0.7999751478	 0.1669209374	-0.7891264804	 0.081369
67.3757	120.1692	225.0501	304.1673	368.0796	382.8423	407.2969	473.1519	618.8411	751.5036	774.6003	826.8825	856.0675	866.1181	877.3655	903.7967	937.2406	959.7227	969.1682	996.0282	1034.427	1046.2246	1060.6497	1064.6824	1078.0781	1105.7926	1140.1429	1156.1855	1161.8363	1167.9754	1184.7378	1207.0017	1251.0971	1284.1717	1309.3218	1314.2172	1334.5888	1346.1199	1385.7331	1400.5936	1484.2449	1488.7442	1498.3668	1514.4409	1538.2165	2989.7015	3001.5807	3014.1265	3020.3394	3036.7856	3038.312	3060.8219	3061.1141	3131.9722	3165.331	3174.0232	3213.0936
C1C2CC3(COC3)CC12	C1[C@H]2CC3(COC3)C[C@@H]12	
InChI=1S/C8H12O/c1-6-2-8(3-7(1)6)4-9-5-8/h6-7H,1-5H2	InChI=1S/C8H12O/c1-6-2-8(3-7(1)6)4-9-5-8/h6-7H,1-5H2/t6-,7+
