18
gdb 99409	2.1305	1.18537	0.81509	2.9065	85.96	-0.2256	-0.037	0.1886	1422.7086	0.146773	-398.127387	-398.117665	-398.116721	-398.16257	34.404	
C	 0.090655404	 1.4240395695	 0.0456733464	-0.316102
N	 0.0428606493	-0.0234502986	-0.0386981975	-0.339081
C	 0.6124353489	-0.6667450886	-1.1116826826	 0.304988
N	 1.3314479601	-0.054307569	-1.9704105855	-0.305663
C	 1.9790375301	-0.747410611	-3.0226031339	 0.050788
C	 2.1365344614	-0.0058686675	-4.3333380643	-0.270433
C	 3.3344637523	-0.2261542832	-3.4543388582	-0.271642
C	 0.3429813253	-2.0981946046	-1.1395865338	 0.23384
N	 0.1276003423	-3.233548408	-1.1877706991	-0.341828
H	 1.1309157275	 1.7584104756	 0.0504975742	 0.152234
H	-0.4096803453	 1.9093999145	-0.8026352731	 0.132332
H	-0.3887877036	 1.7344562278	 0.9758463296	 0.12695
H	-0.7328955538	-0.4917191191	 0.400214223	 0.259926
H	 1.829154231	-1.8247997478	-3.0864493981	 0.104869
H	 2.044624162	-0.5808499387	-5.2478744164	 0.117695
H	 1.7181024148	 0.9925981686	-4.3739130091	 0.12154
H	 3.7189764971	 0.6243464635	-2.9044160724	 0.121694
H	 4.0790096065	-0.9547830937	-3.7546103593	 0.117894
69.7316	108.7318	119.1063	134.953	153.4528	176.773	297.5887	354.4634	382.8432	390.3947	453.0719	530.4227	625.8732	712.6988	751.2701	801.7688	820.0901	899.9189	925.0211	1004.9605	1055.0059	1070.4955	1074.5972	1121.03	1150.3877	1171.1714	1198.8339	1217.2897	1235.6955	1283.4582	1414.1208	1455.2856	1456.1054	1472.0866	1492.8693	1504.149	1534.719	1705.8605	2341.1475	3019.0245	3096.5273	3105.0018	3140.2532	3140.5643	3144.1918	3226.3012	3240.4777	3646.164
CNC(=NC1CC1)C#N	CNC(=NC1CC1)C#N	
InChI=1S/C6H9N3/c1-8-6(4-7)9-5-2-3-5/h5H,2-3H2,1H3,(H,8,9)	InChI=1S/C6H9N3/c1-8-6(4-7)9-5-2-3-5/h5H,2-3H2,1H3,(H,8,9)
