16
gdb 83151	2.21512	1.80589	1.39805	3.3767	64.87	-0.2276	-0.0288	0.1988	968.0839	0.12392	-475.005802	-474.997627	-474.996683	-475.038376	31.173	
O	 0.126704925	 1.3844103606	-0.0469283276	-0.426801
C	 0.0095150729	-0.0011300041	-0.034098067	 0.047659
C	-0.4438524081	-0.6918144158	 1.2107339066	-0.16101
N	-1.0053999727	 0.2507587237	 2.1811736329	-0.332554
C	-2.2712616927	 0.7907421744	 1.6344221898	-0.295977
C	-2.5468730609	 0.0339278799	 0.3382036852	 0.362479
O	-3.5949737987	-0.0417272003	-0.2625375892	-0.353173
C	-1.3364114613	-0.7340789511	-0.0364487895	 0.269597
O	-1.5247054522	-1.819954996	-0.8698549607	-0.473281
H	 0.2351159579	 1.6496663773	 0.8777365639	 0.301204
H	 0.7415616907	-0.5246734917	-0.6463615522	 0.12191
H	 0.0779405567	-1.5549154309	 1.6069265611	 0.116305
H	-1.1799937537	-0.2275132905	 3.0552965078	 0.240153
H	-3.106766015	 0.6568323488	 2.326223248	 0.141258
H	-2.1896837458	 1.8612554434	 1.4103679653	 0.145214
H	-2.4183523119	-1.7078318577	-1.2301165143	 0.297017
93.0376	141.1863	204.8189	247.6485	286.0988	346.4606	380.5432	430.718	480.4918	586.819	609.4142	633.8971	647.4296	704.4929	781.8804	840.8334	918.1303	925.5681	972.0162	1002.5477	1049.376	1075.6744	1108.1638	1146.2626	1198.2954	1216.7502	1278.4351	1320.4701	1345.0757	1380.9455	1403.3438	1411.3073	1465.9384	1480.064	1814.4074	3039.0229	3101.4235	3132.296	3186.8551	3567.6077	3707.7687	3730.9801
OC1C2NCC(=O)C12O	O[C@H]1[C@H]2NCC(=O)[C@@]12O	
InChI=1S/C5H7NO3/c7-2-1-6-3-4(8)5(2,3)9/h3-4,6,8-9H,1H2	InChI=1S/C5H7NO3/c7-2-1-6-3-4(8)5(2,3)9/h3-4,6,8-9H,1H2/t3-,4+,5+/m1/s1
