23
gdb 73535	2.395	1.85198	1.52915	0.2537	88.95	-0.252	0.0832	0.3352	1025.4748	0.208435	-351.100853	-351.093077	-351.092132	-351.132561	32.866	
C	-0.1218170875	 1.5564649458	-0.1230741615	-0.48373
C	-0.0284407181	 0.0319625832	-0.0414324462	 0.389282
C	-1.4420753755	-0.5650855432	 0.1802552022	-0.322868
C	-1.481591573	-0.9433796845	 1.7151745203	-0.190773
C	-0.0599070947	-0.6823065951	 2.334272863	-0.359711
C	 0.7838215823	-0.6652123682	 1.0846554915	 0.337268
C	 2.0988210436	-0.1384721049	 0.4383248632	-0.329647
C	 1.1997063603	-0.6651084952	-0.7483641753	-0.125131
C	 0.9433760085	-1.9056566353	 0.1362876917	-0.259264
H	 0.8425503192	 2.0600557171	-0.2107270329	 0.112666
H	-0.7129338791	 1.8376977287	-1.0025796708	 0.114439
H	-0.638168829	 1.9719830519	 0.7511769398	 0.111617
H	-2.2150349052	 0.1694188907	-0.0598007672	 0.090241
H	-1.65394666	-1.441462617	-0.4355678754	 0.103402
H	-2.2486627272	-0.3732035848	 2.2463351241	 0.098224
H	-1.745126897	-1.9984308871	 1.83128932	 0.102573
H	-0.0275409362	 0.2882380261	 2.8421530095	 0.099865
H	 0.2149695353	-1.4477183515	 3.065805553	 0.095884
H	 2.307375677	 0.929119457	 0.4976389181	 0.093194
H	 3.0051622779	-0.7192521503	 0.6293357012	 0.087761
H	 1.4656049822	-0.6539400144	-1.8082282482	 0.061846
H	 1.8095663707	-2.5417680859	 0.337706787	 0.08236
H	 0.0646073056	-2.5122771631	-0.079335777	 0.090501
108.452	197.5902	202.4214	308.1261	373.5303	399.2373	449.418	525.992	561.2369	606.9664	673.0439	729.0139	765.3551	792.2707	800.7063	855.6346	877.756	888.1965	944.3779	950.1144	954.1387	977.4936	998.7723	1010.8674	1043.7162	1067.3205	1094.4301	1126.193	1143.0656	1156.3467	1181.1862	1195.3749	1203.0076	1225.1733	1227.0024	1247.1433	1270.3757	1280.2131	1309.8191	1318.5225	1346.1669	1409.8619	1482.4744	1483.8693	1493.9273	1498.5613	1507.5695	1522.553	1555.5354	3023.4353	3038.9551	3055.381	3061.9729	3063.5965	3068.7201	3074.5312	3080.032	3082.9079	3093.0892	3109.8077	3118.444	3139.4602	3142.0937
CC12CCCC11CC2C1	C[C@]12CCC[C@@]31C[C@H]2C3	
InChI=1S/C9H14/c1-8-3-2-4-9(8)5-7(8)6-9/h7H,2-6H2,1H3	InChI=1S/C9H14/c1-8-3-2-4-9(8)5-7(8)6-9/h7H,2-6H2,1H3/t7-,8-,9+/m1/s1
