23
gdb 41791	2.13762	1.92556	1.42028	0.2987	89.05	-0.2339	0.0324	0.2663	1059.2127	0.210436	-351.186272	-351.178496	-351.177552	-351.218772	31.68	
C	-0.0391895383	 1.5763880882	-0.2460442429	-0.208013
C	 1.4441507909	 2.0365267805	-0.2558973494	-0.208004
C	 2.3048992676	 0.7680923424	-0.0084086845	 0.015301
C	 1.3828528529	-0.3903634313	-0.4330131714	-0.228762
C	-0.0279028559	 0.0443458412	 0.0066542512	 0.015317
C	-0.3592267817	-0.3243570812	 1.460787281	-0.262509
C	 0.5185193856	 0.2049266901	 2.5668349715	-0.045294
C	 1.7934861098	 0.6005682375	 2.5586194406	-0.045288
C	 2.8036449602	 0.6570794291	 1.4404375645	-0.262502
H	-0.6253958621	 2.0987505315	 0.5156811819	 0.095739
H	-0.5108257586	 1.7942202502	-1.2091688077	 0.090728
H	 1.6980795285	 2.47902159	-1.2240006906	 0.09073
H	 1.6409676788	 2.8020842705	 0.5003523349	 0.095725
H	 3.1998191535	 0.7894514974	-0.6399739841	 0.060598
H	 1.4084119835	-0.4954419322	-1.5243028768	 0.087775
H	 1.6848302399	-1.3548798574	-0.0097996226	 0.088221
H	-0.7851012015	-0.4467651044	-0.6143693357	 0.060598
H	-1.3890769967	-0.0016712805	 1.6661775852	 0.097509
H	-0.3871984152	-1.4225089296	 1.5475844938	 0.103811
H	 0.0210991267	 0.219883044	 3.5362666771	 0.078497
H	 2.2064175838	 0.8980154674	 3.5221868489	 0.0785
H	 3.4493508362	-0.2320259741	 1.5229799049	 0.103814
H	 3.472259552	 1.5068077408	 1.6349099901	 0.097508
52.754	116.1108	275.202	316.8988	359.3692	369.2062	427.6452	485.2409	673.3256	680.7677	717.0523	771.2066	780.303	811.0938	835.826	863.8909	882.8537	923.3755	944.2297	955.9524	1008.924	1009.7124	1022.1684	1044.0306	1068.6243	1106.5108	1111.6767	1182.2235	1191.2799	1207.9077	1229.6498	1249.8304	1267.0363	1278.5344	1294.5072	1321.9598	1348.2847	1358.5566	1361.4551	1365.9331	1393.0334	1409.8327	1440.1019	1468.2137	1471.0748	1485.3566	1487.9969	1508.7049	1734.2136	2981.4941	2981.5985	3020.1472	3021.4661	3024.4172	3032.4716	3040.6912	3046.3878	3059.8349	3070.3995	3075.2021	3097.7575	3111.6671	3137.5008
C1CC2CC1CC=CC2	C1C[C@@H]2C[C@H]1CC=CC2	
InChI=1S/C9H14/c1-2-4-9-6-5-8(3-1)7-9/h1-2,8-9H,3-7H2	InChI=1S/C9H14/c1-2-4-9-6-5-8(3-1)7-9/h1-2,8-9H,3-7H2/t8-,9+
