18
gdb 114378	2.12661	1.82054	1.25179	4.148	72.76	-0.2432	-0.0488	0.1944	1043.5813	0.147203	-439.025549	-439.017103	-439.016159	-439.058939	31.375	
O	 0.892894942	-0.7597229095	-1.1863232933	-0.417907
C	 0.209762317	-0.4695846453	 0.0109291126	-0.088821
C	-1.3176809614	-0.5020654648	-0.1470438295	 0.061748
C	-2.2047176287	 0.472155902	 0.6722968817	-0.30142
C	-2.8739526594	 0.8282818556	-0.6513557263	-0.037002
C	-1.9427267527	 1.3618664365	-1.6769744049	-0.086436
C	-0.8423600655	 2.3448831401	-1.4736629245	 0.13337
O	 0.3316131241	 2.1031609111	-1.3142888944	-0.259481
N	-1.9691399135	-0.0884496998	-1.4658560402	-0.16123
H	 0.8956003101	 0.0696005963	-1.6805211806	 0.292909
H	 0.4884905441	-1.2423617711	 0.7377206459	 0.100295
H	 0.5266214686	 0.4951867571	 0.4245374978	 0.098555
H	-1.6655529716	-1.5294180101	-0.0153573092	 0.10161
H	-2.8736159119	-0.0188819562	 1.3801594354	 0.120137
H	-1.6915172982	 1.2900834088	 1.1871750722	 0.112042
H	-3.9464419738	 0.8573843276	-0.8180364529	 0.106985
H	-2.4620096465	 1.6123719547	-2.6065925591	 0.125579
H	-1.1926994626	 3.3983486069	-1.5455167707	 0.099067
63.1938	123.4973	166.6645	193.8443	228.5339	281.0135	391.9135	437.7835	491.2367	560.198	650.2805	704.6464	749.2502	782.4008	841.2642	884.365	941.4746	970.587	980.1718	1037.1153	1062.9088	1073.1616	1085.7944	1121.6434	1127.3453	1157.6879	1237.5739	1257.3446	1263.1101	1288.5407	1346.0383	1371.2784	1416.8902	1422.2772	1424.2287	1437.4629	1491.6224	1506.3654	1802.1023	2891.6811	3022.3476	3054.5265	3056.2919	3076.2661	3080.4181	3124.2151	3159.1086	3777.0465
OCC1CC2C(C=O)N12	OC[C@H]1C[C@H]2[C@@H](C=O)N12	
InChI=1S/C6H9NO2/c8-2-4-1-5-6(3-9)7(4)5/h3-6,8H,1-2H2	InChI=1S/C6H9NO2/c8-2-4-1-5-6(3-9)7(4)5/h3-6,8H,1-2H2/t4-,5+,6-,7?/m1/s1
