16
gdb 51303	3.15213	1.10625	0.89744	4.9598	73.08	-0.2429	-0.0378	0.2052	1266.1761	0.123967	-437.945543	-437.936988	-437.936044	-437.979961	30.197	
O	-0.5443718227	 0.568056798	 0.6084221297	-0.235649
C	 0.2271166782	 0.8781303166	-0.2607216412	 0.150536
C	 1.3492543985	 1.8968687805	-0.0738245886	-0.382637
C	 1.3196165228	 2.9531257988	-1.1324632307	 0.205612
C	 1.0083150171	 4.2504932784	-1.0576489464	-0.202762
C	 1.1269508605	 4.9035688448	-2.410596407	-0.204864
N	 1.5469133744	 3.8006843375	-3.2441745173	-0.33259
C	 1.6669645922	 2.6205514966	-2.553788473	 0.368941
O	 1.9853476256	 1.5350032646	-2.9997698071	-0.392837
H	 0.1839417265	 0.4320170271	-1.2753981651	 0.111261
H	 1.276665459	 2.315515629	 0.9321381736	 0.124266
H	 2.2915005803	 1.3379233598	-0.1657414737	 0.146513
H	 0.7144176783	 4.8036706212	-0.1748941156	 0.12225
H	 0.1685481684	 5.3326170274	-2.7377479903	 0.131971
H	 1.861466287	 5.7219005917	-2.4023470796	 0.131056
H	 1.7010866539	 3.8583309379	-4.2361243176	 0.258931
49.4486	73.4834	119.2037	159.2247	237.1247	309.9335	425.589	434.7837	454.333	529.7708	632.9309	752.6405	786.6814	802.229	815.9974	843.6566	950.4333	1012.7888	1028.1354	1054.8289	1080.0993	1160.6401	1186.0233	1193.6742	1237.8628	1288.1832	1314.0026	1368.086	1413.9039	1426.0242	1444.5256	1499.3505	1703.2189	1808.9434	1833.425	2933.249	2999.4727	3018.9591	3021.2951	3117.1478	3219.9704	3673.8568
O=CCC1=CCNC1=O	O=CCC1=CCNC1=O	
InChI=1S/C6H7NO2/c8-4-2-5-1-3-7-6(5)9/h1,4H,2-3H2,(H,7,9)	InChI=1S/C6H7NO2/c8-4-2-5-1-3-7-6(5)9/h1,4H,2-3H2,(H,7,9)
