19
gdb 118610	2.81311	0.79748	0.65038	3.0513	79.44	-0.2478	-0.0241	0.2237	1704.4262	0.154683	-422.984937	-422.974161	-422.973217	-423.022248	36.609	
C	 0.0467064874	 1.4292862709	 0.0441768673	-0.230506
O	 0.0022521312	 0.0215903017	 0.0213123437	-0.229274
C	 0.631537669	-0.5293016776	-1.1063326484	-0.051052
C	 0.5794491715	-2.0616081637	-0.9931483478	-0.196603
C	 1.0850885869	-2.709935754	-2.3068471642	-0.290532
C	 0.9344374481	-4.2174433207	-2.3267079308	 0.151927
O	 0.4669715359	-4.8343668591	-3.2493691355	-0.240844
C	 1.3378469133	-2.532361603	 0.1646726241	 0.350626
C	 1.9932031462	-2.9246128577	 1.0927453046	-0.478818
H	 1.0819866577	 1.8037198183	 0.0661893511	 0.108494
H	-0.4595818842	 1.8685976522	-0.8299229852	 0.105724
H	-0.4671514761	 1.7556662499	 0.9510612805	 0.132805
H	 0.119198881	-0.2169659309	-2.0323119915	 0.090249
H	 1.6807504783	-0.1967739047	-1.1774167692	 0.095085
H	-0.4766744891	-2.3283519458	-0.8539537563	 0.127766
H	 0.552550333	-2.3030660044	-3.1709109383	 0.12429
H	 2.1537900329	-2.4814934408	-2.4227658157	 0.132553
H	 1.2996150037	-4.7327281077	-1.412426316	 0.096068
H	 2.5547799832	-3.2667321629	 1.9267206477	 0.202043
51.2559	62.2176	82.5372	99.44	131.5201	160.7583	226.29	238.622	286.9221	336.2443	410.1992	475.0711	547.8778	605.1259	638.4313	644.9794	808.1454	822.5478	955.2376	983.845	1025.8205	1084.6565	1103.3956	1120.9102	1167.6234	1183.4266	1210.5616	1230.4552	1256.442	1280.1941	1326.0406	1368.681	1413.7739	1426.2561	1457.3806	1479.7872	1486.4032	1500.8992	1525.2641	1831.8241	2236.012	2908.5095	2951.0429	2974.0481	2985.691	3018.3587	3019.0965	3031.8111	3102.9318	3120.2039	3503.3191
COCC(CC=O)C#C	COC[C@@H](CC=O)C#C	
InChI=1S/C7H10O2/c1-3-7(4-5-8)6-9-2/h1,5,7H,4,6H2,2H3	InChI=1S/C7H10O2/c1-3-7(4-5-8)6-9-2/h1,5,7H,4,6H2,2H3/t7-/m1/s1
