14
gdb 123541	3.35265	2.34217	1.5685	4.6856	71.12	-0.2335	-0.0594	0.174	792.4615	0.103469	-395.627427	-395.621649	-395.620705	-395.657264	23.732	
C	-0.098888414	 1.5147309885	-0.1333519937	-0.156918
C	 1.4657162127	 1.7604855568	 0.028077787	-0.151412
C	 2.0700178838	 2.2524824419	 1.3249155612	-0.097279
C	 2.1015764972	 1.26535301	 2.2599909084	-0.142066
C	 1.4602707924	 0.0852003953	 1.6774220742	 0.147257
C	 1.3317302904	 0.3009438441	 0.335431501	 0.113255
N	 0.0348453251	-0.0445232004	-0.0384073491	-0.101396
N	-0.5045810796	-0.7017636354	 1.120488447	-0.116569
N	 0.3485833758	-0.6614145312	 2.0761062181	-0.167283
H	-0.6793088256	 1.8743156162	 0.7117866959	 0.167493
H	-0.5138540363	 1.8008559124	-1.0970376248	 0.15514
H	 1.9368844992	 2.1263446025	-0.8823746588	 0.112956
H	 2.5265952027	 3.2301227461	 1.430122921	 0.112142
H	 2.4827947162	 1.3587438433	 3.2682615026	 0.12468
205.1685	321.1253	333.4553	453.1202	531.1092	640.4858	694.6563	714.0167	730.2859	745.3997	802.6588	821.9297	853.0832	887.572	949.1363	976.4664	1012.3341	1026.5553	1093.4907	1119.1751	1142.8965	1179.223	1192.1893	1245.0044	1278.7355	1319.2649	1344.4119	1390.3567	1455.2744	1510.2545	1566.8726	3112.3994	3133.8923	3197.479	3208.071	3230.0406
C1C2C=CC3=C2N1N=N3	C1[C@H]2C=C[C]3[C]2N1[N][N]3	
InChI=1S/C6H5N3/c1-2-5-6-4(1)3-9(6)8-7-5/h1-2,4H,3H2	InChI=1S/C6H5N3/c1-2-5-6-4(1)3-9(6)8-7-5/h1-2,4H,3H2/t4-/m1/s1
