16
gdb 57161	3.10177	1.2243	0.88739	3.5933	75.28	-0.2766	-0.0722	0.2043	1243.2487	0.123371	-434.104022	-434.094643	-434.093699	-434.139058	32.92	
C	-1.522872835	 0.73964331	-0.3185489241	-0.344634
N	-0.2900414887	 0.0065179885	 0.0049495659	-0.165186
C	-0.1941456133	-0.4706985547	 1.34385068	 0.364326
C	 1.0323872687	-1.2349025152	 1.7752517303	-0.445785
N	-1.1917669448	-0.1992724023	 2.0878556704	-0.494744
C	 0.6901649694	-0.1925400064	-0.9388663036	 0.369047
O	 1.7421022374	-0.776469086	-0.7929492011	-0.339717
C	 0.4050738264	 0.3791859583	-2.2723245381	 0.220316
N	 0.2965354177	 0.7794199141	-3.3514145194	-0.323397
H	-1.6161550034	 1.6079195725	 0.3351051683	 0.16005
H	-1.4947907722	 1.0582534448	-1.3581829749	 0.168569
H	-2.3877703701	 0.096991438	-0.1487576249	 0.16003
H	 1.9406776587	-0.6413953108	 1.6567560551	 0.162214
H	 0.9113391999	-1.5088943897	 2.8256763146	 0.116963
H	 1.1766964207	-2.1373725477	 1.178573005	 0.16222
H	-1.0451497313	-0.5733030133	 3.0232453464	 0.229728
36.9857	66.9427	164.7742	171.0046	243.127	250.6715	300.6562	329.6278	378.791	422.4257	483.743	549.4278	586.831	625.1938	715.4068	759.7329	875.6809	908.3992	991.763	1074.7791	1100.8206	1125.0282	1157.215	1188.1555	1371.3477	1385.6154	1420.7922	1467.6091	1469.74	1471.2975	1474.6272	1514.0933	1702.2979	1765.8666	2343.1254	3060.9625	3077.6773	3141.2841	3141.8349	3146.1966	3182.8631	3509.2589
CN(C(C)=N)C(=O)C#N	CN(C(=N)C)C(=O)C#N	
InChI=1S/C5H7N3O/c1-4(7)8(2)5(9)3-6/h7H,1-2H3	InChI=1S/C5H7N3O/c1-4(7)8(2)5(9)3-6/h7H,1-2H3
