18
gdb 55451	3.24116	1.20491	1.03721	5.1777	73.94	-0.2441	-0.0017	0.2425	1181.5138	0.150438	-439.128098	-439.120256	-439.119312	-439.160898	29.999	
O	-0.252736997	-0.0562949263	-0.2311510342	-0.361035
C	-0.0529088982	 1.2507948095	-0.0266702076	 0.410265
O	 1.0194904582	 1.7326727103	 0.2161652743	-0.342587
C	-1.3541576721	 2.089793318	-0.0918053556	-0.159269
N	-2.3934536546	 1.3215729736	-0.7904122108	-0.336153
H	-2.2437429307	 1.3933982692	-1.791461382	 0.237465
H	-1.2153146492	-0.1333941003	-0.4184780222	 0.298184
C	-3.7726064816	 1.718315692	-0.4728186775	-0.169658
C	-4.04505584	 1.4996546536	 1.0143735229	-0.233032
C	-2.945715282	 2.1128100174	 1.83900201	-0.073254
C	-1.7531675191	 2.4077676742	 1.328368476	-0.03769
H	-1.0830674262	 3.0242227507	-0.6071324066	 0.106419
H	-3.9586174771	 2.77633178	-0.7195872921	 0.099388
H	-4.4463853195	 1.1135067301	-1.0869226124	 0.108643
H	-5.0122280003	 1.9430307319	 1.2780414567	 0.110838
H	-4.1289782455	 0.4257701535	 1.2304630637	 0.120377
H	-3.1530561909	 2.3278394006	 2.8835907854	 0.099128
H	-0.972183044	 2.865832732	 1.9261685919	 0.121971
79.6505	97.9807	194.0035	261.594	329.0343	378.1154	447.9958	489.6543	557.184	627.5718	694.8361	726.8141	746.0051	825.4772	868.777	894.7501	920.4003	932.7159	970.0441	1013.4222	1035.7027	1079.2889	1088.539	1132.8318	1199.7095	1208.5935	1235.8347	1264.976	1292.4854	1323.2978	1364.1897	1396.2911	1401.0296	1436.9755	1472.1752	1488.6965	1505.8455	1726.3053	1873.813	2970.2719	2983.5316	3017.4918	3061.1304	3078.5451	3163.1433	3195.1059	3459.6702	3523.0868
[O-]C(=O)C1[NH2+]CCC=C1	OC(=O)[C@H]1NCCC=C1	
InChI=1S/C6H9NO2/c8-6(9)5-3-1-2-4-7-5/h1,3,5,7H,2,4H2,(H,8,9)	InChI=1S/C6H9NO2/c8-6(9)5-3-1-2-4-7-5/h1,3,5,7H,2,4H2,(H,8,9)/t5-/m0/s1
