17
gdb 79103	2.48619	2.01846	1.52418	4.3042	70.22	-0.2611	0.0079	0.2689	915.6685	0.137528	-421.837461	-421.830475	-421.829531	-421.868721	27.918	
C	-0.0984824778	 1.5919541487	 0.0659621962	-0.422255
C	 0.0910388296	 0.0829603209	-0.0174891923	 0.016375
C	 0.7662713009	-0.5493233463	-1.2361705015	-0.121012
C	 2.2746017662	-0.5251506111	-1.0825759486	 0.094485
O	 2.8923536075	 0.4145668796	-0.2154233683	-0.231375
C	 2.3421646535	 0.2692882449	 1.0369202437	 0.454352
O	 2.7341678136	 0.8776612126	 1.9875310786	-0.345981
C	 1.1556102401	-0.6673345523	 0.8912203118	-0.230355
C	 1.5026809696	-1.5493592502	-0.3322332954	-0.11519
H	 0.8339649892	 2.1313054167	-0.1191007584	 0.143756
H	-0.8284535919	 1.9194745889	-0.6822296459	 0.116427
H	-0.4743492582	 1.8874075401	 1.0509969542	 0.127976
H	-0.8628179407	-0.4259407643	 0.1498782258	 0.093998
H	 0.3110893059	-0.7097068232	-2.2070564993	 0.09357
H	 2.8984185796	-0.7731857632	-1.9302891031	 0.120786
H	 0.8112700032	-1.0925330647	 1.8290189766	 0.099088
H	 1.6197025495	-2.6232727071	-0.378007044	 0.105356
137.6982	171.6651	214.4567	297.3415	437.6571	452.2069	553.5708	598.0838	700.0854	740.7025	765.7112	775.8841	814.2597	856.2131	872.1014	911.7743	943.5226	998.3685	1007.8186	1030.1773	1036.2241	1067.9473	1111.3469	1119.4175	1132.1395	1156.8074	1179.4855	1233.5703	1246.4722	1305.2968	1324.8924	1373.533	1411.5882	1413.4412	1489.2463	1501.5358	1889.0118	3036.9668	3062.1665	3100.5226	3124.5787	3167.7333	3176.4645	3207.3581	3220.9157
CC1C2C3OC(=O)C1C23	C[C@H]1[C@H]2[C@H]3OC(=O)[C@@H]1[C@@H]23	
InChI=1S/C7H8O2/c1-2-3-5-4(2)7(8)9-6(3)5/h2-6H,1H3	InChI=1S/C7H8O2/c1-2-3-5-4(2)7(8)9-6(3)5/h2-6H,1H3/t2-,3+,4-,5+,6+/m0/s1
