21
gdb 72652	1.94372	1.92273	1.62027	1.2983	77.08	-0.2485	0.0811	0.3296	1017.7783	0.181894	-424.234062	-424.225395	-424.224451	-424.266894	34.06	
C	-0.3498798997	 1.5092832351	 0.0068306257	-0.466241
C	-0.00941325	 0.0356334548	 0.0044097508	 0.369501
C	 1.1711941609	-0.4361849411	-0.9018456113	-0.280119
C	 1.8587570657	-1.1048612476	 0.3227795423	-0.280127
C	 0.6880314666	-0.6426604313	 1.2466419816	 0.36951
C	 1.0389697708	 0.1585510518	 2.4805211617	-0.466243
O	-0.2099386806	-1.6838853559	 1.6199742482	-0.296421
C	-1.0214105609	-1.9364836246	 0.4978220749	-0.003834
O	-1.212018212	-0.7093017471	-0.164902936	-0.296414
H	 0.5448393368	 2.1171606712	 0.1705284054	 0.114147
H	-0.7822979346	 1.7961364039	-0.9572029394	 0.128284
H	-1.0792774329	 1.7376115356	 0.7890763582	 0.126142
H	 0.8583454825	-1.1169429762	-1.696772835	 0.10699
H	 1.7362671747	 0.3834602683	-1.3521687627	 0.100192
H	 1.9627680851	-2.1909696595	 0.2702414049	 0.10699
H	 2.8279107119	-0.6781809765	 0.5922327431	 0.100193
H	 1.7012364447	 0.992528123	 2.2300680503	 0.114147
H	 0.1369432997	 0.5548348993	 2.9552484557	 0.126141
H	 1.5554251621	-0.4775388898	 3.2066728881	 0.128286
H	-0.5409122428	-2.6718005538	-0.1734388538	 0.080534
H	-1.9897553778	-2.3195185994	 0.8323324975	 0.118341
71.2945	219.2047	226.4384	235.8127	240.3151	283.8975	334.2433	345.6166	438.4972	465.56	565.7257	647.0742	676.3644	726.0962	745.3006	864.3654	872.8263	909.5411	924.6844	934.5995	960.8234	1012.217	1015.8672	1104.0942	1136.9614	1159.8213	1173.3118	1183.3573	1212.9013	1216.8918	1220.6404	1243.1051	1255.2785	1307.9937	1308.6188	1406.2441	1411.0825	1424.9201	1467.5688	1476.7733	1483.5223	1487.3705	1489.1626	1499.6059	1542.4758	2931.427	3037.3766	3040.2591	3061.5058	3067.8732	3086.1793	3106.4774	3108.2948	3109.9768	3117.0222	3120.5051	3127.4023
CC12CCC1(C)OCO2	C[C@@]12CC[C@]1(C)OCO2	
InChI=1S/C7H12O2/c1-6-3-4-7(6,2)9-5-8-6/h3-5H2,1-2H3	InChI=1S/C7H12O2/c1-6-3-4-7(6,2)9-5-8-6/h3-5H2,1-2H3/t6-,7+
