19
gdb 40409	4.01243	1.23192	1.09336	1.636	80.03	-0.2283	0.0186	0.2469	1141.3613	0.160333	-385.863777	-385.856195	-385.855251	-385.895931	30.109	
C	 0.5445108426	 1.3989482529	 0.0991179787	-0.17626
O	 1.0258155733	 0.1588584465	-0.427292572	-0.236866
C	-0.3048536082	 0.1980230074	 0.0901620403	-0.037571
C	-0.589218137	-0.6034076402	 1.3193094394	 0.349081
C	 0.5496936234	-1.0363556662	 2.2017256731	-0.334848
C	-0.2194676832	-2.0823836831	 1.4138122021	-0.113958
C	-1.3504043618	-2.7256278905	 2.141038895	-0.071632
C	-2.2902461418	-1.8397978434	 2.4786554008	-0.082371
C	-1.9724033267	-0.4501376491	 1.9646945907	-0.348725
H	 1.0052268865	 1.7140611593	 1.0339492347	 0.113574
H	 0.3855861865	 2.1857759402	-0.6367029866	 0.11468
H	-1.0766251733	 0.1382776865	-0.6808789393	 0.090831
H	 1.5431878431	-0.7946751572	 1.8400050521	 0.127096
H	 0.419632265	-1.0148311826	 3.2790071997	 0.106045
H	 0.2922412172	-2.595445057	 0.6071093813	 0.096981
H	-1.3644600732	-3.7815139279	 2.3866384996	 0.095375
H	-3.1772431169	-2.0525625028	 3.0642849088	 0.093509
H	-1.9773552751	 0.3022955576	 2.7637354674	 0.110728
H	-2.7190219504	-0.1175818902	 1.2284607141	 0.104331
77.2679	155.9046	201.753	295.4907	344.4925	374.3734	480.6822	495.9811	640.2021	713.7331	746.5634	773.5752	837.9873	869.303	887.282	903.2671	925.8691	955.2113	961.8013	991.4568	1002.9159	1036.6763	1060.3851	1083.8764	1086.7793	1102.6044	1145.2529	1150.8348	1168.988	1174.003	1229.4568	1257.1177	1296.2948	1309.7481	1365.2184	1393.7795	1440.6451	1466.5378	1485.3049	1522.4601	1670.3003	2999.567	3039.2559	3078.5959	3085.9683	3126.1007	3172.0599	3174.7626	3186.9991	3211.4056	3222.0287
C1OC1C12CC1C=CC2	C1O[C@H]1[C@]12C[C@H]1C=CC2	
InChI=1S/C8H10O/c1-2-6-4-8(6,3-1)7-5-9-7/h1-2,6-7H,3-5H2	InChI=1S/C8H10O/c1-2-6-4-8(6,3-1)7-5-9-7/h1-2,6-7H,3-5H2/t6-,7-,8-/m1/s1
