20
gdb 19658	4.19293	1.96387	1.85393	0.1465	77.88	-0.2669	0.0943	0.3612	831.9621	0.180294	-311.841396	-311.834992	-311.834048	-311.87148	27.102	
C	-0.2114226659	 1.6215109844	-0.0399621615	-0.434302
C	 0.0433492151	 0.1208951899	 0.000253384	 0.052927
C	 1.1082781187	-0.5875963781	-0.8959778668	-0.061606
C	 2.4149663206	 0.134459935	-0.5138574286	-0.207704
C	 2.3877257549	-0.3181191442	 0.963197974	-0.040171
C	 2.5492493522	-1.8535406834	 0.7991089277	-0.237636
C	 1.1447083866	-1.7574873762	 0.1874929703	-0.02168
C	 0.8186692889	-0.5624227525	 1.1382476837	-0.039892
H	 0.6854794909	 2.2084221218	 0.1760815158	 0.116252
H	-0.5884624449	 1.9338721726	-1.020833589	 0.112311
H	-0.966004668	 1.899101139	 0.7046767305	 0.112619
H	-0.9107149803	-0.4095615586	-0.1155450969	 0.065622
H	 0.916871124	-0.7858463688	-1.9509048676	 0.052972
H	 3.2944691134	-0.2458207558	-1.0420601647	 0.088799
H	 2.3710216675	 1.215014228	-0.6655977496	 0.09041
H	 2.9702328808	 0.245693198	 1.6911696855	 0.056724
H	 3.3901796988	-2.2207919583	 0.200811981	 0.084246
H	 2.5171305234	-2.3854994297	 1.7548725582	 0.092407
H	 0.4757148187	-2.6046436977	 0.039585222	 0.06054
H	 0.4387329648	-0.6892653053	 2.1523182117	 0.057162
173.0948	209.7169	281.9289	431.1728	476.6159	528.6917	649.1822	681.418	748.867	796.841	828.6522	838.5555	877.615	918.4316	931.455	941.152	958.8199	976.0175	1006.718	1016.2279	1052.9295	1069.8318	1085.3962	1088.5685	1127.6027	1152.9256	1166.8248	1187.7144	1208.2717	1220.9686	1231.3594	1264.6713	1270.8312	1288.9044	1321.6966	1330.2827	1398.0543	1411.5045	1487.9796	1494.326	1499.3521	1521.9348	3021.0812	3029.5162	3034.4746	3056.7821	3086.619	3091.3993	3099.8234	3105.8441	3107.1966	3111.905	3117.6882	3124.6461
CC1C2CC3CC2C13	C[C@H]1[C@H]2C[C@@H]3C[C@H]2[C@H]13	
InChI=1S/C8H12/c1-4-6-2-5-3-7(6)8(4)5/h4-8H,2-3H2,1H3	InChI=1S/C8H12/c1-4-6-2-5-3-7(6)8(4)5/h4-8H,2-3H2,1H3/t4-,5+,6+,7+,8+/m0/s1
