17
gdb 50597	2.52401	1.74738	1.40302	3.2111	66.8	-0.24	-0.0204	0.2197	965.2269	0.136582	-458.943875	-458.936283	-458.935339	-458.976722	28.003	
O	 0.4837048329	-0.1223627746	-0.4371324143	-0.247222
C	 0.2177809673	 1.0400302881	-0.2903917851	 0.168894
C	 1.2477283753	 2.1125892002	 0.0694797432	-0.033192
O	 2.5100601732	 1.5775366754	 0.3975692731	-0.241481
C	 3.26794876	 1.4357326732	-0.8048866721	-0.10463
C	 2.8613720392	 2.6225262594	-1.69718108	-0.088308
C	 2.0804328479	 2.3169025653	-2.9934323697	-0.090055
O	 0.8157582064	 2.629749856	-2.3609470137	-0.287523
C	 1.4828480433	 3.0461772369	-1.1465064338	 0.093551
H	-0.8200844849	 1.4268892569	-0.3969146297	 0.084212
H	 0.8775797955	 2.6594696687	 0.9460098642	 0.101962
H	 4.3235793229	 1.4464421382	-0.5238145581	 0.114058
H	 3.0391862245	 0.47662417	-1.28664135	 0.119231
H	 3.6287767033	 3.3925024705	-1.7655969828	 0.092134
H	 2.2832759297	 2.9977338468	-3.8275829742	 0.110597
H	 2.1169662641	 1.2810846264	-3.3493856507	 0.118808
H	 1.3022135595	 4.1026591526	-0.9294825264	 0.088963
53.2039	129.7491	145.3864	240.5342	287.5279	374.7027	460.1761	636.45	666.3787	729.9806	800.9355	831.5162	862.3557	883.196	933.8177	962.8302	978.3495	1007.9809	1017.4223	1054.3155	1088.8836	1121.603	1149.7261	1174.6293	1204.6121	1241.8238	1259.022	1268.6942	1316.626	1332.3709	1347.2411	1361.6251	1388.139	1418.0533	1512.621	1524.9554	1841.3923	2884.9131	3026.1917	3028.6939	3035.7045	3069.8426	3076.4148	3098.2995	3123.7489
O=CC1OCC2COC12	O=C[C@H]1OC[C@H]2CO[C@@H]12	
InChI=1S/C6H8O3/c7-1-5-6-4(2-8-5)3-9-6/h1,4-6H,2-3H2	InChI=1S/C6H8O3/c7-1-5-6-4(2-8-5)3-9-6/h1,4-6H,2-3H2/t4-,5+,6+/m0/s1
