14
gdb 15747	7.00039	1.0188	0.94467	2.2315	64.06	-0.2642	-0.0348	0.2294	1181.0774	0.107169	-415.863441	-415.855671	-415.854727	-415.896491	26.914	
N	 1.10762538	 0.2164483898	-0.3042895629	-0.461333
C	-0.0780195103	 0.5739872253	-0.0264982497	 0.105377
N	-1.0840174301	-0.3780168228	 0.0646786681	-0.328589
C	-2.3995307221	-0.0772297713	 0.3578508375	 0.443229
O	-2.7981500768	 1.050998141	 0.5486114005	-0.353759
C	-3.2993883864	-1.2863612396	 0.4403265558	-0.054678
C	-4.4763556767	-1.2209018748	 1.3254398599	-0.160098
O	-4.610251972	-1.0973692688	-0.0822011163	-0.205562
H	 1.7240252884	 1.0264282317	-0.3344431591	 0.23678
H	-0.4488558821	 1.5827229605	 0.1632701949	 0.14514
H	-0.8044869772	-1.3331320118	-0.1107658396	 0.265187
H	-2.8542334935	-2.2570230405	 0.2196617156	 0.099151
H	-4.8588909462	-2.1427794516	 1.7602649794	 0.124268
H	-4.642045705	-0.303954497	 1.8857716558	 0.144887
44.3243	133.3827	155.6354	178.0239	287.2278	309.6904	375.0358	501.1505	635.858	708.3387	764.3789	834.5316	867.0761	894.6414	958.5442	1038.3539	1072.3518	1090.2668	1098.2686	1160.3633	1161.8626	1177.8749	1282.6616	1310.2367	1390.5915	1421.28	1500.5446	1508.3582	1730.4629	1805.1303	3093.744	3108.0763	3128.7257	3197.3436	3509.1644	3608.1981
N=CNC(=O)C1CO1	N=CNC(=O)[C@H]1CO1	
InChI=1S/C4H6N2O2/c5-2-6-4(7)3-1-8-3/h2-3H,1H2,(H2,5,6,7)	InChI=1S/C4H6N2O2/c5-2-6-4(7)3-1-8-3/h2-3H,1H2,(H2,5,6,7)/t3-/m1/s1
