15
gdb 31863	5.17916	1.0591	0.88418	0.5599	73.21	-0.2192	-0.0445	0.1747	1244.9855	0.113839	-453.999454	-453.991729	-453.990785	-454.03188	28.665	
C	-0.0777016581	 1.3850690742	 0.0227252693	-0.233303
O	 0.0079275515	-0.038528609	-0.0189048185	-0.267551
C	 0.6368615308	-0.5791714217	-1.0816091724	 0.416561
N	 1.1454419637	 0.1919039916	-2.0334221169	-0.325576
C	 1.7534152953	-0.4138744863	-3.0543741778	-0.095527
C	 1.8468948695	-1.803572482	-3.1121633765	 0.398521
O	 2.4678924573	-2.3939926968	-4.1571523139	-0.422587
N	 1.3372316541	-2.57906932	-2.1581123845	-0.324571
C	 0.7318105418	-1.976550331	-1.1413806054	-0.097555
H	 0.9171723662	 1.8401382728	 0.0362204568	 0.134445
H	-0.6245324053	 1.773081942	-0.8418375299	 0.134443
H	-0.6126447011	 1.6176927657	 0.9442122357	 0.130394
H	 2.1738592688	 0.2061505126	-3.8398962024	 0.125688
H	 2.4196900901	-3.3465007122	-3.9996728309	 0.299825
H	 0.3103599754	-2.59403768	-0.3542783526	 0.126792
90.4013	142.7682	190.1068	221.1148	394.5317	401.4568	438.7773	448.2713	467.3584	584.9744	593.9194	658.7437	778.9356	799.0868	896.797	918.1396	943.3436	1025.9601	1063.2355	1171.2786	1177.4888	1206.8911	1263.9885	1306.9748	1324.5755	1358.1775	1444.733	1469.1774	1479.4779	1499.1744	1527.8065	1596.7607	1651.3289	3039.2147	3108.1818	3148.7467	3178.0057	3181.5419	3778.3157
COC1=NC=C(O)N=C1	COc1ncc(O)nc1	
InChI=1S/C5H6N2O2/c1-9-5-3-6-4(8)2-7-5/h2-3H,1H3,(H,6,8)	InChI=1S/C5H6N2O2/c1-9-5-3-6-4(8)2-7-5/h2-3H,1H3,(H,6,8)
