17
gdb 93449	2.90022	1.44005	1.00666	3.5382	71.43	-0.2528	-0.0185	0.2343	1150.8977	0.136738	-455.185297	-455.177028	-455.176084	-455.218646	30.795	
C	-0.0697509596	 1.5432467085	-0.0395098645	-0.405071
C	 0.0402041411	 0.0203171129	-0.0164690236	-0.108902
N	 0.7656137843	-0.4801404778	-1.176710883	-0.313939
C	 0.8425025423	-1.9330515673	-1.1559286121	-0.25529
C	 1.6456018961	-2.3597011747	 0.0425705941	 0.43019
N	 2.3983337414	-3.3676301397	 0.0399227575	-0.491107
O	 1.494676859	-1.5928104349	 1.1888296779	-0.237055
C	 0.732426831	-0.4478843828	 1.2612117005	 0.455374
O	 0.633943635	 0.0985063799	 2.3194323972	-0.303284
H	 0.923021473	 1.9936781434	-0.1165884053	 0.140188
H	-0.6654088477	 1.8632097983	-0.9000186915	 0.113902
H	-0.548938337	 1.9000475468	 0.8727492613	 0.150878
H	-0.9823515549	-0.4081457312	 0.0500613551	 0.096098
H	 0.3174133195	-0.1601804193	-2.027740102	 0.233751
H	-0.1496372942	-2.4231158147	-1.0994929334	 0.110333
H	 1.3490711275	-2.3080236071	-2.0456283706	 0.148218
H	 2.8255377432	-3.5025416304	 0.9584247423	 0.235716
50.1542	113.9455	210.1565	226.779	284.8464	367.702	368.9858	421.6815	481.2719	542.1736	570.5496	661.8488	696.3464	745.4908	833.9952	909.7255	930.0219	961.9153	1023.4927	1038.0032	1079.4423	1112.4136	1136.1233	1153.0746	1190.7358	1265.505	1297.6194	1326.4555	1350.6617	1403.2233	1405.525	1474.1298	1484.2181	1494.4275	1502.1948	1777.6454	1870.4852	2878.1046	2910.4672	3050.6509	3122.1235	3129.6479	3154.4823	3473.623	3539.1228
CC1NCC(=N)OC1=O	C[C@H]1NC[C]([NH])OC1=O	
InChI=1S/C5H8N2O2/c1-3-5(8)9-4(6)2-7-3/h3,6-7H,2H2,1H3	InChI=1S/C5H8N2O2/c1-3-5(8)9-4(6)2-7-3/h3,6-7H,2H2,1H3/t3-/m1/s1
