21
gdb 119778	3.91619	0.8172	0.70933	2.0858	83.18	-0.2262	0.0236	0.2498	1650.0938	0.180739	-424.221496	-424.211578	-424.210634	-424.257218	35.051	
C	 0.0636815646	 1.4353845454	-0.0368208477	-0.224739
O	 0.0442606478	 0.0294902011	 0.0270444167	-0.226974
C	 0.5817853018	-0.5768893145	-1.1228310552	-0.161806
C	 0.5334609413	-2.0617570836	-0.9928580461	 0.263897
C	 0.0720540237	-2.7932218169	 0.0154864991	-0.204108
C	 0.2260707047	-4.2589657858	-0.287861587	 0.104685
C	-1.0758485121	-5.0600021354	-0.2619037567	-0.385585
O	 0.791008546	-4.2952575217	-1.6068029578	-0.280648
C	 1.0587771185	-2.9791092285	-2.0684567566	-0.1572
H	 1.0889961939	 1.8263711814	-0.1342754441	 0.10565
H	-0.5294656971	 1.8147184969	-0.8841271677	 0.105643
H	-0.3698750868	 1.8097390097	 0.8933850825	 0.129969
H	 0.0258316901	-0.2597476523	-2.0259824536	 0.09613
H	 1.626392246	-0.2479297726	-1.2842797164	 0.095798
H	-0.3549474644	-2.4124998601	 0.9329318476	 0.112495
H	 0.939058624	-4.7293963844	 0.4116290259	 0.077979
H	-1.8175079418	-4.606733697	-0.9261359068	 0.117101
H	-0.8924824768	-6.0865694002	-0.5918316281	 0.123461
H	-1.4869995355	-5.0928740296	 0.7526554989	 0.110219
H	 0.5671945198	-2.8173723757	-3.0413934631	 0.100531
H	 2.1418576223	-2.843247086	-2.2323111238	 0.0975
69.9551	73.0856	87.9556	124.304	173.7636	230.4311	239.7685	319.4587	350.4283	390.8628	403.3536	511.286	702.9138	731.7789	838.8549	848.5655	914.3628	943.2345	994.3437	997.7166	1021.5349	1071.011	1078.6967	1104.8378	1133.3313	1160.9533	1183.8595	1195.5781	1203.5091	1226.5034	1258.5172	1273.893	1329.6871	1372.3358	1388.5457	1398.6488	1432.8511	1479.1812	1485.1804	1485.7808	1495.0817	1497.4229	1520.7738	1526.2762	1738.7706	2918.7094	2928.749	2943.4311	2953.6701	2970.2035	2977.3128	3013.7795	3036.35	3110.1424	3117.4568	3119.9241	3236.2274
COCC1=CC(C)OC1	COCC1=C[C@@H](C)OC1	
InChI=1S/C7H12O2/c1-6-3-7(4-8-2)5-9-6/h3,6H,4-5H2,1-2H3	InChI=1S/C7H12O2/c1-6-3-7(4-8-2)5-9-6/h3,6H,4-5H2,1-2H3/t6-/m1/s1
