20
gdb 62972	2.25917	1.6017	1.2768	1.7498	84.48	-0.2319	0.0299	0.2617	1102.0425	0.168995	-365.936568	-365.927469	-365.926525	-365.969621	35.549	
C	-0.1175742031	 1.5832177664	-0.1451452585	-0.450035
C	 0.0157773324	 0.0663713559	-0.0543546463	 0.300239
C	-1.3372649389	-0.5834254914	 0.2405447734	-0.44537
C	 0.7468939349	-0.648555055	-1.1976268907	-0.049667
C	 2.1823765593	-0.3233432738	-1.2670334594	-0.259454
N	 1.7478802035	-1.3227461081	-0.2722758584	-0.13506
C	 1.1422831812	-0.535485219	 0.8799969486	-0.235486
C	 2.035497881	 0.3607572472	 1.5857456211	 0.376219
C	 2.7706798598	 1.1172612395	 2.1645797041	-0.463316
H	 0.8395472996	 2.0734844571	-0.3359971554	 0.123418
H	-0.8066496324	 1.8553390797	-0.9526717544	 0.1129
H	-0.516917359	 1.9937397698	 0.7885812908	 0.119788
H	-2.0656727912	-0.3311455031	-0.5383256303	 0.115452
H	-1.2552613657	-1.6742328417	 0.2833436676	 0.126119
H	-1.7374208847	-0.2329165082	 1.1981371212	 0.119098
H	 0.2433781185	-1.2131395993	-1.9776215854	 0.090558
H	 2.7545772519	-0.7699592358	-2.0745065436	 0.12226
H	 2.5603455811	 0.6340853001	-0.920562206	 0.12533
H	 0.7181190791	-1.2558411176	 1.5850401472	 0.107506
H	 3.4229004326	 1.7734055071	 2.6861616046	 0.199502
117.6691	139.0947	190.1153	217.3061	247.0792	272.743	342.2492	350.7112	383.547	473.7819	536.0477	548.3879	622.4104	639.5875	653.5577	755.4185	780.0329	825.7973	883.1198	954.3945	957.3088	992.5171	1000.2964	1019.5344	1055.924	1072.2788	1114.3165	1140.1028	1186.428	1210.6184	1219.3938	1248.241	1278.5655	1340.6612	1373.063	1401.9985	1423.6259	1481.6606	1482.8657	1498.6598	1506.8229	1507.0719	2226.2087	3025.1584	3033.4382	3062.8325	3091.73	3097.0079	3101.9463	3119.1023	3122.7259	3147.3891	3206.1841	3501.4438
CC1(C)C2CN2C1C#C	CC1(C)[C@H]2CN2[C@H]1C#C	
InChI=1S/C8H11N/c1-4-6-8(2,3)7-5-9(6)7/h1,6-7H,5H2,2-3H3	InChI=1S/C8H11N/c1-4-6-8(2,3)7-5-9(6)7/h1,6-7H,5H2,2-3H3/t6-,7+,9?/m0/s1
