18
gdb 36639	3.34571	1.09485	0.96492	2.042	76.81	-0.2272	0.0366	0.2638	1249.3352	0.14675	-401.819887	-401.81153	-401.810585	-401.853721	31.844	
C	 0.3857318617	-0.2090221987	 1.2899998988	-0.469751
C	 0.1526136869	 0.5273498265	 0.3678631876	 0.320877
C	-0.0816029552	 1.425632694	-0.7711416439	-0.324586
N	 1.0174067631	 2.339407515	-1.0898307509	-0.303759
C	 1.2611319291	 3.3585583223	-0.1071213298	 0.086263
C	 2.1168779321	 3.2077646357	 1.2098121044	 0.031906
C	 3.4079903936	 3.1273991692	 0.3633354506	-0.237508
C	 2.5153031808	 4.2660704016	-0.1926401744	 0.009154
O	 2.2454827592	 4.6823394912	 1.2000646428	-0.302771
H	 0.5802038888	-0.8607136945	 2.1058273597	 0.201289
H	-0.2978770451	 0.8257484987	-1.6629095189	 0.136137
H	-0.9782206621	 2.0288952815	-0.5833166693	 0.141581
H	 1.8549722862	 1.8079566606	-1.2983008334	 0.225913
H	 0.3470662507	 3.9299912248	 0.0741896848	 0.092023
H	 1.8768652	 2.7308610035	 2.1588958842	 0.098487
H	 4.3108091469	 3.4653628097	 0.8732535861	 0.111273
H	 3.5894223621	 2.2393044941	-0.248501173	 0.089641
H	 2.7558100613	 5.0464221648	-0.9157355153	 0.093831
44.0219	70.8833	184.6295	206.1131	320.8334	354.1182	376.8911	550.1254	566.1684	600.9494	622.9672	661.2296	719.5114	751.2122	820.553	858.2837	884.9847	904.3538	919.5952	931.3747	989.3211	1003.8976	1043.2006	1092.2868	1113.5152	1138.1492	1160.1894	1177.3467	1199.2637	1220.5222	1252.7312	1279.277	1287.7266	1357.074	1380.9084	1462.7382	1492.1354	1512.772	2225.83	3030.7376	3060.4853	3064.7931	3087.2831	3113.2376	3134.0505	3142.9271	3502.8186	3542.0014
C#CCNC1C2CC1O2	C#CCN[C@H]1[C@H]2C[C@@H]1O2	
InChI=1S/C7H9NO/c1-2-3-8-7-5-4-6(7)9-5/h1,5-8H,3-4H2	InChI=1S/C7H9NO/c1-2-3-8-7-5-4-6(7)9-5/h1,5-8H,3-4H2/t5-,6+,7+
