16
gdb 24265	3.94532	1.56511	1.21697	2.2464	74.93	-0.1978	0.0295	0.2273	984.0335	0.127756	-400.763489	-400.757027	-400.756083	-400.794118	26.55	
C	-0.0480355546	 1.5392324975	-0.0165746641	-0.390989
C	 1.4537338994	 1.8803415251	-0.0153691408	 0.067329
O	 2.187769562	 1.4363913841	 1.1276844274	-0.25626
C	 2.2586345416	 0.6392045366	-0.0842380934	-0.146129
C	 1.2582025811	-0.442674829	-0.1087221033	 0.321317
C	-0.0318040502	 0.028545415	-0.0307120415	 0.28458
C	-0.8914865083	-1.0939881396	 0.0740908523	-0.319485
C	-0.0804769761	-2.2136927306	 0.0415271539	-0.073337
N	 1.2327677121	-1.8081154847	-0.0602047693	-0.381153
H	-0.54058611	 1.9605293774	 0.8673588461	 0.12423
H	-0.5352277977	 1.9771624911	-0.8968744365	 0.108247
H	 1.7932501403	 2.8214225171	-0.4415167893	 0.092707
H	 3.2412482321	 0.5795836471	-0.5420886189	 0.094363
H	-1.9684406159	-1.107301158	 0.1466678211	 0.094243
H	-0.331391801	-3.2624269969	 0.0578086725	 0.118117
H	 2.0269916853	-2.4233031324	-0.0798767661	 0.262219
147.799	236.6109	346.8818	417.6469	445.3494	472.9526	606.3997	630.1662	690.4322	705.974	729.0121	768.3154	822.4404	841.9881	855.5812	892.1426	934.8669	981.7301	1018.6515	1066.3235	1087.8619	1099.0135	1167.331	1185.9257	1232.5393	1244.1987	1286.4147	1308.7211	1347.6856	1405.8382	1444.4629	1469.9426	1474.4565	1534.13	1593.6322	3026.8657	3065.4858	3139.7164	3162.2397	3242.1307	3266.1552	3682.4449
C1C2OC2C2=C1C=CN2	C1[C@H]2O[C@H]2c2c1cc[nH]2	
InChI=1S/C7H7NO/c1-2-8-6-4(1)3-5-7(6)9-5/h1-2,5,7-8H,3H2	InChI=1S/C7H7NO/c1-2-8-6-4(1)3-5-7(6)9-5/h1-2,5,7-8H,3H2/t5-,7-/m1/s1
