21
gdb 72287	2.94449	1.54892	1.28324	1.2721	81.03	-0.2396	0.0788	0.3184	1063.3461	0.185513	-387.075252	-387.067669	-387.066725	-387.106712	31.643	
O	-0.1613362744	 1.4586786228	-0.049767525	-0.463883
C	-0.0174327369	 0.0785505199	-0.0775266608	 0.380051
C	 0.604449201	-0.6698837661	-1.2560869623	-0.32174
C	-0.4228962852	-1.8347982679	-1.013120889	-0.00737
C	 0.1483418041	-3.1375641121	-0.443407536	-0.203161
C	 1.1820818922	-2.8665738559	 0.6617197703	-0.203048
C	 0.6715400929	-1.8788344844	 1.7283035907	-0.222733
C	-0.185997403	-0.7449863294	 1.1843151318	-0.082584
C	-1.1374817478	-0.9460657055	 0.0296276396	-0.144281
H	 0.5957878732	 1.832182392	 0.4141863625	 0.282042
H	 0.3766216998	-0.142908374	-2.186270102	 0.104926
H	 1.6755239932	-0.8934706351	-1.2346711711	 0.085744
H	-1.0350461132	-2.0327822972	-1.8953671992	 0.069806
H	-0.6791015053	-3.7417939454	-0.0470204391	 0.093166
H	 0.6139660004	-3.729980349	-1.2401936344	 0.09004
H	 1.4717201874	-3.8059420976	 1.1446978296	 0.088842
H	 2.0959154682	-2.472082532	 0.2044142915	 0.100759
H	 0.0518421083	-2.4263089389	 2.452309198	 0.097242
H	 1.5192362434	-1.4798474979	 2.2997193097	 0.08927
H	-0.6217714164	-0.1188760799	 1.9611420132	 0.08314
H	-2.2072252319	-0.7960809962	 0.1097006821	 0.083773
161.0257	205.429	271.32	299.2382	311.5627	398.1055	412.6403	496.0351	523.8944	615.6164	652.8967	709.748	765.0293	816.1276	854.9758	872.2277	921.5965	925.1303	947.6712	966.5582	1001.4164	1021.9895	1047.339	1072.997	1100.0908	1113.4002	1132.3821	1181.6031	1204.1256	1221.4533	1227.9888	1241.2324	1287.5169	1309.7056	1316.7979	1327.3294	1338.7145	1371.3753	1383.6061	1389.4045	1460.7728	1483.9714	1490.1219	1498.8917	1517.7392	3005.2261	3012.4026	3032.4142	3042.9967	3049.0388	3054.3584	3076.5409	3079.8296	3103.3435	3126.0019	3185.0378	3794.6575
OC12CC3CCCC1C23	O[C@@]12C[C@H]3CCC[C@@H]1[C@@H]23	
InChI=1S/C8H12O/c9-8-4-5-2-1-3-6(8)7(5)8/h5-7,9H,1-4H2	InChI=1S/C8H12O/c9-8-4-5-2-1-3-6(8)7(5)8/h5-7,9H,1-4H2/t5-,6-,7+,8+/m1/s1
