19
gdb 113755	2.58952	0.98848	0.8306	2.5603	72.16	-0.2578	-0.0324	0.2254	1430.0538	0.156001	-460.143475	-460.133362	-460.132418	-460.179974	35.226	
C	-0.2102130266	 1.3490270824	-0.4102347025	-0.41188
C	 0.0689757841	-0.0371121741	 0.2054290425	-0.133688
C	 0.8838405518	 0.1098254338	 1.4765727454	 0.157272
O	 0.5768933811	-0.3451507675	 2.5486080838	-0.242318
C	-1.2150676856	-0.7972095368	 0.4577986633	 0.088194
O	-1.8923078848	-1.3203598934	-0.6903378932	-0.28674
C	-1.4009453099	-2.245766456	 0.3007562692	 0.033749
C	-0.3546381388	-3.2199201708	-0.1784320024	-0.090009
O	-0.9334914207	-4.2162882636	-1.0041731902	-0.41694
H	 0.7192788627	 1.8994233512	-0.5854375618	 0.123852
H	-0.7263147277	 1.2314785531	-1.3658797241	 0.147782
H	-0.8435828756	 1.9513464607	 0.2492523217	 0.132197
H	 0.699606846	-0.5888416095	-0.5041275676	 0.10564
H	 1.8222977037	 0.6980345527	 1.3490631811	 0.082222
H	-1.8768742501	-0.302171684	 1.1703436438	 0.102854
H	-2.1943619446	-2.7114938971	 0.8872632528	 0.103642
H	 0.4570529548	-2.6939171583	-0.7000678614	 0.087676
H	 0.081016252	-3.7437713322	 0.6790698298	 0.123549
H	-1.3754638017	-3.7567801206	-1.7271774902	 0.292944
30.5069	69.3376	100.3251	137.7158	153.4085	226.4784	255.1565	274.206	355.4142	405.3152	419.5387	477.1105	580.9564	666.6545	785.3863	805.1306	888.984	921.7795	947.721	961.5067	1036.5144	1069.7673	1072.1953	1114.9006	1138.4965	1161.574	1191.859	1230.3199	1289.1922	1297.7446	1307.0015	1360.2325	1397.3124	1403.4531	1421.9708	1437.2138	1490.7674	1494.326	1497.5545	1508.6289	1827.6477	2864.4245	3004.704	3031.916	3040.3032	3077.241	3095.8202	3109.0759	3111.0597	3128.9125	3801.756
CC(C=O)C1OC1CO	C[C@@H](C=O)[C@H]1O[C@H]1CO	
InChI=1S/C6H10O3/c1-4(2-7)6-5(3-8)9-6/h2,4-6,8H,3H2,1H3	InChI=1S/C6H10O3/c1-4(2-7)6-5(3-8)9-6/h2,4-6,8H,3H2,1H3/t4-,5-,6+/m0/s1
