15
gdb 49862	2.88456	1.5033	1.20557	5.4412	65.42	-0.2628	-0.0413	0.2215	1016.4619	0.112527	-457.796043	-457.788587	-457.787642	-457.828578	27.469	
O	 0.1137690527	-0.0614422976	-0.2204663402	-0.230878
C	 0.0709012754	 1.1093976608	 0.0387268258	 0.15706
C	 1.2771876198	 2.0352447252	 0.0707761151	 0.002929
O	 2.4893558217	 1.2948015106	 0.1494124222	-0.219599
C	 3.4247245647	 1.736162935	-0.7581642105	 0.449049
O	 4.56331958	 1.3814208874	-0.7165362462	-0.332507
C	 2.7640553216	 2.6781440687	-1.7145479837	-0.177764
C	 1.5854587882	 2.0919072255	-2.469200941	-0.292551
C	 1.3554626767	 2.8753391884	-1.2124007546	-0.091832
H	-0.8890274936	 1.6378738528	 0.240692741	 0.085946
H	 1.198231027	 2.6889211832	 0.9505017795	 0.112405
H	 3.3692782168	 3.4554413846	-2.1597233235	 0.12804
H	 1.3355221238	 2.5709866941	-3.4083860995	 0.134622
H	 1.4404726407	 1.0167877858	-2.4493508361	 0.159055
H	 0.8607009044	 3.8371568657	-1.2371307484	 0.116026
78.4574	103.5138	202.1582	229.7369	298.5246	404.06	478.9821	611.2917	644.5752	761.9835	763.8502	803.8453	824.6226	845.5944	917.0382	943.6426	979.4496	999.0693	1036.8948	1063.8299	1097.2324	1101.6415	1144.3457	1183.9951	1195.8802	1291.6846	1323.9614	1356.2814	1371.8982	1420.5593	1488.5149	1847.1234	1895.7382	2872.216	3017.704	3140.3121	3201.8209	3218.2428	3233.5565
O=CC1OC(=O)C2CC12	O=C[C@H]1OC(=O)[C@H]2C[C@@H]12	
InChI=1S/C6H6O3/c7-2-5-3-1-4(3)6(8)9-5/h2-5H,1H2	InChI=1S/C6H6O3/c7-2-5-3-1-4(3)6(8)9-5/h2-5H,1H2/t3-,4+,5-/m1/s1
