17
gdb 69693	3.65533	1.33855	1.24588	5.465	73.91	-0.2289	0.031	0.2599	1050.4151	0.134989	-417.927062	-417.919236	-417.918291	-417.959204	30.232	
C	-0.2265581042	 1.3476346407	 0.0842762196	-0.517349
C	 0.1037903665	-0.1003530451	-0.0807035523	 0.33616
N	-0.7770292545	-1.2041996709	 0.3233911345	-0.359487
C	 0.609414787	-1.1347797391	 0.8497427541	-0.125825
C	 1.5744041399	-1.7006752176	-0.2509639418	-0.058508
C	 1.0291943537	-0.6813066344	-1.2234034814	-0.122476
N	 0.864365057	-2.0926746936	-1.4269248052	-0.056845
C	-0.2849843448	-2.8813343096	-1.5314229377	 0.181467
O	-0.3815836127	-3.9862329959	-1.0647574008	-0.306379
H	 0.6699404816	 1.9678256853	-0.0226296512	 0.133917
H	-0.9515475517	 1.6761761998	-0.6697382024	 0.135454
H	-0.653138415	 1.5436880422	 1.0735244055	 0.124992
H	-1.4111476754	-0.8773097464	 1.0507846666	 0.236944
H	 0.8077854164	-1.0956775252	 1.9122427642	 0.104975
H	 2.5921505686	-2.0245095373	-0.0729484023	 0.113114
H	 1.5425403348	-0.0787609901	-1.9640332158	 0.107422
H	-1.028545797	-2.4225948429	-2.2091239334	 0.072426
121.0543	139.3922	206.3006	266.9806	281.1636	290.4578	434.3421	488.1483	567.0926	639.8303	695.6643	749.8968	801.648	827.8461	837.9294	881.2419	914.7889	942.0136	988.9939	1006.3742	1022.7111	1034.0982	1054.3974	1088.4575	1107.912	1115.8653	1207.6176	1245.1801	1271.5473	1307.1401	1393.2986	1412.1817	1418.1147	1455.7897	1482.5425	1497.0265	1808.7671	2959.9683	3025.1458	3088.1815	3100.628	3178.3347	3196.313	3212.0955	3488.7178
CC12NC1C1C2N1C=O	C[C@]12N[C@H]1[C@@H]1[C@H]2N1C=O	
InChI=1S/C6H8N2O/c1-6-4(7-6)3-5(6)8(3)2-9/h2-5,7H,1H3	InChI=1S/C6H8N2O/c1-6-4(7-6)3-5(6)8(3)2-9/h2-5,7H,1H3/t3-,4+,5-,6+,8?/m1/s1
