19
gdb 91356	1.93006	1.70604	1.57214	2.6266	70.27	-0.2346	0.0542	0.2888	1013.8139	0.158386	-460.127565	-460.118768	-460.117824	-460.160662	34.245	
O	 0.4688688524	 0.8242756586	-0.9632299659	-0.44404
C	 0.0740526278	-0.200421767	-0.0964223026	 0.085665
C	 0.1048713067	-0.0176244903	 1.4553128909	-0.286325
C	-1.2814306835	-0.7206783271	 1.5623302806	-0.062803
C	-2.4589335468	 0.2658023712	 1.7206593653	-0.267844
C	-2.472115694	 0.4908151973	 0.1770808596	 0.034844
O	-2.0390379377	 1.7632234834	-0.2912310488	-0.440964
C	-1.4066135029	-0.6408329343	-0.0029931514	 0.352333
O	-1.8253254211	-1.7436439095	-0.7552466713	-0.489881
H	-0.1687094148	 1.5406346072	-0.8429172603	 0.292061
H	 0.6571057476	-1.0871652681	-0.3697553753	 0.090873
H	 0.9359059567	-0.510168528	 1.9636688299	 0.103584
H	 0.0817384784	 1.0314808039	 1.762861228	 0.097989
H	-1.3164688708	-1.6694519428	 2.0949974271	 0.075902
H	-3.3806447949	-0.2029489041	 2.0750783534	 0.107152
H	-2.2595789807	 1.1572532159	 2.3234302825	 0.09315
H	-3.4195696221	 0.2063436092	-0.2969187677	 0.082086
H	-2.6293482838	 2.438388985	 0.0571811275	 0.291784
H	-1.6423824367	-1.5548237703	-1.6832990414	 0.284434
69.3067	167.5668	204.9635	239.6908	267.4746	302.3251	351.6172	386.9061	406.9901	457.0471	542.5581	564.59	585.5297	674.9697	753.647	805.3044	840.4571	902.566	957.9307	964.5951	1003.8519	1054.3828	1060.0881	1103.0731	1110.1794	1144.7252	1153.8897	1161.7823	1196.9935	1232.121	1238.7401	1258.6783	1289.7867	1307.453	1322.425	1342.9708	1362.5292	1411.6559	1466.5075	1472.1735	1488.2971	3023.989	3047.5909	3049.1992	3062.2186	3103.9088	3115.0385	3130.3809	3753.3186	3788.0147	3821.2
OC1CC2CC(O)C12O	O[C@H]1C[C@H]2C[C@@H](O)[C@@]12O	
InChI=1S/C6H10O3/c7-4-1-3-2-5(8)6(3,4)9/h3-5,7-9H,1-2H2	InChI=1S/C6H10O3/c7-4-1-3-2-5(8)6(3,4)9/h3-5,7-9H,1-2H2/t3-,4-,5+,6-
