16
gdb 32720	6.77262	0.76031	0.68656	2.2172	81.04	-0.1974	0.0051	0.2025	1582.5421	0.12521	-434.099544	-434.090968	-434.090024	-434.134069	29.959	
C	-0.0073115862	 1.3812004256	 0.0020270959	-0.248929
O	-0.0145691515	-0.040935854	 0.0283058994	-0.192765
C	 0.5829393042	-0.6400332244	-1.0164935948	 0.115879
N	 0.6263493848	-1.9046210865	-1.0701915381	-0.346434
C	 1.2479883976	-2.4988527433	-2.1594585087	 0.360458
C	 1.3693726038	-3.855235098	-2.3482586707	-0.190373
N	 2.0445361359	-3.99795538	-3.5410368804	-0.237478
C	 2.2984673851	-2.7458355229	-4.0146697118	 0.015696
N	 1.835633194	-1.8182211702	-3.2130193711	-0.320456
H	 1.0152148755	 1.7772946969	 0.0192604048	 0.129079
H	-0.5291668076	 1.7688161803	-0.8812290828	 0.129052
H	-0.5327992201	 1.7078487196	 0.9001433873	 0.143383
H	 1.0043959164	 0.0297690394	-1.7734829149	 0.112605
H	 1.0443288717	-4.6931288612	-1.7565781893	 0.13387
H	 2.3007138881	-4.8664502767	-3.9782658962	 0.26755
H	 2.8217789783	-2.5778635446	-4.9445859586	 0.128861
41.5503	80.1002	119.4536	159.1016	195.1559	329.8629	392.0111	409.2203	499.8406	544.5938	659.0946	705.4315	763.5161	797.6245	816.6708	944.5568	987.0879	1000.135	1062.6202	1089.4179	1132.6086	1164.6855	1177.1604	1238.387	1280.0661	1294.0666	1350.8357	1394.6276	1455.5037	1483.6125	1493.7626	1500.5261	1536.862	1603.5538	1736.516	3014.5272	3074.989	3078.6376	3144.1993	3244.4569	3289.9472	3674.32
COC=NC1=CNC=N1	COC=Nc1c[nH]cn1	
InChI=1S/C5H7N3O/c1-9-4-8-5-2-6-3-7-5/h2-4H,1H3,(H,6,7)	InChI=1S/C5H7N3O/c1-9-4-8-5-2-6-3-7-5/h2-4H,1H3,(H,6,7)
