15
gdb 20597	3.26648	1.87434	1.25624	2.1127	63.47	-0.248	-0.0133	0.2346	932.5102	0.11885	-399.793373	-399.785592	-399.784647	-399.825997	27.571	
C	 0.2283205131	 1.4994910769	-0.0216592626	-0.521849
C	 0.1088479138	 0.0066857816	-0.0329774412	 0.079718
C	-0.0093036139	-0.8384981272	-1.0988683003	 0.305674
C	-0.0381563255	-0.6270409171	-2.5831167089	-0.180255
O	 0.9269543488	 0.3153207592	-3.0253806664	-0.40022
O	-0.1021030058	-2.1152534719	-0.6735028923	-0.210521
N	-0.054782817	-2.141924183	 0.7147038595	-0.143504
C	 0.0718495618	-0.8889967233	 1.0744501036	-0.028878
H	 1.0368320704	 1.8279708847	 0.6399203213	 0.131228
H	 0.4375212463	 1.8723404037	-1.0258113163	 0.152499
H	-0.6928382722	 1.9739343403	 0.3357825232	 0.135128
H	 0.0741933767	-1.6032717118	-3.0752565329	 0.124624
H	-1.0059379035	-0.2170477136	-2.8918533969	 0.137556
H	 1.794962901	-0.0078148253	-2.7605054594	 0.290094
H	 0.1360344759	-0.6519464333	 2.1281726698	 0.128707
59.7364	127.8002	168.2474	231.1189	269.529	355.8265	359.3426	428.1008	639.2876	654.1346	681.5594	750.3278	912.9828	931.7674	956.4818	971.2226	1009.7999	1069.865	1073.576	1176.559	1198.8827	1207.8508	1260.212	1369.5679	1402.8794	1420.9955	1427.651	1489.8269	1495.8393	1500.9824	1511.839	1670.6004	3013.6831	3034.3237	3070.1766	3085.0797	3137.8642	3233.6044	3809.9219
CC1=C(CO)ON=C1	Cc1c(CO)onc1	
InChI=1S/C5H7NO2/c1-4-2-6-8-5(4)3-7/h2,7H,3H2,1H3	InChI=1S/C5H7NO2/c1-4-2-6-8-5(4)3-7/h2,7H,3H2,1H3
