19
gdb 106713	2.49055	1.50409	1.16966	0.5434	74.63	-0.2427	0.0622	0.3049	1137.5491	0.156664	-422.966179	-422.957332	-422.956388	-422.999686	33.325	
C	 0.3185959715	 1.4295687903	 0.2729472462	-0.379644
C	-0.2118727479	 0.0439049027	-0.1226337035	-0.304391
C	 0.425142284	-0.4810270142	-1.3703479135	 0.339591
O	 1.7992047229	-0.9255357426	-1.321531481	-0.3265
C	 0.8013217388	-1.8513471575	-1.7989603096	 0.305738
C	 0.6604658156	-3.1810129188	-1.1354514787	-0.507787
C	 0.5105076045	-1.4695035463	-3.252214753	-0.054067
O	-0.8556887518	-1.0263907395	-3.3179972469	-0.242573
C	 0.1399476075	-0.1109622875	-2.8290850454	-0.057265
H	 1.3986027648	 1.3943345196	 0.4422260036	 0.135677
H	 0.1238064375	 2.1687106168	-0.5111669421	 0.118644
H	-0.1610254245	 1.7820514191	 1.1904971484	 0.116259
H	-0.0322460371	-0.6670379364	 0.6913165361	 0.10957
H	-1.2960227689	 0.0833375711	-0.2825994747	 0.116875
H	 0.6916089635	-3.0765426298	-0.0478487933	 0.134756
H	-0.2890059492	-3.644760661	-1.4199713926	 0.138905
H	 1.4722291828	-3.8537503112	-1.4333278003	 0.133192
H	 0.9798922714	-1.8011537868	-4.1702340467	 0.111283
H	 0.2624385847	 0.828848262	-3.352912383	 0.111738
72.6302	137.3689	181.7015	197.5969	215.9408	254.9434	274.1032	395.3406	472.6633	556.8903	600.1176	620.9454	719.5435	738.4072	791.0831	838.8105	857.9121	878.4898	908.4223	966.9346	976.5914	995.5273	1051.0309	1091.3236	1095.481	1125.8644	1179.4805	1200.1748	1243.5855	1293.4271	1320.9241	1347.6288	1363.6178	1408.2951	1411.7906	1469.6215	1473.8641	1489.4969	1498.3769	1498.8045	1514.0057	3034.9884	3037.9184	3039.7922	3074.1416	3101.8126	3108.9264	3119.8132	3123.5597	3191.7245	3206.1798
CCC12OC1(C)C1OC21	CC[C@@]12O[C@]1(C)[C@H]1O[C@@H]21	
InChI=1S/C7H10O2/c1-3-7-5-4(8-5)6(7,2)9-7/h4-5H,3H2,1-2H3	InChI=1S/C7H10O2/c1-3-7-5-4(8-5)6(7,2)9-7/h4-5H,3H2,1-2H3/t4-,5+,6+,7-/m0/s1
