13
gdb 20766	3.58128	1.90093	1.25142	2.3818	67.99	-0.2446	-0.0254	0.2192	902.6854	0.094569	-361.435317	-361.42804	-361.427096	-361.46691	26.541	
C	-0.0374497919	 1.4952505836	 0.0217394886	-0.504977
C	-0.0136338404	 0.0035168059	 0.021165358	 0.308107
N	-0.0328807581	-0.6735386505	-1.0983883963	-0.188647
O	-0.0014942957	-2.0237726069	-0.7354138778	-0.163083
C	 0.0355947476	-2.1145482269	 0.5939807132	-0.015682
C	 0.0310848636	-0.8738712707	 1.1627856969	-0.040655
C	 0.0620137382	-0.5166109498	 2.5270993411	 0.247002
C	 0.0877113351	-0.1811951641	 3.6831484839	-0.448242
H	 0.8516285155	 1.8949397827	 0.5195824254	 0.14741
H	-0.0718357595	 1.871296991	-1.0019381395	 0.152707
H	-0.9098485137	 1.8667907899	 0.5684765604	 0.1474
H	 0.0626497229	-3.1095154397	 1.0100032311	 0.163086
H	 0.1106222063	 0.1059527154	 4.705201865	 0.195574
114.1716	131.5182	177.4431	272.3957	319.4559	478.2536	524.0435	569.7409	578.3948	610.8816	665.5121	702.7748	702.9724	849.6799	897.2895	933.619	1029.2544	1068.333	1164.7765	1192.1907	1295.728	1386.9801	1424.1667	1473.84	1478.0688	1530.0123	1630.6721	2238.6648	3046.9085	3104.485	3146.4824	3269.8172	3502.5187
CC1=NOC=C1C#C	Cc1nocc1C#C	
InChI=1S/C6H5NO/c1-3-6-4-8-7-5(6)2/h1,4H,2H3	InChI=1S/C6H5NO/c1-3-6-4-8-7-5(6)2/h1,4H,2H3
