19
gdb 112067	2.04115	1.52683	0.95301	0.9126	82.33	-0.2412	0.0218	0.263	1239.421	0.158666	-385.859491	-385.850394	-385.84945	-385.893444	34.183	
O	-0.0654401313	 1.4402356637	-0.3151779488	-0.42708
C	 0.015357722	 0.0276002753	-0.4537324327	-0.086143
C	-1.3010261827	-0.5486803596	 0.0779385431	-0.04436
C	-2.4873105268	-0.0756639705	-0.7328352395	-0.059742
C	-3.0081350045	-1.039773522	-1.4885085727	-0.077061
C	-2.2881938641	-2.354119803	-1.3193121505	-0.262103
C	-1.4271805758	-2.1087649222	-0.0401385962	-0.198888
C	-0.1783599208	-2.8563715519	-0.0099948328	 0.323645
C	 0.8454955884	-3.4876601492	 0.0074853248	-0.467655
H	 0.7578301991	 1.819633146	-0.6351766061	 0.286883
H	 0.1520372571	-0.2649055906	-1.506604373	 0.089578
H	 0.8578235187	-0.3850109911	 0.1186695892	 0.098242
H	-1.3768574358	-0.2402132965	 1.1271144828	 0.088386
H	-2.806502618	 0.9588818374	-0.715402807	 0.108006
H	-3.831194486	-0.9156073011	-2.1837341774	 0.093693
H	-2.9588732938	-3.2101923933	-1.1906714878	 0.110818
H	-1.657734855	-2.5805295347	-2.1888004656	 0.117463
H	-2.0326098789	-2.4301581358	 0.815653097	 0.113771
H	 1.7485441382	-4.045730311	 0.0266501731	 0.192549
77.0528	110.4155	132.0793	197.0915	227.4224	260.1178	310.9494	375.4423	482.5741	504.6025	547.4867	617.7834	632.7513	665.5922	747.8376	774.2492	809.7796	882.0212	961.8985	974.2983	986.381	1040.8156	1049.0109	1066.7521	1077.232	1110.542	1133.3048	1162.3276	1224.3326	1239.3908	1286.4271	1299.8692	1315.4931	1343.503	1350.3454	1370.0909	1452.8495	1492.7716	1519.4201	1688.1413	2231.0145	2978.8811	3019.2611	3025.3224	3029.6856	3045.6809	3069.2969	3187.6731	3221.0352	3504.6385	3833.49
OCC1C=CCC1C#C	OC[C@H]1C=CC[C@H]1C#C	
InChI=1S/C8H10O/c1-2-7-4-3-5-8(7)6-9/h1,3,5,7-9H,4,6H2	InChI=1S/C8H10O/c1-2-7-4-3-5-8(7)6-9/h1,3,5,7-9H,4,6H2/t7-,8-/m1/s1
