20
gdb 72909	2.67519	1.80379	1.40578	2.7129	77.12	-0.2289	0.0705	0.2994	995.8132	0.173176	-403.115288	-403.107824	-403.10688	-403.146749	30.529	
C	-0.3607029446	 1.4712892409	 0.0079108913	-0.472875
C	 0.0747229778	 0.013202161	-0.0571836626	 0.282935
C	-1.0059450672	-0.9850570991	 0.4396796085	-0.11436
O	-0.266986155	-1.2584048038	 1.651451946	-0.292639
C	 0.8740960685	-0.5229229909	 1.1686475328	 0.100324
C	 2.0058950804	-1.3657186054	 0.6052203741	-0.066316
N	 1.5233457378	-2.4810893842	-0.236577958	-0.326591
C	 2.0046523739	-1.2507113779	-0.8833465936	-0.033783
C	 0.8740506809	-0.3372285795	-1.334683266	-0.293894
H	 0.4990741041	 2.145984674	-0.0746556651	 0.112144
H	-1.0520671045	 1.7122058671	-0.8081883836	 0.116548
H	-0.8704975207	 1.6878703725	 0.9524852951	 0.123826
H	-1.9882720516	-0.5471849623	 0.6569891433	 0.087112
H	-1.1226017783	-1.8847510779	-0.1725722782	 0.110987
H	 1.2344816277	 0.2013483498	 1.9090858538	 0.06474
H	 2.9232434298	-1.4972383835	 1.1697281572	 0.082457
H	 2.2413269941	-3.1994333951	-0.2800760599	 0.232419
H	 2.9270207726	-1.2840442999	-1.4558689231	 0.084115
H	 0.2481474693	-0.8130645603	-2.0975355661	 0.107839
H	 1.2943334853	 0.5729882245	-1.7780525759	 0.095013
141.052	232.0553	245.635	253.258	336.3387	371.7559	403.337	496.0921	627.973	665.2434	686.2564	797.3198	853.6194	870.659	876.1831	899.7573	932.453	941.5634	968.7913	985.6723	994.5454	1019.8178	1033.7334	1082.6247	1122.0399	1137.8122	1154.8278	1163.3571	1190.2323	1227.6962	1251.6045	1263.4707	1279.0481	1321.1489	1352.648	1366.9731	1377.4203	1411.2792	1426.9003	1480.7408	1494.2414	1496.9702	1513.1861	3015.7257	3021.2337	3033.4873	3037.4719	3075.0805	3081.1467	3085.8711	3097.6353	3149.7391	3164.7732	3506.0197
CC12COC1C1NC1C2	C[C@]12CO[C@H]1[C@H]1N[C@H]1C2	
InChI=1S/C7H11NO/c1-7-2-4-5(8-4)6(7)9-3-7/h4-6,8H,2-3H2,1H3	InChI=1S/C7H11NO/c1-7-2-4-5(8-4)6(7)9-3-7/h4-6,8H,2-3H2,1H3/t4-,5-,6-,7-/m0/s1
