17
gdb 26597	2.28106	1.844	1.0281	6.7339	79.79	-0.2025	-0.0028	0.1997	1114.6699	0.137711	-418.074966	-418.066455	-418.065511	-418.107767	32.423	
C	-0.0165181281	 1.5264173285	-0.0028264312	-0.523869
C	 0.0186274131	 0.0217061781	 0.0160410728	 0.08689
C	-0.0111308972	-0.6820347532	-1.2722737352	 0.32843
O	-0.0532100323	-0.0912544132	-2.3520089419	-0.411375
C	-0.0100567971	-2.1441624256	-1.1789928235	-0.238457
C	 0.037651222	-2.7726694589	 0.0121875542	 0.011861
N	 0.0638109097	-2.0604194802	 1.1855923663	-0.380297
C	 0.0653441609	-0.6837129097	 1.1843509699	 0.316861
N	 0.1697890843	-0.1158429092	 2.4564769164	-0.587259
H	-0.4587391166	-0.518796968	 3.1414220475	 0.248324
H	 0.0685784288	 0.8889663744	 2.4402068831	 0.262346
H	 0.9272576701	 1.9751590494	 0.333125035	 0.121239
H	-0.1877356841	 1.843159307	-1.0335089187	 0.164043
H	-0.8201796182	 1.935274325	 0.6240931194	 0.105993
H	-0.046363839	-2.7094467665	-2.1014500039	 0.107991
H	 0.0517358662	-3.8500180456	 0.1259923332	 0.128527
H	 0.2657180976	-2.5350688524	 2.0501812065	 0.258751
108.9152	129.2708	197.8512	240.4579	287.1217	307.5313	354.5948	422.345	488.0267	505.0689	533.5181	550.9075	620.5422	679.8044	730.7835	762.3004	839.5757	849.2596	925.062	947.7275	1052.6913	1059.0352	1092.6761	1153.5749	1214.6694	1252.7025	1280.301	1362.5542	1395.706	1426.8306	1485.6447	1504.7569	1551.6282	1631.4585	1653.8306	1695.6007	1710.7185	3006.0138	3051.4256	3131.3618	3199.7192	3223.4164	3536.6189	3645.6109	3648.7752
CC1=C([O-])C=CNC1=[NH2+]	Cc1c(=O)cc[nH]c1N	
InChI=1S/C6H8N2O/c1-4-5(9)2-3-8-6(4)7/h2-3H,1H3,(H3,7,8,9)	InChI=1S/C6H8N2O/c1-4-5(9)2-3-8-6(4)7/h2-3H,1H3,(H3,7,8,9)
