20
gdb 99976	2.70489	1.11089	0.96734	3.8897	74.89	-0.2788	0.0112	0.29	1282.0559	0.167661	-440.291923	-440.281078	-440.280134	-440.327284	39.284	
C	-0.0560806047	 1.575177008	 0.0900250731	-0.441495
C	-0.0155247438	 0.0383175972	 0.0475555676	 0.227391
C	 0.738270071	-0.5115831634	 1.2707047825	-0.43132
C	-1.4483549408	-0.5267108857	 0.0244085217	-0.098263
O	-2.115466892	-0.0987488622	 1.2016736148	-0.427002
C	 0.6806247805	-0.4602520501	-1.2529443773	-0.031757
O	 0.0232291198	-0.0720376798	-2.4474774813	-0.420914
C	 2.1019350604	-0.0555958274	-1.2969133587	 0.267412
N	 3.2022196786	 0.2939926053	-1.3510251072	-0.330654
H	 0.9527798771	 1.9987524619	 0.1052735919	 0.133514
H	-0.5942213424	 1.9897670557	-0.7703327437	 0.10276
H	-0.5846453685	 1.9043909569	 0.9862940035	 0.146501
H	 0.1886091054	-0.2650000967	 2.1810511236	 0.143524
H	 0.8316134006	-1.6026715959	 1.2208931458	 0.111397
H	 1.7437239775	-0.088366351	 1.344025234	 0.136536
H	-1.9638579726	-0.1762411232	-0.8791346534	 0.103716
H	-1.4019588456	-1.627664917	-0.023887812	 0.083574
H	-3.0336266667	-0.3772221582	 1.1457296538	 0.292346
H	 0.653375152	-1.556482687	-1.2580185529	 0.134687
H	 0.1355283145	 0.8785790227	-2.5594832261	 0.298046
69.666	114.4169	134.9191	211.4436	217.4026	228.5529	237.9827	251.9671	281.3207	325.8199	337.7503	347.9027	395.1206	435.0885	469.3507	608.1934	646.1481	761.5279	853.9721	938.1888	963.1372	966.6919	977.2312	1043.066	1074.0499	1095.1967	1175.9573	1204.8385	1228.0792	1264.1854	1283.4449	1298.5273	1342.9366	1396.8797	1410.854	1418.8483	1458.5135	1484.1475	1496.3045	1500.9856	1518.1674	1526.6212	2352.2771	2960.9373	3032.5152	3035.2734	3037.5289	3048.3213	3100.0728	3106.6428	3135.6475	3139.2726	3810.6583	3840.0192
CC(C)(CO)C(O)C#N	CC(C)(CO)[C@@H](O)C#N	
InChI=1S/C6H11NO2/c1-6(2,4-8)5(9)3-7/h5,8-9H,4H2,1-2H3	InChI=1S/C6H11NO2/c1-6(2,4-8)5(9)3-7/h5,8-9H,4H2,1-2H3/t5-/m0/s1
