19
gdb 72238	2.55505	1.90329	1.33981	1.7594	73.95	-0.2197	0.0597	0.2794	987.0147	0.160362	-423.001301	-422.993666	-422.992722	-423.03269	31.664	
O	-0.0989012456	 1.3627424378	 0.1490433162	-0.473244
C	 0.0317297846	-0.0188743536	 0.0246214222	 0.306966
C	 0.8375068098	-0.7674445472	-1.0232556053	-0.314669
C	-0.1587116834	-1.9652694094	-0.8214907913	-0.04263
C	 0.3689003372	-2.9722662209	 0.2180128871	-0.206072
C	 0.5133457056	-2.1410219838	 1.5205411484	-0.284449
C	-0.298274528	-0.8846539971	 1.2365245014	 0.403605
O	-0.7961881509	-0.2008242438	 2.3396923863	-0.498773
C	-1.1093597481	-1.018568208	-0.0376920258	-0.220119
H	 0.7409978167	 1.7132560343	 0.471331037	 0.288908
H	 0.7173374153	-0.3103189924	-2.0096625444	 0.107045
H	 1.901877295	-0.9559213182	-0.8359563617	 0.084703
H	-0.5315103154	-2.4151017771	-1.7409349609	 0.074029
H	-0.3638516042	-3.7741159293	 0.3577309049	 0.100853
H	 1.3083394906	-3.4377480273	-0.0960303461	 0.094889
H	 0.0973583671	-2.6568044441	 2.3910895374	 0.110621
H	 1.5582128269	-1.9090343185	 1.754577818	 0.094661
H	-0.8720625879	 0.7270817412	 2.0769187762	 0.280137
H	-2.1784683854	-0.8828626227	-0.1304999495	 0.093539
191.1898	217.7666	260.1092	271.5335	340.4565	385.6024	430.0803	453.2919	498.2396	582.3589	630.0042	658.7951	728.9389	759.224	823.5627	853.0798	879.1636	925.2957	947.1381	966.5599	978.8796	1035.9693	1057.9701	1084.8831	1135.5058	1140.2636	1165.2452	1178.7337	1224.7124	1228.9429	1251.9609	1271.6435	1284.1178	1323.6929	1338.424	1352.8733	1387.1029	1447.6132	1486.8248	1497.21	1511.448	3023.3587	3038.9575	3045.9861	3077.4455	3089.014	3094.3264	3116.2677	3207.6139	3740.8614	3770.3515
OC12CC3CCC1(O)C23	O[C@@]12C[C@H]3CC[C@]1(O)[C@@H]23	
InChI=1S/C7H10O2/c8-6-2-1-4-3-7(6,9)5(4)6/h4-5,8-9H,1-3H2	InChI=1S/C7H10O2/c8-6-2-1-4-3-7(6,9)5(4)6/h4-5,8-9H,1-3H2/t4-,5+,6+,7-/m1/s1
