19
gdb 111774	3.29808	1.02327	0.89594	2.8769	71.77	-0.2345	0.0639	0.2983	1327.5112	0.158128	-460.09732	-460.087985	-460.087041	-460.131979	33.939	
O	-0.0057599274	 1.3671709657	-0.4202861801	-0.417324
C	 0.0494698433	 0.0626850593	 0.1406346061	-0.096858
C	-1.3123688206	-0.5939758725	 0.1613108035	-0.140251
C	-1.8953938367	-1.3210178863	-1.01751435	 0.041923
O	-0.8825598513	-1.9883263144	-1.7738413173	-0.289834
C	-0.589091508	-2.850256922	-0.6381397453	-0.142114
C	-1.5757205822	-2.0894727027	 0.2493284465	 0.258952
C	-2.4548356495	-2.7232669665	 1.2796408172	-0.203956
O	-3.0674899214	-3.8720003184	 0.7068916316	-0.416926
H	-0.2830285671	 1.2677252595	-1.3371990665	 0.286831
H	 0.7689755703	-0.5675189404	-0.3970085924	 0.103992
H	 0.4210482792	 0.1950122253	 1.1622443643	 0.107992
H	-2.0622188931	-0.0181101075	 0.7019373525	 0.094343
H	-2.8300016892	-1.0862293004	-1.5143240134	 0.107517
H	-0.9276846847	-3.870696253	-0.8385908668	 0.128433
H	 0.4736013866	-2.8474459051	-0.3709832765	 0.102283
H	-1.854838328	-2.9987646127	 2.1630888752	 0.092818
H	-3.206919675	-1.9924725564	 1.6170729651	 0.092136
H	-3.5088268254	-4.3586288714	 1.4093110662	 0.290045
61.1115	75.5978	154.7678	178.3582	234.6833	248.883	298.7217	317.978	348.0901	374.0319	583.3771	596.1163	649.2782	761.3022	823.1534	914.8577	924.4355	956.5691	994.8135	1000.2212	1037.0306	1056.8874	1067.5236	1074.0213	1094.7323	1127.685	1160.429	1201.9597	1213.5787	1239.1677	1271.6154	1286.6926	1322.1671	1341.9463	1398.433	1417.5596	1448.7427	1491.8667	1496.9666	1512.4845	1517.9497	2959.1453	2988.9181	3024.703	3036.327	3075.0416	3097.5418	3130.4479	3179.8357	3812.2176	3830.2374
OCC1C2OCC12CO	OC[C@H]1[C@H]2OC[C@@]12CO	
InChI=1S/C6H10O3/c7-1-4-5-6(4,2-8)3-9-5/h4-5,7-8H,1-3H2	InChI=1S/C6H10O3/c7-1-4-5-6(4,2-8)3-9-5/h4-5,7-8H,1-3H2/t4-,5+,6-/m0/s1
