19
gdb 126571	4.65964	0.80817	0.72424	1.6698	78.58	-0.2741	-0.0135	0.2606	1616.6369	0.158678	-419.236949	-419.227528	-419.226583	-419.272439	32.934	
C	 0.089861456	 1.4859608961	 0.0628639869	-0.382211
C	 0.004116971	-0.0414816725	 0.0470263202	-0.165692
C	-1.4453525575	-0.5459390819	-0.0743727439	-0.298488
C	-1.5393260468	-2.0349202254	-0.033487775	 0.351367
N	-1.9731423707	-2.7416156785	-1.0436972225	-0.180014
O	-1.8816404253	-4.064686967	-0.5799696996	-0.196356
C	-1.3983256189	-3.9986500913	 0.6672652828	 0.410118
C	-1.1997736502	-5.2710332549	 1.4092738808	-0.495689
N	-1.165660279	-2.7846808406	 1.0656778192	-0.344647
H	 1.1278818752	 1.8215863227	 0.146775563	 0.115643
H	-0.3272748161	 1.9181158143	-0.8534650993	 0.117153
H	-0.4655231503	 1.9051886906	 0.9092356173	 0.116799
H	 0.5906786375	-0.4401132177	-0.789380342	 0.106513
H	 0.445353673	-0.4537780817	 0.9609314907	 0.121095
H	-2.039713992	-0.1391354307	 0.7531503311	 0.121598
H	-1.8973243755	-0.1950037522	-1.0069103273	 0.125135
H	-0.504069006	-5.9247394481	 0.8746729039	 0.157692
H	-0.8009909794	-5.050911251	 2.3991757317	 0.162051
H	-2.1467985952	-5.80954322	 1.5112940619	 0.157932
56.5194	72.8382	84.0947	102.3676	228.1781	242.3969	279.9813	315.0409	385.3964	423.7545	644.9491	674.7201	729.4911	754.4675	808.0287	878.7884	902.5969	918.911	997.037	1019.0526	1046.9351	1069.7783	1072.6301	1110.4509	1115.9802	1253.1823	1298.822	1309.2939	1324.7953	1378.4368	1395.8519	1411.2083	1412.6158	1474.0971	1476.4568	1476.7256	1493.5311	1498.6953	1509.9684	1563.9233	1632.8642	3030.133	3030.7571	3042.1445	3053.8423	3068.6963	3092.7538	3105.1156	3106.317	3112.7648	3164.1224
CCCC1=NOC(C)=N1	CCCc1noc(C)n1	
InChI=1S/C6H10N2O/c1-3-4-6-7-5(2)9-8-6/h3-4H2,1-2H3	InChI=1S/C6H10N2O/c1-3-4-6-7-5(2)9-8-6/h3-4H2,1-2H3
