17
gdb 93993	2.97852	1.33533	0.95912	4.876	70.64	-0.2381	-0.0348	0.2033	1186.0635	0.137147	-455.200392	-455.191774	-455.19083	-455.23401	31.076	
N	-0.0205732743	 1.4727489228	 0.2719140416	-0.511716
C	-0.0431058785	 0.0508448986	-0.0158441439	-0.08393
C	-1.4443089062	-0.5519628241	-0.1587211035	-0.227534
C	-1.1988369228	-1.8320845502	-0.9726305127	-0.189215
N	-0.0501518503	-1.4859745387	-1.8243617921	-0.129003
C	 0.2623237258	-2.2247511729	-2.9614048808	 0.157592
O	 1.1947848513	-2.0396952197	-3.694381633	-0.264366
C	 0.6540169791	-0.371655728	-1.3254748335	 0.407963
O	 1.607438802	 0.1631666473	-1.823672792	-0.330773
H	 0.946489698	 1.7890392895	 0.2563789325	 0.246054
H	-0.4768027116	 1.9755235695	-0.4863720578	 0.229889
H	 0.4924773765	-0.4664006353	 0.7943131333	 0.114831
H	-1.9322939181	-0.748810806	 0.7965646884	 0.125731
H	-2.0791714714	 0.1367548532	-0.7283428653	 0.116675
H	-0.9499810713	-2.6761647581	-0.3171162002	 0.125732
H	-2.0567250474	-2.1215940485	-1.5847273087	 0.130253
H	-0.4833776308	-3.0319035193	-3.1177482923	 0.081816
64.8841	134.7916	191.7776	194.4424	230.5438	239.5653	282.6393	390.8074	458.7467	510.0142	567.1721	675.4004	718.5796	783.0016	872.2239	925.1775	974.3227	988.9465	1030.402	1043.7868	1083.6779	1157.245	1187.3195	1194.3753	1222.2474	1267.4017	1294.9434	1317.257	1342.8452	1386.6053	1416.9117	1454.0091	1492.1225	1524.0565	1667.8797	1801.4929	1877.751	2914.6409	3002.5396	3025.1636	3048.2745	3093.4442	3126.9439	3475.4722	3548.6236
NC1CCN(C=O)C1=O	N[C@H]1CCN(C=O)C1=O	
InChI=1S/C5H8N2O2/c6-4-1-2-7(3-8)5(4)9/h3-4H,1-2,6H2	InChI=1S/C5H8N2O2/c6-4-1-2-7(3-8)5(4)9/h3-4H,1-2,6H2/t4-/m0/s1
