14
gdb 11202	5.03976	1.37319	1.20282	2.6835	64.65	-0.2496	-0.0553	0.1943	960.4716	0.106588	-382.581994	-382.574811	-382.573867	-382.614383	25.508	
O	-0.6182989332	 0.7817667778	 0.7011564703	-0.234244
C	 0.1202137954	 0.9945707354	-0.2243380752	 0.148476
C	 1.3004130482	 1.951347258	-0.1881244745	-0.152863
C	 1.2393822177	 3.0436604988	-1.2840243178	-0.363104
C	 1.4291469589	 4.3741050471	-0.5268438019	 0.387186
O	 1.510266735	 5.4640509142	-1.0386208291	-0.319519
C	 1.4875901796	 4.0465025491	 0.9169466704	-0.188671
C	 1.4100677753	 2.725613606	 1.1041779218	-0.028536
H	-0.0174628824	 0.4829276113	-1.2040962469	 0.088054
H	 2.1912461856	 1.3205240429	-0.3355490835	 0.119981
H	 2.007175009	 2.9379624174	-2.0536132089	 0.140704
H	 0.2723591881	 3.0689606118	-1.7982292053	 0.142466
H	 1.5807242065	 4.8090545831	 1.6792615044	 0.124299
H	 1.4113574062	 2.2187578771	 2.0614313262	 0.135772
50.3644	92.7696	177.1201	272.5611	346.4513	467.3445	519.3536	630.4188	695.0815	715.2799	816.6044	820.317	831.7139	910.8884	997.1443	1008.0325	1035.9316	1079.8379	1119.1837	1167.2211	1184.5737	1243.6299	1272.2083	1303.4583	1361.454	1423.344	1458.6943	1653.0376	1821.7178	1828.8697	2875.8016	2990.3695	3057.9255	3113.1524	3210.4929	3234.1671
O=CC1CC(=O)C=C1	O=C[C@H]1CC(=O)C=C1	
InChI=1S/C6H6O2/c7-4-5-1-2-6(8)3-5/h1-2,4-5H,3H2	InChI=1S/C6H6O2/c7-4-5-1-2-6(8)3-5/h1-2,4-5H,3H2/t5-/m1/s1
