21
gdb 120097	3.99302	0.92282	0.84852	0.857	82.93	-0.2083	0.0772	0.2855	1444.142	0.182028	-386.991008	-386.982336	-386.981392	-387.024854	33.22	
C	-0.687214036	 1.3551347314	 0.2551487322	-0.22862
O	-0.4643963245	-0.0307298008	 0.3320203948	-0.244039
C	 0.7456826761	-0.3532944855	 0.9942286259	-0.116764
C	 0.8492032985	-1.8744636683	 1.0001434016	-0.010652
C	 2.0180373646	-2.7904035211	 0.7436051086	-0.098056
C	 3.341037792	-2.4780123535	 1.4960977174	-0.051017
C	 3.3073370202	-1.2666973914	 2.3881438297	-0.302278
C	 2.6028395637	-2.5231089614	 2.8231983344	-0.051014
C	 1.2747805192	-2.8357998448	 2.0797982587	-0.098059
H	 0.1119222572	 1.8692905641	-0.3031683039	 0.101743
H	-1.6352216821	 1.5069075073	-0.2670715227	 0.125502
H	-0.7542559223	 1.8163936026	 1.2538672252	 0.101743
H	 1.593160694	 0.1098118484	 0.4629962478	 0.097536
H	 0.7286198596	 0.057018623	 2.0170912131	 0.097535
H	-0.0326506306	-2.2682566494	 0.4962385814	 0.108759
H	 1.991504057	-3.5212801952	-0.0555089748	 0.085734
H	 4.27144036	-2.9638158065	 1.2321892003	 0.087499
H	 4.242760774	-1.093585872	 2.9143526896	 0.109358
H	 2.7925849653	-0.3508744474	 2.1329400276	 0.111858
H	 2.8839094007	-3.0485850079	 3.7266231564	 0.087499
H	 0.6035046034	-3.6060516516	 2.4397549768	 0.085734
57.7173	101.7806	141.8543	202.7108	250.0896	291.1303	370.2067	420.8393	461.1449	652.1818	686.0648	703.1875	712.4952	788.4443	865.8318	888.1738	900.8571	909.2108	967.905	1005.2337	1009.1536	1018.2922	1032.9146	1050.2002	1059.9925	1076.9855	1089.0745	1126.9708	1154.5816	1175.587	1185.6998	1210.0091	1237.6757	1260.8989	1274.6706	1295.5479	1328.7306	1340.8083	1393.1257	1451.5066	1479.4229	1484.123	1497.2409	1503.2781	1532.9627	2951.431	2967.8257	2985.719	3006.8205	3110.8705	3123.0548	3133.2842	3172.921	3183.0475	3188.8221	3199.3911	3231.3137
COCC1C2C3CC3C12	COC[C@H]1[C@H]2[C@H]3C[C@H]3[C@@H]12	
InChI=1S/C8H12O/c1-9-3-6-7-4-2-5(4)8(6)7/h4-8H,2-3H2,1H3	InChI=1S/C8H12O/c1-9-3-6-7-4-2-5(4)8(6)7/h4-8H,2-3H2,1H3/t4-,5+,6-,7+,8-
