22
gdb 6890	2.70569	1.40961	1.24285	1.7849	78.56	-0.2511	0.068	0.3191	1137.0534	0.198258	-350.195997	-350.185967	-350.185023	-350.230187	36.991	
C	-0.228239481	 0.9616179288	-1.9593286632	-0.422772
C	-0.0011190251	-0.1984313588	-1.0103715744	-0.054977
C	 1.3567709713	-0.5326925331	-0.4052097312	-0.089618
C	 2.6064739259	 0.2600233905	-0.7114657655	-0.084636
O	 3.2546786161	-0.1991520618	-1.8927085895	-0.420673
C	 0.2271112664	-0.0353667405	 0.480810347	 0.305102
C	 0.2815451025	 1.3471253103	 1.109711306	-0.453167
C	-0.4214777565	-1.0649742908	 1.3911293852	-0.445597
H	 0.4143543405	 1.819823466	-1.7495174491	 0.119646
H	-0.0416949914	 0.6597464798	-2.9970045022	 0.111555
H	-1.2651201531	 1.3122552367	-1.9079345675	 0.121033
H	-0.596470921	-1.0704688895	-1.2738152096	 0.078614
H	 1.572340861	-1.596000899	-0.3207195976	 0.083088
H	 2.398035918	 1.3372158807	-0.7737658383	 0.081432
H	 3.3412359653	 0.1271150521	 0.0906106759	 0.1095
H	 2.6044728271	-0.1706555572	-2.6020522586	 0.280551
H	 0.7085626896	 2.1074229613	 0.4536491299	 0.114746
H	-0.7264022669	 1.6798697096	 1.3850066508	 0.11365
H	 0.8802080951	 1.3303838441	 2.0279632815	 0.116298
H	 0.1306997486	-1.1636871115	 2.3336112119	 0.112952
H	-1.4505070281	-0.7779520499	 1.6398798848	 0.111368
H	-0.4546691945	-2.0523192377	 0.9202214136	 0.111903
76.5069	141.3645	165.3314	191.8862	202.8619	224.7383	265.2136	275.9394	295.8999	338.6946	378.0449	453.2	492.3022	556.8351	687.6993	772.5729	829.9491	938.0167	967.895	978.7766	1000.5983	1012.8987	1039.3239	1061.8495	1079.6596	1129.6003	1149.4803	1171.7628	1179.182	1220.5573	1265.8975	1329.5261	1344.94	1389.7431	1409.9719	1415.9411	1422.6334	1430.8244	1456.4144	1480.7129	1490.5981	1494.3277	1500.4105	1505.8722	1512.7711	1523.4316	3002.8681	3017.0508	3025.9889	3029.4759	3060.5562	3075.1264	3078.2095	3079.7568	3097.5061	3108.5764	3121.3761	3127.2334	3133.3125	3815.4253
CC1C(CO)C1(C)C	C[C@H]1[C@@H](CO)C1(C)C	
InChI=1S/C7H14O/c1-5-6(4-8)7(5,2)3/h5-6,8H,4H2,1-3H3	InChI=1S/C7H14O/c1-5-6(4-8)7(5,2)3/h5-6,8H,4H2,1-3H3/t5-,6+/m0/s1
