19
gdb 77892	2.12559	1.59708	1.38954	1.7486	70.64	-0.2323	0.0544	0.2867	1051.061	0.157531	-460.122855	-460.113548	-460.112604	-460.156295	35.581	
C	-0.2039908805	 1.6026738598	 0.0114584944	-0.436771
C	 0.0340523502	 0.0958595254	 0.0092279251	-0.07709
C	 1.1684917526	-0.5302224389	-0.8863771792	 0.069016
O	 2.1123283807	 0.3595311475	-1.4885257555	-0.431566
C	 1.7478425986	-1.2572438321	 0.3174095212	-0.198546
C	 2.1293121799	-0.2658200537	 1.3825603409	 0.047406
O	 2.7415914624	 0.9672218845	 1.1425975389	-0.437314
C	 0.6731355837	-0.5801078413	 1.2256847909	 0.330721
O	-0.0839326051	-1.1708444189	 2.2227824359	-0.462661
H	 0.7008190998	 2.1507522836	 0.2787467527	 0.13846
H	-0.5542446504	 1.9514902755	-0.9681584894	 0.099527
H	-0.9806547335	 1.8618150864	 0.7388967097	 0.121055
H	-0.8995412177	-0.4284032498	-0.2209798584	 0.082342
H	 0.7656573503	-1.2082004506	-1.6468936651	 0.082307
H	 1.6468115107	 0.9120395417	-2.1255445747	 0.291022
H	 2.1290772096	-2.2709995322	 0.3056452828	 0.093813
H	 2.5488010474	-0.7491382069	 2.2647381835	 0.098935
H	 2.8243148671	 1.0494045275	 0.1812876103	 0.297685
H	 0.0374180143	-0.6696053276	 3.035671226	 0.291659
93.6616	156.2705	196.7594	207.9985	242.0206	260.9421	282.5066	330.0673	367.885	407.9452	498.0402	530.1917	577.3548	636.7139	703.6869	739.8834	796.5272	804.7431	912.8621	938.1994	971.8803	1010.3624	1035.5273	1073.9841	1124.1816	1133.8944	1149.0331	1193.8747	1201.9134	1243.9853	1261.0143	1310.8432	1326.3241	1347.5178	1375.0195	1393.774	1407.701	1441.4181	1481.4707	1495.1338	1509.4563	3025.4739	3031.4416	3054.3386	3085.4179	3117.2381	3140.3835	3187.3442	3712.4133	3810.1513	3811.3739
CC1C(O)C2C(O)C12O	C[C@H]1[C@@H](O)[C@H]2[C@@H](O)[C@@]12O	
InChI=1S/C6H10O3/c1-2-4(7)3-5(8)6(2,3)9/h2-5,7-9H,1H3	InChI=1S/C6H10O3/c1-2-4(7)3-5(8)6(2,3)9/h2-5,7-9H,1H3/t2-,3-,4+,5+,6+/m0/s1
