15
gdb 131265	3.04557	1.34112	0.99018	4.462	68.42	-0.2193	0.0099	0.2291	1142.689	0.113501	-453.926633	-453.918668	-453.917724	-453.959904	29.154	
O	 0.5445538242	 1.3665093119	 0.0885911441	-0.441139
C	 0.2202153203	 0.0479106449	 0.0025770882	 0.16806
C	 0.2589799976	-0.8176043715	-1.0716608895	-0.158238
N	-0.17437655	-2.0141926196	-0.5826718199	-0.181792
N	-0.4915283889	-1.9775076831	 0.7143456094	-0.289409
C	-0.2508960021	-0.7201602416	 1.0950830689	 0.3008
C	-0.4528136249	-0.2536099068	 2.4813783778	-0.035098
C	-1.0974181616	-1.0873183451	 3.5040901737	-0.175229
O	 0.3140317499	-0.8936961461	 3.5212260208	-0.234451
H	 0.8355444465	 1.6830885313	-0.7715335964	 0.301326
H	 0.5507601103	-0.6845809148	-2.100868512	 0.129863
H	-0.2812130903	-2.877448103	-1.0867076811	 0.278086
H	-0.5031886683	 0.8288243711	 2.5836373681	 0.100615
H	-1.6505201092	-0.6104275858	 4.3131185414	 0.106643
H	-1.4275069636	-2.0862811919	 3.2272706265	 0.12996
42.3896	155.4223	169.603	220.116	296.735	316.817	435.2207	483.9661	525.3837	626.97	655.4917	709.5051	739.5696	768.6333	834.2526	912.2749	950.2221	1012.5617	1075.1229	1097.6245	1125.3391	1159.9066	1173.4407	1225.4373	1262.9981	1288.683	1337.0426	1405.2125	1434.7978	1491.1101	1521.1912	1570.5421	1623.5517	3082.2441	3132.1137	3178.395	3261.4683	3679.0768	3840.7148
OC1=CNN=C1C1CO1	Oc1c[nH]nc1[C@H]1CO1	
InChI=1S/C5H6N2O2/c8-3-1-6-7-5(3)4-2-9-4/h1,4,8H,2H2,(H,6,7)	InChI=1S/C5H6N2O2/c8-3-1-6-7-5(3)4-2-9-4/h1,4,8H,2H2,(H,6,7)/t4-/m1/s1
