21
gdb 56635	2.06297	1.39059	1.14149	3.9845	83.13	-0.2368	0.0315	0.2683	1220.7019	0.180554	-383.261512	-383.251282	-383.250338	-383.296388	37.566	
C	-1.7819002585	-2.2772960556	 0.682818663	-0.404234
C	-0.4450335993	-1.6980903207	 0.173381056	-0.204747
C	-0.6807559808	-0.4742836552	-0.6063807872	 0.283721
N	-0.8677007142	 0.4898118527	-1.2163060763	-0.334134
C	 0.5638221568	-1.4337645867	 1.3051027227	 0.345773
C	 0.1211339284	-0.4287725443	 2.3514204427	-0.464126
C	 1.4485041946	-2.5756538688	 1.6948275626	-0.303299
N	 1.9995562046	-1.4070553434	 1.021584944	-0.108792
C	 2.5241974754	-1.557892883	-0.3274523139	-0.330386
H	-2.3075110205	-1.5657556332	 1.3228593129	 0.143923
H	-2.4366194131	-2.5245396708	-0.15649328	 0.136948
H	-1.5899462978	-3.1874199913	 1.2572391577	 0.129468
H	-0.0104451757	-2.4278630936	-0.5168617616	 0.122862
H	-0.7448528453	-0.7873652882	 2.9167731329	 0.118044
H	 0.9404070005	-0.2483159024	 3.0499692111	 0.133272
H	-0.1454589102	 0.5268220998	 1.8873673995	 0.141382
H	 1.7401479529	-2.7207754956	 2.732398765	 0.116779
H	 1.3577495975	-3.4985869318	 1.1199990041	 0.102284
H	 2.0690422357	-2.3717341167	-0.9138678735	 0.099394
H	 2.3936687671	-0.6207258886	-0.8762709104	 0.145942
H	 3.5963702718	-1.7658727825	-0.2574130014	 0.129926
56.1683	125.9743	176.4788	179.4364	205.9542	226.7704	238.2488	261.7934	301.5128	366.9141	398.8999	444.6313	486.3798	539.6327	590.1051	721.5179	764.9312	841.9986	900.3744	924.6034	979.2611	1024.7559	1045.5947	1084.4484	1108.7967	1121.1691	1130.3329	1156.4921	1170.6969	1202.5306	1277.1094	1287.4846	1323.7616	1396.5288	1411.0915	1422.9245	1451.6102	1485.6437	1489.4667	1491.5895	1497.5269	1504.423	1508.5873	1516.2248	2352.8294	2973.9127	3041.0931	3054.1215	3060.7688	3072.1832	3074.5875	3105.9988	3112.6868	3128.4689	3133.8095	3140.4145	3163.004
CC(C#N)C1(C)CN1C	C[C@@H](C#N)[C@@]1(C)CN1C	
InChI=1S/C7H12N2/c1-6(4-8)7(2)5-9(7)3/h6H,5H2,1-3H3	InChI=1S/C7H12N2/c1-6(4-8)7(2)5-9(7)3/h6H,5H2,1-3H3/t6-,7+,9?/m0/s1
