16
gdb 29292	5.58379	0.99212	0.89747	2.1808	73.84	-0.201	0.0018	0.2028	1274.9784	0.126546	-434.068194	-434.060316	-434.059372	-434.100964	29.562	
N	-0.0283901497	 1.3879578336	-0.1528162587	-0.59871
C	-0.0333574052	 0.0088948333	 0.0072251411	 0.26074
C	-1.0350396977	-0.8485849109	 0.3384650296	-0.127981
O	-0.477154644	-2.1116234481	 0.4387498388	-0.196698
C	 0.8304063907	-1.9309340757	 0.1598061771	 0.417933
N	 1.153413293	-0.7017275773	-0.1086936152	-0.360275
C	 1.7138988658	-3.1032287376	 0.176199361	-0.10173
C	 1.4958346794	-4.1905345397	 1.175432233	-0.232485
N	 1.2004110155	-4.4246943849	-0.240110318	-0.318037
H	 0.75200039	 1.6936257423	-0.718380584	 0.256981
H	-0.8990017229	 1.7724350332	-0.4911566888	 0.248856
H	-2.08994875	-0.7689176487	 0.5267800235	 0.132177
H	 2.7204185672	-2.8759103298	-0.1568874285	 0.118895
H	 2.355381795	-4.7295271619	 1.5633962298	 0.127462
H	 0.6702631803	-4.0694325334	 1.8703917373	 0.128721
H	 0.1966669225	-4.3520487844	-0.3929954578	 0.244151
60.7611	152.7277	170.5742	242.1758	315.3474	329.4278	421.7495	482.6719	628.5208	637.8953	655.6327	719.5477	742.5953	772.845	818.7536	882.7773	965.8512	980.3866	995.997	1020.9204	1097.869	1101.9959	1125.0266	1141.092	1173.0157	1256.6686	1266.5385	1300.1507	1354.6227	1377.3864	1407.5802	1502.5933	1611.9061	1637.6554	1675.1491	3115.3941	3180.0044	3207.2391	3306.2499	3499.4116	3556.8306	3655.8298
NC1=COC(=N1)C1CN1	Nc1coc(n1)[C@H]1CN1	
InChI=1S/C5H7N3O/c6-4-2-9-5(8-4)3-1-7-3/h2-3,7H,1,6H2	InChI=1S/C5H7N3O/c6-4-2-9-5(8-4)3-1-7-3/h2-3,7H,1,6H2/t3-/m1/s1
