16
gdb 98108	3.78568	1.01508	0.82239	3.3889	68.66	-0.2573	-0.0814	0.1759	1343.963	0.122004	-475.021239	-475.012021	-475.011077	-475.056279	31.937	
O	 0.1137155177	 1.3164903561	 0.0190389987	-0.423777
C	 0.0033027031	-0.0749180947	 0.0744350854	-0.118809
C	-1.4400405348	-0.5082618126	 0.2108521198	 0.255962
O	-2.3354014461	 0.3062643012	 0.25191503	-0.312705
C	-1.6915256478	-2.0245649822	 0.2575733075	 0.293055
O	-0.7895372439	-2.8021181949	 0.0227908794	-0.330706
N	-2.9510803424	-2.3815572686	 0.6605305587	-0.060288
C	-4.2236246821	-2.0657170021	 0.0509758451	-0.211848
C	-3.7283940427	-3.4829127524	 0.1471561034	-0.228129
H	-0.7903163605	 1.6580918369	 0.0916679277	 0.293605
H	 0.4205304863	-0.5557584821	-0.823388561	 0.139747
H	 0.5661034765	-0.4972614028	 0.9226394693	 0.135223
H	-4.9965413837	-1.7145473182	 0.727615104	 0.140945
H	-4.2093826037	-1.5836839004	-0.9216960269	 0.144262
H	-3.3591796911	-3.965731453	-0.7536124377	 0.144622
H	-4.1539124949	-4.1491914702	 0.8914002665	 0.138839
42.3496	94.9275	114.4188	149.7347	185.5678	243.839	329.2153	346.679	372.9849	434.1456	493.0144	665.8613	705.646	799.9413	804.6021	868.066	987.6266	1000.5521	1026.7167	1054.0201	1130.0565	1137.4606	1141.1096	1166.522	1171.9348	1223.9594	1224.3333	1313.5647	1436.384	1445.6413	1471.5064	1496.8353	1526.0558	1771.2955	1795.1595	2990.7202	3012.9775	3118.8489	3125.0683	3204.9617	3218.8479	3710.2231
OCC(=O)C(=O)N1CC1	OCC(=O)C(=O)N1CC1	
InChI=1S/C5H7NO3/c7-3-4(8)5(9)6-1-2-6/h7H,1-3H2	InChI=1S/C5H7NO3/c7-3-4(8)5(9)6-1-2-6/h7H,1-3H2
