22
gdb 10860	3.36074	1.58469	1.36353	1.1788	77.93	-0.2412	0.0812	0.3224	1040.1699	0.201467	-350.229903	-350.221544	-350.2206	-350.262108	32.665	
C	-0.2018927289	 1.5546536542	 0.048409281	-0.387616
C	 0.0068131116	 0.0346752914	 0.0053152355	 0.02214
C	 0.727995087	-0.4378445673	-1.2739314546	-0.223725
C	 2.2215108366	-0.0744712769	-1.250704204	-0.195177
C	 2.8731211297	-0.530480879	 0.060735668	 0.157259
C	 4.3173137156	-0.0747954873	 0.2056849561	-0.402332
O	 2.1578885665	-0.0146157965	 1.1805190225	-0.261266
C	 0.8108224938	-0.4541636338	 1.2197584205	-0.07373
H	 0.7519346148	 2.0836956097	 0.1230131373	 0.127673
H	-0.7209536548	 1.9090903767	-0.8482690783	 0.106606
H	-0.8037463801	 1.8399300207	 0.9179465861	 0.109343
H	-0.9779570949	-0.4497247111	 0.0456317094	 0.065069
H	 0.6306786695	-1.5292558426	-1.350892299	 0.090062
H	 0.2445455249	-0.0185785852	-2.1636224856	 0.09073
H	 2.7394815201	-0.5373671241	-2.098868246	 0.09046
H	 2.3555354933	 1.0096026336	-1.3494371764	 0.100598
H	 2.8346281852	-1.6354697429	 0.1017805343	 0.055906
H	 4.3763047744	 1.017918198	 0.1789851357	 0.120725
H	 4.732405573	-0.415840335	 1.1579012125	 0.120919
H	 4.9310239771	-0.4752756531	-0.6069773459	 0.110932
H	 0.3916667691	-0.0651882078	 2.15362029	 0.097754
H	 0.7778241663	-1.5568530417	 1.2681083809	 0.077669
109.2669	196.6772	203.6185	232.0988	248.8377	302.7873	372.5708	377.4664	475.6187	479.3044	496.1927	684.4343	770.9608	805.3571	862.6173	878.8792	941.092	951.4075	974.8497	993.376	1019.1984	1047.9702	1096.1374	1108.9157	1149.3174	1164.4655	1187.9039	1233.4011	1242.0385	1293.5528	1331.007	1339.2827	1365.0489	1379.772	1381.2342	1396.497	1400.3841	1409.2542	1424.7488	1475.078	1484.0488	1487.8965	1489.9566	1500.3837	1504.025	1510.3758	2923.1045	2951.1904	3008.0641	3021.9089	3027.278	3035.4509	3040.7754	3058.513	3069.4114	3071.4352	3096.0202	3113.1955	3118.3974	3119.738
CC1CCC(C)OC1	C[C@H]1CC[C@@H](C)OC1	
InChI=1S/C7H14O/c1-6-3-4-7(2)8-5-6/h6-7H,3-5H2,1-2H3	InChI=1S/C7H14O/c1-6-3-4-7(2)8-5-6/h6-7H,3-5H2,1-2H3/t6-,7+/m0/s1
