23
gdb 73355	2.32656	1.87723	1.52184	0.1111	87.	-0.2581	0.082	0.3401	1029.0547	0.209442	-351.176936	-351.169302	-351.168358	-351.208501	32.299	
C	-0.0023442648	 1.5229900975	 0.0181750748	-0.465996
C	 0.0052309102	-0.0055654862	 0.0010560818	 0.300732
C	 0.6195858488	-0.5713934781	-1.3098202564	-0.222212
C	-0.0038026397	-1.971687665	-1.5233244124	-0.247577
C	-1.3104253269	-1.9355097334	-0.7329543766	-0.042085
C	-1.2548451309	-1.9521989017	 0.7867535437	-0.042084
C	 0.1059803782	-2.0046575173	 1.4785944323	-0.247577
C	 0.7133279774	-0.5995726578	 1.2507645151	-0.222216
C	-1.4048789174	-0.6456308898	 0.0456304491	-0.099456
H	 1.0170963656	 1.9240286515	-0.0146493269	 0.110303
H	-0.5437805855	 1.9270022798	-0.8442125195	 0.109786
H	-0.4790851377	 1.9074785554	 0.9264583278	 0.109788
H	 0.3264190942	 0.0800089976	-2.141556019	 0.090682
H	 1.7146225961	-0.5851521629	-1.2847218183	 0.086878
H	-0.1960387768	-2.165647615	-2.5826617033	 0.093492
H	 0.6615487873	-2.7720969831	-1.1790514176	 0.097899
H	-2.1988294039	-2.3646282105	-1.1845773585	 0.075368
H	-2.1082328642	-2.3918422736	 1.2925323163	 0.075368
H	-0.0085502254	-2.2218367432	 2.544656443	 0.093492
H	 0.7437159327	-2.7968765748	 1.0692638324	 0.0979
H	 1.8035783082	-0.612011228	 1.1453000516	 0.086881
H	 0.4824141299	 0.0332459606	 2.1157920667	 0.090684
H	-2.2981627654	-0.0327563321	 0.0850316639	 0.069953
107.2692	231.5608	258.0185	278.1623	338.4927	392.482	444.004	531.7262	564.9184	679.8843	689.0551	731.8435	773.6208	798.2244	843.0002	853.8584	892.5896	908.0657	954.3175	956.7258	977.4635	990.2632	1006.0298	1040.5393	1055.0088	1076.2654	1097.5091	1118.9595	1148.6647	1158.8392	1165.6766	1227.7528	1241.6221	1243.7779	1262.5637	1294.5837	1310.0273	1321.8074	1324.6439	1349.2747	1375.6664	1399.3109	1411.8938	1477.375	1495.712	1496.136	1498.823	1499.6436	1520.3889	3021.8123	3026.7943	3031.7312	3031.9488	3036.1877	3066.3523	3070.8259	3080.9265	3085.4089	3088.8994	3093.2297	3152.8751	3159.1893	3174.2413
CC12CCC3C(CC1)C23	C[C@@]12CC[C@H]3[C@@H](CC1)[C@@H]23	
InChI=1S/C9H14/c1-9-4-2-6-7(3-5-9)8(6)9/h6-8H,2-5H2,1H3	InChI=1S/C9H14/c1-9-4-2-6-7(3-5-9)8(6)9/h6-8H,2-5H2,1H3/t6-,7+,8-,9+
