20
gdb 88767	3.23013	1.24825	1.18558	3.1197	78.01	-0.225	0.0703	0.2952	1136.131	0.172089	-403.072675	-403.064696	-403.063752	-403.105304	31.862	
O	-0.6806741061	 0.9408939852	 1.5044638136	-0.434979
C	-0.0838129212	 0.1048290322	 0.5597902972	 0.14462
C	-0.5440729234	-1.3132919076	 0.3627754951	-0.343522
C	-0.8209935995	-0.2612386523	-0.7071190338	-0.097306
C	-2.1708139293	 0.3843280298	-0.9224476025	 0.059033
C	-3.169776675	-0.0323196118	-2.0402299656	-0.297279
C	-4.2136168107	-0.1378293561	-0.9279337422	-0.019021
C	-3.7874518901	-1.146214826	 0.051480125	-0.233118
N	-3.2129913772	 0.2151939719	 0.1650015049	-0.172938
H	-1.6428201978	 0.8282530447	 1.4590501366	 0.297232
H	 0.979529801	 0.3139155871	 0.5025454272	 0.098672
H	 0.1879094202	-2.0830412895	 0.1409694169	 0.109504
H	-1.3634021858	-1.6418992739	 0.9906762523	 0.122957
H	-0.2297802392	-0.3325013615	-1.6172090671	 0.088719
H	-2.0101200477	 1.4657422445	-0.9906856599	 0.103232
H	-3.3475791919	 0.761109228	-2.7672764744	 0.112685
H	-2.9735223571	-0.9662053897	-2.5748777186	 0.107593
H	-5.2099780482	 0.2902435293	-0.9452918364	 0.102478
H	-4.4536384086	-1.3729348773	 0.8779262414	 0.124703
H	-3.1624727324	-1.9732525468	-0.2731343095	 0.126736
63.7799	149.7289	200.2684	268.7382	287.9001	411.9928	439.6325	502.0084	521.1948	627.5752	693.1873	754.5769	763.7048	788.7519	794.5462	839.3894	924.7883	934.9425	960.9239	992.2074	998.7756	1047.7707	1061.3257	1074.7514	1089.8619	1118.143	1120.4031	1133.9435	1137.9442	1146.0489	1180.7034	1225.4023	1231.5015	1265.9552	1294.4713	1354.1243	1357.602	1375.2455	1390.086	1456.2307	1489.0296	1490.0812	1507.7668	3039.7655	3060.7795	3118.6988	3124.1489	3130.0124	3135.8313	3164.0909	3173.2577	3208.1692	3228.9314	3687.6423
OC1CC1C1CC2CN12	O[C@H]1C[C@H]1[C@H]1C[C@H]2CN12	
InChI=1S/C7H11NO/c9-7-2-5(7)6-1-4-3-8(4)6/h4-7,9H,1-3H2	InChI=1S/C7H11NO/c9-7-2-5(7)6-1-4-3-8(4)6/h4-7,9H,1-3H2/t4-,5-,6+,7-,8?/m0/s1
