17
gdb 36471	2.90755	1.08752	0.84906	1.802	80.49	-0.2495	0.0277	0.2772	1335.6167	0.133124	-384.598513	-384.589242	-384.588298	-384.633517	33.586	
C	 0.0975040108	-1.2212424145	-0.1316964244	-0.421245
C	 0.0407944887	-0.0210850478	-0.137096455	 0.294404
C	-0.0079721772	 1.4348252209	-0.1252620032	-0.381471
C	 1.3571647369	 2.0562545283	 0.1748283133	 0.140172
O	 2.3083685253	 1.8626772143	-0.8891228944	-0.277552
C	 2.4290364019	 3.2747920297	-1.131088887	-0.074394
C	 1.4807939808	 3.6122728237	 0.0530951982	-0.269888
C	 0.2950927371	 4.392338979	-0.2284983269	 0.346622
C	-0.6881705528	 5.0401192509	-0.4737614295	-0.469013
H	 0.1434087335	-2.2818650126	-0.1372928865	 0.19473
H	-0.3703771355	 1.8145821137	-1.0871469266	 0.141081
H	-0.7197452544	 1.7832651654	 0.634561168	 0.137281
H	 1.7427011213	 1.6600626677	 1.121570281	 0.093519
H	 3.460056159	 3.6283415031	-1.0200459393	 0.110976
H	 2.0476476684	 3.5631972391	-2.1168470142	 0.114884
H	 2.0159758664	 4.0390482778	 0.9052152391	 0.11648
H	-1.5552513302	 5.6153384112	-0.6866459125	 0.203415
48.9118	68.4524	96.5453	155.3763	210.2178	307.394	341.6429	375.9247	494.0205	511.7054	560.755	619.327	626.9716	641.7258	647.7802	744.2115	830.6323	886.8703	902.6466	972.5003	1009.7096	1035.4355	1058.6453	1090.9107	1129.9073	1164.2068	1200.5492	1232.8421	1266.7057	1315.3758	1347.0632	1365.176	1395.151	1451.8453	1526.0422	2234.0247	2242.2059	3026.3913	3028.8249	3034.9875	3067.974	3073.5565	3083.4939	3502.2978	3507.8771
C#CCC1OCC1C#C	C#CC[C@H]1OC[C@H]1C#C	
InChI=1S/C8H8O/c1-3-5-8-7(4-2)6-9-8/h1-2,7-8H,5-6H2	InChI=1S/C8H8O/c1-3-5-8-7(4-2)6-9-8/h1-2,7-8H,5-6H2/t7-,8-/m1/s1
