19
gdb 100362	2.25489	1.11298	0.9632	2.8881	78.22	-0.2514	-0.0293	0.2221	1311.46	0.154879	-422.99629	-422.985708	-422.984764	-423.032806	37.794	
C	 0.067371574	 1.5620842631	 0.0283909587	-0.42117
C	 0.0283575249	 0.0198776967	 0.050726291	-0.005068
C	 0.8393624703	-0.5038767594	 1.2705532931	-0.074624
O	 0.8601644579	-1.9114466628	 1.3556812221	-0.420276
C	-1.440277391	-0.5089540906	 0.089795156	-0.280956
C	-2.2742762559	 0.0558681707	 1.218400358	 0.139965
O	-3.2787462365	 0.7023811954	 1.0599298726	-0.240741
C	 0.6680454141	-0.5168642975	-1.1551855099	 0.326517
C	 1.2154017398	-0.9934144938	-2.1150270799	-0.473711
H	 1.0958754595	 1.9217801242	-0.0616289027	 0.129138
H	-0.5063005505	 1.9519916225	-0.8161767929	 0.138858
H	-0.3629354034	 1.9726456054	 0.9475928197	 0.127848
H	 1.8544440364	-0.0835873418	 1.2150220656	 0.100349
H	 0.3844483706	-0.1459001395	 2.1989179968	 0.113862
H	 1.2750774033	-2.2383188852	 0.5477217333	 0.288873
H	-1.9454064713	-0.2806039303	-0.8514591908	 0.12616
H	-1.3933815547	-1.5970592184	 0.2168718826	 0.137193
H	-1.911496778	-0.1801932014	 2.2442382201	 0.083512
H	 1.6868923103	-1.3912748474	-2.9800116736	 0.204271
26.8546	66.8057	119.2923	142.8405	191.2913	230.085	254.9247	261.0687	329.155	400.7519	420.4965	456.6537	460.8226	561.2167	604.108	637.7515	652.5876	708.157	829.4767	893.7626	931.4985	961.8071	1017.8807	1056.4627	1090.8774	1146.6794	1159.2204	1186.2857	1250.2814	1269.7494	1326.7285	1383.2892	1410.7765	1426.8294	1434.2046	1458.8823	1487.6625	1497.7643	1506.8724	1827.1195	2223.7455	2875.1191	2997.0117	3041.8027	3046.0299	3086.8531	3113.9974	3118.1356	3126.2609	3497.473	3778.7922
CC(CO)(CC=O)C#C	C[C@@](CO)(CC=O)C#C	
InChI=1S/C7H10O2/c1-3-7(2,6-9)4-5-8/h1,5,9H,4,6H2,2H3	InChI=1S/C7H10O2/c1-3-7(2,6-9)4-5-8/h1,5,9H,4,6H2,2H3/t7-/m0/s1
