17
gdb 37749	3.44915	1.92868	1.49824	1.9035	70.63	-0.236	0.0684	0.3044	873.4985	0.137774	-421.71783	-421.71166	-421.710716	-421.748056	25.994	
C	-0.0529666783	 1.5679110408	-0.0236223311	-0.083934
O	 1.2798042523	 2.0865378403	 0.0643142765	-0.266101
C	 2.1708276324	 1.4320909097	 0.9735144076	-0.203957
C	 1.8379180748	-0.0245245763	 0.8747345359	 0.464492
O	 2.5501783753	-1.2317523714	 1.2359372655	-0.383254
C	 1.2669214703	-1.6877406776	 0.6328717836	 0.016755
C	 0.4341554792	-0.5556201969	 1.2834102477	-0.111571
C	-0.1056677144	 0.0284496803	-0.0405282386	-0.107224
C	 1.2538176673	-0.5825479189	-0.4582325938	-0.101604
H	-0.6701639738	 1.9507434833	 0.8064336639	 0.093529
H	-0.4483033804	 1.9878057929	-0.9534482767	 0.115444
H	 3.1844468915	 1.6604277254	 0.6298515049	 0.126058
H	 2.0518819626	 1.8123880258	 1.9995345806	 0.102044
H	 1.0990433322	-2.7619470581	 0.570663437	 0.097725
H	 0.0080362333	-0.5365471589	 2.2865841404	 0.082266
H	-1.0350745803	-0.3651280791	-0.4604986539	 0.071175
H	 1.757200166	-0.5967801414	-1.4236244794	 0.088157
199.3642	251.73	350.7723	392.4698	483.9584	541.2537	611.4313	731.4687	752.6823	768.5873	823.0144	846.5743	849.6222	885.944	916.507	936.797	979.5034	993.2444	1039.3648	1057.0821	1073.7077	1099.1208	1115.547	1125.4623	1162.4629	1167.6595	1212.9808	1222.9506	1234.5058	1270.7903	1296.0439	1334.0294	1362.1603	1391.9966	1413.7912	1500.4894	1506.6684	2965.8205	2989.6035	3070.3258	3080.0126	3082.7796	3117.2438	3127.9216	3140.1948
C1OCC23OC4C2C1C34	C1OC[C@@]23O[C@H]4[C@@H]2[C@@H]1[C@@H]34	
InChI=1S/C7H8O2/c1-3-4-6-5(3)7(4,9-6)2-8-1/h3-6H,1-2H2	InChI=1S/C7H8O2/c1-3-4-6-5(3)7(4,9-6)2-8-1/h3-6H,1-2H2/t3-,4+,5-,6+,7-
