19
gdb 57474	2.56562	1.3988	1.12516	3.3484	70.71	-0.2742	0.0049	0.2792	1144.528	0.15732	-460.19676	-460.18743	-460.186486	-460.230628	34.931	
C	-0.0308621786	 1.5546094646	-0.0638718777	-0.438889
C	 0.0101955764	 0.0249667216	 0.0459790829	 0.315846
C	 0.7430755607	-0.4229742555	 1.3118313599	-0.399141
O	-1.3145285433	-0.5038161682	 0.1614943977	-0.46214
C	 0.6841810987	-0.5706946131	-1.2067102196	-0.200787
C	 0.6082304046	-2.0912924079	-1.4415889959	-0.11003
O	-0.1389255907	-1.8683575695	-2.6865556172	-0.232674
C	-0.1556732856	-0.5179002272	-2.4886522181	 0.442262
O	-0.718633903	 0.3089570314	-3.1371301359	-0.338752
H	 0.9780187138	 1.9791500957	-0.0693122174	 0.117595
H	-0.5277847519	 1.8628952552	-0.9892837215	 0.14542
H	-0.5756104006	 1.9698905129	 0.7886730253	 0.124672
H	 0.2568067156	 0.0046758895	 2.1927136718	 0.129188
H	 0.7188170646	-1.512138286	 1.4096049327	 0.123654
H	 1.7870104653	-0.0968416082	 1.2957212173	 0.114654
H	-1.8723577243	-0.0608906608	-0.4887321355	 0.293137
H	 1.6829681527	-0.1498428653	-1.3505563775	 0.111517
H	 1.5453027748	-2.6123945325	-1.6422580026	 0.123152
H	-0.0113564693	-2.6377044367	-0.7298305785	 0.141316
72.5605	138.1828	146.322	220.8569	251.5444	271.2982	300.198	336.8043	380.5808	390.8508	453.3884	509.2329	556.5443	653.6424	755.3729	794.791	868.9228	924.7436	938.302	959.2494	972.4582	1010.0542	1022.4621	1078.1778	1127.5666	1142.2288	1172.4851	1191.3457	1221.178	1244.639	1318.6449	1361.2051	1373.4449	1404.0845	1420.9697	1479.6268	1487.6221	1499.4617	1506.2715	1511.7688	1914.9933	3036.9271	3044.8084	3081.6031	3087.4072	3110.0954	3118.2275	3119.6388	3124.9194	3153.1389	3794.8113
CC(C)(O)C1COC1=O	CC(C)(O)[C@H]1COC1=O	
InChI=1S/C6H10O3/c1-6(2,8)4-3-9-5(4)7/h4,8H,3H2,1-2H3	InChI=1S/C6H10O3/c1-6(2,8)4-3-9-5(4)7/h4,8H,3H2,1-2H3/t4-/m0/s1
