17
gdb 98907	3.36109	1.03421	0.97796	4.1917	65.08	-0.2578	-0.0387	0.2191	1257.7771	0.134711	-496.100587	-496.091637	-496.090693	-496.136183	30.998	
O	-0.125137631	 1.3209622259	 0.5501338332	-0.425993
C	-0.3632113942	-0.0461297233	 0.7145872586	-0.13346
C	-1.389995793	-0.5477865491	-0.2831950533	 0.344425
O	-1.8576528187	 0.19663641	-1.1139713948	-0.318948
C	-1.8497472475	-2.0088000192	-0.1832615318	 0.130432
O	-0.7373786271	-2.8466742145	-0.0010093555	-0.260211
C	-1.1758003401	-3.9025387687	 0.8519138181	-0.099491
C	-2.1436278832	-3.1789082009	 1.7864186019	-0.092021
O	-2.6892675015	-2.1515337211	 0.9557251825	-0.272879
H	-0.6824238425	 1.5920373948	-0.1960011783	 0.293513
H	 0.5543120764	-0.6389131128	 0.5791285494	 0.132988
H	-0.732041047	-0.2705703866	 1.7282443015	 0.122859
H	-2.4222534886	-2.2654359515	-1.0878951087	 0.097049
H	-1.6835655511	-4.6852326435	 0.271257033	 0.114111
H	-0.3017086759	-4.3264497643	 1.3488986804	 0.129906
H	-2.9605198638	-3.8100271512	 2.14641913	 0.124319
H	-1.6225528214	-2.738263064	 2.6460491836	 0.113401
32.7496	43.2137	102.5841	170.7426	209.3354	249.4347	328.0816	394.9808	429.8988	552.8477	659.971	675.9293	748.2018	814.4321	898.8166	940.4974	956.3801	1001.4013	1027.4458	1054.029	1121.0746	1136.5773	1152.6721	1211.6442	1223.832	1238.6794	1248.072	1317.3043	1327.1031	1368.8198	1381.2426	1383.658	1447.0589	1488.9883	1511.0588	1522.5922	1813.7829	2988.1343	2995.0294	3010.5822	3012.1912	3023.1695	3096.0897	3124.0795	3697.0591
OCC(=O)C1OCCO1	OCC(=O)C1OCCO1	
InChI=1S/C5H8O4/c6-3-4(7)5-8-1-2-9-5/h5-6H,1-3H2	InChI=1S/C5H8O4/c6-3-4(7)5-8-1-2-9-5/h5-6H,1-3H2
