23
gdb 121118	3.6411	0.81543	0.76556	2.1484	82.87	-0.2425	0.073	0.3155	1618.8692	0.205461	-425.43518	-425.425276	-425.424331	-425.471076	36.68	
C	 0.0615099118	 1.5022123919	 0.1295479895	-0.383494
C	 0.2698239209	 0.0045654051	-0.0253171694	-0.038645
O	 0.5578061003	-0.5380882281	 1.24761386	-0.256196
C	 0.6774807476	-1.9453422644	 1.2716400182	 0.16155
C	 1.9550472439	-2.5071628568	 0.6085150179	-0.228455
C	 2.1723643075	-3.829009301	 1.355046127	-0.237165
C	 1.8946527255	-3.4530444182	 2.823726703	 0.123944
O	 3.0122413807	-2.7854088272	 3.4092432704	-0.437836
C	 0.7486934198	-2.4245025658	 2.742816595	-0.234216
H	 0.9619335277	 1.9735347407	 0.533727864	 0.126939
H	-0.1658490102	 1.9596080375	-0.8381522534	 0.110959
H	-0.7664448152	 1.7047016869	 0.8148695259	 0.124545
H	-0.6349733969	-0.4705766513	-0.4428932835	 0.080592
H	 1.0916172758	-0.1952249343	-0.7313713967	 0.08689
H	-0.2045334003	-2.3862833018	 0.775804397	 0.055005
H	 1.870521837	-2.6274341116	-0.4744845107	 0.088659
H	 2.7815732736	-1.8204408869	 0.8194182209	 0.116252
H	 1.4437056337	-4.5807368087	 1.0244037488	 0.094693
H	 3.1694287302	-4.260177915	 1.2149138905	 0.085548
H	 1.6218424502	-4.3287917385	 3.4289978641	 0.055844
H	 3.7559353465	-3.3969322807	 3.4039728544	 0.277487
H	 0.9769785958	-1.576240408	 3.39117039	 0.131471
H	-0.2013524961	-2.8533731937	 3.0701350772	 0.095627
30.0642	77.5421	97.7423	167.0968	198.0423	249.0992	324.2298	333.9205	371.7713	399.0802	444.8754	483.3316	601.7324	705.6984	806.3517	823.4319	835.8866	872.9467	902.2577	924.383	969.653	1000.8072	1017.2904	1047.0907	1062.819	1094.0034	1137.7881	1160.694	1185.2632	1189.4905	1201.279	1222.5437	1250.272	1297.1563	1302.763	1309.9597	1333.4235	1340.1838	1370.5963	1381.6153	1403.9117	1424.5101	1440.012	1473.3136	1480.5422	1483.4962	1494.5637	1500.4212	1530.8445	2942.073	2953.955	2987.0063	2994.4891	3026.7604	3044.0254	3052.1435	3073.0026	3074.8741	3106.082	3117.9409	3121.1515	3127.3574	3810.4948
CCOC1CCC(O)C1	CCO[C@H]1CC[C@@H](O)C1	
InChI=1S/C7H14O2/c1-2-9-7-4-3-6(8)5-7/h6-8H,2-5H2,1H3	InChI=1S/C7H14O2/c1-2-9-7-4-3-6(8)5-7/h6-8H,2-5H2,1H3/t6-,7+/m1/s1
