12
gdb 48143	6.67305	0.60495	0.55653	4.5271	74.72	-0.2767	-0.1219	0.1548	1786.6552	0.074429	-435.483972	-435.474987	-435.474042	-435.519496	29.633	
O	-0.869472312	 1.4266500871	 0.3985743405	-0.208479
C	 0.057534507	 1.0147264647	-0.2458963129	 0.084595
C	 1.387766012	 1.7716637616	-0.3694314702	 0.303342
O	 2.2763047295	 1.3039803679	-1.030474473	-0.240016
C	 1.4503697926	 3.0984849643	 0.3922512022	-0.516275
C	 2.713946075	 3.7904457132	 0.2586786628	 0.064472
C	 3.7698597055	 4.3627413274	 0.1435814057	 0.123912
C	 4.9617262934	 5.0172489494	 0.0188086954	 0.212299
N	 5.9740339809	 5.5770380656	-0.0848102667	-0.331282
H	 0.0480198892	 0.059965362	-0.8092938651	 0.129698
H	 0.6163020824	 3.7241761422	 0.0464945569	 0.188866
H	 1.2199417944	 2.8920592647	 1.4462913844	 0.188867
29.9483	64.1008	131.6146	149.892	180.6232	213.0222	350.1506	392.8244	450.8696	509.7382	573.6616	581.2008	581.7992	774.7079	811.6619	846.1482	1027.4039	1142.3595	1180.1661	1196.8944	1340.8906	1359.8837	1415.4096	1819.6087	1828.0817	2273.9755	2409.2677	2948.8203	3030.1295	3055.7214
O=CC(=O)CC#CC#N	O=CC(=O)CC#CC#N	
InChI=1S/C6H3NO2/c7-4-2-1-3-6(9)5-8/h5H,3H2	InChI=1S/C6H3NO2/c7-4-2-1-3-6(9)5-8/h5H,3H2
