15
gdb 43964	3.30846	1.63241	1.3913	3.4288	70.05	-0.2459	-0.0293	0.2166	931.8647	0.112706	-420.593884	-420.587134	-420.58619	-420.624962	26.918	
O	-0.0833480356	-0.0437187501	-0.0295784411	-0.295711
C	-0.0555444199	 1.147595844	-0.0851284793	 0.375362
C	-1.1709035999	 2.2488801249	-0.1555928109	-0.417901
C	-0.0538547937	 3.2464806084	 0.1995946501	 0.307834
C	 0.2487748627	 4.2107617813	 1.3316357657	-0.367484
C	 1.5763499814	 3.6755665474	 1.8681219958	-0.060391
C	 1.9830191976	 2.5478396371	 1.2662764596	-0.177665
C	 1.0132603238	 2.200318528	 0.2003704567	 0.147044
O	 0.8827736222	 3.1887961863	-0.8579198969	-0.282275
H	-1.6768309872	 2.4190046693	-1.1072640233	 0.136797
H	-1.9063593747	 2.0711898244	 0.6350005732	 0.136207
H	 0.3309504672	 5.2490842734	 0.9916388329	 0.136961
H	-0.5364392817	 4.1875698755	 2.0968834876	 0.127871
H	 2.137548807	 4.205904142	 2.6307187622	 0.111474
H	 2.8857430607	 1.9951366681	 1.4885703077	 0.121879
102.3759	218.2484	294.9854	375.2843	411.982	527.2296	545.6155	587.3442	611.2026	686.0962	725.9001	749.7895	839.8672	865.4759	872.0034	916.8254	925.4852	950.3888	990.9275	1030.58	1083.1408	1131.2205	1169.9869	1184.07	1221.2764	1233.5001	1321.1671	1362.1366	1374.2561	1446.6996	1462.8045	1629.6385	1891.6368	3039.5235	3067.2946	3075.6813	3132.0974	3187.3601	3231.3134
O=C1CC23CC=CC12O3	O=C1C[C@@]23CC=C[C@@]12O3	
InChI=1S/C7H6O2/c8-5-4-6-2-1-3-7(5,6)9-6/h1,3H,2,4H2	InChI=1S/C7H6O2/c8-5-4-6-2-1-3-7(5,6)9-6/h1,3H,2,4H2/t6-,7+/m0/s1
