18
gdb 30310	2.93899	1.6276	1.09429	1.2784	78.84	-0.1806	0.0235	0.2041	1095.9243	0.150484	-401.965413	-401.95788	-401.956936	-401.997375	29.517	
C	-0.2204151011	 1.5667806936	 0.0011075732	-0.397511
C	 0.0535257062	 0.061422462	 0.0642618084	-0.119503
C	 0.9064867672	-0.4705187032	-1.1436620861	-0.173416
N	 1.7381931978	-1.60522947	-0.6343177131	-0.410439
C	 1.8404821066	-1.3512868752	 0.7489094658	 0.236878
C	 0.9387534194	-0.4311009113	 1.1608725531	 0.298089
O	 0.9191027186	-0.328279081	 2.5164645521	-0.202717
C	 1.8804174757	-1.1934210627	 2.955875248	-0.011988
C	 2.4785526922	-1.8609197021	 1.9220834149	-0.336578
H	 0.7162888971	 2.1329577627	-0.0224901973	 0.116824
H	-0.8000668455	 1.8224027921	-0.8923429254	 0.11297
H	-0.7917363984	 1.8946997117	 0.8747683814	 0.125606
H	-0.9134683789	-0.46567456	 0.0857445891	 0.088822
H	 0.2824516831	-0.8000982444	-1.9782191546	 0.108897
H	 1.5470580477	 0.3509259779	-1.4969702538	 0.097614
H	 2.6261712357	-1.6704980281	-1.1183601663	 0.228378
H	 2.0405561561	-1.2056226638	 4.0215666053	 0.129739
H	 3.2601231806	-2.5988391983	 2.0118382151	 0.108337
107.7011	156.4353	217.4331	259.8024	310.5716	419.4718	476.7707	562.44	608.5692	642.2708	699.6086	707.7514	729.3028	798.4085	805.9546	901.8911	915.1461	942.3403	998.7083	1035.804	1058.6571	1090.565	1124.6282	1133.96	1166.1229	1225.125	1267.1885	1306.7202	1318.669	1333.492	1376.9781	1404.8569	1408.4588	1493.8248	1496.3482	1501.2204	1508.0814	1515.5334	1666.1164	2968.2136	2993.712	3032.3108	3088.9349	3102.4025	3109.7489	3253.1177	3280.4085	3533.0945
CC1CNC2=C1OC=C2	C[C@H]1CNc2c1occ2	
InChI=1S/C7H9NO/c1-5-4-8-6-2-3-9-7(5)6/h2-3,5,8H,4H2,1H3	InChI=1S/C7H9NO/c1-5-4-8-6-2-3-9-7(5)6/h2-3,5,8H,4H2,1H3/t5-/m0/s1
