23
gdb 121020	3.09878	0.9237	0.76933	1.6122	86.95	-0.2495	0.0124	0.262	1566.4715	0.205882	-388.307467	-388.297677	-388.296733	-388.342572	36.696	
C	-0.47502721	 1.5208801888	-0.0399468404	-0.379912
C	-0.0331186188	 0.0553076704	-0.0739197013	-0.169893
C	 0.5518965556	-0.4237284942	 1.2602165263	-0.16759
C	 0.9902916509	-1.8892528994	 1.2505324986	-0.019237
C	 2.1514092598	-2.2380784919	 0.2798500421	-0.270595
C	 2.9072846769	-3.3177756587	 1.0151782869	-0.064984
C	 2.4997625013	-3.4555693975	 2.277184304	-0.10987
C	 1.4490808174	-2.4333707929	 2.6408210673	 0.070754
O	 1.9743401355	-1.4447566019	 3.5320489522	-0.427304
H	 0.3675554852	 2.1826503662	 0.189952774	 0.112572
H	-0.8930964642	 1.8363454615	-1.0011745268	 0.108708
H	-1.2402383221	 1.685954977	 0.7267819307	 0.114433
H	-0.8883265451	-0.5795289075	-0.3427790476	 0.091761
H	 0.7071722299	-0.0821663346	-0.8727016402	 0.095073
H	 1.4045044782	 0.2098523634	 1.5362297933	 0.085397
H	-0.1908203176	-0.276994158	 2.0549640926	 0.097225
H	 0.1311660871	-2.5058267804	 0.9554261416	 0.074625
H	 1.7895208464	-2.5738974309	-0.6983138605	 0.108062
H	 2.8006776902	-1.3727767442	 0.0789426638	 0.101792
H	 3.6989470491	-3.8948677009	 0.5479619164	 0.095797
H	 2.9106378099	-4.1436137827	 3.0076256985	 0.096061
H	 0.6017118441	-2.8560033956	 3.1906172528	 0.083231
H	 2.8462331904	-1.1985327459	 3.2038004655	 0.273894
66.0425	91.6341	103.2992	130.6885	246.8777	263.5786	278.1048	313.6753	344.2128	396.5278	506.3429	535.6813	716.5451	739.7419	752.2682	793.3722	802.7352	860.8679	898.1121	931.2379	966.4962	975.4765	985.9658	1014.8912	1042.044	1072.0188	1089.8817	1123.6586	1135.3616	1153.4981	1190.9848	1235.5123	1260.0169	1284.4295	1295.365	1315.5943	1327.1769	1338.614	1360.526	1381.3331	1395.8797	1412.9036	1431.0298	1476.5375	1486.0427	1492.7048	1499.679	1509.9773	1678.9615	2998.5467	3011.5939	3013.1767	3022.804	3029.045	3036.7268	3054.9677	3059.2791	3064.7284	3095.3961	3099.8248	3177.0117	3205.2668	3799.4354
CCCC1CC=CC1O	CCC[C@H]1CC=C[C@H]1O	
InChI=1S/C8H14O/c1-2-4-7-5-3-6-8(7)9/h3,6-9H,2,4-5H2,1H3	InChI=1S/C8H14O/c1-2-4-7-5-3-6-8(7)9/h3,6-9H,2,4-5H2,1H3/t7-,8+/m0/s1
