16
gdb 77189	3.03793	1.20666	0.98759	2.1666	64.92	-0.2583	-0.0118	0.2465	1186.2856	0.124033	-475.004936	-474.99654	-474.995596	-475.038616	30.12	
O	 0.297282039	 1.1233327279	 0.4159667077	-0.418887
C	 0.1091060693	-0.1895421772	-0.0304352453	-0.083207
C	-1.3699887281	-0.6204016897	-0.1208604171	 0.08949
O	-1.1975246691	-0.8983853392	-1.5590751161	-0.261759
C	 0.0920568498	-0.4181672545	-1.5535553321	 0.417861
O	 0.8169674373	-0.2586125097	-2.4803051694	-0.317609
C	-1.826660907	-1.827000535	 0.6481623505	-0.018853
C	-2.7701794402	-2.7976457411	 0.0461666084	-0.239875
N	-1.3625642724	-3.172370478	 0.2872425993	-0.322192
H	 1.2063611053	 1.3807059385	 0.2261416772	 0.305131
H	 0.7409335469	-0.9193910669	 0.4944129534	 0.119061
H	-2.0434042868	 0.2311565597	 0.0117150758	 0.121164
H	-1.8741314146	-1.6458585177	 1.7208510428	 0.109763
H	-3.4967924827	-3.305175327	 0.6733025176	 0.125974
H	-3.0823589048	-2.6242202738	-0.9794597969	 0.133578
H	-0.8660800319	-3.1298413962	-0.6009150258	 0.24036
84.1352	86.1292	150.9502	184.4218	239.3612	272.1583	332.8825	395.17	512.294	614.1512	719.3877	736.7901	808.3992	853.1793	904.2807	910.474	943.9157	994.847	1037.0801	1061.8358	1115.1406	1132.654	1142.3832	1155.2886	1186.4054	1196.1867	1256.6569	1284.5141	1302.0797	1311.5675	1363.4537	1415.3578	1435.9885	1508.5674	1941.9616	3016.3375	3080.701	3118.3918	3125.5172	3208.623	3491.7958	3812.7181
OC1C(OC1=O)C1CN1	O[C@H]1[C@@H](OC1=O)[C@H]1CN1	
InChI=1S/C5H7NO3/c7-3-4(2-1-6-2)9-5(3)8/h2-4,6-7H,1H2	InChI=1S/C5H7NO3/c7-3-4(2-1-6-2)9-5(3)8/h2-4,6-7H,1H2/t2-,3+,4+/m1/s1
