15
gdb 131309	5.13307	1.29122	1.0383	2.1573	75.37	-0.1991	-0.0114	0.1877	1079.6032	0.115436	-416.838163	-416.83143	-416.830486	-416.86911	26.921	
O	 0.0791928297	 1.2897612577	 0.0186039876	-0.427164
C	 0.0664005245	-0.0576463377	 0.0601832967	 0.461657
N	 0.0901273206	-0.7858625288	-1.0547324187	-0.409322
N	 0.066194402	-2.0503197926	-0.5743841407	 0.037279
C	 0.0716929347	-3.3131404658	-1.1779590457	-0.006636
C	 0.0379252641	-4.2524227514	-0.2227453881	-0.136286
C	 0.0065809595	-3.5873475935	 1.1495413992	-0.415994
C	 0.0289351911	-2.1297581222	 0.7832115395	 0.445113
C	 0.0276022405	-0.8320522172	 1.2505211095	-0.50776
H	 0.1065729885	 1.5426764818	-0.9128488839	 0.304051
H	 0.1000072943	-3.3920565393	-2.2535983939	 0.141844
H	 0.0330054366	-5.3196042852	-0.3798469495	 0.114321
H	-0.8903775869	-3.8627457488	 1.7180002178	 0.143018
H	 0.866718517	-3.8777558888	 1.7654500088	 0.14302
H	 0.0034092038	-0.4705164681	 2.2639841014	 0.11286
128.3496	244.8059	319.619	342.663	413.0134	436.4584	532.4384	572.9914	655.127	699.6656	709.996	736.8458	773.9474	809.1853	902.4465	906.9013	937.3367	941.9383	1014.8761	1082.2002	1142.7131	1146.0088	1172.2568	1222.3238	1261.7061	1303.2614	1405.232	1425.0915	1450.8811	1481.9248	1547.8638	1603.3396	1645.5867	3033.841	3059.9227	3253.9418	3276.7095	3283.2563	3793.8825
OC1=NN2C=CCC2=C1	Oc1nn2C=CCc2c1	
InChI=1S/C6H6N2O/c9-6-4-5-2-1-3-8(5)7-6/h1,3-4H,2H2,(H,7,9)	InChI=1S/C6H6N2O/c9-6-4-5-2-1-3-8(5)7-6/h1,3-4H,2H2,(H,7,9)
