19
gdb 120724	2.62381	1.24987	1.04768	6.5206	72.43	-0.2411	0.0219	0.263	1202.9717	0.161016	-456.349898	-456.341204	-456.340259	-456.383302	32.858	
N	 0.0238762477	 0.4238548998	 1.1891132952	-0.501816
H	 1.0161848024	-0.0306778037	 2.5442164822	 0.33297
H	 0.2449981829	 0.1901528061	 0.2278987262	 0.240123
H	-0.7463242078	-0.1582227697	 1.5007202755	 0.260723
C	-0.349800311	 1.8462102438	 1.3228603578	-0.152535
C	 0.0044447758	 2.3916357333	 2.7137648545	-0.228548
C	-0.7482941617	 1.7370882155	 3.8733913413	-0.019927
N	-1.2691578927	 0.3729038425	 3.6996991461	-0.354921
C	-0.206600018	 0.6047406291	 4.6948567169	-0.149984
C	 1.1649712478	-0.0131063949	 4.5259841404	 0.407344
O	 1.8239785328	-0.2423260163	 5.5119886877	-0.343071
O	 1.6246712797	-0.2645485815	 3.3042223093	-0.395931
H	 0.2128441341	 2.4184377046	 0.5784302312	 0.112559
H	-1.4157658459	 2.0105034639	 1.1136139561	 0.101306
H	 1.0848268191	 2.2929420733	 2.8583540287	 0.134058
H	-0.2136052874	 3.4649019777	 2.7281651412	 0.104991
H	-1.3821697122	 2.4197308579	 4.4353746918	 0.099247
H	-2.162642085	 0.2588088011	 4.168719738	 0.243181
H	-0.4874973207	 0.5945853874	 5.7433729398	 0.110231
86.2833	146.7812	164.7535	199.826	215.9928	302.1131	357.0743	395.5506	416.3174	474.2972	570.7279	667.2027	751.9679	767.5594	821.5147	875.3509	882.9998	897.992	921.7942	963.0789	1009.1536	1036.4252	1059.4528	1097.8024	1109.2546	1167.7339	1188.8721	1202.606	1256.3858	1282.0353	1326.0377	1353.923	1380.2177	1387.9068	1415.0868	1422.714	1449.0274	1489.8001	1498.5978	1622.558	1825.7529	3007.3673	3047.2955	3077.1806	3080.4441	3089.4067	3126.2894	3165.6817	3509.6572	3515.2602	3598.7206
[NH3+]CCC1NC1C([O-])=O	NCC[C@H]1N[C@H]1C(=O)O	
InChI=1S/C5H10N2O2/c6-2-1-3-4(7-3)5(8)9/h3-4,7H,1-2,6H2,(H,8,9)	InChI=1S/C5H10N2O2/c6-2-1-3-4(7-3)5(8)9/h3-4,7H,1-2,6H2,(H,8,9)/t3-,4-/m1/s1
