19
gdb 78369	2.98959	1.55873	1.47313	3.2716	79.35	-0.2293	0.0037	0.233	997.91	0.161189	-382.011231	-382.003683	-382.002739	-382.042982	29.972	
C	 0.0076954695	 1.5884430157	-0.0208560623	-0.420946
C	 0.0966801315	 0.0814156837	-0.0632357587	 0.0258
C	 0.6255094585	-0.7843492662	-1.1426941122	-0.111407
C	 1.9413645941	-0.3431608872	-1.8437977371	-0.067668
C	 2.413678965	 0.919281229	-2.584787353	-0.285552
C	 3.5904319375	 1.35928191	-1.6261614269	-0.161876
N	 3.2260393505	 0.8981016468	-0.2477025743	-0.279375
C	 2.3862132451	-0.0213181176	-0.4628497646	 0.358463
N	 1.3327234614	-0.7105629043	 0.2494053256	-0.223504
H	 0.8696202618	 2.0877916877	-0.4588436305	 0.1419
H	-0.8929972741	 1.9132035248	-0.5526876148	 0.124198
H	-0.0771380744	 1.9219380307	 1.0184134355	 0.135798
H	-0.7382003772	-0.3886330402	 0.4555856499	 0.107318
H	 0.1060772168	-1.6947233559	-1.4240897582	 0.105062
H	 2.4241797224	-1.247524222	-2.2303819854	 0.106926
H	 2.749986978	 0.7374266293	-3.6082746774	 0.1047
H	 1.644584245	 1.6955028879	-2.6165174573	 0.114278
H	 4.5446208858	 0.9111297857	-1.9322791624	 0.112234
H	 3.7332887226	 2.443018682	-1.6107687559	 0.113652
135.5382	150.9117	187.698	273.0658	324.7915	366.5469	493.962	579.1667	603.7303	646.8008	686.6444	740.7365	800.2779	844.8399	857.7794	890.0482	897.5059	940.2065	973.4226	1019.0177	1056.3123	1066.5602	1088.7182	1109.7981	1142.7568	1156.3798	1178.2224	1207.6451	1231.1489	1269.6872	1290.7622	1311.9925	1339.0241	1357.4993	1412.2061	1438.5348	1482.1786	1491.0027	1498.528	1505.6461	1750.725	3027.433	3045.5443	3050.3595	3068.7867	3091.4906	3102.4161	3114.1812	3118.7326	3166.4316	3170.3585
CC1C2C3CCN=C3N12	C[C@H]1[C@H]2[C@H]3CC[N][C]3N12	
InChI=1S/C7H10N2/c1-4-6-5-2-3-8-7(5)9(4)6/h4-6H,2-3H2,1H3	InChI=1S/C7H10N2/c1-4-6-5-2-3-8-7(5)9(4)6/h4-6H,2-3H2,1H3/t4-,5+,6-,9?/m0/s1
