21
gdb 40979	3.6949	1.20354	1.18549	0.2456	89.92	-0.2299	0.019	0.2489	1164.472	0.185306	-349.98221	-349.974477	-349.973533	-350.014442	31.183	
C	 0.0424685937	 1.6955158556	 0.095068479	-0.260998
C	 1.574447555	 1.8326453617	-0.0833533397	-0.269881
C	 2.0759691466	 0.4584445807	-0.6394742355	 0.309496
C	 2.3313234736	 0.4433999513	-2.1834325525	-0.26988
C	 3.8608293335	 0.5941687071	-2.3717808958	-0.260998
C	 4.4041304471	 0.1750990699	-1.0260311741	-0.077435
C	 3.4463761379	 0.0919819522	-0.105277236	-0.122183
C	 0.9382788333	-0.4600329725	-0.23979493	-0.122183
C	-0.1537994866	 0.1984802829	 0.1419325881	-0.077434
H	-0.3183295893	 2.2030577866	 0.997107684	 0.100812
H	-0.5155375727	 2.1336449506	-0.7443317768	 0.104193
H	 1.863917294	 2.66632735	-0.7291117488	 0.094174
H	 2.0364263567	 2.0091375309	 0.8936154735	 0.099187
H	 2.0125599076	-0.5238930746	-2.585645294	 0.099187
H	 1.7516664231	 1.211980816	-2.7021840585	 0.094174
H	 4.2408139103	-0.0193453953	-3.1968025258	 0.100812
H	 4.1521648417	 1.6284768409	-2.6025421018	 0.104193
H	 5.4603552009	 0.003992071	-0.8471973202	 0.089633
H	 3.5965174947	-0.1540856985	 0.9412410238	 0.08775
H	 1.0280407159	-1.5385554026	-0.3236026241	 0.08775
H	-1.095774347	-0.2612521238	 0.4215744454	 0.089632
96.3788	110.4891	207.0641	262.1891	353.98	422.8457	479.1195	492.9954	647.4369	708.7769	751.4313	757.1516	794.6609	795.5154	853.952	863.256	921.8956	930.3417	960.0579	971.1733	977.1863	987.2307	989.9975	1027.3552	1077.1403	1103.8341	1118.2758	1133.0443	1150.7003	1201.6945	1203.2077	1239.2222	1250.0062	1308.1566	1310.1962	1322.419	1322.4483	1378.0443	1382.4716	1478.1933	1484.1414	1497.0695	1501.9829	1678.6831	1689.5339	3009.7797	3009.8455	3041.4812	3043.1111	3056.0022	3056.227	3090.4179	3096.9087	3171.7805	3172.823	3198.8935	3199.8784
C1CC2(CCC=C2)C=C1	C1C[C@]2(CCC=C2)C=C1	
InChI=1S/C9H12/c1-2-6-9(5-1)7-3-4-8-9/h1,3,5,7H,2,4,6,8H2	InChI=1S/C9H12/c1-2-6-9(5-1)7-3-4-8-9/h1,3,5,7H,2,4,6,8H2
