19
gdb 32245	2.49642	1.55764	0.9708	1.2087	87.38	-0.2109	0.0085	0.2194	1219.2458	0.160302	-385.958696	-385.950172	-385.949228	-385.991762	32.336	
C	-0.0286077787	 1.3776406465	 0.1110526039	-0.24588
O	 0.0243424344	-0.0302791283	 0.0012560477	-0.262066
C	 0.6329768893	-0.5737189399	-1.0921162373	 0.330379
C	 1.2117807649	 0.1734538375	-2.1173159319	-0.25595
C	 1.8117674603	-0.4782093642	-3.196303487	-0.113081
C	 1.8348286622	-1.8643261541	-3.2533329882	-0.122853
C	 1.2516944217	-2.599983695	-2.2203272732	-0.173716
C	 0.6460185214	-1.9818986	-1.1315513062	 0.207395
C	 0.0150092137	-2.7690878464	-0.0134981064	-0.483812
H	 0.9752953861	 1.820123049	 0.1506223889	 0.124105
H	-0.5827274251	 1.8295573044	-0.7219537614	 0.124108
H	-0.5506805272	 1.5905561749	 1.0455778185	 0.133191
H	 1.2012802216	 1.2553263255	-2.0862165371	 0.09417
H	 2.2595036901	 0.1119660027	-3.9891979098	 0.091843
H	 2.2998622364	-2.3742513652	-4.0896933872	 0.088563
H	 1.265943439	-3.6855351426	-2.2582762065	 0.086475
H	 0.4825229609	-2.5384078432	 0.9499873613	 0.131365
H	-1.0477994427	-2.5266074066	 0.0945783795	 0.131376
H	 0.1077544419	-3.8429012849	-0.1941053875	 0.114386
92.6433	136.839	170.4492	230.088	241.9725	296.171	323.5584	457.386	501.5094	506.1069	559.2543	596.4203	735.1139	761.0012	773.2348	829.1324	859.916	918.8975	956.4089	1004.4049	1063.3107	1067.6271	1077.7674	1147.0217	1177.46	1185.6585	1203.9607	1221.1142	1283.854	1312.1388	1354.2334	1414.9009	1464.3446	1476.6096	1484.5765	1490.05	1500.8928	1506.7775	1532.8551	1628.0446	1642.7255	3003.019	3033.6542	3061.6536	3084.9548	3118.3298	3130.7892	3164.1637	3175.9068	3195.4989	3210.0538
COC1=CC=CC=C1C	COc1ccccc1C	
InChI=1S/C8H10O/c1-7-5-3-4-6-8(7)9-2/h3-6H,1-2H3	InChI=1S/C8H10O/c1-7-5-3-4-6-8(7)9-2/h3-6H,1-2H3
