21
gdb 94813	2.91486	1.34935	1.10429	2.0358	78.05	-0.2465	0.0752	0.3217	1180.2771	0.181888	-424.216319	-424.207343	-424.206398	-424.250038	34.293	
C	-0.222958823	 1.4799886912	-0.0696732568	-0.414124
C	 0.0898546241	 0.0012825509	 0.0606654055	 0.135827
O	 0.9156873579	-0.3962853966	-1.0379528846	-0.262613
C	 1.3896629838	-1.6994186525	-0.7447774308	-0.152451
C	 1.4560957185	-1.7857402661	 0.7850245879	 0.414384
C	 1.4326983326	-3.0560072261	 1.5152464615	-0.25519
O	 2.6446693446	-2.3032033305	 1.3813522548	-0.273418
C	 0.8744277478	-0.4653041991	 1.3100120722	-0.118447
C	 1.9865644762	 0.4931425055	 1.750144422	-0.394326
H	 0.6908222481	 2.0785824791	-0.0736498774	 0.130003
H	-0.7566466844	 1.6663788004	-1.0056321942	 0.126725
H	-0.8565896536	 1.8117658124	 0.758695352	 0.115796
H	-0.8564363105	-0.5684578518	 0.0195563072	 0.061208
H	 0.7073806497	-2.4624980238	-1.1525168371	 0.092269
H	 2.3760220913	-1.8335931865	-1.1975322311	 0.124118
H	 1.0160924417	-3.0975345463	 2.5214564197	 0.113608
H	 1.4074357721	-3.9985631405	 0.9677041715	 0.112893
H	 0.1921191481	-0.6459897541	 2.1468558249	 0.072681
H	 2.6222587987	 0.7706080169	 0.9037853467	 0.129072
H	 1.5724908694	 1.4074991547	 2.184128065	 0.111164
H	 2.6200684768	 0.0096541728	 2.4972396712	 0.130823
43.9784	166.0751	218.6147	229.3927	252.178	266.0055	282.862	333.6804	405.7315	450.373	504.0389	578.3052	668.2487	767.7659	801.1451	843.7346	875.8516	907.49	949.3166	994.0926	1022.4692	1042.2204	1070.5204	1093.2264	1113.7107	1128.5559	1157.2477	1166.2652	1175.6078	1230.3481	1240.4671	1264.6522	1336.1268	1344.9734	1375.367	1389.9224	1409.1597	1417.8948	1433.8432	1481.7812	1493.4606	1503.7583	1506.593	1510.0131	1533.5537	2929.9317	2973.6711	3045.1746	3048.2681	3054.1712	3071.1068	3088.2537	3115.8791	3117.9466	3126.8975	3131.571	3156.0649
CC1OCC2(CO2)C1C	C[C@H]1OC[C@]2(CO2)[C@H]1C	
InChI=1S/C7H12O2/c1-5-6(2)8-3-7(5)4-9-7/h5-6H,3-4H2,1-2H3	InChI=1S/C7H12O2/c1-5-6(2)8-3-7(5)4-9-7/h5-6H,3-4H2,1-2H3/t5-,6+,7-/m0/s1
