21
gdb 94649	3.93058	0.75538	0.67792	2.8348	80.02	-0.2557	-0.0272	0.2285	1677.6787	0.179759	-424.215955	-424.205907	-424.204963	-424.252437	35.327	
C	-0.0616672689	 1.5756790349	-0.0420521251	-0.383609
C	 0.0341779958	 0.0530335961	-0.101039245	-0.035371
C	 1.3289256663	-0.4781195789	-0.7902551974	-0.228699
C	 1.9665470939	-0.6922511637	 0.6115696278	-0.257172
C	 0.5345635135	-0.6129823733	 1.2078841066	 0.169877
O	 0.3188744349	 0.1391284572	 2.37703337	-0.256903
C	 0.8189157917	-0.4617566843	 3.5435498081	-0.153597
C	 0.4625684102	 0.4246817573	 4.7242232064	 0.138532
O	 0.7905784697	 0.1915743012	 5.8568207799	-0.238495
H	 0.8677064218	 2.0276689659	 0.3181618777	 0.11654
H	-0.2674084596	 1.9787129587	-1.0392073499	 0.110892
H	-0.8632126003	 1.8947998126	 0.6297667514	 0.124154
H	-0.9039861266	-0.3579097582	-0.4850771778	 0.070194
H	 1.1659846042	-1.4198743389	-1.3202397257	 0.103157
H	 1.8385772267	 0.2149213328	-1.4635707912	 0.102249
H	 2.5429538907	-1.6047802482	 0.7786623368	 0.098408
H	 2.5650949621	 0.1682203904	 0.9236484316	 0.111039
H	 0.1072562036	-1.6206540982	 1.3308095707	 0.066159
H	 0.3829541937	-1.4622153277	 3.7109350765	 0.120593
H	 1.9130316656	-0.5902128067	 3.5147782194	 0.126003
H	-0.1388692991	 1.3173312111	 4.4432369291	 0.09605
47.6164	58.2966	92.7019	104.3865	135.0139	222.51	238.3624	304.2762	360.4175	410.3911	478.9406	601.1543	679.3712	740.0546	768.0797	822.2729	884.1923	920.2064	948.6809	963.6892	1016.7982	1033.5995	1086.4908	1093.6381	1114.3755	1140.1378	1174.9642	1190.1933	1215.7107	1236.123	1248.5262	1262.6104	1285.192	1301.0874	1342.9948	1366.539	1390.389	1409.0624	1418.7024	1478.7843	1482.7679	1493.1356	1498.1556	1500.7712	1844.9242	2898.2977	2959.5244	2974.5688	2997.061	3037.3904	3054.8886	3059.6903	3067.7564	3104.5673	3107.1156	3114.5469	3123.5006
CC1CCC1OCC=O	C[C@H]1CC[C@H]1OCC=O	
InChI=1S/C7H12O2/c1-6-2-3-7(6)9-5-4-8/h4,6-7H,2-3,5H2,1H3	InChI=1S/C7H12O2/c1-6-2-3-7(6)9-5-4-8/h4,6-7H,2-3,5H2,1H3/t6-,7+/m0/s1
