18
gdb 105498	2.13812	1.75746	1.18258	4.9996	67.98	-0.248	0.0155	0.2635	1078.1817	0.14777	-476.217931	-476.209335	-476.208391	-476.25108	32.05	
C	-1.3614242819	 0.2155755479	-0.079494118	-0.268786
O	-0.7981444941	-1.0764757116	-0.2773870744	-0.283263
C	 0.3867066201	-1.1135271489	-0.989879646	 0.252694
C	 1.6713472811	-0.4633433449	-0.3624991158	-0.235876
N	 2.4150570154	-1.6629119347	-0.8283551318	-0.347269
H	 2.090495348	-1.1449963428	-2.614893325	 0.314434
H	 3.1637964789	-1.9972784541	-0.2319839771	 0.237276
C	 1.156054014	-2.4548160169	-0.831544816	-0.219875
C	 0.2331847054	-0.7370448173	-2.4817016216	 0.394537
O	-0.8071384516	-0.3961129351	-2.9754890771	-0.339762
O	 1.3661235749	-0.8240476997	-3.2008313792	-0.382751
H	-0.6577080159	 0.8789649722	 0.444654156	 0.102642
H	-1.6600480233	 0.6704484948	-1.0268776981	 0.153502
H	-2.2395998804	 0.071042398	 0.5527354362	 0.131271
H	 2.0396837413	 0.4862017456	-0.7592393164	 0.124444
H	 1.5589180076	-0.4020043308	 0.7271485984	 0.11664
H	 0.9014394412	-2.9033065036	 0.1356875316	 0.121451
H	 1.0807446994	-3.2002395482	-1.6269916656	 0.128694
103.789	128.6452	183.2531	231.5926	243.7247	252.8582	306.4543	382.8208	448.3621	473.1341	551.0087	674.5419	738.1367	748.5657	848.9879	887.3647	951.3466	966.1793	995.7454	1004.1792	1057.1391	1071.704	1114.728	1151.4958	1178.6579	1199.1154	1227.5002	1240.0034	1246.1395	1288.1653	1356.5245	1360.6762	1449.7411	1476.1885	1486.2843	1499.958	1516.041	1529.6781	1861.3292	2997.5358	3024.9932	3037.5672	3098.3286	3099.2121	3106.2699	3140.4949	3394.0965	3533.489
COC1(C[NH2+]C1)C([O-])=O	COC1(CNC1)C(=O)O	
InChI=1S/C5H9NO3/c1-9-5(4(7)8)2-6-3-5/h6H,2-3H2,1H3,(H,7,8)	InChI=1S/C5H9NO3/c1-9-5(4(7)8)2-6-3-5/h6H,2-3H2,1H3,(H,7,8)
