17
gdb 18978	4.3786	2.21374	1.82697	2.3585	67.95	-0.2294	0.0831	0.3125	759.1848	0.145409	-363.782397	-363.776451	-363.775507	-363.81236	23.895	
C	-0.0430171831	 1.5639192972	 0.0102269045	-0.167895
C	 1.4618698791	 1.2518847124	-0.0055275271	-0.083742
C	 1.1031648905	 0.1606788665	 1.0291044931	 0.020455
C	 1.9803534684	-1.0690929927	 1.1654236143	-0.102149
O	 2.0568586272	-1.823248244	-0.0273097987	-0.246222
C	 1.9581261221	-1.0565554485	-1.2103761179	-0.102148
C	 1.0837395685	 0.1716100114	-1.0447024968	 0.020454
N	-0.0533747425	 0.0270198356	 0.0022124736	-0.160243
H	-0.4707581417	 1.9931971037	 0.9209639117	 0.099765
H	-0.4877116098	 2.0027452207	-0.8877493371	 0.099763
H	 2.316553654	 1.9389130541	-0.009914722	 0.062053
H	 0.7601272634	 0.5127753338	 2.0076027826	 0.074205
H	 2.9828258502	-0.7540878599	 1.5067979715	 0.089288
H	 1.5709517959	-1.7441742196	 1.9246996146	 0.116462
H	 2.9540648328	-0.7378347942	-1.5670850227	 0.089288
H	 1.5345593648	-1.7236367156	-1.9689516541	 0.116462
H	 0.7224621602	 0.533961439	-2.0128368995	 0.074205
127.0571	241.1566	343.3152	461.3894	483.7223	609.9884	738.3361	761.0697	780.535	839.8865	840.1523	896.4154	913.8463	988.4727	995.7527	1020.3316	1054.0821	1073.684	1086.3153	1118.222	1146.6212	1156.9667	1191.4191	1197.8209	1224.6079	1245.6755	1250.7773	1274.1496	1314.2679	1362.1194	1383.4762	1412.3171	1435.9514	1498.2362	1508.2172	1528.9988	2943.5793	2951.056	3026.9036	3045.6292	3051.6587	3055.7981	3065.1516	3070.2261	3111.6396
C1C2C3COCC2N13	C1[C@H]2[C@@H]3COC[C@H]2N13	
InChI=1S/C6H9NO/c1-4-5-2-8-3-6(4)7(1)5/h4-6H,1-3H2	InChI=1S/C6H9NO/c1-4-5-2-8-3-6(4)7(1)5/h4-6H,1-3H2/t4-,5-,6+
