16
gdb 126964	6.58212	0.79841	0.72001	6.6684	68.42	-0.2326	0.0272	0.2599	1522.5411	0.124629	-471.228132	-471.219489	-471.218544	-471.262092	31.039	
C	-0.0995306501	 1.5362959246	 0.0783210644	-0.404444
C	 0.0804017015	 0.0263855196	-0.0163238044	-0.114848
N	 0.7220432209	-0.4866517316	 1.1980543564	-0.411199
C	 0.8451337638	-1.8392796279	 1.3419440048	 0.545336
N	 0.3122847908	-2.7245892029	 0.5535979636	-0.223302
O	 0.6266912677	-3.9827341752	 1.1641202721	-0.237012
C	 1.3609041344	-3.7953875851	 2.2946885126	 0.510929
O	 1.7664429818	-4.654024943	 3.0246681296	-0.394702
N	 1.5201277348	-2.4153053777	 2.3896695088	-0.453148
H	 0.8656933471	 2.0487742376	 0.1663714923	 0.117647
H	-0.5903121619	 1.9133612276	-0.8226097658	 0.134646
H	-0.7103069794	 1.8058644702	 0.9445717504	 0.134396
H	-0.8859068182	-0.4773233343	-0.1058649941	 0.148651
H	 0.6584955956	-0.2428004351	-0.9112778178	 0.120167
H	 1.5331696894	 0.0392124619	 1.4950961712	 0.245088
H	 1.9069653918	-1.9617230486	 3.1989633059	 0.281795
58.2009	93.764	131.6772	197.4436	260.4045	337.7699	352.7766	378.3714	409.8082	518.6902	564.4531	690.8117	724.074	774.3065	789.3063	812.6845	922.1317	932.7992	986.7444	1034.6473	1093.031	1145.0694	1165.3117	1218.8854	1275.6533	1297.596	1373.6934	1416.3028	1445.6181	1494.179	1497.8742	1523.1038	1573.661	1674.6698	1901.4823	3013.0791	3035.6287	3088.6577	3110.4645	3127.7428	3578.943	3684.4878
CCNC1=NOC(=O)N1	CCNc1noc(=O)[nH]1	
InChI=1S/C4H7N3O2/c1-2-5-3-6-4(8)9-7-3/h2H2,1H3,(H2,5,6,7,8)	InChI=1S/C4H7N3O2/c1-2-5-3-6-4(8)9-7-3/h2H2,1H3,(H2,5,6,7,8)
