13
gdb 24880	3.61626	1.31246	0.96297	4.4805	81.69	-0.2341	-0.0885	0.1456	1126.9424	0.089432	-415.597762	-415.590329	-415.589385	-415.630201	27.573	
N	-0.1819932953	 1.2853068721	 0.008406838	-0.524146
C	 0.0066879128	 0.0361912277	 0.0013181998	 0.426275
O	-1.174032061	-0.7326440117	 0.0039462316	-0.230963
C	-1.1136788967	-2.0750868272	-0.0039467596	 0.264588
C	 0.0739577142	-2.7309608102	-0.0142107543	-0.26042
C	 1.2481003932	-1.9127090357	-0.0159286799	 0.026363
N	 1.2321761872	-0.618509583	-0.008709099	-0.297372
C	-2.3818460908	-2.7103914961	-0.0004069176	 0.226389
C	-3.4512084367	-3.261038034	 0.0024943361	-0.344377
H	 0.7282255915	 1.7429386999	 0.0056888188	 0.237025
H	 0.116880683	-3.8095959386	-0.0204905872	 0.128812
H	 2.227209984	-2.3911425742	-0.0237300884	 0.12993
H	-4.3984394354	-3.743148539	 0.0050973816	 0.217895
73.5503	124.1025	144.4793	327.6871	425.6328	447.0991	475.804	559.8237	572.2041	650.251	684.1626	702.6847	751.8042	763.2365	820.0412	866.302	871.2754	978.5517	1002.1216	1020.5389	1094.6763	1210.8688	1265.6246	1381.4816	1414.0034	1579.6561	1672.1993	1735.2431	2237.5627	3136.3316	3250.6612	3496.9931	3519.65
N=C1OC(=CC=N1)C#C	[NH]C1=NC=C[C@H](O1)C#C	
InChI=1S/C6H4N2O/c1-2-5-3-4-8-6(7)9-5/h1,3-4,7H	InChI=1S/C6H5N2O/c1-2-5-3-4-8-6(7)9-5/h1,3-5,7H/t5-/m1/s1
