23
gdb 119376	3.08368	0.99686	0.87594	1.6386	86.73	-0.2309	0.0918	0.3227	1470.4516	0.204328	-388.239699	-388.230078	-388.229134	-388.274423	36.478	
C	-0.1359282415	 1.5208713914	-0.0391857836	-0.383894
C	-0.0020504114	-0.0032902054	-0.0083946724	-0.162401
C	 0.7853925839	-0.5557767649	-1.2042236198	-0.334674
C	 0.8638207924	-2.0541118581	-1.2236578178	 0.429778
C	 1.3621968458	-3.0509697927	-0.1399956318	-0.265737
C	 0.656365006	-3.838037783	-1.262903474	 0.036794
O	-0.4200384817	-2.8218893612	-1.26266619	-0.350663
C	 1.4258428485	-3.0105829247	-2.3269763489	-0.011513
C	 0.8743969782	-2.9170171574	-3.7365559025	-0.431741
H	 0.8459714585	 2.0076493875	-0.0268411512	 0.111389
H	-0.6575010727	 1.8545898812	-0.9431973474	 0.115406
H	-0.6997988814	 1.8876736626	 0.8240533758	 0.112455
H	 0.4914341866	-0.31162979	 0.9216785711	 0.097439
H	-0.9934638721	-0.4691596885	 0.0025634403	 0.121286
H	 0.3215957163	-0.2212521947	-2.141539097	 0.108584
H	 1.809230298	-0.157896079	-1.2026718165	 0.100909
H	 2.4408922644	-3.177948433	-0.014058218	 0.089643
H	 0.8205998526	-3.0168090068	 0.8057072317	 0.104524
H	 0.3506138968	-4.8846135099	-1.2865278708	 0.088344
H	 2.5141735291	-3.1369633143	-2.3090091663	 0.063297
H	-0.2102897488	-2.792940081	-3.7114306915	 0.135905
H	 1.311775875	-2.0685087055	-4.2742486236	 0.112382
H	 1.1092810378	-3.8213488426	-4.3084301759	 0.112491
66.1131	84.088	113.8494	212.3122	222.9786	249.5685	287.925	315.3037	338.914	421.4632	523.6609	654.189	688.391	723.1325	749.774	779.9098	807.5427	857.7998	901.0912	912.068	942.6354	973.1857	1017.5714	1037.0443	1047.7892	1067.4865	1089.883	1132.1428	1141.6689	1153.122	1170.885	1214.3872	1217.1533	1242.8243	1263.7571	1297.005	1327.9522	1345.4003	1386.8856	1399.4122	1412.9683	1415.5908	1468.9179	1486.855	1493.5049	1500.1227	1500.5767	1505.6925	1510.168	3014.7135	3028.0661	3031.8409	3032.909	3044.6648	3049.6567	3061.6074	3073.0339	3089.6256	3098.4266	3102.4178	3112.1663	3131.8362	3145.8616
CCCC12CC(O1)C2C	CCC[C@@]12C[C@@H](O1)[C@H]2C	
InChI=1S/C8H14O/c1-3-4-8-5-7(9-8)6(8)2/h6-7H,3-5H2,1-2H3	InChI=1S/C8H14O/c1-3-4-8-5-7(9-8)6(8)2/h6-7H,3-5H2,1-2H3/t6-,7-,8+/m1/s1
