20
gdb 86057	2.37999	1.51416	0.94717	3.9738	84.67	-0.2305	-0.0133	0.2173	1269.4265	0.169805	-403.219107	-403.209066	-403.208122	-403.254292	35.327	
C	-0.0448903745	 1.3756183549	-0.0135061229	-0.340818
N	-0.0196580351	-0.0638975917	 0.0008033385	-0.101418
C	-1.1917281215	-0.9022380647	 0.0289105685	-0.260692
C	-0.6239311533	-2.304889422	 0.0336928178	 0.189659
C	-1.5270485353	-3.4944221531	 0.0609455559	-0.494229
C	 0.7157167658	-2.2438623628	 0.0106400964	 0.093782
C	 1.7492222871	-3.3202793664	 0.0043368834	-0.49124
C	 1.139108197	-0.8091974411	-0.0110605507	 0.375959
O	 2.2742763998	-0.3695955374	-0.034621366	-0.405813
H	 0.9923669792	 1.7165590411	-0.0341403939	 0.164215
H	-0.5662133095	 1.7635872683	-0.8983442078	 0.118108
H	-0.5368291494	 1.7817548801	 0.8799559295	 0.118109
H	-1.8099440509	-0.7130633115	 0.9210573554	 0.115123
H	-1.8394765383	-0.7310089867	-0.8457353274	 0.115125
H	-2.1977966598	-3.5028208958	-0.8074245013	 0.132861
H	-0.9654139615	-4.4309286668	 0.0608364015	 0.134742
H	-2.167957797	-3.4851763124	 0.9515624302	 0.13287
H	 2.3862338523	-3.233441395	-0.8826372694	 0.143662
H	 2.4145072355	-3.2166148679	 0.8684802018	 0.143634
H	 1.3101411893	-4.3204559992	 0.0211296404	 0.116363
68.7714	102.0174	127.9378	142.6042	159.0576	219.7156	255.0728	264.4233	286.9372	318.6656	498.1064	527.3502	553.1878	598.9053	764.3838	765.6765	840.7812	954.4623	956.2399	1015.5328	1059.6606	1077.5742	1084.8993	1126.1852	1150.6624	1193.2526	1201.5797	1245.347	1319.8866	1351.448	1413.7126	1417.9389	1428.9951	1449.2539	1472.1337	1481.1037	1482.7266	1487.3841	1492.8901	1496.3105	1529.7061	1735.1911	1793.3377	2975.8503	2993.9955	3006.2738	3021.6318	3038.2049	3050.6678	3066.2872	3089.7269	3121.3312	3125.9465	3134.8829
CN1CC(C)=C(C)C1=O	CN1CC(=C(C)C1=O)C	
InChI=1S/C7H11NO/c1-5-4-8(3)7(9)6(5)2/h4H2,1-3H3	InChI=1S/C7H11NO/c1-5-4-8(3)7(9)6(5)2/h4H2,1-3H3
