14
gdb 127815	2.55575	1.88933	1.09372	1.3021	70.58	-0.2631	-0.0621	0.201	1023.2765	0.100576	-466.120911	-466.112894	-466.11195	-466.153929	28.815	
C	-0.4028226545	 1.3539286797	-0.0165766579	-0.316733
N	-0.0206068982	-0.0537809227	 0.010569547	-0.047
N	 0.020395198	-0.6775624649	-1.1767062609	-0.025012
N	 0.3232889816	-1.8635471625	-1.3310044045	 0.002066
O	 0.6618346567	-2.6515321154	-0.1492620735	-0.292412
C	 0.6507835396	-2.1125014151	 1.0983727508	 0.377902
N	 0.9406908609	-2.7753177225	 2.1341525771	-0.504764
C	 0.27610854	-0.6744151721	 1.2187771403	 0.329026
N	 0.2136545515	-0.0127548431	 2.3001597027	-0.507188
H	 0.3990518681	 1.9647623231	 0.4042736634	 0.161293
H	-0.5856688983	 1.6212064731	-1.0558570074	 0.157781
H	-1.3013710222	 1.5065929964	 0.5855560717	 0.161265
H	 1.1762820787	-3.7413283851	 1.9040302627	 0.244243
H	 0.4633616682	-0.6317865689	 3.0730982984	 0.259535
83.3778	105.4774	136.2541	200.6599	320.0046	349.0658	459.9503	478.5297	508.896	538.9487	591.0943	677.5285	767.6852	788.3692	879.9765	902.8973	922.8762	995.5915	1048.1971	1094.3751	1156.3811	1231.295	1298.1154	1321.4503	1431.0872	1465.4443	1471.5019	1509.5104	1597.9067	1716.4354	1743.5303	3063.3896	3130.7829	3180.0057	3486.569	3494.8012
CN1N=NOC(=N)C1=N	CN1N=NOC(=C1[NH])[NH]	
InChI=1S/C3H5N5O/c1-8-2(4)3(5)9-7-6-8/h4-5H,1H3	InChI=1S/C3H5N5O/c1-8-2(4)3(5)9-7-6-8/h4-5H,1H3
