19
gdb 11985	2.69556	2.10335	1.7943	2.6039	70.56	-0.2362	0.0773	0.3136	865.6191	0.16513	-365.022491	-365.014446	-365.013502	-365.054134	31.653	
C	-0.0503565779	 1.5627707003	-0.0363852078	-0.442187
C	 0.0009876795	 0.0405965852	-0.0187497448	 0.286745
C	-1.37433528	-0.5779046777	 0.2274054512	-0.450293
C	 0.7243518813	-0.6458488881	-1.1922344513	-0.081501
N	 2.1396279864	-0.2005523337	-1.1534975084	-0.367415
C	 1.6893508641	-1.3234152152	-0.2881770864	-0.084911
C	 1.1008407781	-0.6181809215	 0.9402978257	 0.10297
O	 1.9690914041	 0.2232490556	 1.6440893502	-0.435195
H	 0.918425253	 1.9875653175	-0.3078755012	 0.12269
H	-0.7913795486	 1.9180333432	-0.7619092274	 0.104217
H	-0.3286876864	 1.9514687529	 0.948577069	 0.119796
H	-2.086559782	-0.2848349969	-0.5526376365	 0.111202
H	-1.3261147563	-1.6727723651	 0.2390270645	 0.110269
H	-1.7796407326	-0.2491967196	 1.1906177169	 0.119766
H	 0.2859277007	-1.00451534	-2.1168064194	 0.087606
H	 2.6183557078	-0.6032170205	-1.9571199705	 0.233067
H	 2.1617210131	-2.2960308629	-0.3560288686	 0.091918
H	 0.6436036025	-1.2953921121	 1.6658602925	 0.079758
H	 2.5074908134	 0.6574975087	 0.9680230024	 0.291497
141.6925	187.2964	235.0947	247.3468	275.9734	301.8888	332.4563	443.6256	514.4976	544.3151	592.2819	657.2224	769.8478	815.4117	843.7789	862.2768	922.2926	953.4895	959.6628	971.8819	1018.1121	1025.5652	1083.6843	1100.9854	1134.7023	1175.2955	1207.6421	1215.7114	1242.8084	1299.8895	1316.7812	1331.0529	1374.8777	1397.5284	1419.1031	1446.748	1480.0513	1490.3725	1498.8958	1512.2004	3020.1064	3032.491	3081.378	3087.8684	3093.1405	3096.0555	3125.5879	3172.923	3188.6613	3489.8876	3751.0841
CC1(C)C2NC2C1O	CC1(C)[C@H]2N[C@H]2[C@H]1O	
InChI=1S/C6H11NO/c1-6(2)4-3(7-4)5(6)8/h3-5,7-8H,1-2H3	InChI=1S/C6H11NO/c1-6(2)4-3(7-4)5(6)8/h3-5,7-8H,1-2H3/t3-,4+,5-/m1/s1
