15
gdb 43754	4.3532	0.99184	0.90848	3.1137	70.24	-0.2624	-0.0076	0.2549	1239.2525	0.112917	-416.814196	-416.806348	-416.805404	-416.847269	29.066	
O	 0.1778953246	 0.0121631329	 0.0426141378	-0.331313
C	 0.0818178589	 1.2019626303	-0.0161289231	 0.440112
N	-1.045898042	 2.0536387186	-0.0601084151	-0.392922
C	-0.2091707789	 3.2596616868	-0.0406783108	 0.387363
C	-0.5651277215	 4.4388010256	-0.9096728993	-0.427853
C	-1.7095249935	 5.1845873202	-0.3774450486	 0.259259
N	-2.61534057	 5.7535402276	 0.0585436966	-0.297764
C	 0.6948685811	 3.2775831765	 1.1503282164	-0.310825
C	 1.0351894191	 2.3900500139	-0.0555156287	-0.306154
H	-1.8580431496	 1.9273948576	 0.5353280541	 0.253528
H	 0.2901758765	 5.1182859978	-0.9876381616	 0.160739
H	-0.8090327326	 4.0942602971	-1.9204914358	 0.16925
H	 1.3392939	 4.1452370026	 1.2640421743	 0.132943
H	 0.3758899073	 2.8258131639	 2.0845197163	 0.136068
H	 1.9529417106	 2.4942346786	-0.6167487624	 0.127571
55.1774	100.0262	171.7553	290.1543	344.1874	389.3228	431.915	459.9769	481.32	597.8441	694.0811	744.0009	766.8723	861.7082	891.7424	916.1784	937.7634	962.3417	986.2659	1005.8559	1068.4178	1080.4278	1115.4572	1195.6869	1213.7643	1300.1953	1321.9836	1331.3823	1396.5706	1447.4321	1491.0571	1910.2239	2365.7455	3049.3376	3094.2047	3120.0773	3208.3985	3226.3186	3539.665
O=C1NC2(CC#N)CC12	O=C1N[C@@]2(CC#N)C[C@@H]12	
InChI=1S/C6H6N2O/c7-2-1-6-3-4(6)5(9)8-6/h4H,1,3H2,(H,8,9)	InChI=1S/C6H6N2O/c7-2-1-6-3-4(6)5(9)8-6/h4H,1,3H2,(H,8,9)/t4-,6-/m0/s1
