15
gdb 124960	2.49017	1.64592	0.99708	5.7292	71.54	-0.2349	-0.0486	0.1864	1115.3159	0.113533	-453.997029	-453.988866	-453.987921	-454.030503	29.454	
C	-0.0470377437	 1.5202595189	 0.1120362023	-0.502183
C	-0.0122086278	 0.0358964536	-0.0401929914	 0.291795
C	 0.0422477211	-0.7896820422	-1.1684718266	-0.066746
C	 0.071849668	-0.5099195941	-2.5729260936	 0.064731
O	 0.1205466371	-1.3981853459	-3.4206535775	-0.341183
C	 0.0632469889	-2.1211895447	-0.6347881511	 0.396008
O	 0.1127786723	-3.2356294063	-1.3587634909	-0.403604
N	 0.0264335973	-2.1357191481	 0.6836007384	-0.310396
N	-0.0189158587	-0.8033025116	 1.0052001559	-0.256912
H	 0.8822437979	 1.9775471668	-0.2433257827	 0.157479
H	-0.8695037462	 1.9568827771	-0.4624725921	 0.156694
H	-0.1814156761	 1.8038901909	 1.1596077181	 0.136039
H	 0.0485033437	 0.5530156656	-2.8861730651	 0.082075
H	 0.1308930707	-2.9384664656	-2.2924486947	 0.317224
H	-0.0536749546	-0.5537525641	 1.979882281	 0.27898
38.9622	156.4709	191.5301	194.9098	279.2934	293.9411	384.5978	464.9336	539.1358	551.1265	606.0163	652.9461	720.1993	761.5767	793.2693	812.1574	1002.6962	1028.3234	1054.8728	1078.9981	1146.0247	1261.1946	1337.6486	1362.4952	1401.375	1420.9825	1473.8475	1486.3016	1505.6545	1523.0303	1567.6024	1642.7909	1729.5349	2926.3961	3041.0521	3101.4275	3118.3558	3518.4531	3665.1394
CC1=C(C=O)C(O)=NN1	Cc1c(C=O)c(O)n[nH]1	
InChI=1S/C5H6N2O2/c1-3-4(2-8)5(9)7-6-3/h2H,1H3,(H2,6,7,9)	InChI=1S/C5H6N2O2/c1-3-4(2-8)5(9)7-6-3/h2H,1H3,(H2,6,7,9)
