16
gdb 17338	3.63715	2.20847	1.79529	3.2504	63.14	-0.2582	0.0659	0.3241	781.909	0.130351	-383.710323	-383.703664	-383.70272	-383.74076	26.256	
C	-0.0528144391	 1.5445841071	 0.0462202571	-0.501846
C	 0.1469227937	 0.0577264965	-0.0332731571	 0.406082
O	-0.5550381284	-0.7550457245	 0.913588651	-0.276057
C	 0.8752313057	-0.7784930523	 0.943325122	-0.026822
C	 1.519267345	-1.971199319	 0.2420623437	-0.279429
C	 1.1070571087	-1.8382849185	-1.2226917278	 0.037394
O	-0.2973970987	-1.9210123076	-1.4676002399	-0.232639
C	 0.2910089602	-0.6229534161	-1.3932368405	-0.040338
H	 0.7225560888	 2.0735687258	-0.5187511751	 0.123376
H	-1.0251843278	 1.8279681043	-0.3713235551	 0.135018
H	-0.0167195068	 1.8816643163	 1.0849074398	 0.133455
H	 1.3238233152	-0.3764773485	 1.8503270611	 0.092709
H	 2.6104194337	-1.907321639	 0.3272010938	 0.107484
H	 1.2033421395	-2.9259082111	 0.6742544372	 0.13045
H	 1.7387108847	-2.2515473052	-2.0063354079	 0.097106
H	 0.2611031754	-0.0294422981	-2.3033086022	 0.094057
178.1349	207.3463	263.6421	306.9873	368.1135	441.3267	555.4224	593.3115	715.8987	749.5022	811.8011	853.0329	860.0837	895.8295	921.8349	970.6438	986.2493	1017.93	1047.146	1074.5808	1115.3856	1122.4464	1204.8858	1224.7825	1264.1122	1287.9763	1313.0407	1333.165	1411.8266	1420.8363	1457.0974	1461.7923	1484.5078	1495.3345	3034.4759	3045.4895	3093.145	3096.0451	3123.7194	3125.1673	3132.1157	3151.3701
CC12OC1CC1OC21	C[C@]12O[C@H]1C[C@H]1O[C@@H]21	
InChI=1S/C6H8O2/c1-6-4(8-6)2-3-5(6)7-3/h3-5H,2H2,1H3	InChI=1S/C6H8O2/c1-6-4(8-6)2-3-5(6)7-3/h3-5H,2H2,1H3/t3-,4+,5-,6+/m1/s1
