22
gdb 5988	4.22973	1.05896	1.03826	2.1098	75.35	-0.2551	0.0753	0.3304	1285.1279	0.197168	-387.340255	-387.329811	-387.328867	-387.375284	37.668	
C	-0.2066559167	 1.5390164113	 0.0083960398	-0.395897
C	 0.0511222071	 0.029003673	-0.008353445	-0.182888
C	 0.8269105663	-0.4965715652	 1.2098383707	 0.354872
C	 2.2242165215	 0.1324649917	 1.3377996768	-0.425377
O	 0.0418034138	-0.1841298674	 2.3611903475	-0.477187
C	 0.9432905043	-2.0259695826	 1.1157781193	-0.089846
O	 1.4716335338	-2.4897493028	 2.3457589503	-0.253169
C	 1.5309872414	-3.8934962197	 2.4394773555	-0.228477
H	 0.7205008161	 2.113173137	-0.0793460427	 0.113486
H	-0.8511192359	 1.8261776535	-0.8280384547	 0.106669
H	-0.7007984824	 1.8314817279	 0.9381047455	 0.13904
H	-0.910770736	-0.4963640555	-0.0388451177	 0.097864
H	 0.5956459872	-0.2496566379	-0.9193934903	 0.088452
H	 2.1418433721	 1.1999449571	 1.5522707338	 0.122192
H	 2.7740830176	-0.3422503271	 2.1545805935	 0.122261
H	 2.805167134	 0.0044991176	 0.4176305015	 0.103737
H	 0.384115777	-0.7413667616	 3.0710194443	 0.282634
H	-0.0537978012	-2.4626107976	 0.9469613517	 0.088842
H	 1.5951397884	-2.3232961897	 0.2783702782	 0.085943
H	 1.9361837761	-4.1400911143	 3.4239120242	 0.128965
H	 0.5345208361	-4.3505351884	 2.3379419847	 0.109242
H	 2.1868555696	-4.3236094293	 1.6671229932	 0.108642
71.4465	97.8205	120.1482	143.3574	204.1795	226.9857	254.9006	278.3996	329.0917	350.4464	363.0926	417.5992	440.1515	458.6557	603.5952	771.1392	786.1029	901.4472	927.8298	962.0632	986.2372	1011.2414	1058.6732	1073.7296	1146.3735	1157.4824	1180.9791	1209.6548	1218.7854	1241.4165	1268.169	1332.8648	1350.3549	1384.1667	1405.8336	1409.0275	1425.1369	1472.9517	1478.8823	1485.2489	1489.0213	1498.2409	1499.7715	1504.5696	1511.969	1521.2845	2963.0913	2978.821	3004.1089	3023.4543	3023.6863	3039.48	3044.4519	3062.2782	3106.2256	3110.9695	3114.6641	3128.1393	3133.7449	3783.0149
CCC(C)(O)COC	CC[C@@](C)(O)COC	
InChI=1S/C6H14O2/c1-4-6(2,7)5-8-3/h7H,4-5H2,1-3H3	InChI=1S/C6H14O2/c1-4-6(2,7)5-8-3/h7H,4-5H2,1-3H3/t6-/m1/s1
