14
gdb 43688	2.52767	1.53335	1.24527	5.3033	67.84	-0.2847	-0.0668	0.218	1013.269	0.101866	-436.734323	-436.726859	-436.725915	-436.7667	27.436	
O	 0.0327958825	 0.0112274744	 0.4652553018	-0.313629
C	 0.0415430752	 1.1470165737	 0.0817687898	 0.423454
O	-1.1614876396	 1.766740976	-0.1740339635	-0.240789
C	-1.1646902024	 3.0130589581	-0.8742407392	-0.039332
C	-0.1121141163	 3.9924133041	-0.3374680346	-0.288435
C	 1.209186225	 3.2915989144	-0.213001262	-0.062854
C	 1.2625987652	 1.9666284333	-0.0653544274	-0.164765
C	-0.9898238423	 2.7861344551	-2.3241001693	 0.277231
N	-0.8660010746	 2.6341874336	-3.4622492288	-0.30443
H	-2.1707411008	 3.414951504	-0.7248705576	 0.153483
H	-0.0447000432	 4.8566960187	-1.004839919	 0.148465
H	-0.4379713627	 4.3700164364	 0.6404605813	 0.146619
H	 2.1158620219	 3.8888211001	-0.2291074983	 0.129368
H	 2.1914570722	 1.4196721079	 0.0381581668	 0.135613
89.0467	105.9916	197.2316	288.9093	327.181	419.3751	448.6653	499.906	594.149	630.0282	663.8669	787.0613	804.386	842.8731	909.6391	939.4162	979.6225	1018.0098	1048.3951	1081.5238	1144.9296	1225.0013	1229.5871	1313.3701	1360.5994	1388.3303	1402.6809	1463.7007	1696.9981	1846.4151	2361.7856	3031.6278	3081.6941	3091.3352	3179.5235	3221.0611
O=C1OC(CC=C1)C#N	O=C1O[C@@H](CC=C1)C#N	
InChI=1S/C6H5NO2/c7-4-5-2-1-3-6(8)9-5/h1,3,5H,2H2	InChI=1S/C6H5NO2/c7-4-5-2-1-3-6(8)9-5/h1,3,5H,2H2/t5-/m0/s1
