19
gdb 92217	3.16324	1.66079	1.55309	1.305	72.88	-0.2324	0.0808	0.3132	942.6151	0.161803	-423.006349	-422.99955	-422.998606	-423.037247	28.346	
C	-0.4288489949	 1.5473965419	-0.0449244397	-0.40558
C	-0.0176345827	 0.0784696971	-0.0374205443	 0.111072
O	 0.7252853417	-0.2753755414	-1.2309512713	-0.294449
C	 2.0226143718	-0.6968038593	-0.816832765	 0.076335
C	 2.7847255021	 0.5025621808	-0.1941599541	-0.234853
C	 2.3251674171	 0.2244798651	 1.2525076333	 0.050336
O	 2.8496752548	-1.1317094776	 1.4202784254	-0.300832
C	 1.7854374791	-1.4964515625	 0.5121182345	 0.066703
C	 0.8869176247	-0.389199651	 1.0942123361	-0.065092
H	 0.4321422681	 2.2167038041	 0.0307010502	 0.11927
H	-0.9622118248	 1.7814453914	-0.9704535222	 0.129948
H	-1.0991122506	 1.7550958131	 0.7963465058	 0.114345
H	-0.9310783503	-0.5338525844	-0.0348009571	 0.081103
H	 2.4997100163	-1.2109031691	-1.6495132733	 0.08065
H	 3.8718056644	 0.4125675751	-0.2520633296	 0.109839
H	 2.4678565346	 1.4487585773	-0.6343521909	 0.108127
H	 2.6019446535	 0.9087882477	 2.0537567268	 0.081699
H	 1.5450373045	-2.557479964	 0.4735742391	 0.086088
H	 0.4073596607	-0.6175642443	 2.0444905762	 0.085291
161.8172	206.6973	229.9898	391.8048	445.1415	480.2386	530.2411	585.4043	659.341	778.3554	795.8141	828.8755	849.0686	877.1472	903.2857	914.7349	944.1749	949.9853	967.1635	1007.9849	1033.21	1046.0815	1059.2303	1094.1038	1135.8896	1149.367	1163.5125	1188.4016	1209.0973	1236.7034	1280.2635	1298.4955	1305.9849	1330.903	1339.4557	1369.9679	1390.1726	1408.1479	1472.0983	1490.5069	1495.4335	2993.3288	3040.0478	3076.1013	3109.1034	3122.7601	3125.8849	3131.5221	3135.5297	3138.3856	3146.3071
CC1OC2CC3OC2C13	C[C@H]1O[C@H]2C[C@@H]3O[C@H]2[C@H]13	
InChI=1S/C7H10O2/c1-3-6-4-2-5(8-3)7(6)9-4/h3-7H,2H2,1H3	InChI=1S/C7H10O2/c1-3-6-4-2-5(8-3)7(6)9-4/h3-7H,2H2,1H3/t3-,4+,5+,6-,7-/m1/s1
