22
gdb 101350	2.44527	1.02804	0.89349	2.8004	79.06	-0.2455	0.0657	0.3112	1433.8504	0.192668	-441.437181	-441.426586	-441.425642	-441.473551	37.948	
C	-1.0175829164	 1.8165910206	-0.4017741691	-0.23288
O	-1.0236629579	 0.7347305065	 0.5001953393	-0.24327
C	-1.3152252633	-0.5329841693	-0.0858026164	 0.123775
C	-0.1630872985	-1.0824893821	-0.9294518482	-0.395718
C	-1.7509598391	-1.4523053086	 1.0559563265	-0.062956
N	-0.956221453	-2.6548235866	 1.3628722693	-0.348389
C	-1.0501567764	-1.5749681796	 2.362922139	-0.011842
C	 0.2580093067	-0.9110898809	 2.7242040434	-0.068727
O	 1.0573192328	-1.7846019755	 3.5094528371	-0.426034
H	-0.9070350536	 2.7274802354	 0.1921209565	 0.127504
H	-0.1874076003	 1.7685868723	-1.1207842372	 0.1092
H	-1.9603108891	 1.8764247523	-0.9688774393	 0.101262
H	-2.187291931	-0.4056006841	-0.7498450969	 0.063329
H	-0.441800285	-2.0517330853	-1.351475999	 0.122639
H	 0.0674299522	-0.4050884356	-1.7564635747	 0.108315
H	 0.7381178647	-1.2296423461	-0.3316794473	 0.132442
H	-2.8316941413	-1.5628375301	 1.1217636801	 0.085666
H	-1.5656784684	-3.4308235837	 1.6037568728	 0.232879
H	-1.6882025383	-1.7650893929	 3.2253459921	 0.08695
H	 0.7859476728	-0.5774160583	 1.8242265077	 0.099264
H	 0.0696655884	-0.0250386325	 3.3377884167	 0.111113
H	 1.177481684	-2.5808476957	 2.9791509977	 0.285477
46.7092	78.2981	92.9665	128.5411	185.6906	196.22	226.5034	288.1562	300.4272	371.0061	426.1436	434.0867	486.8424	518.4734	675.6538	760.1731	825.9154	863.9785	913.0771	957.1956	974.3738	1006.5931	1050.0646	1065.427	1081.9025	1099.4493	1141.9622	1158.2814	1179.8153	1183.109	1213.6428	1232.2297	1270.9926	1291.5289	1354.5194	1376.9144	1383.2097	1399.7245	1408.3186	1436.7524	1473.5313	1474.483	1480.6679	1485.7601	1496.6827	1503.2463	1513.0093	2948.7866	2976.0091	3029.4188	3044.8806	3055.9879	3090.2843	3110.2985	3110.565	3121.4751	3122.4862	3142.7378	3510.698	3795.6745
COC(C)C1NC1CO	CO[C@@H](C)[C@H]1N[C@H]1CO	
InChI=1S/C6H13NO2/c1-4(9-2)6-5(3-8)7-6/h4-8H,3H2,1-2H3	InChI=1S/C6H13NO2/c1-4(9-2)6-5(3-8)7-6/h4-8H,3H2,1-2H3/t4-,5-,6+/m0/s1
