18
gdb 38853	2.91304	1.90618	1.57887	2.4848	69.27	-0.2427	0.0701	0.3127	896.4517	0.151889	-439.067967	-439.061497	-439.060552	-439.098638	26.751	
C	-0.0019488789	 1.55800727	-0.0349696	-0.096588
O	 1.3799426783	 1.9267152242	-0.0167317611	-0.267397
C	 2.0923987019	 0.7159756608	 0.2027117183	 0.191949
O	 1.3379212415	-0.2875729405	-0.4264371171	-0.238345
C	 0.0079599134	 0.0057644367	 0.0162493041	 0.048961
C	-0.19143279	-0.5639408953	 1.4273257648	-0.223025
C	 0.9825982708	-0.1763537092	 2.3245008185	-0.032286
N	 2.237118593	-0.9322597673	 2.130277476	-0.329441
C	 2.1715852166	 0.4699369526	 1.7041718428	-0.072071
H	-0.5316531411	 1.9979497984	 0.8183475164	 0.099836
H	-0.4506172382	 1.9336251488	-0.9604373209	 0.110898
H	 3.070171836	 0.7836601295	-0.2811239142	 0.093568
H	-0.6870189458	-0.4388624159	-0.6988296143	 0.087148
H	-1.1282625009	-0.1810849826	 1.8484397378	 0.097226
H	-0.2728702297	-1.6542994393	 1.3760190055	 0.11946
H	 0.7331640414	 0.108916188	 3.3431324037	 0.087787
H	 2.737648808	-1.000410286	 3.0130321791	 0.23136
H	 2.7139887938	 1.2278692271	 2.2636890705	 0.090961
146.128	236.0983	301.7868	400.0328	428.9154	477.956	563.1405	682.6396	774.4144	787.9477	805.5545	845.7309	870.2697	890.6561	928.1812	932.1284	979.9186	986.451	1014.3762	1042.5393	1063.1873	1077.6303	1107.8727	1137.5777	1173.6423	1199.0375	1210.5637	1229.6286	1251.7413	1295.127	1326.8704	1332.8175	1358.9498	1368.3377	1392.4546	1408.9936	1456.1191	1471.7755	1526.0395	3027.781	3039.8417	3070.4557	3085.6263	3087.445	3098.149	3134.3229	3146.3732	3498.213
C1OC2OC1CC1NC21	C1O[C@@H]2O[C@H]1C[C@H]1N[C@@H]21	
InChI=1S/C6H9NO2/c1-3-2-8-6(9-3)5-4(1)7-5/h3-7H,1-2H2	InChI=1S/C6H9NO2/c1-3-2-8-6(9-3)5-4(1)7-5/h3-7H,1-2H2/t3-,4+,5+,6+/m0/s1
