17
gdb 124996	2.20726	1.60207	0.97732	2.9603	72.11	-0.2246	0.0054	0.23	1182.4902	0.136134	-455.146919	-455.137952	-455.137008	-455.180629	33.007	
C	 0.1900276438	 1.5428611519	 0.1572448434	-0.495317
C	-0.0235392969	 0.071576359	 0.0887466767	 0.35309
C	-1.1370145871	-0.7078067769	 0.006147969	-0.013366
C	-2.585942303	-0.3611500151	-0.0673462254	-0.205712
O	-3.2402476524	-1.0240331645	-1.1568371549	-0.413437
C	-0.6042633399	-2.0411046433	-0.0066754106	 0.361302
N	-1.3656733115	-3.1905116383	-0.0342474018	-0.593189
N	 0.7074697059	-2.0541366813	 0.0552224086	-0.242852
O	 1.0776155321	-0.6951674734	 0.1310961783	-0.22863
H	 0.9303983063	 1.8600781879	-0.5835787822	 0.151289
H	-0.7440504128	 2.0771459009	-0.0290475019	 0.135906
H	 0.5629794725	 1.8402774876	 1.1432825094	 0.15372
H	-3.1197859715	-0.7101767883	 0.8235496197	 0.130776
H	-2.7255447462	 0.7277689954	-0.1240672822	 0.101776
H	-2.7786337601	-0.7688054934	-1.9634303485	 0.285344
H	-2.2221606917	-3.0796723017	-0.5610170487	 0.262373
H	-0.8472526074	-4.0240480667	-0.2731547088	 0.256925
92.7984	113.3386	145.9857	190.5907	232.7042	272.1405	357.4775	388.6757	399.9394	478.669	509.6113	591.4089	614.1107	666.0192	726.1939	779.2989	787.0611	922.3671	948.4683	1008.6734	1021.6481	1060.7578	1103.2522	1154.4694	1217.757	1245.0647	1322.2751	1361.9328	1411.5129	1419.4413	1471.8093	1484.1455	1498.481	1502.774	1567.5498	1642.2172	1696.8627	3003.2288	3041.6705	3064.0318	3099.8988	3131.9286	3547.7644	3657.2998	3802.4634
CC1=C(CO)C(N)=NO1	Cc1c(CO)c(N)no1	
InChI=1S/C5H8N2O2/c1-3-4(2-8)5(6)7-9-3/h8H,2H2,1H3,(H2,6,7)	InChI=1S/C5H8N2O2/c1-3-4(2-8)5(6)7-9-3/h8H,2H2,1H3,(H2,6,7)
