19
gdb 26094	3.2037	1.21265	1.07812	2.5822	77.01	-0.2192	0.0298	0.249	1186.7511	0.159557	-419.253411	-419.244439	-419.243494	-419.286992	34.213	
C	-0.0514630532	 1.5638461897	 0.1032258333	-0.422295
C	 0.0113345319	 0.036431614	-0.0051885596	 0.205132
C	 0.6589604509	-0.5727510959	 1.2466716889	-0.382632
O	-1.3165919786	-0.5202693732	-0.0347920477	-0.462544
C	 0.7424831433	-0.3865328463	-1.2545761318	 0.304139
C	 1.7011721958	 0.180234068	-2.0583035244	-0.196566
N	 2.0584460398	-0.6729356407	-3.0788868464	-0.261933
C	 1.3233784172	-1.7466508875	-2.9011818945	 0.01071
N	 0.5166811079	-1.6292774321	-1.8100357574	-0.300844
H	 0.9511100587	 1.9960367792	 0.1715712294	 0.128168
H	-0.5424039553	 1.9968938584	-0.7744729169	 0.114623
H	-0.6133374909	 1.8474821997	 0.9971546249	 0.123392
H	 0.0879581602	-0.2925111158	 2.1365707751	 0.121
H	 0.6741383133	-1.6635443822	 1.1756039239	 0.116916
H	 1.6876088865	-0.2204245039	 1.3542214212	 0.124452
H	-1.7914841104	-0.0930951637	-0.7570742398	 0.278824
H	 2.1596539919	 1.1524628545	-1.9595190953	 0.103878
H	 1.3257595696	-2.6278044239	-3.5254993046	 0.127959
H	-0.1835348287	-2.272734388	-1.4785930282	 0.267622
54.9323	143.6672	186.7358	221.1748	263.7176	323.4775	342.0638	351.0764	382.2781	456.9628	497.7076	594.7854	609.7216	691.6623	711.2047	811.8806	848.8376	854.7625	931.6705	933.33	961.0005	1004.1105	1016.8732	1099.0821	1118.6247	1143.2109	1175.1984	1197.4281	1270.7848	1296.7145	1358.3259	1376.1489	1396.3874	1413.8089	1424.6941	1477.584	1480.5194	1493.4715	1496.602	1506.5765	1598.9202	3037.5699	3046.423	3109.0087	3119.4835	3123.7398	3132.4637	3246.9122	3251.1231	3658.6395	3794.2703
CC(C)(O)C1=CN=CN1	CC(C)(O)c1cnc[nH]1	
InChI=1S/C6H10N2O/c1-6(2,9)5-3-7-4-8-5/h3-4,9H,1-2H3,(H,7,8)	InChI=1S/C6H10N2O/c1-6(2,9)5-3-7-4-8-5/h3-4,9H,1-2H3,(H,7,8)
