22
gdb 59305	2.60706	1.12249	0.99572	3.7394	82.83	-0.2414	0.0381	0.2795	1333.7035	0.192681	-404.38265	-404.372291	-404.371347	-404.418356	37.771	
C	 0.619769906	-0.3875541099	-1.9311912718	-0.390074
C	 0.0420823882	 0.0365801243	-0.5733315337	 0.020333
C	 0.0532766885	 1.5696051588	-0.4530190108	-0.394316
C	-1.3722840417	-0.511383011	-0.2921274014	 0.04318
N	-2.249715785	-0.7118884889	-1.4562234235	-0.32857
C	-2.461260493	-2.0558778824	-1.2610722502	 0.425465
O	-3.0951573326	-2.8797458302	-1.8656306349	-0.369057
C	-1.5981193041	-2.0370896466	 0.0253381856	-0.173883
C	-0.447914619	-3.0248440654	 0.1533454477	-0.420415
H	 1.6564394747	-0.0480947674	-2.0212563853	 0.112964
H	 0.6076622951	-1.4692220056	-2.0798314904	 0.124947
H	 0.0507961343	 0.0576340022	-2.7536052547	 0.113457
H	 0.6897425147	-0.3617889159	 0.2200210539	 0.083131
H	-0.60586603	 2.0284905657	-1.2001604792	 0.110326
H	-0.2844839153	 1.8978530019	 0.5353984912	 0.113768
H	 1.0593010642	 1.969498221	-0.6145226868	 0.115544
H	-1.8414196003	 0.1214006009	 0.4722393711	 0.075695
H	-2.6672780692	-0.0662905404	-2.1103954301	 0.246006
H	-2.2583050984	-2.1381429913	 0.8938176779	 0.103584
H	 0.2284806962	-2.9988156076	-0.7033466648	 0.129948
H	 0.1397534368	-2.8341478298	 1.0573330961	 0.119619
H	-0.8490227702	-4.0403434424	 0.2247234641	 0.138349
47.0411	60.9776	166.1084	180.1357	196.9492	202.4764	249.0674	272.8741	294.8193	345.94	404.0528	474.7027	529.0009	572.8377	683.0969	748.5363	777.101	835.9111	879.5148	924.1166	940.4801	963.2464	1013.6455	1062.5197	1071.9494	1112.7693	1135.2573	1167.1034	1185.0204	1198.0436	1209.8572	1285.213	1326.0309	1345.728	1362.6726	1382.11	1394.467	1405.0558	1413.3007	1431.6378	1483.0232	1488.1016	1495.9249	1499.4618	1506.2033	1508.8198	1888.1684	3008.1892	3013.8616	3024.5907	3042.434	3044.8953	3054.0009	3089.1607	3102.8866	3105.9563	3106.82	3122.932	3134.7159	3605.6206
CC(C)C1NC(=O)C1C	CC(C)[C@H]1NC(=O)[C@H]1C	
InChI=1S/C7H13NO/c1-4(2)6-5(3)7(9)8-6/h4-6H,1-3H3,(H,8,9)	InChI=1S/C7H13NO/c1-4(2)6-5(3)7(9)8-6/h4-6H,1-3H3,(H,8,9)/t5-,6+/m0/s1
