17
gdb 41832	2.40298	2.29652	1.96741	0.2854	71.05	-0.2174	0.0113	0.2287	822.2083	0.139357	-421.806744	-421.80062	-421.799676	-421.836794	26.208	
C	-0.0132952767	 1.5449137354	 0.016342634	-0.070753
O	 1.3054832524	 2.0803572821	-0.0953456026	-0.255488
C	 2.1416139092	 1.3883973866	-0.969903759	 0.055385
C	 1.7009362441	 0.1104697573	-1.6054494823	 0.048996
O	 0.4441959971	-0.4022961862	-1.2958526756	-0.258559
C	 0.0266681019	 0.0170372601	 0.0199849384	-0.004999
C	 0.9879178465	-0.5310405943	 1.0492458923	-0.098291
C	 2.2941282511	-0.5166318031	 0.7658801187	-0.022744
C	 2.771970321	 0.0529621758	-0.5068916972	-0.187344
H	-0.4192895999	 1.9370839315	 0.9532548906	 0.112199
H	-0.644546876	 1.8856565247	-0.8187264539	 0.097787
H	 2.7826490094	 2.0618120305	-1.5314518425	 0.104452
H	 1.9700258644	-0.1205721205	-2.6297062441	 0.110389
H	-0.9824819798	-0.3841485806	 0.1457758579	 0.091421
H	 0.5977888519	-0.9511740303	 1.9691645132	 0.09363
H	 3.0253736386	-0.9357228713	 1.4496837665	 0.097029
H	 3.8011033648	-0.1290705279	-0.7946284145	 0.086891
223.6997	298.5734	362.811	427.2606	477.5558	526.7808	610.9757	674.8524	702.3416	745.5812	760.3253	796.3214	821.5471	897.1864	905.3268	934.438	951.7751	980.2167	1018.5881	1027.0056	1060.2251	1095.5273	1101.9451	1114.3385	1168.6697	1188.2587	1237.4319	1259.5245	1309.5731	1326.9892	1340.5737	1367.6673	1397.9809	1418.177	1433.4828	1493.2198	1689.3572	2988.407	3080.5945	3089.2556	3143.9765	3166.0582	3175.683	3181.7975	3198.6103
C1OC2C3OC1C=CC23	C1O[C@@H]2[C@@H]3O[C@H]1C=C[C@H]23	
InChI=1S/C7H8O2/c1-2-5-6-7(5)9-4(1)3-8-6/h1-2,4-7H,3H2	InChI=1S/C7H8O2/c1-2-5-6-7(5)9-4(1)3-8-6/h1-2,4-7H,3H2/t4-,5+,6-,7+/m0/s1
