18
gdb 39008	3.19216	1.78072	1.29771	1.5577	84.27	-0.2099	0.0081	0.218	985.7652	0.150581	-364.801664	-364.79497	-364.794026	-364.832327	28.156	
C	-0.0250941402	 1.5374372272	-0.0596193337	-0.251298
C	 1.4407885009	 1.9368112514	 0.0782896126	-0.247982
C	 2.2181575893	 0.8681163203	 0.2417497101	 0.343906
C	 3.6768858143	 0.4972379571	 0.1691897994	-0.401856
C	 3.5856368641	-0.9832490665	-0.1913865094	-0.080085
C	 2.3341826872	-1.4617772738	-0.1441829953	-0.222285
C	 1.4081617062	-0.3893591576	 0.2718984395	 0.320693
N	 0.4233350383	-0.4599297104	 1.3964696225	-0.382162
C	-0.0092022184	 0.0082381898	 0.0575300067	-0.141362
H	-0.6634736942	 1.9846886207	 0.7119344601	 0.119448
H	-0.4243816835	 1.8583547472	-1.0309801143	 0.103847
H	 1.7651814592	 2.9687146919	 0.0027672921	 0.089368
H	 4.2312934349	 1.0809555686	-0.5750642965	 0.119473
H	 4.2077642879	 0.6299519198	 1.1233431041	 0.125113
H	 4.4634641646	-1.5672066467	-0.4441043476	 0.098563
H	 2.0423171291	-2.4878528301	-0.3353391032	 0.097475
H	 0.1310409555	-1.433346616	 1.4947228211	 0.221017
H	-0.7241961751	-0.5887730228	-0.4987744582	 0.088128
197.204	209.0613	282.1788	391.8573	411.4084	479.2099	572.6996	621.6548	648.0554	732.1445	766.8647	795.9622	811.7181	848.4086	874.7488	903.6951	925.8435	954.7607	962.3508	978.492	994.7507	1025.207	1038.5323	1098.5146	1128.6041	1158.3348	1174.0153	1187.3973	1236.1902	1281.5515	1285.1978	1322.4385	1352.9084	1369.9297	1435.1273	1464.7292	1467.5626	1641.2932	1730.8509	3001.7872	3019.6584	3052.2114	3057.4439	3164.5574	3188.2656	3192.2952	3211.5188	3448.2536
C1C=C2CC=CC22NC12	C1C=C2CC=C[C@]32N[C@@H]13	
InChI=1S/C8H9N/c1-2-6-3-4-7-8(6,5-1)9-7/h1,3,5,7,9H,2,4H2	InChI=1S/C8H9N/c1-2-6-3-4-7-8(6,5-1)9-7/h1,3,5,7,9H,2,4H2/t7-,8+/m0/s1
