16
gdb 26431	4.34436	1.08173	0.90902	0.6831	76.27	-0.2158	-0.0065	0.2093	1241.3146	0.125598	-434.091801	-434.083453	-434.082509	-434.125838	29.428	
C	-0.2888224717	 1.428183114	-0.0398960298	-0.34651
N	 0.0545765083	 0.0062245978	-0.0073601608	-0.159375
C	 0.1857894881	-0.62206287	 1.2153417094	 0.067948
N	-0.0220190767	 0.0001817179	 2.3068452343	-0.476535
C	 0.0212821463	-0.7471344789	-1.1619406304	 0.39424
C	-0.4253271816	-1.9905234107	-1.4849407476	-0.18603
N	-0.10506154	-2.2568325307	-2.8122065166	-0.249283
C	 0.4794213627	-1.1839135195	-3.2225601005	 0.073705
O	 0.6108433849	-0.2134869506	-2.2784915242	-0.179289
H	-0.1068083475	 1.8123598157	-1.0427839376	 0.143781
H	-1.3384126948	 1.5846069824	 0.2329215751	 0.140788
H	 0.3318881642	 1.957834906	 0.6835470711	 0.158792
H	 0.49439128	-1.6670629923	 1.1102166569	 0.108548
H	 0.1694423734	-0.6077619244	 3.0996345233	 0.228481
H	-0.9604482137	-2.6961458819	-0.8714869018	 0.127503
H	 0.8552361881	-0.951255315	-4.2060198808	 0.153236
57.5712	74.0893	115.2687	156.2344	293.3269	305.4397	371.2454	452.5881	478.6769	662.1466	702.6902	756.8372	806.7577	813.1727	825.3285	925.7453	953.8314	1024.5151	1052.3043	1115.2018	1123.7319	1130.508	1154.407	1181.3152	1254.9664	1328.9765	1343.7799	1381.3955	1427.4646	1455.8762	1481.0728	1508.8839	1561.272	1654.4282	1712.9512	3043.3391	3073.8403	3124.9866	3170.7272	3273.3295	3281.0177	3519.7515
CN(C=N)C1=CN=CO1	CN(C=N)c1cnco1	
InChI=1S/C5H7N3O/c1-8(3-6)5-2-7-4-9-5/h2-4,6H,1H3	InChI=1S/C5H7N3O/c1-8(3-6)5-2-7-4-9-5/h2-4,6H,1H3
