21
gdb 118739	2.90191	0.91193	0.80808	1.8622	79.33	-0.2404	-0.0241	0.2163	1509.8943	0.179207	-424.240529	-424.230518	-424.229574	-424.27598	37.261	
C	-0.1711577628	 1.5474832191	 0.2422324432	-0.382541
C	-0.0408107485	 0.026251313	 0.1275185239	-0.172869
C	-1.39496186	-0.6688043016	-0.0496287632	-0.190816
C	-1.3071973135	-2.1869225742	-0.1940163602	 0.392578
O	-0.496529529	-2.4478585035	-1.3198685752	-0.48199
C	-0.9282156375	-2.9382218449	 1.1329086263	-0.41275
C	-2.3973844586	-3.3683986919	 1.2478928832	 0.415169
O	-3.0568946051	-3.8355638174	 2.1306321393	-0.291097
C	-2.7119396908	-2.8855265671	-0.1742802288	-0.41327
H	 0.8076586507	 2.0217904103	 0.3627649144	 0.112854
H	-0.6389067977	 1.9734296534	-0.6523705722	 0.115473
H	-0.7869575026	 1.8322575576	 1.1030072405	 0.112526
H	 0.6007833019	-0.2338375582	-0.7199139339	 0.119803
H	 0.4597495807	-0.36493941	 1.0228671765	 0.092633
H	-2.0506535041	-0.4352533792	 0.7995128027	 0.095739
H	-1.8937851955	-0.2767462874	-0.9453641531	 0.105143
H	-0.3981994768	-3.4002389099	-1.4181181012	 0.27737
H	-0.2695362556	-3.7969586334	 0.9557718986	 0.121774
H	-0.5187237806	-2.3583812492	 1.963587836	 0.132268
H	-3.6012250199	-2.2627460572	-0.3021349332	 0.130364
H	-2.7698469249	-3.7222010483	-0.8808057735	 0.121639
45.9022	76.2278	112.422	167.1524	243.431	288.1236	305.0556	323.0271	356.4592	382.5625	400.2337	460.1169	532.6866	651.2963	669.857	736.9703	753.6329	853.2827	867.59	916.3993	943.9734	947.2409	984.0318	1048.3738	1051.0573	1095.6696	1105.692	1139.7888	1156.8025	1184.3607	1201.7313	1240.2666	1293.0017	1311.4096	1342.7456	1382.996	1409.4214	1414.7435	1420.7165	1443.0846	1475.5373	1493.4253	1499.4859	1510.6182	1893.484	3016.1615	3025.6951	3029.0297	3040.868	3046.825	3054.3508	3078.3564	3100.6283	3103.271	3108.2035	3110.8439	3816.4199
CCCC1(O)CC(=O)C1	CCCC1(O)CC(=O)C1	
InChI=1S/C7H12O2/c1-2-3-7(9)4-6(8)5-7/h9H,2-5H2,1H3	InChI=1S/C7H12O2/c1-2-3-7(9)4-6(8)5-7/h9H,2-5H2,1H3
