21
gdb 115345	2.47458	1.30986	1.04305	1.4031	74.17	-0.2473	0.0648	0.3121	1241.3194	0.182764	-461.367501	-461.358302	-461.357358	-461.40176	35.027	
C	 0.2273405546	 1.4010000751	 0.256683437	-0.389765
C	 0.149952302	-0.1177179066	 0.0802314672	-0.171748
C	 0.7040424931	-0.5872845207	-1.2544439058	 0.091348
O	 2.1000282368	-0.2341349948	-1.3482146798	-0.281211
C	 2.6714361246	-1.1442510837	-2.2785701916	-0.130367
C	 2.1265474803	-2.4871333202	-1.812885065	 0.095736
O	 2.7684204906	-2.9030848603	-0.6074930858	-0.448177
C	 0.6403276377	-2.1360615508	-1.5089906546	 0.073813
O	 0.1269033731	-2.8994583133	-0.4461619517	-0.430898
H	 1.2607504189	 1.7499471263	 0.1817251558	 0.13121
H	-0.3557818606	 1.9185093057	-0.5134540548	 0.111643
H	-0.1666287841	 1.7029760919	 1.2317381325	 0.110609
H	 0.6947033012	-0.6242982829	 0.8848158351	 0.088362
H	-0.8860083213	-0.4648415433	 0.1556355992	 0.112803
H	 0.1751588201	-0.0746630072	-2.0748042721	 0.066149
H	 2.3531479024	-0.9216286398	-3.3104179983	 0.097075
H	 3.7601081748	-1.0728198733	-2.2162466701	 0.118162
H	 2.241858979	-3.3034030854	-2.5281573963	 0.09317
H	 2.9401736982	-2.0961952391	-0.1028311601	 0.293752
H	 0.0172966678	-2.3339103131	-2.3882260407	 0.082045
H	 0.9043682107	-3.2285521247	 0.0303166898	 0.286288
49.0641	99.1465	180.2328	194.921	232.7484	296.0858	311.3639	410.2767	419.0259	447.8568	500.0387	555.6186	624.1442	729.9513	755.6597	777.71	848.655	869.7077	894.3805	934.508	977.5966	1010.2772	1049.4006	1077.0209	1107.5355	1119.837	1149.0039	1173.4245	1223.0231	1248.8021	1253.5857	1285.2731	1303.6853	1322.368	1344.0324	1352.0273	1387.1766	1406.9354	1410.4965	1429.4674	1447.8103	1470.6121	1497.5891	1502.8146	1509.018	2960.9913	2975.4004	3035.5051	3044.1396	3045.526	3079.9882	3101.7554	3102.5036	3107.3749	3120.9234	3700.9803	3759.1104
CCC1OCC(O)C1O	CC[C@H]1OC[C@@H](O)[C@H]1O	
InChI=1S/C6H12O3/c1-2-5-6(8)4(7)3-9-5/h4-8H,2-3H2,1H3	InChI=1S/C6H12O3/c1-2-5-6(8)4(7)3-9-5/h4-8H,2-3H2,1H3/t4-,5-,6-/m1/s1
