17
gdb 43538	2.55738	1.42806	1.05696	2.3867	80.1	-0.242	-0.0237	0.2183	1144.7265	0.133784	-384.653448	-384.644837	-384.643893	-384.687004	32.417	
O	 0.043714297	 0.2042434636	-1.0516329785	-0.312511
C	-0.0214888217	 1.2019141034	-0.3897482151	 0.350544
C	-1.1540744162	 1.9094788673	 0.3803417025	-0.364782
C	-0.1479833528	 3.0812913095	 0.6947854606	-0.297343
C	 0.0532873306	 3.4203550483	 2.0888060183	 0.334232
C	 0.2439959077	 3.6925924282	 3.2448328984	-0.460308
C	 0.9698435186	 2.2560830832	-0.0013855611	 0.238436
C	 2.3773291071	 1.9862135088	 0.4823139079	-0.308347
C	 2.1639164481	 2.7239816221	-0.7989143681	-0.313057
H	-2.0302043324	 2.1787543296	-0.2138055905	 0.136117
H	-1.4771219205	 1.3573085461	 1.2662138125	 0.145449
H	-0.3985138519	 3.9804689908	 0.1230297348	 0.110662
H	 0.397489318	 3.9365713222	 4.2668759963	 0.199797
H	 2.6913676062	 2.5438431161	 1.3582872901	 0.137717
H	 2.7147348202	 0.9562646297	 0.4390810833	 0.137258
H	 2.3499818297	 2.2062354366	-1.7341864178	 0.13813
H	 2.3511761822	 3.7925831946	-0.8168103337	 0.128005
54.3936	119.0461	180.2777	192.9605	213.1328	309.8275	405.0222	483.2927	510.4405	579.6783	605.4653	625.1516	629.4319	702.4023	761.4489	797.3637	835.6379	902.2194	947.4003	977.6596	1010.2457	1043.662	1062.0404	1069.071	1085.1124	1112.4493	1183.7551	1198.5131	1221.2562	1246.7097	1337.1117	1355.1775	1437.3358	1455.3071	1486.9659	1881.7138	2233.8799	3054.0781	3073.6192	3129.8884	3133.0032	3133.5249	3215.0224	3230.4005	3502.3136
O=C1CC(C#C)C11CC1	O=C1C[C@@H](C#C)C21CC2	
InChI=1S/C8H8O/c1-2-6-5-7(9)8(6)3-4-8/h1,6H,3-5H2	InChI=1S/C8H8O/c1-2-6-5-7(9)8(6)3-4-8/h1,6H,3-5H2/t6-/m1/s1
