16
gdb 39554	2.81115	2.2364	1.74291	1.95	71.17	-0.2309	-0.009	0.2219	818.6992	0.128248	-400.748436	-400.742477	-400.741533	-400.778459	25.083	
O	-0.0152448699	 1.4648748333	 0.1489022612	-0.236243
C	 1.1586405715	 2.0912903816	-0.0984320986	 0.130357
N	 2.1682938674	 1.6720749708	-0.7425042448	-0.269224
C	 2.0281093184	 0.4275555934	-1.437889353	 0.012098
C	 2.110276345	-0.9618584447	-0.7953455253	-0.108737
C	 2.0086451867	-1.0584515443	 0.6881133036	-0.054549
C	 0.8564470844	-0.5597867392	 1.1344013545	-0.104641
C	 0.0317294378	 0.016531962	-0.0053140998	 0.037635
C	 0.78390636	-0.401131795	-1.2704676741	-0.131077
H	 1.1513781221	 3.0941038637	 0.3254289804	 0.122813
H	 2.4634661606	 0.4706571225	-2.4319755527	 0.103893
H	 2.6351597836	-1.7232543664	-1.3600928008	 0.093081
H	 2.8044363259	-1.4585180147	 1.3055220689	 0.108938
H	 0.5576589112	-0.4428580412	 2.1687224392	 0.105904
H	-1.0190545967	-0.2777194806	-0.0030551396	 0.096388
H	 0.236318862	-0.7942320413	-2.117018779	 0.093363
198.8881	244.8865	413.7625	452.1661	534.6746	578.5562	649.2545	708.4878	760.3413	779.5855	798.5682	811.8362	848.478	943.2651	950.2733	954.8295	966.0555	971.7369	997.2559	1020.8114	1046.3077	1075.1768	1099.8529	1120.4599	1134.0225	1198.8591	1290.0954	1296.0438	1343.0725	1350.0621	1374.5148	1400.6593	1412.9653	1673.4019	1700.3533	3097.7752	3147.7059	3155.9482	3180.5086	3193.4814	3197.2072	3222.1416
O1C=NC2C3C=CC1C23	O1C=N[C@H]2[C@H]3C=C[C@@H]1[C@@H]23	
InChI=1S/C7H7NO/c1-2-5-6-4(1)7(6)8-3-9-5/h1-7H	InChI=1S/C7H7NO/c1-2-5-6-4(1)7(6)8-3-9-5/h1-7H/t4-,5+,6-,7-/m0/s1
