20
gdb 70077	2.56519	1.80631	1.35211	1.5497	83.98	-0.2235	0.017	0.2405	1026.6652	0.17343	-365.994023	-365.986497	-365.985553	-366.025412	31.337	
C	-0.0621543418	 1.4821344764	 0.0131548251	-0.49245
C	 0.0130772443	-0.0302635371	 0.01465397	 0.329027
N	-0.2717271872	-0.7477746398	 1.268530305	-0.371036
C	 1.1306948431	-0.6974451953	 0.7526904577	-0.124798
C	 1.7141262081	-1.9477392756	 0.2215717058	-0.044408
C	 1.2682339907	-2.5239956975	-0.9001366019	-0.079061
C	 0.1623803703	-1.9786424327	-1.7132876981	-0.07709
C	-1.270802965	-1.9676335983	-1.2040422643	-0.298883
C	-0.4935892279	-0.6839762951	-1.2508955319	-0.080766
H	 0.474780992	 1.9033327308	-0.8439720479	 0.126202
H	-1.1030895263	 1.8213888318	-0.0489344531	 0.124194
H	 0.3781655409	 1.9025864385	 0.9232472116	 0.11025
H	-0.3721211009	-0.0769751421	 2.0280540298	 0.2217
H	 1.8156721671	-0.054644356	 1.3019147129	 0.077095
H	 2.5412285399	-2.3883050683	 0.7709448603	 0.085105
H	 1.7419050114	-3.4334047399	-1.2613499152	 0.087825
H	 0.2702255445	-2.1180550744	-2.7853175805	 0.083241
H	-2.059109445	-2.1149714802	-1.9342224257	 0.104643
H	-1.4517825484	-2.3866342955	-0.2219074691	 0.142044
H	-0.7530486699	 0.0196773401	-2.0348041107	 0.077167
148.3083	217.624	251.3508	295.7672	321.6857	412.4312	477.4672	510.7385	522.0567	592.3113	674.3432	747.8937	781.5337	805.8783	824.4082	864.8836	877.539	919.1259	958.1328	980.6827	995.448	1001.0449	1042.2415	1058.1181	1076.0009	1104.1547	1121.7233	1124.5313	1137.3307	1176.6057	1208.3283	1230.5283	1273.6695	1324.6114	1386.158	1405.8832	1414.6917	1427.6135	1457.0687	1480.7378	1488.5053	1502.3913	1699.52	3021.9468	3085.5307	3097.3313	3121.9559	3136.2982	3139.391	3151.6516	3160.1046	3174.0154	3239.2457	3478.4782
CC12NC1C=CC1CC21	C[C@]12N[C@H]1C=C[C@H]1C[C@@H]21	
InChI=1S/C8H11N/c1-8-6-4-5(6)2-3-7(8)9-8/h2-3,5-7,9H,4H2,1H3	InChI=1S/C8H11N/c1-8-6-4-5(6)2-3-7(8)9-8/h2-3,5-7,9H,4H2,1H3/t5-,6+,7-,8+/m0/s1
