20
gdb 58336	4.03338	0.70939	0.62498	2.0712	74.98	-0.2676	0.0158	0.2834	1770.2285	0.167936	-477.413294	-477.402441	-477.401496	-477.450441	37.917	
C	-0.0277763483	 1.5400457524	-0.0404314108	-0.415988
C	-0.003686236	 0.0179016175	 0.0412275067	 0.127075
O	 0.7492240021	-0.4507064561	 1.1578610602	-0.433377
C	-1.4177219057	-0.5806786109	 0.0679338695	 0.100251
O	-2.0894137478	-0.1576182556	-1.1032189345	-0.443603
C	-1.3786354487	-2.1031053121	 0.1383715302	-0.098811
O	-2.7449637738	-2.5358202188	 0.0866262705	-0.206734
C	-2.9594715786	-3.8646627347	 0.0171933328	 0.130542
N	-4.1383609064	-4.308177273	-0.0510251107	-0.437412
H	 0.9918010009	 1.932067149	-0.0847773637	 0.1222
H	-0.5795871251	 1.8676080121	-0.923796482	 0.148273
H	-0.5243382063	 1.965738044	 0.8414761094	 0.104993
H	 0.5118417277	-0.3835047918	-0.8399060744	 0.09729
H	 0.4653928937	 0.0477481756	 1.9322711842	 0.281391
H	-1.939254322	-0.21223399	 0.9701331485	 0.065884
H	-2.9161152579	-0.653447217	-1.1427684946	 0.300083
H	-0.8275250276	-2.5026576568	-0.7229956955	 0.111576
H	-0.8980773734	-2.4367105741	 1.0627722769	 0.123541
H	-2.0350001678	-4.4577907889	 0.0291000857	 0.091262
H	-4.1256544392	-5.3249192608	-0.0952770982	 0.231564
37.5062	71.7946	80.8457	109.5358	146.9974	222.9077	239.4549	290.9621	300.6281	331.2131	390.5674	428.3283	452.5837	486.4264	575.9386	638.7525	824.5043	861.1014	913.3744	955.8295	996.7342	1043.669	1046.559	1089.5547	1105.3036	1135.9642	1138.7094	1171.0877	1230.1803	1257.3171	1294.9295	1316.7437	1332.8147	1364.8351	1396.9547	1398.4656	1413.4554	1423.542	1450.8388	1490.8196	1495.9684	1502.7764	1748.8249	2940.9608	3016.8385	3023.8673	3032.589	3044.4307	3094.5257	3103.0776	3141.3742	3520.2682	3792.5981	3799.3815
CC(O)C(O)COC=N	C[C@@H](O)[C@@H](O)CO[CH][NH]	
InChI=1S/C5H11NO3/c1-4(7)5(8)2-9-3-6/h3-8H,2H2,1H3	InChI=1S/C5H11NO3/c1-4(7)5(8)2-9-3-6/h3-8H,2H2,1H3/t4-,5+/m1/s1
