16
gdb 19648	5.07532	1.79404	1.71913	1.1114	67.46	-0.2162	0.0833	0.2996	811.2209	0.129543	-346.472916	-346.466216	-346.465272	-346.503709	26.167	
C	 0.1329193214	 1.3293557547	-0.1334710101	-0.256869
O	-0.1597905503	-0.0287826193	 0.1683186611	-0.27503
C	 0.5734120115	-0.5276266112	 1.1999441262	 0.443918
C	 0.5477783541	-0.257087872	 2.7521244593	-0.189633
C	 2.0143516207	-0.6592687807	 2.8272041018	-0.077594
C	 0.9282197995	-1.7134723456	 2.9827571278	-0.078118
C	 0.9461547843	-1.9676411864	 1.4467154986	-0.1764
C	 2.05150035	-0.9077188414	 1.2911399211	-0.188299
H	 1.1889030422	 1.4557495611	-0.4056853808	 0.115195
H	-0.4991175128	 1.6098589697	-0.9784035111	 0.128468
H	-0.092255521	 1.985776063	 0.7177946568	 0.116562
H	-0.0187800514	 0.4107637791	 3.3873247604	 0.088251
H	 2.7727557002	-0.3336475458	 3.5271534424	 0.084844
H	 0.6936931308	-2.3554161577	 3.8218403049	 0.085703
H	 0.7529894643	-2.8414031621	 0.8398002392	 0.091792
H	 2.8411416065	-0.8601857054	 0.5537721526	 0.087211
104.5272	173.4243	183.6019	361.8169	414.709	581.5148	666.1999	727.4364	755.9867	779.7214	807.2033	836.7933	846.8582	880.6636	930.9329	941.4988	943.799	970.1791	1009.2956	1025.8848	1048.0492	1071.4266	1097.1554	1165.6701	1178.3605	1193.1922	1220.7162	1254.2419	1266.5482	1320.3817	1417.2571	1486.0767	1497.6632	1505.0779	3001.7979	3059.6046	3128.2973	3186.5754	3191.9711	3206.451	3207.8065	3216.3066
COC12C3C4C3C1C24	CO[C@@]12[C@@H]3[C@H]4[C@@H]3[C@@H]1[C@@H]24	
InChI=1S/C7H8O/c1-8-7-4-2-3(4)6(7)5(2)7/h2-6H,1H3	InChI=1S/C7H8O/c1-8-7-4-2-3(4)6(7)5(2)7/h2-6H,1H3/t2-,3+,4-,5+,6-,7-
