20
gdb 67276	3.02907	1.87602	1.72543	1.6605	81.2	-0.2023	0.0789	0.2811	911.6225	0.173475	-365.930364	-365.923669	-365.922725	-365.960881	28.738	
C	-0.0235298137	 1.5570934095	-0.0145804437	-0.538149
C	-0.0129763836	 0.0561596067	 0.0063581659	 0.388673
C	 0.7140861916	-0.8836009499	-1.0389772717	-0.102076
C	 1.7236139727	-1.2773714523	 0.0600962155	-0.24672
C	 0.649938924	-0.8667929244	 1.0893136499	-0.05339
N	-0.5872235808	-1.7674929574	 1.1063981407	-0.161595
C	-0.4526559967	-2.8709511008	 0.0918324125	-0.177244
C	-0.5462050385	-1.8420834907	-1.0451976398	-0.059919
C	-1.2158336905	-0.9081314153	 0.0107735716	-0.06302
H	 0.9944619897	 1.9639359826	-0.005011326	 0.118718
H	-0.522628242	 1.9383833268	-0.9133010185	 0.118355
H	-0.5516364194	 1.961845298	 0.8566553901	 0.123307
H	 1.0668872011	-0.5403061043	-2.0118910607	 0.062572
H	 2.1411948606	-2.2881394804	 0.0808091232	 0.096016
H	 2.549966151	-0.5593619997	 0.094435512	 0.099179
H	 0.9466146018	-0.5526378737	 2.092103275	 0.068786
H	 0.429116236	-3.5115795596	 0.1863958659	 0.100489
H	-1.3472173916	-3.5001876882	 0.1496017628	 0.103635
H	-0.9653074275	-2.1032016217	-2.0190187003	 0.059855
H	-2.2781741943	-0.6654727153	 0.0836292857	 0.062527
215.8709	228.8092	230.6981	419.942	428.2833	474.4348	559.037	622.9778	704.1536	748.4412	766.2892	816.3273	848.674	863.2246	879.3535	892.371	939.4323	953.6671	959.2903	964.7286	1011.2401	1035.1301	1099.0994	1108.003	1131.1524	1157.3376	1160.9827	1168.5217	1174.9996	1184.8108	1212.4404	1223.2585	1239.949	1268.456	1279.6435	1312.4871	1314.3665	1367.4895	1412.3347	1478.5029	1488.0683	1491.3419	1518.1609	3017.5788	3038.1061	3045.502	3075.192	3079.3351	3081.7161	3084.0864	3085.7777	3086.9147	3094.1918	3104.6812
CC12C3CC1N1CC3C21	C[C@@]12[C@H]3C[C@@H]1N1C[C@H]3[C@H]21	
InChI=1S/C8H11N/c1-8-5-2-6(8)9-3-4(5)7(8)9/h4-7H,2-3H2,1H3	InChI=1S/C8H11N/c1-8-5-2-6(8)9-3-4(5)7(8)9/h4-7H,2-3H2,1H3/t4-,5+,6+,7-,8-/m1/s1
