16
gdb 54082	2.29514	1.45141	0.93696	5.2991	73.45	-0.2129	-0.043	0.1698	1214.94	0.122596	-475.043317	-475.034349	-475.033405	-475.077626	32.007	
C	 0.2776236649	 0.9527726596	-0.1516358381	-0.489435
C	-0.4489125697	-0.2460561299	 0.3329565043	 0.275887
O	 0.2887608191	-1.2154155767	 0.9246210991	-0.279505
C	-1.749681607	-0.6053421113	 0.2963070175	 0.125909
O	-1.9092842517	-1.8601285556	 0.8616698325	-0.25652
C	-0.6443325536	-2.2950411931	 1.308287891	 0.21667
N	-0.3338559612	-3.553289854	 0.7554900613	-0.478055
H	 0.5254388712	-3.9318859599	 1.135326419	 0.246476
H	-0.2817543645	-3.5172410504	-0.2569761387	 0.243745
C	-2.8869500542	 0.1000772285	-0.2455854465	 0.060834
O	-4.0292023342	-0.3088249517	-0.2597199266	-0.291889
H	 1.0344830519	 0.6658991639	-0.8903508682	 0.150626
H	-0.4041968868	 1.6706904067	-0.6087126827	 0.149169
H	 0.8019288312	 1.4413928031	 0.6770554831	 0.152581
H	-0.6063244943	-2.3580857792	 2.4034056057	 0.108926
H	-2.618685131	 1.0939998799	-0.666482553	 0.064582
47.8137	120.6323	158.8483	176.0598	208.8013	274.6484	292.6143	370.1474	410.7061	521.8389	548.2015	604.9732	630.0452	722.8753	758.8921	795.9848	857.2178	963.6037	988.9499	999.3263	1057.1876	1126.7819	1186.8736	1263.0623	1279.0354	1346.3711	1386.1018	1418.2008	1431.2471	1457.5284	1464.7589	1481.6093	1648.5439	1711.1755	1773.0411	2881.6553	3032.2352	3037.2121	3089.0353	3148.2777	3521.6282	3619.6587
CC(=O)[C-](OC=[NH2+])C=O	CC1=C(O[C@H](O1)N)C=O	
InChI=1S/C5H6NO3/c1-4(8)5(2-7)9-3-6/h2-3,6H,1H3/q-1/p+1	InChI=1S/C5H7NO3/c1-3-4(2-7)9-5(6)8-3/h2,5H,6H2,1H3/t5-/m0/s1
