18
gdb 85497	2.25918	1.56756	1.13948	4.4611	73.53	-0.2545	-0.0411	0.2134	1121.4614	0.147167	-439.11661	-439.107996	-439.107051	-439.150274	31.728	
C	-0.6430617565	 1.3409455075	 0.1311085352	-0.429759
C	 0.1585449092	 0.0497040635	-0.0206388984	-0.009578
C	 1.3361547581	 0.1093725869	-1.0060478284	-0.312175
C	 2.2489283047	-0.9959631257	-0.528425599	 0.423465
N	 3.1554439451	-1.5609023329	-1.19476411	-0.540254
O	 1.9219159485	-1.318415618	 0.7686704519	-0.224724
C	 0.88728076	-0.4715549937	 1.2534465378	-0.011101
C	 1.4650259284	 0.6610112528	 2.0951029255	 0.14988
O	 2.6048765215	 1.0355811289	 2.0286237271	-0.234219
H	-0.0027440608	 2.1869931146	 0.4022610274	 0.134492
H	-1.1349862397	 1.5912702402	-0.8133569709	 0.132739
H	-1.4234324299	 1.246253748	 0.8935671747	 0.123391
H	-0.5180272058	-0.7533900962	-0.3350119169	 0.100451
H	 1.0545774422	-0.0340686628	-2.0494627962	 0.13859
H	 1.8641357433	 1.0670618907	-0.9273766344	 0.143409
H	 3.6343219734	-2.2636711826	-0.6288565285	 0.225468
H	 0.2228504908	-1.0688680491	 1.888620733	 0.105226
H	 0.7300697977	 1.1387431179	 2.7821306701	 0.0847
80.6697	91.6139	118.8065	240.8975	271.9346	287.2251	293.5224	458.3377	467.0724	510.7217	579.4979	631.173	774.652	819.0717	855.1693	894.5275	899.6942	917.5511	947.2449	1003.7104	1033.5412	1078.3896	1111.9143	1132.321	1161.1068	1182.1306	1258.3005	1284.3338	1294.6635	1352.2465	1366.2209	1393.1925	1415.8794	1419.3494	1472.6115	1497.4106	1502.995	1790.8264	1840.8902	2874.2617	3033.2558	3035.0949	3050.9443	3054.6917	3102.1382	3109.3267	3133.3812	3474.4593
CC1CC(=N)OC1C=O	C[C@H]1C[C]([NH])O[C@H]1C=O	
InChI=1S/C6H9NO2/c1-4-2-6(7)9-5(4)3-8/h3-5,7H,2H2,1H3	InChI=1S/C6H9NO2/c1-4-2-6(7)9-5(4)3-8/h3-5,7H,2H2,1H3/t4-,5-/m0/s1
