25
gdb 118775	2.83924	0.91731	0.79696	1.2685	90.06	-0.2446	0.0732	0.3178	1593.3198	0.225754	-389.490005	-389.478656	-389.477711	-389.526069	42.423	
C	-0.0213542232	 1.5752657102	 0.1709968362	-0.380947
C	-0.0210699438	 0.0446435418	 0.216059767	-0.161374
C	-1.3490462771	-0.5608008426	-0.2638540504	-0.249119
C	-1.4203972158	-2.0797663511	-0.1526819209	 0.308483
C	-0.3832074484	-2.819286107	-0.9832725128	-0.455616
C	-1.7904839352	-2.6791376554	 1.2002802243	-0.392208
C	-2.7642547375	-2.7531334945	 0.0441489146	 0.346701
C	-4.0771295803	-1.9995749006	 0.08023913	-0.444987
O	-2.8890491788	-3.9974115104	-0.6073342507	-0.46198
H	 0.9343399074	 1.9853535135	 0.5124101007	 0.109795
H	-0.1955023135	 1.9417510713	-0.8470424335	 0.11317
H	-0.809076796	 1.9919850974	 0.8089931075	 0.110829
H	 0.8048455749	-0.333705585	-0.3969653063	 0.100091
H	 0.1783603831	-0.2949723049	 1.2406965474	 0.096542
H	-2.1582677324	-0.1027400445	 0.3151511558	 0.087218
H	-1.5201588584	-0.2668323519	-1.3094540004	 0.092243
H	 0.6285331608	-2.6283622737	-0.6112174304	 0.110598
H	-0.5600873355	-3.894480643	-0.9658837729	 0.131477
H	-0.4199570991	-2.4929468007	-2.0296370321	 0.109084
H	-1.2995140627	-3.6019743341	 1.4925405804	 0.104381
H	-2.011700925	-2.0033566541	 2.0215166494	 0.10029
H	-4.0050715747	-1.0496361861	 0.6130543274	 0.118982
H	-4.4398350444	-1.804636311	-0.9343214704	 0.124612
H	-4.8364973317	-2.6021014721	 0.594997054	 0.103199
H	-3.4325211326	-4.5637982217	-0.0486220639	 0.278536
74.6563	84.8728	117.6684	177.961	180.0442	198.3614	244.9591	274.461	281.0228	314.5783	334.2001	366.2733	406.1	441.3334	459.1753	563.2961	701.5003	727.2548	749.4188	872.1218	877.0402	912.8678	920.7152	935.4185	969.3292	1000.5189	1041.1097	1051.5119	1061.9349	1078.0273	1100.876	1141.6449	1198.3562	1216.3673	1272.6054	1296.5632	1305.0874	1324.1826	1337.668	1389.5383	1400.7791	1408.185	1412.8571	1422.3311	1471.9926	1482.164	1489.6487	1493.3805	1494.6899	1499.3646	1502.2694	1509.2956	1511.6763	3005.1194	3023.5877	3025.684	3028.1149	3031.5525	3051.7146	3070.4739	3084.5379	3088.57	3095.923	3100.0335	3115.8889	3128.5546	3147.0732	3204.9079	3793.6217
CCCC1(C)CC1(C)O	CCC[C@@]1(C)C[C@]1(C)O	
InChI=1S/C8H16O/c1-4-5-7(2)6-8(7,3)9/h9H,4-6H2,1-3H3	InChI=1S/C8H16O/c1-4-5-7(2)6-8(7,3)9/h9H,4-6H2,1-3H3/t7-,8-/m0/s1
