16
gdb 100237	2.72993	1.15736	0.97567	2.8326	70.41	-0.2734	0.0139	0.2873	1226.6033	0.121105	-437.851897	-437.842122	-437.841178	-437.886632	35.316	
O	 0.0907569511	 1.3332103946	-0.2863422823	-0.42671
C	 0.0587198314	-0.0523537177	-0.0005298588	-0.105567
C	-1.4047644088	-0.5574828178	-0.0058020051	 0.18908
O	-2.0235935887	-0.1642009131	-1.2063979002	-0.433275
C	-1.4610351528	-2.0961562881	 0.0888915653	-0.382632
C	-2.8133948282	-2.6302996208	 0.1491772775	 0.312797
C	-3.9271456034	-3.0741125681	 0.2090122334	-0.421763
C	-2.0871947196	 0.0755709259	 1.1567484006	 0.253021
N	-2.5462114136	 0.6392800087	 2.0554642014	-0.336647
H	-0.2069302008	 1.8099901572	 0.4982984425	 0.306851
H	 0.5902721722	-0.5492477923	-0.81734648	 0.131239
H	 0.55271528	-0.2949112634	 0.9488557821	 0.118279
H	-1.7068333382	 0.7340188192	-1.3843552413	 0.29748
H	-0.9418737207	-2.4822472026	-0.7960218983	 0.14916
H	-0.8907510091	-2.4160466338	 0.969550028	 0.143847
H	-4.9151756808	-3.4599284879	 0.2611114753	 0.204842
62.3847	104.6246	116.0561	179.8414	192.9131	260.5925	329.1928	341.7348	387.9456	406.882	429.7102	472.5679	551.8217	589.7138	630.0835	660.7382	711.4563	718.0982	896.6633	943.8868	951.173	1041.6806	1085.8997	1102.5031	1153.1909	1209.6703	1300.7858	1328.8472	1378.8543	1404.1718	1416.677	1453.7282	1488.5111	2249.763	2346.6643	3025.2751	3033.0468	3073.223	3101.5767	3505.7283	3731.6915	3789.398
OCC(O)(CC#C)C#N	OC[C@@](O)(CC#C)C#N	
InChI=1S/C6H7NO2/c1-2-3-6(9,4-7)5-8/h1,8-9H,3,5H2	InChI=1S/C6H7NO2/c1-2-3-6(9,4-7)5-8/h1,8-9H,3,5H2/t6-/m1/s1
