19
gdb 114373	2.29993	1.27198	0.99165	3.3895	76.75	-0.2342	-0.0225	0.2118	1264.2657	0.157748	-422.991606	-422.982767	-422.981823	-423.025764	32.525	
C	-0.0044066437	 1.4322170795	-0.2582837318	-0.386394
C	 1.2201665178	 0.6225964678	 0.1832973478	-0.214131
C	 1.741427086	-0.2583180081	-0.9354122569	 0.14841
O	 2.9630481592	-1.006766692	-0.6300812243	-0.30606
C	 2.3989353315	-2.1803100538	-1.2170307866	 0.061932
C	 1.2587728302	-2.7071703963	-0.3828567759	-0.127568
C	 1.2584218724	-2.6426971679	 1.1018353117	 0.138429
O	 0.5727655663	-3.357628297	 1.7947835622	-0.274489
C	 1.0513097599	-1.547186903	-1.3796439241	-0.174508
H	 0.2288079269	 2.0743916698	-1.1145530772	 0.119555
H	-0.8316040195	 0.7753168724	-0.5473068273	 0.125791
H	-0.3589364048	 2.0740255943	 0.5525291174	 0.125624
H	 2.0307836104	 1.297529427	 0.48490574	 0.114641
H	 0.9713604416	 0.0181392055	 1.0601568333	 0.110129
H	 1.9410177078	 0.3591693045	-1.823087878	 0.092125
H	 3.0234280116	-2.7819689682	-1.8667765319	 0.118174
H	 0.803441742	-3.6180931885	-0.7631970167	 0.115275
H	 1.9707540963	-1.9196365557	 1.5442195058	 0.098935
H	 0.3194695579	-1.6435824702	-2.1694606676	 0.114129
62.162	91.051	148.3655	194.9329	213.9303	264.7019	303.12	412.6138	436.2827	530.739	598.8774	700.6151	789.5458	809.278	813.9141	893.4321	938.9224	960.6803	974.8553	1016.1227	1029.6273	1050.5828	1051.8936	1070.1702	1087.7427	1112.4209	1174.4628	1195.1127	1252.0394	1269.1755	1303.1488	1321.7024	1340.5161	1377.0504	1406.7897	1420.1454	1442.8046	1486.3607	1501.4068	1508.4522	1803.3069	2943.7715	3001.6691	3035.6469	3039.9509	3085.75	3107.9493	3115.7992	3155.6771	3184.8135	3213.2221
CCC1OC2C(C=O)C12	CC[C@H]1O[C@H]2[C@@H](C=O)[C@@H]12	
InChI=1S/C7H10O2/c1-2-5-6-4(3-8)7(6)9-5/h3-7H,2H2,1H3	InChI=1S/C7H10O2/c1-2-5-6-4(3-8)7(6)9-5/h3-7H,2H2,1H3/t4-,5+,6-,7-/m0/s1
