18
gdb 85502	2.60805	1.28338	0.97912	3.0182	72.85	-0.2474	-0.0343	0.2131	1209.4787	0.147295	-439.144667	-439.135786	-439.134842	-439.178987	32.306	
C	-0.0809189754	 1.5833342379	 0.0177993505	-0.409663
C	 0.100895532	 0.0668913241	 0.0186356425	 0.024662
N	 0.9241509735	-0.411018056	-1.0837106565	-0.305929
C	 1.6643312377	-1.5341833496	-0.8130542904	 0.407373
O	 2.2989750405	-2.18288876	-1.6121027732	-0.370624
C	 1.5151759832	-1.8003139827	 0.6898615608	-0.367909
C	 0.846191554	-0.53050126	 1.2577147455	-0.101253
C	 1.8990408532	 0.419965711	 1.7972447448	 0.164244
O	 1.829553664	 0.972373734	 2.8643515484	-0.252994
H	 0.8796847387	 2.1059776832	 0.0061498949	 0.134521
H	-0.6502974777	 1.9018223591	-0.8612318871	 0.120978
H	-0.6340198842	 1.8991242615	 0.9072188334	 0.140427
H	-0.8970966571	-0.3970722171	-0.0201064361	 0.092205
H	 0.7452684183	-0.1533152475	-2.042522776	 0.252198
H	 0.8783018903	-2.6810216377	 0.8213887011	 0.14117
H	 2.4857820339	-2.0356724012	 1.1336471992	 0.139771
H	 0.1426913544	-0.7271691422	 2.0686377741	 0.101039
H	 2.7777884408	 0.571041133	 1.1288731839	 0.089783
58.1452	75.8323	114.8479	226.2009	236.8864	309.5172	314.1805	426.0463	465.5438	495.0711	511.0141	595.2889	663.4065	686.8702	837.7743	875.7562	905.8614	959.1552	987.1655	1003.7024	1060.2889	1085.1327	1129.9232	1157.5254	1205.5677	1236.1667	1256.4897	1288.2304	1318.3204	1355.0966	1395.8335	1416.2902	1424.0063	1433.604	1466.3784	1487.82	1502.9473	1832.3573	1838.475	2869.2277	2970.0674	3041.3937	3062.5645	3101.2306	3110.0326	3110.3509	3122.9444	3628.397
CC1NC(=O)CC1C=O	C[C@H]1NC(=O)C[C@H]1C=O	
InChI=1S/C6H9NO2/c1-4-5(3-8)2-6(9)7-4/h3-5H,2H2,1H3,(H,7,9)	InChI=1S/C6H9NO2/c1-4-5(3-8)2-6(9)7-4/h3-5H,2H2,1H3,(H,7,9)/t4-,5+/m1/s1
