20
gdb 112201	2.5845	1.3071	0.9651	2.7243	81.68	-0.2181	-0.021	0.1971	1273.3184	0.169225	-403.128025	-403.11889	-403.117946	-403.162052	34.169	
C	-0.0085496014	 1.5650323952	 0.0658407237	-0.385184
C	-0.1868799882	 0.0514281615	-0.030371142	-0.128827
N	 0.5902492356	-0.5053385596	-1.1261489302	-0.142441
C	 0.1067855617	-0.234697472	-2.5086751861	-0.300844
C	 0.2498319584	-1.7393136374	-2.8022457874	 0.336048
O	 0.1543605123	-2.4390968637	-3.7683173975	-0.310329
C	 0.5567063096	-1.9602732671	-1.3518989308	 0.241655
C	 1.4400069464	-3.01241717	-0.7443776552	-0.304809
C	-0.0428306807	-3.0511941086	-0.4889666157	-0.325514
H	 1.0472391737	 1.8191723251	 0.1949512417	 0.127603
H	-0.3681763434	 2.0653131847	-0.839441221	 0.120877
H	-0.5733156036	 1.9652407328	 0.913217241	 0.1155
H	 0.1626129605	-0.4129300007	 0.8995253479	 0.102551
H	-1.2628432825	-0.1939183409	-0.122891063	 0.079385
H	-0.9432201687	 0.0916294762	-2.5670744586	 0.119779
H	 0.7292627344	 0.448061963	-3.0944411251	 0.132217
H	 1.8732409195	-3.742006831	-1.4205099796	 0.134039
H	 2.0853027349	-2.6917600057	 0.0667837692	 0.12638
H	-0.3951500122	-2.7681085585	 0.4968834857	 0.126175
H	-0.6425211065	-3.8037212035	-0.9900958172	 0.135738
79.0675	100.3857	156.3092	188.5389	209.3385	227.2034	310.9047	357.4756	427.2325	521.2797	558.0685	606.8389	684.0957	749.7396	796.108	814.8561	827.2375	928.4594	952.5692	969.9842	995.5445	1015.9019	1046.3345	1064.8702	1071.9367	1109.2074	1119.1393	1184.0208	1189.6476	1196.3384	1239.1134	1294.3087	1316.7726	1359.3964	1389.7561	1411.9294	1451.4052	1465.5345	1486.0812	1489.8946	1494.7712	1513.6664	1904.3335	2913.1271	2990.9165	3039.1205	3045.049	3081.9976	3107.1483	3120.4358	3130.0756	3133.5036	3214.858	3229.479
CCN1CC(=O)C11CC1	CCN1CC(=O)C21CC2	
InChI=1S/C7H11NO/c1-2-8-5-6(9)7(8)3-4-7/h2-5H2,1H3	InChI=1S/C7H11NO/c1-2-8-5-6(9)7(8)3-4-7/h2-5H2,1H3
