23
gdb 87209	4.09635	0.85349	0.80355	1.3998	86.74	-0.2423	0.0818	0.3241	1551.2961	0.204359	-388.267338	-388.25738	-388.256436	-388.302115	38.036	
C	-0.0366823379	 1.4779504941	-0.09235753	-0.404142
C	 0.1623139971	-0.0198302885	-0.0256726181	-0.046489
C	 1.5580005249	-0.6108444541	 0.0959792358	-0.354559
C	 0.5786059526	-0.6975607389	 1.248295674	 0.416476
O	 0.7856346539	 0.1692046349	 2.33506397	-0.470466
C	-0.0184501454	-2.0395359651	 1.6331420857	-0.271897
C	 0.8857669507	-2.8516720664	 2.5412574935	 0.017537
C	 0.8883285709	-2.6086465903	 4.0365798304	-0.267626
C	 0.3090640759	-3.8828034479	 3.4740483462	-0.283237
H	 0.6346683907	 1.9909040613	 0.5994693959	 0.130993
H	 0.1540346602	 1.85265556	-1.103967056	 0.109565
H	-1.06228555	 1.7520108809	 0.1783495833	 0.114488
H	-0.5293483697	-0.5928271411	-0.6393683348	 0.079725
H	 1.8018835379	-1.5074381876	-0.4651775792	 0.10226
H	 2.3769131859	 0.0921608244	 0.2094075226	 0.108253
H	 1.4319201215	-0.2493340768	 2.9139771398	 0.286439
H	-0.9787683715	-1.8669574288	 2.1369402159	 0.096972
H	-0.235284574	-2.6107428489	 0.7218542872	 0.094636
H	 1.8498732587	-3.0988706067	 2.1029393349	 0.084309
H	 1.8288200214	-2.6672508179	 4.5742880942	 0.110048
H	 0.1960345424	-1.8701936897	 4.427470961	 0.122327
H	-0.7697908415	-3.9986442121	 3.4938761417	 0.112965
H	 0.8567015253	-4.8063061147	 3.6253198757	 0.111422
70.6523	93.8568	118.2357	188.8978	229.9863	236.8704	283.6156	316.8167	355.4401	406.9573	418.8061	462.3475	579.6876	718.9369	780.5258	802.9487	807.2551	840.4021	872.5738	907.7586	918.5982	942.7114	955.6161	988.0996	1016.8208	1040.9981	1054.1397	1079.0474	1091.4998	1136.6627	1142.8314	1155.6836	1190.0425	1201.2766	1221.4818	1236.5894	1256.6903	1297.6516	1321.861	1360.6234	1408.442	1414.8946	1426.9214	1468.1394	1474.3744	1488.8815	1495.5676	1506.525	1508.1756	3014.4812	3033.0213	3056.4054	3088.9504	3118.4393	3123.2641	3127.6462	3131.1718	3135.8032	3136.1891	3206.4205	3211.9647	3221.4635	3804.7601
CC1CC1(O)CC1CC1	C[C@H]1C[C@]1(O)CC1CC1	
InChI=1S/C8H14O/c1-6-4-8(6,9)5-7-2-3-7/h6-7,9H,2-5H2,1H3	InChI=1S/C8H14O/c1-6-4-8(6,9)5-7-2-3-7/h6-7,9H,2-5H2,1H3/t6-,8-/m0/s1
