24
gdb 113940	4.03074	0.7156	0.6859	0.9897	90.8	-0.229	0.0867	0.3157	1785.5019	0.217015	-368.369202	-368.359199	-368.358255	-368.404962	37.144	
C	-0.1189742271	 1.5142614754	-0.4869157223	-0.374235
C	-0.076928812	 0.162604933	 0.2361289083	-0.192666
C	-1.394396583	-0.5831300483	 0.1403866548	 0.005964
C	-1.7028999186	-1.479445286	-1.0362124961	-0.291272
C	-1.5288285825	-2.0750369223	 0.3424490385	-0.008554
C	-0.355537502	-2.9683035715	 0.6801704804	-0.169517
N	-0.7061465102	-4.3734580942	 0.4813797073	-0.059033
C	-0.4403407621	-4.9325758675	-0.8386474871	-0.213327
C	 0.4064386047	-5.3024728546	 0.3294947358	-0.221872
H	 0.8373319638	 2.0404057114	-0.4049603446	 0.10841
H	-0.3437577076	 1.3829153895	-1.5505241519	 0.117632
H	-0.8937975382	 2.163270211	-0.0639141171	 0.113256
H	 0.7314723703	-0.4462717849	-0.1844146832	 0.093477
H	 0.1798327818	 0.3221885811	 1.2919132445	 0.095586
H	-2.236975978	-0.0036008794	 0.5132791207	 0.078347
H	-2.6927990646	-1.4572043904	-1.4787402871	 0.107725
H	-0.9026588235	-1.6418706004	-1.7530744186	 0.102679
H	-2.4422029506	-2.3974838074	 0.8348880867	 0.090634
H	 0.5337932889	-2.6836108006	 0.0900129433	 0.074483
H	-0.0866237791	-2.8496942267	 1.7379372574	 0.102251
H	-1.1871876709	-5.621195764	-1.2233969731	 0.114403
H	 0.008077398	-4.2830250565	-1.5888702629	 0.106444
H	 1.4178734906	-4.8983901795	 0.3553552928	 0.104933
H	 0.2904657918	-6.2664089772	 0.8171126733	 0.114252
54.4597	74.7518	102.5117	106.6028	207.798	229.6039	269.5413	311.4137	371.2922	399.544	460.8287	542.1787	751.7443	774.5628	798.6303	827.2825	837.5342	873.0855	902.4825	913.4868	956.2377	987.5909	1018.9465	1029.2102	1047.6378	1065.6062	1083.1757	1111.7935	1116.0225	1119.6428	1148.6792	1153.1197	1172.4511	1201.0169	1206.6674	1246.5509	1289.6483	1299.508	1320.903	1340.5683	1363.5921	1405.7704	1413.811	1438.9572	1483.0528	1486.5933	1493.4879	1498.2081	1499.16	1507.2425	1524.2637	2938.4949	3017.9691	3030.9779	3033.3575	3057.7201	3090.3974	3097.1466	3098.6444	3104.2077	3119.1166	3120.1389	3145.5389	3173.1925	3187.9099	3205.2134
CCC1CC1CN1CC1	CC[C@H]1C[C@H]1CN1CC1	
InChI=1S/C8H15N/c1-2-7-5-8(7)6-9-3-4-9/h7-8H,2-6H2,1H3	InChI=1S/C8H15N/c1-2-7-5-8(7)6-9-3-4-9/h7-8H,2-6H2,1H3/t7-,8-/m0/s1
