15
gdb 6875	2.90332	1.6951	1.47851	3.9152	62.52	-0.2735	0.0214	0.2949	904.12	0.116293	-399.793395	-399.784757	-399.783813	-399.826089	31.296	
C	-0.0573204804	 1.580357133	-0.0501879156	-0.452801
C	 0.0086667359	 0.0745155955	 0.0011556254	 0.355006
O	-1.1608079094	-0.599101	-0.3707204749	-0.455683
C	 1.297755687	-0.6478692843	-0.2606082745	 0.028665
O	 2.4215685654	 0.1176285871	-0.5254347657	-0.405415
C	 0.6958774324	-0.6433921767	 1.159227466	-0.284289
C	 1.3682325229	 0.0863087336	 2.1902273501	 0.297291
N	 1.9403176367	 0.6625377073	 3.0151391057	-0.345144
H	 0.8866563636	 2.0303089758	 0.2583612551	 0.158307
H	-0.2660919199	 1.9083574119	-1.0751804862	 0.116848
H	-0.8592922576	 1.9430996689	 0.5984004294	 0.137887
H	-1.3403641555	-0.3908944488	-1.2951801205	 0.288841
H	 1.2236141125	-1.6016362546	-0.782393936	 0.109208
H	 3.1637182013	-0.2213056696	-0.0116177828	 0.305478
H	 0.2137770852	-1.561415949	 1.4766840542	 0.145801
109.3551	138.6149	179.4419	220.6003	253.9276	279.9731	307.6111	380.7601	395.2088	425.8392	508.355	564.432	650.5099	711.1771	828.12	868.1275	946.6956	1001.5213	1042.8721	1078.696	1110.2382	1159.2704	1229.8008	1264.0716	1315.653	1331.6806	1357.7052	1418.7405	1452.0394	1485.529	1502.1098	2349.8351	3039.4471	3107.7434	3111.1465	3155.1266	3180.6275	3790.6267	3793.4991
CC1(O)C(O)C1C#N	C[C@@]1(O)[C@@H](O)[C@H]1C#N	
InChI=1S/C5H7NO2/c1-5(8)3(2-6)4(5)7/h3-4,7-8H,1H3	InChI=1S/C5H7NO2/c1-5(8)3(2-6)4(5)7/h3-4,7-8H,1H3/t3-,4+,5+/m1/s1
