14
gdb 5793	6.20393	1.39734	1.22733	1.9337	63.22	-0.2248	0.0129	0.2377	944.0822	0.108259	-382.538018	-382.531514	-382.530569	-382.569229	24.075	
C	 0.0749491088	 1.5377030605	 0.0074606958	-0.167092
O	 1.2052976181	 0.6679412295	-0.0303845916	-0.228975
C	-0.0928692823	 0.0714595258	 0.0222886255	-0.052206
C	-0.4224409597	-0.6713488559	 1.2558836596	 0.242547
C	 0.3556002557	-0.7799518635	 2.3678587031	-0.092197
O	-0.2616521017	-1.5379372467	 3.31190407	-0.14203
C	-1.4557771826	-1.9229788943	 2.7918274284	 0.012072
C	-1.6117310911	-1.4290579104	 1.5372483184	-0.307347
H	-0.0598709752	 2.0887919413	 0.9363961177	 0.118041
H	-0.1164553263	 2.0961204496	-0.9082333054	 0.116373
H	-0.40562441	-0.4009622134	-0.9100055303	 0.099433
H	 1.3344807991	-0.4066309654	 2.6142320594	 0.150912
H	-2.0686779784	-2.5379909388	 3.4297283134	 0.138584
H	-2.4614441546	-1.5759185484	 0.8886040359	 0.111884
73.3715	163.9852	180.9339	396.7496	450.8615	622.8838	646.1046	677.5763	740.2718	798.8635	829.5264	861.1556	889.3684	895.5246	976.0998	1026.1624	1062.6951	1095.1837	1103.1322	1151.2846	1169.9319	1203.4643	1245.8902	1259.0613	1287.1594	1384.2125	1447.3722	1517.8701	1538.9188	1635.0514	3082.4009	3099.0115	3176.7153	3252.0827	3284.6729	3294.8681
C1OC1C1=COC=C1	C1O[C@H]1c1cocc1	
InChI=1S/C6H6O2/c1-2-7-3-5(1)6-4-8-6/h1-3,6H,4H2	InChI=1S/C6H6O2/c1-2-7-3-5(1)6-4-8-6/h1-3,6H,4H2/t6-/m1/s1
