17
gdb 40506	4.43739	1.19326	1.14927	0.618	71.6	-0.2347	0.0707	0.3054	1088.022	0.136018	-421.725222	-421.718131	-421.717187	-421.757186	27.758	
C	 0.083027357	 1.4660990887	-0.0407653046	-0.181818
O	 1.1874754569	 0.5642542421	-0.1202193474	-0.237387
C	-0.1282475846	 0.014689431	 0.0545365191	-0.068175
C	-0.4097176189	-0.6602118556	 1.3370740663	 0.322165
C	 0.0033343485	-0.2457536683	 2.7506933602	-0.29977
C	-0.4842148604	-1.6561514116	 3.1648257851	 0.06203
O	-1.9270303131	-1.593363359	 2.9534870293	-0.297638
C	-1.6332022786	-1.5842270113	 1.5608989561	 0.046913
C	-0.2640332472	-2.1492124937	 1.6856147418	-0.197783
H	 0.0393772495	 2.0730458978	 0.8622577763	 0.116408
H	-0.1660667537	 1.9890483192	-0.963356314	 0.115402
H	-0.506905864	-0.4975663627	-0.8322152759	 0.088247
H	 1.0886153183	-0.1470284014	 2.8235504623	 0.120239
H	-0.5013882249	 0.5984863683	 3.2314488595	 0.100686
H	-0.1999196342	-2.1433877825	 4.0943047784	 0.092676
H	-2.4327325026	-1.7348609989	 0.8470917883	 0.111395
H	 0.2682139721	-2.9652079923	 1.2173966091	 0.10641
71.3917	154.2536	170.151	355.7154	394.9211	475.9406	568.3988	628.0562	754.7733	773.1867	798.9502	821.0867	837.5025	886.1732	917.3082	926.9053	941.0296	974.6844	992.8643	1041.0526	1043.7536	1048.4077	1098.049	1126.4935	1151.3321	1155.814	1162.6581	1169.4737	1195.7519	1245.1229	1271.6011	1282.6396	1331.8413	1373.5225	1458.9623	1491.4847	1528.9589	3048.4587	3082.1026	3089.3878	3121.9147	3153.6975	3169.5075	3201.8762	3218.0439
C1OC1C12CC3OC1C23	C1O[C@H]1[C@@]12C[C@H]3O[C@@H]1[C@@H]23	
InChI=1S/C7H8O2/c1-3-5-6(9-3)7(1,5)4-2-8-4/h3-6H,1-2H2	InChI=1S/C7H8O2/c1-3-5-6(9-3)7(1,5)4-2-8-4/h3-6H,1-2H2/t3-,4-,5+,6-,7-/m1/s1
