16
gdb 16557	3.16499	2.71112	2.26176	0.8092	63.7	-0.2302	0.008	0.2381	696.0533	0.133404	-383.731289	-383.725491	-383.724547	-383.760805	23.933	
C	-0.0116642282	 1.5407000309	 0.011764469	-0.072835
O	 1.3111552745	 2.0629069243	-0.0480103896	-0.257572
C	 2.1419931238	 1.442108344	-1.0229164818	-0.072835
C	 2.0153988886	-0.0916101772	-0.9499397358	 0.008449
O	 0.6364136195	-0.3805114948	-1.2196224398	-0.263216
C	 0.0100831092	 0.0001920815	 0.013487144	 0.008452
C	 0.9873427189	-0.5203674061	 1.0595587217	-0.068396
C	 2.183972553	-0.5751656794	 0.4846456826	-0.068393
H	-0.4579387213	 1.9501155183	 0.9238711067	 0.10614
H	-0.6037670369	 1.8731377215	-0.8551651976	 0.096939
H	 1.8594450654	 1.7603856745	-2.0385609644	 0.09694
H	 3.160907086	 1.7844416497	-0.8147245124	 0.106141
H	 2.6384742015	-0.5864486565	-1.7002041214	 0.082851
H	-0.9990421163	-0.4199290249	 0.0474029681	 0.08285
H	 0.733367786	-0.7118741347	 2.0934451999	 0.107244
H	 3.1335275063	-0.8217825211	 0.9403043209	 0.107243
261.7469	263.518	367.5467	408.6435	442.6247	634.8094	651.7231	722.1607	835.9508	837.0522	847.61	848.6148	893.3495	908.6535	941.7593	996.2908	1014.9172	1023.1194	1071.0481	1081.797	1128.685	1138.5728	1228.1613	1265.72	1284.704	1297.0578	1316.9458	1330.6884	1361.2761	1373.717	1409.7207	1478.8654	1490.1144	1666.938	2983.1976	2988.3599	3073.7439	3076.1133	3078.237	3081.0073	3213.7836	3239.0738
C1OCC2OC1C=C2	C1OC[C@@H]2O[C@H]1C=C2	
InChI=1S/C6H8O2/c1-2-6-4-7-3-5(1)8-6/h1-2,5-6H,3-4H2	InChI=1S/C6H8O2/c1-2-6-4-7-3-5(1)8-6/h1-2,5-6H,3-4H2/t5-,6+
