17
gdb 66077	2.57816	1.20757	1.1112	2.9223	73.78	-0.2637	-0.0475	0.2162	1164.7541	0.134782	-418.00368	-417.994611	-417.993667	-418.037972	32.476	
C	-0.4539058786	 1.5256652867	 0.2463897838	-0.444149
C	 0.0318242944	 0.082623607	 0.1233937142	 0.136231
N	 1.3343151006	-0.0982175817	-0.5637795229	-0.324488
C	 1.7348822407	-1.1648747517	 0.3802025819	-0.194817
C	 0.6626755363	-0.6496331995	 1.3789343503	-0.132296
C	 1.2263782796	 0.3003816434	 2.4092441041	 0.156304
O	 0.8594155697	 0.3441685082	 3.5543490987	-0.247147
C	-1.0319305686	-0.7596834271	-0.4545507548	 0.258782
N	-1.8426588663	-1.4246985508	-0.942771516	-0.334297
H	 0.3483851099	 2.1591681244	 0.6288946404	 0.136868
H	-0.7542012782	 1.9063241981	-0.7340710426	 0.140725
H	-1.3159913338	 1.5888795238	 0.9166115943	 0.147283
H	 1.2866863791	-0.3517395962	-1.5452975161	 0.237406
H	 1.5168114145	-2.1862763819	 0.0467650137	 0.126722
H	 2.7803171656	-1.1058036956	 0.699870166	 0.119464
H	 0.0238263246	-1.3821686475	 1.8689795801	 0.120173
H	 2.0372892504	 0.9634406704	 2.033916315	 0.097236
60.5092	85.0814	144.9046	194.2202	220.4192	257.7927	316.37	347.6311	404.7893	456.8377	525.5423	590.068	639.3632	722.7889	849.2054	889.6337	901.6434	968.7678	988.3567	1037.1842	1042.1059	1115.4396	1144.215	1164.1247	1180.2498	1209.7083	1226.8577	1301.5997	1321.519	1384.3984	1410.4536	1423.302	1480.1863	1492.2593	1518.0338	1830.1126	2340.3704	2887.5791	3028.5596	3049.7761	3077.9401	3122.431	3138.9919	3141.6784	3529.3958
CC1(NCC1C=O)C#N	C[C@]1(NC[C@H]1C=O)C#N	
InChI=1S/C6H8N2O/c1-6(4-7)5(3-9)2-8-6/h3,5,8H,2H2,1H3	InChI=1S/C6H8N2O/c1-6(4-7)5(3-9)2-8-6/h3,5,8H,2H2,1H3/t5-,6-/m0/s1
