18
gdb 17433	2.68861	2.53507	1.86037	1.0865	70.48	-0.2356	0.0718	0.3073	808.9762	0.153525	-347.754157	-347.746769	-347.745825	-347.7853	29.218	
C	-0.0079553942	 1.6126557013	 0.0034984934	-0.431051
C	 0.0944868924	 0.0923912542	-0.0068311616	-0.02277
C	 0.8071575347	-0.654770305	-1.1362933483	-0.075872
C	 2.2954675425	-0.7792766042	-0.7608216737	-0.062351
C	 2.4959045152	-0.1163059339	 0.6013380882	-0.30415
C	 1.0822380655	-0.6740593155	 0.9376031496	 0.366937
O	 0.722713495	-1.024461765	 2.2308739231	-0.481505
C	 1.2762379357	-1.7451143707	-0.2067157297	-0.128968
H	 0.9516540727	 2.0924846315	-0.2083923833	 0.119216
H	-0.7197929613	 1.9575301673	-0.7546040069	 0.116844
H	-0.3657582899	 1.9803921055	 0.9731265935	 0.104741
H	-0.8953720838	-0.3553386462	 0.1400342971	 0.074706
H	 0.4852334647	-0.7645981052	-2.1642936575	 0.081276
H	 3.0442568634	-0.9769744849	-1.516642221	 0.085058
H	 3.2532700168	-0.646592251	 1.1854028588	 0.102244
H	 2.6672094874	 0.96450201	 0.6630037051	 0.082204
H	 0.7188664555	-0.2272214385	 2.7724957079	 0.280246
H	 1.1894970375	-2.8207159697	-0.2338783248	 0.093192
146.6815	170.4514	192.4452	265.2235	334.1732	369.4691	493.2108	563.7452	621.0341	673.899	749.8488	786.2031	792.4139	845.8712	896.9884	923.7114	934.3716	978.7193	989.6215	1017.2565	1030.7538	1069.7104	1103.6223	1120.1303	1132.1221	1157.5573	1172.265	1209.5868	1233.8436	1268.2003	1300.4915	1359.1695	1376.0114	1397.6656	1407.2829	1491.2	1492.4327	1511.3046	3023.8341	3032.4464	3042.5127	3083.4414	3096.8194	3109.9979	3188.8431	3199.6028	3234.5192	3798.8472
CC1C2C3CC1(O)C23	C[C@H]1[C@H]2[C@H]3C[C@]1(O)[C@@H]23	
InChI=1S/C7H10O/c1-3-5-4-2-7(3,8)6(4)5/h3-6,8H,2H2,1H3	InChI=1S/C7H10O/c1-3-5-4-2-7(3,8)6(4)5/h3-6,8H,2H2,1H3/t3-,4+,5-,6+,7+/m0/s1
