19
gdb 102404	2.09141	1.32203	1.04622	1.7164	67.54	-0.2591	-0.0417	0.2175	1210.3234	0.157038	-497.288704	-497.278525	-497.277581	-497.32386	36.656	
O	 0.1894887718	 1.1930271264	-0.5695093986	-0.428716
C	 0.0042197251	-0.1042654867	-0.0112403776	-0.123621
C	-1.4906464156	-0.5172303578	 0.0661147006	 0.082552
C	-2.1617119823	 0.0594515493	 1.3290307804	-0.109058
O	-1.5311027184	-0.3438973985	 2.5252428036	-0.426342
C	-2.2399531331	-0.0280631851	-1.2065630135	-0.106547
O	-1.5103570074	-0.2352341934	-2.3961853914	-0.426187
C	-1.5390276029	-2.0324579145	 0.0809869759	 0.135787
O	-1.8055509842	-2.7107149911	 1.048145015	-0.276735
H	-0.0843638298	 1.8488478069	 0.0793047572	 0.297415
H	 0.5486894981	-0.7820368845	-0.6745448248	 0.121798
H	 0.4373595182	-0.1797560325	 0.9918155464	 0.13507
H	-2.1108965516	 1.1557299254	 1.3011469184	 0.093745
H	-3.230592147	-0.2063658442	 1.324582901	 0.100892
H	-1.6281498881	-1.3061579314	 2.5540623829	 0.297667
H	-3.1843710699	-0.5725691061	-1.3172731061	 0.118788
H	-2.4944135469	 1.0323179054	-1.0687892962	 0.096972
H	-0.7865043377	 0.40385649	-2.3752686949	 0.300532
H	-1.3054414282	-2.5065753876	-0.8957136283	 0.115989
84.3742	91.1466	116.7327	156.4747	191.6407	245.8113	273.7714	288.8384	328.9299	343.4455	396.039	430.1887	499.3562	596.9075	599.451	699.3419	796.2382	866.3629	888.3493	950.6541	1011.1228	1047.7854	1060.9873	1089.5963	1108.3969	1140.6343	1183.593	1221.376	1249.5956	1295.7113	1376.6642	1384.9581	1406.2257	1412.8561	1425.3373	1432.9211	1448.0441	1493.885	1500.7854	1505.4767	1795.9848	2918.6914	2980.7037	3001.2052	3035.4643	3048.4555	3066.6949	3100.8825	3742.7266	3777.0764	3823.8857
OCC(CO)(CO)C=O	OCC(CO)(CO)C=O	
InChI=1S/C5H10O4/c6-1-5(2-7,3-8)4-9/h1,7-9H,2-4H2	InChI=1S/C5H10O4/c6-1-5(2-7,3-8)4-9/h1,7-9H,2-4H2
