14
gdb 11150	5.94726	1.28381	1.06975	2.2653	73.35	-0.2408	-0.0318	0.209	1033.2167	0.105875	-345.408733	-345.40143	-345.400486	-345.440552	27.247	
O	 0.0269471779	 0.0340054521	 0.0048661912	-0.29925
C	-0.0087628831	 1.2347926715	 0.010759956	 0.391935
C	-1.2806304922	 2.1002156566	 0.0322807371	-0.363256
C	-0.7505675641	 3.5028761505	 0.0310692332	-0.176819
C	 0.5935018342	 3.555212351	 0.0127676705	 0.180667
C	 1.2088300269	 2.1710140075	-0.0018507427	-0.430599
C	 1.3877704027	 4.726212563	 0.0068749444	 0.207112
C	 2.1052994749	 5.6942781445	 0.0012520014	-0.402213
H	-1.9098282109	 1.8654433478	-0.8365412365	 0.14452
H	-1.8853921898	 1.8577524148	 0.9162172549	 0.144526
H	-1.3885909699	 4.3778742782	 0.0436939914	 0.110458
H	 1.8494234389	 1.9755921927	 0.8663531505	 0.148005
H	 1.8253168342	 1.9833424966	-0.8890066157	 0.148005
H	 2.7260293803	 6.5558152131	-0.0034373057	 0.196908
67.1811	147.4406	165.5398	353.9912	431.9672	461.8728	498.6922	540.6865	558.2945	607.7671	642.0684	658.2826	787.5666	801.1829	872.9073	878.7909	998.7988	999.9814	1117.8617	1123.0033	1173.5106	1179.2116	1271.0668	1286.8545	1324.8496	1436.6456	1442.2319	1663.2313	1857.3974	2223.9012	3023.5857	3040.5862	3049.4786	3072.6968	3211.9824	3502.7452
O=C1CC=C(C1)C#C	O=C1CC=C(C1)C#C	
InChI=1S/C7H6O/c1-2-6-3-4-7(8)5-6/h1,3H,4-5H2	InChI=1S/C7H6O/c1-2-6-3-4-7(8)5-6/h1,3H,4-5H2
