17
gdb 90219	3.1182	1.8136	1.61943	2.3054	71.99	-0.2206	0.0539	0.2745	882.7213	0.135836	-421.662507	-421.655785	-421.65484	-421.693186	28.2	
O	 0.1390478028	 1.2919039899	-0.3331186664	-0.423951
C	 0.0703952352	-0.0697429201	-0.0242480705	 0.050131
C	 0.1753167216	-0.4135724677	 1.5242902144	-0.357262
C	-1.3603400071	-0.4998600502	 1.5473467306	 0.33705
O	-2.0789320581	 0.7904640733	 1.5091268574	-0.360963
C	-2.7088156413	-0.0363904664	 0.4832886345	 0.037059
C	-2.6150626155	-1.3920209298	 1.3047381739	-0.147093
C	-1.9113267135	-2.1225420902	 0.1333646348	-0.318881
C	-1.3846828543	-0.6746417425	 0.002729471	 0.157598
H	-0.5305432803	 1.7251615326	 0.2151230397	 0.289773
H	 0.7839400194	-0.5878301284	-0.6694859405	 0.098366
H	 0.6488829938	-1.3820970078	 1.7036212613	 0.123096
H	 0.6295725472	 0.3430365297	 2.1684504124	 0.125305
H	-3.5630290607	 0.38379891	-0.0555150889	 0.095026
H	-3.3424517263	-1.7753406303	 2.025747639	 0.084428
H	-1.1822340847	-2.8835833519	 0.4269683836	 0.104943
H	-2.5437247083	-2.5006456902	-0.6742432962	 0.105376
149.8227	234.917	334.7484	407.2131	413.5734	465.363	538.0929	563.9315	633.1765	726.4363	753.1098	772.0811	811.2087	828.3566	875.2186	903.8048	918.1915	920.5114	991.2625	1020.1968	1055.8165	1084.6592	1091.8156	1119.4101	1145.4023	1164.6227	1168.5736	1199.897	1220.7178	1240.4527	1254.9935	1261.6087	1295.6937	1326.5529	1441.8931	1456.486	1514.5167	3049.5858	3065.2839	3066.6715	3080.4905	3085.2909	3104.4285	3130.2416	3738.5818
OC1CC23OC4C2CC134	O[C@H]1C[C@]23O[C@@H]4[C@H]2C[C@]134	
InChI=1S/C7H8O2/c8-4-2-7-3-1-6(4,7)5(3)9-7/h3-5,8H,1-2H2	InChI=1S/C7H8O2/c8-4-2-7-3-1-6(4,7)5(3)9-7/h3-5,8H,1-2H2/t3-,4+,5-,6-,7+/m1/s1
