17
gdb 22681	3.43437	0.96263	0.79233	6.9167	76.34	-0.2313	-0.0757	0.1555	1401.4821	0.135305	-455.062817	-455.053993	-455.053049	-455.097108	31.413	
O	-0.0785072932	 0.0799023645	-0.6212393923	-0.387029
N	 0.137863708	 1.3029601802	-0.6957551628	 0.059786
C	 1.1405852468	 2.0196156212	-0.1958855586	 0.176048
C	 1.1233695412	 3.5034625574	-0.4844569327	-0.319853
C	-0.1373683095	 4.200176377	 0.0019335998	 0.012246
C	-0.8353677562	 5.2105762088	-0.8279346729	-0.243387
N	-1.3640192819	 3.8360442239	-0.7361951615	-0.323545
H	-0.5746288365	 1.8778018724	-1.1853159535	 0.280553
H	-2.1651347208	 3.8054076228	-0.1123826	 0.246686
C	 2.2194560722	 1.407685025	 0.5780899469	 0.087709
O	 2.347676902	 0.2360362719	 0.854208822	-0.264503
H	 1.9983482682	 3.9569221204	-0.0067372039	 0.126664
H	 1.2313374411	 3.6901487132	-1.5605784308	 0.125007
H	-0.2246715746	 4.2960506182	 1.0819042129	 0.104958
H	-1.3830623656	 6.0041823074	-0.3286932683	 0.126903
H	-0.4314800766	 5.4803639975	-1.7996049442	 0.13038
H	 2.9651262656	 2.1638231882	 0.9206294098	 0.061378
57.6076	100.7083	140.237	187.3482	219.1423	293.7708	319.3972	359.5167	389.3804	472.1478	503.5796	719.3062	798.6301	867.244	900.6319	925.4535	942.1977	975.1748	990.684	1014.7139	1047.2784	1113.7764	1127.242	1175.1834	1213.2247	1256.6599	1281.306	1285.9497	1334.088	1432.154	1437.542	1446.4922	1473.193	1503.0964	1512.1298	1652.3649	1784.1331	2844.3703	3023.3895	3078.2567	3117.8028	3137.6616	3204.9682	3215.0004	3518.1004
[O-]N=C(CC1C[NH2+]1)C=O	[O]N[C](C[C@H]1CN1)C=O	
InChI=1S/C5H8N2O2/c8-3-5(7-9)1-4-2-6-4/h3-4,6,9H,1-2H2	InChI=1S/C5H8N2O2/c8-3-5(7-9)1-4-2-6-4/h3-4,6-7H,1-2H2/t4-/m0/s1
