14
gdb 57833	3.18726	1.07373	0.87451	2.2697	64.97	-0.2931	-0.1451	0.148	1266.7316	0.097175	-473.841701	-473.832112	-473.831168	-473.87714	32.548	
C	-0.2596810692	 1.6972339539	 0.0310920941	-0.417309
C	-0.0292686764	 0.172125197	 0.036802909	 0.062525
O	 0.723105299	-0.2212695878	 1.1527541002	-0.432946
C	-1.3528507625	-0.5675691549	 0.0242742829	 0.268087
O	-1.7374718131	-1.2288132921	 0.9599450493	-0.286135
C	-2.2264692234	-0.4828689834	-1.2382522812	 0.211418
O	-1.8764736504	 0.0634942727	-2.2516531916	-0.241257
C	-3.5316558569	-1.1538997772	-1.124400795	 0.276999
N	-4.5706973883	-1.6581736539	-1.0751624486	-0.28549
H	 0.7142439843	 2.1853166927	 0.1070616173	 0.149278
H	-0.7491774395	 2.0252557813	-0.8885828184	 0.142949
H	-0.86110279	 1.9967242721	 0.8944916363	 0.132305
H	 0.508992841	-0.0987972255	-0.8837148835	 0.120686
H	 0.1355135154	-0.7326902348	 1.7274791693	 0.298889
39.6966	64.2718	126.2787	185.6024	219.1216	242.8264	276.5216	321.0354	338.4897	371.0096	438.4073	493.6004	532.512	665.0661	759.5842	811.2557	898.5885	938.188	1041.4787	1082.8752	1165.0384	1215.6707	1291.9497	1332.9467	1393.8203	1425.6307	1494.2376	1495.0728	1788.3585	1798.3431	2342.952	3005.1469	3050.9004	3130.9453	3144.1366	3733.442
CC(O)C(=O)C(=O)C#N	C[C@@H](O)C(=O)C(=O)C#N	
InChI=1S/C5H5NO3/c1-3(7)5(9)4(8)2-6/h3,7H,1H3	InChI=1S/C5H5NO3/c1-3(7)5(9)4(8)2-6/h3,7H,1H3/t3-/m1/s1
