12
gdb 21825	6.11848	1.49006	1.19824	0.7562	58.3	-0.2358	-0.0095	0.2264	902.5544	0.086425	-410.864265	-410.857834	-410.85689	-410.895268	23.147	
O	-0.2891643089	 0.0506052126	 0.0012640417	-0.312242
C	-0.0792627094	 1.2446583024	 0.0082470389	 0.143815
N	 1.1607849078	 1.8145127266	 0.0005201186	-0.387661
C	 2.3565668335	 1.1060955161	-0.0156130569	 0.411961
C	 2.598851673	-0.2489173816	-0.0282030312	-0.156789
N	 3.9553687863	-0.3038487737	-0.0411432436	-0.147788
N	 4.5143341094	 0.9126907218	-0.0365077837	-0.109697
N	 3.5380897499	 1.7790351864	-0.0209499028	-0.273566
H	-0.8800797027	 2.0063073117	 0.0213461385	 0.093121
H	 1.2490467901	 2.8199224927	 0.0073980112	 0.270809
H	 1.9495801766	-1.1034226008	-0.0288502509	 0.180218
H	 4.5497073045	-1.1174094942	-0.0529437898	 0.287818
86.87	178.4687	222.4624	362.6628	408.2707	577.5735	585.1646	634.765	691.0639	733.7689	790.6764	875.9174	987.5579	1018.252	1035.2884	1059.9159	1130.2998	1166.7346	1271.222	1305.1105	1352.1842	1428.0666	1465.2286	1563.263	1623.688	1796.6094	2971.1855	3330.4367	3624.4738	3659.0385
O=CNC1=CNN=N1	O=CNc1c[nH]nn1	
InChI=1S/C3H4N4O/c8-2-4-3-1-5-7-6-3/h1-2H,(H2,4,5,6,7,8)	InChI=1S/C3H4N4O/c8-2-4-3-1-5-7-6-3/h1-2H,(H2,4,5,6,7,8)
