25
gdb 102529	2.06041	1.1305	0.81676	2.6999	89.36	-0.2439	-0.0175	0.2264	1524.2394	0.226005	-389.512412	-389.5008	-389.499856	-389.549871	41.51	
C	-0.0798774604	 1.4354134684	 0.459452063	-0.394132
C	-0.1233175984	-0.0925434278	 0.3392388301	-0.18075
C	-1.5230289229	-0.6767846584	 0.054896405	 0.022563
C	-2.1608554368	-0.1132876325	-1.2385143175	-0.202412
C	-1.4496029105	-0.4754789211	-2.5487427081	-0.385985
C	-1.4940172625	-2.2329407816	 0.0554764379	-0.058989
C	-1.1046665648	-2.8394584693	 1.4180956429	-0.423295
C	-2.8612950032	-2.7764578413	-0.3089040958	 0.159292
O	-3.1143973223	-3.4433401377	-1.2797784983	-0.260618
H	 0.9159352366	 1.7678668976	 0.7688544274	 0.113749
H	-0.3100355703	 1.9334257675	-0.4867935193	 0.123018
H	-0.7959510641	 1.7950439255	 1.2071950879	 0.11423
H	 0.5749172242	-0.4186087481	-0.4420708874	 0.100333
H	 0.2552863604	-0.5177195494	 1.2742549625	 0.097675
H	-2.1770445884	-0.3687427163	 0.8858173378	 0.067603
H	-3.200310982	-0.4584806488	-1.298755779	 0.104049
H	-2.223940568	 0.9763020273	-1.1474482537	 0.095648
H	-1.9409413518	 0.0156996837	-3.3942255938	 0.114426
H	-0.4023291734	-0.15652513	-2.5496499916	 0.114219
H	-1.4770215877	-1.5526428214	-2.7365271906	 0.138093
H	-0.7979647132	-2.588687196	-0.7114934823	 0.093905
H	-0.0862908493	-2.5667675062	 1.7023160253	 0.131309
H	-1.7790751686	-2.4958913726	 2.2108783696	 0.120133
H	-1.1541562978	-3.9324633727	 1.3850542838	 0.128023
H	-3.6603960448	-2.5188192289	 0.4292133641	 0.067912
45.9976	66.5897	73.4918	120.1177	169.4926	202.1949	218.994	238.1098	275.0069	308.4007	314.5002	336.5499	389.6737	425.4244	551.142	561.2734	748.5825	780.7963	831.0138	883.8154	911.9996	923.7964	967.1991	1017.7207	1025.7345	1031.2369	1054.1809	1078.395	1147.2329	1156.0996	1172.8908	1180.0145	1256.7035	1288.3267	1300.9303	1319.8698	1349.4593	1361.2124	1385.3451	1393.2329	1404.3157	1411.4118	1421.4072	1427.1924	1485.2219	1490.4786	1494.9889	1500.3187	1504.1617	1506.2768	1512.657	1517.0167	1828.8711	2829.174	2979.2872	3030.4559	3032.5217	3034.6763	3034.9727	3041.5722	3060.2822	3065.3391	3071.8502	3098.218	3100.6067	3104.2021	3110.6856	3117.439	3126.2556
CCC(CC)C(C)C=O	CCC(CC)[C@@H](C)C=O	
InChI=1S/C8H16O/c1-4-8(5-2)7(3)6-9/h6-8H,4-5H2,1-3H3	InChI=1S/C8H16O/c1-4-8(5-2)7(3)6-9/h6-8H,4-5H2,1-3H3/t7-/m0/s1
