20
gdb 54185	2.41511	1.51279	1.39357	1.3377	78.42	-0.2377	-0.0182	0.2195	1071.3037	0.169071	-403.126408	-403.117245	-403.116301	-403.160348	34.524	
C	 1.3891485608	 0.2136601406	 0.6780213932	-0.486798
C	 0.0107798986	 0.0949318537	 0.051945895	 0.352253
O	-0.9814292212	 0.525356146	 0.5965931254	-0.316008
C	-0.057047707	-0.5774476761	-1.3191579699	 0.250842
C	 0.3948650489	-2.0320303258	-1.2527722561	-0.456854
C	-1.3580271632	-0.3534039414	-2.1346592276	-0.314905
C	-0.4914171541	 0.401860786	-3.1379547729	-0.009456
C	 0.2223469883	 1.516815546	-2.4951612154	-0.254169
N	 0.7931355116	 0.1541902711	-2.3591842734	-0.175516
H	 1.6519547053	-0.734408285	 1.1616046676	 0.147281
H	 2.1516196366	 0.4174063671	-0.0784836042	 0.155059
H	 1.3768313925	 0.9951249083	 1.4390292906	 0.140161
H	-0.2726996967	-2.6164432477	-0.6107678077	 0.125634
H	 0.3814409906	-2.4664689422	-2.2564889982	 0.128991
H	 1.4158149688	-2.1133933761	-0.8698835506	 0.127172
H	-1.7738132601	-1.2854388613	-2.5212470421	 0.106948
H	-2.1454474247	 0.2187675377	-1.6411702586	 0.127483
H	-0.5195571195	 0.2755612627	-4.2151394315	 0.097803
H	 0.8377975582	 2.1542754178	-3.1220241359	 0.12287
H	-0.2124910337	 2.0126249086	-1.6303555876	 0.13121
47.9968	139.1273	149.0404	199.8173	227.9052	259.9278	300.2218	365.9761	424.0249	474.1815	522.2228	593.8024	629.6813	755.8415	763.1143	803.5823	875.8601	905.3521	919.3038	971.1919	981.1287	996.6945	1031.7539	1060.9511	1106.1489	1113.6648	1130.5288	1152.9974	1160.7543	1208.8217	1240.5549	1269.5719	1307.0182	1365.3961	1378.9615	1402.7536	1466.4282	1473.0175	1485.1135	1487.4747	1498.2635	1504.002	1799.3679	3036.9556	3042.8092	3078.6375	3109.8903	3110.5308	3112.0182	3118.0809	3132.3663	3153.6488	3166.1242	3202.8659
CC(=O)C1(C)CC2CN12	CC(=O)[C@@]1(C)C[C@H]2CN12	
InChI=1S/C7H11NO/c1-5(9)7(2)3-6-4-8(6)7/h6H,3-4H2,1-2H3	InChI=1S/C7H11NO/c1-5(9)7(2)3-6-4-8(6)7/h6H,3-4H2,1-2H3/t6-,7+,8?/m0/s1
