20
gdb 110770	2.6154	1.33736	1.14924	2.9157	79.58	-0.2455	0.0271	0.2726	1178.3074	0.172001	-403.159837	-403.151353	-403.150409	-403.19364	32.263	
C	 0.3692491344	 1.2631079377	-0.3819867447	-0.373879
C	-0.1131303578	-0.1405262389	 0.0027713574	-0.215366
C	 0.5426494456	-0.6435564174	 1.2733895464	-0.038807
C	 0.6999113317	-2.1134794452	 1.6442985711	-0.122633
C	 0.6151877747	-3.1572813209	 0.5463264702	-0.318307
C	 1.7211533865	-2.7773336135	-0.4274833252	 0.400258
N	 1.9449089089	-3.3310187102	-1.5384290022	-0.53744
O	 2.4450030233	-1.721933789	 0.0721995494	-0.231585
C	 1.9068411917	-1.279569416	 1.3048349013	 0.06859
H	 1.4463602487	 1.2631728694	-0.5758446226	 0.128222
H	-0.1372587892	 1.6198073348	-1.2838705147	 0.114419
H	 0.1730092692	 1.9844205402	 0.418979591	 0.112178
H	-1.2008099071	-0.133504724	 0.1480195658	 0.101597
H	 0.075670549	-0.825985651	-0.8288814357	 0.120335
H	 0.3542896539	-0.00903299	 2.1380430965	 0.090289
H	 0.4937378505	-2.4155803006	 2.6637161273	 0.097122
H	 0.8073620951	-4.1597186593	 0.9409217787	 0.136982
H	-0.3435363035	-3.1962047862	 0.0226597951	 0.139309
H	 2.737075331	-2.8884613351	-2.0072419915	 0.222869
H	 2.6787632535	-0.9828494847	 2.0041094666	 0.105846
45.7492	95.9715	145.8241	203.8903	267.1089	299.2823	441.8162	477.7554	540.2932	555.105	675.3104	731.4557	756.3496	788.6813	806.2764	838.9015	892.3469	905.0294	949.4239	988.5307	1007.7974	1019.4447	1059.209	1063.8971	1097.3888	1112.7172	1128.8489	1163.6161	1192.4513	1224.4871	1265.1413	1289.0157	1304.9444	1335.7967	1362.518	1385.5122	1409.4764	1442.8484	1472.2317	1488.0085	1498.1321	1506.7252	1774.9663	3029.7916	3033.8362	3063.3852	3077.4327	3101.3643	3103.7632	3111.5863	3122.7819	3180.1954	3190.7656	3474.7446
CCC1C2CC(=N)OC12	CC[C@H]1[C@H]2C[C]([NH])O[C@@H]12	
InChI=1S/C7H11NO/c1-2-4-5-3-6(8)9-7(4)5/h4-5,7-8H,2-3H2,1H3	InChI=1S/C7H11NO/c1-2-4-5-3-6(8)9-7(4)5/h4-5,7-8H,2-3H2,1H3/t4-,5+,7-/m0/s1
