18
gdb 83408	2.70363	1.3347	1.14931	2.5935	72.9	-0.2414	0.0229	0.2643	1127.8633	0.14769	-439.088572	-439.079747	-439.078802	-439.121996	33.422	
N	 0.1423427716	 1.152584907	 0.614806328	-0.541056
C	 0.0096797856	 0.0128619597	-0.1334547883	 0.296775
O	 0.9112647073	-0.4184262716	-0.8319385574	-0.375023
C	-1.3004022683	-0.6825718772	-0.0058315164	 0.217086
C	-2.4142789179	-0.4692874699	 1.0316710565	-0.318841
C	-2.6184430556	-2.0143910615	 1.1217413044	-0.224104
C	-1.5145817093	-2.2272128538	 0.0792609919	-0.151791
C	-1.8140167841	-1.4757751317	-1.172556493	 0.066618
O	-3.1173557199	-1.2288548742	-1.6160444103	-0.425915
H	 0.9640205703	 1.7114407706	 0.4479282353	 0.258959
H	-0.6622586838	 1.608719506	 1.0094669464	 0.259329
H	-2.0414823522	-0.0544847961	 1.9711234068	 0.102502
H	-3.27168333	 0.1147955283	 0.6894053767	 0.114312
H	-2.3549498836	-2.4129322025	 2.1026112983	 0.10787
H	-3.6079322581	-2.3843714755	 0.8409550693	 0.100677
H	-0.7396479671	-2.9837835059	 0.1132688357	 0.1046
H	-1.0639606443	-1.5881209864	-1.95355451	 0.118089
H	-3.4620227306	-2.0471065854	-1.989077844	 0.289913
65.6634	149.4724	192.1552	221.7448	243.6815	268.4984	312.7219	367.9898	451.5723	484.6595	560.092	603.5871	640.7198	744.0604	762.4337	799.4511	838.4954	885.6448	949.4934	959.9363	1004.3245	1042.5586	1068.0454	1087.9203	1126.2069	1142.1852	1202.5887	1226.7963	1238.9432	1249.7298	1288.8528	1298.1975	1333.4995	1380.8738	1460.5129	1472.3498	1501.5912	1615.2094	1775.5674	3060.0983	3066.4811	3108.4751	3126.7248	3133.5936	3187.0792	3594.399	3726.6026	3807.1037
NC(=O)C12CCC1C2O	NC(=O)[C@]12CC[C@H]1[C@H]2O	
InChI=1S/C6H9NO2/c7-5(9)6-2-1-3(6)4(6)8/h3-4,8H,1-2H2,(H2,7,9)	InChI=1S/C6H9NO2/c7-5(9)6-2-1-3(6)4(6)8/h3-4,8H,1-2H2,(H2,7,9)/t3-,4+,6+/m0/s1
