14
gdb 25236	3.40159	1.62625	1.10812	3.5424	68.57	-0.2369	-0.0109	0.226	1001.1162	0.103782	-436.744981	-436.738133	-436.737189	-436.776647	25.807	
O	-0.0865968824	-0.0733502049	 0.0303450589	-0.374322
C	 0.0157153774	 1.1321841202	 0.0019647571	 0.332699
N	-1.0532564719	 2.030791327	-0.0303303296	-0.353197
C	-0.6930458233	 3.445526087	 0.0193142244	-0.289876
C	 0.7905379116	 3.2951562373	 0.0088761609	 0.323736
C	 1.21181994	 2.0097763462	-0.0068463653	 0.127563
C	 2.6433839456	 2.0631376074	-0.0232806325	-0.371658
C	 2.9459792785	 3.3899669802	-0.0179803938	-0.009157
O	 1.8051774789	 4.1707210219	 0.0005582854	-0.197487
H	-1.9961782103	 1.7005517639	 0.0875531063	 0.255354
H	-1.0757499889	 4.0015476463	-0.8472687735	 0.138293
H	-1.0672107475	 3.9397409616	 0.926719594	 0.136989
H	 3.3479539831	 1.2472586628	-0.0374511955	 0.136214
H	 3.8715837592	 3.940687493	-0.0238617568	 0.144848
74.7973	182.4605	233.7326	306.3025	387.4809	529.746	608.8183	629.9971	638.3903	656.3215	743.1164	777.5575	781.5273	844.4996	922.0569	1015.9094	1024.1335	1049.9492	1072.4851	1137.9314	1156.2445	1169.0834	1271.9819	1302.4453	1367.6636	1438.763	1481.2164	1503.4885	1524.3069	1631.3316	1829.1216	3005.4362	3032.1343	3264.3698	3291.5968	3668.6087	74.7954	182.4606	233.7325	306.3025	387.4803	529.7462	608.8181	629.9972	638.3904	656.3215	743.1151	777.5576	781.5274	844.5005	922.0569	1015.9094	1024.1342	1049.949	1072.4856	1137.931	1156.2452	1169.0828	1271.9814	1302.4452	1367.6637	1438.7627	1481.2166	1503.4879	1524.3066	1631.3318	1829.1207	3005.4361	3032.1344	3264.3698	3291.5967	3668.6087
O=C1NCC2=C1C=CO2	O=C1NCc2c1cco2	
InChI=1S/C6H5NO2/c8-6-4-1-2-9-5(4)3-7-6/h1-2H,3H2,(H,7,8)	InChI=1S/C6H5NO2/c8-6-4-1-2-9-5(4)3-7-6/h1-2H,3H2,(H,7,8)
