14
gdb 123394	7.80657	0.79483	0.72463	1.2513	70.15	-0.2393	-0.0038	0.2355	1450.0799	0.101272	-432.817975	-432.809914	-432.80897	-432.85154	28.681	
C	-0.0046576244	-1.1507877192	-0.0048272818	-0.401047
C	 0.024188404	 0.0492498183	 0.0024191675	 0.297034
C	 0.0144813781	 1.5022146234	 0.0117063399	-0.248463
O	 1.3700398451	 1.976106233	-0.0009013466	-0.266938
C	 1.5054928896	 3.3091856018	 0.0058917585	 0.403739
N	 0.4912839497	 4.1698861465	 0.0229869039	-0.298674
N	 1.1183910105	 5.3512486439	 0.0231517096	-0.087529
N	 2.439379694	 5.3202358372	 0.0077186042	-0.184709
C	 2.7232503596	 4.0192989664	-0.0037105794	-0.143424
H	-0.0253262716	-2.2126662904	-0.0112964095	 0.204775
H	-0.519436989	 1.8974748291	-0.8616343164	 0.149301
H	-0.4991393579	 1.8863352287	 0.9020260153	 0.1493
H	 0.6063283277	 6.2170727466	 0.034497641	 0.29334
H	 3.7360119745	 3.6540260348	-0.0176894762	 0.133295
47.5761	102.139	114.2535	231.568	324.4817	356.0705	420.9347	423.9525	515.6878	613.3585	687.0649	704.0426	734.6125	787.2097	853.7805	977.4325	984.6014	1013.1142	1018.7038	1059.9282	1166.5174	1203.1693	1250.9551	1258.9746	1381.0933	1387.1792	1428.7446	1489.7476	1518.1787	1592.8381	2252.0582	3023.3541	3055.0849	3286.9612	3505.4492	3682.5816
C#CCOC1=NNN=C1	C#CCOc1n[nH]nc1	
InChI=1S/C5H5N3O/c1-2-3-9-5-4-6-8-7-5/h1,4H,3H2,(H,6,7,8)	InChI=1S/C5H5N3O/c1-2-3-9-5-4-6-8-7-5/h1,4H,3H2,(H,6,7,8)
