18
gdb 76979	2.25455	1.22187	0.92278	3.9105	74.68	-0.2392	-0.0223	0.2169	1289.7675	0.146593	-439.037729	-439.028701	-439.027757	-439.072403	32.785	
O	 0.0361756343	 1.4388958978	-0.049458386	-0.407904
C	 0.023842681	 0.0470000339	 0.0146651427	 0.062178
C	-0.5041438478	-0.6555589938	 1.2699421516	-0.183571
C	-0.9305417181	 0.1305515509	 2.4489175814	 0.160703
O	-0.7885562734	-0.2515883995	 3.5871034897	-0.275449
C	-1.3102212784	-0.6063010899	-0.0514367096	-0.087432
C	-2.5643561816	 0.1993366443	-0.1787545482	 0.015948
C	-3.5849659392	-0.1977513978	-1.1815413057	-0.251137
N	-3.8539673027	-0.3680009793	 0.2569317851	-0.320707
H	 0.7954093195	 1.7614815945	 0.4478332855	 0.300007
H	 0.8576503843	-0.4447094104	-0.4855772277	 0.106129
H	-0.0495684073	-1.6065174505	 1.5272590665	 0.107957
H	-1.3892506877	 1.1159575607	 2.2298334426	 0.088177
H	-1.3411412492	-1.5634755214	-0.5659021848	 0.102657
H	-2.458070012	 1.2552691802	 0.0444561171	 0.116091
H	-4.1862665735	 0.5601341479	-1.6753692453	 0.124323
H	-3.387352346	-1.0801882704	-1.7857539056	 0.11053
H	-3.7279092619	-1.3439318373	 0.5174134806	 0.2315
43.4969	94.6997	138.9	169.8041	207.7615	285.2407	330.5602	352.9273	434.732	477.8825	555.0581	621.7056	754.7879	812.1942	842.8748	867.8806	921.8542	960.0088	983.4843	992.1002	1012.2126	1049.7718	1087.9912	1130.3127	1139.7811	1164.5087	1180.2198	1223.4148	1237.4169	1250.4276	1289.7065	1298.5392	1323.8096	1336.2481	1431.0589	1444.4322	1475.4224	1513.0504	1804.1097	2924.9054	3104.01	3105.332	3138.3548	3171.2256	3173.6627	3192.3273	3489.3136	3807.3171
OC1C(C=O)C1C1CN1	O[C@H]1[C@@H](C=O)[C@H]1[C@H]1CN1	
InChI=1S/C6H9NO2/c8-2-3-5(6(3)9)4-1-7-4/h2-7,9H,1H2	InChI=1S/C6H9NO2/c8-2-3-5(6(3)9)4-1-7-4/h2-7,9H,1H2/t3-,4+,5-,6-/m0/s1
