20
gdb 58020	1.87841	1.44808	0.93701	3.4491	79.94	-0.2674	-0.0403	0.2271	1320.349	0.167469	-403.193547	-403.182807	-403.181862	-403.229918	37.753	
C	 0.0197107727	 1.5395386005	-0.0908400322	-0.414833
C	 0.0526573106	 0.0152930418	 0.0739756358	 0.037889
C	 0.8211507249	-0.3818435627	 1.3420459877	-0.409166
C	-1.3752702903	-0.5894466019	 0.1072542502	-0.237912
C	-2.2306738788	-0.0916133337	-0.9726770973	 0.27709
N	-2.9102391074	 0.271848589	-1.8350252706	-0.331071
C	-1.3847627385	-2.148383521	 0.0100763689	 0.383992
C	-2.6760189919	-2.8267011244	 0.4085364242	-0.484647
O	-0.4098494527	-2.7482865649	-0.3617665582	-0.277667
H	 1.039446767	 1.9348645142	-0.120467026	 0.120561
H	-0.4867463998	 1.8405083467	-1.0116031299	 0.142956
H	-0.496000241	 2.0186742872	 0.7500383639	 0.114709
H	 0.5580426126	-0.428701098	-0.7898484822	 0.112475
H	 0.8948913006	-1.4658306649	 1.4494710638	 0.136492
H	 1.8380032229	 0.0200407693	 1.3062409615	 0.122589
H	 0.3380227206	 0.0275175819	 2.2378872046	 0.110132
H	-1.8661562888	-0.3131091056	 1.0514558923	 0.129056
H	-3.5255302764	-2.3804614721	-0.117936352	 0.166789
H	-2.6160151914	-3.8933634042	 0.1916238976	 0.153061
H	-2.8501758449	-2.6821672075	 1.481575558	 0.147504
42.3625	70.5401	123.6337	142.1823	169.096	186.0756	223.6758	251.7312	318.3917	348.1205	402.7259	423.2283	440.6714	543.1726	569.7111	614.9398	796.3502	859.4255	930.9567	939.6648	955.9837	969.1073	989.6865	1061.8703	1138.8202	1143.4595	1179.1098	1192.7368	1265.4152	1280.6177	1341.6064	1369.2715	1385.2854	1403.7598	1425.5408	1461.7067	1474.1478	1486.9612	1494.3326	1504.4394	1515.4352	1830.9958	2346.8453	3014.6354	3029.2123	3032.922	3039.218	3063.2088	3095.7489	3104.2875	3104.6442	3120.4475	3132.9501	3159.316
CC(C)C(C#N)C(C)=O	CC(C)[C@@H](C#N)C(=O)C	
InChI=1S/C7H11NO/c1-5(2)7(4-8)6(3)9/h5,7H,1-3H3	InChI=1S/C7H11NO/c1-5(2)7(4-8)6(3)9/h5,7H,1-3H3/t7-/m1/s1
