16
gdb 18866	3.8111	2.30076	1.89576	1.0661	71.21	-0.2072	-0.0272	0.1801	745.8836	0.130938	-346.499267	-346.492786	-346.491841	-346.529581	25.942	
O	 0.1381307487	 1.3734411226	-0.5353877208	-0.418316
C	 0.1070624572	 0.0359992895	-0.1317728959	 0.105567
C	-1.2742838432	-0.6900704603	-0.0733927222	-0.099127
C	-1.8094660307	-1.4621014868	-1.3433828353	-0.037772
C	-1.3065111927	-1.2105537697	-2.7774663688	-0.26147
C	 0.1081574384	-0.7456852268	-2.4516555127	-0.083524
C	 0.4141280938	-1.0659445772	-1.178559612	-0.032887
C	-0.6588157459	-1.9771836516	-0.561256227	-0.109385
H	 0.9032718929	 1.7994306308	-0.1393333646	 0.288781
H	 0.5949873745	-0.0926349922	 0.8450615414	 0.075096
H	-1.9551802952	-0.5841834718	 0.7682282685	 0.086201
H	-2.8084114236	-1.8652326309	-1.1833346348	 0.077814
H	-1.4228509112	-2.1207409648	-3.3832307181	 0.105874
H	-1.8238074672	-0.4032899097	-3.3097701604	 0.112499
H	 0.4993865461	 0.1514472919	-2.9203039473	 0.102877
H	-0.5220332518	-2.9174237229	-0.04505369	 0.087771
140.432	179.2821	289.9758	338.7613	478.9672	567.4994	598.0313	678.8086	751.2723	762.7928	804.5372	824.7386	885.5206	896.9792	903.2181	944.9748	975.4612	986.8727	1009.6162	1053.0343	1064.7471	1089.792	1140.6387	1166.3619	1200.3152	1220.1113	1255.6814	1275.3209	1278.3747	1309.4285	1374.7607	1431.5405	1473.6043	1589.5957	2993.8825	2999.831	3054.6132	3124.7655	3136.9879	3180.0073	3205.2265	3838.8942
OC1C2C3CC=C1C23	O[C@H]1[C@H]2[C@H]3C[CH][C]1[C@@H]23	
InChI=1S/C7H8O/c8-7-4-2-1-3-5(4)6(3)7/h2-3,5-8H,1H2	InChI=1S/C7H8O/c8-7-4-2-1-3-5(4)6(3)7/h2-3,5-8H,1H2/t3-,5-,6-,7+/m0/s1
