14
gdb 17234	5.07681	1.78469	1.58244	2.5122	62.59	-0.2442	-0.0284	0.2158	793.3759	0.106748	-382.477115	-382.470769	-382.469825	-382.50773	24.024	
O	-0.3254614683	 0.5817884256	-0.8242965264	-0.278898
C	 0.1504514929	 1.0542847688	 0.1860487114	 0.022313
C	 1.3180797998	 1.9341954249	 0.1986540598	 0.203297
C	 1.9026718532	 2.8701281533	 1.2548657871	-0.311359
C	 2.8389504367	 3.3531999191	 0.1167869972	 0.063688
O	 3.689035172	 2.190899422	-0.1327401435	-0.283469
C	 2.5585241426	 1.5948514534	-0.730507944	 0.088751
C	 1.8044401846	 2.8351100112	-0.9514862968	-0.173418
H	-0.2773992506	 0.8222048787	 1.1873357303	 0.073255
H	 1.187228714	 3.644718132	 1.5426970303	 0.116079
H	 2.3962550132	 2.4504647644	 2.1360717686	 0.11398
H	 3.3792165381	 4.295967864	 0.1375741507	 0.102107
H	 2.6354237208	 0.6587739205	-1.2654898988	 0.138967
H	 1.255932211	 3.255575792	-1.7819344257	 0.124707
110.0455	172.4415	216.1839	428.2179	466.2087	533.4351	652.3074	700.7593	778.7734	802.2262	866.3145	913.6381	916.3627	939.5127	977.298	1012.4751	1019.6693	1051.4811	1068.286	1132.1994	1145.0351	1170.6595	1195.686	1236.2251	1285.7254	1304.3153	1386.7861	1433.7243	1489.9456	1782.5598	2875.6311	3056.8834	3118.8037	3161.3938	3220.4008	3235.4624
O=CC12CC3OC1C23	O=C[C@@]12C[C@H]3O[C@@H]1[C@@H]23	
InChI=1S/C6H6O2/c7-2-6-1-3-4(6)5(6)8-3/h2-5H,1H2	InChI=1S/C6H6O2/c7-2-6-1-3-4(6)5(6)8-3/h2-5H,1H2/t3-,4+,5-,6-/m1/s1
