17
gdb 29548	3.10237	1.58902	1.06459	1.1174	81.89	-0.2039	-0.001	0.2028	1097.0051	0.137913	-384.732793	-384.725527	-384.724583	-384.76429	28.727	
C	-0.0218072825	 1.5145668258	 0.0423128422	-0.505035
C	-0.0077490363	 0.018664001	 0.0054319312	 0.199542
C	-0.0259678416	-0.776998919	-1.083983549	-0.179987
C	-0.0028225881	-2.2606373648	-0.7426767298	-0.426833
C	 0.0328826934	-2.2144920056	 0.7604881766	 0.201744
C	 0.0672639991	-2.9673440978	 1.882759706	-0.151359
O	 0.0858577347	-2.1520121382	 2.9842249544	-0.161234
C	 0.06261781	-0.8555721152	 2.5457899126	-0.177854
C	 0.0295386509	-0.8421419941	 1.188203076	 0.202658
H	 0.8672513948	 1.9045185697	 0.5524169716	 0.13047
H	-0.0511120138	 1.9390088126	-0.9644513863	 0.12515
H	-0.8919919828	 1.8869049726	 0.5962290882	 0.130451
H	-0.0542342302	-0.4201898042	-2.1072778991	 0.091649
H	-0.8852354692	-2.782395934	-1.1363139982	 0.126203
H	 0.869928933	-2.7647609514	-1.1785780199	 0.126207
H	 0.0827473402	-4.0235308739	 2.0947745216	 0.135147
H	 0.0739840483	-0.1058160635	 3.3188061019	 0.133082
164.5811	180.3538	238.075	243.362	283.2518	502.6799	518.0403	579.0594	598.1095	654.3324	701.5936	734.3761	751.312	757.3564	793.2031	924.8739	946.8095	960.6692	1013.9041	1050.9471	1067.1329	1067.1729	1136.4368	1150.5226	1179.4468	1244.7728	1267.5745	1290.5702	1346.9317	1386.4405	1413.8973	1460.0487	1478.587	1490.8517	1604.9623	1653.7941	1675.4453	3019.2186	3024.4208	3042.1216	3073.1936	3115.8646	3199.0875	3272.6518	3278.9398
CC1=CCC2=COC=C12	CC1=CCc2cocc12	
InChI=1S/C8H8O/c1-6-2-3-7-4-9-5-8(6)7/h2,4-5H,3H2,1H3	InChI=1S/C8H8O/c1-6-2-3-7-4-9-5-8(6)7/h2,4-5H,3H2,1H3
