19
gdb 121207	3.10638	0.97702	0.7938	4.1416	77.61	-0.235	0.0171	0.2521	1427.216	0.159067	-419.186772	-419.177394	-419.17645	-419.221666	33.545	
O	 0.165957642	 1.3701181349	-0.0217658215	-0.414453
C	 0.063070117	-0.0471797519	-0.066795806	-0.080909
C	-1.4059019107	-0.41908999	 0.0584899732	-0.142246
N	-2.1727492077	-0.0124376105	-1.1030702967	-0.066391
C	-2.5399204622	 1.4085137941	-1.3047259869	-0.150631
C	-3.9007896594	 0.9432349767	-1.8728587514	-0.258754
C	-3.5905119285	-0.4088231759	-1.1683342397	-0.110575
C	-3.8640503241	-1.6596617342	-1.8767117018	 0.29031
N	-4.0864062946	-2.6455148566	-2.4376537811	-0.327571
H	 1.0723050575	 1.6144871082	-0.2287541125	 0.290841
H	 0.4523076639	-0.4481403146	-1.0134318693	 0.103285
H	 0.6216688279	-0.5124968071	 0.7603362199	 0.089565
H	-1.4793152207	-1.5096653254	 0.1452951151	 0.115715
H	-1.8057696208	 0.0184735637	 0.9935035844	 0.088382
H	-2.6455845869	 1.9603470028	-0.3592075443	 0.100855
H	-1.8669918131	 1.9638535978	-1.9601401366	 0.116527
H	-4.7984044716	 1.4634802966	-1.5414751457	 0.119787
H	-3.9028758087	 0.8472456193	-2.9586194832	 0.133982
H	-4.0751321494	-0.4579109479	-0.178670276	 0.102282
55.0823	95.3025	138.0374	156.2111	180.649	246.9365	281.3907	312.2739	368.1506	474.8347	531.3701	581.529	627.4668	778.4108	816.8506	900.0184	939.7011	952.6608	966.0956	1040.2623	1067.8095	1078.6428	1102.6586	1125.0815	1153.6992	1205.1216	1219.7059	1242.4341	1250.528	1259.4219	1279.1226	1316.1726	1338.0572	1365.4892	1405.4384	1460.388	1477.7305	1487.1178	1511.3957	1522.2543	2355.64	2924.3671	2959.046	2979.2329	3001.8372	3025.7753	3061.0217	3098.1362	3107.3423	3161.2096	3837.0797
OCCN1CCC1C#N	OCCN1CC[C@H]1C#N	
InChI=1S/C6H10N2O/c7-5-6-1-2-8(6)3-4-9/h6,9H,1-4H2	InChI=1S/C6H10N2O/c7-5-6-1-2-8(6)3-4-9/h6,9H,1-4H2/t6-/m0/s1
