23
gdb 100945	2.45264	1.03668	0.86618	2.228	78.73	-0.2501	0.07	0.3201	1475.2975	0.203938	-462.55217	-462.541274	-462.54033	-462.588173	39.611	
C	-0.1082341382	 1.6961213482	-0.0295836936	-0.38539
C	-0.0531117006	 0.1842849682	 0.1995858641	-0.188377
C	-1.3980390743	-0.5068340423	-0.0486860695	 0.122842
O	-1.8801819605	-0.2554765165	-1.3772039159	-0.444169
C	-1.34554473	-2.0286273466	 0.181912948	 0.078235
C	-2.7490780998	-2.660195303	 0.1852215427	-0.089893
O	-3.3935515066	-2.6173887941	-1.067701552	-0.427884
O	-0.5031288863	-2.5114212111	-0.8571008851	-0.265091
C	-0.3841735827	-3.9155921601	-0.9627538319	-0.243004
H	 0.875139878	 2.1525794582	 0.1166352621	 0.11038
H	-0.4443661572	 1.9200444048	-1.0452012577	 0.130582
H	-0.8064353989	 2.1775527208	 0.6646575145	 0.111315
H	 0.6980274182	-0.276237015	-0.4524911869	 0.109061
H	 0.258465107	-0.0304185478	 1.230053633	 0.092735
H	-2.1540647035	-0.0771532485	 0.6195060397	 0.086102
H	-1.3118655289	-0.7902976204	-1.9496633677	 0.293099
H	-0.8878731852	-2.2309947112	 1.1664843517	 0.064795
H	-2.687128248	-3.7152636663	 0.4734294847	 0.10216
H	-3.3321870598	-2.1541751748	 0.9747637242	 0.085284
H	-3.25999548	-1.7209021965	-1.4091317982	 0.28797
H	 0.404028134	-4.1093791411	-1.694661824	 0.126612
H	-0.0911695534	-4.3703737656	-0.0047197153	 0.105731
H	-1.3153602232	-4.3766817893	-1.3123452571	 0.136905
79.5027	90.122	101.4749	142.9321	178.8169	209.0064	236.3462	271.5368	288.4544	327.3183	344.8396	365.7697	434.537	508.8497	619.2727	682.5407	743.6294	786.3915	838.5735	873.7905	959.488	967.2094	999.1841	1042.2691	1070.9203	1113.2469	1116.1299	1131.9628	1156.422	1182.1559	1212.9184	1240.608	1262.2806	1295.5079	1327.5047	1345.6632	1365.1068	1390.1069	1400.9149	1409.2853	1433.3202	1474.5714	1481.6513	1486.3803	1490.4937	1497.6185	1505.179	1510.2301	1523.7252	2946.5513	2958.9765	2991.841	3026.8184	3036.1313	3041.0583	3060.2871	3066.5852	3070.8012	3102.2308	3114.4391	3123.6929	3711.414	3751.9971
CCC(O)C(CO)OC	CC[C@@H](O)[C@@H](CO)OC	
InChI=1S/C6H14O3/c1-3-5(8)6(4-7)9-2/h5-8H,3-4H2,1-2H3	InChI=1S/C6H14O3/c1-3-5(8)6(4-7)9-2/h5-8H,3-4H2,1-2H3/t5-,6-/m1/s1
