20
gdb 59612	3.02484	1.14311	1.02528	2.11	76.67	-0.2675	0.0221	0.2896	1268.7439	0.170414	-440.313035	-440.303789	-440.302844	-440.34735	33.998	
C	 0.0291070837	 1.5047847722	-0.0003483356	-0.398829
C	 0.0121560404	-0.0255793089	 0.1081652726	-0.003886
C	 0.7736144027	-0.5288730688	 1.3399276804	-0.396258
C	-1.4217460777	-0.5407642061	 0.0774850181	 0.228367
O	-1.459835707	-1.9474562264	 0.0725810882	-0.262341
C	-2.6629719472	-2.3238738528	 0.7227645485	-0.175355
C	-2.9586105028	-1.1562358001	 1.6406575693	 0.381484
N	-3.7933747804	-1.1411774938	 2.5835270902	-0.534411
O	-2.1509780188	-0.1307163841	 1.2490209608	-0.245658
H	 1.0578211452	 1.8739878289	-0.0414074226	 0.118749
H	-0.4874132598	 1.8517965192	-0.901734008	 0.113931
H	-0.4602436773	 1.9610490296	 0.8656431163	 0.133206
H	 0.4799953555	-0.4463439017	-0.7919297898	 0.092608
H	 0.3399777943	-0.1223432149	 2.2584676687	 0.126903
H	 0.7433460603	-1.6191787457	 1.4000305492	 0.128564
H	 1.8204039072	-0.2152543175	 1.292480166	 0.112002
H	-1.9626358532	-0.1389359111	-0.7968580812	 0.078271
H	-3.4871548357	-2.4661752641	 0.0075132771	 0.126651
H	-2.5077949107	-3.2533500493	 1.2727291903	 0.14863
H	-3.8171139987	-0.2268271944	 3.0370508514	 0.227372
70.2826	91.2881	141.0384	197.7097	207.5101	234.0067	280.3566	336.9422	419.2702	478.1786	525.8158	583.4225	676.7785	745.3979	826.6045	880.5235	895.6267	929.9399	938.459	960.3081	980.9914	1035.5868	1042.0538	1068.2426	1125.4934	1146.9344	1163.7834	1213.7348	1216.9543	1295.6732	1327.4228	1347.9507	1356.6034	1391.9975	1404.0549	1407.777	1431.6983	1488.5226	1492.9767	1500.9041	1503.2282	1517.4217	1798.2356	2953.8132	2999.4364	3025.7614	3035.8888	3047.0883	3103.2575	3112.4769	3117.4098	3120.15	3129.3573	3480.8404
CC(C)C1OCC(=N)O1	CC(C)[C@H]1OC[C]([NH])O1	
InChI=1S/C6H11NO2/c1-4(2)6-8-3-5(7)9-6/h4,6-7H,3H2,1-2H3	InChI=1S/C6H11NO2/c1-4(2)6-8-3-5(7)9-6/h4,6-7H,3H2,1-2H3/t6-/m0/s1
