16
gdb 71520	2.54193	1.57942	1.46374	4.6127	74.04	-0.2579	-0.0091	0.2489	981.8393	0.123498	-400.672287	-400.664694	-400.66375	-400.704215	29.285	
C	-0.0058407985	 1.491011482	-0.0264996922	-0.523968
C	 0.062318189	-0.0044193582	-0.0953300036	 0.253133
C	 0.6274416337	-0.946813294	-1.1849045884	-0.323869
C	 0.0882927736	-1.938340784	-0.1342969008	-0.131826
C	 0.4655412574	-0.9991948381	 1.0501290887	 0.019686
O	-0.86288183	-1.0244727486	 1.6633332382	-0.348916
C	-1.1161393239	-1.0083489031	 0.2318482873	 0.373998
C	-2.4621706378	-1.0153155415	-0.2723880505	 0.164905
N	-3.5295474268	-1.0073063717	-0.7170358477	-0.343555
H	 0.9975438389	 1.9282003327	-0.0592765905	 0.130511
H	-0.5787546153	 1.8984906985	-0.8655359551	 0.138844
H	-0.4882505592	 1.8030998265	 0.9051312924	 0.144676
H	 0.1190707496	-0.9348103276	-2.1523387418	 0.120285
H	 1.7118438064	-0.9299121609	-1.3213843087	 0.109634
H	 0.0703999566	-3.0266530552	-0.1269917483	 0.105664
H	 1.3381521464	-1.0047579768	 1.6998230309	 0.110798
120.3818	144.517	222.9657	243.556	304.0201	381.343	505.2128	532.4107	538.8158	570.0449	692.948	742.5497	784.7104	824.5025	852.8208	904.826	927.7891	939.0793	995.2581	1030.6193	1051.5455	1103.5088	1143.5932	1157.5909	1172.4252	1195.0209	1231.3696	1257.277	1309.7617	1349.8438	1411.6015	1487.2376	1488.3749	1515.4762	2352.0861	3035.5989	3060.2134	3104.4091	3112.111	3118.493	3140.499	3152.9826
CC12CC3C1OC23C#N	C[C@@]12C[C@H]3[C@@H]1O[C@@]23C#N	
InChI=1S/C7H7NO/c1-6-2-4-5(6)9-7(4,6)3-8/h4-5H,2H2,1H3	InChI=1S/C7H7NO/c1-6-2-4-5(6)9-7(4,6)3-8/h4-5H,2H2,1H3/t4-,5-,6+,7+/m0/s1
