23
gdb 114040	2.6255	1.13445	0.94445	1.2395	85.98	-0.2411	0.0779	0.3189	1374.4275	0.20458	-388.263144	-388.253226	-388.252282	-388.297486	37.929	
C	 0.2366864768	 1.7783889189	-0.1616583188	-0.377402
C	 0.047769413	 0.2573327067	-0.1523643402	-0.201497
C	 0.9302207856	-0.4505785154	-1.1789311135	 0.063979
C	 2.4896286942	-0.5109257239	-1.0008473981	-0.336361
C	 2.4305084928	-2.0282674915	-1.2426924738	 0.371859
O	 3.2910340254	-2.6875694237	-2.1090482407	-0.462561
C	 1.60984142	-2.7435745059	-0.2108791342	-0.057697
C	 1.5848965834	-2.4798706092	 1.2821122532	-0.422899
C	 0.9059773503	-1.9805425304	-1.3259033583	-0.178061
H	 1.26952103	 2.052089415	 0.0807799769	 0.11643
H	 0.0078479579	 2.1992164668	-1.1473392297	 0.112485
H	-0.4158814255	 2.2670137748	 0.5686373268	 0.109691
H	 0.2400194214	-0.1288458394	 0.8535570148	 0.09623
H	-1.0014467885	 0.0181189221	-0.3717862105	 0.093416
H	 0.7204238995	-0.0127168292	-2.1622650817	 0.074744
H	 3.0256242607	 0.0065557311	-1.7987582691	 0.107673
H	 2.8953252634	-0.1822802489	-0.0373343652	 0.087933
H	 4.0238662491	-3.0435173233	-1.5950095648	 0.282285
H	 1.5768826149	-3.8068503601	-0.4484918296	 0.086678
H	 1.8257461153	-1.4447656512	 1.533438176	 0.122489
H	 0.6023672784	-2.706032712	 1.7109668909	 0.11854
H	 2.3189279338	-3.1150792591	 1.7915550534	 0.108285
H	 0.2524093081	-2.5146502822	-2.0068625739	 0.083759
87.2854	125.1002	158.464	191.6101	224.3574	243.5497	257.6259	286.5856	342.3036	368.391	427.2605	481.0495	549.2646	650.9053	695.3118	754.6561	774.5728	829.9433	915.2774	928.6127	946.1479	968.1959	984.4628	1003.4506	1055.1105	1056.6251	1091.2885	1120.7607	1130.6366	1146.9205	1187.6626	1222.2498	1236.6406	1252.245	1284.5599	1296.2292	1321.7887	1343.6224	1350.1101	1397.6811	1412.4217	1416.1334	1464.9721	1483.5451	1498.2882	1499.9402	1502.5228	1505.8581	1511.7599	3021.12	3025.0174	3028.9993	3029.948	3039.1181	3075.0366	3083.0862	3098.4985	3101.4235	3108.5677	3112.1769	3128.5592	3170.2341	3794.5564
CCC1CC2(O)C(C)C12	CC[C@H]1C[C@@]2(O)[C@@H](C)[C@@H]12	
InChI=1S/C8H14O/c1-3-6-4-8(9)5(2)7(6)8/h5-7,9H,3-4H2,1-2H3	InChI=1S/C8H14O/c1-3-6-4-8(9)5(2)7(6)8/h5-7,9H,3-4H2,1-2H3/t5-,6-,7-,8+/m0/s1
