17
gdb 31800	4.85231	1.00594	0.84191	1.3425	79.25	-0.2376	-0.0418	0.1958	1345.6	0.136294	-418.057359	-418.048584	-418.047639	-418.091955	31.056	
C	-0.0522421912	 1.5061693192	 0.0215277423	-0.471486
C	-0.0078123226	 0.0029341687	 0.0068320198	 0.315184
N	-0.2140295234	-0.6149144448	-1.1623162003	-0.3008
C	-0.1726790325	-1.9474727802	-1.1656417384	-0.056088
C	 0.0743430312	-2.6855120709	-0.0064416322	 0.281313
C	 0.1249413343	-4.1928395302	 0.0098308814	-0.153903
O	-0.1114577226	-4.686479943	-1.2948265174	-0.416197
N	 0.281009622	-2.0759222239	 1.1636389501	-0.298217
C	 0.2387763364	-0.7458171068	 1.1620837095	-0.068787
H	 0.127856756	 1.903466944	 1.0235913401	 0.122085
H	 0.7007140008	 1.9182507981	-0.6578152732	 0.142816
H	-1.026652773	 1.8639422312	-0.3259515297	 0.142821
H	-0.3392959046	-2.4510476769	-2.1109768316	 0.133114
H	 1.1092784058	-4.5029901334	 0.3945908049	 0.113243
H	-0.6249236662	-4.5575628515	 0.7294436263	 0.113243
H	-0.0751152929	-5.64602126	-1.2652759467	 0.295513
H	 0.4071741925	-0.2498311895	 2.1155260451	 0.106145
43.5794	61.1845	115.5312	197.777	214.4369	326.1752	338.265	424.5095	441.0849	505.1958	551.575	659.2764	736.185	779.9523	874.2328	909.4161	975.5048	1007.2345	1044.4318	1051.1796	1062.3848	1099.8288	1197.8586	1236.1414	1240.9093	1266.7998	1272.3926	1329.6672	1369.4409	1411.5158	1453.6013	1475.7729	1488.1578	1502.865	1521.8161	1578.7927	1622.3927	2973.9188	2998.6361	3041.2173	3102.1308	3124.1041	3149.8658	3200.9408	3848.2352
CC1=NC=C(CO)N=C1	Cc1ncc(CO)nc1	
InChI=1S/C6H8N2O/c1-5-2-8-6(4-9)3-7-5/h2-3,9H,4H2,1H3	InChI=1S/C6H8N2O/c1-5-2-8-6(4-9)3-7-5/h2-3,9H,4H2,1H3
