18
gdb 8228	5.16646	1.13026	1.06879	3.8714	69.14	-0.2258	0.0379	0.2637	1142.168	0.15447	-381.130566	-381.122251	-381.121307	-381.163964	30.209	
N	 0.4199257726	 0.0137624466	 0.8126345448	-0.505583
C	-0.1512497573	 0.3591712006	-0.3709297434	 0.377152
O	 0.156391953	 1.3373431397	-1.0230423656	-0.364897
C	-1.2693401581	-0.5931757316	-0.817263189	-0.259798
N	-1.2070453012	-1.9008115021	-0.198798104	-0.08465
C	-0.2995461608	-2.9243088522	-0.7715520431	-0.159811
C	-1.3680637043	-3.9990488075	-0.4610910153	-0.226844
C	-2.3606334742	-2.8176761905	-0.3420953217	-0.157063
H	 1.1096270734	 0.6207403031	 1.2218530756	 0.25733
H	 0.0648362513	-0.787147425	 1.3096948675	 0.261172
H	-2.2173004639	-0.1193237284	-0.5319634849	 0.130014
H	-1.2471926688	-0.6251281675	-1.9193846537	 0.109345
H	-0.1440164659	-2.7910705036	-1.8540015977	 0.096615
H	 0.6771650804	-3.0001329738	-0.2842405533	 0.1056
H	-1.5676295234	-4.7409751069	-1.2339854147	 0.110057
H	-1.1960183365	-4.5031758821	 0.4915202657	 0.113864
H	-3.0621479067	-2.8061918368	 0.4983717979	 0.104694
H	-2.9224412895	-2.6566979719	-1.2753827452	 0.092803
65.3333	77.1071	123.4624	197.8055	301.8812	342.4522	356.5603	420.0629	530.576	570.3426	695.419	707.4116	793.7285	840.5255	875.2249	927.7168	938.7695	972.086	1004.7283	1090.7755	1098.1518	1130.0477	1146.3826	1208.8889	1214.4418	1231.2401	1263.2548	1270.5172	1296.1071	1337.6528	1350.7494	1373.4467	1466.1377	1489.9479	1504.5827	1531.5602	1579.5114	1809.5857	2971.294	2976.8184	2985.5117	3051.4913	3063.8089	3070.6454	3088.7818	3144.6305	3584.936	3732.4676
NC(=O)CN1CCC1	NC(=O)CN1CCC1	
InChI=1S/C5H10N2O/c6-5(8)4-7-2-1-3-7/h1-4H2,(H2,6,8)	InChI=1S/C5H10N2O/c6-5(8)4-7-2-1-3-7/h1-4H2,(H2,6,8)
