24
gdb 9679	4.32722	1.03515	0.96264	0.1225	86.22	-0.2549	0.0854	0.3403	1371.0667	0.221932	-314.274307	-314.264177	-314.263233	-314.308935	37.612	
C	 0.3930743256	 1.5729145218	 0.0780752533	-0.368611
C	-0.1392669663	 0.1441512575	-0.0898942946	-0.20775
C	 0.4938218903	-0.569438364	-1.2681125621	-0.021789
C	 1.8154381327	-1.2955322866	-1.1344028256	-0.32842
C	 0.5524482571	-2.0747866187	-1.4380434947	 0.350467
C	-0.0162016128	-2.9836441136	-0.3624781525	-0.465178
C	 0.3896516716	-2.598586392	-2.861552024	-0.238062
C	 1.1364405391	-3.9071700708	-3.1504836399	-0.380575
H	 1.4758488049	 1.5711870358	 0.2416640047	 0.117396
H	 0.195806975	 2.1754576991	-0.815576073	 0.112084
H	-0.0772557718	 2.0756824636	 0.9290889426	 0.107282
H	 0.039947613	-0.4149391536	 0.8350746069	 0.093764
H	-1.2294371996	 0.175772939	-0.2202520547	 0.094011
H	 0.3664792335	-0.024781908	-2.2029341061	 0.071727
H	 2.5598038942	-1.1807539836	-1.9163078556	 0.101587
H	 2.2364579372	-1.3848300206	-0.1368352645	 0.100769
H	 0.1119867683	-2.5677343604	 0.6395151291	 0.113518
H	-1.0886896393	-3.1552873474	-0.5166837057	 0.110532
H	 0.4779017757	-3.9610338665	-0.3699315177	 0.116068
H	-0.6801125533	-2.7358740692	-3.0732469853	 0.090362
H	 0.7405526904	-1.8298491079	-3.5609730565	 0.089951
H	 1.0315366451	-4.1903450847	-4.202621509	 0.108975
H	 2.2055818837	-3.805685918	-2.9351339631	 0.115773
H	 0.7538107859	-4.7375717912	-2.5492235422	 0.116118
74.8685	90.5496	149.4258	151.2419	198.8843	233.8489	262.2015	295.2617	320.9636	366.4669	373.1738	431.8206	564.3076	683.0669	774.1597	786.8384	813.647	876.0624	912.1814	935.4491	942.1889	985.6734	1020.9597	1043.0988	1052.5314	1066.9496	1086.6925	1115.3507	1132.1113	1157.9159	1198.5067	1267.2055	1274.6175	1302.5096	1344.9865	1355.0273	1378.5596	1409.2272	1409.9211	1420.4536	1429.3104	1475.8014	1484.099	1490.3628	1496.3448	1499.3153	1500.67	1507.4357	1508.8275	1514.3933	3007.0362	3016.2155	3026.658	3030.7301	3035.1125	3045.903	3058.9369	3083.2972	3097.5829	3101.2656	3103.4434	3105.8859	3109.5304	3114.5891	3117.9369	3197.401
CCC1CC1(C)CC	CC[C@H]1C[C@]1(C)CC	
InChI=1S/C8H16/c1-4-7-6-8(7,3)5-2/h7H,4-6H2,1-3H3	InChI=1S/C8H16/c1-4-7-6-8(7,3)5-2/h7H,4-6H2,1-3H3/t7-,8-/m0/s1
