23
gdb 93828	2.28933	1.31431	0.9966	1.9912	81.13	-0.2588	0.061	0.3198	1289.3047	0.206466	-425.449255	-425.439742	-425.438798	-425.482787	37.406	
C	-0.005399039	 1.5564875863	-0.0029462664	-0.400356
C	 0.0475038153	 0.02616773	 0.0035547881	 0.001853
C	 0.7255110465	-0.530656448	-1.2613649216	-0.200193
C	 0.7657633999	-2.0581258147	-1.2729072193	 0.129005
O	 1.4495554223	-2.4494953312	-2.456988828	-0.439985
C	 1.4463314055	-2.5963602578	-0.0088725567	-0.236746
C	 0.7784990892	-2.0541382747	 1.2640560867	-0.233766
C	 0.7350970072	-0.5178237111	 1.2763712732	 0.1415
O	 2.0315532136	 0.0440855601	 1.4762281463	-0.442614
H	 1.003325219	 1.976301255	 0.0416116248	 0.124616
H	-0.4970844033	 1.930408334	-0.9067380327	 0.106399
H	-0.5583679387	 1.9349186434	 0.8633819165	 0.108945
H	-0.9841357334	-0.3554025142	 0.0240993394	 0.06922
H	 0.2085157398	-0.1752654554	-2.1588544345	 0.103751
H	 1.7567994053	-0.1576088243	-1.3405451288	 0.091819
H	-0.273449039	-2.4322061524	-1.295159072	 0.060945
H	 1.499473287	-3.4108008559	-2.4678232844	 0.278205
H	 1.4268310684	-3.693647201	-0.0073916874	 0.085218
H	 2.5068803003	-2.3112580488	-0.0428263972	 0.095221
H	-0.2487506473	-2.4357679103	 1.3296754158	 0.094488
H	 1.3087697793	-2.4050807281	 2.1549129694	 0.103963
H	 0.1649191592	-0.184747834	 2.1511653419	 0.077413
H	 2.5957163427	-0.2249737969	 0.7443326269	 0.281098
114.0404	160.6695	209.1182	235.4651	257.0253	270.6711	285.4052	292.9708	365.5081	408.6863	423.6257	465.8673	490.7359	564.1396	661.7506	781.0787	823.9191	876.0486	891.6224	939.4593	969.329	992.6336	1007.5225	1051.8214	1067.5452	1077.6973	1112.4239	1121.2737	1146.6417	1163.1199	1222.7097	1238.3768	1264.5902	1291.1063	1308.6618	1331.6606	1342.2206	1358.9622	1381.4094	1383.2861	1397.6871	1408.902	1431.4009	1437.7446	1479.3466	1491.0525	1494.0185	1502.7487	1509.9535	2938.5813	2994.7526	3011.5417	3018.1872	3023.8783	3035.264	3045.9124	3052.5937	3073.5531	3081.5857	3099.2042	3117.5854	3812.2566	3819.6841
CC1CC(O)CCC1O	C[C@H]1C[C@@H](O)CC[C@H]1O	
InChI=1S/C7H14O2/c1-5-4-6(8)2-3-7(5)9/h5-9H,2-4H2,1H3	InChI=1S/C7H14O2/c1-5-4-6(8)2-3-7(5)9/h5-9H,2-4H2,1H3/t5-,6-,7+/m0/s1
