14
gdb 9815	3.70362	1.70744	1.29222	2.4771	66.11	-0.2562	-0.0631	0.1932	918.9089	0.10398	-382.499752	-382.491556	-382.490612	-382.532508	29.885	
O	-0.0084001539	 1.4016315025	-0.0004307533	-0.459185
C	 0.0047173372	 0.0084081734	 0.0087351794	 0.294398
C	-0.5102105604	-0.7316421818	 1.2408106234	-0.30457
C	-1.3499430071	-0.6561640823	 0.0028317127	-0.279308
C	 1.0959915202	-0.6743358393	-0.757563682	 0.165668
O	 1.1429605534	-1.8799083414	-0.9013820443	-0.313291
C	 2.1297094907	 0.1966139681	-1.2972171401	 0.240191
C	 3.0120736304	 0.8892608615	-1.7347212201	-0.388823
H	 0.789879406	 1.718882268	 0.4369410746	 0.287418
H	-0.0334353886	-1.6752449945	 1.47908431	 0.139909
H	-0.7809856516	-0.0997723168	 2.0787419967	 0.124734
H	-2.1928525918	 0.02456549	-0.0022206833	 0.133745
H	-1.445346054	-1.54895682	-0.6033814197	 0.143569
H	 3.7924155194	 1.4913287325	-2.133380424	 0.215544
47.5284	136.7479	220.6872	253.7378	263.6865	296.3915	360.9558	414.6276	481.2458	549.6876	647.1296	695.8001	707.2253	753.9422	783.8326	856.3883	882.6411	948.8374	1002.1771	1050.1718	1087.7874	1105.1535	1205.0028	1254.6565	1325.2708	1376.1971	1438.2681	1473.8274	1747.1476	2209.2301	3141.57	3147.7675	3236.84	3251.1517	3492.6676	3796.1593
OC1(CC1)C(=O)C#C	OC1(CC1)C(=O)C#C	
InChI=1S/C6H6O2/c1-2-5(7)6(8)3-4-6/h1,8H,3-4H2	InChI=1S/C6H6O2/c1-2-5(7)6(8)3-4-6/h1,8H,3-4H2
