17
gdb 29308	3.23706	1.26998	0.91849	1.8561	89.01	-0.1789	0.0073	0.1862	1232.6994	0.135439	-380.880787	-380.871357	-380.870412	-380.914513	35.133	
C	 0.0288217388	 1.54217517	 0.0715963594	-0.533895
C	 0.0276850785	 0.0474563212	 0.0322665589	 0.120698
C	-0.002494015	-0.7560975465	-1.1049289259	 0.119024
N	 0.0245415565	-2.0690442902	-0.6906850287	-0.336785
C	 0.0615837913	-2.1242403133	 0.6798466906	-0.17322
C	 0.0675145874	-0.8256848269	 1.154465269	 0.193564
N	 0.1820426304	-0.4030496261	 2.4928456463	-0.611418
C	-0.047090707	-0.4030011125	-2.4660899259	 0.274215
C	-0.0863578045	-0.1057780375	-3.6350197501	-0.471489
H	 0.9000633553	 1.9291122754	 0.6138700261	 0.131032
H	 0.0479226788	 1.9551635453	-0.9400416703	 0.135669
H	-0.8631968183	 1.9428233886	 0.5724164607	 0.115173
H	 0.0106801597	-2.8579308889	-1.3115007929	 0.263797
H	 0.0894386779	-3.066023413	 1.203710074	 0.110087
H	-0.0909283242	-1.1210575695	 3.1518830541	 0.2374
H	-0.3643190366	 0.4295129349	 2.6777082578	 0.240888
H	-0.1190965289	 0.1625647391	-4.6613351132	 0.18526
113.91	116.4008	135.9177	187.3875	239.4785	249.5673	294.6068	390.0651	393.9979	448.8525	496.4076	519.1389	573.5363	632.0671	678.582	683.3393	694.767	698.8759	742.4981	791.6014	946.3365	1062.2876	1086.9244	1094.2085	1154.0219	1230.6919	1276.1751	1349.0094	1414.6448	1446.276	1484.2276	1484.7441	1497.6358	1555.0065	1625.9415	1657.9718	2216.8652	3009.0923	3056.9667	3116.4939	3260.8929	3503.9426	3526.4575	3615.5343	3697.3961
CC1=C(NC=C1N)C#C	Cc1c([nH]cc1N)C#C	
InChI=1S/C7H8N2/c1-3-7-5(2)6(8)4-9-7/h1,4,9H,8H2,2H3	InChI=1S/C7H8N2/c1-3-7-5(2)6(8)4-9-7/h1,4,9H,8H2,2H3
