19
gdb 58161	3.39825	0.70625	0.6066	4.5229	84.39	-0.2603	-0.0552	0.2051	1810.2402	0.155217	-423.006743	-422.995758	-422.994814	-423.044678	37.595	
C	 0.0466189446	 1.5629842986	 0.086083973	-0.419981
C	 0.0039968888	 0.0351750959	 0.05328832	 0.152108
O	 0.6976332911	-0.5182079126	 1.1611107702	-0.422251
C	-1.4424523095	-0.5281292176	-0.0263845663	-0.19972
C	-2.211420794	-0.0580405213	-1.2810864633	-0.40156
C	-1.4312164701	-1.9866273068	 0.0303335011	 0.13717
C	-1.4581023273	-3.1945936647	 0.0436495936	 0.019783
C	-1.4358385221	-4.6327742953	 0.0630270641	 0.016461
O	-2.3816478865	-5.3333147078	 0.3460710373	-0.233414
H	 1.0792108635	 1.8906754475	 0.2304814263	 0.133019
H	-0.3277718365	 2.0091259346	-0.8388902801	 0.126223
H	-0.5552719217	 1.9533373695	 0.9169612374	 0.110099
H	 0.5528920665	-0.327313969	-0.8238410685	 0.101185
H	 0.2991930081	-0.1722399394	 1.9679095581	 0.27926
H	-1.982975259	-0.1624211344	 0.8607196656	 0.104497
H	-1.6663870474	-0.3272284635	-2.1909373318	 0.132817
H	-3.1952861832	-0.5303659773	-1.3248980743	 0.140331
H	-2.3522699286	 1.0250897817	-1.2669613592	 0.126319
H	-0.4545204368	-5.0727279581	-0.2092085032	 0.097656
19.9382	58.9078	73.2211	126.6059	173.3157	212.2422	234.4531	265.4539	292.538	298.7049	346.9591	401.6537	462.1733	500.5891	567.4467	625.8694	786.654	837.7287	924.2404	965.4036	1020.0633	1023.3475	1074.4501	1082.8132	1109.8319	1154.4719	1180.2577	1256.0009	1314.9177	1324.9234	1370.516	1401.2786	1411.0341	1421.5683	1423.1319	1491.1504	1491.5039	1498.2374	1506.7932	1765.2293	2327.0428	2915.2297	2984.407	3026.392	3048.8868	3050.7262	3103.4227	3123.2152	3127.0213	3135.1754	3795.2069
CC(O)C(C)C#CC=O	C[C@@H](O)[C@@H](C)C#CC=O	
InChI=1S/C7H10O2/c1-6(7(2)9)4-3-5-8/h5-7,9H,1-2H3	InChI=1S/C7H10O2/c1-6(7(2)9)4-3-5-8/h5-7,9H,1-2H3/t6-,7+/m0/s1
