22
gdb 57478	2.87725	1.2445	1.10643	1.3348	81.79	-0.2456	0.0227	0.2682	1218.355	0.193803	-404.374181	-404.364661	-404.363717	-404.408264	36.115	
C	 0.2273073977	 1.5492850412	 0.1687853822	-0.415998
C	 0.0027798657	 0.0352744724	 0.0123589311	 0.245531
C	 0.7020773808	-0.7028991574	 1.1684937218	-0.403921
C	-1.5034006152	-0.2823273264	 0.0470320242	-0.414608
C	 0.5955951243	-0.4877072556	-1.3248694636	 0.017472
C	-0.0079994163	 0.1107496992	-2.6282529179	-0.132494
O	 1.1415865558	 0.5873516377	-3.3718510875	-0.223724
C	 2.2037082021	 0.3579644207	-2.5666156899	 0.118298
N	 2.0431712531	-0.2074384702	-1.4456114147	-0.274673
H	 1.2935038059	 1.7897936877	 0.1395505048	 0.128793
H	-0.2725096524	 2.1272700206	-0.6162351591	 0.105749
H	-0.172725262	 1.8939724794	 1.12805862	 0.110425
H	 0.3132415947	-0.3619176398	 2.1339909283	 0.102973
H	 0.5341213164	-1.7840298298	 1.1045839153	 0.103757
H	 1.780162458	-0.5286011322	 1.1449523854	 0.137703
H	-2.0553622463	 0.2430761095	-0.7400007164	 0.108681
H	-1.6856525473	-1.356402693	-0.0731347272	 0.109532
H	-1.9363429174	 0.0217374416	 1.0057416689	 0.114736
H	 0.4694593913	-1.5782452225	-1.3220238587	 0.082717
H	-0.5287214579	-0.6243793638	-3.2456970685	 0.121049
H	-0.6712962789	 0.9626957898	-2.4579949484	 0.117765
H	 3.1516154679	 0.6936148611	-2.9734298102	 0.140238
66.7962	97.158	210.3653	213.1152	256.2674	262.344	284.8886	320.3989	343.9271	380.7305	443.7479	460.8614	558.7058	712.7536	765.0209	856.635	886.3452	937.4338	938.1849	960.6351	963.4558	964.8239	990.7595	1004.6864	1029.3744	1063.002	1080.4816	1136.667	1214.9955	1232.8204	1245.567	1273.9674	1308.874	1320.3335	1362.6577	1378.9695	1397.557	1399.9534	1431.4396	1478.1234	1486.2642	1489.7691	1500.1514	1507.2407	1520.6077	1521.7669	1708.0011	3010.4825	3023.9388	3028.9401	3035.5225	3063.9522	3088.5425	3092.333	3092.793	3098.2979	3111.3318	3116.0476	3127.082	3211.7188
CC(C)(C)C1COC=N1	CC(C)(C)[C@H]1COC=N1	
InChI=1S/C7H13NO/c1-7(2,3)6-4-9-5-8-6/h5-6H,4H2,1-3H3	InChI=1S/C7H13NO/c1-7(2,3)6-4-9-5-8-6/h5-6H,4H2,1-3H3/t6-/m1/s1
