18
gdb 78881	2.58138	2.14404	1.48191	1.6685	72.84	-0.2275	0.0654	0.2928	918.1121	0.148482	-401.889914	-401.882602	-401.881658	-401.921167	29.793	
C	 0.0429582657	 1.4575746529	-0.0574874803	-0.498999
C	-0.0332969059	-0.0426017142	-0.0402225337	 0.291802
C	 0.0756095518	-0.8511526185	 1.208709678	-0.108517
C	-0.245354045	-2.3031664309	 0.8194584947	-0.130734
C	-0.5191596393	-2.2077800814	-0.6823897247	-0.126474
C	 0.8869337133	-2.2146568895	-0.1633260259	-0.02244
N	 1.2267393892	-0.7878813823	 0.2441828618	-0.202758
C	-0.8979848428	-0.7887528253	-1.0505843964	 0.081842
O	-2.2754920227	-0.4774891449	-0.9494628913	-0.434979
H	 0.6193314351	 1.8336681268	 0.7914560309	 0.126335
H	 0.5248476652	 1.8106697982	-0.9752938109	 0.126209
H	-0.9650904749	 1.8819778559	-0.0165735239	 0.128622
H	 0.1561046502	-0.4470688952	 2.2116147051	 0.094186
H	-0.5634822619	-3.1122821033	 1.4607486482	 0.097221
H	-0.9117701723	-3.0659552516	-1.2122301082	 0.09829
H	 1.6764489871	-2.9017223351	-0.4357175087	 0.101464
H	-0.6165766962	-0.5422928865	-2.0798188513	 0.096583
H	-2.5601469167	-0.7338654751	-0.0642315635	 0.282346
166.1931	187.9096	235.2801	282.6041	306.534	384.26	540.2284	574.5895	608.8796	709.8735	741.1985	769.6798	788.8439	812.1443	841.8617	883.5428	928.9743	939.3648	982.2974	997.5994	1022.7518	1026.982	1044.1019	1052.1123	1068.9649	1101.1474	1115.8944	1195.9512	1234.1372	1245.7039	1269.7545	1285.947	1317.0258	1364.2339	1396.987	1417.7196	1429.841	1485.4957	1494.9649	3038.4242	3066.866	3103.9344	3122.0015	3171.6241	3200.39	3206.9262	3223.0461	3791.3653
CC12C3C4C(C4N13)C2O	C[C@]12[C@H]3[C@H]4[C@H]([C@H]4N13)[C@H]2O	
InChI=1S/C7H9NO/c1-7-5-2-3(6(7)9)4(2)8(5)7/h2-6,9H,1H3	InChI=1S/C7H9NO/c1-7-5-2-3(6(7)9)4(2)8(5)7/h2-6,9H,1H3/t2-,3+,4-,5+,6+,7+,8?/m0/s1
