19
gdb 118373	1.6732	1.22304	0.738	3.9818	82.74	-0.2458	0.0147	0.2605	1529.6212	0.157163	-382.041659	-382.031289	-382.030345	-382.077755	36.662	
C	-0.0038626687	 1.5604308359	 0.0422065961	-0.391501
C	 0.1390248798	 0.0431593938	 0.0974000933	-0.119876
N	 0.5595948195	-0.4799784865	-1.2031471279	-0.294383
C	 0.6672375827	-1.9299520141	-1.2637061987	-0.111086
C	 0.8656622832	-2.3904509767	-2.7328920256	-0.36533
C	-0.2854710381	-2.0538288547	-3.5598837534	 0.280117
C	-1.2480344049	-1.7566131363	-4.2158106435	-0.42624
C	 1.8110520181	-2.3878332898	-0.4537834156	 0.307782
N	 2.6986000134	-2.7711340346	 0.1785723518	-0.328507
H	 0.9387220041	 2.025215472	-0.2594979455	 0.133889
H	-0.7753756158	 1.8592378464	-0.6768606976	 0.115026
H	-0.2915914666	 1.9556102147	 1.0204624016	 0.121674
H	 0.9036792617	-0.2308122505	 0.8336579708	 0.129242
H	-0.8076991355	-0.4121458279	 0.4425983257	 0.083556
H	-0.1028580053	-0.1929255885	-1.9188169006	 0.230226
H	-0.2260649614	-2.4469160582	-0.8656114964	 0.113775
H	 1.7685617766	-1.9095801631	-3.1243466747	 0.160951
H	 1.0392038403	-3.4713965151	-2.7467860335	 0.15405
H	-2.0906326633	-1.5093267169	-4.8135085264	 0.206634
64.4319	84.9266	88.313	123.6007	160.138	207.3289	256.5275	278.1623	347.4534	375.1791	393.8933	506.7103	557.8736	607.0462	631.2107	665.8576	756.1663	819.7012	847.4084	936.5108	953.9655	982.1875	1038.303	1061.0516	1136.2533	1157.7536	1186.7944	1238.2694	1290.8075	1303.2383	1340.9822	1375.4725	1392.1476	1416.7114	1463.0822	1486.446	1498.2242	1508.3158	1524.4734	2238.2212	2361.3926	2925.149	2931.962	3035.625	3049.2138	3054.8452	3090.9289	3104.3436	3124.8928	3502.8517	3504.3658
CCNC(CC#C)C#N	CCN[C@@H](CC#C)C#N	
InChI=1S/C7H10N2/c1-3-5-7(6-8)9-4-2/h1,7,9H,4-5H2,2H3	InChI=1S/C7H10N2/c1-3-5-7(6-8)9-4-2/h1,7,9H,4-5H2,2H3/t7-/m0/s1
