19
gdb 67739	3.42429	1.55245	1.35531	1.4826	79.93	-0.2189	0.0065	0.2254	1024.361	0.158228	-385.858174	-385.850289	-385.849345	-385.889759	32.148	
C	-0.0151020145	 1.4933679812	 0.1024989691	-0.499255
C	 0.0013017211	-0.0038956353	-0.0721465243	 0.265845
C	 0.9808001123	-0.6968378471	-0.9455206727	-0.135593
C	 0.5695049111	-1.945626453	-1.2058981272	-0.145515
C	-0.6819979314	-2.2060878084	-0.4028940105	 0.385574
C	-1.547949984	-3.3959084773	-0.7063007303	-0.495597
O	-0.1907943663	-2.2405762991	 1.0225327938	-0.326814
C	-0.5200458234	-0.8831518925	 1.1398109825	 0.060197
C	-1.2892829387	-0.7928489109	-0.1268274223	-0.247519
H	 0.9445083238	 1.8606186254	 0.4825423337	 0.122841
H	-0.2182108921	 2.0048829505	-0.8455357224	 0.12235
H	-0.7897379059	 1.8004483006	 0.8136092204	 0.116281
H	 1.9307977689	-0.2609267146	-1.2331586589	 0.098277
H	 1.1210287631	-2.7216870687	-1.7214626306	 0.098639
H	-0.9665341	-4.3197618738	-0.6238567186	 0.131295
H	-2.3873264195	-3.4546983882	-0.0086654291	 0.128121
H	-1.9400859182	-3.3265598132	-1.7264548263	 0.12345
H	-0.6386371581	-0.4676849688	 2.1340834591	 0.105766
H	-2.2712461381	-0.4138657768	-0.3861064556	 0.091656
189.8881	200.041	219.0029	247.777	300.7096	327.5304	411.6764	446.6328	554.5618	599.5758	619.6947	707.4844	725.728	758.9499	782.708	811.4734	852.1112	894.2977	910.0092	916.9599	951.97	1004.8916	1037.1144	1066.2594	1093.5639	1095.2161	1120.1141	1167.4078	1198.5123	1247.1683	1273.8672	1315.2001	1353.5594	1394.6318	1412.2313	1421.1099	1480.6784	1489.4885	1489.6765	1502.1123	1630.4679	3023.4121	3038.3278	3084.1542	3093.0595	3107.7535	3121.5046	3168.531	3185.4774	3190.5333	3219.0819
CC12C=CC3(C)OC1C23	C[C@@]12C=C[C@@]3(C)O[C@@H]1[C@@H]23	
InChI=1S/C8H10O/c1-7-3-4-8(2)5(7)6(7)9-8/h3-6H,1-2H3	InChI=1S/C8H10O/c1-7-3-4-8(2)5(7)6(7)9-8/h3-6H,1-2H3/t5-,6+,7-,8+/m0/s1
