21
gdb 89458	2.16645	1.57563	1.40502	2.1434	78.14	-0.2392	0.0666	0.3058	1088.2859	0.180262	-424.202278	-424.192752	-424.191807	-424.236202	36.137	
C	-0.3341395683	 1.4895057482	 0.1492789657	-0.499727
C	-0.0295312388	 0.0144138303	 0.0263921109	 0.249103
C	 1.1301803515	-0.4328176934	-0.8806186003	-0.122309
O	 1.6700555469	-1.3033627594	 0.1377290705	-0.331871
C	 0.6843396524	-0.8739886965	 1.1106120097	 0.391795
C	 1.2822933953	-0.4263892543	 2.4151034452	-0.478772
C	-0.5101262625	-1.8651109774	 1.1060863651	 0.078439
O	-1.1664260696	-1.8946514186	 2.3579855359	-0.434089
C	-1.2144372671	-0.9935220455	 0.0170575796	-0.327689
H	 0.5759247654	 2.0755731095	 0.3175991814	 0.118882
H	-0.807353475	 1.868013209	-0.7653193549	 0.118992
H	-1.0199046673	 1.6861926622	 0.9800594585	 0.121947
H	 0.8622890869	-0.9751957876	-1.7968646016	 0.093388
H	 1.8393290651	 0.3664627873	-1.1367144777	 0.094057
H	 1.9599665785	 0.4190069325	 2.2626774365	 0.113949
H	 0.4974045865	-0.1401426807	 3.1191488632	 0.134283
H	 1.8556193355	-1.2461577432	 2.8616297567	 0.129621
H	-0.2080849301	-2.8687000805	 0.7801876749	 0.071958
H	-1.970805231	-2.4146571746	 2.2621756287	 0.284816
H	-2.1362814088	-0.557406071	 0.4121264364	 0.098761
H	-1.4285499155	-1.4759843064	-0.9410639245	 0.094467
59.7967	173.9828	178.1768	192.3772	216.912	249.6846	279.5096	332.5093	366.8877	392.7043	430.4408	488.1969	585.1441	670.0401	696.902	822.8529	847.5095	895.6396	902.1683	936.8019	963.8182	1009.0381	1019.4819	1059.4239	1096.4427	1132.6227	1153.6627	1171.5996	1189.9129	1211.0962	1234.1825	1248.8088	1264.1208	1293.0773	1330.39	1369.6295	1403.3783	1409.6624	1412.2123	1466.3729	1478.5071	1483.6028	1491.4916	1494.1042	1525.2661	2996.0604	3018.676	3020.6941	3038.6403	3039.5879	3048.8731	3082.4406	3095.6162	3104.255	3107.017	3130.1182	3813.5513
CC12COC1(C)C(O)C2	C[C@@]12CO[C@]1(C)[C@@H](O)C2	
InChI=1S/C7H12O2/c1-6-3-5(8)7(6,2)9-4-6/h5,8H,3-4H2,1-2H3	InChI=1S/C7H12O2/c1-6-3-5(8)7(6,2)9-4-6/h5,8H,3-4H2,1-2H3/t5-,6+,7+/m0/s1
