20
gdb 85301	2.40901	1.79322	1.28105	3.4519	80.44	-0.25	0.0355	0.2855	1055.3422	0.173405	-403.164036	-403.156298	-403.155353	-403.196098	31.039	
C	-0.4110909501	 1.5370278318	 0.141507672	-0.401245
C	 0.0941816961	 0.107277697	 0.0023519642	 0.132975
O	 0.9562125824	 0.0575432696	-1.1641561448	-0.283328
C	 2.1933252142	-0.5209532089	-1.0860705712	 0.414417
N	 2.9423662779	-0.6362984183	-2.1001992566	-0.537968
C	 2.6046273285	-0.9898758224	 0.2799905102	-0.076789
C	 1.4320402343	-1.8090508594	 0.8977447337	-0.246666
C	 0.8077874168	-0.4315453526	 1.2418630414	-0.028385
C	 2.2548636278	 0.1280233756	 1.3067700241	-0.241137
H	 0.4002671379	 2.2206321753	 0.4077006978	 0.126072
H	-0.8474040683	 1.8755639516	-0.8017282236	 0.131528
H	-1.1809090198	 1.5922109239	 0.9177318314	 0.117359
H	-0.7555179488	-0.5518349926	-0.2245715165	 0.087374
H	 2.4732204583	-0.2562785922	-2.9255928421	 0.214215
H	 3.607324684	-1.4097760427	 0.2419675039	 0.093325
H	 0.8722926528	-2.4823317482	 0.2423091004	 0.106429
H	 1.7535612919	-2.3487602654	 1.7912887285	 0.105038
H	 0.1594430781	-0.3436724332	 2.1168210702	 0.07134
H	 2.718233507	-0.0660167335	 2.2765458571	 0.106193
H	 2.4346133591	 1.1659658646	 1.0169975299	 0.109256
93.4528	168.4136	228.8108	268.4381	335.8925	398.7555	434.9531	465.2105	513.5669	623.6476	700.3269	741.7023	814.0204	834.5841	892.8673	899.1337	913.1024	928.3278	932.1023	984.0501	1019.8736	1040.1059	1062.1295	1071.0052	1111.4892	1128.9627	1143.5275	1155.3728	1185.4507	1246.5349	1260.0052	1268.5854	1304.9956	1338.4706	1344.8456	1379.4196	1403.1055	1410.1801	1480.56	1488.9537	1496.8425	1514.2391	1754.6158	3004.4532	3043.3642	3057.1122	3065.9201	3083.4652	3115.9062	3116.4618	3122.3777	3125.397	3143.8079	3456.9653
CC1OC(=N)C2CC1C2	C[C@H]1O[C]([NH])[C@@H]2C[C@H]1C2	
InChI=1S/C7H11NO/c1-4-5-2-6(3-5)7(8)9-4/h4-6,8H,2-3H2,1H3	InChI=1S/C7H11NO/c1-4-5-2-6(3-5)7(8)9-4/h4-6,8H,2-3H2,1H3/t4-,5-,6+/m1/s1
