19
gdb 62459	3.59252	1.17865	1.16703	1.1205	82.34	-0.2353	0.0351	0.2704	1151.6686	0.159127	-385.854113	-385.845542	-385.844598	-385.88685	33.533	
O	-0.2216880811	 1.3816070425	 0.0459321428	-0.458701
C	-0.0769092299	-0.0164603059	 0.0359207001	 0.184109
C	 1.0424253525	-0.4911893389	-0.7386303871	 0.274968
C	 2.0009630527	-0.8639792117	-1.3633359567	-0.419221
C	-0.4700464038	-0.8488439429	 1.2556821874	-0.113757
C	-1.223103039	-0.1550583129	 2.3833881434	-0.228379
C	-2.4289724114	 0.5614528494	 1.7232795147	-0.206846
C	-2.6592711012	-0.1493978125	 0.3659876904	-0.224247
C	-1.3463353627	-0.8410164244	 0.0202803148	-0.091206
H	 0.584900784	 1.7545850577	 0.4189564414	 0.286878
H	 2.8374718969	-1.1944354379	-1.9276801372	 0.192006
H	 0.1667411143	-1.693240571	 1.4947034554	 0.092641
H	-1.5606821121	-0.9232029223	 3.0886865325	 0.101017
H	-0.5954988583	 0.5404360998	 2.950970131	 0.095565
H	-3.3191299313	 0.5261583898	 2.3574626079	 0.089333
H	-2.1862003883	 1.609544814	 1.5501523421	 0.119288
H	-3.4326727286	-0.9212175446	 0.4533306642	 0.098976
H	-2.9868595069	 0.5483832345	-0.4102850544	 0.111478
H	-1.3686079357	-1.6809181227	-0.6645374627	 0.096098
122.1465	143.5258	179.5951	188.6695	252.1558	286.7986	399.6898	423.6223	540.0061	559.4801	579.1338	647.6555	672.3941	687.8127	698.5791	805.3798	836.3919	868.0172	897.3419	899.868	971.6682	998.5379	1037.901	1066.6199	1082.577	1087.2749	1159.6789	1184.946	1212.6737	1245.4478	1261.259	1301.972	1310.8422	1326.2423	1344.5247	1356.2091	1426.9387	1482.9973	1487.5281	1506.6505	2228.729	3034.9763	3038.627	3068.5115	3069.8899	3083.8425	3132.9231	3169.7302	3179.9873	3502.2202	3798.6309
OC1(C#C)C2CCCC12	O[C@@]1(C#C)[C@H]2CCC[C@@H]12	
InChI=1S/C8H10O/c1-2-8(9)6-4-3-5-7(6)8/h1,6-7,9H,3-5H2	InChI=1S/C8H10O/c1-2-8(9)6-4-3-5-7(6)8/h1,6-7,9H,3-5H2/t6-,7+,8-
