17
gdb 102131	1.5621	1.16264	0.78878	2.1345	79.33	-0.1538	-0.0017	0.1521	1477.1957	0.131484	-492.272024	-492.260567	-492.259623	-492.31135	37.389	
N	-0.1654812105	 1.2958453099	-0.1653587737	-0.529392
C	 0.050101585	-0.0219925369	 0.2991380933	-0.110841
N	-1.0126437056	-0.8073918104	 0.3878780701	-0.033363
H	-1.8861584339	-0.3191572543	 0.1763842064	 0.268947
C	-1.2067714867	-2.1169225594	 0.6272007692	-0.185491
C	-2.6133278415	-2.5361058764	 0.9396826903	-0.11219
O	-3.5568753445	-1.8630196536	 0.1017141109	-0.432061
C	-0.9729423393	-2.7607127687	-2.290350951	 0.570717
O	-2.0962767791	-3.0665071521	-2.3795548687	-0.308562
O	 0.1523928524	-2.4716016843	-2.2915720813	-0.288005
H	 0.1794237229	 1.997240893	 0.4833301226	 0.239489
H	 0.281825842	 1.4771888682	-1.0611034103	 0.237615
H	 1.0242189334	-0.4595475954	 0.4935500221	 0.099597
H	-0.3532853393	-2.7033782805	 0.9436363617	 0.090817
H	-2.6958407852	-3.6293969566	 0.8547529331	 0.098184
H	-2.9367641216	-2.2771430371	 1.9614772819	 0.102229
H	-3.3978332886	-2.1765121955	-0.7972389066	 0.29231
27.9915	37.2233	75.4218	91.0118	108.0039	138.5412	142.8797	185.8852	221.4337	323.134	375.7015	510.1703	542.4881	580.9863	601.8222	633.0243	676.9682	682.2749	808.8936	950.593	982.8465	1041.555	1071.2654	1135.7546	1193.8822	1198.7899	1278.6777	1303.5057	1361.6837	1379.0567	1385.7268	1416.7084	1454.5166	1512.032	1640.9396	1682.8113	2413.3963	2958.6585	3004.4692	3166.4199	3204.942	3452.6258	3458.8537	3517.1118	3784.3005
NC=[NH+]C(CO)C([O-])=O	[NH2]=C[NH]=CCO.C(=O)=O	
InChI=1S/C4H8N2O3/c5-2-6-3(1-7)4(8)9/h2-3,7H,1H2,(H2,5,6)(H,8,9)	InChI=1S/C3H8N2O.CO2/c4-3-5-1-2-6;2-1-3/h1,3,5-6H,2,4H2;
