15
gdb 5113	3.48298	2.09623	1.32795	2.1184	63.25	-0.1898	0.0553	0.245	879.2969	0.120304	-396.015958	-396.007916	-396.006972	-396.048488	28.855	
C	-0.0718840405	 1.4762138022	 0.0132353083	-0.340697
N	 0.0203182503	 0.0314524276	-0.0037683591	-0.071819
C	 0.0153357768	-0.8067271642	-1.1308442146	 0.202482
N	-0.1294214857	-0.2467813909	-2.4158928844	-0.610299
C	 0.102115937	-2.076249125	-0.6339005145	-0.142454
N	 0.1618406233	-2.0648040185	 0.7514908191	-0.376909
C	 0.1183110692	-0.7980617336	 1.0636606414	 0.432745
O	 0.1624212838	-0.2748581513	 2.3051589104	-0.431275
H	 0.9008300725	 1.9393139913	 0.2119651108	 0.134454
H	-0.428286374	 1.7987983004	-0.9660347613	 0.156026
H	-0.773136047	 1.7964510377	 0.7872027408	 0.146354
H	 0.7547168233	-0.1499455511	-2.9058490799	 0.245008
H	-0.745951064	-0.8040900049	-2.9941968395	 0.249369
H	 0.119103956	-3.0025336077	-1.1881291516	 0.096792
H	 0.2208283089	-1.0283531621	 2.9060450542	 0.310226
64.6041	138.8678	170.556	226.652	273.1212	320.796	360.1592	417.5108	544.7149	612.4161	633.8421	722.937	747.3056	760.1887	803.6128	809.8726	982.7883	1128.7795	1157.7651	1183.6777	1210.1659	1233.179	1289.3015	1296.9824	1383.0766	1439.7559	1494.0185	1512.4637	1577.368	1601.1404	1617.4771	1659.4208	3039.1226	3107.2847	3151.4274	3245.914	3497.2145	3588.4466	3803.4853
CN1C(N)=CN=C1O	Cn1c(N)cnc1O	
InChI=1S/C4H7N3O/c1-7-3(5)2-6-4(7)8/h2H,5H2,1H3,(H,6,8)	InChI=1S/C4H7N3O/c1-7-3(5)2-6-4(7)8/h2H,5H2,1H3,(H,6,8)
