16
gdb 44324	3.20832	1.922	1.55555	2.7808	73.29	-0.2314	-0.0031	0.2283	868.1171	0.127585	-400.75182	-400.745702	-400.744758	-400.78212	25.697	
N	-0.0721068374	 1.1968999898	 0.30961444	-0.540685
C	-0.047340698	-0.0202895045	-0.0100147691	 0.420608
O	 1.0994904124	-0.7596361533	-0.2328325268	-0.234549
C	 0.7617525376	-1.9770604638	-0.8589686253	 0.076795
C	-0.0314171714	-3.0618725208	-0.109405999	-0.130866
C	-0.5412181558	-2.7562682312	 1.2544361887	-0.061052
C	-1.2655200394	-1.6350169226	 1.2619606458	-0.09412
C	-1.2389240189	-0.968403046	-0.1133433539	-0.17986
C	-0.7091392889	-2.0725201886	-1.051732769	-0.118418
H	 0.8739574945	 1.5780912799	 0.3638290287	 0.225061
H	 1.4902414166	-2.2707075157	-1.6049123547	 0.11361
H	 0.1646833504	-4.0841473144	-0.4141909718	 0.093328
H	-0.3071266547	-3.3649371116	 2.1190495662	 0.107493
H	-1.6791837808	-1.13760823	 2.1298609584	 0.118043
H	-2.1527394825	-0.4590714143	-0.4140114895	 0.102486
H	-1.1950898337	-2.3343524629	-1.9823090886	 0.102128
139.3995	281.0576	349.5209	434.2514	579.4954	601.9944	687.2482	730.3877	743.098	751.2594	800.691	806.2362	810.3383	874.6222	884.3148	928.4141	938.4572	963.5564	996.8772	1002.546	1026.5753	1051.9603	1076.6226	1090.0828	1127.7068	1160.502	1225.1335	1252.2391	1260.0587	1284.0547	1344.2977	1367.3187	1398.57	1656.6251	1777.9932	3133.2148	3171.2793	3186.4929	3199.5954	3204.8975	3230.0606	3474.5098
N=C1OC2C3C=CC1C23	[NH][C]1O[C@H]2[C@H]3C=C[C@@H]1[C@@H]23	
InChI=1S/C7H7NO/c8-7-4-2-1-3-5(4)6(3)9-7/h1-6,8H	InChI=1S/C7H7NO/c8-7-4-2-1-3-5(4)6(3)9-7/h1-6,8H/t3-,4+,5-,6-/m0/s1
