23
gdb 62723	2.27266	1.65681	1.30882	0.2188	90.82	-0.2184	0.0239	0.2423	1128.5054	0.205103	-351.165244	-351.155914	-351.15497	-351.198272	36.999	
C	-0.0857440726	 1.5270357615	 0.0166329488	-0.46101
C	 0.020170616	 0.0134054695	 0.0200796963	 0.287185
C	-1.2026213759	-0.6392275625	-0.6079723149	-0.456048
C	 1.3532641094	-0.7048452951	-0.2395396291	-0.166278
C	 2.6195187003	 0.0639677844	-0.1090558684	-0.078264
C	 2.7913177254	 0.5304971815	 1.1306274013	-0.079809
C	 1.6638222716	 0.1113805259	 2.0480037595	-0.333323
C	 0.7209928366	-0.7207040881	 1.153979925	 0.292041
C	 0.1419469747	-1.9595153672	 1.8036510104	-0.487282
H	 0.836162	 2.0175352304	 0.3315902024	 0.123726
H	-0.326091548	 1.8905439235	-0.9893431202	 0.107919
H	-0.89205333	 1.8567755155	 0.6833644112	 0.108667
H	-1.3807559437	-0.2181874628	-1.6042313812	 0.113076
H	-1.0931998015	-1.7196287761	-0.7275848703	 0.113818
H	-2.1045557866	-0.4591217501	-0.0103231585	 0.112528
H	 1.3189257316	-1.5746057197	-0.8897912582	 0.072915
H	 3.293020389	 0.2338543838	-0.9420638776	 0.089511
H	 3.6120969666	 1.1576085602	 1.4610462751	 0.089829
H	 2.0319912898	-0.4923526954	 2.8892064577	 0.099858
H	 1.1587677474	 0.9761887616	 2.4995136481	 0.106379
H	-0.5032976393	-1.6941368992	 2.650472742	 0.114375
H	-0.4532267256	-2.5635024405	 1.1161571754	 0.114857
H	 0.9434469448	-2.5982665011	 2.1928462751	 0.11533
161.2705	167.1772	182.6658	193.8222	222.4842	248.1295	312.8913	350.94	375.11	402.7953	452.0132	534.0418	603.1352	656.3725	707.9166	759.8943	804.8248	877.8035	916.0686	944.525	954.4069	961.6984	970.0849	986.0055	1007.302	1034.0511	1055.1881	1099.7108	1128.6825	1142.745	1161.6161	1178.863	1205.7264	1260.9644	1296.9286	1320.8695	1369.5912	1403.4329	1414.0805	1419.5135	1429.1753	1472.8537	1484.3877	1486.8312	1491.6823	1500.4784	1509.6416	1514.9629	1667.343	3005.4323	3020.422	3022.1941	3027.1519	3029.6668	3073.3505	3073.8066	3079.1192	3108.7506	3126.6122	3132.6949	3143.6178	3179.4058	3204.677
CC1(C)C2C=CCC12C	CC1(C)[C@H]2C=CC[C@@]12C	
InChI=1S/C9H14/c1-8(2)7-5-4-6-9(7,8)3/h4-5,7H,6H2,1-3H3	InChI=1S/C9H14/c1-8(2)7-5-4-6-9(7,8)3/h4-5,7H,6H2,1-3H3/t7-,9-/m1/s1
