19
gdb 72583	2.17707	1.6634	1.47702	1.8706	76.78	-0.2388	0.0268	0.2656	1035.8772	0.158986	-419.199689	-419.190661	-419.189717	-419.233312	33.957	
C	 0.1015149043	 1.5896654297	-0.1252749726	-0.474712
C	 0.0535369165	 0.1005866686	 0.0426505081	 0.416143
C	 0.5728419275	-0.8739286297	-1.0345613683	-0.273299
C	 1.2606221252	-1.7253424104	 0.0761824932	-0.279083
C	 0.7615734968	-0.7402938419	 1.1758048919	 0.161442
N	 1.7395637206	-0.2600069048	 2.1045441247	-0.599512
C	-0.6599378251	-1.0334212893	 1.6127558995	 0.365086
N	-1.167350415	-1.6048542006	 2.6094598319	-0.561339
O	-1.2479343093	-0.3762139481	 0.5525971516	-0.308132
H	 1.1231174959	 1.9058361576	-0.3561255629	 0.131836
H	-0.5531935561	 1.9136059729	-0.9417433883	 0.129597
H	-0.2154158717	 2.0952641723	 0.7915605824	 0.127937
H	-0.2190650745	-1.364193438	-1.6034018251	 0.116128
H	 1.2813815348	-0.4181542277	-1.7301093262	 0.108963
H	 0.9342645024	-2.7607697695	 0.1881272787	 0.119029
H	 2.3507801787	-1.7021385879	 0.0045798136	 0.113312
H	 1.3011982167	 0.0399925768	 2.9695888412	 0.24298
H	 2.3919402009	-0.9983109911	 2.3465438142	 0.238215
H	-2.1880548985	-1.5673052588	 2.5830529624	 0.225409
80.8763	100.8608	175.6687	187.8896	203.2571	275.0576	317.463	368.3266	403.1987	546.4358	599.7847	615.5152	698.8343	736.6023	748.7376	804.8612	835.6627	865.6843	896.0606	925.0216	949.8369	979.0316	1000.9826	1012.3565	1107.7484	1163.1449	1186.6145	1221.8696	1227.6311	1251.2419	1278.4125	1295.3435	1329.3714	1380.7897	1412.9933	1464.9117	1479.0991	1484.2724	1487.8229	1665.0415	1810.9328	3036.1713	3066.0799	3073.3241	3105.5936	3117.7135	3119.4919	3135.66	3469.981	3505.5624	3582.0718
CC12CCC1(N)C(=N)O2	C[C@@]12CC[C@]1(N)[C]([NH])O2	
InChI=1S/C6H10N2O/c1-5-2-3-6(5,8)4(7)9-5/h7H,2-3,8H2,1H3	InChI=1S/C6H10N2O/c1-5-2-3-6(5,8)4(7)9-5/h7H,2-3,8H2,1H3/t5-,6+/m1/s1
