21
gdb 88444	2.97126	1.15541	1.07475	2.897	78.75	-0.2289	0.0834	0.3123	1253.5097	0.180148	-424.198427	-424.188721	-424.187776	-424.232686	36.864	
C	 1.0682681585	 1.2029089262	-0.5607848211	-0.427464
C	 0.5856641883	-0.14262566	-0.0869581915	 0.034808
O	 1.591103298	-1.1041059985	 0.2870857402	-0.316874
C	 0.6577012301	-0.6524347417	 1.2979729415	 0.36145
C	 1.2724426768	 0.1353454796	 2.4335596266	-0.463408
C	-0.3167222193	-1.7075909096	 1.7534830523	-0.130069
C	-0.6330835732	-2.9067743234	 0.8750221107	-0.356757
C	 0.2176137428	-3.0807468195	 2.1025478371	 0.141478
O	 1.5793564281	-3.3695524719	 2.0189491582	-0.432736
H	 1.8610648823	 1.603953985	 0.0726092734	 0.129795
H	 1.4586341178	 1.1235075751	-1.5808926293	 0.132061
H	 0.2370611759	 1.9162917668	-0.5769451088	 0.125213
H	-0.2045682743	-0.5747139644	-0.7038255294	 0.089026
H	 1.9839621094	 0.8831163229	 2.0808909016	 0.123832
H	 0.4931223246	 0.6406126295	 3.0139352839	 0.119886
H	 1.7987401336	-0.5529956317	 3.1021200332	 0.145722
H	-1.1199047093	-1.3187869116	 2.3743538194	 0.085889
H	-1.646694248	-3.2927260983	 0.8659268091	 0.109781
H	-0.1148382119	-2.962029525	-0.077086044	 0.123678
H	-0.2142085003	-3.5918366138	 2.956874345	 0.102754
H	 1.9263063601	-2.9175414257	 1.239066302	 0.301937
66.5649	142.0759	159.9938	169.2577	199.4383	230.4647	287.2877	361.7787	401.8801	426.8992	465.008	488.144	519.6168	617.7086	694.2792	774.3832	793.3605	818.9827	868.4605	910.8217	978.1644	987.574	1024.356	1038.5656	1074.6535	1081.1531	1108.8068	1124.0574	1133.2998	1138.4927	1185.8339	1223.9903	1227.7714	1338.1664	1348.1128	1389.0567	1405.9801	1417.2314	1449.0705	1457.5921	1475.2157	1485.5593	1487.2515	1497.5402	1517.9806	3039.8721	3044.0264	3089.9601	3099.6293	3107.2825	3127.9663	3135.3886	3136.9993	3145.9608	3165.8764	3218.2048	3772.98
CC1OC1(C)C1CC1O	C[C@H]1O[C@]1(C)[C@H]1C[C@H]1O	
InChI=1S/C7H12O2/c1-4-7(2,9-4)5-3-6(5)8/h4-6,8H,3H2,1-2H3	InChI=1S/C7H12O2/c1-4-7(2,9-4)5-3-6(5)8/h4-6,8H,3H2,1-2H3/t4-,5+,6-,7+/m1/s1
