23
gdb 118167	5.28707	0.51008	0.48948	1.4814	91.89	-0.2411	0.0584	0.2994	2289.7383	0.202602	-388.270691	-388.258762	-388.257818	-388.309807	40.93	
C	 0.1294517577	 1.5028234648	 0.0530155403	-0.498298
C	 0.065764084	 0.0485200278	 0.0046831239	 0.107809
C	 0.0265039784	-1.1548764173	-0.0341940632	 0.027221
C	-0.0446415315	-2.611972458	-0.0666182295	-0.363708
C	-1.4895856686	-3.1733776811	-0.0764387179	 0.027466
C	-2.245072933	-2.7218465827	-1.3328346833	-0.390519
C	-1.4421559547	-4.7024080631	 0.0745780504	-0.16262
C	-2.803402736	-5.3675676579	 0.242025354	-0.092081
O	-2.5751488123	-6.745827237	 0.5033280145	-0.421098
H	 0.9925800845	 1.8444587651	 0.635408337	 0.14599
H	 0.2173685514	 1.9341046596	-0.9504931848	 0.144898
H	-0.7683309951	 1.9269397962	 0.5166027134	 0.144856
H	 0.4880607398	-2.9887870389	-0.9514760112	 0.120778
H	 0.4891034067	-3.0202238436	 0.8015438379	 0.121373
H	-2.0017010778	-2.7560071855	 0.8013796865	 0.080208
H	-3.2999825646	-3.0086168463	-1.2982689353	 0.11146
H	-2.1963239666	-1.6348740883	-1.4408881771	 0.127441
H	-1.806236593	-3.1703106593	-2.2327790103	 0.11016
H	-0.9384235653	-5.1489309968	-0.7929589358	 0.100461
H	-0.8398881935	-4.9667362674	 0.9525582834	 0.102576
H	-3.3487719967	-4.8903686238	 1.0737568683	 0.083114
H	-3.4123215264	-5.2363461915	-0.6649761167	 0.087929
H	-3.4285417571	-7.184144775	 0.5671937754	 0.284585
25.5923	45.2937	73.5904	84.2279	114.8825	173.9441	213.9402	249.5765	267.4354	274.3529	302.9048	363.0781	387.3434	404.4993	450.3439	559.678	773.3181	795.6707	844.9369	894.7237	942.079	980.5135	1027.0144	1053.963	1054.0376	1062.9946	1114.388	1127.7387	1167.618	1172.5658	1219.243	1242.2654	1263.536	1297.9406	1317.6529	1348.541	1372.1943	1380.4023	1412.5834	1415.9305	1462.1504	1470.6699	1479.3378	1480.1445	1491.3658	1497.9984	1508.4288	1529.3293	2370.1652	2959.2372	2998.9984	3003.0454	3011.7516	3022.8447	3024.6251	3030.2196	3040.4701	3066.4452	3084.0756	3084.1742	3097.2531	3116.3084	3830.466
CC#CCC(C)CCO	CC#CC[C@@H](C)CCO	
InChI=1S/C8H14O/c1-3-4-5-8(2)6-7-9/h8-9H,5-7H2,1-2H3	InChI=1S/C8H14O/c1-3-4-5-8(2)6-7-9/h8-9H,5-7H2,1-2H3/t8-/m1/s1
