23
gdb 113581	4.13247	0.91592	0.83596	1.6977	86.19	-0.2498	0.0812	0.3309	1501.3771	0.206101	-388.301372	-388.292049	-388.291105	-388.336073	35.324	
C	 0.6374676715	 1.4779848843	 0.2591077909	-0.374236
C	-0.2125925471	 0.2657355562	-0.1413454231	-0.213178
C	 0.3241230254	-0.4163345524	-1.3771788317	-0.018289
O	 1.5120652786	-1.2063759947	-1.2168127852	-0.301627
C	 0.294025951	-1.8666611262	-1.6066209699	 0.432755
C	-0.2699528664	-2.9082455098	-0.6282272248	-0.287716
C	-0.6281685149	-4.1320873162	-1.5030614109	-0.208072
C	 0.2758753736	-3.9942602848	-2.7423651934	-0.209055
C	 0.2701277418	-2.4798724952	-3.0061349817	-0.2793
H	 1.6688768101	 1.1720478733	 0.4580019879	 0.133884
H	 0.6582454529	 2.228359381	-0.5388200846	 0.113937
H	 0.2431854299	 1.9579391509	 1.1596665357	 0.111286
H	-0.2461620714	-0.4527777358	 0.6836666601	 0.103604
H	-1.2468590129	 0.5801497404	-0.3353450264	 0.096304
H	 0.3487578625	 0.2234734353	-2.2650958378	 0.074812
H	 0.5136107415	-3.1535128632	 0.0954239496	 0.118243
H	-1.128357549	-2.5360154046	-0.0620807294	 0.102309
H	-0.4944611532	-5.0799191177	-0.9751165337	 0.097982
H	-1.6797740999	-4.0793359422	-1.8096093271	 0.098099
H	 1.2934957172	-4.3251874935	-2.5025375964	 0.106384
H	-0.0708296723	-4.5848625588	-3.5945765147	 0.093841
H	-0.6581204308	-2.1955801005	-3.5188628043	 0.09861
H	 1.1096111419	-2.121227446	-3.6061206589	 0.109423
45.9347	81.1302	135.5342	167.5569	234.0465	262.9649	305.0702	391.2985	420.8199	481.9408	552.6885	599.4665	715.5676	755.9544	808.3942	836.3617	866.6887	899.0281	910.3091	938.2212	950.6359	972.7418	1023.6281	1036.0203	1050.621	1055.8937	1125.7907	1157.6238	1170.8352	1187.836	1211.672	1241.3449	1260.332	1290.1999	1305.1699	1314.9531	1336.6712	1341.451	1349.3538	1376.4653	1407.0384	1472.9453	1473.8931	1482.0522	1492.4785	1494.6265	1498.4698	1508.6664	1512.5729	3023.2314	3024.3327	3033.3705	3035.5018	3040.1365	3053.5627	3054.1083	3079.445	3088.0507	3094.1088	3102.6581	3105.5274	3107.4504	3115.6494
CCC1OC11CCCC1	CC[C@H]1OC21CCCC2	
InChI=1S/C8H14O/c1-2-7-8(9-7)5-3-4-6-8/h7H,2-6H2,1H3	InChI=1S/C8H14O/c1-2-7-8(9-7)5-3-4-6-8/h7H,2-6H2,1H3/t7-/m1/s1
