15
gdb 29420	5.11843	0.85727	0.7937	3.5386	70.31	-0.2088	-0.0323	0.1764	1395.4282	0.112276	-453.98346	-453.974961	-453.974017	-454.018297	30.042	
N	-0.1408547578	 1.3782398792	 0.4380730773	-0.597242
C	-0.0569418066	 0.0293269417	 0.1229274271	 0.263677
C	-0.246085293	-0.6287971341	-1.0530001789	-0.124768
O	 0.0398888677	-1.9603341334	-0.8293647669	-0.170149
C	 0.3769446495	-2.0257091193	 0.4723194453	 0.369002
C	 0.7894623108	-3.3476946108	 1.0179950491	-0.373782
C	 2.2253859764	-3.7048593175	 0.6338941949	 0.157259
O	 2.5642705143	-4.7839713191	 0.2313355619	-0.226351
N	 0.3434777747	-0.8825917872	 1.0892769878	-0.340621
H	-0.2880738309	 1.5238106414	 1.4275746088	 0.257245
H	-0.8098868574	 1.8963620068	-0.1132787174	 0.250441
H	-0.5507226056	-0.3579899924	-2.0473636321	 0.136005
H	 0.7472668404	-3.2810105993	 2.1109936187	 0.15711
H	 0.1308928941	-4.151659188	 0.6810326258	 0.14544
H	 2.9514807935	-2.8736013481	 0.7716092986	 0.096735
24.3441	59.7637	134.1594	238.1286	271.0798	292.1883	383.596	434.9673	454.682	629.9321	649.3356	668.8639	708.2908	742.9297	764.5737	826.7745	970.9522	1012.5624	1040.337	1049.5771	1106.6522	1126.3123	1186.6793	1254.0724	1287.7109	1363.2831	1404.2413	1417.2101	1440.4724	1594.5942	1634.4458	1674.3727	1840.4077	2894.3097	3056.2468	3123.3944	3305.3671	3558.8268	3657.9198
NC1=COC(CC=O)=N1	Nc1coc(CC=O)n1	
InChI=1S/C5H6N2O2/c6-4-3-9-5(7-4)1-2-8/h2-3H,1,6H2	InChI=1S/C5H6N2O2/c6-4-3-9-5(7-4)1-2-8/h2-3H,1,6H2
