20
gdb 6396	2.87305	1.35169	1.086	1.8819	72.1	-0.2647	0.0198	0.2844	1195.7404	0.173982	-386.197093	-386.186999	-386.186055	-386.232932	34.93	
C	 0.1031016614	 1.4861356959	 0.1758729585	-0.387854
C	-0.0119701013	-0.0376771856	 0.091450826	-0.178513
C	-1.4487490802	-0.5388538738	-0.0288865918	 0.150639
C	-1.5516887663	-2.0519384974	-0.1865577489	-0.41022
O	-2.1300087325	-0.1322982619	 1.1893500997	-0.254959
C	-3.4646578392	 0.0511721816	 1.1196441918	 0.432228
C	-4.010396984	 0.480358883	 2.4617684412	-0.477971
O	-4.1203255163	-0.104829689	 0.1195488097	-0.357338
H	 1.1485285431	 1.7968051258	 0.2614592375	 0.113592
H	-0.3155828088	 1.9646701968	-0.7163876166	 0.116392
H	-0.4362005008	 1.8694809639	 1.0462160138	 0.125759
H	 0.5418378633	-0.4075430361	-0.779778358	 0.100085
H	 0.4480078915	-0.5004501831	 0.9734602806	 0.103438
H	-1.9562409177	-0.04809796	-0.8653887173	 0.105388
H	-1.0287702008	-2.3721468698	-1.0931638784	 0.118107
H	-1.0991874942	-2.5617302364	 0.6700925154	 0.119132
H	-2.5970427489	-2.356868402	-0.2699634679	 0.140038
H	-5.0904666284	 0.603262556	 2.3919874002	 0.146508
H	-3.7662327617	-0.2660683368	 3.222780516	 0.147627
H	-3.5473962181	 1.4218905687	 2.7708762085	 0.147921
47.0807	62.9973	89.1774	125.262	183.6859	217.2488	229.9597	254.4089	346.3941	411.9657	447.468	490.3735	613.1048	631.6717	768.2164	838.3644	875.1075	954.4651	978.6427	1003.3582	1026.5975	1044.8223	1063.8253	1138.9885	1145.4833	1200.6295	1267.0682	1299.6293	1330.6734	1380.1373	1398.2786	1398.4179	1406.3116	1411.0149	1469.1535	1475.4354	1476.4295	1489.0418	1497.9155	1503.1902	1509.5776	1816.9087	3027.7654	3037.4786	3041.6117	3056.2627	3058.4359	3072.458	3103.7033	3112.2115	3119.6129	3121.0076	3132.3382	3167.9041
CCC(C)OC(C)=O	CC[C@@H](C)OC(=O)C	
InChI=1S/C6H12O2/c1-4-5(2)8-6(3)7/h5H,4H2,1-3H3	InChI=1S/C6H12O2/c1-4-5(2)8-6(3)7/h5H,4H2,1-3H3/t5-/m1/s1
