16
gdb 45799	2.70295	1.79248	1.32132	2.6577	69.51	-0.2586	-0.025	0.2336	957.7154	0.125878	-437.905832	-437.898612	-437.897668	-437.93763	27.87	
O	 0.0632584518	 0.1587149497	 0.6839319955	-0.297674
C	-0.0162290783	 1.1801499828	 0.0685318088	 0.4154
C	-1.2742210261	 2.0087481651	-0.0790113404	-0.352508
C	-1.1853800846	 3.364954259	 0.6088259244	-0.047915
C	-0.0364828151	 3.717853469	 1.5123084382	-0.315882
C	-0.1237640485	 4.3334941214	 0.1249120339	 0.03108
N	 0.7472966036	 3.9937297782	-0.9412276333	-0.216301
C	 1.2227804634	 2.8659173122	-1.2172376789	 0.104741
O	 1.1105870167	 1.6373663062	-0.5795106288	-0.222073
H	-1.4893837361	 2.1478017034	-1.1463850623	 0.136263
H	-2.0794788166	 1.4146439833	 0.3562902121	 0.142292
H	-2.1520036405	 3.7938638971	 0.8536988399	 0.104956
H	-0.2298896956	 4.3768722961	 2.3507705976	 0.124033
H	 0.736891195	 2.9821160953	 1.6986976036	 0.147616
H	-0.4040240001	 5.3804290016	 0.0916385849	 0.10741
H	 1.9083496309	 2.7490860997	-2.0530478952	 0.138561
94.7147	139.59	262.1885	274.5652	360.9853	452.3833	487.6432	548.8124	613.6145	691.5077	762.5724	788.4536	814.8286	837.3673	875.4172	917.6173	952.5184	1006.3854	1022.259	1047.8881	1066.239	1091.0963	1132.0682	1159.55	1176.5042	1237.6307	1256.8496	1331.2558	1386.9668	1408.5185	1434.4896	1476.3285	1492.2116	1762.9708	1866.7569	3032.9157	3119.8445	3146.6933	3153.9255	3166.3422	3170.402	3233.3098
O=C1CC2CC2N=CO1	O=C1C[C@H]2C[C@H]2N=CO1	
InChI=1S/C6H7NO2/c8-6-2-4-1-5(4)7-3-9-6/h3-5H,1-2H2	InChI=1S/C6H7NO2/c8-6-2-4-1-5(4)7-3-9-6/h3-5H,1-2H2/t4-,5-/m1/s1
