19
gdb 105875	2.15613	1.42482	1.25878	0.9214	71.	-0.2366	0.0596	0.2962	1121.8589	0.157804	-460.108527	-460.099409	-460.098465	-460.142265	34.349	
C	-0.1466008033	 1.5369108	-0.0207948238	-0.428393
C	 0.1598946472	 0.054276072	-0.0163892952	 0.110708
O	 1.3677691432	-0.3395083546	-0.7588353448	-0.330139
C	 1.7831892667	-1.1722487697	 0.3324655584	-0.040666
C	 2.1377181239	-0.295029442	 1.4778004753	 0.059795
O	 2.7055325001	 0.9614299367	 1.2841882634	-0.432149
C	 0.6673052975	-0.6511879613	 1.2419180449	 0.171874
C	-0.2124745244	-1.3015483172	 2.2643673287	-0.182485
O	-0.9452463658	-0.3428295634	 3.019650322	-0.411283
H	 0.6615030765	 2.1156386835	 0.4291747535	 0.133971
H	-0.321764656	 1.8907371429	-1.0418760402	 0.124168
H	-1.0575607331	 1.7076868592	 0.5622460142	 0.135681
H	-0.6830447819	-0.5077210949	-0.4409324531	 0.089095
H	 2.1592714527	-2.1628401447	 0.0999654681	 0.107926
H	 2.5584575708	-0.8030668537	 2.343086841	 0.10774
H	 2.7039247468	 1.1025754014	 0.3269673026	 0.295454
H	-0.9704864813	-1.9287378521	 1.7807275918	 0.111547
H	 0.3855315717	-1.959418934	 2.9155921826	 0.089572
H	-0.3063645813	 0.2566906119	 3.4205235404	 0.287584
75.9531	116.1878	185.8928	212.8815	223.7291	288.9178	311.9719	350.2927	399.309	420.5896	476.6083	565.007	642.7942	711.1997	755.026	829.6815	853.1601	889.4157	951.3995	989.1499	1012.352	1035.0354	1050.1749	1082.0272	1101.7345	1131.8512	1152.8128	1202.8941	1242.9953	1253.9673	1298.1553	1309.0515	1365.9579	1385.8576	1395.882	1410.5796	1422.2043	1469.1397	1486.7047	1504.2169	1505.0094	2973.457	3011.0568	3043.7808	3056.4443	3110.1145	3139.0933	3145.0401	3170.1473	3745.3366	3805.853
CC1OC2C(O)C12CO	C[C@H]1O[C@H]2[C@@H](O)[C@@]12CO	
InChI=1S/C6H10O3/c1-3-6(2-7)4(8)5(6)9-3/h3-5,7-8H,2H2,1H3	InChI=1S/C6H10O3/c1-3-6(2-7)4(8)5(6)9-3/h3-5,7-8H,2H2,1H3/t3-,4-,5+,6-/m1/s1
