22
gdb 93022	2.23469	1.81127	1.1944	1.4338	86.98	-0.2211	0.018	0.2392	1127.3664	0.195517	-367.213875	-367.205198	-367.204254	-367.246501	34.768	
C	 0.1125634216	 1.5695769273	-0.0188812218	-0.406554
C	 0.0242186079	 0.0373618976	 0.0278170757	-0.021567
C	 0.5587601308	-0.5631915815	-1.2939065242	-0.262461
C	 0.7469961878	-2.0554068956	-1.2482144123	-0.101218
C	 1.0828571765	-2.6826699756	-0.1211822263	-0.011354
C	 1.2641683377	-1.9299180544	 1.1419800829	-0.135356
N	 2.1733856033	-0.7418733496	 1.1087555556	-0.371572
C	 0.7229425594	-0.5431782033	 1.2576980685	 0.33499
C	 0.1908047454	-0.0930872251	 2.6027282366	-0.482664
H	 1.1602386023	 1.8896652413	-0.0085000386	 0.125697
H	-0.3483451057	 1.9567105864	-0.9335385212	 0.110052
H	-0.3951663326	 2.0398321017	 0.8284232516	 0.109247
H	-1.0338542905	-0.249498057	 0.11614012	 0.07094
H	-0.1259715046	-0.290341319	-2.1053098498	 0.093569
H	 1.5189349629	-0.0869880618	-1.5317379892	 0.127057
H	 0.6258168272	-2.6135523149	-2.1725534228	 0.086119
H	 1.2265560997	-3.7589208113	-0.096655116	 0.082456
H	 1.2838345075	-2.5222384938	 2.0536879236	 0.07442
H	 2.6296422336	-0.6447706642	 2.0136475489	 0.221854
H	 0.3862835018	 0.9706293929	 2.7766703393	 0.123909
H	-0.8922236495	-0.2460073065	 2.6715581659	 0.12225
H	 0.6599927374	-0.6557670535	 3.4167242836	 0.110186
104.6396	184.2638	218.2373	227.6918	275.2709	296.4487	352.8521	394.8931	415.5233	481.8687	536.034	584.5604	659.3514	712.8938	789.8851	810.2311	858.8813	905.5046	924.6853	933.4449	978.0024	985.0604	1003.002	1015.7763	1059.8795	1090.1765	1109.1107	1129.1175	1142.8673	1173.0846	1202.9364	1241.0775	1293.7997	1317.5152	1326.6201	1361.1805	1387.5278	1405.9732	1410.1559	1416.3189	1457.2581	1470.4369	1483.4587	1496.911	1503.1029	1508.6893	1714.5829	2997.5153	3022.1013	3024.4115	3032.9287	3057.529	3088.9101	3094.0618	3099.5996	3107.2871	3131.4785	3154.9682	3178.595	3481.8461
CC1CC=CC2NC12C	C[C@H]1CC=C[C@H]2N[C@@]12C	
InChI=1S/C8H13N/c1-6-4-3-5-7-8(6,2)9-7/h3,5-7,9H,4H2,1-2H3	InChI=1S/C8H13N/c1-6-4-3-5-7-8(6,2)9-7/h3,5-7,9H,4H2,1-2H3/t6-,7+,8-/m0/s1
