17
gdb 85794	2.33891	1.26214	1.2347	5.372	74.21	-0.2665	-0.0495	0.217	1153.0193	0.133944	-418.018207	-418.00884	-418.007896	-418.052453	33.671	
C	-0.7988952458	 1.2111700648	-0.1049139415	-0.392365
C	 0.0514265193	-0.0471241587	-0.0046739846	-0.072224
N	 1.3270549766	-0.031771947	-0.7782749315	-0.348165
C	 2.160975291	-0.4654767048	 0.3754206015	 0.018315
C	 2.6167460605	-1.9323257751	 0.3802518205	-0.442751
C	 3.2842017701	 0.4341195848	 0.6454318039	 0.294051
N	 4.1673073287	 1.1421871572	 0.8793565808	-0.331824
C	 0.8896935419	-0.237996927	 1.2671022241	 0.365881
O	 0.6882726371	-0.2266198456	 2.4381012989	-0.271019
H	-0.1920499528	 2.100550406	 0.0818662322	 0.140547
H	-1.2367154346	 1.2971652147	-1.1037063455	 0.129351
H	-1.6112860428	 1.1748234325	 0.6271091256	 0.136629
H	-0.5681851689	-0.9392984115	-0.182906802	 0.106297
H	 1.3632532881	-0.6685515232	-1.5661561385	 0.230346
H	 3.3381594464	-2.106327523	-0.4236537626	 0.146565
H	 3.0937788228	-2.1813784272	 1.3315361311	 0.161004
H	 1.7590092725	-2.5958141269	 0.2353887177	 0.129363
60.5307	122.2961	189.5126	195.4878	202.555	215.0408	233.4948	312.9917	370.191	436.0312	533.2924	575.4121	596.8744	661.1965	735.797	764.0625	850.5461	942.3373	950.2033	980.1128	1025.5459	1074.518	1114.5732	1116.8783	1154.11	1222.7624	1270.8946	1353.4336	1366.8985	1403.5055	1407.9673	1483.5981	1484.4795	1491.2127	1495.1945	1927.5157	2353.117	2990.7968	3041.6215	3045.1023	3118.0074	3118.7496	3129.6041	3131.0398	3545.621
CC1NC(C)(C#N)C1=O	C[C@H]1N[C@@](C)(C#N)C1=O	
InChI=1S/C6H8N2O/c1-4-5(9)6(2,3-7)8-4/h4,8H,1-2H3	InChI=1S/C6H8N2O/c1-4-5(9)6(2,3-7)8-4/h4,8H,1-2H3/t4-,6+/m1/s1
