18
gdb 115087	2.35437	1.62873	1.19179	2.3432	76.21	-0.2384	-0.0118	0.2266	1087.884	0.149213	-435.275107	-435.266553	-435.265608	-435.308524	31.51	
C	-0.1239786928	 1.3977325918	 0.1118723001	-0.236602
O	-0.0650541242	-0.0042046196	-0.0785286528	-0.250746
C	-1.3256887522	-0.6565688719	-0.0423069193	 0.041663
C	-1.1330826828	-2.0425320096	-0.6617131141	-0.185224
N	-0.3963333861	-2.9915208612	 0.1673732077	-0.236142
C	-0.4867841259	-2.8315703603	 1.4208472777	 0.097703
N	-1.2052271001	-1.8315316644	 2.0723689784	-0.348263
C	-1.7921609189	-0.7659971874	 1.4029981003	 0.38052
N	-2.5791356495	 0.1039759037	 1.902880124	-0.52121
H	 0.9026922222	 1.7649377056	 0.0423255381	 0.124457
H	-0.7318629113	 1.879346037	-0.6687247891	 0.10768
H	-0.5450600598	 1.6680002636	 1.0878549273	 0.127381
H	-2.0761693847	-0.0784499253	-0.5970924012	 0.092792
H	-2.1169181395	-2.4754343375	-0.8931288672	 0.116449
H	-0.603881047	-1.9211395291	-1.6114708293	 0.122562
H	 0.0121885703	-3.5228665887	 2.0990799836	 0.118929
H	-1.2945823116	-1.876859964	 3.0764521745	 0.246794
H	-2.759356716	-0.0733408827	 2.8953397814	 0.201256
78.6986	119.5835	142.9702	179.3574	253.4326	289.4338	391.8204	425.639	457.9278	519.3562	547.9474	649.7287	712.478	810.3117	852.3421	881.8907	909.0811	945.911	1006.4761	1025.9378	1064.0528	1093.2394	1134.0779	1172.2195	1187.308	1214.8736	1256.4059	1310.679	1331.8403	1368.2759	1394.3227	1431.1229	1459.2189	1465.844	1478.9691	1483.9038	1512.9456	1728.1355	1747.2435	2991.713	3010.5384	3029.1249	3058.8741	3082.3026	3119.8683	3139.3491	3419.1793	3610.9579
COC1CN=CNC1=N	CO[C@H]1CN=CN[C]1[NH]	
InChI=1S/C5H9N3O/c1-9-4-2-7-3-8-5(4)6/h3-4H,2H2,1H3,(H2,6,7,8)	InChI=1S/C5H9N3O/c1-9-4-2-7-3-8-5(4)6/h3-4H,2H2,1H3,(H2,6,7,8)/t4-/m0/s1
