16
gdb 24066	6.63246	0.73863	0.69251	4.2356	76.65	-0.2315	0.0014	0.2328	1547.6739	0.125376	-400.797414	-400.789279	-400.788335	-400.831415	29.179	
N	-0.0093220846	-1.1637582344	-0.204571045	-0.302906
C	-0.0245508669	-0.0088067854	-0.1689651271	 0.255674
C	-0.0158731812	 1.4504833106	-0.1151163216	-0.333164
C	 1.3953627243	 2.0205400539	 0.1815972531	-0.316897
C	 1.4008299898	 3.5079013964	 0.2219418548	 0.369411
C	 1.6651579322	 4.4213812989	 1.1950324874	-0.277439
C	 1.4906296611	 5.7148678447	 0.6007242605	-0.166024
C	 1.1298523205	 5.4889260481	-0.6873183222	-0.01851
O	 1.0695978988	 4.1518840084	-0.9369677678	-0.182711
H	-0.3776195612	 1.844311472	-1.0701507357	 0.167983
H	-0.7214141292	 1.7816586018	 0.6543232229	 0.157913
H	 1.7497620532	 1.6420441968	 1.1436178177	 0.138576
H	 2.0890180258	 1.6538952196	-0.5837328901	 0.141071
H	 1.9540965267	 4.2023995035	 2.2112498276	 0.113497
H	 1.6191518504	 6.6758854228	 1.0730533002	 0.116396
H	 0.8924431103	 6.1300683323	-1.5199509248	 0.137131
57.3278	68.0569	96.6062	189.6142	307.0997	364.5352	404.8476	507.319	614.4932	663.3017	741.7611	751.9008	767.4738	811.4926	854.7595	902.3067	946.2062	952.8012	1010.8116	1012.2726	1039.8279	1109.2812	1174.5796	1187.5265	1241.2145	1257.5496	1287.4693	1314.8221	1370.9047	1417.8146	1468.8383	1481.7188	1541.6607	1641.1008	2362.552	3043.4849	3057.8836	3092.2911	3114.0684	3252.2964	3263.7438	3288.1696
N#CCCC1=CC=CO1	N#CCCc1ccco1	
InChI=1S/C7H7NO/c8-5-1-3-7-4-2-6-9-7/h2,4,6H,1,3H2	InChI=1S/C7H7NO/c8-5-1-3-7-4-2-6-9-7/h2,4,6H,1,3H2
