20
gdb 110394	4.66002	0.98785	0.93743	1.3867	80.03	-0.2096	0.0728	0.2824	1316.9428	0.170373	-403.035151	-403.02678	-403.025836	-403.068139	32.329	
C	-0.0535946755	 1.5561020964	-0.247751141	-0.325209
N	 0.0113156193	 0.1074005362	-0.0845503446	-0.120138
C	-1.0680337497	-0.5049002563	 0.7482638596	-0.015636
C	-0.1453105676	-1.6873500943	 1.1709325674	-0.083706
C	-0.5156977383	-1.5300282337	 2.6603145406	-0.012289
C	 0.4846833641	-1.956833343	 3.7147063515	-0.107506
O	 0.077064312	-1.3840311971	 4.9511613805	-0.422234
C	-0.477927831	-0.0760128908	 2.1445342431	-0.068513
C	 0.7074044175	-0.3797824546	 1.1455553042	-0.016214
H	 0.9110279982	 1.9193548117	-0.6181106715	 0.116896
H	-0.8104836759	 1.7991955812	-1.0011126884	 0.117377
H	-0.2973549556	 2.1103522543	 0.6742053466	 0.09499
H	-2.1147853067	-0.5486807919	 0.4409795675	 0.077609
H	 0.0461751717	-2.5838984624	 0.5811152743	 0.078175
H	-1.5159703872	-1.8890312986	 2.9292085651	 0.072539
H	 0.5110716544	-3.0573283278	 3.776255947	 0.083925
H	 1.4971675482	-1.6220836684	 3.4364668688	 0.082238
H	 0.6884220371	-1.6750045556	 5.6340002051	 0.286099
H	-0.6693959841	 0.8366718268	 2.7064198416	 0.083108
H	 1.7813699089	-0.2625130418	 1.2989175824	 0.078489
77.9742	155.0005	183.6039	222.8679	255.1009	267.4034	331.4248	412.4768	530.2424	582.9577	723.4111	750.4955	814.5235	821.8248	834.4078	861.1077	895.1355	931.568	975.5998	1017.4813	1037.9851	1065.4383	1091.0144	1093.727	1113.9258	1137.3834	1141.839	1161.79	1163.6604	1179.2597	1186.6922	1208.769	1216.8863	1257.1529	1271.718	1291.9006	1325.3238	1393.5033	1446.774	1465.4914	1491.6147	1497.6962	1518.0827	2960.2983	2965.175	2986.0496	3044.7613	3059.9205	3094.6321	3094.8425	3097.9563	3118.9278	3132.5867	3827.9158
CN1C2C3C(CO)C2C13	CN1[C@H]2[C@@H]3[C@@H](CO)[C@H]2[C@H]13	
InChI=1S/C7H11NO/c1-8-6-4-3(2-9)5(6)7(4)8/h3-7,9H,2H2,1H3	InChI=1S/C7H11NO/c1-8-6-4-3(2-9)5(6)7(4)8/h3-7,9H,2H2,1H3/t3-,4-,5+,6-,7+
