20
gdb 17975	2.59367	2.2842	1.40875	0.7727	71.01	-0.2548	0.0903	0.3451	937.0511	0.179711	-386.139947	-386.132381	-386.131436	-386.171598	29.273	
C	 0.1315680413	 1.495354053	 0.3595723793	-0.176939
C	 1.5963454283	 1.9145447688	 0.139921763	-0.198939
C	 2.1532153497	 1.5763446615	-1.2466925323	-0.076785
O	 1.1588595701	 1.8280674964	-2.2407845872	-0.24034
C	 0.8283336187	 0.7059822861	-3.0142020145	-0.001725
O	 0.5220846242	-0.4342874248	-2.2646386763	-0.231454
C	-0.5936066085	-0.3243236835	-1.3840564386	-0.06256
C	-0.2332662518	 0.0268533368	 0.0670235669	-0.195239
H	-0.1141673688	 1.7123507272	 1.4056395144	 0.0897
H	-0.5130705587	 2.1425051415	-0.2453820556	 0.10617
H	 1.6636982958	 2.995977448	 0.307812813	 0.1003
H	 2.2427968866	 1.4447475435	 0.8927471948	 0.093816
H	 3.036111927	 2.1890346546	-1.4694003071	 0.09576
H	 2.4525480923	 0.5246026666	-1.2835660167	 0.113216
H	-0.0240918398	 1.0280650654	-3.6298917184	 0.096875
H	 1.663129175	 0.3965609886	-3.6598164151	 0.095486
H	-1.3179799122	 0.4032017784	-1.7796435045	 0.093752
H	-1.0711895918	-1.3106094773	-1.397400904	 0.102155
H	 0.5636901611	-0.6496451062	 0.401894195	 0.101521
H	-1.1175467185	-0.2303227246	 0.6647465039	 0.095232
129.9213	151.6609	206.576	261.7185	325.2493	369.237	405.2309	463.0974	535.8507	624.7879	739.934	762.2745	858.8269	887.9013	900.3495	973.5393	987.5965	1030.2502	1048.5686	1068.2271	1110.5316	1138.7083	1157.6331	1189.0134	1222.4552	1248.6547	1293.9377	1307.3061	1312.4341	1336.0142	1378.5128	1385.587	1389.3627	1415.256	1424.2226	1446.6545	1471.8856	1479.5136	1485.4746	1494.6738	1506.5282	1511.818	2986.748	2996.7316	3014.8275	3016.7767	3026.4164	3033.4074	3034.4247	3054.21	3058.1775	3062.2868	3075.3257	3087.7138
C1CCOCOCC1	C1CCOCOCC1	
InChI=1S/C6H12O2/c1-2-4-7-6-8-5-3-1/h1-6H2	InChI=1S/C6H12O2/c1-2-4-7-6-8-5-3-1/h1-6H2
