25
gdb 100718	2.69783	0.92344	0.81353	2.4452	89.43	-0.2375	-0.0078	0.2297	1589.3104	0.225538	-389.526905	-389.515156	-389.514212	-389.564283	42.266	
C	 0.0274081985	 1.6169381025	 0.086979907	-0.390139
C	-0.0144961786	 0.0892482527	-0.0387832736	-0.190461
C	 0.7723382912	-0.4761654471	-1.2365619543	 0.062619
C	 2.2599513777	-0.0925342065	-1.1699527177	-0.41392
C	 0.6277716423	-2.0124167164	-1.3619674886	-0.074406
C	-0.8334980771	-2.5128115792	-1.3704108537	-0.412367
C	 1.2606026802	-2.5168103473	-2.6663484135	 0.395919
C	 2.0478375429	-3.812014975	-2.586483629	-0.483253
O	 1.1106519401	-1.9253133664	-3.7117591821	-0.320136
H	 1.0317514672	 1.9879977271	 0.3101686859	 0.118636
H	-0.3067345765	 2.0975382446	-0.8395491882	 0.116174
H	-0.632036484	 1.9558888346	 0.8921889236	 0.110503
H	 0.363136511	-0.363755198	 0.8894886808	 0.087212
H	-1.0632426306	-0.2142367877	-0.1205356009	 0.097237
H	 0.3543907745	-0.0494210147	-2.1574928184	 0.0927
H	 2.724985475	-0.4797512066	-0.2543878327	 0.104761
H	 2.8118918811	-0.4899709884	-2.0263547251	 0.122852
H	 2.3968405378	 0.9916491995	-1.1768004865	 0.118217
H	 1.1465280005	-2.4893378762	-0.5187619925	 0.067279
H	-0.8816065088	-3.5863399847	-1.5827981952	 0.113594
H	-1.3182753249	-2.3512398206	-0.405455358	 0.124415
H	-1.4087558386	-1.9947127706	-2.1439122395	 0.135253
H	 1.4819901866	-4.5840648348	-2.05387767	 0.13548
H	 2.3083991069	-4.1594512135	-3.5870830099	 0.139319
H	 2.9649235357	-3.6410627473	-2.0095133581	 0.142513
44.4905	61.3304	89.415	149.373	164.6983	211.1031	216.7314	224.5358	265.4201	284.1918	298.8724	331.8393	396.1305	435.3377	489.4067	597.1276	604.2786	772.6731	787.6865	819.9739	895.1608	951.0728	963.7933	983.4184	996.7235	1002.2205	1038.1119	1060.8947	1108.3999	1150.783	1163.0207	1183.1964	1201.1133	1279.1984	1313.832	1325.0272	1360.0016	1373.4923	1379.9396	1389.9007	1405.8658	1409.8021	1415.7783	1461.9745	1474.5888	1484.3864	1496.6255	1498.8072	1498.9853	1506.7708	1508.8971	1518.4425	1806.6273	3005.6555	3008.0736	3024.51	3032.5362	3034.7295	3037.3823	3038.5519	3067.8157	3093.0714	3097.8229	3099.0666	3101.94	3109.7311	3119.222	3128.536	3149.6072
CCC(C)C(C)C(C)=O	CC[C@@H](C)[C@@H](C)C(=O)C	
InChI=1S/C8H16O/c1-5-6(2)7(3)8(4)9/h6-7H,5H2,1-4H3	InChI=1S/C8H16O/c1-5-6(2)7(3)8(4)9/h6-7H,5H2,1-4H3/t6-,7-/m1/s1
