16
gdb 15179	9.05185	0.64221	0.624	0.865	71.76	-0.2498	0.0248	0.2747	1731.7192	0.128546	-383.677681	-383.668643	-383.667699	-383.71442	30.329	
O	-0.2247957023	 1.414726828	-0.3555005809	-0.414773
C	-0.2646065599	 0.0078674852	-0.5184422117	-0.063826
C	-1.0454651585	-0.5537759068	 0.6759201812	-0.328675
C	-1.1620238152	-2.0045409756	 0.6369042606	 0.06848
C	-1.2523192956	-3.2045781315	 0.5778752607	 0.099073
C	-1.331501767	-4.6387723817	 0.5265550343	-0.117168
C	-2.622879338	-5.3514894479	 0.6003410631	-0.159201
O	-1.9348924748	-5.2329002112	-0.6371667564	-0.21608
H	 0.2493376573	 1.7922442024	-1.1018156316	 0.290413
H	-0.7680361436	-0.2822135157	-1.4523373129	 0.103421
H	 0.743998109	-0.4311317833	-0.5341673343	 0.099956
H	-0.542290904	-0.2382932106	 1.5980945381	 0.141003
H	-2.0389555094	-0.0894976323	 0.6905335427	 0.140744
H	-0.44635871	-5.1706022573	 0.8744879358	 0.11492
H	-2.6529709535	-6.3510314435	 1.0327922132	 0.118136
H	-3.5385866646	-4.769908408	 0.6875279382	 0.123576
6.3177	75.3179	80.7274	144.7953	198.2027	238.4421	321.6217	370.2506	434.0068	514.8165	569.7805	744.4517	792.284	833.4999	907.5313	989.8304	1007.7766	1081.4877	1085.9422	1087.3353	1148.9086	1160.2269	1184.8132	1221.2577	1238.0293	1282.7871	1303.7067	1332.3964	1408.6299	1454.648	1474.7771	1519.539	1527.6114	2367.3166	2986.158	3017.7265	3031.9293	3070.0896	3084.4457	3112.2352	3178.1209	3835.6131
OCCC#CC1CO1	OCCC#C[C@H]1CO1	
InChI=1S/C6H8O2/c7-4-2-1-3-6-5-8-6/h6-7H,2,4-5H2	InChI=1S/C6H8O2/c7-4-2-1-3-6-5-8-6/h6-7H,2,4-5H2/t6-/m0/s1
