18
gdb 29862	3.03504	1.36404	0.95249	6.4744	84.84	-0.207	-0.0084	0.1986	1223.3146	0.148602	-402.014459	-402.005742	-402.004798	-402.048077	31.974	
C	-0.0982963742	 1.4926180245	 0.0065505817	-0.346657
N	-0.076508285	 0.0367307144	-0.0112265544	-0.079649
C	 0.0412343436	-0.6516559696	-1.1882409902	 0.026834
C	 0.1575872388	-2.0007913323	-1.2229925183	-0.269866
C	 0.1745909268	-2.8035436732	-0.0067771215	 0.317057
O	 0.2782217213	-4.0297678224	 0.0041194898	-0.39899
C	 0.0504606393	-2.0160043294	 1.2310540913	 0.089239
C	 0.0491153011	-2.765775196	 2.5292427378	-0.470269
C	-0.0619520902	-0.6659861402	 1.1716845355	-0.048134
H	 0.8992711972	 1.9105826581	 0.1867489271	 0.146113
H	-0.4648294232	 1.8625169844	-0.9525725811	 0.146964
H	-0.7726981356	 1.8443218531	 0.7911233581	 0.147776
H	 0.0302337414	-0.0409053005	-2.0839290236	 0.125665
H	 0.2361559956	-2.5141473846	-2.1735188104	 0.109047
H	-0.7709101651	-3.4915266298	 2.5493722934	 0.142538
H	 0.9691563052	-3.3507307856	 2.6315728178	 0.142855
H	-0.0461435164	-2.0972564056	 3.3895482634	 0.102267
H	-0.1528639507	-0.0553875554	 2.0640106936	 0.117211
75.1045	109.5404	140.913	180.078	267.6182	285.6729	344.8984	433.8559	449.0473	507.4129	513.838	589.8284	715.4623	751.7847	794.0265	842.6628	893.5034	955.8365	961.0863	1012.6641	1063.4199	1097.545	1147.6451	1151.127	1176.5009	1236.1789	1289.1912	1388.5014	1411.0996	1419.2616	1463.6758	1464.6731	1479.2901	1487.826	1490.5816	1523.054	1609.3921	1688.78	1717.6431	3029.6497	3034.6665	3091.6511	3102.0922	3114.3114	3139.6758	3180.974	3190.5435	3214.9293
CN1C=CC(=O)C(C)=C1	Cn1ccc(=O)c(C)c1	
InChI=1S/C7H9NO/c1-6-5-8(2)4-3-7(6)9/h3-5H,1-2H3	InChI=1S/C7H9NO/c1-6-5-8(2)4-3-7(6)9/h3-5H,1-2H3
