15
gdb 128000	2.61281	1.64445	1.0156	4.4317	75.41	-0.2418	-0.0415	0.2003	1111.8388	0.112406	-450.093025	-450.0846	-450.083656	-450.127348	29.885	
C	-0.0570026718	 1.4219004651	-0.1843733394	-0.321572
N	-0.0267214569	-0.0299776576	-0.2510990489	-0.246661
C	-1.0339333965	-0.6795380425	 0.1315972596	 0.394068
O	-2.1513662522	-0.0159874368	 0.6079541101	-0.309767
N	-3.32078796	-0.6642828891	 1.0570409985	-0.116486
C	-3.296043104	-1.9405767073	 0.9993815385	 0.129346
N	-2.258954997	-2.7146718702	 0.5508128937	-0.376905
C	-1.0586778529	-2.1761746517	 0.0854822564	 0.309206
N	-0.0637766136	-2.8385187185	-0.3418369449	-0.477881
H	 0.8929908421	 1.8131607938	-0.55341829	 0.124599
H	-0.8718691625	 1.8373959568	-0.7907137896	 0.132394
H	-0.2121899383	 1.7761582588	 0.8426201823	 0.132387
H	-4.1861744793	-2.457163655	 1.3403241223	 0.154574
H	-2.359549291	-3.7181873703	 0.5539489417	 0.261532
H	-0.2395678558	-3.8451961954	-0.3084930201	 0.211166
30.6809	89.1071	127.622	201.9758	203.8583	361.5693	458.2944	512.4829	528.4611	538.7337	563.3013	582.6157	716.5591	760.9489	862.2511	904.4963	932.1462	958.7582	1033.677	1057.6072	1101.0164	1130.6452	1174.3767	1188.2498	1335.478	1394.0828	1433.8914	1481.2106	1483.6827	1496.5423	1720.7025	1736.872	1761.0237	3012.4096	3065.767	3118.2398	3207.4036	3449.6491	3624.0647
CN=C1ON=CNC1=N	C[N]C1=C(NC=NO1)[NH]	
InChI=1S/C4H6N4O/c1-6-4-3(5)7-2-8-9-4/h2H,1H3,(H2,5,7,8)	InChI=1S/C4H6N4O/c1-6-4-3(5)7-2-8-9-4/h2H,1H3,(H2,5,7,8)
