23
gdb 122326	4.81679	0.69221	0.62058	1.0252	89.94	-0.2236	0.0368	0.2604	1881.3129	0.205411	-388.30417	-388.294192	-388.293248	-388.340169	35.849	
C	-0.0026139834	 1.4911750692	 0.1460594226	-0.386219
C	-0.0099062243	-0.0263725627	 0.0744858169	-0.020709
O	-1.349945067	-0.4675989141	 0.0180574195	-0.239241
C	-1.4733439509	-1.8676366304	-0.0509423908	-0.160424
C	-2.9107162966	-2.2704194759	-0.0951711363	 0.301478
C	-3.9757448171	-1.4691966658	-0.0708882821	-0.149607
C	-5.2718919642	-2.2349135974	-0.1834654297	-0.246785
C	-4.8328428188	-3.7049279561	 0.044849161	-0.204368
C	-3.3078919583	-3.7261814879	-0.2315091797	-0.300268
H	 1.024085454	 1.8665578146	 0.1912417536	 0.113552
H	-0.4908325032	 1.9185868119	-0.7343591151	 0.126777
H	-0.5382629321	 1.8352774884	 1.0353600593	 0.126843
H	 0.5435727188	-0.3746531717	-0.8146838689	 0.084087
H	 0.4965083425	-0.4579723419	 0.9551130143	 0.084214
H	-0.9473124257	-2.2603242453	-0.9428713376	 0.088706
H	-0.9778461544	-2.3431935245	 0.8175731414	 0.089153
H	-3.9231307226	-0.3890732394	-0.0180975606	 0.097964
H	-6.0272178302	-1.9084013189	 0.5408281465	 0.098441
H	-5.7225574611	-2.0921832262	-1.1765876099	 0.101446
H	-5.0147012714	-3.9792496413	 1.0887275358	 0.103593
H	-5.3844298952	-4.4161611545	-0.5752417073	 0.094455
H	-3.0788067102	-4.0932841911	-1.2429949054	 0.100933
H	-2.7662498486	-4.384537049	 0.4590876425	 0.095978
53.5288	68.3437	100.509	121.4979	149.2415	230.2667	250.5894	269.9036	329.376	442.4582	485.0521	630.4339	698.4017	807.7274	821.5103	850.9948	885.5284	900.2182	909.3852	926.4764	966.0746	1021.2762	1036.9793	1044.5461	1082.2088	1134.6509	1151.6985	1156.8096	1178.0959	1189.8273	1228.3433	1240.1064	1261.3971	1271.3643	1296.0545	1317.2031	1329.6332	1349.1418	1391.1347	1409.2962	1454.8717	1483.577	1484.2897	1489.2341	1498.3064	1503.3858	1507.9813	1534.6259	1728.1643	2913.6229	2922.6139	2950.4737	2972.4221	2996.8737	2999.391	3034.8468	3044.152	3044.3735	3059.1852	3099.3836	3118.7203	3121.0126	3216.3426
CCOCC1=CCCC1	CCOCC1=CCCC1	
InChI=1S/C8H14O/c1-2-9-7-8-5-3-4-6-8/h5H,2-4,6-7H2,1H3	InChI=1S/C8H14O/c1-2-9-7-8-5-3-4-6-8/h5H,2-4,6-7H2,1H3
