17
gdb 112379	2.78914	1.32185	1.02841	3.174	70.65	-0.2439	-0.0148	0.2291	1173.5342	0.136715	-455.186614	-455.17818	-455.177236	-455.220215	30.879	
C	-0.2710689509	 1.3262984399	 0.0599754736	-0.323259
N	 0.0756974941	-0.0915852598	-0.022073757	-0.296668
C	 0.8402240936	-0.4570920538	-1.213721069	-0.059145
C	 1.3038584602	-1.9123750613	-1.1068158662	-0.393691
C	 0.1870524229	-2.7038851826	-1.7669918324	 0.443054
O	-0.0628075463	-3.8653690039	-1.7100532518	-0.307303
O	-0.5524950439	-1.8353819167	-2.5538968215	-0.217491
C	-0.1181722478	-0.5305608431	-2.3960592967	 0.441877
N	-0.4917616802	 0.4300877648	-3.1147869241	-0.514178
H	 0.6054658301	 1.9960908243	 0.0350722319	 0.100006
H	-0.9165257075	 1.5954815413	-0.7787191635	 0.157661
H	-0.8191055086	 1.5037875558	 0.9891235096	 0.121908
H	 0.612764089	-0.355893933	 0.796900265	 0.223273
H	 1.6557461329	 0.2445051947	-1.4455886279	 0.091706
H	 2.2222457791	-2.0867942678	-1.6774307495	 0.152293
H	 1.4702615218	-2.2628719891	-0.0870372166	 0.142712
H	-1.1624226185	 0.1226413903	-3.8219028841	 0.237246
60.0125	124.034	144.0459	190.3818	247.613	313.4796	379.4278	389.651	548.1166	553.4219	628.7671	692.2976	717.2764	757.005	826.0764	888.2701	923.1337	935.1802	1020.9111	1024.2226	1076.2351	1123.9029	1145.0624	1151.6891	1160.5667	1214.4684	1275.8648	1321.3522	1333.9711	1360.8104	1450.3789	1459.065	1484.5579	1497.3536	1522.4515	1789.0221	1923.3667	2962.4153	2986.8524	3066.386	3086.0077	3128.9142	3134.9319	3471.5596	3520.4535
CNC1CC(=O)OC1=N	CN[C@H]1CC(=O)O[C]1[NH]	
InChI=1S/C5H8N2O2/c1-7-3-2-4(8)9-5(3)6/h3,6-7H,2H2,1H3	InChI=1S/C5H8N2O2/c1-7-3-2-4(8)9-5(3)6/h3,6-7H,2H2,1H3/t3-/m0/s1
