22
gdb 116067	2.46993	1.2062	0.85641	4.0124	83.61	-0.233	0.0338	0.2669	1401.2899	0.196148	-404.412437	-404.403258	-404.402314	-404.446708	34.801	
C	-0.0767174315	 1.5602230998	-0.0603401647	-0.40315
C	-0.0368318423	 0.0306709001	 0.0177031222	-0.176774
C	 0.7324808462	-0.5285578048	 1.2239061939	 0.067102
C	 0.6116228367	-2.0514582237	 1.3210692637	-0.200436
C	 1.5506880715	-2.6060835912	 2.3937558899	-0.231024
C	 3.0033092573	-2.2821758138	 2.0314194665	-0.295832
C	 3.2350969888	-0.8320751318	 1.6211384348	 0.38806
O	 4.338792432	-0.3184384478	 1.654055098	-0.379194
N	 2.1424324968	-0.1449373307	 1.1600377362	-0.314844
H	 0.9170154267	 1.9940758769	-0.2162149323	 0.120747
H	-0.6995873863	 1.8889213848	-0.8973717661	 0.122989
H	-0.4931983274	 1.9951034741	 0.8550387354	 0.12011
H	-1.0634290382	-0.3515193994	 0.0753245934	 0.100239
H	 0.4035215319	-0.3803288553	-0.8990365482	 0.105085
H	 0.2835106874	-0.0968057441	 2.1357925059	 0.076374
H	-0.4305987664	-2.3066251113	 1.5382807608	 0.10026
H	 0.8583333274	-2.4976099862	 0.3483790165	 0.101511
H	 1.2989971612	-2.1600396069	 3.364751076	 0.104128
H	 1.4194389932	-3.6874864612	 2.5032828951	 0.10051
H	 3.6962272897	-2.4960401818	 2.8485949205	 0.127115
H	 3.3252939144	-2.9008917113	 1.1834360222	 0.127094
H	 2.3532907506	 0.8206896557	 0.9503545003	 0.23993
77.6875	93.4993	109.488	194.8245	232.1166	279.2279	362.1773	424.9212	438.9952	465.5768	516.0609	543.1814	629.0371	671.6713	753.4796	803.5661	868.3114	887.3664	905.378	952.8402	984.2129	1031.1832	1055.7043	1070.7199	1092.8454	1125.5875	1178.5161	1180.0861	1222.6121	1275.0736	1294.6274	1318.6229	1327.9807	1358.1904	1376.2556	1378.6502	1387.9722	1410.8571	1416.2292	1458.7432	1475.7725	1476.7389	1487.7667	1499.8278	1501.0361	1511.1001	1784.6317	2939.6637	3019.469	3024.7787	3028.2634	3032.1386	3034.2954	3063.0478	3074.1067	3080.4609	3098.1206	3106.3296	3106.872	3600.3315
CCC1CCCC(=O)N1	CC[C@H]1CCCC(=O)N1	
InChI=1S/C7H13NO/c1-2-6-4-3-5-7(9)8-6/h6H,2-5H2,1H3,(H,8,9)	InChI=1S/C7H13NO/c1-2-6-4-3-5-7(9)8-6/h6H,2-5H2,1H3,(H,8,9)/t6-/m0/s1
