17
gdb 102349	1.69548	1.57022	1.15363	5.4921	74.62	-0.268	0.0095	0.2776	1160.2302	0.134908	-417.965303	-417.955486	-417.954542	-417.999818	35.71	
N	-0.0056845714	 1.3613924242	 0.3558512027	-0.533309
C	-0.0064188723	-0.0605885003	 0.007815958	-0.190627
C	-1.4703589596	-0.6003370255	-0.0174732967	-0.118687
C	-2.2471077146	-0.1233886696	 1.2763020256	-0.078046
O	-1.4419457355	-0.1365130039	 2.4194463805	-0.412836
C	-2.1797666961	-0.1078606662	-1.2009540899	 0.336792
C	-2.7609869287	 0.3575545923	-2.1438735656	-0.456761
C	-1.4058166705	-2.0709762091	-0.0527044311	 0.284145
N	-1.3411600962	-3.2242908512	-0.0644362765	-0.339575
H	 0.9496461489	 1.7001998742	 0.4064843247	 0.245682
H	-0.4665747988	 1.8968917239	-0.3752499887	 0.244788
H	 0.4639583518	-0.2998777162	-0.955359713	 0.11959
H	 0.5280699338	-0.6043128712	 0.7901291888	 0.141867
H	-2.6417238309	 0.875159163	 1.0582466945	 0.110629
H	-3.0896674422	-0.7974475681	 1.4466475928	 0.138096
H	-0.8414981569	 0.615878409	 2.3119636478	 0.29719
H	-3.2823932009	 0.7421893646	-2.986044524	 0.211062
92.4251	117.4198	130.9641	149.8352	173.9667	238.9547	276.3928	315.7066	377.8963	449.9935	484.1704	511.6047	575.2745	580.0328	646.8429	649.6169	672.5429	719.3961	860.0838	899.951	938.4651	1046.2943	1080.3352	1086.9504	1112.6726	1125.7415	1233.3583	1271.1634	1325.2859	1400.1648	1423.4909	1439.6601	1493.022	1508.3432	1651.5068	2236.5539	2360.3587	3013.4728	3039.4999	3105.3886	3113.3644	3493.2674	3497.2824	3573.9392	3725.2015
NCC(CO)(C#C)C#N	NC[C@@](CO)(C#C)C#N	
InChI=1S/C6H8N2O/c1-2-6(3-7,4-8)5-9/h1,9H,3,5,7H2	InChI=1S/C6H8N2O/c1-2-6(3-7,4-8)5-9/h1,9H,3,5,7H2/t6-/m0/s1
