23
gdb 120748	3.22355	0.74918	0.68736	2.5049	83.71	-0.2539	0.0814	0.3354	1779.7972	0.202464	-425.400023	-425.389007	-425.388063	-425.437191	38.819	
C	-0.8092239672	 1.3920391765	 0.4165175251	-0.224925
O	-0.4736961605	 0.0293405783	 0.3166817483	-0.232883
C	 0.0709034756	-0.4889506461	 1.5106620585	-0.086409
C	 0.384866929	-1.9440383341	 1.2826785901	 0.040849
O	 1.6927471264	-2.2791867175	 0.8050627736	-0.266687
C	 1.3137914266	-2.7316711959	 2.10799651	 0.073142
C	 2.0997152384	-2.2119102901	 3.2963157668	-0.003636
C	 1.3430409009	-2.5031523733	 4.6004839739	-0.39282
C	 3.503161086	-2.8354963197	 3.3016847131	-0.389718
H	 0.0716835001	 2.0160651015	 0.6358141717	 0.105635
H	-1.2265191062	 1.6970046305	-0.5460306094	 0.129693
H	-1.5598034639	 1.5723059538	 1.2032828979	 0.101548
H	 0.9809114619	 0.0597755534	 1.7948726851	 0.098469
H	-0.655446003	-0.3884542679	 2.3378689759	 0.086604
H	-0.4221324049	-2.4753537237	 0.7751561506	 0.096424
H	 1.1237674274	-3.8086923022	 2.1543696633	 0.082477
H	 2.2117324573	-1.127273036	 3.1896732077	 0.077368
H	 1.9018641097	-2.1321923732	 5.4652460503	 0.117027
H	 0.3552203398	-2.0309369299	 4.6086973284	 0.115127
H	 1.1986100201	-3.5811282189	 4.7385759347	 0.116773
H	 4.0247477679	-2.6210818696	 2.3648074781	 0.133224
H	 4.1030918758	-2.4435254364	 4.1291302458	 0.110434
H	 3.4471737432	-3.9245117197	 3.4165631906	 0.112285
41.7517	69.3153	86.903	106.2534	183.1588	217.3891	224.8469	241.5737	258.9002	323.8067	344.5264	390.8684	465.1222	504.3084	577.726	792.5508	826.929	894.5861	925.886	943.671	970.8771	987.7545	999.7189	1067.4566	1112.2081	1131.8173	1158.1967	1176.8316	1183.5976	1189.3756	1209.4784	1228.6205	1266.7371	1302.2626	1318.331	1342.616	1373.2715	1395.9387	1415.2202	1430.6688	1475.6781	1484.2384	1487.3062	1490.2931	1494.5546	1497.894	1504.6093	1514.9744	1522.615	2939.1959	2967.4439	3007.1244	3011.0457	3026.8682	3030.744	3044.3373	3060.1043	3092.2314	3099.2166	3102.1066	3104.9014	3116.1639	3116.5456
COCC1OC1C(C)C	COC[C@H]1O[C@H]1C(C)C	
InChI=1S/C7H14O2/c1-5(2)7-6(9-7)4-8-3/h5-7H,4H2,1-3H3	InChI=1S/C7H14O2/c1-5(2)7-6(9-7)4-8-3/h5-7H,4H2,1-3H3/t6-,7+/m1/s1
