25
gdb 60409	4.11428	0.63149	0.57586	1.9693	89.34	-0.2412	0.0757	0.3168	2008.5162	0.227789	-389.479692	-389.468944	-389.468	-389.517081	38.554	
C	-0.0240452309	 1.5126006362	-0.149943652	-0.388927
C	 0.0352852368	-0.0104074754	 0.0303828438	 0.042098
C	 0.8600861952	-0.3734795227	 1.2735527192	-0.381155
C	-1.3850135004	-0.6035246191	 0.0718722007	-0.16636
C	-1.4547612775	-2.1361405544	 0.0599595103	-0.221797
C	-2.8828013112	-2.6631864288	-0.0192265219	-0.018091
C	-3.6223058925	-2.5454641819	-1.3735182709	-0.074784
O	-3.8017797144	-3.9735572348	-1.4557004567	-0.272468
C	-3.0739193632	-4.1827720666	-0.2287721825	-0.091362
H	 0.9801019659	 1.9434091993	-0.2216642166	 0.109349
H	-0.5730911097	 1.787237961	-1.0568886031	 0.109081
H	-0.5278714176	 1.9882366624	 0.7002748939	 0.110994
H	 0.5452646066	-0.4327331024	-0.8480838507	 0.070965
H	 0.379847437	 0.0055578415	 2.1842022435	 0.109963
H	 0.9828481214	-1.4545253677	 1.3865390435	 0.113766
H	 1.8611196005	 0.0672874165	 1.2208716677	 0.110628
H	-1.9061049318	-0.2232541877	 0.9627888541	 0.08972
H	-1.9459163617	-0.2192603068	-0.791279064	 0.092324
H	-0.8821341678	-2.5237852493	-0.7947264583	 0.096193
H	-0.9774610696	-2.5443931955	 0.9596392345	 0.099263
H	-3.4729589791	-2.2751519876	 0.8165589174	 0.076406
H	-4.5806372349	-2.0119893963	-1.36597898	 0.098943
H	-3.0110203768	-2.1607700156	-2.2023952548	 0.093462
H	-2.1446631632	-4.7461356874	-0.3932265207	 0.094121
H	-3.6771464511	-4.7081174667	 0.5219512138	 0.097668
36.4311	54.9071	70.9887	120.0753	137.7471	223.5782	245.5653	245.9483	295.2885	385.3429	405.6593	433.3603	470.5437	741.4351	784.0906	827.6845	877.1022	892.8059	918.8588	926.7221	947.8786	966.2122	981.847	1026.561	1038.719	1045.4092	1072.8695	1117.7849	1149.4382	1156.8509	1164.8817	1193.1177	1205.647	1242.2697	1261.2161	1296.895	1310.4979	1324.42	1342.3073	1368.2008	1373.5836	1395.1114	1401.2104	1403.1703	1422.7617	1475.9531	1488.0929	1492.9505	1498.2581	1505.4276	1509.9706	1512.5331	1537.9179	2991.8709	2992.2465	2997.8741	3003.3362	3010.6543	3021.9036	3027.2792	3029.7613	3038.824	3043.9984	3053.6171	3071.1214	3086.2046	3092.3196	3097.8064	3104.6953
CC(C)CCC1COC1	CC(C)CCC1COC1	
InChI=1S/C8H16O/c1-7(2)3-4-8-5-9-6-8/h7-8H,3-6H2,1-2H3	InChI=1S/C8H16O/c1-7(2)3-4-8-5-9-6-8/h7-8H,3-6H2,1-2H3
