23
gdb 121742	6.10846	0.53289	0.49918	1.8012	84.34	-0.2641	0.0219	0.286	2307.7506	0.203033	-425.4809	-425.469456	-425.468511	-425.51975	39.052	
C	 0.1577158293	 1.4217641066	 0.0075976701	-0.383508
C	-0.015900262	-0.0996358782	 0.0007537718	-0.189185
C	-1.481120713	-0.5031182209	 0.0128027506	-0.043249
O	-1.5435705991	-1.9414355717	 0.0052056948	-0.25039
C	-2.7810091485	-2.4784485861	 0.0151747124	 0.440198
O	-3.7930265496	-1.8225292163	 0.0296512027	-0.356646
C	-2.7103980247	-3.9923137771	 0.0064956909	-0.310183
C	-4.0863299145	-4.6585334591	 0.0146689975	-0.15475
C	-3.9965046504	-6.1862791165	 0.0063411707	-0.386247
H	 1.2167787108	 1.6940722252	-0.0011554122	 0.119712
H	-0.3113213936	 1.8812191431	-0.8692301144	 0.120469
H	-0.294159211	 1.8713095254	 0.8984634215	 0.120471
H	 0.4639809507	-0.5314423004	-0.885092693	 0.108144
H	 0.4811469422	-0.5413126807	 0.8721496007	 0.10814
H	-1.9992919024	-0.1266731862	 0.9018022839	 0.117611
H	-2.0165112871	-0.1166438893	-0.8615800448	 0.117577
H	-2.1267678719	-4.2961257303	-0.8718573792	 0.127277
H	-2.1122163808	-4.3052497627	 0.8717999178	 0.127333
H	-4.6431259312	-4.3171346027	 0.893817825	 0.11261
H	-4.6577058714	-4.3085466336	-0.8516751738	 0.112506
H	-4.9921884891	-6.639784934	 0.0123396488	 0.115498
H	-3.4704659321	-6.5505958981	-0.8833718386	 0.113306
H	-3.4558314405	-6.5593520565	 0.8835668269	 0.113307
27.797	48.353	62.9139	86.3407	101.5806	191.0187	193.1314	239.0839	242.4635	293.4589	329.323	358.5517	500.8746	585.3071	712.8312	748.584	759.3723	884.1769	891.1815	891.9977	920.8712	943.0212	1019.4354	1051.4815	1056.0817	1122.2571	1129.6088	1148.6081	1189.5879	1205.285	1249.0141	1269.9041	1312.1001	1321.4897	1324.3122	1337.8524	1397.2203	1414.3347	1415.2577	1425.9013	1458.7501	1488.7803	1491.1569	1500.3006	1501.4277	1505.1305	1509.2473	1520.5006	1815.0196	3028.1696	3031.4433	3034.1167	3034.5262	3043.2558	3050.2978	3057.3229	3063.1115	3077.816	3086.0014	3101.4033	3104.8221	3104.925	3111.727
CCCOC(=O)CCC	CCCOC(=O)CCC	
InChI=1S/C7H14O2/c1-3-5-7(8)9-6-4-2/h3-6H2,1-2H3	InChI=1S/C7H14O2/c1-3-5-7(8)9-6-4-2/h3-6H2,1-2H3
