19
gdb 92162	2.28755	2.04389	1.53813	2.4062	73.21	-0.2322	0.0772	0.3095	950.6601	0.160285	-422.995395	-422.987881	-422.986937	-423.02687	30.758	
C	-0.0041466673	 1.4670960471	-0.0035377371	-0.507114
C	 0.0014589774	-0.0385858798	 0.0580657797	 0.29596
C	-0.2992261265	-0.8131412128	-1.2128740759	 0.047902
O	 0.0908265111	-2.1852704517	-1.0751104497	-0.328229
C	-0.7011450313	-2.2538555392	 0.172279248	 0.077233
C	 0.2629593016	-2.103108667	 1.3375021346	-0.250491
C	 0.9809507952	-0.7637235727	 1.0010098752	 0.071234
O	 2.2591074466	-0.9477830663	 0.4154296263	-0.445845
C	-1.280879584	-0.84596488	-0.0867228472	-0.197885
H	 0.9958357922	 1.8405606827	-0.2481043598	 0.136906
H	-0.6972108066	 1.8378792021	-0.7665169432	 0.115217
H	-0.3027127378	 1.9057912337	 0.9555192387	 0.119465
H	-0.3270508139	-0.3892271556	-2.2103510475	 0.104253
H	-1.365452414	-3.118942189	 0.1664663498	 0.084756
H	-0.2969592983	-2.0344651011	 2.2775314296	 0.101312
H	 0.9814986591	-2.9230880769	 1.4187695043	 0.112366
H	 1.1584042417	-0.1675667969	 1.901143536	 0.079667
H	 2.1094192084	-1.5127663139	-0.3539398029	 0.285958
H	-2.2987301236	-0.4948372426	 0.0140013711	 0.097335
138.4552	214.8935	236.4815	270.1864	325.1403	411.4272	459.2492	522.8653	559.3706	575.3326	690.1393	750.1647	810.8223	837.5291	839.8377	894.2237	895.4862	904.6756	954.7787	982.7146	1008.9857	1021.331	1044.6187	1066.7424	1091.6768	1113.5674	1158.6845	1172.5573	1219.3331	1237.8149	1269.9416	1273.0526	1314.9002	1329.9436	1337.641	1415.0429	1416.0182	1448.5031	1470.0007	1490.2939	1501.9484	3024.7146	3040.3405	3066.5168	3087.2334	3098.1402	3104.2459	3108.7205	3176.7429	3205.9506	3768.1222
CC12C3OC(CC1O)C23	C[C@@]12[C@H]3O[C@@H](C[C@H]1O)[C@@H]23	
InChI=1S/C7H10O2/c1-7-4(8)2-3-5(7)6(7)9-3/h3-6,8H,2H2,1H3	InChI=1S/C7H10O2/c1-7-4(8)2-3-5(7)6(7)9-3/h3-6,8H,2H2,1H3/t3-,4+,5+,6-,7+/m0/s1
