23
gdb 119268	2.87165	0.87797	0.74132	1.5472	83.89	-0.2473	0.0872	0.3345	1650.1597	0.202748	-425.393602	-425.38277	-425.381826	-425.430298	38.631	
C	-0.2031009196	 0.9556237265	 3.6548139123	-0.382681
C	-0.2364842871	-0.4131188393	 2.9954347456	-0.052431
O	 0.4907887315	-0.3285062839	 1.7757517587	-0.296846
C	 0.7127160326	-1.5430613509	 1.1150691334	 0.405216
C	-0.5115773689	-2.0458270119	 0.3701177947	-0.124019
O	-0.1901819243	-3.2307729044	-0.322841082	-0.232054
C	-1.2760687122	-3.7567835694	-1.0465549726	-0.223677
C	 2.0668280021	-1.6847617675	 0.4945511743	-0.309135
C	 1.6982459927	-2.5134667776	 1.7118180008	-0.319985
H	-0.6518403396	 1.7083479847	 3.0003239903	 0.126267
H	-0.7594742194	 0.938663364	 4.5968926106	 0.112992
H	 0.8276722207	 1.2560355245	 3.8633456006	 0.124804
H	 0.2141219963	-1.1728919283	 3.6507621658	 0.091322
H	-1.2773598347	-0.7188637196	 2.8107381503	 0.089101
H	-1.3401039414	-2.2335347676	 1.0746996837	 0.083729
H	-0.8494485553	-1.2615193404	-0.3285881471	 0.094585
H	-1.6391458071	-3.0496819371	-1.8088758754	 0.106628
H	-0.9285944742	-4.6655274225	-1.5438949541	 0.127935
H	-2.1206329389	-4.0122078199	-0.3870658327	 0.104673
H	 2.1334232428	-2.1907897417	-0.4606883507	 0.123078
H	 2.7499522845	-0.8562559022	 0.6409116473	 0.115611
H	 2.1533194653	-2.2407928121	 2.6575068002	 0.110287
H	 1.5188339641	-3.5721218036	 1.567820696	 0.124601
51.1002	79.3436	93.2012	105.2217	172.0268	198.9034	237.1157	246.5079	321.8417	327.3517	328.6588	416.7916	470.0172	559.0391	730.8109	779.1066	819.3361	859.7747	872.6524	960.3709	971.3341	1005.0508	1010.6661	1052.0649	1077.2621	1090.9153	1109.3801	1148.7888	1164.4125	1187.1712	1189.2653	1195.3266	1225.5021	1265.1301	1268.5407	1297.7947	1346.8334	1399.6353	1424.025	1426.2287	1439.124	1478.6429	1482.8996	1485.9585	1493.5048	1500.07	1505.1842	1527.3454	1529.9783	2947.3376	2972.349	2975.7011	2986.0641	3015.0148	3016.2679	3043.9484	3114.8835	3118.1786	3121.1142	3139.5055	3146.088	3228.6227	3243.5855
CCOC1(COC)CC1	CCOC1(COC)CC1	
InChI=1S/C7H14O2/c1-3-9-7(4-5-7)6-8-2/h3-6H2,1-2H3	InChI=1S/C7H14O2/c1-3-9-7(4-5-7)6-8-2/h3-6H2,1-2H3
