21
gdb 104160	3.08579	1.05208	1.01403	2.3087	74.47	-0.2424	0.0602	0.3027	1301.0628	0.181698	-461.368488	-461.358913	-461.357969	-461.402928	36.266	
C	 0.3745247312	 1.5683017161	-0.0733284564	-0.409608
C	 0.159353005	 0.0728660106	 0.0685666001	 0.163337
C	 0.3830858011	-0.7613286373	-1.213362335	-0.318837
C	 1.1000843437	-2.042467567	-0.7291005019	 0.419929
O	 0.377926694	-3.1961143529	-1.1254732458	-0.489282
C	 2.5236341676	-2.1256652739	-1.278877454	-0.141926
O	 3.0597820748	-3.3697053601	-0.8337254916	-0.437842
C	 1.112238075	-1.846401072	 0.8100875682	-0.146753
O	 1.1010222582	-0.4460866536	 1.0104098543	-0.262027
H	 1.3822888347	 1.7744485603	-0.4481002268	 0.11749
H	-0.351252543	 1.9958868438	-0.7720130681	 0.116332
H	 0.2580705849	 2.0667633921	 0.8930443605	 0.125659
H	-0.8587842047	-0.1185462361	 0.4478754466	 0.067623
H	-0.5502255478	-1.0324914835	-1.7102724525	 0.119927
H	 0.9990893362	-0.2088082344	-1.9314182273	 0.094821
H	 0.9938295365	-3.934703452	-1.0320724449	 0.285226
H	 2.4926426688	-2.0815584721	-2.3770092482	 0.094989
H	 3.1124623246	-1.2746907472	-0.9069028413	 0.103347
H	 3.8847424483	-3.5375892086	-1.2967870302	 0.295995
H	 0.2100703852	-2.3239132781	 1.2236829664	 0.089484
H	 1.9963420756	-2.2625242141	 1.2978518479	 0.112116
42.6964	136.5775	179.5884	229.8067	238.2306	247.6489	276.8379	351.0744	363.5221	419.3844	455.1295	470.2149	501.5636	634.0852	655.245	795.9735	840.1608	889.2914	912.7265	943.0938	974.3163	1036.1869	1057.4991	1067.3882	1106.2504	1115.3923	1148.6479	1166.0059	1180.4171	1225.2639	1244.0202	1260.4764	1295.8492	1306.0298	1349.232	1370.1769	1392.4445	1414.0781	1417.588	1442.9707	1484.0282	1485.376	1497.2247	1509.0851	1512.9575	2954.6883	2984.6542	2989.0493	3033.9147	3038.304	3045.0697	3109.3659	3111.2299	3116.9826	3119.0766	3766.7821	3845.4272
CC1CC(O)(CO)CO1	C[C@H]1C[C@@](O)(CO)CO1	
InChI=1S/C6H12O3/c1-5-2-6(8,3-7)4-9-5/h5,7-8H,2-4H2,1H3	InChI=1S/C6H12O3/c1-5-2-6(8,3-7)4-9-5/h5,7-8H,2-4H2,1H3/t5-,6+/m0/s1
