17
gdb 30572	6.6291	0.66074	0.60535	3.726	90.91	-0.2075	-0.0021	0.2054	1814.6499	0.13749	-380.894799	-380.88605	-380.885106	-380.93	31.124	
C	-0.0562180392	 1.5290597268	 0.083336916	-0.364933
C	 0.0088591971	-0.0069743387	-0.009569246	-0.329443
C	 0.6926477332	-0.4714253442	-1.2103523769	 0.204657
C	 1.2634718541	-0.829598968	-2.2131794728	-0.086061
C	 1.9275563495	-1.2516086206	-3.3797829203	 0.17269
C	 2.515874959	-0.567759236	-4.4268379276	-0.198366
N	 3.0434758383	-1.4333608515	-5.3467160745	-0.241749
C	 2.7877890917	-2.636774642	-4.8803072316	 0.003941
N	 2.1179395224	-2.5887516291	-3.6987340959	-0.317411
H	 0.948252279	 1.9601207994	 0.0982750644	 0.132046
H	-0.5909199197	 1.9476351889	-0.7733352774	 0.132045
H	-0.576080869	 1.8311849742	 0.9970334148	 0.117084
H	 0.5164902888	-0.4057905484	 0.8787190667	 0.13063
H	-1.0090409274	-0.418171221	 0.0147738349	 0.130628
H	 2.5777888382	 0.5023672461	-4.5497960178	 0.113189
H	 3.0609129551	-3.5697101053	-5.3504180705	 0.131408
H	 1.8073040089	-3.3663685707	-3.1404744253	 0.269644
23.4547	72.2824	101.9664	184.3253	214.7846	304.1208	418.4984	462.2631	500.1609	537.5411	568.5765	675.2168	685.18	788.4548	811.2526	857.8697	879.0741	933.8897	996.3349	1054.7326	1088.7395	1103.7444	1120.69	1158.1126	1254.8693	1283.2686	1302.1224	1343.6482	1366.1499	1410.3582	1419.9928	1476.6363	1486.0261	1494.9511	1506.0306	1595.0662	2346.811	3013.9712	3039.9669	3046.9136	3121.0905	3126.5239	3251.3945	3258.3083	3665.6517
CCC#CC1=CN=CN1	CCC#Cc1cnc[nH]1	
InChI=1S/C7H8N2/c1-2-3-4-7-5-8-6-9-7/h5-6H,2H2,1H3,(H,8,9)	InChI=1S/C7H8N2/c1-2-3-4-7-5-8-6-9-7/h5-6H,2H2,1H3,(H,8,9)
