21
gdb 104122	3.50712	1.02619	0.98619	4.5735	77.83	-0.2612	0.0167	0.2779	1309.7907	0.182212	-424.286116	-424.276862	-424.275918	-424.320036	34.965	
C	-0.0371129769	 1.6037971574	 0.083922807	-0.399638
C	-0.0514683404	 0.0748478706	-0.035106098	-0.232217
C	 0.6992181731	-0.5022361683	-1.2491844419	 0.279791
C	 0.0813363633	-0.0450556986	-2.5825096884	-0.440145
C	 2.2097244744	-0.1603622253	-1.2218932615	-0.106178
O	 2.8862489738	-1.2458269379	-1.8745594011	-0.220874
C	 2.1131336911	-2.3684118591	-1.8696487845	 0.426001
O	 2.493809178	-3.4086471875	-2.3202816232	-0.336027
C	 0.7762640201	-2.0407412005	-1.2160079965	-0.404897
H	 0.9839642628	 1.9977959163	 0.130114227	 0.121094
H	-0.5425187203	 2.0857669992	-0.7579069966	 0.124635
H	-0.5499754541	 1.9198317091	 0.9970948039	 0.121829
H	 0.3843963907	-0.3569676391	 0.8753100826	 0.096647
H	-1.0907643409	-0.2758561154	-0.0686409769	 0.102782
H	 0.1185587769	 1.0423234819	-2.6933564632	 0.121118
H	 0.6171377554	-0.4807860517	-3.4321578804	 0.13256
H	-0.9662509202	-0.3564382068	-2.6516603308	 0.119242
H	 2.4608449852	 0.7556398324	-1.7613090048	 0.121357
H	 2.5877277203	-0.0786167512	-0.1947339931	 0.108046
H	 0.8015213058	-2.4238791559	-0.1884345402	 0.130112
H	-0.0360003081	-2.5504443299	-1.7372862395	 0.13476
79.9105	101.6299	169.5716	199.0364	235.0125	279.183	328.4072	341.6585	376.0864	400.8168	529.5149	547.1664	604.1264	691.4647	784.3142	793.2137	848.1384	912.7304	924.9878	955.4107	969.7446	1017.4944	1039.0764	1062.8073	1084.4515	1140.1204	1164.1964	1199.765	1215.6247	1238.9076	1276.81	1304.7052	1344.177	1371.681	1395.2335	1411.5113	1420.539	1459.6113	1482.8627	1496.967	1499.0871	1505.4793	1512.7654	1520.7608	1885.1647	3015.7457	3023.8714	3034.5803	3039.1753	3043.8855	3050.7816	3101.0478	3102.7768	3105.5025	3107.9976	3116.0092	3118.7288
CCC1(C)COC(=O)C1	CC[C@@]1(C)COC(=O)C1	
InChI=1S/C7H12O2/c1-3-7(2)4-6(8)9-5-7/h3-5H2,1-2H3	InChI=1S/C7H12O2/c1-3-7(2)4-6(8)9-5-7/h3-5H2,1-2H3/t7-/m1/s1
