17
gdb 127027	6.73282	0.83769	0.7556	0.9855	72.96	-0.2468	-0.0184	0.2285	1510.019	0.136139	-451.31405	-451.305135	-451.304191	-451.348632	30.71	
C	-0.1199286208	 1.4587393581	-0.0164532444	-0.392435
C	-0.0224862014	-0.0533400601	 0.0184123438	-0.041556
O	-1.3665677979	-0.5702703053	-0.0258390596	-0.256024
C	-1.4827311335	-1.8909276184	-0.003666634	 0.506548
N	-2.6743828456	-2.4829552182	-0.0401838414	-0.358085
N	-2.3097782472	-3.764539936	 0.0009198471	 0.163385
C	-3.2635238062	-4.8533549879	-0.0170872712	-0.314928
N	-1.0065379796	-3.9611363016	 0.0583203965	-0.14091
N	-0.4528577658	-2.7671948719	 0.0562447971	-0.299879
H	 0.8830607424	 1.8939283418	 0.0155570988	 0.123988
H	-0.6152251104	 1.7954097071	-0.9313063216	 0.133282
H	-0.6874798881	 1.8316092368	 0.840562331	 0.133284
H	 0.5404909296	-0.446273467	-0.8351387615	 0.12519
H	 0.468492841	-0.4102067625	 0.9302644356	 0.125193
H	-3.850432546	-4.8160638008	-0.9374101787	 0.161081
H	-2.6955826049	-5.7814422827	 0.0320206456	 0.170652
H	-3.9331100258	-4.7721520214	 0.8418290769	 0.161214
57.3016	83.1341	114.6958	145.6545	191.8669	250.9955	329.2802	348.4121	377.1874	517.3721	687.5675	706.4825	776.9975	788.0213	812.7142	935.6586	1039.2242	1054.3936	1060.3659	1129.46	1135.1724	1151.9152	1182.8053	1243.4003	1295.5655	1327.3194	1393.1213	1418.4542	1422.5427	1441.7238	1449.8276	1474.6108	1484.0906	1497.5195	1511.7692	1518.4888	1601.7435	3041.0942	3048.6612	3064.4205	3080.7934	3124.5348	3128.2545	3136.4263	3177.2632
CCOC1=NN(C)N=N1	CCOc1nn(C)nn1	
InChI=1S/C4H8N4O/c1-3-9-4-5-7-8(2)6-4/h3H2,1-2H3	InChI=1S/C4H8N4O/c1-3-9-4-5-7-8(2)6-4/h3H2,1-2H3
