19
gdb 115525	2.73794	1.08256	1.02942	3.9469	76.08	-0.2485	0.0231	0.2716	1261.5673	0.158693	-419.191901	-419.182282	-419.181338	-419.226323	35.005	
C	-0.4380151758	 1.579563491	 0.0346933345	-0.441724
C	 0.0119855773	 0.1187279868	 0.0702287752	 0.133333
N	 1.3336974779	-0.1427650404	-0.556264798	-0.334082
C	 1.6932704996	-1.1166364318	 0.505765727	-0.173952
C	 0.5792887643	-0.5146281779	 1.3960411616	-0.013076
C	 1.0830172432	 0.4737146275	 2.4342942203	-0.109417
O	 1.722581579	-0.2983730542	 3.4395111503	-0.422055
C	-1.0531567209	-0.7388025423	-0.484246211	 0.25093
N	-1.8678891952	-1.4157263203	-0.9493483601	-0.344099
H	 0.3509126121	 2.2232069236	 0.4274467673	 0.131544
H	-0.6426138944	 1.8819869983	-0.9965592601	 0.135806
H	-1.3520973733	 1.7250755497	 0.6178855517	 0.133807
H	 1.3036893535	-0.500632172	-1.505395483	 0.230809
H	 1.5047251405	-2.1650752484	 0.2458860102	 0.112184
H	 2.7171125313	-1.0162874927	 0.8759137943	 0.11726
H	-0.0814569391	-1.2348220848	 1.8793160624	 0.105281
H	 1.7843330255	 1.1832413597	 1.9703383406	 0.103038
H	 0.2420466623	 1.0525209178	 2.8475572537	 0.093355
H	 2.1143243023	 0.3029020806	 4.079565823	 0.291059
80.275	121.3441	133.0739	197.6252	207.3382	223.3198	252.054	287.9265	353.3332	412.9495	428.1617	544.4287	597.5239	639.017	723.1376	853.2643	880.7087	895.9369	944.9556	973.677	1017.945	1063.517	1077.8912	1119.5201	1145.2905	1168.3482	1178.5018	1202.4812	1223.2163	1267.8171	1275.2296	1317.1247	1362.8357	1381.5822	1408.1854	1458.6223	1482.0284	1491.4216	1519.3841	1527.4196	2338.8282	2972.9873	3009.824	3029.2108	3047.5907	3090.1813	3112.8365	3117.2228	3140.8276	3527.7678	3832.6411
CC1(NCC1CO)C#N	C[C@]1(NC[C@H]1CO)C#N	
InChI=1S/C6H10N2O/c1-6(4-7)5(3-9)2-8-6/h5,8-9H,2-3H2,1H3	InChI=1S/C6H10N2O/c1-6(4-7)5(3-9)2-8-6/h5,8-9H,2-3H2,1H3/t5-,6-/m0/s1
