18
gdb 38545	3.29935	1.64054	1.22446	1.0678	79.67	-0.2213	0.016	0.2373	1017.6149	0.149809	-401.891803	-401.884779	-401.883835	-401.922957	28.475	
C	-0.1340863235	 1.4436922814	 0.1896836697	-0.298198
N	 1.2097475336	 0.8817780893	-0.0443319742	-0.182659
C	 1.6148477029	 0.2715112206	 1.2905771797	-0.266643
C	 0.4800337755	-0.7269523317	 1.1707908417	 0.285673
C	 0.1980187263	-1.9956887624	 1.4336055266	-0.276382
C	-0.8529904361	-2.6771156429	 0.5853604555	-0.099877
O	-1.5066128889	-1.820937487	-0.3439714666	-0.256027
C	-0.6558477296	-0.9174001422	-1.0492445229	-0.219676
C	-0.0436426876	-0.015519773	-0.0109192059	 0.301496
H	-0.3751062724	 1.8583906337	 1.1672502052	 0.113084
H	-0.4928933417	 2.0297491299	-0.6526292711	 0.124432
H	 2.6121951293	-0.1702807378	 1.2328279457	 0.127869
H	 1.5875332423	 0.9936253679	 2.1138864669	 0.11377
H	 0.7350871961	-2.5989839751	 2.1594859763	 0.094468
H	-0.3843323105	-3.5264051075	 0.0549403011	 0.099728
H	-1.6576014335	-3.0957095101	 1.201570013	 0.120936
H	 0.1327150043	-1.4560935202	-1.5976990396	 0.103833
H	-1.2948719266	-0.4010768328	-1.7696314913	 0.114173
142.9826	215.605	265.9074	317.6974	376.1403	451.164	471.741	511.5782	625.4915	702.2313	754.4019	792.6262	802.7747	859.9144	872.3693	918.5232	971.4471	993.2822	1005.7007	1026.0257	1064.0796	1093.2565	1105.6301	1123.0621	1139.5775	1189.9624	1226.1971	1246.5889	1268.204	1294.3282	1337.0879	1378.2395	1387.016	1410.6628	1483.0974	1486.3874	1496.0377	1508.9464	1772.7548	2937.4274	2985.4082	3042.6599	3048.0726	3092.6903	3097.4786	3107.9606	3173.2994	3184.908
C1N2CC3=CCOCC123	C1N2C[C]3[CH]COC[C@]123	
InChI=1S/C7H9NO/c1-2-9-5-7-4-8(7)3-6(1)7/h1H,2-5H2	InChI=1S/C7H9NO/c1-2-9-5-7-4-8(7)3-6(1)7/h1H,2-5H2/t7-,8?/m0/s1
