20
gdb 11955	3.30705	1.59314	1.33359	1.031	75.47	-0.2383	0.0814	0.3198	1023.4306	0.176275	-348.981054	-348.972513	-348.971569	-349.013825	32.547	
C	 0.162175559	 1.4662731616	 0.2306985054	-0.374635
C	-0.1393807218	-0.0064188697	-0.0797575175	-0.290101
C	 0.5626648339	-0.5111409486	-1.3096489482	 0.328138
C	 2.0169330258	-0.9506406126	-1.3060961063	-0.392948
C	 0.9498770346	-1.9245206582	-1.7281113676	 0.343112
O	 0.7034864283	-3.0992591452	-1.0359189951	-0.465786
C	 0.5155245144	-1.665024917	-3.1728519587	-0.28432
C	 0.161674796	-0.1952934511	-2.7615386025	-0.279166
H	 1.2326958653	 1.6198638824	 0.4019812573	 0.116246
H	-0.136479772	 2.1155463477	-0.5993920257	 0.115965
H	-0.3751490566	 1.7998182224	 1.1240498645	 0.109366
H	 0.1461930933	-0.6318043026	 0.7748884927	 0.103286
H	-1.2227234226	-0.1378927526	-0.204313595	 0.095246
H	 2.7330637435	-0.5447826329	-2.0190904559	 0.096181
H	 2.4209274795	-1.1419522577	-0.3159805706	 0.107088
H	 1.4810998044	-3.6635833599	-1.1065286964	 0.283583
H	 1.2739355474	-1.8026066681	-3.9516830285	 0.086975
H	-0.3747165951	-2.2399817909	-3.4379084982	 0.10785
H	-0.9035755149	 0.0239249789	-2.8728350911	 0.100762
H	 0.7358331177	 0.5955859241	-3.2550340627	 0.093159
76.1646	129.6341	193.5708	224.0316	256.2094	284.6875	352.2368	378.5821	445.2278	543.2179	591.3806	698.2598	738.2676	782.3695	795.9298	867.8447	921.4527	930.9505	977.1269	984.1234	1020.9211	1035.1451	1063.9166	1090.6757	1121.3673	1180.8157	1209.9984	1226.0548	1235.2713	1243.6433	1287.2521	1326.8463	1334.5593	1366.5123	1407.4284	1418.7627	1478.8624	1481.0325	1483.9333	1497.7158	1508.2611	1522.9961	3015.1189	3031.8129	3036.1525	3046.422	3052.7716	3090.9746	3091.2998	3100.3854	3103.9806	3112.0054	3188.9465	3792.8863
CCC12CC1(O)CC2	CC[C@@]12C[C@]1(O)CC2	
InChI=1S/C7H12O/c1-2-6-3-4-7(6,8)5-6/h8H,2-5H2,1H3	InChI=1S/C7H12O/c1-2-6-3-4-7(6,8)5-6/h8H,2-5H2,1H3/t6-,7-/m1/s1
