19
gdb 68134	4.01386	1.19804	1.08893	1.1224	82.8	-0.2416	0.0426	0.2842	1162.7515	0.158574	-385.846173	-385.837952	-385.837008	-385.878361	33.098	
C	-0.1150751031	 1.5173386523	 0.0074068763	-0.49331
C	 0.0799002508	 0.0286513696	 0.0344423501	 0.415374
C	 1.0379074295	-0.7581610974	-0.899816942	-0.297994
C	 0.7224432851	-1.900565379	 0.1303772087	 0.189889
C	 0.7077905403	-0.7630652522	 1.21284961	-0.297988
C	-0.7970918007	-2.0380508505	-0.107355781	-0.117449
O	-1.1790667042	-0.6528467322	-0.1638483219	-0.307919
C	 1.5048529055	-3.1006144696	 0.2498847249	 0.060678
C	 2.1529682321	-4.1091550993	 0.349194731	-0.349696
H	 0.8373074608	 2.0329832521	 0.1579608243	 0.118674
H	-0.5334240855	 1.8305542574	-0.954050349	 0.130176
H	-0.807837845	 1.8263658938	 0.7961414157	 0.130188
H	 0.7224105028	-0.9064450845	-1.9351459225	 0.10426
H	 2.076132959	-0.4286272666	-0.8436587998	 0.108608
H	 1.7134267092	-0.4340139083	 1.4775717634	 0.108605
H	 0.0916093353	-0.9158196478	 2.1019056884	 0.10426
H	-1.0340555847	-2.544013504	-1.0498729833	 0.10729
H	-1.309929974	-2.5480722523	 0.7156671699	 0.107294
H	 2.728441267	-4.9970592714	 0.436683587	 0.17906
135.3179	140.754	206.3151	267.7547	309.145	355.4374	479.7561	484.3806	509.2833	522.9817	537.9354	617.712	630.3785	633.5606	678.3744	810.3666	868.9434	893.2689	910.7573	954.6791	979.3451	1008.811	1012.5129	1034.57	1115.8436	1129.1619	1172.818	1181.8044	1185.1964	1201.8996	1212.9005	1261.7522	1337.5085	1368.8469	1422.8251	1472.285	1481.0443	1493.8826	1505.3941	1532.2288	2236.472	3029.2411	3042.4381	3067.559	3074.5492	3074.9268	3112.4213	3120.7956	3139.8668	3146.4691	3503.4323
CC12CC(C1)(CO2)C#C	C[C@@]12C[C@@](C1)(CO2)C#C	
InChI=1S/C8H10O/c1-3-8-4-7(2,5-8)9-6-8/h1H,4-6H2,2H3	InChI=1S/C8H10O/c1-3-8-4-7(2,5-8)9-6-8/h1H,4-6H2,2H3/t7-,8+
