23
gdb 89415	2.58111	1.38878	1.06116	1.0807	84.44	-0.2493	0.0769	0.3262	1233.7758	0.2058	-388.291175	-388.28193	-388.280986	-388.324474	36.968	
C	-0.0030488018	 1.5952144898	-0.0664927661	-0.41536
C	 0.097114193	 0.0715158745	-0.014003335	 0.048556
C	 0.798275122	-0.5704195492	-1.236911206	-0.301673
C	 1.2282646803	-1.9613947713	-0.7548421499	 0.406972
O	 0.697811696	-3.084663851	-1.3977467143	-0.477953
C	 2.5547041483	-2.0584932709	-0.0541543042	-0.349768
C	 1.2650311297	-1.9248271917	 0.7473430887	-0.089171
C	 0.8067933043	-0.5437216747	 1.2396112793	-0.013076
C	 1.9278455422	 0.3129631342	 1.8441960434	-0.394957
H	 0.9852008481	 2.065088768	-0.1113596444	 0.114161
H	-0.5594373753	 1.9156673343	-0.9539237301	 0.110562
H	-0.5240104944	 1.995837027	 0.8100114518	 0.111186
H	-0.9230698335	-0.3335422986	-0.0031195664	 0.077994
H	 0.1209754941	-0.6593333703	-2.0909205191	 0.09959
H	 1.6571014748	 0.0311832217	-1.5621691076	 0.088143
H	 1.2046434334	-3.2316953195	-2.2036570209	 0.278258
H	 3.0193490141	-3.0388804348	-0.0274773103	 0.106748
H	 3.2513635321	-1.2283882707	-0.1134758342	 0.103905
H	 0.9624484161	-2.8037907724	 1.3054068916	 0.089616
H	 0.0575164412	-0.6901625647	 2.0260843368	 0.070267
H	 2.6957458489	 0.5770903269	 1.109991852	 0.111591
H	 1.5341997396	 1.2474250301	 2.255535463	 0.111219
H	 2.4241975268	-0.2271297268	 2.656719002	 0.11319
78.5851	162.5607	249.0077	252.9297	271.6936	279.471	290.8438	340.1385	394.677	412.6111	461.6761	497.3322	570.2033	626.5266	719.9657	759.8485	833.823	880.4165	907.5024	923.4449	949.45	954.7058	988.2195	1009.4142	1031.3258	1051.7278	1067.4323	1093.3379	1106.2119	1141.3636	1177.9675	1193.0252	1249.2118	1265.7628	1296.892	1307.7543	1328.7886	1350.7811	1369.6011	1372.2103	1399.9471	1411.2949	1418.8464	1476.2974	1489.2592	1493.5325	1496.8575	1506.4641	1510.8743	3008.3996	3021.6605	3028.5586	3034.6088	3035.6225	3088.8612	3091.9779	3097.4366	3101.4463	3105.7191	3122.7967	3171.5563	3210.8863	3794.4536
CC1CC2(O)CC2C1C	C[C@H]1C[C@@]2(O)C[C@H]2[C@H]1C	
InChI=1S/C8H14O/c1-5-3-8(9)4-7(8)6(5)2/h5-7,9H,3-4H2,1-2H3	InChI=1S/C8H14O/c1-5-3-8(9)4-7(8)6(5)2/h5-7,9H,3-4H2,1-2H3/t5-,6-,7-,8+/m0/s1
