16
gdb 132513	3.13865	1.29394	0.92145	0.773	75.8	-0.2199	-0.0022	0.2177	1203.0978	0.123976	-445.927221	-445.919113	-445.918168	-445.960524	30.649	
C	-0.0363670596	 1.531512891	-0.0094821817	-0.492288
C	-0.006103871	 0.0219431074	-0.0070236329	 0.331665
C	-0.0709911452	-0.7005268118	-1.199487376	-0.212215
C	-0.0351971633	-2.0959918822	-1.1930760048	-0.228874
C	 0.0650392644	-2.7537004597	 0.0143126923	 0.153872
F	 0.102187881	-4.102999443	 0.0772833743	-0.101721
C	 0.1310219172	-2.0628069211	 1.2263742739	 0.284533
O	 0.2279319808	-2.7290626439	 2.4066031545	-0.440234
C	 0.0943643356	-0.6741148807	 1.2029401211	-0.295684
H	 0.9057870476	 1.9505726429	 0.3622930078	 0.133081
H	-0.1997774849	 1.9233629461	-1.0166301169	 0.122842
H	-0.8342730302	 1.9166933999	 0.6347046489	 0.131511
H	-0.1504415011	-0.1748938845	-2.1448335028	 0.095165
H	-0.0852038586	-2.6728641933	-2.1092675604	 0.111556
H	 0.2374039309	-3.6738930217	 2.2101327099	 0.30262
H	 0.1452276064	-0.1440953755	 2.148375473	 0.104172
35.0904	149.5506	224.2004	289.0036	305.7101	362.3079	438.0876	438.5722	463.8147	509.7108	594.0593	606.5798	712.4764	730.8439	788.1808	816.1148	889.0332	915.1904	954.9787	1022.2706	1061.2915	1132.7745	1166.8846	1197.8578	1272.049	1303.4637	1324.1776	1375.2724	1413.8684	1480.2181	1485.0572	1504.771	1548.6956	1645.672	1660.8349	3031.0272	3084.1531	3115.6719	3183.5638	3185.3575	3204.5624	3796.3193
CC1=CC=C(F)C(O)=C1	Cc1ccc(F)c(O)c1	
InChI=1S/C7H7FO/c1-5-2-3-6(8)7(9)4-5/h2-4,9H,1H3	InChI=1S/C7H7FO/c1-5-2-3-6(8)7(9)4-5/h2-4,9H,1H3
