16
gdb 45569	3.4661	1.46689	1.24978	5.4047	63.76	-0.2661	0.0531	0.3191	997.1272	0.127453	-475.089504	-475.082427	-475.081483	-475.121645	26.81	
O	 0.1069220274	-0.0541704914	-0.1542367022	-0.387934
C	 0.0264015262	 1.1358642392	-0.0433216662	 0.474461
N	-1.1015566458	 1.8969101527	 0.1399923217	-0.365097
C	-0.8607339743	 3.3188014578	 0.1267246347	-0.066134
C	-1.1658113904	 4.0265477731	 1.4603592798	-0.228939
C	 0.1346443721	 3.8134975219	 2.2409310406	-0.100864
O	 1.1592043931	 3.9153002227	 1.2443605508	-0.237974
C	 0.7019061223	 3.3459331893	 0.0612653207	 0.217839
O	 1.1057340302	 1.9810319046	-0.0772063372	-0.24979
H	-2.0064325414	 1.4728292569	 0.0326094739	 0.264675
H	-1.3291157174	 3.81216861	-0.7304342426	 0.097693
H	-1.3324158174	 5.093725404	 1.2856821833	 0.116855
H	-2.045791353	 3.611977383	 1.9568516376	 0.113267
H	 0.3335461162	 4.578095457	 2.9938835154	 0.122897
H	 0.1611763226	 2.8276113943	 2.7231242947	 0.120801
H	 1.1409982397	 3.8987045748	-0.7706870851	 0.108244
72.0001	104.1032	218.8962	358.735	383.9749	465.7779	536.3356	598.04	660.9588	716.872	765.4918	836.9412	858.7478	888.8175	931.9663	945.9098	958.0048	1007.5406	1032.2693	1064.0202	1115.5401	1141.2652	1196.4324	1231.5251	1239.2523	1285.0562	1324.6876	1328.4079	1377.7563	1390.3173	1414.0116	1427.2308	1479.458	1520.1569	1898.0892	3025.7224	3051.8757	3066.8502	3105.7215	3115.9724	3123.9714	3680.6535
O=C1NC2CCOC2O1	O=C1N[C@H]2CCO[C@H]2O1	
InChI=1S/C5H7NO3/c7-5-6-3-1-2-8-4(3)9-5/h3-4H,1-2H2,(H,6,7)	InChI=1S/C5H7NO3/c7-5-6-3-1-2-8-4(3)9-5/h3-4H,1-2H2,(H,6,7)/t3-,4-/m0/s1
