19
gdb 61057	3.01512	1.10663	0.86839	0.9824	72.5	-0.2512	-0.0444	0.2068	1317.0285	0.156998	-460.148982	-460.139541	-460.138597	-460.184088	33.819	
C	-0.3903346522	 1.4641684944	-0.099344167	-0.395678
C	 0.1447285139	 0.0484583662	-0.0855561552	 0.145581
O	 1.4450368239	-0.0650781142	-0.7217726906	-0.288382
C	 1.9800988612	-0.8092061523	 0.3835623865	-0.095894
C	 0.6990918822	-0.5954711156	 1.2198142784	-0.080218
C	 0.8257209532	 0.3179753355	 2.4458813121	 0.029653
O	-0.4360011309	 0.7062303848	 2.9159187415	-0.436702
C	 1.5970694476	-0.3845304456	 3.5458700396	 0.133373
O	 1.1246137155	-0.5456378942	 4.6456828984	-0.26047
H	 0.3117010435	 2.1643362102	 0.3613188913	 0.119467
H	-0.5531779774	 1.7812121798	-1.1342009421	 0.122643
H	-1.3388480455	 1.517929798	 0.4412027946	 0.138756
H	-0.5735150758	-0.6223437676	-0.5780527515	 0.078503
H	 2.1881874438	-1.8550821919	 0.1230461657	 0.104025
H	 2.9031116349	-0.3561002289	 0.7701721954	 0.097399
H	 0.1756046279	-1.5077613499	 1.5151261952	 0.088605
H	 1.4252904871	 1.2029820506	 2.162958722	 0.099782
H	-0.4645127474	 0.4330725613	 3.8471699828	 0.295744
H	 2.6138743346	-0.7450482107	 3.2918626829	 0.103813
44.8571	85.3612	111.9558	168.888	213.7702	237.9986	319.0106	353.3344	366.7497	406.5246	456.754	542.5531	732.7629	767.4829	812.0213	874.6576	884.9436	903.5747	1006.9427	1014.9478	1032.0359	1053.6415	1094.7489	1152.707	1160.093	1165.5511	1184.9635	1243.974	1259.6931	1289.3405	1309.795	1362.8533	1376.1471	1388.246	1397.1817	1411.2825	1439.2081	1476.83	1497.4216	1525.9317	1810.043	2932.0106	2947.629	2995.395	3003.4479	3037.9926	3046.1104	3083.9596	3116.4003	3132.2313	3682.1546
CC1OCC1C(O)C=O	C[C@H]1OC[C@H]1[C@@H](O)C=O	
InChI=1S/C6H10O3/c1-4-5(3-9-4)6(8)2-7/h2,4-6,8H,3H2,1H3	InChI=1S/C6H10O3/c1-4-5(3-9-4)6(8)2-7/h2,4-6,8H,3H2,1H3/t4-,5-,6+/m1/s1
