15
gdb 43651	5.44323	0.92006	0.82256	4.257	73.64	-0.2729	-0.049	0.224	1322.7618	0.111938	-420.641433	-420.633454	-420.63251	-420.674515	29.523	
O	 1.1546711519	 0.1966692439	 0.1619519095	-0.338756
C	 0.5524961986	 1.2271144038	 0.077880292	 0.421002
O	-0.8081518303	 1.3091279111	 0.2939765367	-0.232953
C	-1.2528037589	 2.6542663876	 0.1254027906	 0.054137
C	-1.956651848	 3.1203872319	 1.4184928656	-0.363465
C	-2.5065324317	 4.4619657652	 1.2846299469	 0.288817
C	-2.9468159333	 5.570012325	 1.1345890592	-0.441689
C	-0.0112203607	 3.4268401278	-0.2216428784	-0.07431
C	 1.0272129178	 2.5946182652	-0.247296457	-0.227565
H	-1.9778473097	 2.6783310685	-0.6985511845	 0.126104
H	-2.7509485028	 2.4018028114	 1.6487937548	 0.154743
H	-1.2367770068	 3.0767928464	 2.2439448278	 0.146404
H	-3.3462183629	 6.5477733627	 1.0226651754	 0.205374
H	-0.0253918444	 4.4930189626	-0.4027516756	 0.144148
H	 2.0657899113	 2.8048540068	-0.4551111732	 0.13801
66.2366	97.07	164.6842	235.4611	322.2742	355.7066	426.1503	508.5413	540.7729	636.497	665.1285	708.5434	722.2139	782.3677	839.5786	856.8306	891.114	974.023	979.2381	1013.6554	1050.0721	1086.0828	1117.4159	1156.0029	1193.4392	1291.762	1329.0733	1360.3263	1363.0482	1471.9361	1661.8636	1877.849	2241.3075	3028.6803	3041.4914	3082.1643	3232.0519	3260.2714	3504.0097
O=C1OC(CC#C)C=C1	O=C1O[C@@H](CC#C)C=C1	
InChI=1S/C7H6O2/c1-2-3-6-4-5-7(8)9-6/h1,4-6H,3H2	InChI=1S/C7H6O2/c1-2-3-6-4-5-7(8)9-6/h1,4-6H,3H2/t6-/m0/s1
