15
gdb 129498	2.78017	1.73116	1.06832	1.0119	70.17	-0.2053	-0.0044	0.2009	1046.1424	0.114923	-450.194141	-450.186118	-450.185174	-450.226641	30.471	
N	-0.1130378411	 1.3052572133	-0.0282330334	-0.562394
C	 0.0693377846	-0.0307281989	-0.0157135514	 0.529046
O	 1.1490401172	-0.5994035138	 0.0138795503	-0.412352
N	-1.1438157723	-0.7490577909	-0.044432679	-0.116322
N	-2.356425357	-0.0887842254	 0.0055546839	-0.300288
C	-3.2456651298	-1.0619308215	 0.0427701712	 0.028369
C	-2.6637460191	-2.3491065267	 0.0171882803	-0.345574
C	-1.3009362167	-2.1199158781	-0.0421532306	 0.463448
N	-0.2383316744	-2.9727870479	-0.1555074122	-0.601391
H	 0.6969277988	 1.8937717705	 0.0429503833	 0.271599
H	-1.050704317	 1.6732186058	-0.0005156741	 0.286547
H	-4.2976400356	-0.81544417	 0.0852911402	 0.11844
H	-3.1578667281	-3.3064280124	 0.0251276168	 0.100119
H	-0.3840877423	-3.903026618	 0.201273268	 0.256666
H	 0.6605817329	-2.5473665661	 0.0349885267	 0.284085
84.0958	139.8026	225.7157	257.2781	306.3412	370.7615	390.8382	457.7199	528.084	580.7304	612.2786	646.1172	691.8669	697.4075	737.5046	750.7915	773.0193	911.6862	925.0012	1066.1438	1069.799	1099.9072	1186.2183	1210.2606	1259.3582	1364.3091	1418.6737	1446.0299	1533.9424	1579.311	1597.9619	1647.9129	1805.3753	3233.2583	3271.6704	3533.8074	3597.6657	3682.0695	3754.8688
NC(=O)N1N=CC=C1N	NC(=O)n1nccc1N	
InChI=1S/C4H6N4O/c5-3-1-2-7-8(3)4(6)9/h1-2H,5H2,(H2,6,9)	InChI=1S/C4H6N4O/c5-3-1-2-7-8(3)4(6)9/h1-2H,5H2,(H2,6,9)
