16
gdb 127651	3.47961	1.16119	0.88903	1.868	75.33	-0.2338	-0.003	0.2307	1256.3619	0.12499	-434.077427	-434.068817	-434.067872	-434.112342	29.812	
C	 0.0732332828	 1.382040721	 0.1499520251	-0.330979
N	 0.0629230164	-0.0641284369	 0.0860054265	-0.03592
N	 0.0898784551	-0.7023686926	-1.1081566439	-0.269955
C	 0.0270365213	-1.994218544	-0.8054200048	 0.014096
C	-0.0574012035	-2.2185265824	 0.5846996042	-0.366333
C	-0.0317372106	-0.9430280213	 1.1123816741	 0.464798
O	-0.1109853124	-0.4622298799	 2.3809805978	-0.21593
C	 0.5374097735	-1.1584249917	 3.3625707589	 0.111827
N	 0.3318342011	-0.8468812238	 4.5620863048	-0.422956
H	 0.8609938505	 1.7625596736	-0.5026497498	 0.153578
H	-0.8880358206	 1.7906776821	-0.1756896992	 0.14936
H	 0.2630727181	 1.6863964569	 1.1792642939	 0.159129
H	 0.038671989	-2.7286401708	-1.5975143557	 0.116907
H	-0.1514635549	-3.1497078804	 1.1172904689	 0.114413
H	 1.1994143894	-1.9331161007	 2.9619651403	 0.116483
H	 0.8990223948	-1.4271123292	 5.1768663887	 0.241481
34.7318	66.2833	107.8834	156.3061	194.1708	289.9001	358.9446	474.5788	502.2579	662.2416	679.9046	706.9884	764.6876	820.1774	840.29	884.358	944.1202	1016.9013	1047.8591	1052.6248	1075.0456	1152.6155	1198.1928	1245.3993	1270.517	1303.9899	1371.596	1403.1519	1443.251	1460.0718	1483.7807	1501.9502	1552.3246	1583.5058	1751.3297	3053.8001	3074.5912	3124.9342	3165.1474	3243.9653	3276.6067	3523.2755
CN1N=CC=C1OC=N	Cn1nccc1O[CH][NH]	
InChI=1S/C5H7N3O/c1-8-5(9-4-6)2-3-7-8/h2-4,6H,1H3	InChI=1S/C5H7N3O/c1-8-5(9-4-6)2-3-7-8/h2-4,6H,1H3
