19
gdb 81989	2.41625	1.44553	1.28384	3.055	79.66	-0.2633	0.0297	0.293	1096.3055	0.159618	-382.05232	-382.04345	-382.042506	-382.085374	33.997	
C	-0.1509929486	 1.5671109334	-0.03209239	-0.415248
C	 0.0457953009	 0.0585015469	-0.0543278318	-0.016553
C	 0.7285478192	-0.6001134979	-1.2604258436	-0.046315
C	 2.1772234613	-0.2184994827	-1.3574791548	-0.299089
C	 1.7681176192	-1.261794605	-0.3571475953	-0.067316
C	 1.1607898897	-0.5847086119	 0.8873334379	 0.105999
N	 2.0397893361	 0.3662333677	 1.5611269554	-0.539479
C	 0.5794756757	-1.5663928251	 1.8145228411	 0.227431
N	 0.1385307959	-2.3161563734	 2.5777989064	-0.349256
H	 0.7873358505	 2.10363876	-0.1860228137	 0.134989
H	-0.8499683386	 1.8623954386	-0.8219775784	 0.121149
H	-0.5746707458	 1.8971175088	 0.9229229457	 0.116045
H	-0.9038814891	-0.4417933372	 0.1509514229	 0.098505
H	 0.1975630126	-1.040914963	-2.0949555908	 0.09307
H	 2.6961961113	-0.6105589102	-2.2260533415	 0.117358
H	 2.531355319	 0.7476939008	-1.0158201645	 0.132639
H	 2.1433630575	-2.276901591	-0.3672782977	 0.104183
H	 1.5626410928	 0.7844279084	 2.3553294999	 0.241178
H	 2.8523392005	-0.119510097	 1.9319533128	 0.240709
117.453	150.0481	192.5715	200.0538	212.8144	256.3272	291.8989	390.3399	456.7446	498.5938	553.3049	569.8099	644.7566	722.5948	792.0495	818.0054	863.7443	911.6269	922.1463	942.7846	993.9896	1002.2786	1052.5493	1066.962	1090.1646	1099.5832	1107.6506	1157.861	1179.6999	1216.1677	1266.2072	1276.4088	1316.8208	1361.7717	1370.7809	1409.0532	1482.3778	1489.9956	1501.1412	1649.5158	2336.6364	3036.3543	3075.2978	3095.3951	3131.9887	3135.5465	3185.7305	3198.1512	3221.3466	3484.1883	3564.9819
CC1C2CC2C1(N)C#N	C[C@H]1[C@H]2C[C@H]2[C@]1(N)C#N	
InChI=1S/C7H10N2/c1-4-5-2-6(5)7(4,9)3-8/h4-6H,2,9H2,1H3	InChI=1S/C7H10N2/c1-4-5-2-6(5)7(4,9)3-8/h4-6H,2,9H2,1H3/t4-,5+,6+,7-/m0/s1
