19
gdb 99228	2.81402	0.99062	0.82329	3.1725	74.34	-0.2351	0.0115	0.2466	1449.2256	0.158151	-456.417487	-456.406822	-456.405878	-456.454974	36.07	
C	 1.2723687468	 0.5558681831	 0.143539769	-0.332509
N	 0.7716813247	-0.6694160036	-0.4453784248	-0.297087
C	-0.1433501166	-0.6744358275	-1.4470408613	 0.379027
O	-0.6640394261	 0.3200570836	-1.9236107049	-0.377027
C	-0.5000895991	-2.0886882193	-1.9482801187	-0.273242
N	 0.59349375	-2.769537924	-2.6305188159	-0.298917
C	 1.5708694517	-3.4316274477	-1.9593282893	 0.416956
C	 2.6033727628	-4.1414011566	-2.8148716506	-0.47666
O	 1.614530931	-3.462267852	-0.7343851985	-0.393278
H	 2.3470805281	 0.677560072	-0.0359700392	 0.12259
H	 0.738490081	 1.3881391591	-0.3168028528	 0.163955
H	 1.0989858356	 0.5731772439	 1.2251103136	 0.125565
H	 1.1526267838	-1.5653568148	-0.161202961	 0.273272
H	-0.8079126907	-2.7122410071	-1.1033448211	 0.143341
H	-1.3339004538	-1.9800123422	-2.6417051484	 0.132513
H	 0.6399349229	-2.7060608011	-3.6334563788	 0.257788
H	 3.593922118	-3.7473043169	-2.5729220917	 0.156948
H	 2.6022538379	-5.2026578607	-2.5527244641	 0.159335
H	 2.4299837821	-4.039767398	-3.8888824416	 0.117431
39.5069	61.0049	77.216	78.1926	121.98	155.3294	230.8096	272.7065	312.349	386.6814	436.9745	463.3272	579.3318	629.1012	640.73	703.215	794.8687	842.526	892.1839	983.8427	1016.6244	1053.6882	1094.4186	1119.3547	1153.0446	1180.7865	1250.9134	1295.1887	1311.3755	1367.619	1398.62	1438.7431	1458.1507	1469.4536	1484.0522	1499.9602	1500.2623	1541.6838	1593.481	1743.259	1786.7811	3025.5014	3052.3093	3065.5774	3076.1378	3129.3273	3133.1907	3144.7324	3150.5974	3525.9073	3657.6585
CNC(=O)CNC(C)=O	CNC(=O)CNC(=O)C	
InChI=1S/C5H10N2O2/c1-4(8)7-3-5(9)6-2/h3H2,1-2H3,(H,6,9)(H,7,8)	InChI=1S/C5H10N2O2/c1-4(8)7-3-5(9)6-2/h3H2,1-2H3,(H,6,9)(H,7,8)
