23
gdb 94538	2.44981	1.35162	1.12645	2.9136	81.5	-0.2457	0.0582	0.3039	1223.4782	0.20404	-425.423155	-425.413103	-425.412159	-425.457278	39.16	
C	-1.5014672946	-0.3181534161	-0.1074155845	-0.420997
C	-0.0114794982	 0.0321570031	 0.0525828918	 0.337424
C	 0.1796651932	 1.5504973408	 0.1186924399	-0.399506
O	 0.4757122341	-0.4649937477	 1.2991236313	-0.475315
C	 0.8058192094	-0.5436273947	-1.1209779485	 0.007756
C	 2.3578713663	-0.5360671792	-1.024470464	-0.240817
C	 2.3752023354	-1.9565956703	-1.6507982704	-0.256661
C	 0.8563925767	-2.0852519201	-1.361054587	 0.088656
O	 0.5575447342	-2.798414806	-0.1601925237	-0.439508
H	-1.9085482368	 0.07697127	-1.0449941275	 0.099522
H	-1.6453763993	-1.4021934031	-0.0998703455	 0.122125
H	-2.0725353369	 0.1082658805	 0.7225080243	 0.114784
H	-0.3440744082	 1.9487663395	 0.9924962106	 0.118737
H	 1.2394344569	 1.8020160771	 0.2176867777	 0.118212
H	-0.2146654136	 2.0393195032	-0.7774417395	 0.102767
H	 0.481550451	-1.4284330587	 1.219238227	 0.283363
H	 0.4732267316	-0.0649226514	-2.0483661611	 0.068438
H	 2.8908248051	 0.249683477	-1.56352592	 0.0954
H	 2.677727502	-0.5362674065	 0.0193438252	 0.121713
H	 2.5859749599	-1.9474055416	-2.7238294721	 0.102809
H	 3.0134684641	-2.7078299788	-1.1757658922	 0.09234
H	 0.2336277013	-2.470655081	-2.178204237	 0.069332
H	 0.9018675964	-3.693130356	-0.2431221647	 0.289428
89.7183	117.1842	189.1586	220.5401	240.4472	257.6509	276.7953	303.653	332.8974	375.0807	411.0207	417.0388	504.6276	557.0594	593.1006	689.4166	738.2029	816.1696	854.1109	898.5098	930.0761	945.4282	953.3809	965.101	994.0936	1014.6604	1046.1271	1080.8119	1120.9261	1169.5942	1191.1385	1213.1026	1224.6261	1251.8812	1259.1542	1264.0079	1289.2492	1321.8936	1347.8731	1388.2345	1397.1827	1409.6944	1443.246	1469.6115	1478.0336	1490.8912	1494.4936	1503.3259	1512.0408	3011.748	3031.6942	3040.1898	3047.4633	3053.057	3073.5506	3100.5227	3102.1759	3115.6463	3115.9774	3119.9165	3132.951	3746.4419	3819.769
CC(C)(O)C1CCC1O	CC(C)(O)[C@H]1CC[C@H]1O	
InChI=1S/C7H14O2/c1-7(2,9)5-3-4-6(5)8/h5-6,8-9H,3-4H2,1-2H3	InChI=1S/C7H14O2/c1-7(2,9)5-3-4-6(5)8/h5-6,8-9H,3-4H2,1-2H3/t5-,6+/m0/s1
