21
gdb 94682	2.42803	1.62307	1.19601	2.1383	78.04	-0.2218	0.0672	0.289	1124.9367	0.181062	-424.221782	-424.212467	-424.211523	-424.255032	36.119	
C	-0.0341724821	 1.5573350406	-0.0465425666	-0.416356
C	 0.0320867822	 0.0326282284	 0.027437267	-0.045263
C	 0.7960405792	-0.6227954055	-1.1421156014	-0.112793
O	 1.3532372451	-1.8434995585	-0.6544407622	-0.297992
C	 1.5252958073	-1.7274393654	 0.7407686025	 0.402309
C	 1.6174567569	-3.0528364403	 1.4358791284	-0.464394
C	 2.2763007634	-0.4988823779	 1.2393027672	-0.434185
C	 0.7550918706	-0.5462602021	 1.2398725729	 0.323631
O	 0.0637611708	-0.6170898218	 2.4496201177	-0.47687
H	 0.968992241	 1.9977183125	-0.0431727462	 0.116642
H	-0.5453132471	 1.8925813307	-0.9552166586	 0.118769
H	-0.5851983606	 1.966407949	 0.8071385399	 0.112686
H	-0.9875136517	-0.3711442006	 0.0687399481	 0.086977
H	 0.1559197775	-0.8627568251	-1.9956068442	 0.110603
H	 1.5950981594	 0.0448229142	-1.4999950142	 0.091067
H	 2.5408149697	-3.5759715375	 1.1681065368	 0.122666
H	 1.5947540241	-2.9089890597	 2.5185968412	 0.128571
H	 0.7705049481	-3.6855096776	 1.1533063971	 0.125817
H	 2.7505093598	-0.5970045714	 2.2103380388	 0.112965
H	 2.8043755484	 0.1382699601	 0.5375660847	 0.11133
H	 0.169769558	 0.2249731981	 2.9052587209	 0.283819
119.5766	176.4913	191.7603	212.4877	218.7441	242.6457	288.974	329.8147	380.0839	430.7283	455.4948	523.2748	570.9849	634.0674	684.3677	758.1701	854.0329	894.849	912.4429	936.0505	946.1724	954.966	1020.175	1038.9698	1063.8438	1113.3463	1120.7808	1147.5526	1174.7589	1214.1065	1241.1281	1258.6137	1312.8471	1341.3081	1351.766	1396.0793	1404.2153	1410.2554	1425.4352	1476.4843	1485.1084	1494.7605	1501.4032	1509.8064	1523.822	2980.3621	3027.528	3028.8063	3041.8138	3084.1224	3094.5483	3098.9078	3106.6589	3126.6625	3130.7794	3217.4034	3796.5059
CC1COC2(C)CC12O	C[C@H]1CO[C@@]2(C)C[C@@]12O	
InChI=1S/C7H12O2/c1-5-3-9-6(2)4-7(5,6)8/h5,8H,3-4H2,1-2H3	InChI=1S/C7H12O2/c1-5-3-9-6(2)4-7(5,6)8/h5,8H,3-4H2,1-2H3/t5-,6-,7+/m0/s1
