18
gdb 94330	2.69142	1.24248	1.10332	3.946	76.8	-0.2871	-0.0036	0.2835	1181.0181	0.146481	-401.934086	-401.925294	-401.92435	-401.96817	32.272	
C	-0.3010140746	 1.3906765479	 0.1465838083	-0.394311
C	 0.0337521393	-0.0831733216	-0.0675642074	-0.094377
C	 1.3256772769	-0.3669742118	-0.9042905088	-0.230537
C	 2.0932673598	-0.755632513	 0.3976435738	-0.324586
C	 0.7483264459	-0.7415341127	 1.1208052939	 0.46625
O	 0.5530943836	-0.3942355958	 2.479099692	-0.262257
C	 0.2167081444	-1.7300551908	 2.0813178363	-0.221932
C	-1.1895196767	-2.068303686	 2.0789747612	 0.313646
N	-2.3092757118	-2.3545600637	 2.0522252083	-0.332778
H	 0.5774916659	 1.9579807917	 0.472650569	 0.118539
H	-0.6657711984	 1.8380420083	-0.7831964152	 0.120674
H	-1.0744564323	 1.5072013515	 0.9109044935	 0.137927
H	-0.8564586344	-0.6231417665	-0.4031492048	 0.098015
H	 1.2111821063	-1.2035345095	-1.5960244006	 0.113787
H	 1.7247871684	 0.4895047131	-1.4509219058	 0.110277
H	 2.6467767869	-1.6970267154	 0.3952660213	 0.115135
H	 2.7514197983	 0.037192779	 0.7629905103	 0.127802
H	 0.8708959122	-2.5082315147	 2.4700972046	 0.138725
45.3848	101.6255	150.229	201.8322	224.9479	290.8772	330.9637	387.8857	462.5345	544.8556	584.1877	604.2956	726.2366	780.659	830.0865	878.2739	912.4276	945.1799	949.0078	987.9104	1042.9913	1050.5239	1075.1613	1135.2785	1166.7336	1177.9063	1223.557	1242.1233	1258.598	1278.7841	1326.8421	1352.8931	1410.0267	1450.7648	1470.5911	1494.114	1496.9124	1501.0488	2358.0097	3035.7392	3062.2687	3066.669	3077.3132	3104.8053	3114.8716	3116.9215	3132.8585	3134.0845
CC1CCC11OC1C#N	C[C@H]1CC[C@]21O[C@H]2C#N	
InChI=1S/C7H9NO/c1-5-2-3-7(5)6(4-8)9-7/h5-6H,2-3H2,1H3	InChI=1S/C7H9NO/c1-5-2-3-7(5)6(4-8)9-7/h5-6H,2-3H2,1H3/t5-,6-,7+/m0/s1
