23
gdb 59788	3.00722	1.10072	0.97895	2.2417	81.91	-0.2499	0.0815	0.3314	1341.5762	0.206865	-425.446944	-425.437724	-425.43678	-425.480635	35.973	
C	 0.0379817883	 1.5431696837	-0.102375142	-0.405921
C	 0.0095820039	 0.0283794989	 0.1131874157	 0.132348
O	 0.6154069561	-0.3318785185	 1.3481924923	-0.441944
C	-1.4160934099	-0.5433355575	 0.0465259288	 0.118306
C	-1.4480081315	-2.0751128067	 0.03416218	-0.202781
C	-2.8829972068	-2.6004393573	 0.1792903593	-0.215477
C	-3.5610007046	-1.958696116	 1.3967823056	-0.193371
C	-3.433952701	-0.43757989	 1.3188905313	-0.063884
O	-2.079964552	-0.0271509465	 1.2026349554	-0.281868
H	 1.0577309556	 1.9166516076	 0.0204622505	 0.119226
H	-0.3104779514	 1.8054310651	-1.1075287137	 0.104774
H	-0.6092976072	 2.0425754393	 0.6243858495	 0.124575
H	 0.6080339811	-0.4609193759	-0.6650203473	 0.079737
H	-0.0347722907	-0.1077092964	 2.0263059307	 0.284178
H	-1.920528461	-0.1593917635	-0.8578708068	 0.058102
H	-0.995007427	-2.4371505259	-0.8961864033	 0.092183
H	-0.8230891716	-2.4326680448	 0.8600040489	 0.113136
H	-3.4566143012	-2.3529408238	-0.7249292923	 0.093199
H	-2.8859812569	-3.692296029	 0.2626550508	 0.096912
H	-4.6194828888	-2.2371559666	 1.4540767068	 0.09412
H	-3.0802002997	-2.3077188535	 2.3189961542	 0.103298
H	-4.0113028843	-0.0568563304	 0.4587157269	 0.086198
H	-3.8203658395	 0.0463068179	 2.2209319089	 0.104954
89.5318	104.317	194.8639	237.9976	245.9802	271.2876	321.4397	362.4602	421.4311	450.4217	465.6337	502.2994	552.4477	650.4729	806.8738	840.1867	852.6329	888.0557	911.1511	933.8127	952.7235	1007.935	1028.7518	1055.1501	1075.7188	1092.9146	1111.4773	1136.0548	1166.0721	1202.1502	1229.4701	1272.2886	1282.8196	1315.6564	1320.8477	1357.3262	1364.6019	1376.1634	1380.5702	1398.4929	1398.535	1412.8846	1435.9608	1474.3858	1484.2185	1490.0324	1493.6798	1500.3808	1503.5524	2947.2416	2960.6605	3012.3228	3028.5873	3033.0703	3036.9596	3040.7549	3067.2471	3074.4986	3081.1769	3086.0287	3108.3436	3126.6229	3775.6905
CC(O)C1CCCCO1	C[C@@H](O)[C@H]1CCCCO1	
InChI=1S/C7H14O2/c1-6(8)7-4-2-3-5-9-7/h6-8H,2-5H2,1H3	InChI=1S/C7H14O2/c1-6(8)7-4-2-3-5-9-7/h6-8H,2-5H2,1H3/t6-,7-/m1/s1
