17
gdb 75001	3.1979	1.52248	1.22383	0.9672	69.79	-0.2257	0.049	0.2747	1025.6941	0.138621	-455.144746	-455.137232	-455.136288	-455.17689	28.972	
N	 0.0345661903	 1.3532953163	 0.1765245431	-0.555246
C	-0.0714718265	-0.0152648159	 0.0789830022	 0.455233
N	-1.1894862596	-0.6140182806	 0.199191512	-0.346796
C	-1.2348217225	-2.0428371612	 0.0225905924	-0.042738
C	-1.395832116	-2.5064360956	-1.4499261704	-0.073409
O	-0.0323541691	-2.9852621678	-1.4909392089	-0.29497
C	 0.1254650773	-2.7793769199	-0.0741074769	 0.10531
C	 1.3147077466	-1.9225041276	 0.2882367398	-0.109585
O	 1.1595865511	-0.5596319558	-0.1212720106	-0.25657
H	 0.8655948188	 1.7496275151	-0.2333399166	 0.258382
H	-0.8230093284	 1.8462995059	-0.01641752	 0.261454
H	-1.9581425919	-2.4730748024	 0.7189399957	 0.081461
H	-2.1157053381	-3.3203850148	-1.6048860575	 0.096038
H	-1.5776747782	-1.704089031	-2.171831485	 0.107341
H	 0.1818174424	-3.7334058474	 0.46883076	 0.072747
H	 1.464793883	-1.9531393018	 1.3762570534	 0.112087
H	 2.2221248909	-2.2794259055	-0.2051425828	 0.129263
85.5247	139.1106	198.1968	320.6305	359.2161	422.9786	435.528	515.0947	542.3725	588.5736	736.7389	745.5825	801.9731	830.84	869.2259	897.1013	944.0837	986.9307	1009.114	1056.619	1077.6152	1096.9208	1151.2923	1163.4306	1241.7476	1252.0564	1258.9486	1296.73	1331.299	1352.4457	1365.7468	1386.2374	1420.1741	1487.7979	1516.7636	1615.6701	1745.3763	3000.6724	3015.2075	3022.8407	3072.7805	3084.5845	3104.663	3591.3488	3709.7273
NC1=NC2COC2CO1	NC1=N[C@H]2CO[C@H]2CO1	
InChI=1S/C5H8N2O2/c6-5-7-3-1-8-4(3)2-9-5/h3-4H,1-2H2,(H2,6,7)	InChI=1S/C5H8N2O2/c6-5-7-3-1-8-4(3)2-9-5/h3-4H,1-2H2,(H2,6,7)/t3-,4-/m0/s1
