23
gdb 97648	1.794	0.89592	0.62636	1.2539	92.01	-0.2413	0.0348	0.2762	1856.878	0.202823	-388.266011	-388.254196	-388.253252	-388.305292	40.806	
C	-1.5024661759	-0.2393646926	 0.0616392585	-0.388255
C	 0.0206849318	-0.0997092538	 0.0797232289	-0.171244
C	 0.7121170904	-0.5982322889	-1.2109647192	-0.132219
C	 2.2310450488	-0.3026697336	-1.182266511	-0.17075
C	 2.9582823741	-0.6627404717	-2.4789466376	-0.392592
C	 0.461828432	-2.0228764463	-1.4332773477	 0.119448
C	 0.2856553295	-3.203428489	-1.5970900972	 0.050418
C	 0.0597449103	-4.628005304	-1.8053354423	-0.215807
O	 1.2436315096	-5.2278604771	-2.3222504957	-0.40949
H	-1.9430129381	 0.3362465047	-0.7603015732	 0.1117
H	-1.799309909	-1.2843746809	-0.0673768935	 0.126461
H	-1.9409637777	 0.1253928197	 0.9955617216	 0.110702
H	 0.2941725205	 0.9532304116	 0.2205670511	 0.092803
H	 0.4361673843	-0.6489407025	 0.9331965925	 0.102598
H	 0.2814682929	-0.0390570861	-2.0561189982	 0.094798
H	 2.3583871279	 0.7656298935	-0.9679998526	 0.09142
H	 2.6762984242	-0.8476879128	-0.3412690917	 0.103828
H	 2.8580312632	-1.7287105471	-2.7020901885	 0.142098
H	 2.5520293613	-0.1024854208	-3.3288170655	 0.109477
H	 4.024846213	-0.4288780036	-2.4059897808	 0.10954
H	-0.2347807474	-5.0924619424	-0.8497957029	 0.113216
H	-0.7876166446	-4.763234566	-2.4976172592	 0.113796
H	 1.0577369189	-6.1640130402	-2.4484882758	 0.288054
12.787	56.5536	90.8694	121.6133	129.2615	168.6985	195.9139	222.9255	237.7856	258.1154	316.3186	368.6936	389.3702	469.2668	540.455	588.2617	691.3853	781.7015	840.7496	876.2071	930.1305	1024.9294	1025.4017	1029.1404	1049.6387	1051.5975	1094.7684	1110.6368	1151.8534	1183.2541	1245.1378	1255.1566	1271.793	1284.2615	1304.5961	1361.5667	1370.3277	1379.6356	1410.7708	1415.6794	1458.8754	1479.4194	1489.5619	1497.6889	1499.1326	1504.7966	1507.4016	1509.1462	2363.0475	2959.9788	2976.9382	2983.5366	3021.8703	3028.674	3033.3578	3034.038	3059.8664	3067.646	3099.3973	3100.2092	3113.3936	3118.0083	3816.0076
CCC(CC)C#CCO	CCC(CC)C#CCO	
InChI=1S/C8H14O/c1-3-8(4-2)6-5-7-9/h8-9H,3-4,7H2,1-2H3	InChI=1S/C8H14O/c1-3-8(4-2)6-5-7-9/h8-9H,3-4,7H2,1-2H3
