21
gdb 96282	2.09168	1.5335	0.97734	2.4875	79.	-0.2331	-0.0169	0.2162	1252.4049	0.183033	-424.2544	-424.245557	-424.244613	-424.288073	33.788	
C	 0.2242007242	 1.5983526587	 0.1391886592	-0.40067
C	 0.1079320305	 0.0709120206	 0.046721415	 0.019484
C	 0.0855050866	-0.3739118764	-1.4244704069	-0.181175
C	-0.0254521533	-1.8798507965	-1.6610812524	-0.095636
O	 1.1179442354	-2.5896157132	-1.2006851453	-0.236629
C	 1.011379028	-3.0901457552	 0.1079605545	-0.17741
C	 0.9538801702	-2.0392035567	 1.2234934814	 0.33136
O	 0.6778641823	-2.3827944206	 2.3498692801	-0.300908
C	 1.2507847046	-0.595728722	 0.8590862653	-0.28694
H	 1.1765566008	 1.9439754376	-0.2797730611	 0.117756
H	-0.5819198353	 2.0889979046	-0.4162202981	 0.113944
H	 0.1731330459	 1.9379045046	 1.1781742746	 0.119347
H	-0.8450916553	-0.2216010618	 0.5107381361	 0.084369
H	-0.7562586846	 0.1137715276	-1.9332416472	 0.095894
H	 0.9990090567	-0.0194959244	-1.9203424769	 0.105481
H	-0.9371645959	-2.2835585542	-1.1929755481	 0.093053
H	-0.0962228575	-2.0755159745	-2.7366618405	 0.109319
H	 0.1395777518	-3.7518158323	 0.2278771703	 0.120252
H	 1.9051064046	-3.7004654779	 0.2853724218	 0.137631
H	 2.1794745955	-0.5456494931	 0.2770884674	 0.116143
H	 1.3959433248	-0.0608688349	 1.8013146409	 0.115335
60.6753	120.5441	184.6	234.8486	270.4348	306.2928	336.0499	390.3575	415.7615	482.7121	511.0313	542.3669	582.9021	783.1728	805.9657	848.9347	884.9705	937.1053	961.9118	977.9418	1010.9736	1038.731	1065.1821	1113.3666	1137.0402	1171.816	1194.6175	1246.7105	1271.021	1296.0244	1303.4387	1310.8042	1343.6946	1364.4088	1367.2509	1393.5876	1412.0579	1415.9731	1453.7143	1460.64	1475.7682	1497.7519	1498.2208	1500.65	1809.1708	2982.7192	2994.7609	2999.738	3015.7787	3027.7343	3035.985	3058.7063	3064.212	3066.9497	3095.1685	3102.2271	3107.2361
CC1CCOCC(=O)C1	C[C@H]1CCOCC(=O)C1	
InChI=1S/C7H12O2/c1-6-2-3-9-5-7(8)4-6/h6H,2-5H2,1H3	InChI=1S/C7H12O2/c1-6-2-3-9-5-7(8)4-6/h6H,2-5H2,1H3/t6-/m0/s1
