14
gdb 75999	1.90663	1.83096	1.2318	3.2156	62.08	-0.2667	-0.0589	0.2078	1016.3126	0.098809	-473.823005	-473.814041	-473.813097	-473.857159	31.218	
O	 0.0775383284	 1.4478723931	 0.0275710839	-0.405031
C	-0.0065935333	 0.072547608	-0.0293442995	 0.068593
C	-1.4139745661	-0.6807737578	-0.0929601671	-0.328411
C	-2.4202389733	 0.1165091814	-0.761694253	 0.296812
N	-3.1807077069	 0.7638868255	-1.3449539039	-0.314521
C	-0.7505632654	-1.747601753	-1.0800118229	 0.068595
O	-1.4525599894	-2.2954907905	-2.1329925821	-0.405012
C	 0.2959555656	-0.6523598495	-1.3531169258	 0.277853
O	 0.7929134653	-0.2673072014	-2.3719477428	-0.287869
H	-0.1445910107	 1.8106289093	-0.8392911467	 0.30837
H	 0.5609828982	-0.3423103994	 0.8089395007	 0.13664
H	-1.7801806239	-1.0773505476	 0.8533226191	 0.138956
H	-0.346897207	-2.5636448437	-0.473291736	 0.136649
H	-1.5505444216	-1.6282508445	-2.8240578538	 0.308377
80.6845	102.6512	118.8234	158.454	159.6197	308.6827	327.4233	345.1533	391.1863	519.1914	555.5138	600.9791	686.5478	766.1323	775.5411	797.7007	946.7742	960.6843	1024.0865	1058.5156	1138.0606	1172.7885	1217.7378	1238.6435	1300.562	1306.836	1364.1145	1422.7443	1440.4692	1878.1861	2352.4845	3074.0686	3082.3903	3126.7837	3785.0195	3786.6998
OC1C(C#N)C(O)C1=O	O[C@H]1[C@@H](C#N)[C@@H](O)C1=O	
InChI=1S/C5H5NO3/c6-1-2-3(7)5(9)4(2)8/h2-4,7-8H	InChI=1S/C5H5NO3/c6-1-2-3(7)5(9)4(2)8/h2-4,7-8H/t2-,3+,4-
