21
gdb 91541	2.84653	1.31023	1.0705	1.639	82.36	-0.2344	0.0641	0.2985	1211.8979	0.183708	-383.196533	-383.187914	-383.186969	-383.23024	33.119	
C	-0.0647792868	 1.6290666591	 0.0223977265	-0.418227
C	 0.0604568561	 0.1132422196	 0.1102159703	-0.047453
C	 1.0521373782	-0.6576122379	-0.8032687254	-0.179998
N	 1.6851613807	-1.363680689	 0.3673993608	-0.165827
C	 2.2631284798	-0.2858925697	 1.1902839927	-0.304852
C	 0.806082658	-0.5229300449	 1.2964481496	 0.350191
C	 0.1055128897	-1.0585780659	 2.4919853904	-0.106763
C	 0.8070653692	-1.443309503	 3.7399301344	-0.241895
N	-0.0209225553	-0.2266194594	 3.714783004	-0.323003
H	 0.908708251	 2.1245115503	 0.0964909669	 0.113633
H	-0.5150842659	 1.9283158005	-0.9304252509	 0.118864
H	-0.7009776287	 2.0159633196	 0.825877298	 0.125378
H	-0.9349476431	-0.3359618618	 0.0330626871	 0.084357
H	 0.5824242039	-1.3787191897	-1.4747749793	 0.110526
H	 1.7627475322	-0.0497271962	-1.3751132862	 0.100554
H	 2.903373798	-0.659599166	 1.9825691598	 0.121881
H	 2.6414268654	 0.6077697915	 0.6974278506	 0.108926
H	-0.8157177204	-1.5896907293	 2.2579183131	 0.089781
H	 0.406608372	-2.2550913095	 4.340373167	 0.122093
H	 1.8866444578	-1.3417828807	 3.7886014198	 0.113214
H	 0.5894449881	 0.5831544123	 3.6181606406	 0.22862
41.8248	122.7099	198.3305	209.0754	238.011	287.0232	348.931	433.1286	481.3566	522.9583	669.8901	694.0805	777.5886	828.7445	849.3921	870.3244	881.0914	909.6675	945.1432	963.8163	983.933	1021.5054	1077.3576	1094.1076	1109.7982	1121.279	1138.9987	1148.9197	1153.8954	1184.6413	1204.8962	1216.1866	1264.2169	1270.697	1299.2515	1306.0953	1361.8067	1394.0035	1412.6922	1443.1222	1490.88	1496.3666	1498.6994	1506.8182	1520.7444	3029.1372	3038.6877	3050.6286	3095.4031	3099.5462	3104.1438	3111.3241	3116.1554	3120.478	3194.9626	3203.5786	3480.4985
CC1CN2CC12C1CN1	C[C@H]1CN2C[C@@]12[C@H]1CN1	
InChI=1S/C7H12N2/c1-5-3-9-4-7(5,9)6-2-8-6/h5-6,8H,2-4H2,1H3	InChI=1S/C7H12N2/c1-5-3-9-4-7(5,9)6-2-8-6/h5-6,8H,2-4H2,1H3/t5-,6+,7-,9?/m0/s1
