21
gdb 53647	3.86522	0.56648	0.51159	0.6023	94.81	-0.242	0.0477	0.2898	2173.6045	0.17871	-349.906572	-349.895111	-349.894166	-349.945533	39.682	
C	-0.033418934	 1.5298709177	-0.0494235708	-0.497596
C	-0.0030999861	 0.0740422096	-0.035679508	 0.12573
C	 0.0316484377	-1.1295589382	-0.0258345958	 0.008871
C	 0.0384744009	-2.5883410559	-0.0089327408	-0.371335
C	-1.3795358731	-3.1834966244	 0.1130299991	-0.16603
C	-1.4124590506	-4.729215294	 0.0364228305	-0.157095
C	-0.6827242493	-5.409219124	 1.2135319502	-0.389011
C	-2.7963517805	-5.1954581674	-0.0434528536	 0.304782
C	-3.9388862255	-5.5673495695	-0.0884403315	-0.451609
H	 0.5655922731	 1.950004321	 0.7662845536	 0.145571
H	 0.3633142079	 1.928866923	-0.9896972531	 0.145783
H	-1.0555933494	 1.908114947	 0.0636526654	 0.146542
H	 0.5105753392	-2.966096525	-0.9268332379	 0.123124
H	 0.6668266208	-2.9380637903	 0.8193014509	 0.128693
H	-1.8340424203	-2.8583196192	 1.0552366055	 0.115394
H	-2.0018207988	-2.7773134334	-0.6897536752	 0.119162
H	-0.9051749509	-5.0270762111	-0.8931616712	 0.103976
H	 0.3780394835	-5.1445144066	 1.2261895583	 0.118575
H	-1.1269308358	-5.1063431957	 2.1667843574	 0.126956
H	-0.7591003963	-6.4966530846	 1.1358721884	 0.127536
H	-4.9457134323	-5.9005086789	-0.1388324015	 0.191981
15.94	47.3235	66.0037	92.5061	155.0171	195.6316	212.8105	241.823	284.9104	292.8589	378.1937	389.3453	453.4166	533.4292	565.8343	625.6476	632.6946	749.8293	772.4772	838.5803	929.5319	953.3688	1021.3921	1052.8699	1053.5804	1074.2964	1108.8277	1138.0402	1171.2742	1217.244	1271.2586	1309.5073	1340.2363	1343.3292	1382.9409	1408.9864	1415.5772	1473.9811	1479.3186	1479.5898	1492.1583	1494.7057	1502.9217	2233.8816	2374.1065	2994.9003	3007.795	3024.722	3041.4267	3046.7077	3050.8682	3084.3788	3084.6021	3097.1987	3117.0521	3122.0766	3505.6583
CC#CCCC(C)C#C	CC#CCC[C@@H](C)C#C	
InChI=1S/C9H12/c1-4-6-7-8-9(3)5-2/h2,9H,7-8H2,1,3H3	InChI=1S/C9H12/c1-4-6-7-8-9(3)5-2/h2,9H,7-8H2,1,3H3/t9-/m0/s1
