21
gdb 42138	1.95668	1.84621	1.11163	2.0724	80.15	-0.2425	0.0027	0.2452	1146.5371	0.184614	-424.210003	-424.201664	-424.20072	-424.242737	32.599	
C	 0.0208779557	 1.5953527881	 0.1622595423	-0.20723
C	 1.4021876958	 2.1874638962	-0.141907332	-0.062988
O	 1.7916258288	 2.2162006152	-1.510461804	-0.24689
C	 2.1485372404	 1.0127824168	-2.1332321474	 0.031086
O	 3.0380359812	 0.2259853159	-1.3828504256	-0.242887
C	 2.5866678224	-1.0668999484	-0.9594418095	-0.130942
C	 2.1176739225	-1.1151560517	 0.4775818391	-0.057874
C	 0.9501974712	-0.6471055546	 0.9244980536	-0.03208
C	-0.0973732146	 0.0499196188	 0.1010706827	-0.254538
H	-0.2408290666	 1.9220135942	 1.1776405594	 0.099391
H	-0.7215813908	 2.0402192317	-0.5105135839	 0.105545
H	 1.3971525339	 3.2418104224	 0.1512078206	 0.104087
H	 2.1697677406	 1.6786749115	 0.4515557131	 0.113164
H	 1.2626465801	 0.415075334	-2.4022902803	 0.073411
H	 2.6550623524	 1.3281395379	-3.0533870561	 0.106615
H	 1.7969121285	-1.4176535328	-1.6379125404	 0.104688
H	 3.4409709163	-1.7383111694	-1.0883474173	 0.109985
H	 2.8101471274	-1.5556560951	 1.1907149666	 0.091342
H	 0.7433432125	-0.7178012665	 1.9916151877	 0.090312
H	-1.0937617671	-0.2278897288	 0.4646490002	 0.10142
H	-0.0489286605	-0.2831244854	-0.9394729986	 0.104386
101.6631	170.8093	185.3826	227.6868	261.6748	317.0795	370.394	436.6103	493.9894	525.0215	544.6856	625.6248	743.5334	787.6039	838.2303	875.265	909.744	959.1432	981.5827	1000.2052	1010.4056	1050.5973	1066.4565	1086.8712	1121.9865	1134.9545	1181.6228	1213.8654	1245.9709	1280.1851	1291.5026	1314.9675	1337.0082	1341.4973	1378.827	1396.1322	1417.6779	1426.4417	1456.8827	1470.4462	1491.725	1493.1039	1499.3355	1526.2504	1715.3217	2958.9664	3008.4123	3018.0453	3036.478	3045.2727	3047.728	3066.0255	3076.0933	3088.8204	3091.435	3131.1105	3161.9816
C1COCOCC=CC1	C1COCOCC=CC1	
InChI=1S/C7H12O2/c1-2-4-6-9-7-8-5-3-1/h1,3H,2,4-7H2/b3-1-	InChI=1S/C7H12O2/c1-2-4-6-9-7-8-5-3-1/h1,3H,2,4-7H2/b3-1-
