18
gdb 122257	2.88116	0.87037	0.73508	2.9188	73.86	-0.2643	-0.0001	0.2642	1558.5379	0.145231	-439.058938	-439.049163	-439.048219	-439.094744	33.729	
C	-0.2808430023	 1.3178744361	-0.0183315807	-0.233028
O	 0.1011055637	-0.0360492859	 0.0651000313	-0.232116
C	 0.5501570183	-0.5545701262	-1.1642823928	-0.05911
C	 0.9301094287	-2.0154697132	-0.933707511	-0.296176
C	 1.4175646029	-2.6960787722	-2.1956787426	 0.245993
C	 1.0785663941	-4.1016887096	-2.499914951	-0.208802
O	 0.4168165489	-3.0312457026	-3.1663332657	-0.248494
C	 2.6466824889	-2.1646401131	-2.7687012265	 0.268456
N	 3.6287471146	-1.7298990052	-3.1957069207	-0.332894
H	 0.5580204027	 1.9593439668	-0.3301091032	 0.110354
H	-1.1085876863	 1.4647249817	-0.7295877697	 0.108298
H	-0.6106211327	 1.6249093523	 0.9768190896	 0.1303
H	-0.2380945669	-0.4880253038	-1.9321749442	 0.106307
H	 1.4187807261	 0.0148282228	-1.5355238321	 0.108927
H	 1.7076665552	-2.0694738403	-0.163997226	 0.131348
H	 0.0564557253	-2.5595699266	-0.5637034132	 0.126259
H	 1.7506088391	-4.6948909594	-3.116181933	 0.141518
H	 0.4785400696	-4.6532396918	-1.7783210286	 0.13286
51.4582	80.5488	109.3245	118.867	181.4862	230.8286	238.266	301.3183	328.3376	403.326	470.1224	576.9534	600.0757	719.8595	790.0851	853.8075	921.3508	951.5865	1001.0315	1066.6711	1080.9223	1133.9391	1163.9167	1171.7835	1180.9558	1220.2839	1228.7049	1265.1001	1301.6709	1319.018	1383.2669	1430.8754	1473.123	1482.0414	1486.0833	1505.0601	1520.0521	1533.9553	2357.4731	2960.4358	2976.7472	2993.8817	3021.2482	3053.7659	3094.1252	3106.2373	3118.5241	3190.6863
COCCC1(CO1)C#N	COCC[C@]1(CO1)C#N	
InChI=1S/C6H9NO2/c1-8-3-2-6(4-7)5-9-6/h2-3,5H2,1H3	InChI=1S/C6H9NO2/c1-8-3-2-6(4-7)5-9-6/h2-3,5H2,1H3/t6-/m1/s1
