19
gdb 76477	3.11542	1.05066	0.99525	4.0641	76.88	-0.2393	-0.0174	0.222	1274.9067	0.156519	-423.016248	-423.006988	-423.006044	-423.050513	34.596	
C	 0.0126801033	 1.5634628846	-0.2208105005	-0.419603
C	 0.0645056812	 0.0570917516	-0.093809218	-0.127195
C	 1.3958150172	-0.6724385595	-0.0359040713	 0.020843
O	 2.589570102	 0.0534290871	 0.0271109219	-0.416811
C	 0.5324233777	-0.6011727821	 1.1816510163	 0.308849
C	 0.9412086759	 0.0959841656	 2.4919662762	-0.413226
C	 0.3462135409	-1.1136328152	 3.2382123526	 0.406586
O	 0.2651689632	-1.4160664053	 4.3919376332	-0.287536
C	-0.1033908546	-1.7894709959	 1.9250448806	-0.434644
H	 0.8914912138	 2.0253906897	 0.2360857724	 0.132117
H	-0.0178953928	 1.8683100413	-1.2730698685	 0.114875
H	-0.8787653423	 1.9743833382	 0.265152056	 0.121015
H	-0.7240724637	-0.4739810002	-0.6239739208	 0.084565
H	 1.4722084587	-1.6338373992	-0.5463258342	 0.085302
H	 2.7837068916	 0.3955179797	-0.8521118978	 0.291716
H	 2.0160899316	 0.239583013	 2.6355726174	 0.146501
H	 0.4322152976	 1.03924879	 2.717592689	 0.127965
H	-1.1918442407	-1.8791841303	 1.8366447929	 0.128777
H	 0.3423282494	-2.7740128933	 1.7475861925	 0.129904
44.5546	150.8821	167.5087	172.955	225.5291	236.429	303.1643	386.0508	419.5677	462.3828	486.2867	569.9175	585.5387	684.3482	718.2987	781.414	836.7884	902.1003	944.5976	989.5848	1016.0351	1050.6543	1074.7281	1087.7138	1104.337	1146.3166	1162.4047	1186.2748	1195.9826	1213.8374	1220.8726	1283.4668	1321.4767	1375.3374	1412.8157	1429.1864	1446.1395	1471.8714	1497.3457	1505.6848	1898.3338	3031.3231	3040.8684	3051.3426	3084.3944	3086.7718	3091.3186	3103.9187	3113.4685	3128.9934	3802.9003
CC1C(O)C11CC(=O)C1	C[C@H]1[C@@H](O)C21CC(=O)C2	
InChI=1S/C7H10O2/c1-4-6(9)7(4)2-5(8)3-7/h4,6,9H,2-3H2,1H3	InChI=1S/C7H10O2/c1-4-6(9)7(4)2-5(8)3-7/h4,6,9H,2-3H2,1H3/t4-,6+/m0/s1
