15
gdb 75849	3.36649	1.24259	0.95062	3.4371	75.71	-0.2412	-0.0517	0.1895	1163.1557	0.113536	-416.878862	-416.870668	-416.869724	-416.911874	29.905	
C	-0.0823806415	 1.5693364785	 0.0189703838	-0.396342
C	 0.0271042111	 0.0383917835	 0.0455100361	-0.261301
C	 0.8345002254	-0.4953612397	-1.1522593875	 0.443495
O	 0.6638713899	-0.2831069292	-2.3255513476	-0.353414
N	 1.8465528687	-1.2865633725	-0.6074249974	-0.328128
C	 1.7975404951	-1.2951978419	 0.775086257	-0.092711
C	 0.7694550023	-0.5507245638	 1.2332692544	 0.13021
C	 0.4212109207	-0.3490069276	 2.5837893714	 0.209794
N	 0.1044805807	-0.1588374654	 3.6836395322	-0.347493
H	 0.9034103805	 2.0339816081	 0.110976913	 0.130095
H	-0.527932324	 1.885796756	-0.9272488477	 0.148127
H	-0.7063016424	 1.9227475365	 0.8435665797	 0.142551
H	-0.9807884251	-0.3907120963	-0.0260189376	 0.138858
H	 2.5437331189	-1.7446713195	-1.1718722372	 0.275092
H	 2.5253263997	-1.8553970667	 1.3439458574	 0.161168
78.3324	132.7409	175.6994	228.3296	235.7973	296.4565	445.1819	466.6651	509.7304	541.5479	577.1625	624.0202	702.4109	740.3177	814.4851	829.3604	905.2773	1026.0021	1075.8971	1089.4565	1115.7601	1171.4016	1219.5092	1289.5702	1304.3671	1336.3057	1407.0485	1416.5058	1493.9288	1499.3239	1658.168	1851.1338	2328.2509	3033.9672	3049.701	3125.4268	3135.4863	3249.3145	3656.5693
CC1C(=O)NC=C1C#N	C[C@H]1C(=O)NC=C1C#N	
InChI=1S/C6H6N2O/c1-4-5(2-7)3-8-6(4)9/h3-4H,1H3,(H,8,9)	InChI=1S/C6H6N2O/c1-4-5(2-7)3-8-6(4)9/h3-4H,1H3,(H,8,9)/t4-/m1/s1
