19
gdb 93333	2.34267	1.58162	1.06882	5.1811	77.6	-0.246	-0.0211	0.2249	1154.7621	0.160699	-419.263978	-419.255407	-419.254463	-419.297239	32.137	
C	 0.2267128898	 1.5565614089	-0.1180042242	-0.388697
C	-0.0323225797	 0.0563079016	 0.0547489211	 0.008658
C	 0.4655534663	-0.7938227239	-1.1337560638	-0.235335
C	 1.9097464325	-1.1549293513	-0.751783351	-0.290279
C	 1.8903272656	-1.2224161805	 0.7631800645	 0.391005
N	 2.7532532707	-1.8107829064	 1.474538042	-0.535072
N	 0.7302898389	-0.5092404404	 1.1849500096	-0.099563
C	 0.3214899455	-0.3667848159	 2.484157239	 0.15208
O	 0.9039071897	-0.786273395	 3.4617559856	-0.317871
H	 1.282970073	 1.7545503722	-0.3260033447	 0.130936
H	-0.3673989461	 1.9488358721	-0.9493394992	 0.125682
H	-0.047235734	 2.1104923778	 0.7849849391	 0.126759
H	-1.1003901847	-0.1044028474	 0.2344495077	 0.096363
H	-0.1388244901	-1.7022458093	-1.2151309518	 0.117858
H	 0.3873860345	-0.2529277418	-2.0789037479	 0.111695
H	 2.2625559585	-2.0967859054	-1.172733932	 0.138102
H	 2.6142285691	-0.3755890826	-1.0644343388	 0.130745
H	 2.5335699094	-1.7056504812	 2.4657744672	 0.251059
H	-0.6366371889	 0.1846331985	 2.5558551777	 0.085874
80.5101	131.2647	174.1447	231.1321	249.5733	259.7524	328.5508	428.563	470.1278	495.8173	547.9089	650.6902	709.8717	762.0011	811.4745	898.9149	951.4587	967.7976	974.5782	1026.891	1031.7587	1042.8031	1105.4611	1111.3517	1181.2233	1192.1201	1228.1397	1288.6187	1301.0301	1327.1311	1343.342	1373.1385	1410.4399	1413.5782	1446.9923	1476.2777	1490.087	1496.1592	1500.2018	1730.324	1805.322	2936.7687	3036.6148	3046.4908	3051.5756	3064.4057	3109.9742	3113.5523	3116.3265	3131.4554	3485.0378
CC1CCC(=N)N1C=O	C[C@H]1CC[C]([NH])N1C=O	
InChI=1S/C6H10N2O/c1-5-2-3-6(7)8(5)4-9/h4-5,7H,2-3H2,1H3	InChI=1S/C6H10N2O/c1-5-2-3-6(7)8(5)4-9/h4-5,7H,2-3H2,1H3/t5-/m0/s1
