16
gdb 128054	4.4276	1.0548	0.85639	3.3211	74.19	-0.2158	-0.0175	0.1983	1295.7018	0.126161	-430.254655	-430.245949	-430.245005	-430.289769	30.374	
C	 0.0822786751	 1.361546217	-0.0000122074	-0.307809
N	-0.0879385886	-0.071768007	-0.0551038542	-0.301809
C	-1.3164573388	-0.6505056972	 0.0022223871	 0.275625
N	-2.3805478702	 0.0661538827	 0.1056056391	-0.567839
C	-1.2664536765	-2.129612411	-0.0666213266	 0.312852
C	-2.2847332697	-3.057284264	-0.0413525216	-0.182118
N	-1.6463703213	-4.2437458879	-0.1354433107	-0.15607
N	-0.3111632887	-4.0880231682	-0.2155473321	-0.10488
N	-0.0848054169	-2.810469327	-0.1737543246	-0.273111
H	 1.1472930237	 1.5935219257	-0.0633823116	 0.116893
H	-0.4428395561	 1.8543828609	-0.8261210769	 0.136581
H	-0.32058862	 1.7731044178	 0.9325203912	 0.13618
H	 0.7077907461	-0.6818648546	-0.1319759891	 0.264379
H	-3.2113929544	-0.5197191771	 0.1352021732	 0.20068
H	-3.3556404494	-2.9769089534	 0.0318696233	 0.161034
H	-2.0356573342	-5.1733571567	-0.1511853191	 0.289411
24.8243	62.7765	113.1784	163.898	228.3889	301.8275	371.7973	403.6071	483.2698	585.7221	636.424	718.8014	753.9008	784.161	794.5761	817.1194	982.9717	989.7804	1042.111	1063.9595	1136.2787	1162.3467	1184.3662	1193.372	1256.158	1301.8053	1313.7865	1377.1359	1455.0335	1471.1564	1485.3308	1515.5801	1552.	1610.7481	1689.878	3026.998	3075.106	3129.4826	3289.108	3511.351	3655.7208	3662.6186
CNC(=N)C1=CNN=N1	CNC(=N)c1c[nH]nn1	
InChI=1S/C4H7N5/c1-6-4(5)3-2-7-9-8-3/h2H,1H3,(H2,5,6)(H,7,8,9)	InChI=1S/C4H7N5/c1-6-4(5)3-2-7-9-8-3/h2H,1H3,(H2,5,6)(H,7,8,9)
