13
gdb 62444	4.10815	1.29044	1.26209	3.674	63.09	-0.2653	-0.0153	0.2501	975.2835	0.089586	-452.732903	-452.725656	-452.724712	-452.7646	26.99	
O	-0.0820822462	 1.3882435287	-0.0093269945	-0.435504
C	-0.035970508	 0.005632836	 0.0153555827	 0.213964
C	 1.0253570787	-0.6145696796	-0.7423298811	 0.257038
N	 1.8844193036	-1.1183264934	-1.3314125764	-0.331866
C	-0.4730980224	-0.7540381317	 1.2660387834	-0.029636
O	-1.1634972529	 0.0401612519	 2.2049508625	-0.208862
C	-2.3066828218	 0.4323835713	 1.5718385811	 0.117408
N	-2.5261022614	 0.0085849801	 0.3939899117	-0.243884
C	-1.3687411404	-0.7647494612	 0.0383242877	-0.088388
H	 0.5656735623	 1.7285601579	 0.6198158356	 0.303901
H	 0.1076439407	-1.5567147993	 1.7002218356	 0.144888
H	-2.9491448564	 1.0790599602	 2.1545907779	 0.161784
H	-1.4998842759	-1.5924805509	-0.6459889461	 0.139156
133.0189	148.0887	219.9173	254.3764	304.6966	419.6704	481.4523	530.2919	590.5495	636.6533	720.8466	757.2988	866.2817	890.4723	906.6819	946.0091	1017.0571	1024.7071	1078.2679	1094.1734	1106.4272	1159.0394	1259.4077	1272.8796	1319.571	1349.3852	1372.0391	1665.9985	2344.3963	3205.4374	3212.9914	3249.0703	3786.6029
OC1(C#N)C2OC=NC12	O[C@@]1(C#N)[C@H]2OC=N[C@@H]12	
InChI=1S/C5H4N2O2/c6-1-5(8)3-4(5)9-2-7-3/h2-4,8H	InChI=1S/C5H4N2O2/c6-1-5(8)3-4(5)9-2-7-3/h2-4,8H/t3-,4+,5-/m1/s1
