14
gdb 131699	2.98651	1.3583	0.93908	3.2162	70.05	-0.2676	-0.103	0.1646	1155.4043	0.100268	-469.96973	-469.961884	-469.96094	-470.002943	28.405	
O	 0.1422297852	 1.378289028	-0.0385537205	-0.413414
C	 0.0413683785	-0.0093850787	-0.0394986589	-0.122865
C	-1.3841230054	-0.4937018218	-0.0173120324	 0.283194
N	-2.3185292457	 0.3871368541	-0.0001849725	-0.344442
C	-3.6387144002	-0.0396701945	 0.0204808538	 0.462329
N	-4.6045252921	 0.7702138671	 0.038109298	-0.502023
O	-3.8932455054	-1.4276198132	 0.0214412474	-0.270728
N	-2.8857327933	-2.3661859966	 0.0030537669	-0.029314
C	-1.6841185472	-1.9151200565	-0.0154916509	-0.014509
H	-0.7664978172	 1.7193459091	-0.0229197128	 0.307768
H	 0.5317223508	-0.4437636307	-0.9288776508	 0.126252
H	 0.5601896712	-0.4472022146	 0.8318897519	 0.126249
H	-5.4944103772	 0.27182899	 0.0515505511	 0.240543
H	-0.902937812	-2.6682266117	-0.0298329405	 0.15096
51.3288	120.0548	181.9273	193.8083	337.0261	397.3536	414.3399	469.6855	592.9709	607.1691	608.7218	719.1701	757.1232	867.5577	873.0083	894.1715	931.4717	1011.5536	1012.6291	1092.5466	1125.304	1201.4749	1248.7803	1274.0589	1332.8968	1367.771	1461.4568	1491.5685	1622.709	1700.968	1751.4867	2955.4871	2965.2982	3192.9579	3504.2222	3682.5535
OCC1=NC(=N)ON=C1	OC[C]1N=C([NH])ON=C1	
InChI=1S/C4H5N3O2/c5-4-7-3(2-8)1-6-9-4/h1,5,8H,2H2	InChI=1S/C4H5N3O2/c5-4-7-3(2-8)1-6-9-4/h1,5,8H,2H2
