19
gdb 119721	3.66788	0.96732	0.87086	2.2176	72.34	-0.2356	0.0586	0.2943	1380.0757	0.157648	-460.092929	-460.08379	-460.082846	-460.127376	33.204	
C	-0.4371280579	 1.4539753603	-0.5166378794	-0.222094
O	-0.6314941171	 0.0673564862	-0.6649193368	-0.234472
C	-0.7889581489	-0.6012922062	 0.5718189208	-0.20266
C	-0.9093679176	-2.0681252235	 0.3251606024	 0.231427
C	 0.0318172878	-2.9030235963	-0.5356483948	-0.143369
O	-1.0680068043	-3.7521854727	-0.9901132635	-0.30899
C	-2.0125794588	-2.9236706144	-0.2993027655	-0.009431
C	-1.7451451768	-3.0277223905	 1.1635491335	 0.052252
O	-1.2362375818	-4.1930122319	 1.7251141786	-0.437286
H	-0.3194645271	 1.8763347534	-1.5173371406	 0.129856
H	-1.2966645372	 1.9374890316	-0.0256791725	 0.104562
H	 0.4648288006	 1.6803746549	 0.0740649475	 0.105196
H	 0.0769269641	-0.3942899659	 1.2264321721	 0.094482
H	-1.6825178125	-0.2299128081	 1.102414414	 0.089747
H	 0.4480154694	-2.3446940683	-1.3779427413	 0.130256
H	 0.8129176945	-3.4753635322	-0.0232493685	 0.109778
H	-2.9488313983	-2.6979316846	-0.7974108058	 0.107674
H	-2.4632059638	-2.5347004935	 1.8139944454	 0.106157
H	-1.0782520645	-4.7939678183	 0.9833706746	 0.296915
66.9815	88.2432	113.5015	224.3172	226.727	255.8667	291.6206	341.9129	344.9072	451.0468	552.8007	661.6775	690.775	787.7836	826.4973	912.7104	947.0659	968.3114	989.4621	998.6226	1029.2364	1066.1334	1090.3384	1146.1205	1151.0869	1165.9511	1184.4968	1217.6828	1225.8563	1263.415	1273.8586	1313.9573	1320.6852	1392.184	1421.0857	1472.6263	1482.4266	1485.2479	1500.1621	1508.867	1519.8527	2939.4195	2967.631	2971.38	3013.3515	3040.8433	3107.1565	3116.178	3150.7287	3177.6957	3743.11
COCC12COC1C2O	COC[C@]12CO[C@H]1[C@H]2O	
InChI=1S/C6H10O3/c1-8-2-6-3-9-5(6)4(6)7/h4-5,7H,2-3H2,1H3	InChI=1S/C6H10O3/c1-8-2-6-3-9-5(6)4(6)7/h4-5,7H,2-3H2,1H3/t4-,5+,6-/m1/s1
