18
gdb 99357	7.22692	0.56989	0.53491	1.3308	75.39	-0.2485	0.0109	0.2594	1993.9462	0.145039	-439.07816	-439.067527	-439.066582	-439.116079	35.935	
N	 0.3147248201	 1.3097391521	-0.0409983755	-0.485106
C	-0.0090651632	-0.1032019913	 0.0283605432	-0.274166
C	-1.4986819839	-0.4319090489	-0.0355924301	 0.413845
O	-2.3829004378	 0.3805167418	-0.1345576795	-0.354249
O	-1.7019399742	-1.7632575104	 0.0339260644	-0.240923
C	-3.07249443	-2.1946975418	-0.0164778078	-0.057233
C	-3.0562280533	-3.7214442601	 0.0781866985	-0.355684
C	-4.4026790109	-4.2762338194	 0.0366953617	 0.283145
C	-5.5239914609	-4.7059861059	 0.000155922	-0.437864
H	-0.0751307422	 1.6970707	-0.8960311449	 0.236482
H	-0.1708288543	 1.7975683937	 0.7069169006	 0.23656
H	 0.4896885766	-0.6422263253	-0.7857344209	 0.13902
H	 0.390816079	-0.5341834091	 0.9538321809	 0.139052
H	-3.6300773564	-1.7486595523	 0.8115642406	 0.135188
H	-3.5312411729	-1.85684424	-0.9497092718	 0.135162
H	-2.4542918399	-4.1245464211	-0.7449847345	 0.142864
H	-2.5525799785	-4.0169948227	 1.0063124965	 0.142867
H	-6.5102693171	-5.0982002492	-0.0311035533	 0.201039
28.7615	47.0205	56.499	82.8354	154.9858	181.6617	219.2137	289.5247	309.9022	352.9521	428.519	548.7812	575.4918	629.1801	655.6218	695.9916	784.5455	889.0542	920.613	943.0973	983.9972	1015.4229	1076.3619	1083.9078	1154.7706	1179.457	1214.7076	1229.9968	1295.6128	1307.9402	1372.1505	1389.1214	1412.6591	1455.5599	1476.7452	1514.0351	1678.8527	1821.9995	2244.3917	3033.2692	3042.2666	3065.1133	3066.274	3077.7494	3116.1239	3494.0077	3506.9162	3561.1704
NCC(=O)OCCC#C	NCC(=O)OCCC#C	
InChI=1S/C6H9NO2/c1-2-3-4-9-6(8)5-7/h1H,3-5,7H2	InChI=1S/C6H9NO2/c1-2-3-4-9-6(8)5-7/h1H,3-5,7H2
