16
gdb 29883	3.23154	1.40192	0.98536	8.8009	76.15	-0.217	-0.0112	0.2058	1142.0046	0.126448	-434.121705	-434.113629	-434.112685	-434.154276	30.42	
C	-0.0920682592	 1.4848804385	 0.0087515192	-0.361468
N	-0.0050468785	 0.03228357	 0.0277331434	-0.118676
C	 0.0120857122	-0.6884363017	-1.1487414598	 0.096001
N	 0.0323745384	-1.9598322259	-1.2696382844	-0.326776
C	 0.041150879	-2.7666317455	-0.0946388198	 0.379459
O	 0.0544194284	-3.9795092698	-0.1777449324	-0.375737
C	 0.0491691907	-2.0412133737	 1.1665351791	-0.326258
C	 0.017563562	-0.6846608075	 1.2140908803	 0.422742
N	-0.073609273	 0.0642809109	 2.3813015311	-0.588499
H	 0.828104368	 1.9537386892	 0.3783792283	 0.13935
H	-0.2420880573	 1.8096504146	-1.0216816996	 0.154201
H	-0.9343411871	 1.8291017682	 0.614626189	 0.162462
H	 0.0041582788	-0.0592656248	-2.0392848397	 0.1229
H	 0.0820819356	-2.6164863278	 2.0838908927	 0.098002
H	 0.0395005903	-0.5012447913	 3.2110985762	 0.265971
H	 0.5146143018	 0.8859950366	 2.4217243465	 0.256324
89.5076	179.2987	180.4027	228.8007	322.9269	347.6513	372.1911	453.7431	456.602	564.6093	588.0069	630.247	722.5285	763.3092	768.4332	797.9597	855.4431	904.4406	959.3576	1063.6782	1124.2161	1149.8409	1197.8759	1236.7392	1267.8714	1342.0334	1429.1692	1454.8756	1484.4878	1491.674	1525.4485	1606.0417	1656.1052	1717.6038	1774.069	3025.3317	3097.7259	3123.4259	3145.5858	3202.9328	3552.3877	3649.7794
CN1C=NC(=O)C=C1N	Cn1cnc(=O)cc1N	
InChI=1S/C5H7N3O/c1-8-3-7-5(9)2-4(8)6/h2-3H,6H2,1H3	InChI=1S/C5H7N3O/c1-8-3-7-5(9)2-4(8)6/h2-3H,6H2,1H3
