20
gdb 110375	3.59213	1.17882	1.10412	2.5879	79.22	-0.2182	0.0632	0.2814	1202.9115	0.171038	-403.0616	-403.053637	-403.052693	-403.094136	31.249	
C	 0.334089181	 1.4251664216	 0.047008334	-0.375189
C	-0.1648155293	-0.0048378872	 0.2343890485	-0.122086
N	 0.6088646928	-0.6869357156	 1.2753572592	-0.087662
C	 0.5638663278	-2.1487266544	 1.1911187873	-0.055857
C	 1.7882951789	-1.3966089014	 0.7532577337	-0.060508
C	 2.5795484844	-1.967910842	 1.9619555518	 0.101039
O	 2.617565673	-1.1737398623	 3.1569406294	-0.28875
C	 1.4231382592	-1.8194235199	 3.6742991091	-0.084754
C	 1.3110748755	-2.720422754	 2.421138088	-0.12004
H	 1.3715507577	 1.437076651	-0.3018408687	 0.119305
H	-0.2783023939	 1.9533159617	-0.6901598827	 0.111319
H	 0.29185985	 1.9704405525	 0.9936558083	 0.132336
H	-1.2110233465	 0.0030841252	 0.5623421983	 0.104004
H	-0.13692521	-0.5448003876	-0.7293954478	 0.079232
H	-0.1958263812	-2.6425384415	 0.5965955485	 0.091464
H	 2.1573503945	-1.1735758017	-0.2415466732	 0.089153
H	 3.5311881261	-2.44919309	 1.7206828621	 0.076706
H	 1.6432727389	-2.3612850107	 4.601677182	 0.093771
H	 0.6090440499	-1.1070975119	 3.8299969597	 0.114233
H	 1.2844357912	-3.801016442	 2.5475695025	 0.082282
97.0689	133.0837	192.2911	232.278	262.0684	365.0769	414.2593	456.5594	583.3476	701.2771	775.813	805.1739	813.4949	827.3221	847.4775	872.4793	918.3505	937.0429	965.7239	974.0599	995.5303	1010.4569	1041.4999	1062.6225	1093.612	1131.6005	1149.4687	1165.6913	1188.3329	1205.3856	1217.521	1265.4491	1286.4461	1303.9583	1317.7275	1353.3108	1365.0196	1392.3694	1413.1915	1488.0174	1494.1913	1497.0618	1512.655	2936.8166	3027.4988	3041.6559	3048.8962	3073.6181	3098.6546	3110.8677	3122.8413	3133.0876	3171.4421	3186.4699
CCN1C2C1C1OCC21	CCN1[C@H]2[C@@H]1[C@H]1OC[C@@H]21	
InChI=1S/C7H11NO/c1-2-8-5-4-3-9-7(4)6(5)8/h4-7H,2-3H2,1H3	InChI=1S/C7H11NO/c1-2-8-5-4-3-9-7(4)6(5)8/h4-7H,2-3H2,1H3/t4-,5+,6+,7-,8?/m0/s1
