17
gdb 108289	2.98242	1.35483	1.08658	4.1223	68.91	-0.238	-0.0379	0.2	1122.9299	0.133743	-458.921381	-458.912921	-458.911977	-458.954832	30.903	
C	 0.1458700809	 1.49059155	-0.0136768465	-0.266952
O	 0.1093053042	 0.0757678724	-0.0838878228	-0.287659
C	 0.575170126	-0.5502066456	 1.0597107007	 0.381023
C	 2.0915800386	-0.5992530017	 1.3430685491	-0.128113
O	 2.0320904232	-2.030796502	 1.5635663674	-0.284519
C	 0.6478040085	-2.106572766	 1.1434521421	-0.09161
C	-0.249055698	-2.0490604957	 2.4002517612	 0.430193
O	-0.7113461397	-2.8691490021	 3.1344340178	-0.286538
C	-0.3134295318	-0.5046046062	 2.3443994294	-0.434953
H	 1.1708469639	 1.8645240303	 0.1230259954	 0.11607
H	-0.2432122818	 1.8665023434	-0.9617588154	 0.138621
H	-0.4783373272	 1.873330997	 0.8061578384	 0.117298
H	 2.7016225324	-0.360068889	 0.4632689011	 0.11244
H	 2.4689353711	-0.0612322464	 2.2193398483	 0.108921
H	 0.4664049741	-2.8147376776	 0.3323075098	 0.101493
H	 0.0534591	 0.0357738296	 3.2205178564	 0.130128
H	-1.3327455044	-0.1741068704	 2.1169021974	 0.144159
75.609	103.5409	175.8112	184.2119	218.3166	333.144	379.3347	386.2454	449.0766	540.2453	602.9537	649.04	762.3393	854.3998	910.6606	913.587	984.1818	1003.7273	1031.8173	1049.186	1073.7937	1140.4923	1143.2171	1168.3619	1181.5795	1183.2511	1209.2777	1239.5631	1256.0598	1293.3417	1363.137	1424.9339	1483.5863	1488.6958	1505.2619	1511.9681	1900.2645	2990.229	3020.6846	3042.9299	3054.5944	3077.9269	3099.7487	3116.4989	3129.3636
COC12COC1C(=O)C2	CO[C@]12CO[C@H]1C(=O)C2	
InChI=1S/C6H8O3/c1-8-6-2-4(7)5(6)9-3-6/h5H,2-3H2,1H3	InChI=1S/C6H8O3/c1-8-6-2-4(7)5(6)9-3-6/h5H,2-3H2,1H3/t5-,6+/m0/s1
