21
gdb 94288	2.87771	1.4262	1.16846	1.9388	81.98	-0.2384	0.0799	0.3183	1138.3445	0.182837	-387.040331	-387.031962	-387.031018	-387.073329	32.457	
C	-0.3607208204	 1.4259435609	 0.0624148722	-0.399203
C	 0.0560814933	-0.0329090872	 0.0213381939	 0.074626
O	 1.2859465038	-0.2118892187	-0.7325101958	-0.298566
C	 1.9686945119	-0.8071565031	 0.3881211831	-0.154655
C	 0.7191300043	-0.6708193506	 1.2532663217	 0.304804
C	 0.7220577779	-0.3401690885	 2.7109400397	-0.13536
C	-0.690477831	-0.0378922939	 3.2296584129	-0.2329
C	-1.1768642517	-1.421441663	 2.6848374443	-0.235004
C	 0.250013702	-1.7194100124	 2.2061484846	-0.132727
H	 0.3863520433	 2.0334811233	 0.5818102717	 0.118221
H	-0.4619726934	 1.8042437257	-0.9599165272	 0.125554
H	-1.3252973456	 1.547302587	 0.5656744945	 0.115807
H	-0.7475054478	-0.6464486218	-0.4118896951	 0.072678
H	 2.2937126752	-1.8346744852	 0.1754272192	 0.098267
H	 2.8413573195	-0.2163743532	 0.6987345897	 0.098379
H	 1.6441693664	-0.0768323467	 3.218270682	 0.084027
H	-0.7299950253	 0.0005786219	 4.3204882017	 0.106337
H	-1.1771528846	 0.8588585082	 2.83646637	 0.100529
H	-1.5121356303	-2.0867129659	 3.4829698137	 0.10604
H	-1.9464371332	-1.404743477	 1.9057511878	 0.098217
H	 0.7486883756	-2.6807106397	 2.2681173152	 0.084928
73.0954	147.5745	163.846	240.8964	247.0294	276.3071	368.18	430.1043	509.3119	571.118	737.2465	777.4528	793.3625	840.0243	842.7568	882.0297	919.7029	962.7244	972.245	984.5586	1016.1331	1019.9122	1042.2855	1075.4163	1084.8543	1091.5547	1121.4211	1144.5861	1162.6014	1188.2614	1220.6887	1243.4203	1256.4016	1259.8324	1286.0562	1290.0051	1356.3112	1377.6345	1402.7579	1455.9505	1478.7316	1487.6351	1491.0956	1505.1774	1526.9304	2988.4617	2997.093	3032.3991	3035.6548	3044.8009	3061.5214	3098.9417	3107.6558	3114.9131	3117.691	3160.303	3171.3922
CC1OCC11C2CCC12	C[C@H]1OC[C@]21[C@H]1CC[C@@H]21	
InChI=1S/C8H12O/c1-5-8(4-9-5)6-2-3-7(6)8/h5-7H,2-4H2,1H3	InChI=1S/C8H12O/c1-5-8(4-9-5)6-2-3-7(6)8/h5-7H,2-4H2,1H3/t5-,6-,7+,8-/m1/s1
