13
gdb 128938	7.15087	0.8011	0.73803	1.9098	65.6	-0.2567	-0.0129	0.2438	1408.8841	0.090514	-448.930434	-448.922596	-448.921651	-448.964632	26.888	
N	-0.063115784	-1.0193399331	 0.5057295356	-0.28052
C	-0.0140850637	 0.0826596692	 0.1656140789	 0.260529
C	 0.0520739375	 1.4715410187	-0.2971369455	-0.279485
N	 1.3999200572	 1.9949818058	-0.1642073306	-0.41136
C	 1.6487056782	 3.3202866683	-0.050259379	 0.576064
N	 2.8121818645	 3.912153698	-0.1291844117	-0.373777
C	 2.4544843991	 5.2132010766	 0.1036850053	 0.057323
N	 1.1881411234	 5.4459309269	 0.3063204674	-0.131211
O	 0.6225610193	 4.139445554	 0.1974555346	-0.222928
H	-0.3191105527	 1.5134477642	-1.3314510993	 0.169896
H	-0.6210992867	 2.0833445308	 0.3097407363	 0.19918
H	 2.1701622755	 1.4391579934	-0.5017672507	 0.285808
H	 3.1690711025	 6.024212887	 0.1217654588	 0.150482
23.4064	77.0384	146.3908	220.9096	292.303	372.1417	439.0657	459.9157	562.3855	630.475	766.9392	776.7361	873.8892	940.8007	950.7154	973.549	996.4637	1018.5828	1130.8993	1205.7861	1259.1942	1277.2588	1353.1206	1395.6569	1463.6944	1487.3881	1573.8435	1679.4199	2375.2241	3007.7617	3101.7756	3254.632	3643.8448
N#CCNC1=NC=NO1	N#CCNc1ncno1	
InChI=1S/C4H4N4O/c5-1-2-6-4-7-3-8-9-4/h3H,2H2,(H,6,7,8)	InChI=1S/C4H4N4O/c5-1-2-6-4-7-3-8-9-4/h3H,2H2,(H,6,7,8)
