16
gdb 17873	3.35269	2.0909	1.97391	2.0687	64.16	-0.239	-0.0152	0.2238	764.4206	0.132719	-383.741301	-383.734968	-383.734024	-383.771648	24.845	
O	 0.0001853099	 0.0368172171	-0.0359203885	-0.325601
C	-0.0152276666	 1.2335711699	-0.0031987857	 0.434073
C	-1.0995296415	 2.3111981578	 0.0863754669	-0.163727
C	-0.0293066366	 3.1624762047	 0.8414209035	-0.240263
C	 1.0421786285	 2.339577606	 0.0572639749	-0.163727
C	 1.1401003776	 2.9287739674	-1.377042483	-0.087104
O	-0.069861308	 3.5697072536	-1.7451267988	-0.244778
C	-1.2519687173	 2.8970770399	-1.344527487	-0.087104
H	-2.065224361	 2.0747167112	 0.535624374	 0.091845
H	-0.0460355327	 4.2373656679	 0.6585536044	 0.120082
H	-0.0119706288	 2.9520447231	 1.9116720802	 0.114301
H	 2.0256514274	 2.1289248686	 0.4800180416	 0.091845
H	 1.9134277007	 3.7020998454	-1.4220923451	 0.1194
H	 1.4079408239	 2.1331232022	-2.0895547195	 0.110679
H	-1.5179009118	 2.0943535669	-2.0497845103	 0.110679
H	-2.0464500779	 3.6496282983	-1.3682663175	 0.1194
138.4614	239.0176	241.3072	396.5922	453.8041	496.8207	533.7864	717.0416	777.3162	818.4185	837.0147	857.8467	894.6893	927.7657	974.4993	1025.1868	1034.6392	1071.2639	1093.8508	1103.2881	1140.211	1150.7664	1225.824	1243.6998	1261.603	1265.5304	1271.671	1305.6535	1375.8231	1409.078	1483.1474	1508.5942	1519.4868	1890.541	2985.0094	2989.0085	3073.4706	3075.2613	3083.3723	3108.9427	3110.0569	3147.5998
O=C1C2CC1COC2	O=C1[C@H]2C[C@@H]1COC2	
InChI=1S/C6H8O2/c7-6-4-1-5(6)3-8-2-4/h4-5H,1-3H2	InChI=1S/C6H8O2/c7-6-4-1-5(6)3-8-2-4/h4-5H,1-3H2/t4-,5+
