20
gdb 104050	3.38968	1.25671	1.13629	3.3164	74.49	-0.2298	0.068	0.2978	1147.4038	0.170982	-440.235186	-440.226565	-440.225621	-440.26817	33.434	
C	 0.1201974291	 1.5176782566	 0.0339065559	-0.437885
C	-0.0419740753	 0.0164194961	 0.1108936958	 0.395256
C	-1.4802932164	-0.4527028469	-0.1279759554	-0.086286
O	-1.852616958	-0.2482252256	-1.4747423339	-0.423362
O	 0.7970841083	-0.6800102223	-0.8892721537	-0.358468
C	 1.3477267923	-1.558278287	 0.1111819802	 0.110623
C	 2.6952379094	-1.0782591383	 0.6882836887	-0.18735
N	 1.9704292474	-0.1805834724	 1.6377097527	-0.317635
C	 0.6641993192	-0.7641735676	 1.2482566541	-0.135709
H	 1.1658775862	 1.7941660315	 0.1733808332	 0.135562
H	-0.2368561485	 1.8782266273	-0.9345033502	 0.131183
H	-0.4745247448	 2.0002863966	 0.8174678694	 0.111177
H	-1.5703000552	-1.5156253969	 0.1546322331	 0.074986
H	-2.1782035585	 0.1170183921	 0.4955044352	 0.10453
H	-1.1242840471	-0.6153544765	-1.9939509145	 0.290166
H	 1.2192724905	-2.6150883648	-0.1308615276	 0.083549
H	 3.254880893	-1.8874006536	 1.1742612258	 0.098101
H	 3.3514711483	-0.5538838783	-0.0132747901	 0.115448
H	 2.2098754499	-0.3397378468	 2.6081860006	 0.223439
H	 0.0448506	-1.1784968631	 2.0462253606	 0.072677
101.5189	136.903	174.3166	206.1213	264.4525	317.5448	357.1384	384.351	429.5128	512.5623	565.7826	661.6924	693.3546	793.1155	810.5929	847.1645	885.837	930.2414	962.7068	970.0208	977.5346	1012.2707	1052.524	1068.3467	1083.1777	1130.4851	1150.0921	1180.496	1192.2434	1211.7593	1226.0241	1278.5449	1292.4445	1328.6574	1350.2873	1377.1682	1397.1692	1408.167	1436.4155	1482.477	1486.3153	1495.4693	1506.127	2955.6051	3019.3268	3043.3113	3067.4244	3080.0054	3084.3277	3094.0962	3113.2645	3150.1109	3556.7444	3758.8986
CC1(CO)OC2CNC12	C[C@@]1(CO)O[C@H]2CN[C@@H]12	
InChI=1S/C6H11NO2/c1-6(3-8)5-4(9-6)2-7-5/h4-5,7-8H,2-3H2,1H3	InChI=1S/C6H11NO2/c1-6(3-8)5-4(9-6)2-7-5/h4-5,7-8H,2-3H2,1H3/t4-,5+,6-/m0/s1
