14
gdb 18188	4.26947	1.84334	1.49802	5.2254	66.04	-0.2548	-0.012	0.2428	823.2749	0.109472	-341.572258	-341.565912	-341.564968	-341.602809	24.343	
N	-0.0363431879	-1.1877027989	-0.1791146717	-0.329028
C	-0.0121398222	-0.0373826913	-0.0730691303	 0.286291
C	-0.0061421592	 1.423523846	 0.0344969802	-0.187175
C	-0.6161453649	 1.9421214739	 1.3374796203	-0.083586
C	 0.2007800093	 2.7851688915	 1.9673489432	-0.045147
C	 1.502592368	 2.9086446873	 1.2474269508	-0.089068
N	 2.2253452409	 1.6075463682	 1.1882978734	-0.311199
C	 1.4034029316	 2.0348830011	 0.0478829685	-0.059018
H	-0.5692661895	 1.811557033	-0.8259762529	 0.132535
H	-1.5905059386	 1.6125415198	 1.6748800358	 0.123892
H	-0.0171565777	 3.2923106611	 2.8989667683	 0.115049
H	 2.0727927951	 3.830771863	 1.2529377103	 0.101647
H	 3.2039825629	 1.7733291323	 0.9599487304	 0.238264
H	 1.8782097321	 2.2743442932	-0.8961593962	 0.106543
119.9975	152.7416	329.9239	369.0134	478.0189	525.0971	573.0596	704.0709	754.0677	798.2475	826.2332	862.7262	891.3531	919.7686	948.5977	977.3456	1003.5373	1043.5657	1075.187	1118.021	1155.2469	1164.5014	1232.6002	1271.2273	1310.9574	1317.3456	1388.8663	1410.2915	1671.6961	2360.8871	3013.2772	3175.2191	3185.6102	3206.7306	3230.5465	3487.1187
N#CC1C=CC2NC12	N#C[C@H]1C=C[C@H]2N[C@@H]12	
InChI=1S/C6H6N2/c7-3-4-1-2-5-6(4)8-5/h1-2,4-6,8H	InChI=1S/C6H6N2/c7-3-4-1-2-5-6(4)8-5/h1-2,4-6,8H/t4-,5-,6+/m1/s1
