17
gdb 126284	3.35259	1.13727	0.90648	3.9504	81.21	-0.2358	-0.0696	0.1663	1289.3423	0.136003	-417.999258	-417.990918	-417.989973	-418.032768	30.817	
C	-0.2642099562	 1.5198438635	-0.0555195056	-0.3764
C	 0.1213019676	 0.0338744385	 0.0596548051	-0.297165
C	 0.8110057317	-0.486462754	-1.1722914105	 0.286957
C	 2.1197795502	-0.7904346301	-1.2401298461	-0.245392
C	 2.713275697	-1.2660800625	-2.4744969336	 0.410879
N	 3.943321631	-1.560770594	-2.5848728604	-0.528407
O	 1.8613373088	-1.3913099013	-3.5697579479	-0.288526
N	 0.5041921882	-1.0948192825	-3.5153682272	-0.068119
C	 0.0453523318	-0.6733585478	-2.391829121	-0.012832
H	 0.6244623881	 2.1426228297	-0.1933501555	 0.132611
H	-0.9313868329	 1.6979168201	-0.9048518189	 0.127144
H	-0.7793749692	 1.8522677275	 0.850033279	 0.127208
H	 0.7752022483	-0.1125769106	 0.9248685562	 0.118749
H	-0.783227204	-0.5606014151	 0.2421260323	 0.119338
H	 2.7925314176	-0.7003541633	-0.3951064936	 0.131915
H	 4.1566183796	-1.8738793781	-3.5331972868	 0.227954
H	-1.0205192876	-0.4616353099	-2.4101458055	 0.134087
61.0686	117.5725	139.9182	203.4614	267.052	315.5725	409.853	447.2242	504.3984	569.6349	650.1586	711.8868	722.3267	791.9525	857.4799	863.0891	918.3322	923.6261	943.1583	972.5919	1010.647	1070.0284	1082.6572	1108.1478	1192.1342	1268.3954	1293.3605	1349.4769	1357.8682	1383.5554	1413.0247	1483.5873	1497.5613	1506.5858	1620.3777	1690.1782	1739.4347	3027.5659	3041.4756	3079.3576	3113.5585	3120.1095	3171.4485	3206.6336	3481.0069
CCC1=CC(=N)ON=C1	CC[C]1C=C([NH])ON=C1	
InChI=1S/C6H8N2O/c1-2-5-3-6(7)9-8-4-5/h3-4,7H,2H2,1H3	InChI=1S/C6H8N2O/c1-2-5-3-6(7)9-8-4-5/h3-4,7H,2H2,1H3
