21
gdb 99108	3.67083	0.91109	0.87414	1.5389	79.45	-0.2596	0.0185	0.2781	1472.0459	0.179559	-424.259923	-424.249705	-424.248761	-424.295852	37.007	
C	-2.9509977401	-3.0385353728	-0.8814906422	-0.370665
C	-1.5473365815	-2.4759194014	-0.6732075333	-0.299361
C	-0.623930256	-2.7506664401	-1.8441096909	 0.43217
O	-0.9213969766	-3.3575324369	-2.8408663613	-0.354781
O	 0.5982497028	-2.2119884299	-1.6115571079	-0.293205
C	 1.596557269	-2.3781595417	-2.6196458358	 0.465818
C	 1.3797770116	-1.516320673	-3.838642822	-0.463929
C	 2.9662658471	-2.5873570145	-2.0462712623	-0.320226
C	 2.2302038903	-3.7337054721	-2.7124317646	-0.29752
H	-3.4193601041	-2.6036667189	-1.7680919645	 0.131524
H	-2.9210209945	-4.1211799728	-1.0273913211	 0.132006
H	-3.5824412618	-2.8226462873	-0.0152198506	 0.110906
H	-1.5671661767	-1.3914812434	-0.5130036152	 0.131327
H	-1.0764352385	-2.8915717238	 0.2257718145	 0.12974
H	 1.2965818435	-0.4621580385	-3.5535694487	 0.120212
H	 2.2255460571	-1.6160409648	-4.5248768396	 0.117782
H	 0.4707361546	-1.8142939413	-4.3659074051	 0.148525
H	 3.8073017052	-2.1342257954	-2.5593191945	 0.114626
H	 3.0489673485	-2.6079283385	-0.9657609057	 0.122418
H	 1.8358884092	-4.5149643812	-2.0738961918	 0.122595
H	 2.558495061	-4.0736382117	-3.6883151074	 0.120039
37.9277	76.1919	99.6842	142.8872	206.327	222.021	261.6698	300.6675	319.2902	399.5015	428.2094	452.9987	587.3701	662.5956	732.6674	765.6648	810.7384	866.605	873.0324	931.5346	941.7	977.1567	1022.5933	1040.3006	1068.9042	1077.4784	1099.1235	1106.5639	1141.2554	1185.7237	1201.0871	1273.1131	1277.1575	1355.2292	1380.5913	1414.6866	1416.4504	1457.1848	1458.9741	1481.3673	1493.8568	1497.4395	1500.2079	1513.2742	1820.9023	3040.9111	3041.6716	3052.1324	3070.9472	3108.9843	3123.4471	3129.0554	3130.6886	3138.2463	3143.5273	3222.0162	3235.8706
CCC(=O)OC1(C)CC1	CCC(=O)OC1(C)CC1	
InChI=1S/C7H12O2/c1-3-6(8)9-7(2)4-5-7/h3-5H2,1-2H3	InChI=1S/C7H12O2/c1-3-6(8)9-7(2)4-5-7/h3-5H2,1-2H3
