17
gdb 48579	3.99523	1.17723	1.0904	1.5732	73.19	-0.244	-0.0364	0.2077	1111.4566	0.136223	-421.843309	-421.835737	-421.834793	-421.875743	29.026	
O	-0.0223031939	-0.0635553977	-0.0516125949	-0.244335
C	 0.0476454033	 1.1212284167	 0.160966966	 0.047463
C	 1.3093271385	 1.9169920057	 0.0871466715	 0.252218
C	 2.6671642178	 1.2839143158	-0.3179697784	-0.274048
C	 3.0398325444	 2.7643458108	-0.6706583379	-0.132116
C	 1.5422425943	 2.9274855989	-1.0933629757	-0.283268
C	 2.9944738225	 3.3932280381	 0.7142205538	 0.441954
O	 3.7582804809	 4.1576728173	 1.2347051644	-0.326107
C	 1.6952473603	 2.7876318905	 1.3057307217	-0.397823
H	-0.861215126	 1.7131690744	 0.4200428477	 0.074147
H	 3.2476232858	 0.7733737957	 0.4539433308	 0.11536
H	 2.580145145	 0.6557165434	-1.2055456364	 0.127142
H	 3.8707637032	 3.0378839845	-1.3161522498	 0.091033
H	 1.3434031691	 2.476707505	-2.0673340432	 0.125582
H	 1.0859587268	 3.9186048682	-1.0259204014	 0.114321
H	 0.966478825	 3.5665285905	 1.5504718531	 0.130835
H	 1.903861343	 2.2097486725	 2.2108400487	 0.137642
67.9492	127.2561	203.4902	259.7093	376.4867	419.7682	470.1605	493.8598	613.849	622.8311	713.4892	769.0228	812.1879	820.7172	890.1525	941.4842	950.6138	968.9337	1009.878	1018.3762	1047.978	1073.4079	1125.8699	1140.9376	1176.1721	1207.3491	1215.1511	1232.281	1232.3026	1280.3457	1327.2172	1425.2809	1461.4905	1487.9231	1523.9995	1821.5157	1875.7244	2859.7096	3057.39	3063.2734	3074.0142	3107.6042	3131.646	3140.4864	3155.6899
O=CC12CC(C1)C(=O)C2	O=C[C@@]12C[C@@H](C1)C(=O)C2	
InChI=1S/C7H8O2/c8-4-7-1-5(2-7)6(9)3-7/h4-5H,1-3H2	InChI=1S/C7H8O2/c8-4-7-1-5(2-7)6(9)3-7/h4-5H,1-3H2/t5-,7-
