18
gdb 92114	2.73719	1.69812	1.41921	2.3647	70.53	-0.2111	0.0688	0.2799	965.7552	0.148855	-439.029692	-439.02222	-439.021276	-439.06112	30.481	
O	-0.0129315272	 1.4763177288	-0.0081992185	-0.433817
C	 0.0104429901	 0.0475085083	 0.0069256251	 0.074385
C	 0.6359950185	-0.561488222	 1.2991145485	-0.199511
N	-0.4835339813	-0.9429507224	 2.1809162977	-0.121406
C	-1.3415168098	 0.2750229109	 2.4710253165	-0.246995
C	-2.2505456868	-0.1284488199	 1.3211711531	 0.384554
O	-3.6091123718	 0.0914978984	 1.2352490857	-0.467123
C	-1.409005781	-0.4793925572	 0.0869360985	-0.127662
C	-1.5365925304	-1.443811673	 1.2431568316	-0.1063
H	 0.8915235037	 1.7853104794	-0.1218386781	 0.281704
H	 0.5175985497	-0.3230338163	-0.8962715062	 0.063056
H	 1.2026365043	-1.466800046	 1.0530526092	 0.102507
H	 1.3074193092	 0.1394098205	 1.8047366642	 0.098027
H	-1.8298593907	 0.1629844347	 3.4436069	 0.10888
H	-0.82295215	 1.2352813714	 2.4085313775	 0.109245
H	-3.7481328824	 0.9494514007	 0.8186273845	 0.290337
H	-1.9891912965	-0.6568100176	-0.8111219811	 0.091813
H	-1.8624872375	-2.4754660086	 1.2144319516	 0.098305
156.6972	189.3653	295.244	297.0544	344.9835	386.3655	428.4636	446.5495	524.7474	589.5346	667.9483	739.4744	795.5721	831.9205	856.1403	884.4404	920.2103	949.6383	983.8355	996.5869	1013.2993	1038.0545	1046.0058	1095.6529	1124.1752	1165.7063	1192.5531	1209.9455	1248.1306	1255.1537	1259.8463	1298.4985	1311.7495	1323.5138	1344.0663	1421.3584	1454.8036	1477.1973	1507.3107	2984.0599	3037.6376	3048.4401	3092.1931	3109.8431	3186.9023	3198.975	3794.6395	3815.294
OC1CN2CC3(O)C1C23	O[C@H]1CN2C[C@@]3(O)[C@@H]1[C@@H]23	
InChI=1S/C6H9NO2/c8-3-1-7-2-6(9)4(3)5(6)7/h3-5,8-9H,1-2H2	InChI=1S/C6H9NO2/c8-3-1-7-2-6(9)4(3)5(6)7/h3-5,8-9H,1-2H2/t3-,4-,5+,6+/m0/s1
