20
gdb 38909	3.45921	1.48063	1.1695	1.4994	85.09	-0.2232	0.0194	0.2426	1090.2209	0.174837	-366.004211	-365.997184	-365.99624	-366.035507	29.195	
C	-0.0770693697	 1.4626348319	-0.1497797174	-0.244462
C	 1.3506543556	 1.9363954387	 0.2573296143	-0.239013
C	 2.2404109986	 0.7354848491	-0.1058561971	-0.026073
C	 3.4949829776	 0.3237136777	 0.7066292925	-0.259959
C	 3.4205457632	-1.2121362204	 0.7528175117	-0.026203
N	 2.4760198701	-1.7101045118	 1.7711428208	-0.328438
C	 2.056829796	-1.6653976939	 0.3381404747	-0.220436
C	 1.282551113	-0.4351575195	 0.0363624873	 0.425121
C	 0.0108479493	-0.0480570573	-0.0044050944	-0.243545
H	-0.8604744631	 1.9027374882	 0.4770466581	 0.101066
H	-0.312965911	 1.7521848639	-1.1851300376	 0.100637
H	 1.6437234966	 2.872845304	-0.225726913	 0.088734
H	 1.3800642519	 2.0937061575	 1.3418845659	 0.104812
H	 2.5389287492	 0.8065670806	-1.1644603709	 0.073549
H	 4.4237982136	 0.6660555203	 0.2416700325	 0.092873
H	 3.4605178572	 0.7205475692	 1.7265840045	 0.111779
H	 4.3053762355	-1.8026005828	 0.5364659298	 0.084253
H	 2.7144981197	-2.6737656455	 2.0013372822	 0.226716
H	 1.8833817332	-2.6029052855	-0.1795379806	 0.090996
H	-0.8618180864	-0.6867076345	 0.0718243865	 0.087594
126.1689	155.4282	296.0619	350.8357	410.0697	438.3891	564.2423	587.5066	670.9173	713.5329	789.2113	807.5964	834.371	853.8398	875.8788	896.7709	912.4101	940.2115	954.1994	967.4179	995.0697	1033.6308	1082.4922	1090.702	1123.7422	1153.3336	1160.6284	1179.2811	1208.0101	1220.2174	1235.8984	1265.0694	1290.4158	1306.8898	1309.6527	1341.9132	1354.819	1368.749	1398.9294	1480.2707	1485.5827	1496.4962	1739.1188	2963.1631	2993.3862	3037.8464	3047.9524	3060.5751	3092.0564	3096.1234	3154.6605	3166.3599	3194.12	3472.5061
C1CC2CC3NC3C2=C1	C1C[C@H]2C[C@H]3N[C@H]3C2=C1	
InChI=1S/C8H11N/c1-2-5-4-7-8(9-7)6(5)3-1/h3,5,7-9H,1-2,4H2	InChI=1S/C8H11N/c1-2-5-4-7-8(9-7)6(5)3-1/h3,5,7-9H,1-2,4H2/t5-,7+,8-/m0/s1
