18
gdb 30853	2.7583	1.22233	0.89824	1.7759	77.09	-0.1655	0.0588	0.2243	1300.2171	0.147842	-435.27642	-435.266427	-435.265483	-435.311712	35.845	
C	 0.3936569246	 0.9759020967	-0.4416886751	-0.321689
N	-0.3145067968	 0.3763606162	 0.6977578016	-0.393218
C	-1.3325130256	-0.5338256665	 0.3623217887	 0.177398
C	-1.3211200778	-1.8258605747	-0.1146443247	 0.285598
O	-0.1651219617	-2.5174322342	-0.3690051013	-0.462637
C	-2.6666699712	-2.2716174864	-0.2571301151	-0.363586
C	-3.4776167893	-1.2183881021	 0.1262915117	 0.300111
N	-4.8794738545	-1.0545177561	 0.1372464298	-0.610093
N	-2.6723833571	-0.1830439566	 0.4964580045	-0.296422
H	 1.1569331602	 1.6653290663	-0.0659317869	 0.108614
H	 0.8770737657	 0.2381881395	-1.0982977494	 0.118282
H	-0.3154905384	 1.5525499586	-1.0431226655	 0.120578
H	 0.3555866799	-0.0546227246	 1.3246701657	 0.230342
H	-0.4005755263	-3.4028455413	-0.6584556353	 0.292597
H	-3.0020191039	-3.2468205839	-0.5797056576	 0.074162
H	-5.2715169398	-1.1491132969	 1.070380398	 0.241644
H	-5.322264632	-1.7508906211	-0.4497854877	 0.243165
H	-2.989248796	 0.732064877	 0.7668503188	 0.255155
41.3708	111.6703	131.2991	167.7356	179.9556	222.7165	267.9404	290.8929	315.432	418.2768	452.3817	520.2606	598.7911	637.9816	665.552	683.8227	712.95	753.7379	819.2194	839.1201	1032.1044	1033.5685	1114.2417	1142.655	1158.3478	1169.7523	1194.0409	1254.2856	1276.4329	1358.783	1444.9119	1468.606	1480.9163	1488.1183	1503.5827	1518.4823	1567.6566	1648.5697	1678.6803	2996.785	3070.3929	3105.1791	3228.529	3483.2961	3523.8147	3591.1917	3680.1917	3850.842
CNC1=C(O)C=C(N)N1	CNc1c(O)cc(N)[nH]1	
InChI=1S/C5H9N3O/c1-7-5-3(9)2-4(6)8-5/h2,7-9H,6H2,1H3	InChI=1S/C5H9N3O/c1-7-5-3(9)2-4(6)8-5/h2,7-9H,6H2,1H3
