15
gdb 23307	3.05469	1.3115	0.96835	3.1351	76.02	-0.2002	-0.0241	0.1762	1157.5742	0.112976	-453.890337	-453.882557	-453.881613	-453.922393	30.344	
N	 0.0900429207	 1.359430002	 0.1284452731	-0.5965
C	-0.0319729878	-0.0013773607	 0.0361335805	 0.37529
C	-1.1535200546	-0.7640203309	-0.0376580573	-0.317048
C	-0.7919769683	-2.1728366295	-0.0124143805	 0.4299
N	-1.4986266319	-3.2419694533	 0.0110714538	-0.267964
O	-2.8713004673	-2.940084591	-0.0140149308	-0.39323
C	 0.7053158867	-2.2612973334	 0.0096058823	-0.05424
O	 1.3439596219	-1.6578552946	-1.1335205738	-0.252842
C	 1.191436941	-0.8771813365	 0.0643840899	-0.07147
H	 0.9457917166	 1.7668708375	-0.216159297	 0.261522
H	-0.730595346	 1.9093671447	-0.076754958	 0.261076
H	-2.1674399746	-0.4084368798	-0.1461659091	 0.107658
H	-3.2710661894	-3.8154867019	 0.0139274233	 0.305399
H	 1.2145641672	-3.1142009509	 0.4435186425	 0.109906
H	 2.1078245757	-0.5607539618	 0.554991391	 0.102543
134.6788	190.7548	194.2434	298.9317	366.1729	383.8309	406.0872	430.5588	491.275	520.0686	600.8799	664.0804	696.2289	720.4525	827.2852	845.0636	859.0914	910.5983	914.8699	985.791	1015.5413	1082.6857	1101.5707	1234.0618	1238.4141	1263.1788	1307.5142	1374.8689	1408.6919	1426.0213	1631.908	1678.0244	1727.4642	3154.6848	3188.6453	3242.3632	3572.9285	3679.2159	3821.9208
NC1=CC(=NO)C2OC12	NC1=CC(=NO)[C@H]2O[C@@H]12	
InChI=1S/C5H6N2O2/c6-2-1-3(7-8)5-4(2)9-5/h1,4-5,8H,6H2	InChI=1S/C5H6N2O2/c6-2-1-3(7-8)5-4(2)9-5/h1,4-5,8H,6H2/t4-,5+/m0/s1
