20
gdb 122100	3.07135	0.72865	0.60805	4.1285	77.83	-0.262	0.0156	0.2775	1827.4432	0.168035	-440.272734	-440.261831	-440.260887	-440.309947	36.662	
C	-0.0800002415	 1.3753572415	 0.1414223777	-0.230149
O	-0.0490721274	-0.0285748715	 0.0404390386	-0.23163
C	 0.6522284705	-0.481067081	-1.0943604018	-0.062433
C	 0.6535588104	-2.0055693594	-1.0569139884	-0.218227
C	 1.309232794	-2.6096054108	-2.3016338229	-0.030267
O	 2.6537833136	-2.1910558419	-2.3455428136	-0.231538
C	 3.3294758875	-2.5226117946	-3.5468843457	-0.249626
C	 1.2070422876	-4.0888995273	-2.2833155977	 0.27468
N	 1.1396007585	-5.2424015233	-2.2788945865	-0.322453
H	 0.932777092	 1.8021868285	 0.2132642118	 0.106515
H	-0.585343312	 1.8364194035	-0.7222240957	 0.104129
H	-0.6344641074	 1.6251806608	 1.0489875287	 0.130381
H	 0.1655911624	-0.1211440333	-2.0193703475	 0.081116
H	 1.6834540547	-0.0980529159	-1.0994285143	 0.109737
H	 1.1865823785	-2.353642633	-0.1674899456	 0.136736
H	-0.3771184254	-2.3663634198	-0.9864256601	 0.130589
H	 0.7750831449	-2.2652873925	-3.2043893865	 0.111566
H	 3.3897355696	-3.6094373546	-3.6904488032	 0.137663
H	 2.8329727733	-2.0760982886	-4.4210715318	 0.113141
H	 4.3384082262	-2.1154481867	-3.4610867554	 0.140069
64.2473	69.2059	85.7609	113.5774	134.0481	168.2763	211.9398	227.331	264.928	289.2128	321.6799	419.4376	476.8536	589.7215	610.3662	789.776	882.8003	944.6182	1000.6904	1053.8129	1077.342	1127.8367	1152.1168	1167.4885	1182.1053	1185.042	1216.779	1226.8393	1252.7471	1290.2912	1309.0388	1366.8136	1369.5729	1428.3015	1478.6853	1481.714	1482.4056	1485.0642	1488.5291	1505.2241	1508.0909	1534.4116	2353.6439	2939.3554	2958.2978	2970.8945	2992.794	3009.9496	3015.1807	3055.1031	3064.2134	3113.616	3117.1799	3133.8192
COCCC(OC)C#N	COCC[C@@H](OC)C#N	
InChI=1S/C6H11NO2/c1-8-4-3-6(5-7)9-2/h6H,3-4H2,1-2H3	InChI=1S/C6H11NO2/c1-8-4-3-6(5-7)9-2/h6H,3-4H2,1-2H3/t6-/m1/s1
