14
gdb 130043	3.40474	1.673	1.13039	1.9646	69.78	-0.2313	-0.0275	0.2038	987.8789	0.105625	-429.057702	-429.051014	-429.05007	-429.08856	26.218	
N	 0.004845973	 1.354107282	 0.128409718	-0.575271
C	 0.0175997643	-0.0097283776	 0.0373297379	 0.295302
N	-1.0453966163	-0.748656256	 0.0131949439	-0.324173
C	-0.6632949449	-2.1764180551	-0.0103968481	-0.282246
C	 0.8373080626	-2.1518212543	-0.0171544941	 0.291296
N	 1.9079137082	-2.9333403835	-0.0425082128	-0.313355
N	 2.9040859321	-2.0310928856	-0.025181004	-0.099873
N	 2.5683356579	-0.7370339857	 0.0106064864	-0.336403
C	 1.2411670028	-0.8161260637	 0.0157214755	 0.251027
H	 0.8181262071	 1.8438990722	-0.207572826	 0.265422
H	-0.881009139	 1.7936901073	-0.0708786103	 0.261366
H	-1.0795900888	-2.6911735479	 0.8638126459	 0.137063
H	-1.0902403694	-2.6610539774	-0.8962962984	 0.135864
H	 3.8694330305	-2.3204819847	-0.0378668739	 0.29398
198.6992	235.9501	271.4477	299.4393	407.9686	486.3198	506.6816	531.9846	632.7933	651.4785	656.708	701.413	787.5704	806.7743	954.8863	978.0711	997.9489	1125.9716	1152.5136	1154.9972	1175.0771	1177.0642	1273.1054	1369.3209	1439.4488	1449.9433	1470.1359	1524.7564	1596.6786	1615.3677	1679.1447	3038.2384	3065.9589	3585.3249	3661.2775	3703.6616
NC1=NCC2=NNN=C12	NC1=NCc2n[nH]nc12	
InChI=1S/C4H5N5/c5-4-3-2(1-6-4)7-9-8-3/h1H2,(H2,5,6)(H,7,8,9)	InChI=1S/C4H5N5/c5-4-3-2(1-6-4)7-9-8-3/h1H2,(H2,5,6)(H,7,8,9)
