19
gdb 47049	2.79915	1.48988	1.24306	2.6736	73.81	-0.2384	-0.0144	0.224	1058.4846	0.160792	-423.045116	-423.037405	-423.036461	-423.077865	29.794	
O	 0.1105804884	 0.2622191573	 0.8546729545	-0.315539
C	 0.0462055425	 1.2479686972	 0.1586632988	 0.392127
C	-1.2603901909	 2.0084663001	-0.0445250494	-0.305812
C	-1.2640198022	 2.9224743211	-1.2760123832	-0.243747
C	-0.0985104571	 3.9007059814	-1.2330823983	 0.135018
O	-0.1184426553	 4.724432809	-0.0405396776	-0.294282
C	 1.1682607456	 4.2300479995	 0.3873848669	-0.084929
C	 1.2729703669	 3.2901795074	-0.8339160705	-0.07596
C	 1.2746087139	 1.7832909009	-0.5789299343	-0.332972
H	-2.0797173192	 1.2848724371	-0.053059007	 0.125263
H	-1.401226724	 2.6300980902	 0.8493511167	 0.14968
H	-1.195430013	 2.3351972035	-2.2013830607	 0.103133
H	-2.2046771363	 3.4815099361	-1.3271435423	 0.116257
H	-0.0790661519	 4.5238387135	-2.1357367858	 0.074621
H	 1.9182594538	 5.0286113401	 0.4347203188	 0.105873
H	 1.1141466792	 3.7381454802	 1.3678506864	 0.10722
H	 2.0877912235	 3.5529513558	-1.5113877896	 0.085533
H	 2.1674812626	 1.4581587008	-0.0364487498	 0.128289
H	 1.2968863334	 1.2586409988	-1.5459763237	 0.130227
53.2127	111.1074	206.4743	295.675	350.0108	403.382	472.8273	477.5846	569.2944	595.4877	705.3074	777.3598	814.6345	842.3792	873.3642	912.3924	948.7773	989.5131	1018.7513	1028.7829	1071.1328	1081.4684	1095.8747	1159.6727	1162.4974	1182.8954	1214.801	1230.6727	1282.8204	1291.9122	1308.724	1334.0952	1362.5455	1363.9965	1383.821	1391.1845	1442.9633	1448.6583	1477.734	1525.8858	1814.943	3006.5892	3008.2852	3017.6723	3032.0987	3038.2042	3050.7485	3074.6973	3085.7554	3089.4462	3101.2819
O=C1CCC2OCC2C1	O=C1CC[C@H]2OC[C@H]2C1	
InChI=1S/C7H10O2/c8-6-1-2-7-5(3-6)4-9-7/h5,7H,1-4H2	InChI=1S/C7H10O2/c8-6-1-2-7-5(3-6)4-9-7/h5,7H,1-4H2/t5-,7-/m1/s1
