13
gdb 132825	2.99005	1.55055	1.02106	1.9293	78.38	-0.2449	-0.052	0.1929	1062.9221	0.089293	-423.596309	-423.589184	-423.58824	-423.627963	27.181	
F	 0.0041677272	 0.0347456386	 0.0034583925	-0.057155
C	-0.0239750228	 1.3648968278	 0.0106792567	 0.23091
C	-1.2380959276	 2.0278843206	 0.0299015448	-0.208216
C	-1.2155685028	 3.4176894568	 0.036763804	-0.110303
C	 0.0199829402	 4.0635293634	 0.0240011847	-0.016426
N	 1.1874613724	 3.4252535146	 0.005514315	-0.309564
C	 1.1812927927	 2.081494804	-0.0013288192	 0.034509
C	 2.4287268938	 1.3888581837	-0.02113988	 0.245511
C	 3.4722418248	 0.7908332911	-0.0377809201	-0.368149
H	-2.1600627442	 1.4583110075	 0.0389753558	 0.127467
H	-2.1367024772	 3.9888041389	 0.05169955	 0.116027
H	 0.0717349798	 5.1490248258	 0.0289196198	 0.115174
H	 4.3987035636	 0.2712676772	-0.052427334	 0.200216
120.435	141.8707	246.072	363.8387	380.3636	474.5817	496.2256	556.2442	586.0033	604.6743	620.5641	661.8179	735.5253	795.6428	831.6044	869.3939	954.0271	985.3697	1072.8799	1121.122	1191.9263	1279.1287	1300.3825	1309.767	1470.7797	1486.0672	1600.9325	1630.6991	2234.6723	3164.2176	3197.1773	3212.0191	3499.2354
FC1=CC=CN=C1C#C	Fc1cccnc1C#C	
InChI=1S/C7H4FN/c1-2-7-6(8)4-3-5-9-7/h1,3-5H	InChI=1S/C7H4FN/c1-2-7-6(8)4-3-5-9-7/h1,3-5H
