16
gdb 12983	2.73282	2.64444	1.62716	4.3273	64.18	-0.261	0.0134	0.2744	814.5164	0.131453	-383.781086	-383.773999	-383.773054	-383.812189	26.816	
C	-0.0697254202	 1.5331400198	-0.004069444	-0.480388
C	 0.0589294936	 0.0326106405	 0.0341838644	 0.179416
C	-0.7912081365	-0.8286988397	 0.9560715386	-0.319725
C	 0.6980150336	-0.800991809	 1.1222267788	-0.108507
C	 1.453557118	-1.9071427095	 0.4080380164	-0.100262
O	 1.0608855573	-1.8387695654	-0.9733330401	-0.232826
C	 0.401098039	-0.6721114904	-1.247301076	 0.414028
O	 0.1650298686	-0.3199979941	-2.3671465658	-0.348691
H	 0.8736074842	 2.0073115454	-0.292907988	 0.12988
H	-0.8257490152	 1.8259203351	-0.7383549708	 0.146965
H	-0.3651557813	 1.9259974804	 0.9729683344	 0.116127
H	-1.3852591997	-0.2876049001	 1.6844756475	 0.123917
H	-1.262802874	-1.7233978013	 0.5609830119	 0.131213
H	 1.1410189869	-0.349134646	 2.001305964	 0.104491
H	 2.5382029795	-1.7619981748	 0.4683137868	 0.120825
H	 1.2123848361	-2.9097136307	 0.7749621918	 0.123537
144.1337	170.9692	211.6714	264.4086	294.1712	406.7961	487.7632	576.7075	691.55	713.1527	780.5646	835.1261	846.318	889.8133	956.1195	983.1815	1020.5757	1056.7457	1061.7128	1092.4616	1115.411	1121.8716	1141.7716	1234.447	1280.3301	1318.2448	1381.6241	1410.4183	1422.4612	1483.4774	1493.5532	1500.4319	1519.9319	1874.9197	3037.6454	3040.5963	3083.3644	3107.6032	3117.912	3126.3051	3188.5903	3216.3512
CC12CC1COC2=O	C[C@]12C[C@H]1COC2=O	
InChI=1S/C6H8O2/c1-6-2-4(6)3-8-5(6)7/h4H,2-3H2,1H3	InChI=1S/C6H8O2/c1-6-2-4(6)3-8-5(6)7/h4H,2-3H2,1H3/t4-,6-/m0/s1
