18
gdb 74156	2.84915	1.41704	1.03014	5.916	82.31	-0.2145	-0.0104	0.204	1152.3247	0.148591	-401.985333	-401.97714	-401.976196	-402.017947	32.346	
N	 0.083723438	 1.3418823372	-0.0972892929	-0.594711
C	 0.0010554834	-0.0165331019	-0.0319135834	 0.340436
C	-1.1288219402	-0.7734863293	-0.0265492726	-0.340327
C	-0.8011306415	-2.1898913583	-0.0087102996	 0.385288
O	-1.5583518989	-3.1394903095	 0.0036129289	-0.36531
C	 0.7399486646	-2.302709837	-0.0005064524	-0.429463
C	 1.2328733031	-0.8618172629	-0.0223289651	 0.288941
C	 2.4684885352	-0.4319177442	-0.7873472727	-0.307894
C	 2.4806707235	-0.4166024476	 0.7148810586	-0.319638
H	 0.9376534529	 1.7934408602	 0.1855251615	 0.258567
H	-0.7521132556	 1.8766846985	 0.0744221294	 0.265749
H	-2.1450118914	-0.4011366677	-0.03278982	 0.089606
H	 1.0593828525	-2.8506337481	 0.8914491505	 0.124995
H	 1.0675877521	-2.8780154002	-0.8719112366	 0.126238
H	 3.0266316919	-1.2086542493	-1.2985921116	 0.126331
H	 2.4361948015	 0.5149518336	-1.3163176874	 0.117835
H	 2.4735960897	 0.5400289141	 1.2293855742	 0.106132
H	 3.0420084391	-1.1851828577	 1.2349638412	 0.127225
69.4408	166.7848	251.6083	261.4062	331.5732	350.0222	366.3512	466.39	492.5846	535.806	573.4103	599.9259	686.6066	715.2793	781.1	837.8593	848.6009	851.4457	921.1183	938.597	995.6059	996.067	1053.5996	1077.3765	1079.787	1175.8812	1178.8219	1192.7787	1222.9551	1260.4199	1298.3966	1334.3958	1434.3741	1464.0149	1472.2449	1501.161	1627.9539	1673.5689	1793.903	3053.8378	3094.8536	3121.4212	3131.3417	3202.6439	3214.9468	3220.7549	3598.6755	3706.0784
NC1=CC(=O)CC11CC1	NC1=CC(=O)CC21CC2	
InChI=1S/C7H9NO/c8-6-3-5(9)4-7(6)1-2-7/h3H,1-2,4,8H2	InChI=1S/C7H9NO/c8-6-3-5(9)4-7(6)1-2-7/h3H,1-2,4,8H2
