16
gdb 63345	2.60367	1.49732	1.19009	1.5804	66.33	-0.2783	-0.0224	0.2559	1058.9382	0.123224	-475.081162	-475.072722	-475.071777	-475.114289	31.578	
C	 0.1710274644	 1.5221632936	 0.0064527244	-0.435367
C	-0.0767061587	 0.0072824542	-0.0542321276	 0.252115
O	-1.4557856352	-0.2902716699	-0.0726836813	-0.470495
C	 0.6478090805	-0.6756363818	-1.2196399106	-0.34084
C	 1.9277396326	-1.1816929895	-0.6003300635	 0.410893
N	 2.9800041881	-1.5222628663	-1.1904311939	-0.511033
O	 1.7692653548	-1.2372967928	 0.7896427608	-0.213353
C	 0.5825038481	-0.6605756991	 1.1610669599	 0.397848
O	 0.1598501057	-0.6950375982	 2.2771909869	-0.338368
H	 1.2390089818	 1.760319492	-0.034489581	 0.131485
H	-0.3283019207	 1.9958158458	-0.8428310544	 0.139413
H	-0.2389633263	 1.9349341678	 0.9326205594	 0.136524
H	-1.7774776506	-0.1924794864	 0.8333989355	 0.295438
H	 0.0483289324	-1.5254068274	-1.5611271003	 0.159134
H	 0.8527978617	-0.0322048864	-2.0751915255	 0.146131
H	 3.6912246813	-1.8411596756	-0.5307318088	 0.240475
64.1277	135.7161	206.744	253.3755	273.8916	332.7809	347.1753	384.7196	422.0612	516.1222	581.3365	617.4991	641.5041	747.4839	758.4024	881.5445	903.7871	921.0342	949.682	987.2247	1040.4308	1096.2518	1109.4608	1144.2248	1203.0576	1235.45	1305.4649	1332.3925	1392.5929	1402.8993	1466.4596	1489.4302	1492.45	1798.5819	1905.3266	3039.0631	3071.3457	3114.6814	3127.9389	3140.9009	3483.9318	3770.4604
CC1(O)CC(=N)OC1=O	C[C@@]1(O)C[C]([NH])OC1=O	
InChI=1S/C5H7NO3/c1-5(8)2-3(6)9-4(5)7/h6,8H,2H2,1H3	InChI=1S/C5H7NO3/c1-5(8)2-3(6)9-4(5)7/h6,8H,2H2,1H3/t5-/m1/s1
