13
gdb 125706	3.11846	1.51565	1.02645	3.446	65.26	-0.2753	-0.0763	0.199	1075.3812	0.087568	-489.88072	-489.872847	-489.871902	-489.913938	28.11	
C	-0.2086372286	 1.4848123578	 0.0286256599	-0.460113
C	-0.0338881698	 0.0079143938	-0.0785231235	 0.438994
N	 0.2566684476	-0.5241768734	-1.1987867213	-0.165223
O	 0.4066351761	-1.9247221405	-1.2250691926	-0.270641
C	 0.2505271728	-2.6947807246	-0.1030582081	 0.286909
N	 0.385015922	-3.9478122784	-0.1271315655	-0.459473
C	-0.0923017476	-2.0089817581	 1.1917237257	 0.37943
O	-0.2569923267	-2.5493988807	 2.235870951	-0.259123
O	-0.2171677446	-0.6381991586	 1.1098128327	-0.225503
H	 0.5062508901	 1.8939288735	 0.7492582428	 0.160107
H	-0.0533374202	 1.9451540741	-0.9463381371	 0.167026
H	-1.2148647516	 1.7162157819	 0.391461726	 0.160092
H	 0.6163571803	-4.2688752269	-1.0701950299	 0.247518
49.5094	99.2667	172.2711	288.2247	296.0605	354.3344	431.919	469.7639	519.849	567.6915	610.3133	668.7715	788.2135	791.5212	914.8586	922.0274	1008.0424	1039.349	1067.0281	1067.7863	1159.7203	1291.5797	1331.5223	1416.9795	1470.6002	1470.7961	1719.4435	1743.6513	1900.7526	3051.8306	3112.9025	3169.8249	3471.6631
CC1=NOC(=N)C(=O)O1	CC1=NO[C]([NH])C(=O)O1	
InChI=1S/C4H4N2O3/c1-2-6-9-3(5)4(7)8-2/h5H,1H3	InChI=1S/C4H4N2O3/c1-2-6-9-3(5)4(7)8-2/h5H,1H3
