27
gdb 120630	4.1619	0.65818	0.62747	0.0856	97.67	-0.2536	0.0851	0.3388	1984.242	0.250225	-353.562915	-353.551385	-353.55044	-353.59985	42.516	
C	 0.2011516223	 1.487451207	 0.2540597006	-0.381912
C	 0.0021779742	-0.0302468457	 0.2651996284	-0.150935
C	-1.3800517281	-0.4612211223	-0.2460259249	-0.206225
C	-1.5590466001	-1.9662383979	-0.2456365407	-0.037315
C	-2.0189924877	-2.7090533695	 0.9907141996	-0.327942
C	-2.8988135599	-2.6767862986	-0.2418594054	 0.347014
C	-4.1843773764	-1.870056516	-0.1935529395	-0.465178
C	-2.9843962271	-3.9586307615	-1.0643512188	-0.237899
C	-3.966708243	-5.0032731158	-0.5189766744	-0.380471
H	 1.1957595524	 1.7636918113	 0.6182238972	 0.109712
H	 0.0926446265	 1.8941878895	-0.7577722798	 0.112181
H	-0.5367385036	 1.9893243512	 0.8903311382	 0.111783
H	 0.7782649315	-0.5062468539	-0.3488855977	 0.092254
H	 0.1436947547	-0.416256324	 1.2826075808	 0.098156
H	-2.149646557	 0.0168102321	 0.371795173	 0.090629
H	-1.5233592633	-0.0712117757	-1.2639506	 0.090816
H	-0.7915231414	-2.478499652	-0.8244177407	 0.072247
H	-1.5271991193	-3.6392442788	 1.2583057862	 0.101529
H	-2.326096017	-2.1130877361	 1.8455701708	 0.100462
H	-4.0788732723	-0.9625986449	 0.4054045148	 0.113786
H	-4.5013074511	-1.5696509362	-1.1999390118	 0.110502
H	-4.999899241	-2.4528319929	 0.247792172	 0.115713
H	-3.2597016417	-3.7044774433	-2.0976351453	 0.090362
H	-1.9853580616	-4.4082644554	-1.1190079463	 0.090009
H	-3.9302876411	-5.9201097542	-1.1158610068	 0.108881
H	-3.7250741565	-5.2667304283	 0.5163403692	 0.115754
H	-4.9995328924	-4.6422136085	-0.5375795985	 0.116087
62.4811	79.0425	82.9193	117.0561	173.7704	194.083	229.3803	246.1056	276.4732	304.5739	310.8532	370.0103	392.0373	465.2058	561.3471	682.3926	745.523	785.574	838.6416	855.1899	875.9742	899.2657	925.3356	950.7388	963.8224	1020.3975	1038.983	1056.2549	1061.5381	1069.1555	1097.035	1123.1316	1134.4044	1159.4141	1195.8659	1254.9788	1274.1526	1282.0234	1307.8368	1330.443	1354.6607	1373.5153	1387.2488	1409.1213	1412.0888	1420.2852	1428.4707	1475.6547	1481.6449	1490.2366	1492.2027	1497.7866	1499.9165	1501.0264	1508.5216	1510.6176	1512.4327	3004.3148	3007.4971	3017.3704	3026.5131	3027.6111	3034.9382	3040.0634	3046.3739	3059.2356	3083.2754	3093.6531	3099.5262	3101.3828	3105.5686	3109.3778	3114.9977	3118.1023	3197.5696
CCCC1CC1(C)CC	CCC[C@H]1C[C@]1(C)CC	
InChI=1S/C9H18/c1-4-6-8-7-9(8,3)5-2/h8H,4-7H2,1-3H3	InChI=1S/C9H18/c1-4-6-8-7-9(8,3)5-2/h8H,4-7H2,1-3H3/t8-,9-/m0/s1
