16
gdb 44428	3.65191	1.44706	1.42052	3.3134	69.5	-0.2599	-0.0166	0.2433	949.6916	0.125462	-437.782305	-437.775576	-437.774631	-437.813272	27.304	
O	-0.163937947	 0.0386292624	 0.3013946218	-0.302151
C	-0.1153473769	 1.2106424931	 0.1257373871	 0.330447
N	-1.1411499821	 2.2339080259	 0.1086267408	-0.389869
C	-0.2707394833	 3.0626694315	-0.7692086006	 0.024282
C	 0.7728048244	 4.2570075248	-0.7611731676	 0.003545
C	 1.064848942	 4.6024001146	 0.6937541239	-0.214274
C	 1.2192227001	 3.1412876753	 1.1949144561	-0.229935
C	 0.9048623237	 2.4067052182	-0.1361221018	 0.207219
O	 1.7825467559	 3.191344793	-1.0658982604	-0.362144
H	-2.0935791291	 1.9794869	-0.1287077212	 0.253336
H	-0.3578195391	 2.755353995	-1.8142153245	 0.112509
H	 0.7471693122	 5.0284878356	-1.5303909756	 0.09448
H	 1.977454688	 5.1931618493	 0.792238908	 0.116321
H	 0.2414797866	 5.1429262709	 1.1677559189	 0.111986
H	 2.2408823438	 2.898255341	 1.4949457394	 0.121267
H	 0.5396999709	 2.8806782394	 2.0064505255	 0.122981
132.6187	205.2193	291.9914	342.5179	453.5025	516.5549	546.2662	603.0959	646.6664	703.0287	747.5653	800.5457	813.6651	837.0177	853.263	927.7415	946.4225	963.0842	996.1371	1003.6964	1047.5932	1112.9152	1123.6051	1150.7988	1177.3239	1232.3802	1245.0218	1256.4853	1281.6782	1304.4082	1336.5431	1423.7123	1471.5185	1495.2615	1913.194	3067.6209	3070.1856	3083.1841	3118.5981	3132.128	3142.2714	3554.526
O=C1NC2C3CCC12O3	O=C1N[C@H]2[C@H]3CC[C@@]12O3	
InChI=1S/C6H7NO2/c8-5-6-2-1-3(9-6)4(6)7-5/h3-4H,1-2H2,(H,7,8)	InChI=1S/C6H7NO2/c8-5-6-2-1-3(9-6)4(6)7-5/h3-4H,1-2H2,(H,7,8)/t3-,4+,6+/m1/s1
