19
gdb 98548	3.50521	1.1601	0.96688	1.6973	77.76	-0.2581	0.0112	0.2693	1264.2756	0.159009	-423.036086	-423.02724	-423.026296	-423.070252	32.277	
C	-0.2908273814	 1.3576724655	-0.250647536	-0.239345
O	-0.2922777939	-0.0676943466	-0.3846225042	-0.237511
C	 0.8163591608	-0.5909560696	-0.9554236918	 0.351362
O	 1.7494845128	 0.0795768703	-1.333303627	-0.393206
C	 0.7225598131	-2.0586986793	-1.0663429632	 0.240477
C	 1.9856686837	-2.8824365128	-1.1804041543	-0.310143
C	 1.0494655435	-2.8876570248	-2.3370529424	-0.078014
C	-0.1595298481	-3.7898614091	-2.0618888501	-0.223947
C	-0.4870297716	-2.9549376473	-0.7793677602	-0.303972
H	 0.5532493557	 1.6878796655	 0.3602383451	 0.139995
H	-0.2208141444	 1.8384137361	-1.2298859988	 0.138698
H	-1.2345211932	 1.6118592669	 0.2325588409	 0.129922
H	 2.883810646	-2.2889566135	-1.3075293107	 0.141035
H	 2.0913831769	-3.7631975871	-0.5508190406	 0.108709
H	 1.3408185606	-2.4893835423	-3.3010619704	 0.106055
H	-0.9401547737	-3.7063815099	-2.8203296047	 0.109067
H	 0.0714539689	-4.8496151823	-1.9141656901	 0.101869
H	-0.4652684121	-3.4870053866	 0.176759215	 0.098389
H	-1.4329726235	-2.419060993	-0.8604829168	 0.120561
54.5628	107.9911	128.7805	160.1691	202.4669	300.2107	319.3468	386.7694	431.8349	500.5398	708.1549	745.2255	785.0626	787.9063	848.5396	868.4228	927.7144	937.7443	971.5083	993.9288	1026.3204	1049.5275	1090.4881	1106.8458	1143.3343	1179.2422	1187.3026	1215.7092	1225.481	1232.9648	1248.3709	1288.7742	1321.4874	1395.418	1471.9122	1477.008	1480.7651	1483.6277	1498.2902	1505.6231	1796.7157	3049.5932	3050.1379	3057.9715	3108.8891	3110.2194	3123.757	3133.6903	3155.4056	3193.5122	3221.7473
COC(=O)C12CC1CC2	COC(=O)[C@]12C[C@H]1CC2	
InChI=1S/C7H10O2/c1-9-6(8)7-3-2-5(7)4-7/h5H,2-4H2,1H3	InChI=1S/C7H10O2/c1-9-6(8)7-3-2-5(7)4-7/h5H,2-4H2,1H3/t5-,7-/m1/s1
