16
gdb 86926	3.76009	0.97056	0.83386	5.5492	69.04	-0.2622	-0.0021	0.2601	1353.9009	0.122763	-475.056534	-475.047311	-475.046367	-475.091858	30.848	
C	 0.0694661239	 1.3660150974	-0.2259094873	-0.346975
N	-0.0039480543	-0.0660096332	-0.0898129811	-0.082738
C	-1.1426737741	-0.9870404554	 0.0128296931	-0.198269
C	-0.1120629106	-2.1403842074	 0.0927145605	-0.041621
O	-0.2480349517	-3.0789409668	-0.9628412964	-0.199036
C	 0.795140329	-3.926975079	-1.1572938994	 0.169603
O	 0.7710457146	-4.7633546211	-2.0069362459	-0.266811
C	 0.9640008624	-1.0322032795	-0.1058380712	 0.403348
O	 2.1599283387	-1.0052641966	-0.2379227678	-0.370105
H	 1.124344003	 1.6381472406	-0.3055056723	 0.168213
H	-0.4541235379	 1.7083584502	-1.1263712718	 0.138882
H	-0.3645211008	 1.8719570177	 0.6443309506	 0.136044
H	-1.7650037249	-0.8391054811	 0.9010996806	 0.121069
H	-1.767801252	-1.0299856341	-0.884328498	 0.136292
H	-0.0634832386	-2.6430513932	 1.0632916231	 0.120179
H	 1.6346794732	-3.7481813786	-0.4639158767	 0.111924
47.3534	86.7721	108.4812	145.1858	158.5339	204.974	245.7694	315.1468	371.3742	520.3934	573.9464	698.4889	774.3753	821.1211	913.6258	982.4204	1025.1103	1037.3575	1080.0764	1119.9337	1145.7921	1164.1625	1178.4397	1207.413	1263.9738	1295.6526	1369.5485	1423.0563	1438.0248	1451.2383	1482.0337	1508.6532	1529.5665	1868.0971	1882.9466	3002.0928	3021.7057	3044.2684	3069.9174	3076.3563	3098.4259	3135.133
CN1CC(OC=O)C1=O	CN1C[C@@H](OC=O)C1=O	
InChI=1S/C5H7NO3/c1-6-2-4(5(6)8)9-3-7/h3-4H,2H2,1H3	InChI=1S/C5H7NO3/c1-6-2-4(5(6)8)9-3-7/h3-4H,2H2,1H3/t4-/m1/s1
