19
gdb 75909	2.66309	1.44263	1.13437	2.8272	74.73	-0.2404	-0.0219	0.2186	1124.1683	0.158456	-423.043262	-423.034715	-423.033771	-423.076756	32.39	
C	-0.022799715	 1.6175232342	-0.0731655967	-0.39845
C	 0.0216357478	 0.0849972202	 0.0461517773	-0.177729
C	 0.7651352744	-0.5177147052	-1.163507508	 0.401412
O	 0.4490177025	-0.3579976143	-2.3136003774	-0.318646
C	 1.9775077698	-1.3096877531	-0.6631925	-0.326006
C	 2.2047943663	-0.8029131447	 0.7708985625	-0.296983
C	 0.7993571389	-0.4450688832	 1.2449686717	 0.417889
C	 0.4543342874	-0.1832709042	 2.642374172	-0.254281
O	 0.1389249461	-1.4431390333	 2.0408366539	-0.279802
H	 0.9812601048	 2.0529897588	-0.0308034233	 0.118785
H	-0.4704868935	 1.8969917561	-1.0301602779	 0.14406
H	-0.6149008365	 2.0563837681	 0.7345190702	 0.12031
H	-1.0001205403	-0.3078891923	 0.0640816327	 0.118241
H	 1.6931883807	-2.3700398245	-0.656009413	 0.143626
H	 2.8253392623	-1.2027633149	-1.3424683447	 0.128896
H	 2.6657110549	-1.5374628604	 1.4339225855	 0.119818
H	 2.8375106612	 0.0926301622	 0.7627529068	 0.112889
H	 1.2326498843	-0.2101309458	 3.4050344715	 0.111925
H	-0.4012923961	 0.4467341862	 2.883260107	 0.114045
47.2905	129.1044	206.7129	220.339	238.7248	293.1299	366.004	452.2775	481.2425	513.8184	551.0211	646.5802	721.951	769.7222	816.3799	840.6885	896.8212	962.9632	979.9741	990.1354	1000.6231	1058.9051	1090.2196	1128.5743	1146.766	1155.7148	1179.9764	1202.9073	1243.7229	1267.3754	1293.4571	1305.0411	1317.3445	1401.727	1433.1159	1451.9816	1483.0253	1497.2853	1499.4152	1535.5976	1846.3821	3036.4905	3039.1116	3043.7753	3064.0868	3076.1021	3109.1199	3114.4058	3120.031	3127.3935	3159.4832
CC1C(=O)CCC11CO1	C[C@H]1C(=O)CC[C@]21CO2	
InChI=1S/C7H10O2/c1-5-6(8)2-3-7(5)4-9-7/h5H,2-4H2,1H3	InChI=1S/C7H10O2/c1-5-6(8)2-3-7(5)4-9-7/h5H,2-4H2,1H3/t5-,7+/m0/s1
