16
gdb 20976	4.69812	1.6831	1.26582	1.5492	67.71	-0.1939	0.0213	0.2152	941.2143	0.132438	-376.121175	-376.113298	-376.112354	-376.153567	27.863	
C	-0.1029200128	 1.4086633964	-0.010196255	-0.335289
N	 0.2391236261	-0.0017505701	-0.0459744827	-0.148488
C	 0.0671416262	-0.7442942635	 1.1875800424	-0.324478
C	 0.0714297473	-0.6840439311	-1.225059616	 0.472722
N	-0.0285644796	-2.0122122797	-1.2831402058	-0.333413
N	-0.101932449	-2.2213136485	-2.6316922912	-0.188447
C	-0.0661059824	-1.0539119726	-3.2897313077	 0.023557
N	 0.0410637109	-0.050258354	-2.4419263243	-0.34569
H	 0.4641651696	 1.8959706689	 0.7893364247	 0.11633
H	 0.1562210258	 1.8678539662	-0.9634034867	 0.160869
H	-1.1758257124	 1.5788475321	 0.1777581375	 0.106242
H	-0.9920166136	-0.930135266	 1.4287521255	 0.109196
H	 0.5688378442	-1.7098596644	 1.1082849216	 0.15131
H	 0.5133904284	-0.1759591043	 2.0089676739	 0.1156
H	-0.1888382003	-3.1580829336	-2.9864199587	 0.277226
H	-0.1194408485	-0.9760266857	-4.3655774675	 0.142751
86.521	126.0592	163.7795	186.6929	247.0539	348.5826	373.0241	459.9924	522.8477	626.8916	659.0973	778.6812	849.7973	943.9755	993.5114	1026.7865	1085.9943	1092.8208	1131.4984	1174.2233	1180.6343	1240.7042	1284.9286	1320.6486	1366.2205	1444.3144	1458.088	1479.8672	1483.7284	1493.3071	1501.2662	1507.7483	1546.2859	1623.3508	2969.8508	2978.2259	3070.5014	3076.8821	3138.427	3157.7464	3253.0998	3679.8726
CN(C)C1=NNC=N1	CN(C)c1n[nH]cn1	
InChI=1S/C4H8N4/c1-8(2)4-5-3-6-7-4/h3H,1-2H3,(H,5,6,7)	InChI=1S/C4H8N4/c1-8(2)4-5-3-6-7-4/h3H,1-2H3,(H,5,6,7)
