16
gdb 43898	3.13367	1.40222	1.15673	3.4423	75.89	-0.2468	-0.0093	0.2375	1065.2959	0.123439	-400.70291	-400.69503	-400.694086	-400.7353	30.263	
O	-0.0391208937	 0.0341737018	 0.5113462054	-0.313145
C	-0.0815206881	 1.1730017835	 0.1505444283	 0.391418
C	-1.193766396	 2.2140325608	-0.088670142	-0.430608
C	-0.0353725781	 3.2519077102	-0.0791170527	 0.135238
C	 0.5238618885	 3.7118610663	 1.3122510462	-0.298041
C	 1.6318210184	 2.6305040929	 1.1658451203	-0.180992
N	 0.9705279089	 2.1047759767	-0.0747037768	-0.160282
C	 0.0163737964	 4.2130897646	-1.1541367623	 0.248671
C	 0.0406112532	 5.0337720405	-2.0325645566	-0.394725
H	-1.7108774457	 2.1336244261	-1.0469901883	 0.148372
H	-1.9265863234	 2.2811905256	 0.7176804328	 0.1413
H	 0.8658274004	 4.7462438327	 1.3440472258	 0.127823
H	-0.1714978634	 3.5370496091	 2.1366510512	 0.120537
H	 2.6236498096	 3.0295831251	 0.9442814788	 0.128681
H	 1.7108357861	 1.881055936	 1.9562832791	 0.135996
H	 0.0684985268	 5.7507189878	-2.8158414893	 0.199756
92.8449	139.9161	178.5291	225.0723	323.6121	425.6009	477.6788	503.6457	540.1969	601.077	627.6251	655.0422	685.8043	752.1652	816.576	846.631	872.2444	930.42	956.8548	993.7925	1029.5228	1060.1887	1131.8736	1154.8344	1192.0038	1203.7168	1223.329	1258.0215	1280.2417	1308.4216	1439.0176	1478.9612	1508.7049	1893.8505	2235.3691	3071.7899	3075.8764	3080.9009	3123.9424	3141.2123	3146.428	3499.7035
O=C1CC2(CCN12)C#C	O=C1C[C@]2(CCN12)C#C	
InChI=1S/C7H7NO/c1-2-7-3-4-8(7)6(9)5-7/h1H,3-5H2	InChI=1S/C7H7NO/c1-2-7-3-4-8(7)6(9)5-7/h1H,3-5H2/t7-/m1/s1
