19
gdb 111204	3.17566	0.99133	0.85333	4.1806	77.67	-0.2418	-0.0244	0.2174	1370.048	0.1589	-422.965844	-422.957163	-422.956219	-423.000075	32.044	
O	-0.110237786	 1.4794068808	-0.1734886892	-0.420865
C	 0.0368549367	 0.0879602926	 0.084960687	-0.14278
C	-1.3486297012	-0.5196402249	-0.0332009855	 0.068377
C	-1.9995675254	-0.8098109646	-1.4242683256	-0.065801
C	-1.0565207898	-2.0410651122	-1.5615622713	-0.234087
C	-1.5701385671	-2.0635834803	-0.0907492143	-0.095538
C	-2.9959635651	-1.7888265317	-0.6981755951	-0.04775
C	-4.130015501	-1.2831978123	 0.1450140113	 0.114859
O	-5.2435983602	-1.746760267	 0.075215357	-0.258795
H	 0.7479643072	 1.8988343737	-0.0624821759	 0.288916
H	 0.7578094052	-0.365467412	-0.6078594747	 0.089664
H	 0.4130031563	-0.0889293184	 1.106260952	 0.088085
H	-1.9902456182	 0.0193955115	 0.6656997272	 0.080268
H	-2.2633168158	-0.0844868319	-2.1938517819	 0.089599
H	-1.4110354529	-2.8487754165	-2.2060925849	 0.100405
H	 0.0038055974	-1.8518026988	-1.7253671986	 0.099295
H	-1.3387890012	-2.7974507399	 0.6832146772	 0.080972
H	-3.3821469577	-2.594914211	-1.327468909	 0.085719
H	-3.9172059913	-0.453884257	 0.8512789643	 0.079459
63.4396	65.7037	144.6046	204.9268	255.8271	270.1255	357.4276	398.0165	451.0797	556.5991	600.5696	739.4099	790.825	834.0717	889.5253	900.3651	938.5479	1013.9415	1021.2087	1028.7601	1032.7949	1068.263	1085.6627	1107.8272	1117.5387	1142.9667	1153.4488	1191.9135	1194.9837	1221.8786	1226.2838	1255.8132	1259.337	1275.5057	1346.9489	1409.5915	1455.2805	1476.5969	1514.5493	1538.383	1809.6208	2905.7379	2966.4661	3020.5026	3073.3387	3082.0185	3096.6327	3102.1588	3118.8895	3143.1748	3830.1236
OCC1C2CC1C2C=O	OC[C@H]1[C@H]2C[C@@H]1[C@H]2C=O	
InChI=1S/C7H10O2/c8-2-6-4-1-5(6)7(4)3-9/h2,4-7,9H,1,3H2	InChI=1S/C7H10O2/c8-2-6-4-1-5(6)7(4)3-9/h2,4-7,9H,1,3H2/t4-,5+,6-,7-
