18
gdb 75401	2.52294	1.61327	1.07824	3.0491	81.45	-0.2209	-0.0259	0.1951	1129.2536	0.149147	-401.99875	-401.990418	-401.989474	-402.031633	31.685	
C	 0.0107711022	 1.5241003423	-0.095518363	-0.461345
C	-0.004513398	 0.0206932185	 0.02550015	 0.210363
C	-1.1443465651	-0.6818689347	-0.0128614704	-0.145326
C	-1.2618249265	-2.1866243086	 0.0196928501	-0.331446
C	-0.5972700799	-2.7760619397	 1.2401400649	-0.0973
C	 0.6939391331	-2.5831658892	 1.5062917671	 0.021962
N	 1.5612829018	-1.7834055469	 0.7569244029	-0.335208
C	 1.3624858475	-0.57666702	 0.0992504501	 0.319966
O	 2.3333727567	 0.0083255059	-0.3554404439	-0.368375
H	 0.5866354713	 1.8281924075	-0.9739158203	 0.150142
H	-1.0044655031	 1.9198360025	-0.1754616496	 0.11089
H	 0.4999981613	 1.9864191027	 0.7690267152	 0.130147
H	-2.0752200533	-0.1234159288	-0.0908601728	 0.095104
H	-2.3152254861	-2.4736671864	-0.0105378373	 0.110224
H	-0.7998250255	-2.6110256568	-0.8845414567	 0.128908
H	-1.1839543269	-3.3772058637	 1.924740841	 0.099695
H	 1.1722292694	-3.0665549165	 2.3527237572	 0.110181
H	 2.5497387309	-1.9825295581	 0.8333157255	 0.251419
84.2098	144.6138	160.9555	227.2501	308.8191	320.2463	369.687	412.9107	492.8802	546.4796	632.1294	658.6936	678.0872	758.4526	773.6438	803.9498	882.5689	911.5502	945.756	980.9052	1019.8021	1073.1989	1082.6157	1100.1349	1155.0167	1231.7685	1250.4667	1306.2858	1345.9911	1399.9025	1410.3361	1429.2393	1470.5468	1475.5888	1481.4793	1489.8975	1706.1843	1729.2761	1752.6767	2991.6589	3039.4744	3094.8199	3099.5211	3127.7932	3143.57	3171.4485	3203.9456	3591.6054
CC1=CCC=CNC1=O	CC1=CCC=CNC1=O	
InChI=1S/C7H9NO/c1-6-4-2-3-5-8-7(6)9/h3-5H,2H2,1H3,(H,8,9)	InChI=1S/C7H9NO/c1-6-4-2-3-5-8-7(6)9/h3-5H,2H2,1H3,(H,8,9)
