19
gdb 113064	3.47535	0.99387	0.8331	2.7629	73.09	-0.2348	-0.0364	0.1984	1397.4218	0.157421	-460.150361	-460.140783	-460.139839	-460.185405	34.154	
C	-0.5130108509	 1.1288436544	-0.0233267497	-0.250712
O	 0.2401930247	-0.0673882156	 0.1019093909	-0.239594
C	 0.7543581156	-0.5273665538	-1.106672801	 0.05596
C	 1.5877303191	-1.8400571533	-1.0337511603	-0.309917
C	 0.8633904743	-2.3883412005	-2.3040302161	-0.124746
C	 0.2628600993	-3.7959377233	-2.3184111665	-0.076185
O	-0.6188608854	-3.9530110198	-3.4101186452	-0.421287
C	-0.1765707384	-1.2833604411	-2.0831641643	 0.365109
O	-1.3433591773	-1.2024682995	-2.3664643526	-0.327183
H	 0.1016704163	 1.944293346	-0.4348662571	 0.107046
H	-1.3899579762	 0.9864474395	-0.6655746637	 0.139861
H	-0.840337285	 1.4035257445	 0.9815404047	 0.13239
H	 1.3032631597	 0.263419057	-1.6483032346	 0.088848
H	 2.6703145589	-1.7291011547	-1.0850865531	 0.117015
H	 1.3165282694	-2.4027804458	-0.1368554001	 0.129938
H	 1.4355083488	-2.2204054035	-3.2225618885	 0.112014
H	 1.0472971204	-4.5521266778	-2.428485588	 0.113116
H	-0.2408089612	-3.9830996607	-1.3557530104	 0.091054
H	-1.2949228221	-3.268414542	-3.3189436844	 0.297275
54.7637	92.5205	123.2673	170.2954	187.2841	231.5394	264.986	285.4468	363.1726	436.3132	516.164	563.8813	598.1513	694.0183	776.4778	868.8459	912.7341	953.2819	1020.5927	1041.6668	1057.992	1078.9257	1087.081	1126.9228	1171.193	1177.6057	1185.8657	1226.5392	1245.589	1253.7903	1264.2021	1320.3871	1370.6244	1387.3485	1443.6855	1478.1703	1483.2115	1488.2468	1512.0539	1512.2078	1853.5874	2948.1654	2969.9276	2987.4281	3059.978	3065.5791	3072.8812	3079.1796	3128.1587	3146.378	3761.7386
COC1CC(CO)C1=O	CO[C@H]1C[C@@H](CO)C1=O	
InChI=1S/C6H10O3/c1-9-5-2-4(3-7)6(5)8/h4-5,7H,2-3H2,1H3	InChI=1S/C6H10O3/c1-9-5-2-4(3-7)6(5)8/h4-5,7H,2-3H2,1H3/t4-,5-/m0/s1
