14
gdb 87107	2.996	1.199	1.0016	4.96	66.48	-0.2694	-0.0842	0.1852	1151.7473	0.098079	-473.81431	-473.805487	-473.804542	-473.848127	31.91	
O	-0.2272107869	 1.3645179047	 0.1071845661	-0.410375
C	-0.0524872261	-0.0159858357	 0.0912269665	 0.049308
C	-0.3963789796	-0.7536193849	 1.3300156677	-0.341354
C	-1.3741351986	-0.8255337422	 0.1622639907	 0.260729
O	-2.5517735863	-0.1020316609	 0.2124357647	-0.459944
C	-1.4097468837	-2.0626832141	-0.6411250314	 0.232021
O	-0.5123115423	-2.8769377542	-0.6678123265	-0.307236
C	-2.6119430388	-2.2499073555	-1.4788211348	 0.25525
N	-3.5206046359	-2.4423520959	-2.1669673709	-0.31369
H	-0.109290275	 1.6974579207	-0.7896902552	 0.308653
H	 0.734951207	-0.4044999239	-0.5489650288	 0.132082
H	 0.1699319102	-1.6510251498	 1.5505304697	 0.155435
H	-0.7503126236	-0.1730872239	 2.174423457	 0.14633
H	-2.3142273605	 0.8305291056	 0.1011377051	 0.292791
51.2764	138.3848	152.2746	234.3252	266.2481	299.4895	307.3951	367.5358	441.3758	475.6956	486.083	519.0249	630.6419	710.4219	716.5866	823.1976	836.8949	900.4383	1011.1304	1026.7438	1071.7654	1118.6277	1184.0641	1243.364	1270.3822	1297.9083	1404.1239	1421.2205	1473.9429	1757.8185	2342.4821	3144.0191	3151.0831	3247.6664	3720.5131	3807.5369
OC1CC1(O)C(=O)C#N	O[C@H]1C[C@]1(O)C(=O)C#N	
InChI=1S/C5H5NO3/c6-2-4(8)5(9)1-3(5)7/h3,7,9H,1H2	InChI=1S/C5H5NO3/c6-2-4(8)5(9)1-3(5)7/h3,7,9H,1H2/t3-,5+/m0/s1
