16
gdb 124998	2.12574	1.63393	0.96463	0.9577	67.78	-0.2464	-0.0052	0.2411	1171.2517	0.123583	-475.022471	-475.013626	-475.012682	-475.056324	31.923	
C	-0.0325036113	 1.4524012239	-0.1061952321	-0.502621
C	-0.1237972157	-0.0310211504	-0.0557234533	 0.381845
C	-1.1849002	-0.890989821	-0.0352351951	-0.06521
C	-2.6556234496	-0.5969185031	-0.0764768409	-0.19451
O	-3.0057788813	 0.3895747301	-1.0436937871	-0.406416
C	-0.5455231519	-2.1637847703	 0.0175697552	 0.397437
O	-1.194280355	-3.3401061734	 0.0509525944	-0.420812
N	 0.7616901694	-2.0898479563	 0.0289729349	-0.268425
O	 1.0335231398	-0.7160410941	-0.0233740447	-0.220715
H	 0.72680684	 1.7677116452	-0.8279553988	 0.148069
H	-1.0009002687	 1.8620760567	-0.3964473594	 0.162861
H	 0.2498609116	 1.8625548312	 0.8700392104	 0.148671
H	-3.2019450869	-1.5360137626	-0.2412385761	 0.116998
H	-3.0044622615	-0.1896214432	 0.8787300148	 0.126466
H	-2.7033834269	 0.070739848	-1.9009383333	 0.283885
H	-0.529407402	-4.0414424306	 0.0715317612	 0.312476
66.0634	132.4077	148.9256	185.8622	229.9894	281.7372	354.2848	376.8954	398.5627	459.7905	526.2043	604.6984	633.5909	711.1481	751.2054	802.318	946.3808	961.1015	1020.7183	1044.9602	1067.692	1107.9521	1212.6656	1223.5522	1243.7566	1321.4081	1384.7939	1407.6786	1423.8371	1480.7897	1488.4335	1508.1255	1536.3415	1561.5038	1682.2431	3012.4163	3040.7601	3064.2649	3100.5661	3151.9846	3781.3039	3807.5912
CC1=C(CO)C(O)=NO1	Cc1c(CO)c(O)no1	
InChI=1S/C5H7NO3/c1-3-4(2-7)5(8)6-9-3/h7H,2H2,1H3,(H,6,8)	InChI=1S/C5H7NO3/c1-3-4(2-7)5(8)6-9-3/h7H,2H2,1H3,(H,6,8)
