20
gdb 119502	3.70682	1.09507	0.97476	1.7672	79.55	-0.2175	0.0717	0.2893	1293.9895	0.169939	-403.043498	-403.034886	-403.033942	-403.077131	32.694	
C	-0.1122057471	 1.2948609192	-0.0368627318	-0.220134
O	-0.1496365243	-0.1062107569	 0.0830026358	-0.232375
C	 0.8067790723	-0.6038306378	 0.9938011242	-0.160003
C	 0.6794306795	-2.0924347711	 1.0802645898	 0.317318
C	 1.812843927	-2.98312786	 1.405039398	-0.304465
N	 1.2590612507	-3.0077013824	 0.0335739226	-0.176325
C	-0.0762873947	-3.7326083395	 0.0197041193	 0.014592
C	-0.6136000754	-4.2695603883	 1.3170130132	-0.315875
C	-0.6961413697	-2.7954228965	 1.0259736838	-0.113308
H	 0.8624136719	 1.6471746406	-0.4102670922	 0.105878
H	-0.8878824416	 1.5831308656	-0.7503315121	 0.127866
H	-0.3100099822	 1.794289729	 0.9255256733	 0.101596
H	 1.8289561048	-0.3421189523	 0.6736489563	 0.093937
H	 0.6485203075	-0.1564550609	 1.9927514715	 0.085539
H	 2.8022489141	-2.5339704143	 1.4268855578	 0.119224
H	 1.7076288247	-3.8320910526	 2.069972661	 0.118585
H	-0.430701566	-4.0620290291	-0.9481165103	 0.103744
H	-1.5607920545	-4.7864948092	 1.1906997682	 0.117672
H	-0.0040470939	-4.6933404684	 2.1074058191	 0.112631
H	-1.6216698531	-2.2420566451	 0.9626360525	 0.103902
76.0056	91.7263	119.8626	225.0151	250.7704	330.0155	341.324	447.8485	469.1046	560.2033	640.1289	703.6398	724.3971	781.7325	853.1901	910.5629	920.5914	948.1438	960.3152	997.9798	1013.853	1037.7284	1061.1255	1067.2088	1089.5693	1113.2412	1129.6387	1153.1669	1178.8897	1185.7204	1218.0431	1236.7714	1252.9571	1314.1058	1328.37	1365.245	1435.057	1474.8824	1479.5628	1485.434	1494.5874	1517.3322	1521.099	2932.4695	2967.4907	2982.3776	3011.0853	3114.863	3120.1945	3132.2884	3194.1028	3199.7261	3210.7931	3223.1096
COCC12CN1C1CC21	COC[C@]12CN1[C@H]1C[C@@H]21	
InChI=1S/C7H11NO/c1-9-4-7-3-8(7)6-2-5(6)7/h5-6H,2-4H2,1H3	InChI=1S/C7H11NO/c1-9-4-7-3-8(7)6-2-5(6)7/h5-6H,2-4H2,1H3/t5-,6+,7+,8?/m1/s1
