16
gdb 27679	2.75313	1.33584	0.9053	2.4005	87.11	-0.1809	0.001	0.1819	1244.4802	0.122982	-400.756703	-400.747685	-400.74674	-400.790109	33.6	
C	-0.0191598719	 1.5584285392	 0.07569492	-0.519641
C	 0.0238525861	 0.0646404032	 0.063192754	 0.181385
C	 0.0217442351	-0.737244264	-1.0480680916	 0.113373
O	 0.0683848689	-2.0725093959	-0.6528258738	-0.210767
C	 0.0976623362	-2.0803579828	 0.6922246654	 0.366767
N	 0.2168421216	-3.3261609177	 1.2754435334	-0.606203
C	 0.0715493218	-0.8083864911	 1.1957422768	-0.343795
C	-0.0211908815	-0.4607523222	-2.4193766282	 0.258923
C	-0.0586483252	-0.2035772501	-3.5980953513	-0.445993
H	 0.863278098	 1.976714783	 0.5732607462	 0.131414
H	-0.0559785124	 1.9543227337	-0.9418840253	 0.138947
H	-0.8981721741	 1.9261101551	 0.617437934	 0.129784
H	-0.1715574667	-4.070429804	 0.71162524	 0.261195
H	-0.1170137117	-3.3633446513	 2.2275186976	 0.259283
H	 0.0864983235	-0.5269031051	 2.2367642533	 0.100156
H	-0.0919456675	 0.02128791	-4.6347810105	 0.185172
121.2075	135.4667	140.9019	194.8389	226.2917	268.5212	340.4762	393.7594	425.4195	480.3256	545.1534	578.4493	613.1208	635.9845	678.7662	695.4396	709.9571	745.337	800.6846	990.2738	1022.6766	1061.4325	1087.8544	1111.3083	1200.9141	1250.6846	1353.3919	1413.0804	1467.6007	1483.9668	1491.4542	1591.2767	1634.4368	1665.3867	2214.0866	3029.4702	3079.2181	3123.5197	3254.2922	3505.2075	3558.5373	3662.5759
CC1=C(OC(N)=C1)C#C	Cc1c(oc(N)c1)C#C	
InChI=1S/C7H7NO/c1-3-6-5(2)4-7(8)9-6/h1,4H,8H2,2H3	InChI=1S/C7H7NO/c1-3-6-5(2)4-7(8)9-6/h1,4H,8H2,2H3
