20
gdb 99214	4.95243	0.65804	0.58929	2.2733	77.91	-0.2409	-0.0263	0.2146	1897.8767	0.167366	-440.351004	-440.339782	-440.338838	-440.391584	37.335	
C	-0.0886087142	 1.5015636854	 0.0603327203	-0.378593
C	 0.0477768434	-0.0150729202	-0.0516490271	-0.279006
C	 0.7443164327	-0.4702991983	-1.3206848371	 0.359699
O	 1.1431741249	 0.3047677382	-2.1628297519	-0.306793
C	 0.9246853606	-1.9732153208	-1.4934272675	-0.226065
N	 1.5897525214	-2.2482482821	-2.7378772711	-0.323803
C	 1.8315271796	-3.5211706685	-3.1543381351	 0.411073
C	 2.5267602964	-3.6460194813	-4.5007273584	-0.482368
O	 1.5088229331	-4.4905920887	-2.4885618431	-0.380897
H	 0.8919753354	 1.9838374715	 0.0496634188	 0.133994
H	-0.6591834462	 1.9052496653	-0.7796814269	 0.134407
H	-0.5983674431	 1.7732685228	 0.9883791714	 0.115856
H	 0.6020112766	-0.4301083623	 0.8013252324	 0.130469
H	-0.9339401662	-0.5071628893	-0.015877467	 0.131021
H	 1.4889072393	-2.3699396951	-0.6371881042	 0.141905
H	-0.0562446111	-2.4666665679	-1.4451282482	 0.143292
H	 1.8382199256	-1.437976948	-3.2856693563	 0.257886
H	 3.4431377383	-4.2274389245	-4.3705231433	 0.151196
H	 1.8793543525	-4.206638644	-5.1804882503	 0.151009
H	 2.7745648013	-2.6842299122	-4.9565682251	 0.115717
7.6901	29.5494	41.8477	69.3083	106.4027	176.1972	190.1798	229.0736	277.9651	347.2662	455.4956	472.4305	510.3313	619.4892	645.9466	653.0577	741.9281	821.2797	925.7289	973.8469	988.6993	1006.0184	1044.6684	1053.5045	1111.8841	1131.3192	1176.9727	1228.6138	1256.2803	1291.9203	1351.4877	1385.3702	1397.3126	1415.5003	1450.1482	1471.3713	1478.4696	1490.552	1492.5495	1498.3175	1524.4018	1771.5071	1803.1312	3009.9739	3024.0173	3027.7983	3050.3264	3051.29	3054.1622	3126.578	3127.1669	3129.6036	3132.5122	3616.5237
CCC(=O)CNC(C)=O	CCC(=O)CNC(=O)C	
InChI=1S/C6H11NO2/c1-3-6(9)4-7-5(2)8/h3-4H2,1-2H3,(H,7,8)	InChI=1S/C6H11NO2/c1-3-6(9)4-7-5(2)8/h3-4H2,1-2H3,(H,7,8)
