20
gdb 61541	2.9047	1.00414	0.85412	4.2292	75.88	-0.2442	-0.0202	0.224	1398.962	0.168836	-440.270608	-440.260948	-440.260004	-440.305676	35.527	
C	 0.3823817857	-0.6677472887	-1.2840428904	-0.46266
C	-0.0933100124	 0.0807505774	-0.0552911555	 0.315522
C	-1.4427137395	-0.3930585046	 0.4694379291	-0.260823
C	-2.0594900532	 0.461026883	 1.5863053208	 0.015797
O	-2.3887006193	 1.7673252244	 1.179215859	-0.44793
C	-3.3398766322	-0.1743672132	 2.11393445	 0.153781
O	-3.4908035599	-1.3547989552	 2.2957997854	-0.255648
C	 0.9373522697	 0.6649790963	 0.8430290089	-0.272911
N	 0.1212719317	 1.5473060943	-0.0173676904	-0.357724
H	 1.3571171997	-0.300979221	-1.6224564466	 0.112621
H	 0.4809363411	-1.7382513199	-1.0749183038	 0.133696
H	-0.3309239014	-0.5562556775	-2.1084007015	 0.129176
H	-2.151572784	-0.4085958691	-0.3686697846	 0.109294
H	-1.3578349103	-1.4234684013	 0.8317309313	 0.124985
H	-1.3696641026	 0.4726468428	 2.4536114184	 0.08544
H	-1.5869161234	 2.1084626006	 0.7427303444	 0.299342
H	-4.1359977796	 0.5706943016	 2.332244886	 0.096021
H	 0.7602942927	 0.774093066	 1.9082782559	 0.129213
H	 1.9808394031	 0.5179686297	 0.5782216605	 0.11707
H	 0.654304064	 1.8601823244	-0.8239810469	 0.235738
50.7393	85.031	123.2635	166.0591	218.9683	239.3128	319.8557	367.2604	387.4976	405.5089	447.3123	496.3561	599.599	664.1246	714.5326	806.9006	841.5204	902.455	926.3926	953.377	980.9055	998.3891	1033.632	1062.6183	1082.8012	1125.3078	1133.0536	1153.3965	1241.8781	1258.4658	1266.3262	1296.2968	1337.397	1370.0087	1385.5263	1407.2272	1418.158	1464.6742	1476.4671	1485.0305	1501.0904	1521.7703	1835.0123	2902.9083	2908.2849	3025.2735	3029.6871	3081.3574	3095.3015	3101.2018	3117.2685	3201.0517	3507.9533	3588.6051
CC1(CC(O)C=O)CN1	C[C@@]1(C[C@@H](O)C=O)CN1	
InChI=1S/C6H11NO2/c1-6(4-7-6)2-5(9)3-8/h3,5,7,9H,2,4H2,1H3	InChI=1S/C6H11NO2/c1-6(4-7-6)2-5(9)3-8/h3,5,7,9H,2,4H2,1H3/t5-,6-/m1/s1
