13
gdb 53932	1.80679	1.60542	1.34488	3.6119	63.64	-0.29	-0.0356	0.2544	1029.5956	0.087902	-448.957101	-448.947585	-448.946641	-448.991921	32.895	
N	 0.6848091759	 0.2516763599	-0.8549585074	-0.51635
C	-0.0365437561	 0.1195198954	 0.2731988331	 0.411621
O	 0.2315466853	 0.598588104	 1.3493767583	-0.338047
C	-1.3406339234	-0.7992924235	 0.1592843683	-0.152253
N	-2.2435906032	-0.5814353365	 1.2810130727	-0.510685
C	-2.0268300668	-0.5412686906	-1.1163162671	 0.297173
N	-2.5234114506	-0.2915143486	-2.1288227271	-0.316978
C	-0.8577637306	-2.1995453598	 0.1685922731	 0.332698
N	-0.4369195815	-3.2745940338	 0.1859973629	-0.310665
H	 1.535265858	 0.7916512846	-0.8239227875	 0.285497
H	 0.3819169612	-0.1265355175	-1.7370528756	 0.291136
H	-1.6545241243	-0.3459596285	 2.0801611249	 0.269127
H	-2.8147490338	 0.237597815	 1.0929508616	 0.257724
39.7246	126.5909	138.181	161.2927	164.2895	256.0495	304.6459	318.4295	406.5149	423.6509	491.3442	521.0216	564.6264	580.2689	615.2265	694.9214	756.0009	873.6945	947.2113	1032.973	1107.2632	1184.9613	1333.0815	1344.9499	1627.9773	1663.7981	1836.0809	2360.1222	2365.1885	3467.2125	3561.3848	3593.3556	3722.3421
NC(=O)C(N)(C#N)C#N	NC(=O)C(N)(C#N)C#N	
InChI=1S/C4H4N4O/c5-1-4(8,2-6)3(7)9/h8H2,(H2,7,9)	InChI=1S/C4H4N4O/c5-1-4(8,2-6)3(7)9/h8H2,(H2,7,9)
