18
gdb 18736	2.90794	2.20933	1.52321	2.811	71.37	-0.236	-0.0201	0.2159	880.4691	0.153581	-347.802054	-347.794551	-347.793607	-347.834051	28.69	
C	 0.2788903022	 1.5819523855	-0.1364955625	-0.405022
C	 0.0481499596	 0.0863943476	 0.0254547209	 0.03756
C	 0.7602686778	-0.9054011043	-0.9485198363	-0.252469
C	 1.309547968	-1.7219709147	 0.2531238286	-0.022547
C	 2.7437712898	-1.3239732064	 0.6936301531	-0.356204
C	 2.1229747442	-0.222231478	 1.5762859918	 0.415532
O	 2.5837203453	 0.636082977	 2.2730579062	-0.305467
C	 0.6904269012	-0.6608993791	 1.2440165789	-0.173139
H	 1.3451688837	 1.8288375727	-0.1456224625	 0.124866
H	-0.156973548	 1.939299958	-1.0760280397	 0.113784
H	-0.180414428	 2.1450575841	 0.6828188541	 0.124469
H	-1.0274605317	-0.1155304162	 0.0327580229	 0.082922
H	 0.0810045111	-1.4531903834	-1.605293713	 0.104297
H	 1.5393619973	-0.453042498	-1.570912393	 0.098329
H	 1.0586546478	-2.7804072028	 0.296808259	 0.074126
H	 3.2321082597	-2.0817928908	 1.3173484614	 0.130882
H	 3.4521889434	-1.0037632985	-0.0763467845	 0.122493
H	 0.0438652566	-0.8826342826	 2.0948747845	 0.085588
60.4556	124.0658	214.9103	304.6762	353.4357	384.5661	436.4946	545.1686	567.3415	694.3146	763.0896	802.8133	834.4845	866.0735	906.458	933.1772	951.3185	992.278	1034.8389	1051.8832	1091.3925	1118.5694	1128.7037	1145.9648	1179.0041	1214.767	1228.4405	1234.3242	1275.9297	1298.528	1312.7113	1362.7453	1414.0269	1433.5342	1486.8354	1492.404	1494.071	1880.4142	3030.6215	3042.8455	3047.7689	3049.0682	3095.9458	3097.1257	3099.3975	3102.7568	3107.4543	3127.0357
CC1CC2CC(=O)C12	C[C@H]1C[C@H]2CC(=O)[C@@H]12	
InChI=1S/C7H10O/c1-4-2-5-3-6(8)7(4)5/h4-5,7H,2-3H2,1H3	InChI=1S/C7H10O/c1-4-2-5-3-6(8)7(4)5/h4-5,7H,2-3H2,1H3/t4-,5-,7-/m0/s1
