15
gdb 18308	3.46466	2.3972	1.56856	7.2874	69.9	-0.1704	-0.0261	0.1443	792.7687	0.120914	-362.598243	-362.591943	-362.590999	-362.628602	24.648	
O	-0.1716944273	 0.1001463346	 0.4573751591	-0.420061
C	-0.0661347415	 1.2792826075	 0.1314610907	 0.342783
C	-1.2541378167	 2.1905500462	-0.1443362778	-0.162581
C	-0.888413147	 3.4713582336	-0.1549068347	-0.112723
N	 0.5640376055	 3.5374586113	-0.0270716104	-0.100135
H	 0.9624093198	 4.1106533554	-0.7723669185	 0.278942
C	 1.2988995068	 3.7576233037	 1.3049305259	-0.168306
C	 2.0468845347	 2.4206290335	 1.1510114114	-0.257787
C	 1.0926100244	 2.1027515481	-0.0043505458	-0.172698
H	-2.2691241493	 1.8246741428	-0.2304298009	 0.127165
H	-1.4396288516	 4.3860813227	-0.3237765017	 0.136142
H	 1.8612596408	 4.6956582918	 1.3022092828	 0.124647
H	 0.5517154369	 3.7639546663	 2.0978126745	 0.154043
H	 3.1046537192	 2.5334894831	 0.8873027023	 0.102386
H	 1.9706839353	 1.7519448794	 2.0124746431	 0.128183
138.415	201.3826	254.2893	372.1938	493.2891	615.596	662.6638	686.1481	725.4989	769.9658	775.6281	814.4637	860.2748	910.1882	949.4208	952.5878	1014.4009	1024.4877	1066.3393	1093.6856	1136.4781	1179.4367	1211.9309	1258.7394	1301.9132	1313.1206	1328.9841	1370.4311	1481.7849	1514.5815	1639.5399	1737.3082	3027.8705	3062.6408	3087.8248	3155.4491	3216.7832	3242.8207	3426.3951
O=C1C=C[NH+]2CC[C-]12	O=C1C=C[NH]2CC[C]12	
InChI=1S/C6H7NO/c8-6-2-4-7-3-1-5(6)7/h2,4,7H,1,3H2	InChI=1S/C6H7NO/c8-6-2-4-7-3-1-5(6)7/h2,4,7H,1,3H2
