19
gdb 117277	7.09085	0.54197	0.51356	3.2052	82.92	-0.2392	-0.012	0.2273	2163.1972	0.154257	-423.001314	-422.989986	-422.989042	-423.040849	36.961	
C	 0.0617652027	 1.4989350534	-0.1549963865	-0.227205
O	 0.2730220771	 0.1291761954	 0.0989781225	-0.210615
C	 0.5370893147	-0.6019616314	-1.0565485492	-0.154786
C	 0.7143201988	-2.0816523655	-0.7220682895	 0.361124
O	 0.4744085879	-2.5409030492	 0.3600632505	-0.257035
C	 1.238832318	-2.9164997992	-1.9062094756	-0.487998
C	 1.0708894849	-4.3507631105	-1.7530838535	 0.052938
C	 0.9247318833	-5.5369349252	-1.6185054248	 0.121405
C	 0.7459143372	-6.9709338432	-1.4468614943	-0.498371
H	 0.9448383077	 1.9719790502	-0.6132570212	 0.10518
H	-0.8000961046	 1.6628387766	-0.8211242785	 0.106323
H	-0.1373388447	 1.9776163863	 0.8061795076	 0.136181
H	-0.2872333178	-0.5226786213	-1.7916800542	 0.10958
H	 1.4433295304	-0.2407803746	-1.5785275658	 0.102303
H	 0.7635925253	-2.5569875177	-2.8296172333	 0.138783
H	 2.3038813424	-2.6602199234	-2.015472288	 0.154357
H	 1.6944681437	-7.5076117391	-1.5588666437	 0.146871
H	 0.3502729531	-7.2006240042	-0.4515307986	 0.154938
H	 0.0454597699	-7.3774991875	-2.1847051138	 0.146027
21.6583	25.246	62.5146	80.9733	97.2233	166.4115	203.8712	235.1301	269.3273	316.8271	372.3795	384.9255	419.9888	464.2196	694.1561	777.4137	813.2419	887.8596	985.6091	1030.3963	1052.01	1055.8743	1078.66	1172.7142	1178.4679	1182.0159	1211.5088	1241.3926	1270.4802	1337.6602	1405.9787	1414.6085	1441.7892	1468.2992	1477.9888	1478.4716	1486.7833	1491.2955	1516.1345	1849.7613	2383.7499	2923.157	2943.325	2970.2699	2998.7433	3014.6722	3027.3428	3029.319	3087.2712	3090.2467	3121.8048
COCC(=O)CC#CC	COCC(=O)CC#CC	
InChI=1S/C7H10O2/c1-3-4-5-7(8)6-9-2/h5-6H2,1-2H3	InChI=1S/C7H10O2/c1-3-4-5-7(8)6-9-2/h5-6H2,1-2H3
