16
gdb 126989	3.33722	1.08639	0.83179	3.095	70.21	-0.231	-0.0192	0.2118	1348.0385	0.122168	-471.172258	-471.162885	-471.161941	-471.207258	32.414	
C	-0.0033908541	 1.4940193673	 0.0600720461	-0.391184
C	 0.0539300023	-0.0192837235	 0.0235138402	-0.061439
O	-1.3108508481	-0.4994899788	 0.0268457715	-0.25788
C	-1.4937571158	-1.8059682998	-0.0016568415	 0.515656
C	-2.6960739182	-2.490444118	-0.0045527791	 0.043602
N	-3.9901580246	-1.9543561562	 0.0218210459	-0.591693
N	-2.3544489761	-3.8182397121	-0.0393725254	-0.109663
N	-1.131466513	-4.0254513274	-0.056916644	-0.051878
O	-0.478652683	-2.6339601912	-0.0310722724	-0.258722
H	 1.0123244275	 1.8996718106	 0.0582167774	 0.128955
H	-0.5347215899	 1.8837005732	-0.8121803395	 0.138216
H	-0.5147209712	 1.8417034852	 0.9615379557	 0.138197
H	 0.556020479	-0.3882048119	-0.8767926704	 0.13062
H	 0.5751876087	-0.4303100078	 0.8941907279	 0.130648
H	-4.5295237911	-2.2097430337	-0.7980920265	 0.248283
H	-4.5111211124	-2.245535656	 0.8417192042	 0.248282
64.3418	83.8123	111.9922	118.6437	240.7562	255.6112	281.4761	313.3408	332.7432	385.8811	558.4547	663.2792	674.944	743.7697	777.0027	814.6425	823.0349	909.2434	966.159	1050.7709	1130.6408	1179.2702	1209.7097	1224.9525	1291.738	1296.2297	1390.4377	1419.1763	1464.7473	1483.5304	1494.3751	1497.3438	1520.2298	1639.9009	1680.9224	3046.1784	3051.1262	3088.9986	3126.959	3132.9132	3509.1926	3577.1314
CCOC1=C(N)N=NO1	CCOc1c(N)nno1	
InChI=1S/C4H7N3O2/c1-2-8-4-3(5)6-7-9-4/h2,5H2,1H3	InChI=1S/C4H7N3O2/c1-2-8-4-3(5)6-7-9-4/h2,5H2,1H3
