21
gdb 103072	2.07797	1.36166	1.13998	1.9001	74.93	-0.2334	0.0497	0.2831	1218.6491	0.178511	-461.34185	-461.330852	-461.329908	-461.37729	40.334	
C	-0.0808349089	 1.4966638876	-0.3154437467	-0.42294
C	-0.003397384	-0.0028707461	-0.1393843062	-0.148997
C	 1.336633657	-0.7228524343	-0.0413884916	 0.380887
C	 1.5762923106	-2.007587343	-0.7976445523	-0.452323
O	 2.498584598	 0.0543442544	 0.002715854	-0.475931
C	 0.4389944038	-0.6302792996	 1.1807203797	 0.237759
O	 0.9889816615	 0.2248890316	 2.1573959913	-0.467678
C	-0.3089020579	-1.8139342184	 1.7509247704	-0.107947
O	 0.4782471512	-2.6322396386	 2.5958383965	-0.414408
H	 0.7925984526	 1.9936138595	 0.1108320938	 0.123276
H	-0.1143501106	 1.7541384484	-1.3787315759	 0.127188
H	-0.9805154825	 1.9141633381	 0.151797387	 0.108622
H	-0.7855965924	-0.5584208144	-0.6529073187	 0.080869
H	 1.9197530866	-1.7755094663	-1.811010203	 0.133797
H	 2.3579975667	-2.6057293565	-0.316285986	 0.116662
H	 0.6687932142	-2.6103664134	-0.8802195155	 0.11684
H	 2.5144602911	 0.4643062796	 0.8790723028	 0.29598
H	 0.3088513627	 0.8367148237	 2.4588568458	 0.293724
H	-1.1353679063	-1.4540514375	 2.3771303749	 0.101256
H	-0.760875758	-2.3892722151	 0.9283534158	 0.087548
H	 1.2630191945	-2.8929513898	 2.102869524	 0.285817
83.8199	96.8346	137.0686	196.8046	197.6552	217.7987	227.8343	259.7418	270.7218	292.7277	351.9852	385.0208	404.6816	482.2576	531.547	576.9331	601.3559	703.531	747.2835	838.0759	951.1606	963.1517	981.4103	1032.7846	1051.4541	1097.8136	1115.3544	1121.4078	1146.7537	1192.6452	1226.2976	1245.8616	1288.2934	1344.4872	1368.8312	1389.4101	1413.1432	1419.4373	1428.2785	1462.2886	1481.6476	1493.1776	1497.3585	1504.5774	1511.3955	2986.6259	3032.3817	3034.9086	3044.7878	3090.5557	3095.5722	3119.6908	3126.4821	3137.0988	3736.9362	3803.3221	3817.0051
CC1C(C)(O)C1(O)CO	C[C@H]1[C@@](C)(O)[C@]1(O)CO	
InChI=1S/C6H12O3/c1-4-5(2,8)6(4,9)3-7/h4,7-9H,3H2,1-2H3	InChI=1S/C6H12O3/c1-4-5(2,8)6(4,9)3-7/h4,7-9H,3H2,1-2H3/t4-,5+,6-/m0/s1
