14
gdb 125194	3.59308	1.62961	1.12901	6.6435	70.79	-0.2248	-0.0313	0.1934	1002.6951	0.103023	-432.869501	-432.862325	-432.861381	-432.901577	26.491	
C	 0.0863092342	 1.5316943207	 0.0110944135	-0.499485
C	-0.0831796803	 0.0565931348	 0.0718793083	 0.312404
C	-1.1166984435	-0.8194149353	-0.0105495379	 0.148689
N	-2.4693139127	-1.0642585439	-0.168712975	-0.450165
C	-2.6002420318	-2.4408080332	-0.1085707632	 0.025569
N	-1.4911649362	-3.1069384088	 0.06950267	-0.328758
C	-0.5316196943	-2.1084738277	 0.1357049402	 0.413027
N	 0.7727634538	-2.0623720277	 0.2988515768	-0.256155
O	 1.0441457086	-0.6879147933	 0.2566407137	-0.220167
H	 0.7476133749	 1.8201954309	-0.812796154	 0.15499
H	-0.8801354101	 2.0182538385	-0.1387326536	 0.12876
H	 0.5254902936	 1.917809828	 0.9370436602	 0.154992
H	-3.2155208563	-0.4050012061	-0.3004000211	 0.272371
H	-3.5766948698	-2.8969658969	-0.2071745079	 0.143927
56.974	175.2605	252.4455	280.8738	299.8433	398.2419	555.2825	592.4931	600.0028	633.713	717.8068	788.459	808.3606	899.7509	919.7472	952.2806	989.7288	1058.8133	1079.6843	1123.7839	1198.8724	1253.2112	1344.1482	1393.0681	1417.0174	1427.7883	1470.8569	1490.2534	1541.7304	1574.0461	1747.5687	3037.8823	3094.0533	3127.3586	3232.7999	3687.6161
CC1=C2NC=NC2=NO1	Cc1c2[nH]cnc2no1	
InChI=1S/C5H5N3O/c1-3-4-5(8-9-3)7-2-6-4/h2H,1H3,(H,6,7,8)	InChI=1S/C5H5N3O/c1-3-4-5(8-9-3)7-2-6-4/h2H,1H3,(H,6,7,8)
