19
gdb 91172	2.65477	1.72727	1.70512	1.4878	78.	-0.2282	0.0097	0.2379	929.4581	0.162232	-385.897343	-385.890256	-385.889311	-385.928287	30.006	
O	-0.0692760341	 1.4299496639	-0.0406240383	-0.446415
C	 0.0094890567	 0.0115661529	 0.02136486	 0.159137
C	 0.744331482	-0.5114367433	 1.286620178	-0.237403
C	-0.2388845491	-1.4204252784	 2.1088603593	-0.107358
C	-1.4287983444	-0.5319539263	 2.4358358716	-0.071794
C	-2.0562127242	-0.059285809	 1.3617100658	-0.048681
C	-1.4606942164	-0.530124475	 0.0445749242	-0.121734
C	-1.3271920279	-2.043677357	 0.0710399389	-0.082775
C	-0.6919050752	-2.5076747165	 1.144763791	-0.067252
H	 0.8282288381	 1.7764794474	-0.049690206	 0.279048
H	 0.498969275	-0.373335703	-0.8837267749	 0.063578
H	 1.6386731703	-1.0805388291	 1.016959607	 0.093639
H	 1.0519394249	 0.3424032338	 1.897707743	 0.095453
H	 0.250028363	-1.8203464904	 2.998295595	 0.059142
H	-1.676898251	-0.282670477	 3.4608118009	 0.08907
H	-2.8888954183	 0.6324392547	 1.3827473264	 0.094573
H	-2.0015090961	-0.1583184941	-0.825845791	 0.066372
H	-1.6992207356	-2.6541546902	-0.7431190862	 0.092088
H	-0.4766401877	-3.5526964733	 1.3351274154	 0.091312
137.8037	255.3478	296.5139	383.6395	388.0103	438.3754	475.4384	523.7299	638.5649	659.4077	694.4947	717.1027	735.2775	814.5126	832.5316	912.1871	933.609	948.5484	952.2279	958.5143	968.4144	1005.9986	1010.651	1043.4177	1101.8288	1118.5824	1143.9105	1188.2112	1204.6365	1228.6731	1256.396	1304.1241	1314.7205	1325.7729	1346.2747	1364.321	1379.2721	1413.2925	1483.0873	1654.997	1698.8301	2994.9881	3047.1046	3095.2886	3096.3367	3109.3864	3184.635	3188.2902	3208.9994	3214.8412	3820.4326
OC1CC2C=CC1C=C2	O[C@H]1C[C@H]2C=C[C@@H]1C=C2	
InChI=1S/C8H10O/c9-8-5-6-1-3-7(8)4-2-6/h1-4,6-9H,5H2	InChI=1S/C8H10O/c9-8-5-6-1-3-7(8)4-2-6/h1-4,6-9H,5H2/t6-,7+,8-/m0/s1
