18
gdb 72363	2.42366	1.6865	1.45776	3.4132	76.29	-0.2411	0.0042	0.2454	995.3616	0.148751	-401.988563	-401.980645	-401.979701	-402.020776	30.745	
C	-0.0085781552	 1.533449995	-0.0167200851	-0.476983
C	-0.0316809617	 0.0141557733	 0.0405932883	 0.165708
C	-1.4371694029	-0.6274516845	-0.022791519	-0.32867
C	-1.3925796314	-1.7178237797	 1.0214965176	-0.052833
C	-0.2460855564	-1.7510480391	 1.7015172773	-0.091407
C	 0.7242922287	-0.7072197794	 1.2159073644	-0.051278
N	 1.7161767916	-1.156274126	 0.2124763953	-0.337732
C	 1.015187259	-0.6833395447	-0.8745780262	 0.392919
O	 1.1728654721	-0.7955879421	-2.0612798713	-0.367612
H	 1.0070521213	 1.9227761779	 0.1061667588	 0.125045
H	-0.3840888724	 1.8821704422	-0.9842516203	 0.136843
H	-0.6393020028	 1.9658292906	 0.7676490719	 0.11789
H	-2.2196424136	 0.1093844884	 0.2034768592	 0.109215
H	-1.6632296061	-1.0169146071	-1.022674835	 0.131578
H	-2.2272586472	-2.3929092758	 1.180952742	 0.102159
H	-0.0095501796	-2.4468827947	 2.4990281687	 0.097839
H	 1.1684870623	-0.0885983235	 2.0017512744	 0.083637
H	 2.3882604845	-1.9105022207	 0.2538103491	 0.243684
95.3341	179.5254	211.855	241.7165	280.3953	305.7543	432.0405	472.586	527.5101	630.8715	679.4479	720.5643	736.8587	782.9768	812.0813	879.9898	938.0624	959.7176	971.6903	980.6066	987.2476	1020.4928	1108.8971	1120.2178	1149.3713	1188.6802	1197.5573	1232.7725	1276.877	1319.1174	1340.3662	1367.1162	1373.0542	1409.413	1479.5107	1491.3928	1494.8593	1679.2557	1883.9642	3016.9791	3029.7179	3056.4217	3060.0196	3098.756	3105.379	3177.3578	3202.9917	3586.8968
CC12CC=CC1NC2=O	C[C@]12CC=C[C@H]1NC2=O	
InChI=1S/C7H9NO/c1-7-4-2-3-5(7)8-6(7)9/h2-3,5H,4H2,1H3,(H,8,9)	InChI=1S/C7H9NO/c1-7-4-2-3-5(7)8-6(7)9/h2-3,5H,4H2,1H3,(H,8,9)/t5-,7+/m1/s1
