18
gdb 22146	3.22375	0.72712	0.70362	3.0087	76.3	-0.2458	0.0047	0.2505	1652.8577	0.145595	-435.228101	-435.217771	-435.216827	-435.26492	35.653	
C	-0.5756911795	 0.9201658821	-0.4479534098	-0.475864
C	 0.1004312398	-0.3845445193	-0.1328317042	 0.362434
C	-0.0766584304	-0.9660022515	 1.2466338507	-0.229806
N	 0.7883685063	-2.1077227406	 1.4932889696	-0.276585
C	 0.3918827528	-2.9475828692	 2.6042074605	-0.28364
C	-0.9453247684	-3.5747049079	 2.4715885558	 0.24647
N	-1.9925955201	-4.0405551259	 2.3197560152	-0.311443
N	 0.7971674496	-1.0577363675	-0.962935547	-0.168865
O	 0.8683469716	-0.4342161435	-2.2153973207	-0.399425
H	-1.2163618325	 1.244384934	 0.374987458	 0.124476
H	 0.1708571101	 1.6984391114	-0.6395105899	 0.152148
H	-1.1752629417	 0.8284648057	-1.3579160224	 0.155695
H	 0.1356403013	-0.1805727125	 1.9879253547	 0.118833
H	-1.1517599248	-1.2044685925	 1.3626346122	 0.124291
H	 0.9028886598	-2.6382519756	 0.6369207599	 0.244277
H	 1.1312914392	-3.7440807646	 2.7358261095	 0.155887
H	 0.3960086039	-2.3595377092	 3.5301384637	 0.152858
H	 1.4121298929	-1.0481748933	-2.7201162757	 0.308258
36.8988	57.7537	76.3914	141.6687	155.1842	228.4847	283.6339	288.0178	345.3465	380.5944	392.5912	417.7179	528.6671	590.7703	668.7514	737.9625	845.788	882.0586	941.4097	955.2137	997.1294	1039.1382	1073.6904	1117.3579	1174.4566	1226.8452	1251.988	1301.6593	1361.6368	1389.0143	1403.6086	1409.821	1457.9087	1473.7598	1486.9405	1494.9697	1506.7523	1741.6029	2345.161	2921.3941	2999.9735	3039.9115	3044.8728	3086.0786	3106.5256	3133.6574	3546.9132	3821.3236
CC(CNCC#N)=NO	CC(=NO)CNCC#N	
InChI=1S/C5H9N3O/c1-5(8-9)4-7-3-2-6/h7,9H,3-4H2,1H3	InChI=1S/C5H9N3O/c1-5(8-9)4-7-3-2-6/h7,9H,3-4H2,1H3
