17
gdb 25698	3.53581	0.97019	0.76572	1.7313	89.76	-0.1789	0.026	0.2049	1466.8273	0.136585	-380.885755	-380.876355	-380.875411	-380.920845	33.99	
C	-0.1036967202	 1.4416883211	 0.0031247065	-0.509366
C	-0.0392594835	-0.0121224643	-0.0034258155	 0.194864
C	 0.0343764118	-1.2184835055	-0.0003300887	-0.141788
C	 0.0583512787	-2.6309250625	-0.0022034185	 0.149545
C	 1.1640141092	-3.4664888666	-0.0704411521	-0.210895
N	 0.7214393399	-4.7508299151	-0.0614629711	-0.241785
C	-0.6603079334	-4.782040218	 0.0198222728	-0.144984
C	-1.1026480385	-3.4798739176	 0.0580747477	 0.120517
N	-2.4160851551	-3.0125549027	 0.2021637156	-0.622816
H	 0.8794006571	 1.8777579015	 0.2144222643	 0.146783
H	-0.4381000754	 1.840339411	-0.9622168056	 0.141535
H	-0.795633106	 1.8097575104	 0.7696830928	 0.144775
H	 2.2119304357	-3.2243068466	-0.1323899825	 0.120776
H	 1.3103909632	-5.5626515771	-0.1009187983	 0.262401
H	-1.1989318114	-5.7144091003	 0.0506844765	 0.109578
H	-3.0972481564	-3.5673868839	-0.298980315	 0.237569
H	-2.4927794757	-2.0423237438	-0.0782496789	 0.243289
33.0244	83.035	105.8421	212.0205	250.1757	263.7611	308.6739	378.7821	405.866	466.0687	495.0426	561.7531	613.8499	626.3181	687.5586	711.9247	743.9432	783.1537	899.8245	977.9317	1052.0459	1053.2915	1079.5184	1094.9493	1157.1404	1238.4368	1280.8307	1368.7487	1409.7222	1414.6358	1476.1844	1480.6862	1486.6863	1561.3923	1629.4636	1650.1417	2346.9703	3018.0827	3072.434	3080.9236	3269.0037	3272.7607	3529.8459	3622.7555	3698.7384
CC#CC1=CNC=C1N	CC#Cc1c[nH]cc1N	
InChI=1S/C7H8N2/c1-2-3-6-4-9-5-7(6)8/h4-5,9H,8H2,1H3	InChI=1S/C7H8N2/c1-2-3-6-4-9-5-7(6)8/h4-5,9H,8H2,1H3
