16
gdb 98929	4.05674	0.90097	0.74067	3.4155	78.11	-0.2445	-0.0452	0.1993	1468.6247	0.12348	-434.0832	-434.073515	-434.072571	-434.118719	33.855	
C	-0.5884288557	 1.4175856246	-0.4131797103	-0.33365
N	-1.0611184291	 0.0499638291	-0.3601189506	-0.332515
C	-0.9504123609	-0.6889735094	 0.7637583687	 0.482955
O	-0.4686194249	-0.3334246432	 1.8237961483	-0.417959
N	-1.457260039	-2.0141403578	 0.668931831	-0.394668
C	-2.0475050206	-2.6823434398	-0.3806688983	 0.287051
N	-2.2370657054	-2.1394664335	-1.5305102435	-0.55199
C	-2.4266607488	-4.0350399184	-0.0638108206	 0.262205
C	-2.7508182048	-5.1668446413	 0.1806736451	-0.426875
H	 0.1901582983	 1.5369763704	-1.1750903172	 0.125652
H	-1.406710742	 2.1094564473	-0.6426641202	 0.125652
H	-0.1722948656	 1.67115318	 0.562134913	 0.166834
H	-1.4907179496	-0.396788789	-1.1662263102	 0.280637
H	-1.3466207725	-2.5143915465	 1.5367737987	 0.270635
H	-2.6838110629	-2.7913873851	-2.1679740322	 0.236444
H	-3.0397663565	-6.1679870773	 0.3906057583	 0.219592
56.5928	63.5618	106.3344	128.2067	170.8184	218.8318	290.5664	331.7523	412.3454	457.0989	565.1861	610.8473	662.1831	671.486	672.0259	714.307	732.5463	766.3633	820.4136	887.546	963.3457	1124.0384	1156.1254	1161.2691	1190.2208	1269.7669	1317.7938	1442.1388	1500.0343	1503.3184	1513.7277	1609.1824	1663.4163	1811.5424	2232.6308	3026.9949	3076.5916	3154.5541	3455.6795	3495.2686	3544.0821	3650.5632
CNC(=O)NC(=N)C#C	CNC(=O)NC(=N)C#C	
InChI=1S/C5H7N3O/c1-3-4(6)8-5(9)7-2/h1H,2H3,(H3,6,7,8,9)	InChI=1S/C5H7N3O/c1-3-4(6)8-5(9)7-2/h1H,2H3,(H3,6,7,8,9)
