18
gdb 51581	2.80818	1.13718	0.91894	2.7774	73.96	-0.2281	-0.0045	0.2236	1282.032	0.1462	-439.041718	-439.032874	-439.03193	-439.076461	31.69	
O	-0.122165304	 0.419684326	-0.8136180005	-0.269827
C	 0.1029244949	 1.4594787694	-0.2743257782	 0.176245
O	 0.9092331749	 2.3994086293	-0.8205303087	-0.190179
C	 1.0749642401	 3.5909470382	-0.073621715	 0.072351
C	 2.1015679471	 3.6309492493	 1.0341371681	-0.335953
C	 2.3518184986	 4.3878447874	-0.2451269367	 0.009504
N	 3.478400135	 4.100426153	-1.0820751719	-0.083869
C	 3.809614494	 2.7598953596	-1.5525229961	-0.23247
C	 3.2838777492	 3.7887425762	-2.495770981	-0.216218
H	-0.3102650134	 1.7702769588	 0.7035431887	 0.087283
H	 0.1488265497	 4.148086469	 0.0426120973	 0.113204
H	 1.8799243151	 4.166008006	 1.9507144572	 0.125488
H	 2.6836638874	 2.724243555	 1.1650213239	 0.136539
H	 2.1842382867	 5.4611414223	-0.1960029751	 0.109083
H	 4.871532196	 2.5288538723	-1.5348697239	 0.115558
H	 3.1513160151	 1.9314330338	-1.3179755828	 0.139485
H	 2.2664700219	 3.6439641559	-2.8503990964	 0.127384
H	 3.9484278118	 4.3020724584	-3.1853640191	 0.116391
52.5761	66.8896	118.1483	153.5897	212.0042	266.0121	321.7741	406.3998	491.552	582.4447	655.4779	694.5259	814.5598	825.0026	845.5138	899.8977	931.7852	1012.8747	1033.3063	1048.5525	1055.6139	1079.3628	1106.6948	1127.8499	1132.6773	1149.812	1160.4991	1169.2414	1179.4767	1184.83	1238.577	1364.0091	1376.8716	1405.2647	1424.5963	1478.02	1487.2744	1515.7676	1870.221	2967.2125	3106.4115	3118.5698	3129.8078	3134.1931	3140.5056	3193.3878	3220.3547	3224.3066
O=COC1CC1N1CC1	O=CO[C@H]1C[C@H]1N1CC1	
InChI=1S/C6H9NO2/c8-4-9-6-3-5(6)7-1-2-7/h4-6H,1-3H2	InChI=1S/C6H9NO2/c8-4-9-6-3-5(6)7-1-2-7/h4-6H,1-3H2/t5-,6+/m1/s1
