18
gdb 54529	3.22117	1.34336	1.09751	4.0209	71.86	-0.2377	0.0271	0.2648	1114.9632	0.149007	-439.110001	-439.101835	-439.100891	-439.142745	31.53	
N	 0.0963405939	 1.2645078928	-0.2749691811	-0.544497
C	-0.0458477903	 0.0440087138	 0.3298169515	 0.31874
O	 0.7987174076	-0.4015846601	 1.0886680797	-0.378459
C	-1.2742763428	-0.7297711286	-0.024928752	 0.208864
C	-1.7732734463	-1.7234669341	 1.0281593542	-0.362976
C	-1.1477518839	-2.2355895972	-0.2242841033	 0.108608
O	-1.9558310739	-2.6472872194	-1.2881951629	-0.252875
C	-2.9250276862	-1.6288962286	-1.5267559026	-0.094914
C	-2.2827326873	-0.2937266442	-1.0788564415	-0.350645
H	 0.8693389761	 1.8318499493	 0.0347492379	 0.259982
H	-0.6784158094	 1.7285449125	-0.7155451744	 0.258052
H	-1.1607879622	-1.7697331632	 1.9208643666	 0.146085
H	-2.8422582046	-1.8226457307	 1.1802584314	 0.115206
H	-0.1863872208	-2.7323116788	-0.2017979014	 0.126833
H	-3.1830865799	-1.6533122061	-2.5884418942	 0.11643
H	-3.8395174508	-1.828866175	-0.951868983	 0.104616
H	-3.0405583129	 0.4076372631	-0.7144310407	 0.107547
H	-1.7569106362	 0.1733342545	-1.9189382039	 0.113406
70.818	157.3638	204.6538	255.3972	288.8446	308.7196	405.1534	454.3163	480.7826	562.442	628.7203	681.1379	703.7217	769.1415	842.8816	855.018	899.6622	922.865	960.7896	1011.2225	1028.4294	1035.7489	1076.0636	1091.148	1108.7427	1172.9788	1201.1836	1224.6602	1247.7274	1272.3004	1320.7081	1351.4108	1390.3875	1410.6706	1459.3225	1498.1716	1525.8491	1617.176	1772.7452	3007.758	3037.4377	3080.1849	3097.2047	3139.4117	3207.4294	3237.5314	3598.622	3731.8199
NC(=O)C12CC1OCC2	NC(=O)[C@]12C[C@H]1OCC2	
InChI=1S/C6H9NO2/c7-5(8)6-1-2-9-4(6)3-6/h4H,1-3H2,(H2,7,8)	InChI=1S/C6H9NO2/c7-5(8)6-1-2-9-4(6)3-6/h4H,1-3H2,(H2,7,8)/t4-,6-/m1/s1
