18
gdb 87104	2.87028	1.19512	1.00203	3.7076	81.04	-0.2345	-0.0606	0.1739	1240.6895	0.143628	-401.892875	-401.88298	-401.882036	-401.928103	35.778	
C	 0.0154798228	 1.5153482943	-0.3011157726	-0.315551
N	 0.154527097	 0.072665745	-0.1632563492	-0.08747
C	 1.4863440913	-0.4840979973	-0.0742923127	-0.269141
C	 0.5966314922	-0.4934980666	 1.1344226034	 0.182056
C	 0.9079951755	 0.3870530959	 2.3281589198	-0.488203
C	-0.1090915068	-1.8066758463	 1.4113287134	 0.233321
O	-0.1992772658	-2.6817322857	 0.5779219535	-0.294051
C	-0.6892199802	-1.9793406685	 2.7343961217	 0.240014
C	-1.1839539071	-2.1368209998	 3.8208924888	-0.411391
H	 0.8328314754	 2.1036987804	 0.1418508959	 0.102414
H	-0.0232800511	 1.7473976318	-1.3700966705	 0.134171
H	-0.9290298699	 1.8369643236	 0.1479994667	 0.128823
H	 1.6450759769	-1.4120112193	-0.6154510874	 0.137365
H	 2.3329079553	 0.2021391267	-0.0391066951	 0.10404
H	 1.49999308	 1.2573564529	 2.0409282789	 0.122173
H	-0.0062092706	 0.7374232038	 2.8173044616	 0.133493
H	 1.4837764074	-0.1714082746	 3.0722641061	 0.134528
H	-1.6245296923	-2.2896558665	 4.7762117177	 0.213407
27.2181	138.9257	158.1362	167.7005	178.4935	245.1886	254.4049	305.7132	346.2006	411.7795	444.3654	471.9925	579.3163	643.4552	679.0995	694.7754	706.7707	806.723	824.537	932.8122	971.3121	1054.0738	1071.0974	1094.5007	1131.4671	1142.9978	1182.6751	1212.3485	1286.4126	1363.8832	1415.3682	1445.5039	1481.0279	1484.3902	1491.0162	1498.5883	1506.8476	1758.2339	2207.0974	2988.9693	3047.0311	3073.7224	3084.0849	3106.172	3108.4227	3135.3445	3191.6819	3493.4553
CN1CC1(C)C(=O)C#C	CN1C[C@]1(C)C(=O)C#C	
InChI=1S/C7H9NO/c1-4-6(9)7(2)5-8(7)3/h1H,5H2,2-3H3	InChI=1S/C7H9NO/c1-4-6(9)7(2)5-8(7)3/h1H,5H2,2-3H3/t7-,8?/m1/s1
