20
gdb 59122	3.67754	1.27328	1.14798	3.0895	77.89	-0.2282	0.064	0.2922	1137.1712	0.171086	-403.072774	-403.064561	-403.063617	-403.105488	32.182	
C	-0.0678755572	 1.5733689133	-0.043689384	-0.408547
C	-0.0186816558	 0.0435947169	-0.0079644104	 0.097644
O	 0.7966635117	-0.4198130949	 1.0642696439	-0.428663
C	-1.410372272	-0.5697897007	 0.1478623808	 0.002984
C	-1.4269234142	-2.0942335673	 0.2683621187	-0.043026
C	-1.4504348265	-2.0495571744	 1.7438339753	-0.021539
C	-1.9969209865	-0.5784813275	 1.5936374459	-0.080748
C	-3.3605043728	-1.2509691949	 1.3745096665	-0.159987
N	-2.6611998938	-2.5332775085	 1.0230289275	-0.170663
H	 0.9393626142	 1.9890535431	-0.1650937253	 0.104402
H	-0.6740677539	 1.9285641387	-0.8831342085	 0.11878
H	-0.4898223472	 1.9706129419	 0.8843766976	 0.126172
H	 0.3943028727	-0.3112321625	-0.9688920549	 0.065836
H	 1.6543292924	 0.0093449044	 0.9902484636	 0.282585
H	-2.0595326461	-0.1315087342	-0.6218556887	 0.062655
H	-0.9871013667	-2.8312981128	-0.391389773	 0.091405
H	-0.9237025667	-2.59594559	 2.5131096219	 0.093095
H	-1.8460393951	 0.2617071417	 2.2680605561	 0.072789
H	-3.9249496899	-1.4128282418	 2.2966581024	 0.104377
H	-4.0240732869	-0.8460219004	 0.5999757346	 0.09045
73.2376	159.7003	183.842	244.9825	269.7191	339.8623	352.9164	440.0533	475.3923	607.282	749.5254	769.5636	789.5577	826.7214	855.2796	881.3926	921.6604	934.6961	960.2709	968.0141	1001.0223	1012.9528	1040.1881	1055.7642	1078.8004	1108.9019	1144.7107	1153.7024	1167.2459	1175.8519	1203.4618	1228.8388	1236.0267	1278.3159	1300.624	1329.4848	1363.1791	1398.2401	1402.9548	1420.8603	1492.6198	1498.1789	1508.9065	2940.5977	3014.1957	3025.2852	3029.1657	3093.922	3095.4379	3115.5746	3137.7639	3195.1273	3220.5363	3825.7769
CC(O)C1C2C3C1CN23	C[C@@H](O)[C@H]1[C@H]2[C@H]3[C@@H]1CN23	
InChI=1S/C7H11NO/c1-3(9)5-4-2-8-6(4)7(5)8/h3-7,9H,2H2,1H3	InChI=1S/C7H11NO/c1-3(9)5-4-2-8-6(4)7(5)8/h3-7,9H,2H2,1H3/t3-,4-,5-,6-,7+,8?/m1/s1
