22
gdb 101691	3.34371	0.84532	0.75602	3.4697	78.7	-0.2424	0.0563	0.2987	1569.4957	0.193065	-441.4549	-441.444713	-441.443768	-441.490341	38.163	
C	 0.1865017122	 1.5848057872	-0.4082719266	-0.474707
C	-0.0101537897	 0.1047081226	-0.1418735638	 0.349746
C	-1.4289626359	-0.4342829941	-0.2744379334	-0.278987
C	-2.3860201923	 0.0238404952	 0.8283373312	 0.097808
O	-2.7096062938	 1.4229194852	 0.7508853641	-0.438382
C	-3.6930841611	-0.7737788049	 0.8470244821	-0.062517
O	-4.5776975086	-0.2742162415	 1.8249658003	-0.425704
C	 1.1269982243	-0.8115255944	-0.4218526404	-0.289599
N	 0.7348284308	-0.5159436231	 0.9704237939	-0.342707
H	 1.2424058767	 1.8596619448	-0.3142595375	 0.10641
H	-0.1322940869	 1.8450901715	-1.4248089245	 0.112584
H	-0.3999360609	 2.1900163987	 0.2875126858	 0.14688
H	-1.8420983338	-0.1642432537	-1.2578440287	 0.084888
H	-1.3864391448	-1.5287403679	-0.2440525063	 0.109718
H	-1.8924900666	-0.0887485949	 1.7992594588	 0.115819
H	-3.0353219097	 1.5968459803	-0.1407424315	 0.280022
H	-4.148116822	-0.7436799933	-0.1619264505	 0.066251
H	-3.4937035525	-1.8249190719	 1.0827092628	 0.110045
H	-4.4709639586	 0.6858685654	 1.7945864924	 0.283302
H	 0.9437808152	-1.8348627363	-0.7397527241	 0.112915
H	 2.047695628	-0.380187622	-0.8071777075	 0.108241
H	 1.3819300102	 0.1559701173	 1.3758396436	 0.227973
50.0595	77.3928	136.5064	160.9901	230.2322	264.7309	301.7981	327.1797	360.5388	374.9711	404.7158	452.5057	464.1301	521.7037	600.569	728.4049	840.2549	855.879	887.1991	913.3867	934.4562	975.4457	1006.9359	1032.4881	1067.3382	1077.5004	1097.8105	1101.6359	1122.287	1141.7415	1191.0123	1217.8936	1266.7409	1277.6621	1315.7509	1338.6355	1375.7723	1382.5164	1402.0505	1419.4586	1423.3478	1446.6515	1464.6938	1485.6649	1508.8903	1509.1707	1517.7725	2919.1919	3001.9595	3027.2026	3062.5228	3066.1581	3080.6168	3088.0131	3101.3262	3122.6808	3184.5266	3497.2434	3758.1973	3781.4389
CC1(CC(O)CO)CN1	C[C@@]1(C[C@@H](O)CO)CN1	
InChI=1S/C6H13NO2/c1-6(4-7-6)2-5(9)3-8/h5,7-9H,2-4H2,1H3	InChI=1S/C6H13NO2/c1-6(4-7-6)2-5(9)3-8/h5,7-9H,2-4H2,1H3/t5-,6-/m1/s1
