20
gdb 62473	2.38175	1.48705	1.26007	3.5219	80.01	-0.2381	0.0398	0.2778	1116.1668	0.168952	-403.164192	-403.15469	-403.153746	-403.198026	35.892	
C	-0.0596807318	 1.5467323626	-0.000170309	-0.441072
C	-0.0420070773	 0.0208661249	 0.0278990276	 0.000715
C	-1.4073156091	-0.5872214615	-0.2811488076	-0.44106
C	 1.1084328499	-0.5931266002	-0.8270971124	 0.461244
O	 1.3903694147	-0.6179951092	-1.9960621156	-0.381675
N	 1.7054202266	-1.1173733381	 0.2939714522	-0.425013
C	 0.7151339006	-0.6150933582	 1.226960306	 0.425486
C	 0.9921989873	-0.0619249367	 2.5867962566	-0.330193
C	 0.1830214248	-1.3434999079	 2.4178574276	-0.330213
H	 0.9231767078	 1.963257616	 0.2384502409	 0.124369
H	-0.3454160872	 1.9010615993	-0.9953479062	 0.134174
H	-0.7830968377	 1.944525773	 0.7206325337	 0.112516
H	-1.7311751857	-0.2935046951	-1.2843523121	 0.134192
H	-1.3776079249	-1.6799065032	-0.2411406248	 0.124359
H	-2.1627458664	-0.2399583878	 0.4328963016	 0.112525
H	 2.5443010391	-1.6651312803	 0.4185823747	 0.246077
H	 1.999530549	-0.1491740697	 2.9814868928	 0.11566
H	 0.4706320236	 0.8384461659	 2.8957209605	 0.121128
H	-0.884117547	-1.3072352441	 2.6128793923	 0.121133
H	 0.6545896237	-2.2793113294	 2.7006907611	 0.115647
69.5847	163.7639	190.6674	200.53	208.718	238.9972	274.2507	304.7458	352.7282	377.9686	516.5376	534.8394	573.5775	681.9223	738.3709	765.0692	772.3464	878.4899	890.1509	959.8181	966.6943	969.4439	997.6643	1027.0712	1052.9301	1073.5699	1123.4301	1182.8125	1185.2676	1216.9156	1231.3774	1293.8477	1318.6536	1399.1531	1413.724	1429.2669	1458.6804	1481.4294	1484.2117	1498.8786	1503.1696	1514.392	1890.5519	3028.8964	3032.6907	3096.6303	3099.8653	3112.6371	3115.0006	3122.7589	3125.6699	3201.3901	3215.8144	3603.9653
CC1(C)C(=O)NC11CC1	CC1(C)C(=O)NC21CC2	
InChI=1S/C7H11NO/c1-6(2)5(9)8-7(6)3-4-7/h3-4H2,1-2H3,(H,8,9)	InChI=1S/C7H11NO/c1-6(2)5(9)8-7(6)3-4-7/h3-4H2,1-2H3,(H,8,9)
