19
gdb 90272	2.47526	1.57943	1.26367	2.5715	79.76	-0.2172	0.0144	0.2316	1082.6158	0.158629	-422.992711	-422.984129	-422.983185	-423.025804	32.4	
C	-0.1079105081	 1.4140184996	-0.0706064848	-0.494253
C	-0.0297675833	-0.0630936106	 0.1307008437	 0.174735
C	-0.9899651446	-0.9502479228	 0.3782543205	 0.092898
C	-2.3991268913	-1.2775995911	-0.0708953557	-0.353159
C	-1.7195796443	-2.4812176974	-0.8498074845	 0.072846
O	-1.3218061195	-2.1551366583	-2.1554535852	-0.417352
C	-0.489394367	-2.3333190123	 0.1400898156	 0.10787
O	 0.8484085401	-2.2300660961	-0.2795952873	-0.272079
C	 1.2460466914	-0.8557681079	-0.1351286334	-0.141559
H	 0.4982558624	 1.9536666327	 0.6684882624	 0.130051
H	 0.2747225199	 1.7006746177	-1.0585418005	 0.128252
H	-1.1364168316	 1.7739397907	 0.0188533121	 0.125704
H	-3.064991681	-1.6332362376	 0.72160914	 0.109736
H	-2.9187503783	-0.5334014039	-0.6797919073	 0.103905
H	-2.2589332014	-3.4376087327	-0.8065038479	 0.064604
H	-2.1144779719	-2.0581130208	-2.6925211019	 0.285969
H	-0.5835838042	-3.058029443	 0.9609671512	 0.074327
H	 1.7169264897	-0.5172162576	-1.0695176387	 0.109199
H	 2.0020892231	-0.7735212986	 0.6624039818	 0.098307
86.9495	160.9372	164.4641	204.942	226.4685	276.2291	315.3303	405.8016	448.1736	531.1835	601.15	701.2134	730.5746	781.1017	825.6289	881.7348	929.4956	954.7472	978.6954	978.9233	1026.6768	1079.3795	1100.9731	1125.594	1137.6038	1145.6196	1184.4732	1196.6028	1214.538	1240.804	1282.8025	1292.6173	1351.6507	1385.0849	1408.1908	1413.479	1469.3963	1478.2826	1489.0486	1515.5918	1762.9342	2970.5077	2993.5538	3007.5833	3010.1572	3016.3549	3050.8992	3060.8503	3107.7121	3110.1799	3817.0144
CC1=C2CC(O)C2OC1	C[C]1[C]2C[C@@H](O)[C@H]2OC1	
InChI=1S/C7H10O2/c1-4-3-9-7-5(4)2-6(7)8/h6-8H,2-3H2,1H3	InChI=1S/C7H10O2/c1-4-3-9-7-5(4)2-6(7)8/h6-8H,2-3H2,1H3/t6-,7+/m1/s1
