21
gdb 41767	2.66291	1.58082	1.12061	0.0376	90.83	-0.2316	0.0287	0.2602	1147.6174	0.18555	-349.950597	-349.942838	-349.941893	-349.983027	31.08	
C	 0.0883428855	 1.5532355818	-0.3518615904	-0.219741
C	 1.617279721	 1.4129632363	-0.1610996611	-0.223261
C	 1.3629346967	 0.1245230262	 0.6942637315	-0.087523
C	 1.5217353545	 0.3660894481	 2.1608319465	-0.052346
C	 0.6950033068	 0.1739375879	 3.187625847	-0.062883
C	-0.7065529662	-0.3574733277	 3.2592164696	-0.308791
C	-1.55400133	-0.5708524798	 2.0402037141	-0.050459
C	-1.2932593811	-0.4078340484	 0.7436691458	-0.089338
C	-0.0562062375	 0.0481190158	 0.0503287387	-0.013829
H	-0.3564590978	 2.2005739236	 0.4081854568	 0.108597
H	-0.2836329237	 1.8504437763	-1.3351655734	 0.093314
H	 2.1321151657	 1.183630802	-1.0981303331	 0.09686
H	 2.1391154383	 2.2345258443	 0.3350601897	 0.096053
H	 2.010577467	-0.7175405351	 0.4192388312	 0.079204
H	 2.512573684	 0.7500399194	 2.4098443804	 0.080174
H	 1.0915754312	 0.4156481522	 4.1736405304	 0.080879
H	-0.6726563734	-1.308357925	 3.8192917494	 0.121581
H	-1.2753357722	 0.3020021218	 3.9354287133	 0.117297
H	-2.558640782	-0.909100426	 2.2934480425	 0.080816
H	-2.1165878774	-0.6179332087	 0.060083457	 0.078292
H	 0.0457498606	-0.542105975	-0.869456336	 0.075104
74.2493	108.7051	242.0981	278.2581	369.4085	392.2173	444.8822	472.4697	617.5607	687.3382	724.0547	760.1985	782.1938	798.9952	836.2479	865.9749	923.7534	944.2154	962.6954	972.5477	987.7624	1017.7645	1025.9689	1055.9484	1067.1283	1108.6795	1148.5368	1198.3812	1236.557	1240.0708	1250.9008	1260.3245	1262.007	1275.892	1302.1846	1362.0685	1383.3901	1412.0126	1431.5919	1449.1306	1453.5825	1481.6842	1497.5329	1748.9942	1752.9655	2962.575	2977.9943	3006.7162	3020.5414	3056.144	3062.5252	3098.4279	3104.0821	3105.7224	3121.8258	3128.6346	3132.7317
C1CC2C=CCC=CC12	C1C[C@H]2C=CCC=C[C@@H]12	
InChI=1S/C9H12/c1-2-4-8-6-7-9(8)5-3-1/h2-5,8-9H,1,6-7H2	InChI=1S/C9H12/c1-2-4-8-6-7-9(8)5-3-1/h2-5,8-9H,1,6-7H2/t8-,9+
