15
gdb 12797	3.72703	2.13896	1.65649	2.6639	61.25	-0.2344	0.0137	0.2481	780.683	0.120049	-399.786751	-399.780004	-399.77906	-399.817355	26.163	
O	 0.0411190821	 1.400772784	-0.1558630611	-0.458426
C	 0.0132179858	 0.0134059425	 0.0131127238	 0.335585
C	-0.4609046476	-0.8527008987	-1.1188035373	-0.356663
C	-1.332012014	-0.6393166422	 0.1187951018	-0.02271
N	-1.5158231443	-1.7350485866	 1.0218614297	-0.255404
C	-0.4842975867	-2.2321470997	 1.5592588364	 0.11864
O	 0.8108417154	-1.8396858265	 1.4364419017	-0.228308
C	 1.0440742789	-0.4921338902	 1.0053843362	-0.142195
H	 0.7183749187	 1.6118581656	-0.8085946235	 0.287231
H	-0.7671141387	-0.3448176618	-2.0267915197	 0.120412
H	-0.0242848024	-1.8363613053	-1.2570384488	 0.128886
H	-2.2063857329	-0.0110589447	-0.0073861286	 0.108832
H	-0.5513212068	-3.1106930374	 2.1967916656	 0.127052
H	 2.0587840996	-0.4836354218	 0.5929144075	 0.111633
H	 1.0194770329	 0.1716836829	 1.8786655763	 0.125435
147.1132	207.0955	295.6853	330.3728	369.6514	427.8679	500.7164	513.0149	580.3656	713.2779	812.4516	868.0662	907.1612	931.2209	944.1053	974.2648	1006.15	1038.6671	1063.7539	1098.1434	1135.9939	1168.317	1222.0569	1274.4769	1314.1148	1339.333	1374.8938	1410.181	1419.5969	1479.9537	1514.8696	1721.4384	3025.6244	3071.8537	3130.7882	3169.4024	3178.38	3226.0894	3788.7736
OC12CC1N=COC2	O[C@]12C[C@H]1N=COC2	
InChI=1S/C5H7NO2/c7-5-1-4(5)6-3-8-2-5/h3-4,7H,1-2H2	InChI=1S/C5H7NO2/c7-5-1-4(5)6-3-8-2-5/h3-4,7H,1-2H2/t4-,5+/m1/s1
