18
gdb 19766	3.02637	2.75751	2.34383	1.5043	69.51	-0.2291	0.0838	0.313	716.089	0.158143	-347.812469	-347.806632	-347.805688	-347.842109	24.54	
C	 0.0315422829	 1.5323517221	-0.0973175955	-0.23013
C	 1.5133271657	 1.8633520447	 0.0166745591	-0.059836
C	 2.1729060716	 0.7286330904	 0.7876622512	-0.059834
C	 1.0837550037	-0.2778342083	 1.1326458885	-0.230126
C	 0.053314399	-0.0051158758	 0.0184243387	 0.097132
O	 0.496324367	-0.5816742482	-1.2090748708	-0.280211
C	 1.7802104901	-0.1293458425	-1.6418509369	-0.089402
C	 2.4087283943	 0.8785593156	-0.6960773286	-0.053799
H	-0.5342641175	 1.9812877136	 0.727705847	 0.095308
H	-0.4275070097	 1.8469015899	-1.0395354015	 0.102695
H	 1.8363609009	 2.890966163	 0.1362781867	 0.078157
H	 2.9860045139	 0.9131654808	 1.4800968472	 0.078157
H	 1.4138681634	-1.3209438382	 1.1129166102	 0.102695
H	 0.6583031712	-0.0703315527	 2.1217252447	 0.095306
H	-0.9268567857	-0.4470923894	 0.2064667604	 0.07556
H	 2.4372004108	-1.0053092477	-1.7479467278	 0.09744
H	 1.6710741493	 0.312642485	-2.6433221164	 0.097436
H	 3.385949749	 1.2337629879	-1.0093039262	 0.083453
143.3186	360.9509	395.9317	441.2105	485.3933	643.9668	645.6393	771.4847	792.4645	813.4195	847.3719	876.6264	902.5354	924.8828	947.4411	980.4289	1025.3581	1042.7168	1049.8163	1091.3627	1095.1025	1103.3602	1113.4017	1166.0505	1170.9962	1228.7684	1238.4311	1257.816	1307.5841	1308.0827	1340.5032	1354.3675	1366.5807	1408.4191	1444.3701	1478.1888	1494.5104	1528.7628	2983.5148	3004.5681	3032.2117	3037.409	3084.7254	3086.7107	3097.8611	3151.1589	3169.943	3181.1711
C1C2C3CC1OCC23	C1[C@H]2[C@H]3C[C@@H]1OC[C@@H]23	
InChI=1S/C7H10O/c1-4-2-6-5(1)7(6)3-8-4/h4-7H,1-3H2	InChI=1S/C7H10O/c1-4-2-6-5(1)7(6)3-8-4/h4-7H,1-3H2/t4-,5+,6-,7+
