20
gdb 83178	2.47245	1.51512	1.31934	2.1169	78.14	-0.2241	-0.016	0.2081	1071.5215	0.172175	-403.148564	-403.140289	-403.139345	-403.181376	32.027	
C	-0.3477634657	 1.362450522	 0.3095518908	-0.338784
N	-0.0163425546	-0.027113601	 0.0368507221	-0.090925
C	 0.4870753796	-0.440035282	-1.2766004022	-0.032942
C	 0.7530747183	 0.5517586288	-2.4078668761	-0.248522
C	 2.2094488061	 1.0608690863	-2.4427934917	-0.288934
C	 2.6528883844	 1.5509915523	-1.0770310893	 0.38986
O	 3.0864136606	 2.6625072758	-0.8810163944	-0.319934
C	 2.5407716965	 0.5176619275	 0.0410207309	-0.325778
C	 1.373766416	-0.4557785334	-0.0648243316	-0.033087
H	 0.3234855498	 2.1167115035	-0.1258471088	 0.121136
H	-1.3597907936	 1.5614182108	-0.0576070114	 0.126413
H	-0.3522401172	 1.5113515747	 1.3939016461	 0.129103
H	 0.0631204154	-1.3874464685	-1.6036856664	 0.092388
H	 0.5235428579	 0.068138286	-3.361493592	 0.111452
H	 0.0715424739	 1.406633786	-2.3318036127	 0.120994
H	 2.8665887473	 0.2277503832	-2.7279030691	 0.116937
H	 2.3418763487	 1.8658348844	-3.1690780345	 0.12013
H	 3.4674420742	-0.0722336343	-0.0056744107	 0.130142
H	 2.5576967761	 1.0422187671	 1.0016601396	 0.12896
H	 1.5612918562	-1.4094385492	 0.4268742313	 0.091394
87.5224	120.3544	175.7578	237.1361	271.6112	384.1494	404.8321	451.6639	490.9297	538.6242	566.1023	697.6248	730.2312	743.1408	792.5653	826.0154	907.3049	943.5956	962.9409	1027.1496	1055.5399	1062.1929	1114.7646	1154.3638	1157.2893	1174.8407	1181.9196	1214.2673	1232.635	1251.5905	1308.9995	1328.9282	1356.2625	1369.8365	1379.069	1419.933	1450.6052	1462.5847	1471.1624	1490.4273	1498.7406	1508.6921	1815.0403	2999.6305	3016.9335	3022.8153	3045.7742	3071.4732	3081.9565	3084.1499	3101.5804	3103.2344	3111.0647	3118.5987
CN1C2CCC(=O)CC12	CN1[C@H]2CCC(=O)C[C@@H]12	
InChI=1S/C7H11NO/c1-8-6-3-2-5(9)4-7(6)8/h6-7H,2-4H2,1H3	InChI=1S/C7H11NO/c1-8-6-3-2-5(9)4-7(6)8/h6-7H,2-4H2,1H3/t6-,7+,8?/m0/s1
