16
gdb 18497	6.33407	1.15746	1.09728	2.3545	67.52	-0.25	0.02	0.27	1083.5133	0.130966	-379.862702	-379.855317	-379.854373	-379.89566	26.632	
N	-0.0554757702	 1.3284722242	 0.0659045727	-0.439656
C	-0.0271647143	 0.0698932867	-0.0044011195	 0.121249
O	-1.1775856717	-0.6338673846	 0.0017791902	-0.192052
C	-1.0956317849	-2.049509911	 0.0431837227	 0.121555
C	-1.5725211863	-2.7699045952	 1.331393662	-0.203702
N	-2.5764550729	-3.5844459999	 0.5575756878	-0.125425
C	-3.504269567	-2.5953678658	-0.0106597964	-0.233356
C	-2.2054171472	-2.7796980858	-0.6876816813	-0.058945
H	 0.8914569137	 1.6997420826	 0.0288644567	 0.230389
H	 0.8693724532	-0.5618219023	-0.0850152344	 0.08555
H	-0.0986165898	-2.3771878285	-0.269228835	 0.093696
H	-0.8182186099	-3.4152614598	 1.7850013422	 0.116834
H	-2.0177193503	-2.1253374943	 2.0949526346	 0.122115
H	-4.3682641219	-3.0488553193	-0.4858392327	 0.127717
H	-3.7080298043	-1.677284075	 0.5348943115	 0.132631
H	-2.1138969661	-3.2407176419	-1.6651809811	 0.101399
32.1121	112.221	117.1008	297.9961	348.4546	407.9814	495.4779	619.7273	747.4286	758.6069	795.0945	818.5456	884.9029	959.1424	993.2744	997.6043	1037.3437	1042.5429	1063.2492	1091.1829	1115.5395	1126.5912	1151.7335	1201.244	1223.6621	1266.874	1289.2162	1292.1238	1374.8855	1392.5273	1432.1803	1484.903	1506.7565	1747.18	3010.8612	3052.2425	3059.8797	3114.2484	3125.2752	3172.3732	3207.6841	3519.4118
N=COC1CN2CC12	[NH][CH]O[C@H]1CN2C[C@@H]12	
InChI=1S/C5H8N2O/c6-3-8-5-2-7-1-4(5)7/h3-6H,1-2H2	InChI=1S/C5H8N2O/c6-3-8-5-2-7-1-4(5)7/h3-6H,1-2H2/t4-,5-,7?/m0/s1
