17
gdb 47451	2.91437	1.35644	1.0043	2.7632	68.29	-0.2688	0.0019	0.2708	1166.7995	0.136441	-458.982624	-458.974543	-458.973599	-459.016349	29.19	
O	 0.0429187076	-0.0088935526	 0.0573680503	-0.329138
C	 0.0301608636	 1.1815423412	-0.0276386732	 0.419951
O	-1.1098020435	 1.9226631796	-0.0821299081	-0.218996
C	-0.7673350846	 3.3048063057	-0.1119711792	 0.025392
O	 0.6025144102	 3.4002120583	-0.4147452116	-0.255615
C	 1.2104290789	 2.1538548657	-0.0862500029	-0.065891
C	 1.9940161077	 2.1823625378	 1.2047988676	 0.011213
C	 3.1017980084	 1.1796657345	 1.4054531922	-0.253612
C	 3.4329293538	 2.6329224767	 1.1903617333	-0.278983
H	-1.3485098459	 3.7993243196	-0.8960001694	 0.132948
H	-1.002995671	 3.7431562825	 0.8693493815	 0.113576
H	 1.8696056038	 1.866187055	-0.9131823078	 0.117032
H	 1.4056263991	 2.4440523105	 2.0800180754	 0.091766
H	 3.2269762841	 0.757059764	 2.3952321672	 0.122171
H	 3.3011478199	 0.4822877917	 0.5993892275	 0.128001
H	 3.860422922	 2.9252091968	 0.2369324983	 0.120353
H	 3.789465016	 3.2135317729	 2.0332826888	 0.119833
63.4025	72.0777	150.0781	166.577	275.9065	303.1488	404.4065	522.7139	673.7071	691.3272	751.8175	769.95	829.424	883.7506	891.7059	935.2454	982.2673	1006.8146	1034.5088	1063.9686	1081.4789	1102.7941	1128.9566	1149.6811	1175.8318	1193.6365	1217.7437	1223.7745	1230.1699	1284.9455	1331.8122	1421.4183	1444.7747	1472.4634	1506.4106	1551.7903	1898.9924	2993.21	3049.6062	3083.4722	3136.508	3142.9273	3146.7341	3216.8447	3231.969
O=C1OCOC1C1CC1	O=C1OCO[C@H]1C1CC1	
InChI=1S/C6H8O3/c7-6-5(4-1-2-4)8-3-9-6/h4-5H,1-3H2	InChI=1S/C6H8O3/c7-6-5(4-1-2-4)8-3-9-6/h4-5H,1-3H2/t5-/m0/s1
