18
gdb 46325	3.08059	1.29624	1.17758	1.3743	72.31	-0.2366	-0.0301	0.2065	1106.4148	0.148535	-439.077933	-439.069876	-439.068931	-439.111466	29.929	
O	-0.3665661482	 0.0699601334	-0.1598247934	-0.296312
C	-0.2148009549	 1.2431449201	 0.0067996852	 0.336016
C	-1.1190963814	 2.4380001674	 0.339532246	-0.286577
N	 0.1150367841	 3.2436298879	 0.5432754583	-0.362151
C	 1.0008343563	 2.180611457	-0.020193317	 0.212821
C	 2.2623156418	 1.8455014359	 0.8040303717	-0.302168
C	 3.4376164362	 2.2786718341	-0.1079982786	-0.080547
O	 2.8577117567	 3.0274997709	-1.1727697587	-0.241787
C	 1.5995505043	 2.4334551872	-1.4206766867	-0.146452
H	-1.7492608152	 2.7235823038	-0.5147127331	 0.124539
H	-1.7543758022	 2.3415399321	 1.2263959941	 0.135221
H	 0.1373276667	 4.114283414	 0.0230110727	 0.22495
H	 2.2266180997	 2.4027503812	 1.7412186805	 0.128812
H	 2.3026770187	 0.7778825515	 1.0359634203	 0.125066
H	 4.166890985	 2.9212077074	 0.3906820331	 0.115162
H	 3.9647084543	 1.3994730551	-0.5082779361	 0.098265
H	 1.7073005257	 1.4737491697	-1.9544938151	 0.105982
H	 1.0059060921	 3.1160549114	-2.0351931732	 0.10916
42.1593	104.9313	149.903	203.4923	275.2493	395.0201	400.0949	531.2219	578.7728	649.4157	696.2099	747.6643	786.5925	847.8021	887.1384	944.9562	960.0935	972.912	988.8046	1019.0572	1040.1721	1095.0488	1111.0971	1139.5499	1167.6266	1188.3564	1233.8141	1243.694	1269.286	1287.2426	1304.8125	1344.5487	1361.1446	1392.9405	1475.2424	1479.9337	1499.5884	1521.4605	1907.6266	2961.561	2990.2092	3008.6521	3071.4963	3072.2891	3089.7524	3097.9646	3132.0035	3530.5931
O=C1CNC11CCOC1	O=C1CN[C@]21CCOC2	
InChI=1S/C6H9NO2/c8-5-3-7-6(5)1-2-9-4-6/h7H,1-4H2	InChI=1S/C6H9NO2/c8-5-3-7-6(5)1-2-9-4-6/h7H,1-4H2/t6-/m1/s1
