17
gdb 70122	2.44504	1.72831	1.28287	1.8188	72.99	-0.2386	-0.0303	0.2083	1008.4032	0.134933	-421.823235	-421.815258	-421.814313	-421.855829	30.78	
O	 0.1833240224	 1.3273058965	 0.1804921104	-0.480383
C	 0.0588168542	-0.0564433641	 0.1227162151	 0.426974
C	-0.3477464746	-0.7037146359	-1.1722394434	-0.33033
C	-1.297348228	-0.7168705888	 0.024830853	-0.15382
C	-1.198788126	-1.9429895141	 0.8682681273	-0.067246
C	 0.0083236939	-2.0718823256	 1.4270122054	-0.12252
C	 0.891173992	-0.8802569131	 1.1063837183	-0.205277
C	 2.2943403593	-1.1764810038	 0.6149358166	 0.144835
O	 2.8321248917	-0.5609523705	-0.27154885	-0.250034
H	 1.005135344	 1.5464618716	-0.276190622	 0.289967
H	-0.5898264997	-0.0080883743	-1.9685579133	 0.118027
H	 0.0996210631	-1.6401826943	-1.4871467632	 0.113791
H	-2.2126923531	-0.1398383457	-0.0296657949	 0.102358
H	-2.0122419914	-2.6517495673	 0.9737844238	 0.104865
H	 0.3380379942	-2.898268195	 2.0457264966	 0.102899
H	 1.0470637399	-0.2833107999	 2.0240293686	 0.122542
H	 2.832685608	-1.9873785956	 1.1556250417	 0.08335
69.2414	152.0342	163.3074	293.1329	319.2289	389.0853	398.123	472.9772	486.1558	585.3966	674.5093	702.1767	734.5263	777.2036	840.6969	877.7663	907.6468	956.6073	981.7862	1009.0977	1027.8374	1050.0628	1060.0611	1065.0439	1067.3175	1141.132	1192.7816	1239.7653	1264.3267	1311.8025	1320.0366	1376.123	1400.4434	1423.1835	1476.4722	1659.053	1816.769	2876.5478	2947.9806	3129.9436	3184.3564	3191.2731	3212.7476	3225.5123	3777.3052
OC12CC1C=CC2C=O	O[C@]12C[C@H]1C=C[C@H]2C=O	
InChI=1S/C7H8O2/c8-4-6-2-1-5-3-7(5,6)9/h1-2,4-6,9H,3H2	InChI=1S/C7H8O2/c8-4-6-2-1-5-3-7(5,6)9/h1-2,4-6,9H,3H2/t5-,6+,7-/m1/s1
