19
gdb 46062	4.3631	0.92836	0.8027	1.8288	75.83	-0.2253	-0.0216	0.2036	1401.1292	0.160682	-419.192504	-419.184146	-419.183201	-419.226269	31.358	
O	 0.0660547939	 0.0028922204	 0.1325137622	-0.301611
C	 0.0124516503	 1.2038322954	 0.1226507781	 0.382589
C	-1.260230871	 2.0557938854	-0.0276340322	-0.279531
N	-0.8364233565	 3.4548823452	-0.1226977359	-0.308218
C	 0.4922561296	 3.5381401783	 0.5326072659	 0.017347
C	 1.180572915	 2.1826713018	 0.2688914178	-0.343782
C	 1.2649975624	 4.7413191074	 0.0569350069	 0.007116
C	 1.0471038945	 6.068670599	 0.6792573217	-0.242493
N	 2.3123938099	 5.3440424541	 0.8946792647	-0.322567
H	-1.8542119635	 1.7360835014	-0.8875458397	 0.134269
H	-1.8798817884	 1.896934114	 0.8669484784	 0.13535
H	-0.7286946422	 3.7069657641	-1.1008644506	 0.221364
H	 0.3173065889	 3.6464724499	 1.6139675168	 0.075138
H	 1.8834075791	 1.8511082843	 1.0363121036	 0.132383
H	 1.7238452231	 2.2086795176	-0.685615739	 0.131059
H	 1.5345082062	 4.7047137617	-0.9996216786	 0.087958
H	 1.1339380512	 6.9727630621	 0.0839590719	 0.122349
H	 0.3307330713	 6.1283528758	 1.4943841827	 0.119784
H	 2.3093220263	 4.9126867519	 1.8165854053	 0.231496
66.1961	82.6331	127.3716	176.6044	303.7027	370.6611	412.8689	463.4209	508.753	582.4875	640.172	752.4283	783.4059	819.56	838.6249	884.0444	913.2097	953.6165	963.8001	993.7908	1050.7534	1079.2095	1093.3513	1122.7896	1149.8099	1158.882	1163.6826	1202.559	1245.0683	1256.1485	1264.7015	1295.7235	1307.4368	1329.515	1344.4374	1440.449	1445.6365	1462.5925	1471.783	1515.0177	1853.125	2984.2611	3009.5021	3031.0238	3095.2119	3101.5114	3112.4432	3113.2585	3198.781	3488.9286	3506.2772
O=C1CNC(C1)C1CN1	O=C1CN[C@@H](C1)[C@H]1CN1	
InChI=1S/C6H10N2O/c9-4-1-5(7-2-4)6-3-8-6/h5-8H,1-3H2	InChI=1S/C6H10N2O/c9-4-1-5(7-2-4)6-3-8-6/h5-8H,1-3H2/t5-,6+/m0/s1
