21
gdb 69514	2.30323	1.64304	1.3242	0.9411	82.81	-0.2001	0.0756	0.2757	1098.8556	0.180369	-387.026392	-387.01715	-387.016206	-387.059448	36.387	
C	-0.0048733457	 1.5385735891	 0.0656084172	-0.488088
C	-0.007934785	 0.0384584954	 0.0225492635	 0.286678
C	-0.9293117878	-0.8373491398	 0.8281891269	-0.364565
C	 0.5641804876	-0.9646052279	 1.0131075109	-0.154259
C	 1.3168617019	-1.7010436473	-0.138159797	 0.299104
C	 2.7284077544	-2.1829320833	 0.0227108732	-0.492965
C	 0.3793402495	-2.2050223907	-1.2225716689	-0.432194
C	 0.7165409619	-0.7384647598	-1.1314000512	 0.291257
O	 1.385704533	-0.0606004299	-2.1382832117	-0.452621
H	 0.9760741072	 1.9387185278	-0.210201233	 0.128873
H	-0.7405985648	 1.965536427	-0.6279006287	 0.110698
H	-0.252332697	 1.8982171358	 1.0695881728	 0.113624
H	-1.4304199946	-0.3196186854	 1.6427361119	 0.106456
H	-1.536288225	-1.6240268792	 0.3933722961	 0.107112
H	 1.0411537662	-0.7607019066	 1.9650037404	 0.082335
H	 2.7732716258	-3.0922303231	 0.6346701062	 0.116823
H	 3.1780642194	-2.4086896093	-0.9487911203	 0.123726
H	 3.3520148082	-1.4244479921	 0.5102197923	 0.118568
H	 0.9093959184	-2.6993478724	-2.0328052713	 0.109369
H	-0.6035742493	-2.621942697	-1.0291899455	 0.105344
H	 0.7835681459	 0.0480344387	-2.8832828037	 0.284724
133.3276	161.0419	183.4188	191.588	232.6677	291.4276	310.1525	330.9756	421.6373	463.4447	473.6636	506.0613	554.117	630.5175	711.1328	786.7994	815.1059	848.6309	881.2017	927.9484	956.5872	971.0216	975.2302	1018.6555	1043.0481	1048.7212	1087.6735	1099.0795	1112.3975	1122.1335	1201.2003	1218.1233	1275.5749	1292.9513	1313.5413	1374.9213	1406.3385	1415.9935	1424.3618	1480.5492	1484.4212	1491.3274	1500.7346	1505.3766	1521.668	3018.6979	3019.6809	3074.7277	3077.7609	3103.4567	3103.5043	3111.6883	3124.1897	3172.8904	3190.8648	3199.9398	3778.885
CC12CC1C1(C)CC21O	C[C@]12C[C@H]1[C@@]1(C)C[C@@]21O	
InChI=1S/C8H12O/c1-6-3-5(6)7(2)4-8(6,7)9/h5,9H,3-4H2,1-2H3	InChI=1S/C8H12O/c1-6-3-5(6)7(2)4-8(6,7)9/h5,9H,3-4H2,1-2H3/t5-,6+,7-,8-/m1/s1
