15
gdb 11274	5.26532	1.3467	1.12837	4.8916	69.27	-0.246	-0.0474	0.1986	1026.6024	0.120451	-358.869644	-358.862163	-358.861219	-358.901535	27.168	
C	-0.1349569096	 1.5673059722	-0.0169891984	-0.391965
C	 0.0992955926	 0.0617152558	 0.0212038947	 0.048644
C	 0.889231543	-0.5008828646	-1.1974597119	-0.198236
N	 1.7256675496	-1.5243251089	-0.5535097176	-0.352237
C	 1.7417820539	-1.1886608797	 0.7939067801	 0.275878
N	 0.8791675663	-0.3429148719	 1.2125105095	-0.296792
C	 2.6904512852	-1.8385268104	 1.6592028448	 0.261123
N	 3.4778890233	-2.3687632722	 2.3179678132	-0.315954
H	 0.8171028426	 2.1050232694	-0.0683100796	 0.12269
H	-0.7352148485	 1.8432857912	-0.8901599977	 0.11717
H	-0.6623279975	 1.8933216301	 0.8827872878	 0.137709
H	-0.8715659836	-0.4482205589	 0.0944348353	 0.102297
H	 0.2430625945	-0.9400728481	-1.96072563	 0.123723
H	 1.504103291	 0.2805815708	-1.6666581459	 0.109267
H	 2.5974648973	-1.7924569049	-0.9875474045	 0.256683
101.023	148.7107	160.491	224.8978	322.3433	381.9163	491.8003	517.6253	561.0502	590.3084	683.8485	725.9532	849.2453	907.5488	944.2592	995.1623	1046.2591	1090.8249	1128.3128	1146.3099	1213.6825	1252.2914	1298.0578	1326.3993	1368.8111	1408.1613	1459.6177	1487.7712	1497.2304	1522.0519	1671.7405	2365.893	2999.4354	3008.1739	3039.3901	3096.634	3109.1518	3127.0374	3602.2797
CC1CNC(=N1)C#N	C[C@H]1CN[C]([N]1)C#N	
InChI=1S/C5H7N3/c1-4-3-7-5(2-6)8-4/h4H,3H2,1H3,(H,7,8)	InChI=1S/C5H7N3/c1-4-3-7-5(2-6)8-4/h4H,3H2,1H3,(H,7,8)/t4-/m0/s1
