14
gdb 130722	3.25625	1.24334	0.95937	2.4845	68.19	-0.2279	0.0107	0.2386	1159.1254	0.101572	-432.866334	-432.858256	-432.857312	-432.900027	29.023	
O	-0.1497517479	 0.0127264719	-0.6327971879	-0.432526
C	-0.1084237956	 1.1727357648	-0.2777319491	 0.484513
N	-1.103438292	 2.1140108963	-0.1574465791	-0.312454
N	-0.6667528814	 3.3408185797	 0.2895439038	-0.218113
C	 0.6096704204	 3.1773542566	 0.4447240969	 0.054411
N	 1.019650352	 1.9077551934	 0.12388162	-0.119883
C	 2.3531449481	 1.3286745368	 0.1499163945	-0.311007
C	 3.0645153884	 1.5893819662	 1.3962137327	 0.293186
C	 3.6614396901	 1.8252693336	 2.4109332868	-0.433361
H	-2.0783653474	 1.9627778549	-0.3468919448	 0.283964
H	 1.2806480887	 3.942727896	 0.800740849	 0.161606
H	 2.2033497803	 0.2541983757	-0.0065886525	 0.183646
H	 2.9420300472	 1.6976536185	-0.6997553012	 0.15405
H	 4.187837979	 2.0173213555	 3.313476691	 0.211967
34.4345	96.4829	204.7011	234.9642	261.4317	325.9248	419.3697	444.5912	577.2489	630.5788	657.0262	680.5519	714.1406	750.837	812.2176	847.7986	929.1675	962.141	991.1681	1073.9506	1184.4479	1215.4507	1252.3353	1326.6963	1373.4443	1380.9735	1437.5857	1488.559	1619.3691	1838.1255	2247.8936	3023.0554	3073.155	3274.306	3503.1811	3697.6831
O=C1NN=CN1CC#C	O=c1[nH]ncn1CC#C	
InChI=1S/C5H5N3O/c1-2-3-8-4-6-7-5(8)9/h1,4H,3H2,(H,7,9)	InChI=1S/C5H5N3O/c1-2-3-8-4-6-7-5(8)9/h1,4H,3H2,(H,7,9)
