19
gdb 8089	3.47712	2.21908	1.7524	0.344	70.58	-0.2082	0.0802	0.2883	826.5159	0.167262	-365.027851	-365.020844	-365.0199	-365.058469	28.383	
C	-0.112473596	 1.5320308938	-0.0022818496	-0.46761
C	 0.0564718415	 0.0314466904	-0.0045959519	 0.416088
C	 1.1452747037	-0.6811693164	-0.8497758341	-0.23659
N	 1.1819029535	-1.7722167312	 0.1950250317	-0.123027
C	 0.707201482	-0.7263019795	 1.1766087097	-0.206702
C	 0.0396625666	-2.6734093401	-0.0545816267	-0.181492
C	-1.1831849214	-1.9208146449	-0.6430421829	-0.084116
O	-1.2275227511	-0.5495728718	-0.2494159339	-0.306269
H	 0.8341030447	 2.0264309626	 0.2353547984	 0.112521
H	-0.4562943774	 1.8824314351	-0.980311548	 0.123611
H	-0.8576040424	 1.8283623826	 0.7425401292	 0.127621
H	 0.9103706212	-0.9964247363	-1.8694509951	 0.105608
H	 2.0950069378	-0.1389640822	-0.8492019835	 0.105556
H	 1.567727199	-0.2119715427	 1.6164370738	 0.09845
H	 0.0398482601	-1.0877722926	 1.9636723355	 0.099951
H	 0.3474843545	-3.4617320432	-0.7514119108	 0.103178
H	-0.2089683258	-3.1577758431	 0.8953614622	 0.109076
H	-1.1602536794	-1.9798351009	-1.7405251484	 0.096571
H	-2.1248634313	-2.3738390195	-0.3178704957	 0.107572
194.5879	209.3342	229.0963	303.6694	395.5539	444.8931	470.727	473.3636	595.8365	679.9253	801.7976	824.8193	835.9348	857.5071	909.3872	914.3501	949.7852	973.9071	1002.1288	1038.4635	1082.3687	1101.4646	1164.5846	1187.9492	1217.8912	1230.2014	1249.6788	1264.4302	1270.2738	1288.4105	1343.7629	1364.0823	1399.0062	1412.2393	1479.6884	1481.6422	1493.8147	1496.0442	1506.0493	1529.3177	2992.6406	3031.584	3037.1728	3040.7043	3057.3807	3066.0929	3083.0542	3105.294	3110.4598	3111.0915	3116.2915
CC12CN(C1)CCO2	C[C@@]12CN(C1)CCO2	
InChI=1S/C6H11NO/c1-6-4-7(5-6)2-3-8-6/h2-5H2,1H3	InChI=1S/C6H11NO/c1-6-4-7(5-6)2-3-8-6/h2-5H2,1H3
