15
gdb 97357	2.88304	0.87795	0.69659	3.4577	77.62	-0.2713	-0.0257	0.2456	1570.3725	0.108669	-416.756744	-416.746886	-416.745941	-416.792918	33.388	
C	-0.0553577247	 1.4031828442	 0.1363987956	-0.32099
N	 0.0123157153	-0.0314900226	-0.0521707936	-0.191944
C	-1.0525052461	-0.6835019235	 0.0223360885	 0.144991
O	-1.0337178972	-2.0349973297	-0.1749699881	-0.200007
C	-2.2766428762	-2.7026451025	 0.0166260705	-0.213352
C	-2.2440616342	-3.983008057	-0.6810270167	 0.307468
C	-2.2483177843	-5.0339951091	-1.2576846709	-0.367796
C	-2.5578008902	-2.8898690122	 1.4603233289	 0.296606
N	-2.7876888055	-3.0001500561	 2.5863418601	-0.307343
H	 0.5931403095	 1.6882846827	 0.9715083949	 0.139995
H	 0.3329883403	 1.9049474238	-0.7563739249	 0.136796
H	-1.0700994067	 1.781680192	 0.3371998089	 0.103315
H	-2.0504187136	-0.267412476	 0.2283087996	 0.091811
H	-3.095985588	-2.0920350364	-0.3936795846	 0.159772
H	-2.2418667183	-5.9670851376	-1.7666182682	 0.220678
35.7205	63.1507	117.9111	125.2699	199.8589	228.8943	234.5623	308.2527	346.4004	411.2655	435.6201	535.8267	574.7526	658.0747	683.9768	701.2205	899.1241	961.4487	1014.1686	1046.636	1080.6003	1140.594	1151.1778	1204.8661	1320.6755	1330.0472	1411.6434	1449.0603	1479.7196	1503.6503	1791.1784	2259.565	2364.7543	2977.4301	2989.0425	3002.8011	3070.2849	3091.0023	3499.8633
CN=COC(C#C)C#N	CN=CO[C@@H](C#C)C#N	
InChI=1S/C6H6N2O/c1-3-6(4-7)9-5-8-2/h1,5-6H,2H3	InChI=1S/C6H6N2O/c1-3-6(4-7)9-5-8-2/h1,5-6H,2H3/t6-/m0/s1
