15
gdb 130387	4.60692	0.53	0.52688	6.1391	107.61	-0.251	-0.1258	0.1251	2130.6945	0.107489	-412.919665	-412.90852	-412.907576	-412.960415	35.143	
N	-0.7920720234	 0.4206674532	-0.7670054376	-0.708654
H	-1.244189365	-0.4155144821	-0.4062323522	 0.248451
H	 0.1302459479	 0.1236253808	-1.0749869106	 0.247434
H	-1.3011977343	 0.6725415918	-1.6105016126	 0.245236
C	-0.2295146128	 1.9947077658	 1.7804394682	-0.354231
C	 0.371930772	 1.4275017961	 2.8065012632	 0.285325
C	 0.9525398163	 0.8810870947	 3.7730044494	 0.097686
C	 1.5291021293	 0.2820298434	 4.8218640235	 0.10069
N	 2.8910907696	 0.2271934991	 5.0912883871	-0.26084
C	 2.9098400522	-0.4537443003	 6.1947656254	 0.004581
N	 1.6280280863	-0.847454	 6.6593192312	-0.169104
N	 0.7779060503	-0.3957055249	 5.816788682	-0.213221
H	 0.3287313813	 2.507561536	 1.00507469	 0.172166
H	-1.3072883602	 1.967200591	 1.6658366959	 0.173606
H	 3.8038245105	-0.7193379345	 6.7431365071	 0.130875
18.7948	21.5827	25.9386	82.0369	98.6113	140.3188	175.2756	183.0371	288.9675	310.336	458.6221	515.5672	525.7883	575.7671	675.4898	743.0341	920.2182	929.0671	929.2001	976.372	993.7562	1020.4778	1097.8013	1105.1315	1182.0288	1286.9462	1379.1706	1451.469	1553.0043	1677.0877	1678.6253	1681.3336	2205.2401	3162.2489	3240.6938	3243.1478	3464.8562	3582.028	3583.0056
[NH3+]CC#CC1=NC=N[N-]1	N.[CH2]C#Cc1ncnn1	
InChI=1S/C5H5N4/c6-3-1-2-5-7-4-8-9-5/h4H,3,6H2/q-1/p+1	InChI=1S/C5H4N3.H3N/c1-2-3-5-6-4-7-8-5;/h4H,1H2,(H,6,7,8);1H3
