20
gdb 119101	1.85339	1.02424	0.71691	2.048	85.22	-0.2291	0.0401	0.2692	1625.0348	0.16901	-403.09404	-403.083347	-403.082403	-403.131903	37.135	
C	-0.1051629751	 1.5485295098	 0.2630540782	-0.501973
C	-0.0234401138	 0.0978689356	 0.1727938351	 0.083045
C	 0.0432033405	-1.1040870773	 0.1042594577	 0.029955
C	 0.1398914432	-2.5393767521	-0.007952234	 0.141512
C	 1.3730528561	-3.0789535463	-0.7163349902	-0.277937
C	 1.4551239473	-2.6372679162	-2.1803003017	-0.060539
O	 2.613726908	-3.135126144	-2.8323409593	-0.41927
C	-0.5290222122	-3.3592518687	 1.0490995843	-0.274995
N	-1.108018969	-3.2998936152	-0.2981208309	-0.350052
H	 0.8602801662	 2.0112166375	 0.0308812929	 0.153823
H	-0.8423124556	 1.9521215096	-0.4400264585	 0.150142
H	-0.3934081343	 1.871177423	 1.2696386887	 0.149355
H	 2.2776887733	-2.7548029422	-0.1901286453	 0.109526
H	 1.3361431067	-4.1741347786	-0.6716098034	 0.093168
H	 0.5348497779	-2.9357705318	-2.7038584159	 0.100033
H	 1.5255954818	-1.546772706	-2.2365337526	 0.118352
H	 2.5309736125	-4.0925883441	-2.8844135785	 0.280343
H	-0.0969115994	-4.3187006418	 1.3214985791	 0.118951
H	-1.0239651209	-2.8314677172	 1.858734381	 0.119295
H	-1.8968506431	-2.6580554738	-0.3026138767	 0.237265
17.3714	60.6914	90.7709	110.1625	133.0221	184.7669	288.5163	306.1968	314.2333	331.1869	383.7457	411.9611	533.4663	562.9978	657.085	770.5324	820.0845	884.3441	933.82	984.8038	1028.9178	1040.0726	1052.3862	1054.051	1072.6587	1088.1403	1098.1216	1150.0652	1159.903	1265.8398	1291.9041	1306.487	1346.8063	1374.0895	1401.1315	1414.6138	1419.3442	1472.8726	1476.5931	1478.3747	1504.3138	1513.9255	2361.4763	2998.894	3026.9861	3031.3123	3074.6445	3086.8029	3090.3117	3094.9445	3108.7594	3199.6524	3506.9274	3815.8651
CC#CC1(CCO)CN1	CC#C[C@@]1(CCO)CN1	
InChI=1S/C7H11NO/c1-2-3-7(4-5-9)6-8-7/h8-9H,4-6H2,1H3	InChI=1S/C7H11NO/c1-2-3-7(4-5-9)6-8-7/h8-9H,4-6H2,1H3/t7-/m1/s1
