19
gdb 32228	2.53627	1.52527	0.9655	3.1653	88.36	-0.1989	-0.0046	0.1943	1224.8025	0.161039	-382.13407	-382.125461	-382.124516	-382.167033	32.762	
C	-0.0589181739	 1.4555877442	 0.0410246376	-0.325946
N	 0.1422979292	 0.0214549141	 0.0560942309	-0.37231
C	 0.6586685923	-0.6499806722	-1.0418790709	 0.274278
C	 1.2600089686	 0.014002595	-2.1154819375	-0.175434
C	 1.7971590477	-0.7310710322	-3.1602375058	-0.115138
C	 1.7114861181	-2.1142233753	-3.1115614046	-0.032569
N	 1.1335045544	-2.7656838657	-2.095488865	-0.309365
C	 0.6212087708	-2.0679876659	-1.0853624594	 0.268644
C	-0.0078718021	-2.8485406648	 0.0398141571	-0.503475
H	 0.9014194529	 1.9803676608	-0.0142058512	 0.135765
H	-0.6814182704	 1.8014622495	-0.7992361374	 0.118212
H	-0.5426969251	 1.7526823653	 0.9739647755	 0.126754
H	-0.5463538029	-0.4945263492	 0.5783690162	 0.239686
H	 1.3101132354	 1.0959877358	-2.1364580364	 0.09391
H	 2.2707811061	-0.2369460442	-4.0017922414	 0.091832
H	 2.1172424052	-2.729746454	-3.9097035296	 0.095841
H	 0.4562788044	-2.6109788602	 1.0053103198	 0.127929
H	-1.0825230405	-2.6373090636	 0.1373270004	 0.117784
H	 0.1098971798	-3.9145414973	-0.1565814684	 0.143602
105.49	154.6721	194.695	209.2956	233.2381	305.1965	314.4053	420.9779	467.3781	494.5345	549.9206	576.7393	607.9627	757.8834	766.589	824.9161	862.781	916.8294	968.8879	982.9133	1055.9633	1073.9256	1097.1667	1131.1246	1152.6106	1184.7151	1220.8017	1276.4094	1315.0007	1350.2284	1400.0969	1443.4051	1461.3991	1479.1761	1483.6439	1486.3888	1504.493	1520.0521	1538.4224	1614.8709	1631.0484	2979.7749	3003.8064	3055.3934	3059.2259	3121.6595	3145.5223	3159.3986	3185.5922	3204.3585	3636.9027
CNC1=CC=CN=C1C	CNc1cccnc1C	
InChI=1S/C7H10N2/c1-6-7(8-2)4-3-5-9-6/h3-5,8H,1-2H3	InChI=1S/C7H10N2/c1-6-7(8-2)4-3-5-9-6/h3-5,8H,1-2H3
