19
gdb 37284	4.17786	1.53663	1.47726	1.9689	76.72	-0.2506	0.0883	0.3389	945.0524	0.163227	-385.856222	-385.850174	-385.84923	-385.886249	26.562	
C	-0.0204312593	 1.5019141046	-0.0152125598	-0.234372
C	 1.5107466853	 1.7963610311	-0.0293475575	-0.245286
C	 2.0545647131	 0.3649804409	 0.0185360819	 0.009358
C	 1.1645349888	-0.440599533	-0.983359798	-0.0776
C	 1.4123078357	-1.9097175941	-0.6325439624	 0.024674
O	 2.6219495128	-2.1683186244	 0.1043080132	-0.256684
C	 1.4161202888	-1.859417604	 0.8279116754	 0.024675
C	 1.1699086207	-0.3695985764	 1.0781034339	-0.077601
C	 0.0324535046	-0.0256668957	 0.0372614381	-0.01315
H	-0.5281321408	 1.9301162133	 0.8544758322	 0.098026
H	-0.5327390707	 1.8693651161	-0.9096365311	 0.098026
H	 1.8311305726	 2.3259544821	-0.9317931298	 0.097768
H	 1.8357341435	 2.3867408741	 0.8328338209	 0.097768
H	 3.1329093377	 0.2263405517	 0.0204997594	 0.081112
H	 1.1047407585	-0.1566288971	-2.0354870353	 0.059486
H	 1.0321317081	-2.7292376668	-1.2329434512	 0.097582
H	 1.0392193667	-2.6356144501	 1.4852486035	 0.097582
H	 1.1155410068	-0.0139025543	 2.1084970444	 0.059486
H	-0.9132471327	-0.5723915878	 0.0585566422	 0.05915
256.826	286.3433	315.417	408.3604	506.3306	641.2768	680.6213	705.8565	776.8395	806.6327	836.7723	859.9341	893.5723	918.3216	923.5838	929.7584	948.5497	952.6356	981.9248	1005.4226	1023.638	1032.2553	1050.1976	1069.3584	1100.2876	1118.0795	1191.9468	1194.8078	1210.3944	1245.9563	1252.4652	1257.2531	1260.1086	1262.0128	1295.3301	1309.8547	1314.1752	1348.2147	1417.5781	1491.0964	1510.9959	3044.4042	3053.7906	3078.5373	3087.9076	3096.2222	3099.4583	3101.1926	3150.5125	3166.699	3178.758
C1CC2C3C4OC4C2C13	C1C[C@@H]2[C@H]3[C@H]4O[C@H]4[C@@H]2[C@@H]13	
InChI=1S/C8H10O/c1-2-4-5-3(1)6(4)8-7(5)9-8/h3-8H,1-2H2	InChI=1S/C8H10O/c1-2-4-5-3(1)6(4)8-7(5)9-8/h3-8H,1-2H2/t3-,4+,5-,6+,7-,8+
