18
gdb 7675	3.6199	1.81305	1.64663	1.544	67.	-0.2408	0.0695	0.3104	862.6742	0.153044	-384.903122	-384.895498	-384.894554	-384.934967	29.642	
C	-0.4359332251	 1.5712389825	-0.0372134133	-0.457619
C	-0.0380510448	 0.1033619067	 0.0027062864	 0.407374
O	-1.1653434182	-0.7328245778	-0.2236121298	-0.477861
C	 1.2085543011	-0.3163857842	-0.8588619023	-0.297573
C	 1.912482069	-0.8050465367	 0.4206225586	 0.125925
O	 2.6851961024	 0.236467525	 1.0634883028	-0.297538
C	 1.6245661493	 0.4963519279	 2.0135922907	-0.092543
C	 0.667987802	-0.4506958291	 1.2808708223	-0.108574
H	 0.4205440842	 2.2292591303	 0.1328211024	 0.129378
H	-0.8443617755	 1.821117143	-1.024621414	 0.106446
H	-1.2043236308	 1.7855699209	 0.712245298	 0.123312
H	-1.5297256704	-0.508952808	-1.0874999766	 0.273496
H	 0.9545627326	-1.1245140739	-1.5502848633	 0.099534
H	 1.7390591386	 0.4781279073	-1.3891190071	 0.103349
H	 2.4326123241	-1.7660933835	 0.4137607688	 0.075769
H	 1.8987807107	 0.1473020031	 3.0180056883	 0.100013
H	 1.3615046991	 1.5587579116	 2.0708981243	 0.100925
H	 0.0733929018	-1.1582489651	 1.8549187638	 0.086186
54.1755	229.7662	269.9828	285.9109	326.7054	355.0968	392.4963	416.3521	472.8198	624.3748	724.457	801.9928	835.65	858.5398	915.5614	948.736	953.4211	980.7612	1007.6954	1012.7171	1053.0323	1102.137	1107.8059	1153.0991	1185.5944	1191.1468	1223.7678	1242.4656	1263.7095	1291.6525	1317.3869	1354.4221	1374.9302	1404.9604	1446.3169	1487.7264	1494.5331	1529.7281	3008.4545	3024.8648	3055.712	3056.1854	3076.6334	3090.7806	3119.2552	3123.3281	3137.8629	3793.9141
CC1(O)CC2OCC12	C[C@@]1(O)C[C@H]2OC[C@@H]12	
InChI=1S/C6H10O2/c1-6(7)2-5-4(6)3-8-5/h4-5,7H,2-3H2,1H3	InChI=1S/C6H10O2/c1-6(7)2-5-4(6)3-8-5/h4-5,7H,2-3H2,1H3/t4-,5-,6-/m1/s1
