17
gdb 15519	3.15369	1.79329	1.18167	4.5943	77.82	-0.2485	-0.032	0.2165	1006.2219	0.143221	-326.77673	-326.768837	-326.767893	-326.808996	28.808	
C	-0.0019082873	 1.5090577763	 0.0726176919	-0.511588
C	 0.0517422476	 0.0196748099	 0.0065160519	 0.240168
C	 0.0503325524	-0.7496211906	-1.0979372682	 0.12381
C	 0.0598546766	-2.2343880346	-0.7788564039	-0.31152
C	 0.4201104628	-2.2529839871	 0.7269295013	-0.216316
C	 0.0653972019	-0.8408544402	 1.2494258688	-0.290141
C	-0.006194183	-0.2590814688	-2.42977588	 0.192113
N	-0.0491235264	 0.1205402936	-3.5244753802	-0.352254
H	 0.8690030684	 1.904133451	 0.6100951716	 0.137107
H	-0.0320367848	 1.9612515198	-0.9211080342	 0.152866
H	-0.8868168656	 1.8387330871	 0.6315463833	 0.137659
H	-0.9286313605	-2.6703839283	-0.9734441168	 0.12153
H	 0.77336831	-2.7917673595	-1.3929843696	 0.122431
H	-0.0932558335	-3.0483763086	 1.2715978704	 0.10777
H	 1.4950060027	-2.422505221	 0.8404904162	 0.115033
H	 0.7729664799	-0.4726433096	 2.0010262343	 0.11292
H	-0.9256517911	-0.8120500695	 1.7257764633	 0.118412
124.3455	145.6153	151.4513	167.3481	247.1656	320.0625	438.1933	508.6365	559.8253	615.2509	619.3687	699.2061	846.5995	887.98	919.3681	937.803	998.9846	1021.2544	1072.2984	1088.9548	1158.9207	1178.6856	1222.0832	1232.7861	1264.2401	1325.7395	1330.4554	1357.51	1414.4919	1477.337	1479.7523	1479.9792	1489.5254	1506.8932	1694.1146	2329.4202	3004.47	3022.8376	3025.1718	3051.0042	3063.5353	3070.136	3080.1791	3110.6663	3127.0894
CC1=C(CCC1)C#N	CC1=C(CCC1)C#N	
InChI=1S/C7H9N/c1-6-3-2-4-7(6)5-8/h2-4H2,1H3	InChI=1S/C7H9N/c1-6-3-2-4-7(6)5-8/h2-4H2,1H3
