21
gdb 39950	3.99161	1.11994	1.02324	0.1449	91.49	-0.2062	0.028	0.2342	1259.0761	0.18339	-349.942761	-349.934643	-349.933699	-349.976125	32.784	
C	-0.3249896543	 1.4393261605	 0.0706576492	-0.307737
C	 1.1365017006	 1.1189483751	-0.0989550418	-0.31091
C	 0.1284853272	-0.0051306831	-0.0065370167	 0.342404
C	 0.0701141664	-0.9479791607	 1.2112256229	-0.400847
C	-0.4512449978	-2.2849370902	 0.649047094	 0.342405
C	-0.066890546	-3.6134265553	 1.2618927037	-0.31091
C	-1.4840390249	-3.1186687157	 1.3813603647	-0.307737
C	-0.5257698978	-2.0962208316	-0.8240246689	-0.155257
C	-0.2090550359	-0.8507302994	-1.1821792708	-0.155261
H	-0.659896419	 1.8079198654	 1.0351938793	 0.109818
H	-0.8640231825	 1.8530912252	-0.7755569039	 0.109688
H	 1.5992154299	 1.314952692	-1.06098648	 0.109444
H	 1.7956031827	 1.2712526141	 0.750193147	 0.109246
H	 1.0669114407	-1.0758966507	 1.6478542229	 0.103717
H	-0.5812348708	-0.5558762165	 1.9987863355	 0.101266
H	 0.1341610615	-4.4464161127	 0.5957598508	 0.109444
H	 0.5586450938	-3.5931209524	 2.148998608	 0.109246
H	-1.8216353153	-2.7606511403	 2.348937858	 0.109818
H	-2.2535833626	-3.6113943445	 0.7958171463	 0.109688
H	-0.8188400757	-2.8952188992	-1.4963683065	 0.091238
H	-0.2006261717	-0.4640745465	-2.195470922	 0.091238
21.9707	179.6974	232.1495	299.8342	302.618	359.7358	386.295	426.2602	580.2918	609.6922	774.0849	776.4005	778.8159	797.3223	824.1716	829.6518	869.6063	919.6637	931.4836	933.8852	939.4934	947.4064	994.4522	995.4012	1040.8583	1057.4299	1058.2339	1072.7621	1078.9589	1113.0658	1190.7706	1191.3276	1207.1461	1236.4045	1281.8286	1309.5534	1310.0259	1339.3651	1419.7856	1465.2025	1465.2196	1490.753	1497.4665	1499.221	1671.8175	3032.5277	3072.0113	3118.8057	3119.0379	3122.9244	3123.3781	3177.5295	3197.5718	3197.7291	3201.9676	3213.7951	3213.953
C1CC11CC2(CC2)C=C1	C1CC21CC1(CC1)C=C2	
InChI=1S/C9H12/c1-2-8(1)5-6-9(7-8)3-4-9/h5-6H,1-4,7H2	InChI=1S/C9H12/c1-2-8(1)5-6-9(7-8)3-4-9/h5-6H,1-4,7H2
