22
gdb 56185	4.48761	0.71582	0.65271	2.4624	84.65	-0.2622	0.0368	0.299	1779.4739	0.1937	-404.351096	-404.341225	-404.340281	-404.387154	35.6	
C	-0.2213369711	 1.4074612238	-0.1659448202	-0.440926
C	 0.0856945792	-0.0502529003	 0.0297401015	 0.413956
N	 1.2710521139	-0.4678608551	 0.2039150819	-0.521637
O	-1.066498019	-0.7755216867	-0.0130272909	-0.244765
C	-0.9829078633	-2.1906629381	 0.1493204097	-0.111813
C	-2.3825548135	-2.7548210873	 0.0473072104	 0.029842
C	-3.1051730152	-2.7323691908	-1.3283823636	-0.212993
C	-3.6464322491	-4.1554922459	-1.0227938667	-0.209574
C	-2.5455407691	-4.3009428259	 0.0637831882	-0.239158
H	 0.7017958508	 1.9838790303	-0.1293095245	 0.145863
H	-0.7177662901	 1.5632261109	-1.1288483188	 0.136814
H	-0.9076192889	 1.7569132475	 0.61174775	 0.136598
H	 1.319505399	-1.4787582477	 0.3224585293	 0.215376
H	-0.3382053738	-2.6173375014	-0.6330866443	 0.102761
H	-0.533843425	-2.4295853395	 1.1245812845	 0.107592
H	-3.0106097869	-2.2926859097	 0.8159048965	 0.08318
H	-3.8283596865	-1.9344975655	-1.5078437768	 0.103273
H	-2.3854652494	-2.740045429	-2.1535850266	 0.100192
H	-4.6468934652	-4.1239168339	-0.5822883505	 0.105198
H	-3.6509420076	-4.8831881397	-1.8371741659	 0.099431
H	-1.6546470872	-4.802056854	-0.3301112949	 0.100045
H	-2.8156253922	-4.7724780221	 1.0115101916	 0.100744
49.3686	59.4296	100.989	137.7964	139.2129	185.2651	271.2747	310.0427	423.0969	467.185	561.3341	594.4235	650.7991	767.8371	787.3175	867.3591	886.6302	899.1405	924.4828	936.1513	974.8982	977.7048	988.2302	1063.3578	1075.7897	1090.8564	1122.2703	1137.16	1182.6259	1206.3495	1230.6806	1257.3655	1259.0574	1274.8311	1278.9419	1301.2733	1324.8261	1365.9054	1402.1098	1428.4143	1474.6475	1477.558	1477.999	1486.2113	1507.3538	1517.4515	1733.9089	2985.7773	3024.4799	3045.6518	3050.4736	3051.3893	3060.9522	3061.2061	3100.8127	3108.069	3108.6308	3122.0679	3169.2608	3498.5974
CC(=N)OCC1CCC1	C[C]([NH])OCC1CCC1	
InChI=1S/C7H13NO/c1-6(8)9-5-7-3-2-4-7/h7-8H,2-5H2,1H3	InChI=1S/C7H13NO/c1-6(8)9-5-7-3-2-4-7/h7-8H,2-5H2,1H3
