16
gdb 107782	2.7051	1.63813	1.21815	3.0067	68.02	-0.2267	0.0031	0.2298	1012.5554	0.124113	-437.818044	-437.81015	-437.809205	-437.850876	29.565	
O	 0.5036600709	 0.4662852845	 1.0151446913	-0.417562
C	-0.064950464	 0.2410332895	-0.2719596627	-0.224906
C	-1.3795326096	-0.478539023	-0.191610535	 0.156071
N	-2.430737358	 0.0449011065	 0.7574222251	-0.370348
C	-2.9393423771	-1.3509651711	 0.77706344	-0.014845
C	-2.9793861132	-1.8331893752	-0.6709723579	-0.219871
C	-1.7075287158	-1.9766767264	 0.2347992837	-0.151329
C	-2.2335424727	-0.7976380781	-1.4423452551	 0.474844
O	-2.1329321642	-0.503758172	-2.6002303666	-0.351208
H	 0.2577568441	 1.3512955155	 1.2973667961	 0.295088
H	-0.2132356616	 1.1805167525	-0.8200314617	 0.125657
H	 0.6460429721	-0.3607777097	-0.8481952461	 0.128338
H	-1.9428793229	 0.172518445	 1.6463337364	 0.217644
H	-3.6581212503	-1.7127110998	 1.5013029758	 0.112715
H	-3.6403591084	-2.6159679498	-1.0156201348	 0.117557
H	-1.1258801992	-2.8694547085	 0.4155849915	 0.122156
66.3298	133.4746	168.1626	198.5293	293.7552	313.5304	470.0584	569.8637	622.5592	672.8962	718.3195	743.9405	782.6598	809.5884	839.7945	887.0576	909.9935	958.1083	989.184	1023.9607	1027.8337	1047.9148	1060.263	1099.5233	1161.6029	1202.1456	1227.8356	1248.6093	1288.7453	1356.6231	1387.0334	1390.7093	1422.59	1481.2307	1879.4936	3025.5878	3078.4087	3198.4089	3218.1481	3228.7624	3432.0184	3844.2528
OCC12NC3C(C13)C2=O	OC[C@]12N[C@H]3[C@H]([C@@H]13)C2=O	
InChI=1S/C6H7NO2/c8-1-6-3-2(5(6)9)4(3)7-6/h2-4,7-8H,1H2	InChI=1S/C6H7NO2/c8-1-6-3-2(5(6)9)4(3)7-6/h2-4,7-8H,1H2/t2-,3+,4-,6-/m0/s1
