20
gdb 105347	2.29269	1.53903	1.1675	2.7803	78.69	-0.2429	-0.0245	0.2184	1141.0478	0.1696	-403.112607	-403.103614	-403.10267	-403.146505	33.672	
C	-0.1722877665	 1.5242034557	 0.2300883168	-0.38976
C	-0.2000136415	-0.0023224369	 0.0794797114	-0.25662
C	 0.6169248374	-0.5037218369	-1.1124778098	 0.249794
C	 2.1547494747	-0.3187281273	-1.1598509828	-0.321701
C	 2.2387977251	-1.8363752585	-1.3051636978	-0.006607
C	 1.5837250804	-2.5175302185	-0.1749276495	-0.243528
N	 0.7269280796	-2.0135956735	-1.2674731373	-0.182623
C	-0.0705826626	-0.0613963274	-2.3996428004	 0.138778
O	 0.3916539992	 0.6827758427	-3.2235810234	-0.255117
H	 0.8491634391	 1.8884463162	 0.3802673627	 0.126106
H	-0.5727780064	 2.027937162	-0.655218581	 0.133465
H	-0.7686438265	 1.8374382601	 1.091628354	 0.119802
H	 0.1755565178	-0.46603128	 0.9971355012	 0.105004
H	-1.2340081119	-0.3532503896	-0.0377311957	 0.110905
H	 2.4635952134	 0.2433858649	-2.0415793696	 0.138766
H	 2.6372251062	 0.1009142138	-0.2726887591	 0.101454
H	 2.8441302352	-2.3652671987	-2.0337500629	 0.100915
H	 1.6113433567	-3.6026437716	-0.1492350274	 0.126711
H	 1.5583519926	-2.0470822428	 0.8046110384	 0.114073
H	-1.0794232219	-0.5153123936	-2.5210594678	 0.090182
66.9665	90.7196	179.2687	192.6974	220.566	255.3502	329.1686	381.0775	401.9227	474.7314	557.804	678.4822	756.151	781.3052	789.345	831.7893	880.3134	932.1055	945.3401	993.0284	997.7677	1027.4724	1035.3928	1065.1234	1106.3007	1110.4813	1137.7623	1142.7243	1199.8327	1240.192	1256.5058	1267.2583	1331.2519	1350.6207	1363.7298	1410.5302	1416.726	1483.917	1488.1095	1500.6844	1503.8376	1509.3436	1833.7161	2889.0947	3025.2901	3040.1007	3062.111	3069.0994	3108.552	3113.1875	3115.6271	3136.4128	3167.9195	3201.121
CCC1(CC2CN12)C=O	CC[C@]1(C[C@H]2CN12)C=O	
InChI=1S/C7H11NO/c1-2-7(5-9)3-6-4-8(6)7/h5-6H,2-4H2,1H3	InChI=1S/C7H11NO/c1-2-7(5-9)3-6-4-8(6)7/h5-6H,2-4H2,1H3/t6-,7-,8?/m0/s1
