22
gdb 122586	3.64094	0.72955	0.63889	2.3594	84.1	-0.2615	0.0281	0.2895	1803.4104	0.193949	-404.358887	-404.348985	-404.348041	-404.39477	35.628	
C	-0.0639201727	 1.6149002977	-0.0201621043	-0.380277
C	 0.0238900658	 0.0865917611	 0.0048878138	-0.167249
C	 0.7072092473	-0.4931217195	-1.2378915349	-0.163933
C	 0.8094723025	-2.0228383181	-1.2100381917	-0.213416
C	 1.4496275569	-2.5987689678	-2.4724397234	-0.13275
C	 1.4485374821	-4.1324933943	-2.6659879698	-0.109923
O	 0.6475674883	-3.9877672059	-3.8809248331	-0.253251
C	 0.6011046744	-2.6167912705	-3.733174365	 0.442944
N	 0.0216594986	-1.7437720106	-4.4230435827	-0.54357
H	 0.9326509588	 2.0679532888	-0.068358675	 0.112722
H	-0.6261469362	 1.9630219021	-0.8934794729	 0.119251
H	-0.5622995975	 2.0018919105	 0.8741671694	 0.109775
H	 0.566045031	-0.2357030203	 0.9043562678	 0.089962
H	-0.9855959023	-0.3367679471	 0.0922922258	 0.095716
H	 0.1630019329	-0.189014798	-2.1396116104	 0.135478
H	 1.7158692188	-0.0661764126	-1.3306956256	 0.088989
H	 1.3980985103	-2.3419452755	-0.3392842845	 0.096861
H	-0.1909037112	-2.45794316	-1.0845797862	 0.101488
H	 2.4309512181	-2.1462301174	-2.6455913823	 0.105824
H	 2.4091566097	-4.6047222592	-2.884556322	 0.119468
H	 0.9052112176	-4.7053588689	-1.9092939945	 0.118869
H	-0.4825193433	-2.1622906445	-5.2068894786	 0.227021
59.3535	76.5282	87.6501	134.8974	164.5916	217.5763	250.5177	294.8084	344.5245	423.0674	481.3485	662.1242	739.6659	748.1835	782.8508	834.3529	865.6543	896.9637	907.6607	959.9024	970.4552	1007.9733	1021.8824	1052.5144	1070.3845	1098.1165	1131.7172	1152.5402	1174.8845	1224.11	1236.8061	1253.3439	1285.0019	1315.0849	1334.9872	1337.6432	1371.6302	1384.9972	1404.1268	1414.5687	1485.4794	1487.959	1499.679	1501.5445	1514.3828	1515.7658	1817.7895	3007.1348	3008.2259	3016.1825	3030.1576	3039.0418	3042.6678	3057.5778	3068.3707	3077.4382	3097.2572	3102.0627	3117.5336	3472.4188
CCCCC1COC1=N	CCCC[C@H]1CO[C]1[NH]	
InChI=1S/C7H13NO/c1-2-3-4-6-5-9-7(6)8/h6,8H,2-5H2,1H3	InChI=1S/C7H13NO/c1-2-3-4-6-5-9-7(6)8/h6,8H,2-5H2,1H3/t6-/m0/s1
