22
gdb 113042	5.46857	0.6591	0.62323	4.16	87.4	-0.297	0.036	0.333	1823.9293	0.194117	-367.231346	-367.221561	-367.220617	-367.266866	35.794	
C	-0.2310731032	 1.4189345028	-0.0928305383	-0.37906
C	 0.1395207318	-0.0677282063	-0.092148695	-0.196362
C	 0.7737870534	-0.5282872206	 1.2134355262	 0.063258
C	-0.1035445224	-0.5974959066	 2.4990374194	-0.264105
C	 0.6370049284	-1.9062748043	 2.8830774051	 0.041539
C	-0.185671532	-3.0355190153	 3.5139205644	-0.36419
C	 0.593412434	-4.2584955583	 3.7043910191	 0.261002
N	 1.2285861413	-5.2136899068	 3.8454672275	-0.309624
C	 1.0922885202	-2.0382168003	 1.405362477	-0.257745
H	 0.6538611398	 2.0468470371	 0.059119803	 0.115466
H	-0.6901447159	 1.7146685128	-1.041032495	 0.114554
H	-0.9422920043	 1.65158395	 0.7072576238	 0.117797
H	-0.7572512258	-0.6717716324	-0.2867872127	 0.089518
H	 0.8313153325	-0.2751900962	-0.9193073247	 0.098629
H	 1.6721579611	 0.0674457108	 1.4157664169	 0.072631
H	-0.0644565794	 0.2350956542	 3.2053108551	 0.102624
H	-1.1531308158	-0.7930352263	 2.2478488589	 0.096071
H	 1.4945878749	-1.6859927708	 3.5258849158	 0.093129
H	-0.5827729024	-2.7213638038	 4.4868942582	 0.149861
H	-1.0500984136	-3.2695452494	 2.8807855012	 0.144666
H	 0.3997717999	-2.6636081252	 0.8299666363	 0.099427
H	 2.1105953375	-2.3827555751	 1.2140789478	 0.110913
50.2206	65.352	107.4578	141.1831	194.7917	238.5272	311.3418	375.2753	391.5189	399.2389	423.3401	499.8614	636.4247	763.887	793.3352	818.6717	872.5458	925.1289	935.1876	942.1892	971.4794	990.9765	1021.4123	1056.1294	1079.2073	1123.3135	1142.4473	1155.3335	1215.7725	1232.6746	1255.5559	1268.4773	1271.9142	1287.2217	1311.209	1324.2891	1347.7324	1376.08	1402.696	1412.387	1463.9907	1477.3597	1484.8689	1500.3431	1502.8952	1507.6806	2360.1257	3010.1374	3026.6712	3031.4778	3032.8142	3035.0611	3042.1249	3048.8317	3058.6067	3076.1483	3097.258	3102.4372	3104.5515	3112.2337
CCC1CC(CC#N)C1	CC[C@H]1C[C@@H](CC#N)C1	
InChI=1S/C8H13N/c1-2-7-5-8(6-7)3-4-9/h7-8H,2-3,5-6H2,1H3	InChI=1S/C8H13N/c1-2-7-5-8(6-7)3-4-9/h7-8H,2-3,5-6H2,1H3/t7-,8+
