17
gdb 103053	2.64676	1.54024	1.16849	1.0516	75.42	-0.2284	0.0247	0.2531	1078.7843	0.133345	-421.724257	-421.715569	-421.714625	-421.757498	32.372	
C	 0.1629055711	 1.0947577174	 0.4111173521	-0.257502
O	-0.0603243251	-0.1126005269	-0.3061555285	-0.279581
C	-1.3350541241	-0.6369791519	-0.12636165	 0.223228
C	-2.4068476141	 0.0299487065	-0.8236280616	 0.286464
C	-3.2968782611	 0.6057023837	-1.3928093876	-0.428308
C	-1.4641886192	-2.1448382589	-0.0119817576	-0.212874
C	-0.2849352299	-2.6613439192	 0.807458066	-0.108409
O	-0.5862986902	-1.7403654681	 1.8955093953	-0.289061
C	-1.7313689466	-1.2763740047	 1.200444566	 0.018778
H	 1.182800371	 1.4090078298	 0.1803938563	 0.127863
H	-0.5354739071	 1.8808775308	 0.0960508172	 0.118817
H	 0.0677112075	 0.9315693943	 1.4913510005	 0.128168
H	-4.0786043902	 1.110064099	-1.9051736709	 0.195928
H	-2.1186952418	-2.7233288465	-0.6485830085	 0.116638
H	-0.4149435127	-3.6951854137	 1.142595489	 0.114662
H	 0.7161039139	-2.505983779	 0.3981949314	 0.127509
H	-2.6218171214	-1.0224047524	 1.7638432409	 0.11768
99.358	139.0225	148.2798	175.4134	208.4124	282.8041	348.674	436.9777	482.5984	535.3081	572.43	590.9858	686.7756	701.3807	797.4908	834.4542	918.9067	947.3964	972.525	993.7022	1027.5707	1063.0003	1075.4023	1111.6769	1154.301	1164.9062	1178.6746	1218.352	1240.5924	1259.1693	1311.4961	1387.248	1474.0157	1488.3212	1498.9224	1504.029	2227.164	3009.961	3048.6905	3075.0147	3112.5051	3128.9093	3183.3645	3215.4144	3500.1121
COC1(C#C)C2COC12	CO[C@@]1(C#C)[C@H]2CO[C@@H]12	
InChI=1S/C7H8O2/c1-3-7(8-2)5-4-9-6(5)7/h1,5-6H,4H2,2H3	InChI=1S/C7H8O2/c1-3-7(8-2)5-4-9-6(5)7/h1,5-6H,4H2,2H3/t5-,6+,7-/m0/s1
