19
gdb 118316	2.51611	1.17486	0.88754	5.4683	75.06	-0.2508	-0.0299	0.2209	1329.7214	0.158678	-456.369916	-456.360179	-456.359235	-456.405815	34.918	
C	-0.3244135794	 1.5180802064	 0.1078718497	-0.490237
C	-0.0217737606	 0.0362145486	 0.1125882612	 0.372009
N	 0.1324168081	-0.6728458974	 1.1599837791	-0.491564
N	 0.0897157464	-0.597242581	-1.1483397449	-0.106895
C	 0.2530174957	 0.1407511758	-2.41423685	-0.221296
C	 1.6869663781	 0.1501557336	-2.9727239429	-0.032193
O	 2.0026525458	-0.9775631446	-3.7472987366	-0.426735
C	 0.0566442013	-1.9754189236	-1.2102982891	 0.174467
O	 0.2942324053	-2.6079478552	-2.2228880875	-0.347801
H	 0.4989035439	 2.0982484713	-0.3208398229	 0.155785
H	-1.227279323	 1.7482800962	-0.4665634219	 0.152507
H	-0.4729778338	 1.8547990146	 1.1350147087	 0.136066
H	-0.0271153911	-0.1166822709	 1.9966802515	 0.225894
H	-0.4023257394	-0.319826818	-3.1595783995	 0.141559
H	-0.0870454803	 1.1626916405	-2.256803177	 0.118092
H	 1.7903861604	 1.0261014192	-3.6262572432	 0.10196
H	 2.3900806621	 0.2907091809	-2.1323854119	 0.082691
H	 1.555823531	-1.7397087024	-3.3464052257	 0.305103
H	-0.2203721006	-2.4381010739	-0.2573294573	 0.150588
33.093	42.4795	135.3777	179.9104	229.0501	242.862	287.0099	321.8319	402.7299	436.5248	497.9603	529.5762	537.4054	575.2915	628.1982	785.1252	844.8516	860.825	971.0828	1002.4689	1044.133	1056.9109	1066.9013	1086.4425	1110.3729	1171.0316	1259.3361	1282.2812	1315.2462	1379.3639	1390.6067	1400.9956	1413.9848	1436.6855	1469.0972	1482.2082	1485.5614	1496.1194	1509.9626	1705.8472	1762.867	2946.2525	3035.7687	3043.644	3074.8933	3095.5199	3106.958	3137.6324	3154.2116	3513.2168	3673.8371
CC(=N)N(CCO)C=O	CC(=N)N(CCO)C=O	
InChI=1S/C5H10N2O2/c1-5(6)7(4-9)2-3-8/h4,6,8H,2-3H2,1H3	InChI=1S/C5H10N2O2/c1-5(6)7(4-9)2-3-8/h4,6,8H,2-3H2,1H3
