20
gdb 104098	2.4815	1.30713	1.14421	2.3611	76.08	-0.2587	0.0244	0.2831	1181.7869	0.171055	-440.316419	-440.307413	-440.306469	-440.350018	34.475	
C	-0.1867939411	 1.6496108792	 0.1387954403	-0.434613
C	 0.0198866383	 0.1554644504	-0.067497574	 0.341187
C	-1.3197692128	-0.5945675543	-0.155838383	-0.080883
O	-2.0716432191	-0.4766159458	 1.032218621	-0.419972
C	 0.9601898458	-0.2011425471	-1.2364232625	-0.277991
C	 1.7404335645	-1.4156036995	-0.716110653	-0.305486
C	 1.6888462108	-1.251961598	 0.7872917966	 0.406039
N	 2.4336520882	-1.8374410443	 1.620778186	-0.537591
O	 0.7019922013	-0.3616143396	 1.1172475011	-0.285992
H	 0.7656981791	 2.1409716378	 0.3539098704	 0.122324
H	-0.6120181127	 2.0955769301	-0.7662473794	 0.119995
H	-0.8775203765	 1.8276798829	 0.9655778649	 0.140299
H	-1.926633446	-0.1670740424	-0.9612656578	 0.112288
H	-1.1294413256	-1.6507562665	-0.4073987507	 0.08644
H	-1.485484069	-0.7469255978	 1.7495272279	 0.290757
H	 0.404784338	-0.4032350713	-2.1560598608	 0.113061
H	 1.6359828075	 0.6360621744	-1.4344743964	 0.115103
H	 1.2557136923	-2.3595907512	-0.9868598311	 0.136073
H	 2.7721337138	-1.4716218859	-1.0642530093	 0.139497
H	 2.1902504033	-1.5655861511	 2.5750011897	 0.219465
80.0118	124.8733	145.9217	225.0049	248.2568	306.1846	331.4928	382.2308	444.3848	476.2104	503.5222	531.9927	621.0673	659.9902	783.0668	811.4293	892.4616	903.1835	909.0514	928.2831	956.6482	1006.3379	1021.8639	1083.8415	1091.0829	1122.2594	1134.2918	1206.8852	1210.7032	1259.0145	1267.6823	1308.4518	1329.5047	1351.7352	1384.699	1411.6749	1433.5077	1474.1773	1481.8434	1496.8953	1502.5284	1502.9842	1777.1735	2972.0724	3045.4998	3058.7652	3059.2921	3073.6565	3104.3255	3116.7863	3131.7669	3138.7504	3469.5351	3789.7534
CC1(CO)CCC(=N)O1	C[C@@]1(CO)CC[C]([NH])O1	
InChI=1S/C6H11NO2/c1-6(4-8)3-2-5(7)9-6/h7-8H,2-4H2,1H3	InChI=1S/C6H11NO2/c1-6(4-8)3-2-5(7)9-6/h7-8H,2-4H2,1H3/t6-/m0/s1
