21
gdb 118726	2.71635	1.18449	0.96418	1.7553	79.58	-0.2319	0.0811	0.3131	1314.6831	0.180916	-424.166037	-424.156604	-424.15566	-424.200541	34.739	
C	 0.2076189965	 1.371473954	 0.0556595481	-0.222107
O	 0.26841946	-0.0331549637	 0.060954789	-0.236832
C	 0.5245802341	-0.5756237557	-1.2214054962	-0.133258
C	 0.5854369551	-2.0795078419	-1.0975652278	 0.28346
C	-0.6563646311	-2.7176986157	-0.499148575	-0.465441
C	 1.2714495619	-2.9514205077	-2.1431655157	-0.192179
C	 2.5718932894	-2.3221424162	-2.628389912	-0.110239
O	 3.017135277	-2.0870111598	-1.2655935546	-0.28661
C	 1.8709081305	-2.7774985916	-0.7603863739	 0.072182
H	 1.1545345273	 1.8208378017	-0.2837036512	 0.105573
H	-0.5996514822	 1.7453067511	-0.5951803307	 0.099755
H	 0.0114712074	 1.6954872393	 1.0808333451	 0.125019
H	-0.2787175448	-0.2857871699	-1.9222642758	 0.078477
H	 1.4708870924	-0.1775138806	-1.6123886185	 0.100983
H	-1.5224730324	-2.5774362636	-1.1564167021	 0.115186
H	-0.520861698	-3.7946722324	-0.3551076236	 0.111058
H	-0.8862004984	-2.2637288289	 0.4674112295	 0.142149
H	 0.7749584213	-3.799818306	-2.5960259542	 0.095276
H	 3.2337220147	-3.0414014009	-3.1244784156	 0.110153
H	 2.5237323372	-1.4011416636	-3.2211770185	 0.105239
H	 2.0152690322	-3.452524098	 0.0761650637	 0.102153
68.5867	85.1581	150.8683	211.5258	220.2035	242.3378	252.168	324.6799	343.8964	414.1005	474.4726	528.7749	745.7728	773.121	835.094	878.8408	951.6532	959.6019	980.6404	983.8992	993.4297	1020.4927	1041.0401	1079.2724	1094.0792	1128.8304	1156.2939	1164.8192	1179.2677	1200.9633	1229.9374	1248.3863	1278.0101	1316.5056	1337.7478	1400.4038	1418.8852	1436.2375	1478.3721	1485.4218	1488.1884	1498.2668	1510.0464	1517.2072	1523.5655	2944.9408	2966.5999	3008.574	3021.3766	3026.5738	3030.7208	3068.0112	3090.875	3111.0211	3126.3199	3171.1895	3195.5893
COCC1(C)C2COC12	COC[C@@]1(C)[C@H]2CO[C@@H]12	
InChI=1S/C7H12O2/c1-7(4-8-2)5-3-9-6(5)7/h5-6H,3-4H2,1-2H3	InChI=1S/C7H12O2/c1-7(4-8-2)5-3-9-6(5)7/h5-6H,3-4H2,1-2H3/t5-,6+,7-/m0/s1
