16
gdb 95614	2.36419	1.68461	1.08547	4.4064	65.62	-0.245	-0.0686	0.1764	1074.4238	0.125109	-475.066285	-475.058055	-475.057111	-475.100018	30.357	
O	 0.373335166	 0.8305459852	 0.822432111	-0.435304
C	-0.0409504183	-0.2425753961	 0.0137018501	 0.047554
C	-1.5802860702	-0.2751419895	-0.1055053358	-0.226039
C	-2.061588372	 0.2294632606	-1.4680658523	-0.186648
N	-1.4140716926	-0.5409945916	-2.530587168	-0.315654
C	-0.0681467589	-0.7518761853	-2.5766587689	 0.331645
O	 0.5215003353	-1.3330345042	-3.4613352992	-0.343979
C	 0.6451052678	-0.1406646663	-1.3550551288	 0.262297
O	 1.7005003425	 0.4341657109	-1.4668247117	-0.303668
H	 1.2424074747	 1.094561395	 0.4836622396	 0.295861
H	 0.3006229707	-1.2052005732	 0.4383381606	 0.106413
H	-1.939396523	-1.2990693265	 0.032779759	 0.115911
H	-1.9904318464	 0.3386321609	 0.699996149	 0.134943
H	-3.1415637182	 0.099762837	-1.5677136325	 0.126019
H	-1.8526590417	 1.3026969405	-1.5759131067	 0.131939
H	-1.9361703354	-0.8204026875	-3.3486962253	 0.258711
32.7929	89.43	214.0845	276.3885	331.4152	350.8376	401.4785	441.5358	466.1889	509.1047	539.6798	619.68	679.2937	710.6765	848.7898	877.8198	924.591	990.0311	1060.5934	1073.7841	1098.8583	1145.1628	1211.2107	1258.7095	1282.4619	1319.8822	1357.2467	1380.5905	1388.4808	1422.8157	1452.1677	1475.4911	1515.7341	1806.2399	1814.8963	2925.62	3013.5443	3063.0909	3102.9411	3119.2685	3608.8043	3715.092
OC1CCNC(=O)C1=O	O[C@H]1CCNC(=O)C1=O	
InChI=1S/C5H7NO3/c7-3-1-2-6-5(9)4(3)8/h3,7H,1-2H2,(H,6,9)	InChI=1S/C5H7NO3/c7-3-1-2-6-5(9)4(3)8/h3,7H,1-2H2,(H,6,9)/t3-/m0/s1
