21
gdb 117758	2.50776	0.96297	0.84149	3.4712	79.02	-0.2573	0.0298	0.2871	1479.3476	0.18068	-420.411792	-420.40071	-420.399766	-420.448024	39.53	
C	 0.1334542805	 1.5285873696	 0.0566412678	-0.411737
C	-0.0250167167	 0.0073612341	 0.0371861682	-0.191456
C	-1.495689442	-0.499802094	-0.0423854156	 0.054923
N	-2.2444065268	-0.0145944134	-1.2148551804	-0.520596
C	-1.4976595299	-2.046009109	-0.0628140729	-0.183396
C	-2.8802601113	-2.6893718949	-0.0555482474	-0.094932
O	-2.6724525173	-4.0943838981	-0.114431229	-0.423853
C	-2.2121186948	-0.023986723	 1.1613678451	 0.31962
N	-2.7387815311	 0.3623743265	 2.1147954359	-0.355742
H	 1.1908276329	 1.7994220682	 0.1227674593	 0.125102
H	-0.2637049078	 1.9897818823	-0.8535430123	 0.109677
H	-0.3803576169	 1.9715773123	 0.9153695505	 0.145939
H	 0.5005615035	-0.4150605941	-0.8284823045	 0.099129
H	 0.4435346792	-0.4240729839	 0.9290490291	 0.116927
H	-2.2904657528	 0.9995309887	-1.2130988643	 0.242857
H	-1.7435042184	-0.2884513775	-2.0563624252	 0.233628
H	-0.9641559645	-2.3687213318	-0.965328213	 0.107313
H	-0.926912654	-2.4202573712	 0.7926673941	 0.122023
H	-3.4194944748	-2.4021860837	 0.8594435655	 0.108015
H	-3.4637171136	-2.3269005039	-0.9116352661	 0.108086
H	-3.5329401935	-4.5228535634	-0.097803815	 0.288473
70.5626	97.3553	106.0167	134.0381	164.8346	201.2299	237.4312	252.2465	276.0053	299.2702	336.8497	391.2016	398.6708	461.5195	588.7315	641.028	716.3643	789.4893	805.5434	853.1435	950.6631	961.8652	1007.0096	1050.2623	1057.448	1079.6287	1094.9639	1120.1978	1197.2144	1231.7087	1253.674	1285.7738	1308.8715	1339.1023	1360.2026	1378.3508	1415.5286	1463.7662	1474.0132	1488.1203	1501.1055	1506.7943	1533.875	1650.9618	2354.2961	2994.0603	3025.2869	3037.3877	3039.8377	3041.6902	3067.8024	3094.7187	3107.6752	3116.8502	3487.1017	3576.1086	3834.1218
CCC(N)(CCO)C#N	CC[C@@](N)(CCO)C#N	
InChI=1S/C6H12N2O/c1-2-6(8,5-7)3-4-9/h9H,2-4,8H2,1H3	InChI=1S/C6H12N2O/c1-2-6(8,5-7)3-4-9/h9H,2-4,8H2,1H3/t6-/m1/s1
