21
gdb 114059	2.60748	1.18612	1.00721	0.5427	79.34	-0.2396	0.0764	0.316	1275.2421	0.180797	-424.192093	-424.182375	-424.181431	-424.226205	36.844	
C	 0.1246983235	 1.5765569201	 0.0943244798	-0.501794
C	-0.0120140949	 0.0798278547	 0.1054505401	 0.281016
C	 1.1193519534	-0.8323927845	-0.3355658814	-0.401039
C	 0.5621280514	-0.9662743943	 1.0548306315	 0.360443
O	 1.3270291161	-0.7361461793	 2.1871004854	-0.466339
C	-0.7396231699	-1.7689149739	 1.0315525136	-0.300529
C	-1.3284134251	-0.722658138	 0.0237150446	-0.015705
C	-2.5575195834	-0.0031245761	 0.5465534056	-0.107707
O	-3.6150709833	-0.9496475344	 0.6094371397	-0.422419
H	 1.1227602521	 1.8705394847	 0.4339884579	 0.125419
H	-0.0195147329	 1.9880187251	-0.9120266143	 0.116955
H	-0.601519392	 2.0579154483	 0.7582203701	 0.11774
H	 0.9614930909	-1.6035452467	-1.088028883	 0.098802
H	 2.0881501882	-0.3433272797	-0.3821685457	 0.106335
H	 2.020738242	-1.4035334742	 2.227044864	 0.283613
H	-0.6750197832	-2.8091734977	 0.6958373755	 0.0879
H	-1.2667481093	-1.737235181	 1.9878138872	 0.110831
H	-1.552172732	-1.126044938	-0.9707634306	 0.068453
H	-2.3433443188	 0.4215713255	 1.5414479203	 0.086952
H	-2.8137838489	 0.8361125961	-0.1204515481	 0.085161
H	-4.388461214	-0.5119817068	 0.9765445879	 0.285914
91.4531	135.8576	173.4709	183.8282	202.2243	258.7209	265.2658	302.8418	372.1436	423.7695	435.6008	454.2061	535.5294	577.9695	718.0441	759.703	826.7155	855.2984	919.3503	942.5245	975.8652	978.6826	1040.095	1058.4277	1065.8547	1080.4149	1104.8027	1165.8483	1180.6469	1212.997	1239.8345	1248.9247	1261.686	1268.1739	1300.2534	1331.1171	1363.5266	1406.8715	1422.8669	1460.7424	1480.7428	1490.2809	1498.117	1512.1412	1525.8253	2957.8592	2985.0858	3023.7844	3037.6507	3047.7764	3082.4231	3091.2691	3101.2337	3110.8677	3189.9715	3792.6361	3830.9253
CC12CC1(O)CC2CO	C[C@@]12C[C@]1(O)C[C@H]2CO	
InChI=1S/C7H12O2/c1-6-4-7(6,9)2-5(6)3-8/h5,8-9H,2-4H2,1H3	InChI=1S/C7H12O2/c1-6-4-7(6,9)2-5(6)3-8/h5,8-9H,2-4H2,1H3/t5-,6-,7+/m0/s1
