17
gdb 53200	3.05291	1.01068	0.82968	2.4118	83.34	-0.2315	-0.0205	0.211	1418.4316	0.134278	-384.694862	-384.685663	-384.684719	-384.73186	32.1	
C	 0.003777584	 1.5374804766	-0.0557167372	-0.49762
C	 0.0344524495	 0.0827312789	-0.0184484501	 0.043677
C	 0.0565244368	-1.1207609504	 0.0018562896	 0.107202
C	 0.0707825198	-2.5767205634	 0.0523859739	-0.325372
C	 0.6621131532	-3.1613102014	 1.3191878221	-0.063435
C	-0.1736273972	-3.984509768	 1.9509473559	-0.076622
C	-1.4963928312	-4.1281410072	 1.2520667479	-0.367337
C	-1.3643849871	-3.19934285	 0.0362191	 0.392915
O	-2.2037296268	-2.9899335004	-0.7926523057	-0.29294
H	 0.9223076044	 1.9450527613	-0.4923304213	 0.147595
H	-0.8375383264	 1.8983497584	-0.6575713451	 0.15339
H	-0.1021730267	 1.9603860096	 0.9493728378	 0.147514
H	 0.5906323184	-2.9611913736	-0.8394526358	 0.131611
H	 1.6614587337	-2.9028596645	 1.647026471	 0.111211
H	 0.055802348	-4.505951196	 2.8730817804	 0.105798
H	-1.7083821342	-5.1500290191	 0.9112772643	 0.139782
H	-2.3573142882	-3.8272246405	 1.8626815724	 0.142629
9.7567	39.7242	84.5371	125.1412	254.6608	267.4065	382.4914	405.5435	455.9706	482.5296	563.3823	623.9835	706.5975	751.9838	768.6121	838.1425	963.5843	975.7387	982.7696	1011.3883	1051.6954	1053.9654	1099.2844	1124.0298	1154.794	1182.0837	1221.9749	1276.847	1295.5998	1374.4523	1414.4392	1442.5754	1477.9685	1478.0916	1683.854	1864.2735	2371.7338	2981.5285	3027.232	3027.6846	3055.3421	3087.6636	3089.3157	3192.5599	3218.2416
CC#CC1C=CCC1=O	CC#C[C@H]1C=CCC1=O	
InChI=1S/C8H8O/c1-2-4-7-5-3-6-8(7)9/h3,5,7H,6H2,1H3	InChI=1S/C8H8O/c1-2-4-7-5-3-6-8(7)9/h3,5,7H,6H2,1H3/t7-/m0/s1
