16
gdb 71463	4.5513	1.19814	1.10314	4.24	74.84	-0.2539	0.0149	0.2688	1099.9209	0.123839	-400.705737	-400.698184	-400.697239	-400.737552	29.364	
C	-0.0321193644	 1.5443708024	 0.0854680579	-0.506488
C	-0.1072335595	 0.0587315809	-0.05327928	 0.400314
C	 0.4033970353	-0.7320058351	-1.2897796807	-0.3146
C	-0.4844522966	-1.8685233548	-0.7788655424	 0.167838
C	-0.8587406765	-3.0770266287	-1.4239514168	 0.166776
N	-1.1622871182	-4.0661469616	-1.9449491797	-0.350955
C	-0.429444619	-1.715716538	 0.7793992801	 0.071367
O	 0.491592284	-0.6857228446	 1.0637591853	-0.315959
C	-1.3764787508	-0.8887684039	 0.0035567401	-0.238998
H	 1.0152279845	 1.8631708101	 0.112085094	 0.143524
H	-0.5202170426	 2.0333114816	-0.7625427312	 0.132491
H	-0.5157614793	 1.8730282228	 1.0091347953	 0.140642
H	 0.0176311292	-0.3201985503	-2.2248992888	 0.122809
H	 1.4823180256	-0.8982525943	-1.3477921439	 0.119797
H	-0.5517424498	-2.5457908481	 1.461540814	 0.136837
H	-2.4479488117	-0.7468402782	 0.0045463068	 0.124606
132.9322	146.818	200.1024	280.8483	305.1284	435.9174	483.9006	521.9672	537.75	582.2056	637.4958	733.2845	773.3821	814.6793	849.3615	876.7354	928.5771	976.7981	992.4048	1013.1491	1048.4677	1088.9034	1109.2253	1151.4033	1161.59	1194.0454	1236.3035	1284.7064	1348.5965	1377.144	1421.8187	1477.2422	1487.6404	1488.437	2340.7347	3042.3454	3063.6286	3113.9966	3124.6758	3130.6329	3214.9762	3229.1773
CC12CC3(C#N)C(O1)C23	C[C@@]12C[C@@]3(C#N)[C@@H](O1)[C@@H]23	
InChI=1S/C7H7NO/c1-6-2-7(3-8)4(6)5(7)9-6/h4-5H,2H2,1H3	InChI=1S/C7H7NO/c1-6-2-7(3-8)4(6)5(7)9-6/h4-5H,2H2,1H3/t4-,5-,6-,7-/m0/s1
