19
gdb 78540	2.35106	1.5734	1.23728	0.7693	75.7	-0.223	0.0642	0.2873	1107.1989	0.156135	-422.945389	-422.93634	-422.935396	-422.978498	34.847	
C	-0.1257532637	 1.6285567953	 0.0327248051	-0.433619
C	 0.1210685654	 0.1317760506	-0.050071038	-0.061148
C	 0.6926404346	-0.7177556307	-1.1803992743	-0.22601
C	 2.0377334833	-0.2108253767	-1.8016790083	 0.427561
C	 2.5365091629	-0.5228557018	-3.1725078386	-0.500284
O	 2.4064420403	 1.0449390662	-1.1965296587	-0.283162
C	 2.669335572	-0.1729664605	-0.4852613346	-0.140669
C	 1.3551431776	-0.6961512529	 0.1916066748	 0.317393
O	 1.4105766088	-1.7520399678	 1.0859141227	-0.451299
H	 0.7017308023	 2.2110437816	-0.3601634267	 0.153843
H	-1.0328842755	 1.8845371374	-0.5269597145	 0.112023
H	-0.2978640821	 1.9191629627	 1.0760019068	 0.10574
H	-0.7148448131	-0.4323098727	 0.3699325042	 0.094806
H	 0.1242773806	-1.5248198865	-1.6260602068	 0.096785
H	 1.942435354	-0.0005715209	-3.9314196508	 0.131046
H	 3.5792766281	-0.2117334492	-3.2768698466	 0.134218
H	 2.4672820352	-1.5969981787	-3.3729799588	 0.129557
H	 3.6832703313	-0.374038494	-0.1561291682	 0.10545
H	 1.4548438381	-1.3883119216	 1.9776827812	 0.287767
123.6552	139.3832	198.0209	203.2475	254.9645	286.0057	308.8504	336.3643	374.9709	421.9923	526.1027	576.7311	583.2905	681.8094	735.0855	777.6502	852.0495	863.4048	909.1983	960.2946	969.5503	990.7165	1019.6472	1061.9259	1091.8878	1122.0402	1130.4114	1168.2886	1176.3113	1235.3257	1275.6652	1304.7171	1350.1372	1399.328	1405.6846	1457.4322	1475.0949	1484.6999	1495.5065	1502.4685	1512.8901	3029.7518	3032.0614	3078.9795	3087.2893	3094.3351	3121.914	3175.5651	3191.6474	3197.8184	3783.0882
CC1C2C3(C)OC3C12O	C[C@H]1[C@H]2[C@@]3(C)O[C@H]3[C@@]12O	
InChI=1S/C7H10O2/c1-3-4-6(2)5(9-6)7(3,4)8/h3-5,8H,1-2H3	InChI=1S/C7H10O2/c1-3-4-6(2)5(9-6)7(3,4)8/h3-5,8H,1-2H3/t3-,4-,5+,6+,7+/m0/s1
