24
gdb 88434	2.4928	1.1947	1.10787	1.1852	90.69	-0.2097	0.0901	0.2998	1307.7783	0.215389	-368.373439	-368.36314	-368.362196	-368.408348	39.211	
C	-1.2706638146	 0.1767491772	 0.1457896829	-0.417347
C	-0.1961125424	-0.8699221969	 0.3455249633	 0.028309
C	 1.1690904816	-0.7156201852	-0.2417368844	-0.261628
N	 0.9761645474	-0.6801982347	 1.1983101268	-0.127948
C	 1.2125458828	 0.5012745478	 2.003439602	 0.367796
C	 1.5994536549	 1.8045218782	 1.3260816048	-0.474406
C	 0.3942723169	 0.5640300957	 3.2734142495	-0.32906
C	 1.8667235593	 0.2293507302	 3.3527605354	-0.028319
C	 2.324566518	-1.1509816352	 3.7608924422	-0.403577
H	-0.8612474754	 1.1593915818	-0.097486236	 0.121394
H	-1.9293077464	-0.1223910415	-0.6769213957	 0.118892
H	-1.8901438587	 0.2823204035	 1.0427387123	 0.125878
H	-0.5955069982	-1.8820027616	 0.4192282144	 0.083873
H	 1.7203933292	-1.5695990289	-0.6308012419	 0.10797
H	 1.3641326795	 0.2163903725	-0.7694451275	 0.106394
H	 0.8182935928	 2.1913549667	 0.663935792	 0.115824
H	 1.7942458736	 2.5721139829	 2.0805291987	 0.1152
H	 2.5143856993	 1.6864104709	 0.7346556299	 0.120659
H	 0.0462458861	 1.5315862697	 3.6203879234	 0.103004
H	-0.3023763216	-0.2507321475	 3.4425937931	 0.109817
H	 2.5046021042	 1.0356798607	 3.7078066612	 0.074426
H	 1.707992491	-1.9169277284	 3.2862941561	 0.129005
H	 3.3628361951	-1.3278845089	 3.4577177043	 0.108166
H	 2.2688161055	-1.2775183492	 4.8480240733	 0.105679
50.4936	133.817	164.7355	174.9801	200.8547	228.6058	242.4359	272.3413	347.5552	377.2272	425.1582	447.2376	463.1117	579.5701	625.6531	776.6268	793.686	821.9607	866.5517	903.8431	922.1732	927.1726	965.1594	1017.8386	1037.3954	1053.7779	1062.9277	1114.2045	1118.6393	1128.436	1137.245	1142.2056	1160.9025	1190.3974	1194.2163	1250.012	1288.8847	1368.0349	1397.8338	1401.2884	1413.5109	1420.3604	1424.1555	1481.1234	1485.0867	1490.195	1494.1559	1498.8185	1500.3804	1504.7236	1518.2281	3029.0492	3031.3211	3037.749	3082.9386	3086.4225	3089.9569	3093.7658	3094.5688	3106.1982	3119.5935	3124.9814	3130.3929	3136.47	3165.2544	3210.4333
CC1CN1C1(C)CC1C	C[C@H]1CN1[C@@]1(C)C[C@H]1C	
InChI=1S/C8H15N/c1-6-4-8(6,3)9-5-7(9)2/h6-7H,4-5H2,1-3H3	InChI=1S/C8H15N/c1-6-4-8(6,3)9-5-7(9)2/h6-7H,4-5H2,1-3H3/t6-,7+,8+,9?/m1/s1
