20
gdb 73439	2.82985	1.90843	1.48125	1.5866	82.15	-0.2081	0.0093	0.2174	964.1006	0.173745	-366.013629	-366.006465	-366.005521	-366.044622	29.998	
C	-0.0232436146	 1.4780437869	 0.0298564355	-0.482366
C	 0.0555274473	-0.029666254	-0.0139896761	 0.348664
C	-0.0032688544	-0.71179791	-1.385256812	-0.301951
C	-1.1631720458	-1.7239004072	-1.2309240277	-0.196518
C	-1.092224798	-2.0805394128	 0.2712087511	-0.059454
C	 0.1354780217	-2.9313964892	 0.5399685156	-0.080582
C	 1.133899283	-2.1657703545	 0.9789918032	-0.083907
C	 0.6583380107	-0.7680168713	 1.1548992734	-0.116761
N	-0.8124533622	-0.7624695207	 0.9385847941	-0.150323
H	 0.8601577709	 1.9291091129	-0.4360442242	 0.114615
H	-0.9085766422	 1.8369619107	-0.507507784	 0.117697
H	-0.0886627633	 1.8354523337	 1.0610001202	 0.124376
H	-0.1928210797	 0.0192390549	-2.1753886982	 0.100039
H	 0.9312511144	-1.2241627983	-1.6306648403	 0.108533
H	-2.1236959005	-1.2434868394	-1.4462594382	 0.105554
H	-1.0680988433	-2.5956664794	-1.8853961032	 0.096741
H	-2.0240495579	-2.5115459264	 0.6488352256	 0.077604
H	 0.193788606	-3.9826119116	 0.2819671409	 0.097738
H	 2.1474603929	-2.481619533	 1.1933046771	 0.099071
H	 1.025845235	-0.1846892615	 1.9977590572	 0.081229
195.6037	209.6246	233.7663	305.2849	341.4834	419.439	524.3648	563.4036	637.0895	727.7194	751.4178	767.0771	786.3964	817.6824	843.9757	886.4234	918.4816	938.3624	954.1541	963.8005	995.162	1011.3577	1041.3846	1069.7951	1087.4068	1104.8221	1123.5921	1153.381	1194.8675	1254.5665	1263.756	1295.3476	1303.7751	1331.4939	1338.5218	1361.3802	1395.2698	1412.7784	1481.7354	1487.5835	1490.9353	1497.2778	1668.1737	3026.7993	3042.6969	3058.7816	3063.5765	3088.484	3089.4343	3104.5569	3113.1947	3116.8242	3192.1027	3218.8243
CC12CCC3C=CC1N23	C[C@@]12CC[C@H]3C=C[C@@H]1N23	
InChI=1S/C8H11N/c1-8-5-4-6-2-3-7(8)9(6)8/h2-3,6-7H,4-5H2,1H3	InChI=1S/C8H11N/c1-8-5-4-6-2-3-7(8)9(6)8/h2-3,6-7H,4-5H2,1H3/t6-,7+,8-,9?/m1/s1
