21
gdb 72938	2.72956	1.66991	1.46294	1.57	80.91	-0.238	0.0708	0.3088	1020.5983	0.183456	-387.043281	-387.035442	-387.034497	-387.075496	31.634	
C	-0.2135552333	 1.4498218646	-0.0542889357	-0.476588
C	 0.0338439937	-0.0322624985	 0.0505863902	 0.452934
O	-1.1943776058	-0.8056949961	-0.0066583951	-0.327122
C	-0.8740613364	-1.4885879993	 1.2312881186	-0.099299
C	 0.4982180054	-0.8032487159	 1.3221822205	-0.144578
C	 1.6972744564	-1.4059881607	 0.5211988866	-0.021382
C	 1.5174832912	-2.7595459732	-0.2185316777	-0.238542
C	 0.9594996081	-2.0070308098	-1.4684933678	-0.234019
C	 1.2200072032	-0.6467840955	-0.7659995252	-0.076235
H	 0.7190047015	 2.0101719172	 0.0695972056	 0.116197
H	-0.6262729184	 1.6921128358	-1.040594987	 0.127831
H	-0.9274550452	 1.7838103826	 0.7048545142	 0.119531
H	-1.5684363655	-1.1993096015	 2.0305854154	 0.099293
H	-0.899554936	-2.5783865907	 1.1226497719	 0.103087
H	 0.7459376201	-0.3112046001	 2.263218073	 0.070965
H	 2.6706207575	-1.2234916361	 0.9791451534	 0.063642
H	 2.4756074226	-3.2489319321	-0.4119734343	 0.098194
H	 0.8591896476	-3.4965317249	 0.2485727183	 0.097623
H	 1.5476229068	-2.1576346963	-2.376326286	 0.093872
H	-0.0923073938	-2.1903462144	-1.6926628418	 0.119573
H	 1.8478174104	 0.0760726549	-1.2908765969	 0.055023
64.929	216.5634	230.552	252.4747	286.4702	328.9715	452.4552	485.1768	587.8261	653.5368	721.2186	768.6092	787.3326	834.1182	852.0036	878.6765	910.9059	941.7415	955.8888	961.0228	992.0116	995.7844	1056.3469	1078.5145	1110.0302	1121.1956	1137.7852	1162.3656	1164.3329	1186.6976	1211.3893	1230.8743	1254.5371	1260.6385	1278.2857	1299.7597	1320.4771	1336.8625	1358.0358	1405.557	1468.685	1480.221	1486.5136	1489.302	1525.9914	3013.4335	3028.2792	3055.1356	3063.0124	3070.4901	3080.4881	3089.5594	3097.0121	3099.8347	3106.4664	3108.9931	3132.6863
CC12OCC1C1CCC21	C[C@]12OC[C@H]1[C@H]1CC[C@@H]21	
InChI=1S/C8H12O/c1-8-6-3-2-5(6)7(8)4-9-8/h5-7H,2-4H2,1H3	InChI=1S/C8H12O/c1-8-6-3-2-5(6)7(8)4-9-8/h5-7H,2-4H2,1H3/t5-,6+,7-,8+/m0/s1
