17
gdb 78366	2.72531	1.3922	1.1096	3.3869	68.9	-0.2528	0.0618	0.3146	1111.2483	0.134117	-458.888211	-458.879819	-458.878875	-458.921045	31.951	
O	-0.023420576	 1.2564484951	-0.1601928784	-0.439917
C	-0.0558587739	-0.136075131	-0.0362216707	 0.098014
C	-0.4832593472	-0.6815604156	 1.3020019885	-0.144834
C	-1.446994289	-0.6781535086	 0.0879359324	-0.180239
C	-1.3969577955	-2.1808677911	 0.0684111646	 0.457463
C	-2.4193393845	-3.1536256391	-0.3076128178	-0.27458
O	-1.2348772617	-2.9680513223	-1.0953010394	-0.262573
C	-0.4448285417	-2.2162810968	 1.2888782283	-0.020783
O	 0.7773800169	-2.8639219496	 1.025795449	-0.418807
H	 0.8049380927	 1.5677663007	 0.2191480406	 0.288268
H	 0.6841469641	-0.6757177999	-0.6259547618	 0.11376
H	-0.5263316062	-0.0468519221	 2.1782906053	 0.088783
H	-2.3060007559	-0.0458779619	-0.0954357418	 0.103727
H	-2.483710284	-4.1020681701	 0.2252381263	 0.115834
H	-3.3460927998	-2.8151498576	-0.7699819361	 0.115393
H	-0.945081477	-2.6416087207	 2.1707649097	 0.076674
H	 1.3297208487	-2.7928099893	 1.8110580513	 0.283817
95.2243	167.2828	212.4975	229.7731	248.9307	293.0614	305.879	399.8869	466.3653	501.9865	588.7228	642.2294	766.053	823.0903	868.098	887.8124	911.1116	934.2897	973.9493	983.3505	1045.9495	1097.4322	1111.8052	1122.5135	1127.0787	1148.9416	1168.4919	1184.0444	1200.2447	1243.9645	1273.8208	1299.9402	1330.5501	1400.1203	1444.5333	1463.0387	1538.9108	2996.2553	3075.5794	3112.2166	3161.8913	3192.5529	3206.0347	3809.6431	3815.5041
OC1C2C1C1(CO1)C2O	O[C@H]1[C@H]2[C@@H]1[C@]1(CO1)[C@H]2O	
InChI=1S/C6H8O3/c7-4-2-3(4)6(1-9-6)5(2)8/h2-5,7-8H,1H2	InChI=1S/C6H8O3/c7-4-2-3(4)6(1-9-6)5(2)8/h2-5,7-8H,1H2/t2-,3+,4+,5+,6-/m1/s1
