12
gdb 132168	3.41105	1.40412	0.99556	4.7226	60.03	-0.2329	-0.0448	0.1881	1049.5528	0.078019	-513.95715	-513.950036	-513.949092	-513.98881	26.85	
N	 0.0110995696	 1.3630297669	 0.148382522	-0.58065
C	-0.0551084887	-0.0033407261	 0.0469773066	 0.150923
C	-1.1699833534	-0.7573857842	 0.0131811235	-0.053006
O	-1.0957492687	-2.1400032133	-0.0276480346	-0.180367
C	 0.1166138035	-2.6651364489	-0.028527109	 0.406067
F	 0.026717943	-3.9696726427	-0.0503740006	-0.034984
N	 1.2470755887	-2.0880995792	-0.0158610252	-0.41004
C	 1.2665519586	-0.6912970466	 0.0044034084	 0.382868
O	 2.2955322345	-0.0486478331	-0.0220199663	-0.354248
H	 0.9333747196	 1.7158569908	-0.0732278507	 0.274458
H	-0.7602631675	 1.9099658616	-0.198390553	 0.256228
H	-2.1959021092	-0.4220263052	 0.0202059588	 0.14275
106.2411	199.5214	313.3991	336.523	380.8352	399.4907	438.4011	486.5646	538.5062	565.652	631.5771	739.7103	754.5242	793.8659	805.7452	813.0042	1001.2801	1085.2242	1181.1407	1256.458	1313.0117	1403.2469	1423.38	1608.6858	1684.9064	1709.6022	1788.5591	3251.6741	3553.1538	3682.3413
NC1=COC(F)=NC1=O	Nc1coc(F)nc1=O	
InChI=1S/C4H3FN2O2/c5-4-7-3(8)2(6)1-9-4/h1H,6H2	InChI=1S/C4H3FN2O2/c5-4-7-3(8)2(6)1-9-4/h1H,6H2
