21
gdb 79089	2.89824	1.59948	1.36837	0.3246	86.86	-0.2152	0.01	0.2253	1053.4441	0.182941	-349.911065	-349.903074	-349.90213	-349.942874	32.692	
C	-0.1856905064	 1.5777146966	-0.0155725501	-0.435565
C	 0.0000119561	 0.0667320835	 0.0031113668	-0.019692
C	 1.2306217614	-0.5946353971	-0.6674164264	-0.056936
C	 2.1537317002	-0.1800264553	 0.5366786507	-0.107015
C	 3.1295646315	-1.3217570912	 0.7638253765	-0.113133
C	 2.3951133198	-2.4180830408	 0.5580535775	-0.118544
C	 1.0196728591	-1.8732372319	 0.2194728041	-0.09384
C	 0.7658180389	-0.6285337674	 1.1662549828	 0.345847
C	 0.4088250518	-0.6655304698	 2.6266267283	-0.52617
H	 0.7338842696	 2.1196897747	 0.2232214261	 0.114577
H	-0.5203197864	 1.9156600548	-1.0028449118	 0.114722
H	-0.9487153678	 1.8862488696	 0.7081733383	 0.113982
H	-0.9481048676	-0.4288284414	-0.2440865506	 0.054469
H	 1.5090444048	-0.5844875371	-1.7253848089	 0.061024
H	 2.4988812325	 0.8478394105	 0.6423973567	 0.058124
H	 4.1722463226	-1.2299943839	 1.034581921	 0.097356
H	 2.6766300107	-3.4602419332	 0.6161080544	 0.0986
H	 0.193306138	-2.5511427234	-0.0025134751	 0.054071
H	 1.1514445656	-1.2431508187	 3.1882430325	 0.123779
H	 0.3714645224	 0.3436856305	 3.051770672	 0.117894
H	-0.5717658569	-1.129586029	 2.781458475	 0.116452
174.8296	192.1982	216.8958	228.1453	247.4957	289.383	463.1639	504.0748	533.4384	608.4108	672.3579	723.9134	771.4852	779.6799	796.5036	817.4174	904.6999	908.2248	912.1747	944.4533	951.0145	993.871	1014.3193	1049.5248	1062.9043	1106.7529	1120.8777	1125.5073	1145.033	1158.8026	1186.431	1222.12	1238.5417	1256.67	1291.194	1325.6182	1332.1368	1400.5484	1408.5399	1423.6422	1486.8761	1487.9988	1494.9744	1501.3173	1631.5787	3013.2281	3023.4457	3030.2772	3069.5121	3085.1187	3089.9719	3094.035	3100.1231	3106.919	3124.008	3215.994	3243.3367
CC1C2C3C=CC2C13C	C[C@H]1[C@H]2[C@@H]3C=C[C@H]2[C@]13C	
InChI=1S/C9H12/c1-5-8-6-3-4-7(8)9(5,6)2/h3-8H,1-2H3	InChI=1S/C9H12/c1-5-8-6-3-4-7(8)9(5,6)2/h3-8H,1-2H3/t5-,6-,7+,8-,9+/m0/s1
