20
gdb 120792	4.45837	0.63615	0.60613	5.1213	81.05	-0.2807	0.0301	0.3108	1875.9738	0.169324	-403.15008	-403.140042	-403.139098	-403.186521	35.178	
C	 0.0978401504	 1.4960917265	 0.3345289101	-0.384922
C	-0.0846694443	-0.0228733092	 0.3078405917	-0.16132
C	-1.3499102666	-0.4593601114	-0.4463083767	-0.215601
C	-1.49880801	-1.9614711826	-0.4726419995	 0.058425
O	-1.9255433612	-2.6105045487	 0.7362818225	-0.249938
C	-2.7668534823	-2.7057039161	-0.4077482209	 0.056716
C	-4.1300812018	-2.0350750608	-0.3252968857	-0.372118
C	-5.1244768259	-2.8905554959	 0.3234212709	 0.263757
N	-5.9076077688	-3.5757672171	 0.8249688013	-0.298052
H	 1.0051564478	 1.7764277476	 0.8777609802	 0.118813
H	 0.176193847	 1.9051919425	-0.6790144892	 0.114813
H	-0.7487184425	 1.9889081396	 0.8253268937	 0.11768
H	 0.791466695	-0.4925628719	-0.1576310745	 0.0996
H	-0.1355299816	-0.4132872232	 1.3308113825	 0.120074
H	-2.2261664012	 0.0048185833	 0.0182453217	 0.100253
H	-1.3077722347	-0.0956726047	-1.4823105338	 0.10388
H	-0.6711949212	-2.4789963324	-0.9643496826	 0.096787
H	-2.7971037155	-3.6975778927	-0.8611050291	 0.111092
H	-4.0603261784	-1.0960303056	 0.2289627637	 0.162404
H	-4.4851028141	-1.7977457874	-1.3356706563	 0.157657
40.3958	73.2971	78.758	113.1134	155.4058	237.5692	247.3285	317.5277	371.5947	384.2162	486.2486	506.6181	567.4126	741.3477	788.9492	840.5384	878.0736	908.9548	913.4697	957.0627	1020.7331	1035.3729	1055.8372	1115.1498	1117.9923	1166.4894	1182.6168	1238.9272	1267.4211	1297.5487	1304.1589	1322.1076	1334.0356	1387.6721	1411.3194	1414.7689	1447.7302	1471.5043	1491.9152	1495.1675	1500.4692	1509.0116	2366.3342	3018.63	3026.0859	3031.085	3046.3063	3059.9616	3071.716	3086.1205	3099.3889	3099.9796	3106.4633	3116.7692
CCCC1OC1CC#N	CCC[C@H]1O[C@H]1CC#N	
InChI=1S/C7H11NO/c1-2-3-6-7(9-6)4-5-8/h6-7H,2-4H2,1H3	InChI=1S/C7H11NO/c1-2-3-6-7(9-6)4-5-8/h6-7H,2-4H2,1H3/t6-,7+/m1/s1
