19
gdb 68820	2.78193	1.20727	1.03856	1.9703	77.	-0.2415	-0.0252	0.2164	1208.3704	0.156972	-423.006942	-422.997827	-422.996883	-423.040864	34.202	
C	 0.1943380743	 1.5560794668	-0.0580498689	-0.504624
C	 0.0577804046	 0.0628966852	 0.0416204136	 0.240658
C	 1.1656190322	-0.8856005262	-0.3826042926	-0.358961
C	 0.6480033517	-0.9823659623	 1.0109422117	 0.376367
O	 1.5309761416	-0.8631643021	 2.0646911879	-0.453735
C	-0.6666579874	-1.7555457484	 1.0383653423	-0.332122
C	-1.2705894287	-0.7331392943	 0.0022208552	-0.126154
C	-2.4491154535	 0.0057627945	 0.5750629209	 0.161444
O	-3.5051851361	 0.1684130126	 0.0206825874	-0.257315
H	 1.2034548723	 1.8671949803	 0.2305260665	 0.128901
H	 0.0199612193	 1.9057251628	-1.0825495908	 0.131135
H	-0.5136328277	 2.0803490202	 0.5932733349	 0.11895
H	 0.9912158388	-1.6740176309	-1.1127555154	 0.106433
H	 2.1412035779	-0.4140298576	-0.4508095763	 0.122291
H	 1.0457399197	-0.5486858355	 2.8360554497	 0.284799
H	-0.6398365167	-2.8056699715	 0.7317483727	 0.11268
H	-1.175400428	-1.6865182912	 2.0068894455	 0.100564
H	-1.5475280656	-1.1442700883	-0.9726627948	 0.086941
H	-2.2776005386	 0.404071276	 1.6054506204	 0.061747
71.6792	93.2235	168.3873	189.4763	241.9254	339.9309	356.7551	386.7945	392.4871	408.6061	469.5951	520.0873	595.9734	706.427	761.5359	832.9125	865.6521	916.6359	952.1919	966.6418	1006.9444	1051.904	1057.6255	1085.9725	1101.4679	1152.4321	1173.827	1220.6472	1229.9186	1233.1559	1294.1895	1331.4882	1334.5076	1413.7605	1424.2238	1431.7428	1476.8563	1487.1157	1497.6468	1517.1209	1832.2134	2826.7213	3023.679	3033.2817	3072.146	3081.4942	3089.0037	3096.9771	3100.3065	3197.4864	3790.1716
CC12CC1(O)CC2C=O	C[C@@]12C[C@]1(O)C[C@H]2C=O	
InChI=1S/C7H10O2/c1-6-4-7(6,9)2-5(6)3-8/h3,5,9H,2,4H2,1H3	InChI=1S/C7H10O2/c1-6-4-7(6,9)2-5(6)3-8/h3,5,9H,2,4H2,1H3/t5-,6-,7+/m0/s1
