18
gdb 107586	2.69592	1.58642	1.13811	3.72	72.03	-0.2399	0.0119	0.2518	1097.842	0.148148	-439.115928	-439.107523	-439.106579	-439.148945	31.562	
C	-0.3658333811	 1.4836154472	-0.1570818426	-0.387544
C	 0.1217005172	 0.0520811376	 0.1082753525	-0.290741
C	 0.8782470334	-0.5174129586	-1.0584848982	 0.299778
O	 0.1256897266	-0.8288871483	-2.2578960803	-0.291604
C	 0.8137739897	-1.885751502	-1.5939853197	-0.043243
C	 2.142310676	-2.2291327169	-2.248941968	-0.192173
N	 2.883988099	-0.9844771554	-2.1256946101	-0.330047
C	 2.2568099969	 0.0186946548	-1.4363479771	 0.397667
O	 2.719523316	 1.107644143	-1.1703655898	-0.37919
H	 0.4817190219	 2.1420130488	-0.3580763528	 0.155453
H	-1.0341563594	 1.5053134666	-1.0229142443	 0.127953
H	-0.9141861589	 1.8689541458	 0.7072171659	 0.108847
H	 0.7789545618	 0.0367900327	 0.9857655922	 0.113237
H	-0.7268220286	-0.6052787183	 0.3279854951	 0.103768
H	 0.1963002396	-2.6682331143	-1.1628275731	 0.107452
H	 2.636626122	-3.0530119694	-1.7176535921	 0.116525
H	 2.0058617086	-2.5247391478	-3.2961611447	 0.127931
H	 3.7618365594	-0.8131198357	-2.588908863	 0.255931
87.6558	126.599	180.16	208.8465	264.8114	287.6619	349.7053	453.3721	490.4729	495.3804	621.2412	684.2674	728.5658	769.3073	801.1598	839.9416	914.7392	944.0375	974.3666	1006.0257	1053.9434	1079.5891	1106.6962	1108.3658	1195.0415	1224.8521	1271.7709	1281.0885	1325.3094	1351.5511	1370.026	1405.8292	1444.7514	1461.0915	1474.2232	1497.362	1512.7255	1516.3998	1822.8613	3016.442	3035.6638	3047.7541	3056.1681	3075.4798	3115.8998	3141.3392	3161.9823	3646.8669
CCC12OC1CNC2=O	CC[C@]12O[C@H]1CNC2=O	
InChI=1S/C6H9NO2/c1-2-6-4(9-6)3-7-5(6)8/h4H,2-3H2,1H3,(H,7,8)	InChI=1S/C6H9NO2/c1-2-6-4(9-6)3-7-5(6)8/h4H,2-3H2,1H3,(H,7,8)/t4-,6-/m0/s1
