21
gdb 116037	2.50603	1.37188	1.0071	1.7841	80.13	-0.242	0.0095	0.2515	1250.1523	0.182694	-424.234618	-424.225493	-424.224549	-424.26839	34.723	
C	-0.0510973593	 1.5538036962	 0.0270534296	-0.389168
C	 0.0224196806	 0.0255689322	-0.0061742717	-0.181329
C	 0.7269558234	-0.5662637922	 1.2088213787	 0.089865
O	-0.0301546588	-0.2183649774	 2.3718912733	-0.270078
C	 0.6738425695	-0.4835977602	 3.5690775848	-0.128336
C	 1.2818085025	-1.8583164385	 3.5940167125	-0.063278
C	 1.3720498401	-2.6022389972	 2.4934158671	-0.102973
C	 0.8680983125	-2.0968622647	 1.1614395829	 0.085156
O	-0.354474518	-2.7417504704	 0.8051761432	-0.432075
H	 0.9494782944	 2.0013808735	 0.0315938246	 0.107007
H	-0.5832823845	 1.9392893808	-0.847756601	 0.110001
H	-0.5742545774	 1.8953500959	 0.9238007043	 0.130913
H	-0.9806568917	-0.4071599613	-0.0672685872	 0.108827
H	 0.5572800651	-0.310976854	-0.902829318	 0.09569
H	 1.7391100454	-0.1315527118	 1.2936555816	 0.062041
H	 1.459674495	 0.2783176658	 3.7314162185	 0.100966
H	-0.0491428025	-0.3684084203	 4.3853888518	 0.117554
H	 1.6451637042	-2.2161060467	 4.5543190181	 0.096679
H	 1.7737070218	-3.6108135606	 2.5254197351	 0.096826
H	 1.5720752109	-2.3646975648	 0.3645859064	 0.085872
H	-0.9846206331	-2.5124681242	 1.4991577655	 0.279838
92.6309	99.5669	158.4767	206.217	244.4063	282.6482	295.0946	364.0761	414.6515	480.8601	495.6519	523.405	671.4171	748.41	758.0576	828.4567	861.9241	916.4232	927.9466	966.0681	996.2408	1013.9884	1041.5422	1058.456	1076.3652	1114.1299	1136.4042	1174.1058	1205.3617	1252.2547	1263.0478	1297.1701	1309.0961	1343.1603	1367.2185	1396.6487	1401.3318	1407.4765	1413.8676	1426.0822	1476.7535	1484.7786	1497.8776	1510.8032	1717.203	2929.6071	2944.5123	3034.7757	3037.9245	3045.5482	3051.3916	3084.1859	3103.5949	3123.6365	3153.4529	3178.5394	3788.6671
CCC1OCC=CC1O	CC[C@H]1OCC=C[C@H]1O	
InChI=1S/C7H12O2/c1-2-7-6(8)4-3-5-9-7/h3-4,6-8H,2,5H2,1H3	InChI=1S/C7H12O2/c1-2-7-6(8)4-3-5-9-7/h3-4,6-8H,2,5H2,1H3/t6-,7-/m1/s1
