21
gdb 94873	2.59798	1.69242	1.33477	1.7556	80.85	-0.222	0.0674	0.2894	1057.1613	0.183993	-387.051753	-387.043914	-387.04297	-387.083551	32.019	
C	-0.0694704345	 1.5599431256	 0.0157985507	-0.406453
C	 0.0411334354	 0.0342300123	 0.016944966	-0.046045
C	 0.8077317108	-0.5510923065	-1.2145997773	-0.230537
C	 1.3345591383	-1.9560993595	-0.7850021323	-0.299335
C	 1.5353184782	-1.8220367844	 0.7123827732	 0.158002
C	 2.2770851128	-0.6222542703	 1.280000716	-0.384737
C	 0.786725539	-0.598598658	 1.1706104647	 0.407419
O	 0.1618291476	-1.2701564443	 2.2798159442	-0.33799
C	 0.7762644415	-2.5211082282	 1.8452922339	-0.145463
H	 0.9226289313	 2.0237619067	 0.0429820541	 0.114126
H	-0.583988811	 1.9195772462	-0.8816493877	 0.110392
H	-0.6287262601	 1.9152210804	 0.8867097813	 0.124062
H	-0.9679742295	-0.3978368791	 0.0357916979	 0.085386
H	 0.1753542336	-0.5946956969	-2.1061445129	 0.102045
H	 1.6485302179	 0.1064496475	-1.4655852155	 0.10381
H	 0.5705808333	-2.7191430078	-0.9754855439	 0.102357
H	 2.2263809894	-2.24806432	-1.3496204228	 0.100437
H	 2.7193587701	-0.6953582795	 2.2682699393	 0.118008
H	 2.8438043961	-0.0281772582	 0.5716170624	 0.118227
H	 0.0153395472	-3.2253937551	 1.4873390827	 0.103548
H	 1.3607979624	-2.9882779211	 2.6468715359	 0.102742
136.9209	204.55	232.7099	249.5568	307.819	337.1427	433.5381	449.6818	552.7427	581.4088	621.004	733.9313	757.1704	824.2533	869.78	904.6299	916.1902	931.9905	943.1707	953.8675	981.6096	998.0004	1036.9252	1056.821	1063.4787	1103.5923	1124.8495	1150.5885	1206.5314	1216.3753	1235.8455	1265.6324	1307.7142	1315.4264	1329.4346	1351.8652	1382.1372	1385.6217	1411.4551	1473.2574	1489.5574	1495.1009	1499.5581	1503.6558	1515.3234	3014.0894	3023.3886	3030.0699	3034.4191	3038.8069	3063.7425	3071.9924	3090.4511	3098.0138	3105.3076	3130.0837	3220.7866
CC1CCC23CC12OC3	C[C@H]1CC[C@@]23C[C@@]12OC3	
InChI=1S/C8H12O/c1-6-2-3-7-4-8(6,7)9-5-7/h6H,2-5H2,1H3	InChI=1S/C8H12O/c1-6-2-3-7-4-8(6,7)9-5-7/h6H,2-5H2,1H3/t6-,7-,8+/m0/s1
