20
gdb 115929	3.70179	1.19299	1.0088	1.5897	75.61	-0.2218	0.0888	0.3106	1223.5033	0.171929	-440.246694	-440.238292	-440.237348	-440.279991	31.723	
C	 0.0459297238	 1.3525809986	 0.1615835761	-0.242956
O	-0.0214721335	-0.0636856458	 0.1005702262	-0.237078
C	-1.3053276165	-0.5692490867	 0.0215452453	 0.220842
C	-1.2049315996	-2.0707994417	-0.2561152231	-0.190813
N	-2.4161978436	-2.8391547036	 0.0770459072	-0.105398
C	-2.639561507	-3.1484482135	 1.4917707203	-0.238765
C	-3.4994472123	-2.1570429238	 0.7995293244	-0.011886
C	-3.3477133838	-0.685516984	 1.1350082419	-0.120237
O	-1.9834501997	-0.3288689994	 1.2496067084	-0.257916
H	 1.1050288506	 1.6174849138	 0.1653213243	 0.129599
H	-0.4352337119	 1.8099668852	-0.7156545286	 0.106705
H	-0.4308329104	 1.7373090844	 1.0691804139	 0.13116
H	-1.8778721035	-0.0582605607	-0.7801168322	 0.049744
H	-0.9859362823	-2.2186606344	-1.3191752148	 0.109865
H	-0.3534219336	-2.4578942513	 0.3121994458	 0.121465
H	-3.0048113435	-4.1513366828	 1.6980088305	 0.110476
H	-1.9254110413	-2.7562868011	 2.2126980957	 0.122851
H	-4.5001658054	-2.4458445248	 0.4806963875	 0.090136
H	-3.8369211793	-0.0736416074	 0.3576989859	 0.09489
H	-3.8216798771	-0.4498494612	 2.0933846454	 0.117316
71.3785	110.8043	159.4066	211.922	281.1335	349.3024	358.8179	413.7808	483.8948	521.6747	563.0106	710.5516	774.0882	796.0298	853.4728	937.0247	968.5307	1012.526	1034.1978	1062.4944	1078.4548	1116.568	1121.7374	1129.2771	1138.2928	1169.4976	1177.2264	1180.3441	1231.0685	1264.2226	1290.9861	1312.9174	1339.6444	1380.5915	1399.3726	1413.5742	1429.789	1479.8993	1483.5074	1491.0123	1498.2157	1507.7717	1511.1455	2885.2178	2960.6945	2997.3598	3040.3796	3071.1715	3077.1633	3088.764	3098.2219	3113.13	3131.2984	3185.767
COC1CN2CC2CO1	CO[C@H]1CN2C[C@H]2CO1	
InChI=1S/C6H11NO2/c1-8-6-3-7-2-5(7)4-9-6/h5-6H,2-4H2,1H3	InChI=1S/C6H11NO2/c1-8-6-3-7-2-5(7)4-9-6/h5-6H,2-4H2,1H3/t5-,6+,7?/m0/s1
