16
gdb 42283	3.38885	1.26024	0.92918	3.9928	78.21	-0.2386	-0.0243	0.2142	1197.7571	0.123993	-400.746562	-400.738211	-400.737267	-400.780109	30.425	
O	-0.0579723682	-0.0371215737	-0.09195965	-0.376154
C	-0.0745799879	 1.1837382066	-0.0528988482	 0.284818
C	 1.1513295603	 1.9732645715	-0.0556807585	 0.211308
C	 2.1912146065	 2.5774348764	-0.060231292	-0.403266
N	-1.222938285	 1.9068877036	-0.0038797255	-0.110729
C	-1.3425605189	 3.3678878399	 0.0441094851	-0.205504
C	-2.8354080749	 3.5554590582	 0.0828189171	-0.078357
C	-3.477407124	 2.391583959	 0.0606338477	-0.081258
C	-2.523328222	 1.2317158357	 0.0034954717	-0.197079
H	 3.1172331585	 3.0988454981	-0.064704151	 0.206937
H	-0.8431063226	 3.7867681379	 0.9287565195	 0.129156
H	-0.8820120518	 3.8415363783	-0.8340057896	 0.129166
H	-3.2861583352	 4.5386822276	 0.1234014111	 0.111324
H	-4.5506217432	 2.2521759372	 0.0799048942	 0.112279
H	-2.6487333767	 0.6090248232	-0.8928113844	 0.133687
H	-2.6102300949	 0.5540883805	 0.8637836628	 0.133672
60.423	105.6056	129.0507	213.2751	254.1898	301.021	404.9869	450.7057	520.3385	653.3557	659.749	676.286	693.2236	757.8977	806.5069	821.1464	949.2007	965.6338	990.4851	1021.107	1024.6986	1038.4379	1131.9474	1192.5583	1202.5975	1229.7319	1325.831	1354.9466	1382.7968	1425.8665	1508.4523	1517.141	1695.4588	1733.8223	2223.5008	3001.3442	3011.7027	3022.8035	3030.297	3209.4255	3232.7668	3496.3295
O=C(C#C)N1CC=CC1	O=C(C#C)N1CC=CC1	
InChI=1S/C7H7NO/c1-2-7(9)8-5-3-4-6-8/h1,3-4H,5-6H2	InChI=1S/C7H7NO/c1-2-7(9)8-5-3-4-6-8/h1,3-4H,5-6H2
