21
gdb 104179	2.37688	1.47145	1.27477	1.7904	74.23	-0.2509	0.0789	0.3298	1124.7381	0.181555	-461.37313	-461.36373	-461.362786	-461.40701	35.73	
C	-0.2506637608	 1.2769279071	-0.1305984268	-0.260704
O	-0.136186869	-0.1366474667	-0.2125536824	-0.292485
C	 0.7621606164	-0.6366035629	-1.2181012361	 0.464387
C	 2.1949526759	-0.185350275	-0.9721348794	-0.447455
C	 0.5203125734	-2.1497903597	-1.2421087572	-0.288464
C	-0.7864754744	-2.2414199917	-2.0493788018	 0.105876
O	-1.935626211	-2.0740014963	-1.2425112966	-0.447276
C	-0.5917058398	-1.0970421452	-3.0668609153	-0.103204
O	 0.3682892499	-0.1886465082	-2.4993974209	-0.291251
H	 0.6266407184	 1.7284360665	 0.3498902404	 0.114487
H	-0.3884369343	 1.7218921807	-1.1218386174	 0.13172
H	-1.1284437834	 1.4853220211	 0.4853170202	 0.126643
H	 2.5025300749	-0.4411817749	 0.0450968909	 0.12644
H	 2.8638260748	-0.6767537378	-1.6822140343	 0.125643
H	 2.2941359699	 0.8935308948	-1.1119585359	 0.129659
H	 1.3430810094	-2.639851757	-1.7709287212	 0.10412
H	 0.4225161404	-2.5805107759	-0.2450778772	 0.119807
H	-0.9053587372	-3.2041607266	-2.5528955746	 0.083388
H	-1.7425348432	-1.322389974	-0.6639184251	 0.286518
H	-0.1929456377	-1.4558617517	-4.0235839697	 0.099865
H	-1.5403995727	-0.5822028966	-3.2483066895	 0.112287
82.5423	117.4838	159.1199	187.1985	235.4505	251.2553	313.0411	372.046	398.5459	421.4081	448.2648	545.2012	560.3845	647.9054	756.0783	791.4122	842.244	854.8937	886.2261	926.4018	975.0616	1008.4968	1047.2166	1079.9138	1084.79	1146.4556	1150.2249	1180.296	1192.9406	1208.9373	1245.0495	1250.3436	1280.3978	1336.7028	1348.2628	1374.5595	1407.5439	1458.8358	1468.2968	1478.6846	1483.5227	1485.9752	1505.9216	1512.2725	1515.2427	3014.1529	3026.1862	3054.8194	3066.305	3079.934	3082.8469	3088.1072	3122.5256	3132.6264	3133.5241	3139.3352	3730.1283
COC1(C)CC(O)CO1	CO[C@@]1(C)C[C@@H](O)CO1	
InChI=1S/C6H12O3/c1-6(8-2)3-5(7)4-9-6/h5,7H,3-4H2,1-2H3	InChI=1S/C6H12O3/c1-6(8-2)3-5(7)4-9-6/h5,7H,3-4H2,1-2H3/t5-,6-/m1/s1
