19
gdb 82403	2.31575	1.80414	1.15776	2.9155	74.84	-0.2334	-0.0216	0.2119	1080.9433	0.159461	-423.029671	-423.021411	-423.020467	-423.062883	31.631	
C	 0.0532193756	 1.6093797715	 0.0224023077	-0.39215
C	 0.1184411668	 0.0789375951	 0.0269954799	-0.118967
C	 0.7254383839	-0.5345137152	-1.2328132685	-0.065405
C	 2.1372724783	-0.2288192651	-1.6931461188	-0.305966
C	 1.808504482	-1.57587739	-1.1167063588	 0.090447
O	 2.3403174982	-1.8397096877	 0.1521670013	-0.254414
C	 1.3704818418	-1.8562458599	 1.1895646559	-0.175098
C	 0.7271654356	-0.4766828006	 1.31890461	 0.374163
O	 0.6722030239	 0.1119755706	 2.3719976351	-0.30685
H	 1.0552497693	 2.0417577409	-0.0522959405	 0.123959
H	-0.5334077883	 1.9665296462	-0.828905219	 0.111829
H	-0.4018731436	 1.97221425	 0.9459156409	 0.138792
H	-0.9154397841	-0.302053234	 0.0802244811	 0.111112
H	 0.0104277809	-0.6914602873	-2.0352216457	 0.094324
H	 2.3199961862	-0.1360702608	-2.757661744	 0.115808
H	 2.7548014787	 0.4047671927	-1.0657093968	 0.128252
H	 1.7778500459	-2.450726582	-1.7638183916	 0.093188
H	 0.5935055362	-2.6165850855	 1.0045722441	 0.103431
H	 1.8913857028	-2.0983428588	 2.1173040576	 0.133543
42.6977	154.17	207.5469	216.9642	271.6397	361.2469	391.1134	443.2104	507.6977	514.0925	605.9504	667.2591	769.7588	793.8276	830.176	856.4079	934.672	956.1788	1013.8521	1026.9976	1054.2712	1069.0172	1069.9142	1110.3501	1131.4381	1155.1787	1192.4272	1201.2044	1242.4252	1279.5872	1302.7487	1314.9101	1352.3089	1379.6838	1399.5806	1411.4008	1475.6519	1483.1342	1492.8095	1499.1968	1819.996	2967.7884	2973.4763	3048.0799	3114.696	3115.1122	3125.8332	3137.3575	3138.3651	3144.2503	3227.4525
CC1C2CC2OCC1=O	C[C@H]1[C@H]2C[C@H]2OCC1=O	
InChI=1S/C7H10O2/c1-4-5-2-7(5)9-3-6(4)8/h4-5,7H,2-3H2,1H3	InChI=1S/C7H10O2/c1-4-5-2-7(5)9-3-6(4)8/h4-5,7H,2-3H2,1H3/t4-,5+,7+/m0/s1
