22
gdb 13884	3.69832	1.37542	1.29609	1.4708	77.86	-0.2375	0.0811	0.3186	1095.0834	0.200641	-350.224024	-350.215052	-350.214107	-350.25822	33.081	
C	 0.0324558885	 1.5240801433	 0.0292959732	-0.390824
C	-0.0879816993	-0.0067080028	-0.0171152919	 0.020023
C	-1.5603164866	-0.4359802517	 0.0422780239	-0.391756
C	 0.6479457939	-0.5568339998	-1.250027625	 0.170701
C	 0.7732655699	-2.0819043171	-1.3717717748	-0.251827
C	 0.9036251932	-2.2688771827	-2.8895302691	-0.230662
C	-0.0273362508	-1.1699453391	-3.4200463074	-0.056663
O	-0.0211188476	-0.1282532696	-2.4451607441	-0.280511
H	 1.0810150782	 1.8409906499	 0.0380108289	 0.10497
H	-0.444920619	 1.9711945235	-0.84799646	 0.132434
H	-0.4488180822	 1.9304064051	 0.9246860876	 0.10404
H	 0.434499123	-0.4173447987	 0.8591495857	 0.066561
H	-2.0893236679	-0.1004488985	-0.8542188183	 0.129774
H	-1.6763209724	-1.5212499269	 0.118502144	 0.106439
H	-2.0521602673	 0.0062643368	 0.914347992	 0.10721
H	 1.6632304322	-0.1235549113	-1.2513320741	 0.057259
H	 1.6261518243	-2.4721951287	-0.8108092697	 0.100067
H	-0.1291363207	-2.5798051603	-1.0029599563	 0.104551
H	 1.9346110643	-2.0825544833	-3.2089430316	 0.105924
H	 0.6195359443	-3.2657849668	-3.2353346527	 0.101279
H	 0.2997677183	-0.7611206781	-4.383109074	 0.099311
H	-1.0535904563	-1.5460043533	-3.5453881961	 0.091699
33.1431	83.282	175.0854	202.1168	215.6408	249.5626	291.6609	347.3889	437.3136	565.4364	584.4874	655.0703	799.732	873.257	880.0052	901.88	925.6489	934.8182	944.2527	963.8228	1007.2449	1038.3805	1068.754	1099.291	1143.8561	1168.9468	1190.7656	1207.5617	1211.2493	1256.4693	1305.0483	1330.3898	1335.778	1342.7222	1369.7173	1388.8392	1400.6629	1403.8552	1421.8243	1482.4014	1489.3212	1494.9006	1498.632	1503.9249	1515.7807	1531.509	2941.3114	2990.1958	3001.5825	3031.3904	3040.2372	3041.961	3054.4651	3056.8654	3096.2258	3100.2503	3103.06	3110.6942	3112.179	3119.2548
CC(C)C1CCCO1	CC(C)[C@H]1CCCO1	
InChI=1S/C7H14O/c1-6(2)7-4-3-5-8-7/h6-7H,3-5H2,1-2H3	InChI=1S/C7H14O/c1-6(2)7-4-3-5-8-7/h6-7H,3-5H2,1-2H3/t7-/m1/s1
