21
gdb 59950	2.73211	0.99408	0.91692	3.534	80.44	-0.2261	0.0196	0.2458	1400.3788	0.17957	-420.402951	-420.392136	-420.391191	-420.438573	39.279	
C	 0.1879661418	 1.3463441251	-0.4483923038	-0.323103
N	 0.0372425058	 0.057837658	 0.2146480676	-0.055337
C	 0.8013752348	 0.0103225591	 1.4569404357	-0.336476
C	-1.3566089555	-0.3172636332	 0.372990622	-0.168003
C	-1.5992999681	-1.853879198	 0.4032611968	 0.181518
C	-0.9398744499	-2.5644030327	-0.7814004341	-0.390425
O	-1.0800867689	-2.4685286234	 1.5796439859	-0.435185
C	-3.0694137529	-2.0637897061	 0.3657985082	 0.257228
N	-4.2167675663	-2.2037530359	 0.3688983749	-0.335206
H	 1.2503115018	 1.5418032758	-0.6234868722	 0.123137
H	-0.3174733162	 1.3325182606	-1.4185046598	 0.121673
H	-0.2174207559	 2.1916153329	 0.1390706663	 0.096966
H	 0.4361882933	 0.7395694595	 2.2062746812	 0.089135
H	 0.749568765	-0.9887418789	 1.8891984031	 0.142265
H	 1.8493601815	 0.243269964	 1.2463534317	 0.119733
H	-1.8162498427	 0.1211125935	 1.2812224587	 0.084505
H	-1.9211988849	 0.0774893036	-0.4774196764	 0.120368
H	 0.1265175973	-2.3375723589	-0.771745489	 0.147206
H	-1.09394355	-3.6417889279	-0.6986878776	 0.139408
H	-1.3665628191	-2.2142249924	-1.7242978157	 0.129087
H	-1.5209926908	-2.0813781748	 2.3452485967	 0.291505
55.4892	107.5951	126.4005	188.9737	209.0028	230.2427	244.8903	255.6739	317.3619	338.7066	369.3804	390.3142	400.0739	425.4451	502.8683	580.1467	602.0616	758.867	849.1936	899.4944	957.1206	967.5316	1064.105	1072.7827	1090.5509	1123.8639	1144.5694	1173.257	1190.3216	1244.3746	1307.9221	1318.831	1380.6618	1393.7038	1414.3251	1442.6302	1464.6442	1480.7145	1484.9044	1486.3685	1489.436	1499.8378	1508.079	1518.5906	2349.1681	2905.8063	2919.9036	2935.3091	3063.76	3063.9601	3075.9258	3079.5985	3109.0484	3141.8302	3149.3114	3161.8617	3795.3151
CN(C)CC(C)(O)C#N	CN(C)C[C@@](C)(O)C#N	
InChI=1S/C6H12N2O/c1-6(9,4-7)5-8(2)3/h9H,5H2,1-3H3	InChI=1S/C6H12N2O/c1-6(9,4-7)5-8(2)3/h9H,5H2,1-3H3/t6-/m0/s1
