17
gdb 49163	4.05235	1.27961	1.14231	2.9843	75.05	-0.2264	-0.0619	0.1645	1079.1941	0.138286	-418.013557	-418.006275	-418.005331	-418.045331	28.559	
O	-0.8299749929	 1.2970110217	-0.1550955266	-0.278054
C	 0.2797278589	 0.8967320702	 0.1077463309	 0.123438
C	 1.4763935713	 1.7810623424	 0.1212151623	 0.250517
N	 2.6375873079	 1.2615422085	 0.3328245243	-0.287771
C	 3.724581986	 2.2391560359	 0.2372823747	 0.00631
C	 3.3652733373	 3.5284884579	 1.0452831705	-0.22352
C	 2.4927330956	 3.9064170654	-0.1870120545	 0.004186
C	 3.5353290318	 3.1238245991	-1.0395348789	-0.230359
N	 1.2744088498	 3.1110200937	-0.100731039	-0.31906
H	 0.5088479374	-0.1599464334	 0.3426084421	 0.106841
H	 4.6840323579	 1.752868443	 0.4094962116	 0.07639
H	 2.8619700996	 3.40441719	 2.0057377744	 0.10974
H	 4.2264226925	 4.1916076055	 1.1422767423	 0.108155
H	 2.2574356354	 4.9475894001	-0.4048046033	 0.079728
H	 4.4222556897	 3.7282649271	-1.235945939	 0.108511
H	 3.1901623888	 2.6342895749	-1.9524581079	 0.104515
H	 0.3869706031	 3.413228228	-0.4696974338	 0.260434
83.0056	201.446	226.4278	319.0337	382.4344	410.8668	472.1272	504.0142	531.2434	682.9886	708.6464	807.2733	846.2982	859.8611	881.1583	902.6639	979.5938	993.7132	1001.0389	1033.7509	1064.5063	1069.7409	1111.9444	1155.1241	1187.5353	1226.8465	1240.9793	1257.9188	1291.5599	1320.7951	1359.2631	1383.5247	1467.4114	1489.1311	1516.3788	1664.2678	1801.2158	2967.6559	3070.1877	3075.3334	3113.8182	3119.4523	3137.2561	3141.145	3640.1588
O=CC1=NC2CC(C2)N1	O=C[C]1[N][C@@H]2C[C@@H](C2)N1	
InChI=1S/C6H8N2O/c9-3-6-7-4-1-5(2-4)8-6/h3-5H,1-2H2,(H,7,8)	InChI=1S/C6H8N2O/c9-3-6-7-4-1-5(2-4)8-6/h3-5H,1-2H2,(H,7,8)/t4-,5+
