19
gdb 76766	2.2369	1.6979	1.34739	2.3208	70.24	-0.2445	0.0479	0.2924	1029.8373	0.158421	-460.126574	-460.117762	-460.116818	-460.160032	34.119	
O	 0.2888452975	 1.1455901375	-0.5077896862	-0.435175
C	-0.0133550837	-0.1684216677	-0.1135082079	 0.095365
C	 0.1882828114	-0.4226816044	 1.4225245714	-0.017314
O	 0.6880580632	 0.6896942332	 2.1493712857	-0.430236
C	-1.3263790465	-0.6851530261	 1.5807129859	 0.407691
O	-1.7064076031	-1.8504472119	 2.2568479443	-0.489483
C	-2.2024978597	 0.5839521919	 1.7819643362	-0.308188
C	-2.4606104664	 0.6503172268	 0.2444972767	-0.220885
C	-1.5223927488	-0.5574731216	 0.0259772845	-0.106835
H	 0.4609946685	 1.6316488631	 0.3120355158	 0.283546
H	 0.5450953041	-0.8600590563	-0.7527860837	 0.076312
H	 0.7577720535	-1.3335883467	 1.6365615609	 0.077364
H	 1.6481854304	 0.6288974781	 2.1813101336	 0.295863
H	-1.732852506	-1.6552498249	 3.2005265601	 0.278315
H	-3.098189021	 0.3593986755	 2.3663251028	 0.099609
H	-1.6910796616	 1.4388782269	 2.2283741	 0.111769
H	-3.4983794811	 0.4451467574	-0.0248479701	 0.100174
H	-2.1363157708	 1.5638504427	-0.2561908333	 0.114759
H	-1.8668604799	-1.3851083933	-0.5932153268	 0.067347
42.7086	192.312	219.0526	244.5336	257.7156	268.637	284.754	371.86	474.2234	515.5817	546.1257	560.5554	623.5018	714.4469	741.9061	809.825	865.7218	870.1611	915.6657	951.7024	1000.7792	1012.2138	1067.675	1106.1203	1114.8303	1142.22	1157.6592	1191.6171	1203.3664	1230.3033	1246.9476	1264.6393	1280.676	1291.8495	1309.0691	1338.9981	1368.833	1420.4795	1431.5583	1468.8013	1488.8033	3038.199	3053.2039	3065.4531	3075.6868	3114.8812	3119.6796	3136.2429	3714.5513	3791.4404	3821.1738
OC1C(O)C2(O)CCC12	O[C@H]1[C@@H](O)[C@@]2(O)CC[C@@H]12	
InChI=1S/C6H10O3/c7-4-3-1-2-6(3,9)5(4)8/h3-5,7-9H,1-2H2	InChI=1S/C6H10O3/c7-4-3-1-2-6(3,9)5(4)8/h3-5,7-9H,1-2H2/t3-,4+,5+,6+/m0/s1
