19
gdb 72188	2.97231	1.98727	1.57175	1.274	77.12	-0.2261	0.0794	0.3054	900.6564	0.161789	-385.85508	-385.848532	-385.847588	-385.885385	28.685	
O	-0.1492264399	 1.3566321779	 0.0825110963	-0.489801
C	 0.0381148679	-0.0241374491	 0.0142532816	 0.428547
C	 1.1594485405	-0.7225801285	 0.8049324394	-0.300265
C	 1.1647676092	-1.8153193038	-0.3070410402	-0.054678
C	 0.1361212686	-2.9084313618	 0.0187615971	-0.224022
C	-1.1901704988	-2.2313531219	-0.2798843821	-0.054479
C	-1.0561440034	-1.2803278581	-1.4339232472	-0.083745
C	-1.330406092	-0.7370348054	-0.0328255636	-0.106326
C	 0.4119369657	-0.815453413	-1.2857769702	-0.128741
H	 0.7093411723	 1.7792826301	-0.0277977554	 0.274228
H	 2.0760628895	-0.120305174	 0.7797427082	 0.080762
H	 0.9683134445	-1.0387328814	 1.8355046149	 0.092695
H	 2.1384490652	-2.1983742703	-0.6128089117	 0.065234
H	 0.2575684027	-3.7807208855	-0.6351148165	 0.093132
H	 0.2281823342	-3.25571712	 1.0541355113	 0.095446
H	-2.1115850333	-2.797496569	-0.1860565775	 0.081885
H	-1.6739902521	-1.272947667	-2.3223103142	 0.08215
H	-2.2373441337	-0.3088487735	 0.3771397288	 0.086462
H	 0.9569985329	-0.3670512955	-2.1137388188	 0.061516
234.2403	276.1153	338.023	369.6822	422.4676	468.1291	550.6723	651.85	691.4733	737.8456	762.0483	816.8565	823.8026	827.1417	886.8512	916.5714	922.2342	946.2435	961.0046	974.9561	1003.1797	1041.8579	1056.0346	1063.1359	1085.7996	1092.4433	1096.0599	1132.6535	1159.8397	1217.9153	1226.7936	1230.8263	1245.7607	1275.4297	1287.8567	1319.3383	1345.0767	1392.9405	1404.8725	1481.937	1495.9842	3023.7689	3026.0049	3065.6431	3081.7587	3103.2135	3137.9316	3162.8682	3181.8857	3197.2185	3802.8004
OC12CC3CC4C(C14)C23	O[C@@]12C[C@H]3C[C@@H]4[C@@H]([C@H]14)[C@@H]23	
InChI=1S/C8H10O/c9-8-2-3-1-4-5(6(3)8)7(4)8/h3-7,9H,1-2H2	InChI=1S/C8H10O/c9-8-2-3-1-4-5(6(3)8)7(4)8/h3-7,9H,1-2H2/t3-,4-,5-,6+,7-,8-/m1/s1
