20
gdb 103091	2.22894	1.221	1.00941	4.3863	80.22	-0.2741	0.0317	0.3057	1280.8352	0.168875	-403.15554	-403.145148	-403.144204	-403.190851	37.278	
C	-0.1236394071	 1.5144760302	-0.127943104	-0.426324
C	 0.0079430143	 0.0224784262	 0.0818861207	-0.058593
C	 1.3407679813	-0.7068967125	-0.1105703761	-0.231028
C	 2.5269406191	 0.0423197018	-0.407123022	 0.294654
N	 3.4808246146	 0.6556025989	-0.6403266856	-0.35341
C	 0.6894867939	-0.6034897239	 1.2708944525	 0.286171
C	 1.3384342578	 0.2509636767	 2.3413366185	-0.481353
C	 0.0828691207	-1.9009175849	 1.7865964185	-0.128312
O	 1.0364467291	-2.8113309588	 2.3052900613	-0.414727
H	 0.7844092637	 2.0555447681	 0.1453741261	 0.142976
H	-0.3290064813	 1.7331738052	-1.1805651327	 0.132869
H	-0.9521208883	 1.9153637724	 0.4653158374	 0.123913
H	-0.8372269893	-0.5446213462	-0.3025411411	 0.096374
H	 1.3125889081	-1.6814525147	-0.5871487207	 0.133771
H	 1.8330354194	 1.1332915752	 1.9330921577	 0.14824
H	 0.5922715879	 0.5850055565	 3.0713841914	 0.120203
H	 2.1062395725	-0.3201388876	 2.874874041	 0.122957
H	-0.6919906498	-1.6628585492	 2.5329592642	 0.094085
H	-0.4122188895	-2.4288037915	 0.9645845632	 0.10804
H	 1.3493586629	-2.4763517519	 3.1506203597	 0.289494
70.9522	118.1563	138.8173	146.6328	169.5724	178.28	235.1242	288.7969	314.1068	347.9814	372.5096	417.1461	540.5209	560.7672	616.9375	710.8919	796.3741	839.5958	936.7116	945.0616	973.1593	1020.311	1032.5799	1069.6404	1100.3915	1117.1196	1137.4834	1149.8319	1207.8929	1249.9632	1341.6159	1354.7065	1385.7759	1411.3439	1424.4669	1429.3474	1438.2037	1483.4115	1491.2205	1495.3962	1501.5345	1512.7481	2346.2704	2978.2269	3032.7235	3042.6288	3068.4661	3089.9419	3102.2032	3121.5202	3134.5973	3141.8692	3162.8264	3833.0597
CC1C(C#N)C1(C)CO	C[C@H]1[C@@H](C#N)[C@]1(C)CO	
InChI=1S/C7H11NO/c1-5-6(3-8)7(5,2)4-9/h5-6,9H,4H2,1-2H3	InChI=1S/C7H11NO/c1-5-6(3-8)7(5,2)4-9/h5-6,9H,4H2,1-2H3/t5-,6+,7+/m0/s1
