18
gdb 106442	2.65191	1.30868	1.04498	3.6243	77.1	-0.2793	0.0237	0.303	1171.6302	0.148164	-401.908466	-401.900092	-401.899147	-401.941746	31.431	
O	-0.0877923181	 1.4165546719	-0.0124418083	-0.419427
C	-0.041730972	-0.0010258914	-0.0587032201	-0.222353
C	-1.4598090931	-0.4956519096	-0.0215027249	 0.362862
C	-2.5208581976	-0.2818043908	 1.1003260162	-0.264269
C	-3.22898593	-1.1451893433	 0.0185747132	-0.054225
C	-2.5989405348	-0.2042725727	-1.0468177435	-0.270329
C	-1.9147651934	-1.9986533439	-0.0318804089	-0.191493
C	-1.6350870978	-2.8095189217	-1.2064748845	 0.263172
N	-1.3991247706	-3.4638466563	-2.1306840772	-0.339753
H	 0.8110869475	 1.7497426402	-0.0882349589	 0.293959
H	 0.4453341051	-0.3635852288	-0.9777227107	 0.106032
H	 0.5153501401	-0.4165513384	 0.7972637484	 0.091179
H	-2.3220618482	-0.7572096296	 2.0650536102	 0.094388
H	-2.8854610859	 0.7392450472	 1.2190576161	 0.113379
H	-4.2411763185	-1.546629612	 0.04098257	 0.09249
H	-2.968454452	 0.8220154512	-1.0645828743	 0.110642
H	-2.472476431	-0.6073974295	-2.0537127152	 0.122156
H	-1.6869803297	-2.5638009824	 0.8764000824	 0.111591
75.2186	117.0197	176.6166	197.3316	232.4315	314.2403	386.7244	446.2792	506.361	558.0139	616.2456	670.8639	778.5914	821.3807	876.0112	911.2435	933.9815	954.8184	1009.8108	1024.8943	1051.503	1075.4752	1081.9599	1105.2985	1131.9881	1145.0043	1168.5156	1212.5748	1217.0591	1227.2197	1251.7889	1277.4266	1321.3827	1372.9988	1468.3828	1502.2278	1514.7051	1544.7985	2348.7486	2963.6353	2997.6715	3058.4322	3072.9266	3075.5685	3127.3688	3136.9838	3143.9894	3832.9194
OCC12CC(C1)C2C#N	OC[C@@]12C[C@@H](C1)[C@H]2C#N	
InChI=1S/C7H9NO/c8-3-6-5-1-7(6,2-5)4-9/h5-6,9H,1-2,4H2	InChI=1S/C7H9NO/c8-3-6-5-1-7(6,2-5)4-9/h5-6,9H,1-2,4H2/t5-,6-,7+/m1/s1
