18
gdb 33203	5.83927	0.73889	0.66407	2.9013	75.01	-0.2357	0.0064	0.242	1666.2776	0.147357	-439.1068	-439.097814	-439.09687	-439.142521	30.998	
C	-0.5567360942	 1.33027454	 0.2240780553	-0.387806
C	 0.117770471	-0.0080379701	-0.0201131877	-0.023969
O	 0.5871711802	-0.505627684	 1.2195358056	-0.240784
C	 1.2333153903	-1.7473758365	 1.1084337216	-0.17411
C	 1.672777292	-2.1534195509	 2.4719630672	 0.312088
C	 1.5812742731	-1.605669344	 3.7064009927	-0.174524
N	 2.1870963189	-2.4551820782	 4.6299916184	-0.255874
C	 2.602466235	-3.4478609206	 3.9191449486	 0.067051
O	 2.3316360334	-3.3470176355	 2.5926439915	-0.184141
H	 0.1501011727	 2.0421011149	 0.6593272325	 0.130562
H	-0.9318483281	 1.7434004162	-0.7168132778	 0.118345
H	-1.3977554751	 1.2156294973	 0.9134951931	 0.130563
H	-0.5894380063	-0.7245590951	-0.4705318442	 0.09099
H	 0.9589162443	 0.1022297589	-0.724876624	 0.090975
H	 0.5597254333	-2.5123754008	 0.6816263916	 0.108882
H	 2.1036557581	-1.6866048174	 0.4302456535	 0.108912
H	 1.1280733911	-0.6720792323	 3.9930350669	 0.134559
H	 3.1287735003	-4.3337100819	 4.2374086155	 0.148281
26.9234	66.5206	97.8892	114.6903	236.2683	255.0465	269.5274	343.4264	491.6808	641.8028	668.205	740.4925	820.2573	827.6995	862.9971	905.8774	940.2012	996.099	1046.6337	1052.9188	1115.7974	1123.9239	1149.1332	1174.8035	1188.2867	1218.0671	1240.9107	1250.782	1295.752	1338.6199	1391.8422	1409.5354	1458.5262	1483.0209	1498.7825	1509.528	1533.9733	1553.767	1645.3052	2937.2495	2953.348	2960.1239	2985.0784	3046.9391	3122.209	3124.5167	3279.4275	3287.9275
CCOCC1=CN=CO1	CCOCc1cnco1	
InChI=1S/C6H9NO2/c1-2-8-4-6-3-7-5-9-6/h3,5H,2,4H2,1H3	InChI=1S/C6H9NO2/c1-2-8-4-6-3-7-5-9-6/h3,5H,2,4H2,1H3
