15
gdb 9941	3.35986	1.55938	1.44078	5.1045	63.38	-0.2397	0.0176	0.2573	916.2736	0.119396	-395.957319	-395.949151	-395.948207	-395.989467	30.398	
N	-0.033286654	 1.4578270566	-0.0501844229	-0.526743
C	-0.0186402268	 0.020290136	-0.011555651	-0.062089
C	-1.3330675629	-0.7110372715	-0.021332849	-0.103264
N	-2.5156718394	 0.0773356433	-0.2156020765	-0.525689
C	-0.4260222073	-0.7523395768	-1.2762177552	 0.243109
O	-0.8762553595	 0.023999256	-2.3351091379	-0.462803
C	 0.2501983942	-1.9683123117	-1.6311754052	 0.254669
N	 0.8110688074	-2.9535684982	-1.8659957938	-0.350487
H	 0.8972875098	 1.8150829974	 0.1346640782	 0.245805
H	-0.2784121389	 1.7514531854	-0.9947557493	 0.248815
H	 0.7630300862	-0.4152201765	 0.6006536968	 0.117071
H	-1.4120133415	-1.6227255833	 0.5626452279	 0.114251
H	-3.3576282986	-0.4262643326	 0.0278168909	 0.252755
H	-2.4635647818	 0.9404174711	 0.3182202073	 0.25985
H	-1.8103333669	 0.2142062349	-2.1110823703	 0.294749
132.5909	161.3498	182.2609	219.1916	258.2185	312.0816	318.214	466.4665	480.9781	569.5152	610.1995	650.7565	664.4332	716.2312	778.8445	846.148	879.6944	926.951	1014.4901	1075.9036	1103.5454	1114.9311	1179.7002	1252.7516	1270.5626	1280.8108	1378.4238	1423.2237	1472.0369	1633.2663	1652.1853	2340.88	3153.0796	3179.6161	3472.1679	3502.4125	3537.0751	3577.3178	3620.1566
NC1C(N)C1(O)C#N	N[C@H]1[C@@H](N)[C@]1(O)C#N	
InChI=1S/C4H7N3O/c5-1-4(8)2(6)3(4)7/h2-3,8H,6-7H2	InChI=1S/C4H7N3O/c5-1-4(8)2(6)3(4)7/h2-3,8H,6-7H2/t2-,3+,4-
