21
gdb 120878	5.07909	0.81246	0.77116	2.58	80.54	-0.2425	0.0832	0.3258	1578.9582	0.179945	-424.188211	-424.178579	-424.177634	-424.223153	35.325	
C	-0.009570218	 1.5055253083	 0.0883405157	-0.384296
C	 0.2423803277	 0.0098923152	 0.0042982494	-0.035094
O	 0.4500138614	-0.4841990179	 1.315002763	-0.252421
C	 0.6687288693	-1.860600492	 1.3688319985	 0.152616
C	 2.0682202122	-2.4547399015	 0.9376529156	-0.341564
C	 2.1721734218	-3.0530202395	 2.3526250442	 0.417233
C	 2.8537282329	-4.308504508	 2.7880423254	-0.499189
O	 2.1644083461	-1.9290774294	 3.241880199	-0.277652
C	 0.9032732167	-2.4191210109	 2.7705750856	-0.088071
H	 0.8468074096	 2.0119520604	 0.5421524914	 0.130701
H	-0.1721306789	 1.9220268535	-0.9102979188	 0.112755
H	-0.8922160636	 1.7122171084	 0.700202683	 0.1266
H	-0.6163769811	-0.5038639461	-0.4611506288	 0.083431
H	 1.1219524833	-0.1978538592	-0.6264084523	 0.090571
H	-0.1423606853	-2.4095863268	 0.863390372	 0.065968
H	 1.9951471852	-3.1877774842	 0.1308293615	 0.100686
H	 2.8428061927	-1.7183406088	 0.7126099437	 0.111529
H	 3.9416055937	-4.20946165	 2.6995352446	 0.131833
H	 2.6161791173	-4.5300675564	 3.8318762412	 0.134751
H	 2.5432284589	-5.1554240304	 2.1675601143	 0.123061
H	 0.1706386181	-2.7003687548	 3.5191355418	 0.096551
58.9505	88.0963	101.6596	183.6726	203.5737	246.2404	278.0165	305.7283	375.0471	416.3676	478.0199	567.9575	668.8404	731.8667	819.1517	824.0921	862.2547	893.7433	928.6659	959.4987	966.353	1016.5664	1045.6951	1055.8037	1086.8295	1149.309	1157.7597	1178.9123	1189.897	1210.1763	1216.2713	1276.1973	1293.5236	1295.9852	1367.3698	1402.8231	1403.9099	1439.5809	1449.8994	1474.8798	1482.8676	1485.6535	1496.8852	1499.4173	1528.479	2954.4049	2972.4851	2986.5019	3033.7365	3045.1988	3066.3263	3095.314	3119.09	3120.7288	3123.0023	3128.2905	3179.3204
CCOC1CC2(C)OC12	CCO[C@H]1C[C@@]2(C)O[C@@H]12	
InChI=1S/C7H12O2/c1-3-8-5-4-7(2)6(5)9-7/h5-6H,3-4H2,1-2H3	InChI=1S/C7H12O2/c1-3-8-5-4-7(2)6(5)9-7/h5-6H,3-4H2,1-2H3/t5-,6-,7+/m0/s1
