23
gdb 51876	3.57567	0.86406	0.74049	2.8593	86.42	-0.2463	-0.0184	0.2279	1568.6884	0.206812	-388.331333	-388.322162	-388.321218	-388.366012	34.66	
O	-0.6113234499	 0.7047086532	 0.7386835156	-0.243532
C	 0.0985372069	 0.9500708671	-0.2023698726	 0.160353
C	 1.3276652565	 1.8282714319	-0.1692481754	-0.291372
C	 1.3003751191	 2.9295997609	-1.2459797966	 0.028331
C	 0.18933299	 3.9630645169	-0.9807237392	-0.18648
C	 0.1721319524	 5.0719577625	-2.041829004	-0.198978
C	 1.5400164964	 5.758269059	-2.1599301332	-0.17805
C	 2.6535118595	 4.7358887984	-2.4284013643	-0.201267
C	 2.6663977479	 3.6270344626	-1.3670918112	-0.192775
H	-0.1189143077	 0.5160513227	-1.2086488079	 0.066952
H	 1.4342235569	 2.2485553851	 0.8360299428	 0.116818
H	 2.1917900019	 1.1723905509	-0.3545793052	 0.113327
H	 1.0874338572	 2.4467765294	-2.2132171866	 0.071163
H	-0.7876786156	 3.4673329932	-0.9340948907	 0.09971
H	 0.3528805966	 4.4089308851	 0.0109997505	 0.09749
H	-0.1003417023	 4.6380845048	-3.014044342	 0.092737
H	-0.604527644	 5.8066777162	-1.8022035831	 0.093535
H	 1.5189723872	 6.5146734982	-2.952361679	 0.091059
H	 1.7579377419	 6.292627206	-1.2246774496	 0.093105
H	 2.5001400057	 4.2857804517	-3.4191946983	 0.092544
H	 3.6291170922	 5.2336872918	-2.4621909716	 0.09226
H	 2.9319304681	 4.0598996777	-0.3918744452	 0.094534
H	 3.4426613832	 2.8878496446	-1.5994932931	 0.088535
56.1113	66.4327	130.3193	204.7041	224.7341	304.0958	335.3232	398.5231	442.9774	445.8712	494.4682	566.986	757.7518	791.8593	815.1234	852.5478	887.4629	896.9227	924.5213	973.3659	997.9206	1029.5678	1043.6592	1070.3761	1090.1616	1098.4312	1111.6266	1166.6865	1194.5279	1217.494	1271.3351	1287.4779	1292.0328	1299.0012	1341.0492	1356.9636	1370.2943	1377.4506	1379.7856	1383.0804	1402.6553	1430.2302	1459.0995	1480.6457	1485.0681	1486.2262	1490.3625	1504.3178	1835.11	2837.3834	2976.2525	3003.204	3003.8944	3008.5922	3010.3682	3011.3813	3016.5642	3052.2175	3055.8697	3061.9045	3063.1951	3068.5938	3087.6619
O=CCC1CCCCC1	O=CCC1CCCCC1	
InChI=1S/C8H14O/c9-7-6-8-4-2-1-3-5-8/h7-8H,1-6H2	InChI=1S/C8H14O/c9-7-6-8-4-2-1-3-5-8/h7-8H,1-6H2
