13
gdb 27010	3.08337	1.20303	0.95397	3.8321	64.72	-0.2372	-0.0175	0.2198	1162.7787	0.090052	-452.787634	-452.77987	-452.778926	-452.820943	27.558	
O	-0.2495266043	 1.3907748043	 0.2001482439	-0.425796
C	-0.06140192	 0.0678463723	 0.0609150373	 0.259963
C	 0.0786736233	-0.6324080054	-1.0948522504	 0.244202
C	 0.0787337804	-0.2700570584	-2.5378597807	-0.454398
C	 1.3742147654	-0.4812284952	-3.1990054332	 0.26755
N	 2.3910108312	-0.6548886549	-3.7183266819	-0.301214
O	 0.243119696	-1.9544053226	-0.7310188362	-0.170036
C	 0.1909971279	-1.9506449301	 0.6094609589	 0.082414
N	 0.0091578532	-0.7832222367	 1.1440654299	-0.333145
H	-0.3052866746	 1.5728765326	 1.1461580421	 0.313509
H	-0.6831573097	-0.8350810974	-3.0898899951	 0.170444
H	-0.1889349964	 0.7884862675	-2.6194038583	 0.183134
H	 0.3020824579	-2.9001034859	 1.1086127338	 0.163373
44.1648	97.6194	225.6423	246.4398	340.2827	351.6733	377.239	425.5282	524.4406	637.71	688.6724	732.4987	794.1891	841.8901	906.5619	928.1917	959.7967	1075.4015	1168.4035	1180.8458	1262.6025	1298.5325	1325.3553	1358.6454	1427.6711	1443.6602	1550.9984	1734.5041	2366.6856	3032.0815	3091.9599	3280.6685	3807.7615
OC1=C(CC#N)OC=N1	Oc1c(CC#N)ocn1	
InChI=1S/C5H4N2O2/c6-2-1-4-5(8)7-3-9-4/h3,8H,1H2	InChI=1S/C5H4N2O2/c6-2-1-4-5(8)7-3-9-4/h3,8H,1H2
