16
gdb 26733	3.26825	1.27859	0.92435	2.706	76.31	-0.2034	-0.0328	0.1706	1193.4457	0.123931	-437.942992	-437.934356	-437.933411	-437.976158	31.521	
C	-0.0176848558	 1.5358722616	 0.0707796139	-0.512729
C	 0.0217557532	 0.0478908674	-0.0155418164	 0.234261
C	 0.0504619257	-0.7573156704	-1.1198643412	 0.237507
O	 0.0471916816	-0.2833900675	-2.3969181632	-0.444799
C	 0.0831374499	-2.1320572415	-0.699253538	-0.300175
C	 0.0733567432	-2.1343466728	 0.6619185163	-0.056936
N	 0.0364260562	-0.8158383354	 1.0960856854	-0.108435
C	 0.0173390254	-0.443767742	 2.4317726776	 0.172359
O	 0.0308362343	-1.2240401065	 3.3509719138	-0.304981
H	 0.8518473463	 1.9558785455	 0.5913549039	 0.131686
H	-0.0189646284	 1.9375727945	-0.9449587177	 0.153538
H	-0.9170869597	 1.9099764748	 0.5754195869	 0.131716
H	 0.0717477485	-1.0271323259	-3.005249209	 0.301348
H	 0.1102597467	-3.0017349844	-1.3394372765	 0.10804
H	 0.0887287157	-2.92886677	 1.3876314876	 0.155834
H	-0.0123144128	 0.6507999625	 2.5597509667	 0.101766
107.9695	149.2815	189.9032	211.2931	212.4803	265.6713	292.841	335.2774	412.3867	521.7351	608.147	658.428	677.1991	736.3794	741.8638	828.143	843.4133	946.0688	1033.2639	1065.4553	1068.3029	1085.4612	1160.1468	1245.0318	1298.2638	1334.6486	1402.0576	1420.6175	1449.5041	1468.9293	1486.5254	1497.4507	1541.5082	1697.2035	1811.9478	3004.2128	3018.0686	3060.6871	3127.0044	3238.3837	3297.5499	3848.7967
CC1=C(O)C=CN1C=O	Cc1c(O)ccn1C=O	
InChI=1S/C6H7NO2/c1-5-6(9)2-3-7(5)4-8/h2-4,9H,1H3	InChI=1S/C6H7NO2/c1-5-6(9)2-3-7(5)4-8/h2-4,9H,1H3
