23
gdb 121401	4.00174	0.83571	0.73296	0.6555	83.2	-0.2347	0.0876	0.3223	1626.4299	0.206446	-425.432852	-425.423346	-425.422402	-425.468093	35.308	
C	-0.0027773939	 1.5277307857	-0.0715614609	-0.382747
C	 0.1110511303	 0.0167692547	 0.0454018554	-0.04195
O	 0.6265887872	-0.4834501691	-1.1755594487	-0.257264
C	 0.7009358145	-1.89478227	-1.2687528891	 0.125718
C	 0.7341537814	-2.2692944005	-2.750354538	-0.223703
C	 0.9757845478	-3.7766309688	-2.9170127704	-0.21219
C	 2.2002797417	-4.2085213571	-2.108847749	-0.06183
O	 2.0787081958	-3.8446413795	-0.7428954895	-0.243797
C	 1.959023157	-2.4439201498	-0.5722002146	-0.095806
H	 0.9786117476	 1.9728079275	-0.2587530884	 0.126347
H	-0.664080334	 1.7984209792	-0.8995487291	 0.125668
H	-0.4066601041	 1.9531195017	 0.8520707645	 0.113738
H	 0.7637335689	-0.2488610013	 0.8916160831	 0.089963
H	-0.8762770774	-0.4308022561	 0.2474113463	 0.087309
H	-0.1840419779	-2.3529106068	-0.7962659769	 0.066949
H	-0.1964075385	-1.9557942352	-3.2337638919	 0.099212
H	 1.5470581698	-1.7029454419	-3.2235967326	 0.104054
H	 0.1028482208	-4.3379389309	-2.5618774686	 0.10428
H	 1.1174655077	-4.0316851985	-3.9734099874	 0.096258
H	 2.3254784731	-5.2950922156	-2.1234010991	 0.104474
H	 3.1112832448	-3.7556824567	-2.538189447	 0.084232
H	 2.8397443763	-1.9187845846	-0.9803833483	 0.089178
H	 1.9289110911	-2.2689185864	 0.5067087105	 0.101908
37.3917	78.2321	110.148	211.8874	235.5913	250.9821	311.5707	343.9284	375.5614	451.5029	475.1654	505.728	600.4055	816.333	824.3061	869.1323	879.5749	893.084	934.5211	983.219	989.4193	1038.432	1057.3531	1116.7975	1127.6787	1143.7874	1148.7188	1182.7792	1189.3787	1205.4157	1241.5025	1291.3043	1297.7532	1319.5954	1329.621	1342.6198	1372.5699	1381.4155	1396.119	1404.3412	1416.7561	1438.8075	1479.8604	1482.7182	1491.2465	1494.2853	1499.9148	1506.9436	1529.7824	2953.3802	2958.0445	2964.8578	2972.4225	2993.4443	3028.0956	3030.3087	3044.2968	3073.012	3081.7029	3085.3158	3089.2546	3118.8087	3121.2531
CCOC1CCCOC1	CCO[C@H]1CCCOC1	
InChI=1S/C7H14O2/c1-2-9-7-4-3-5-8-6-7/h7H,2-6H2,1H3	InChI=1S/C7H14O2/c1-2-9-7-4-3-5-8-6-7/h7H,2-6H2,1H3/t7-/m0/s1
