20
gdb 120111	2.82286	1.10291	0.93799	3.7148	79.02	-0.2435	-0.0094	0.2341	1342.0561	0.170292	-403.136648	-403.127658	-403.126714	-403.171151	33.305	
C	 0.1796357389	 1.4739311488	 0.0733938122	-0.385091
C	 0.3768469303	-0.0399780021	-0.030412561	-0.159941
C	 0.4755910094	-0.5265820579	-1.4840237921	-0.219867
C	 0.615815015	-2.030169384	-1.5791578829	 0.004179
C	 1.3579072713	-2.7898669413	-2.5980006126	-0.056051
C	 2.6130759414	-2.0788960108	-3.0999617354	-0.380506
C	 2.987773811	-1.9765547244	-1.6124583016	 0.403583
O	 3.8978647492	-1.5266072526	-0.9890869241	-0.300931
N	 1.8591182564	-2.7591757624	-1.1389029196	-0.196805
H	 1.0144089679	 2.0142987329	-0.3864887131	 0.119647
H	-0.7395943507	 1.7919716012	-0.431597048	 0.112189
H	 0.1134341468	 1.7933202162	 1.1176657462	 0.117891
H	 1.2863951071	-0.3365521392	 0.5041281748	 0.128986
H	-0.4539762419	-0.5568930263	 0.4669258959	 0.098127
H	-0.4312602031	-0.2399657973	-2.0335096025	 0.103219
H	 1.3084884	-0.0179036721	-1.9810720271	 0.110525
H	-0.2470519641	-2.5599980399	-1.1781424166	 0.110942
H	 0.9855142798	-3.7216964327	-3.0073808219	 0.111569
H	 3.2992810598	-2.7451365755	-3.6295225979	 0.144263
H	 2.5056529257	-1.1515472406	-3.6670386528	 0.134072
55.3595	80.069	118.1477	160.1996	245.7267	272.3198	323.7306	448.5929	475.8962	499.8372	600.1359	643.3523	738.7947	748.5111	801.3089	842.2691	886.5273	907.1637	951.9795	965.2484	1014.2609	1028.7611	1051.9329	1066.7685	1092.1753	1127.5879	1153.7615	1177.6304	1224.1285	1252.9766	1272.7662	1302.4375	1329.1383	1356.7319	1387.6632	1414.427	1445.5854	1458.0996	1483.7283	1494.0295	1501.0149	1510.3764	1910.9746	3020.476	3026.6611	3030.8265	3060.7175	3070.8089	3076.9577	3098.9893	3106.6778	3123.7114	3125.2093	3186.2428
CCCC1C2CC(=O)N12	CCC[C@H]1[C@H]2CC(=O)N12	
InChI=1S/C7H11NO/c1-2-3-5-6-4-7(9)8(5)6/h5-6H,2-4H2,1H3	InChI=1S/C7H11NO/c1-2-3-5-6-4-7(9)8(5)6/h5-6H,2-4H2,1H3/t5-,6+,8?/m0/s1
