20
gdb 12816	3.24601	1.97713	1.56057	1.4352	74.45	-0.2351	0.0884	0.3235	909.1024	0.178523	-349.001974	-348.994464	-348.99352	-349.033226	29.99	
C	-0.002285269	 1.506533457	-0.0002931238	-0.459341
C	-0.0301405587	-0.0094685925	 0.0132076115	 0.304939
C	-0.8574616306	-0.6706060652	 1.0995299979	-0.345631
C	 0.651334113	-0.7118807169	 1.1654492179	 0.077846
O	 1.2806791528	-1.9510779216	 0.9952865154	-0.258357
C	 1.7087566647	-2.2314939489	-0.329428901	-0.056734
C	 0.5536794947	-2.1093400827	-1.3196657366	-0.225304
C	 0.0673407837	-0.6525200519	-1.3657792706	-0.262772
H	 0.9102112509	 1.8835226391	-0.4772068853	 0.113323
H	-0.8586800399	 1.9086446475	-0.5553853056	 0.115523
H	-0.045132472	 1.9178081746	 1.0132199706	 0.113129
H	-1.3991342656	-0.0327206347	 1.790640442	 0.103565
H	-1.3444218649	-1.6141744245	 0.8781627856	 0.112335
H	 1.1520885129	-0.0993059048	 1.9131702702	 0.08476
H	 2.5296090506	-1.5558677565	-0.6242847832	 0.08347
H	 2.1063406778	-3.249952632	-0.297923721	 0.104724
H	 0.8740865414	-2.4303842313	-2.3169161208	 0.09608
H	-0.2487629115	-2.7871462319	-1.0054016585	 0.106307
H	-0.8923046457	-0.5748764702	-1.891780282	 0.096868
H	 0.7890951653	-0.0701314326	-1.9548260925	 0.095268
131.1143	194.035	228.9816	315.9184	335.1909	366.6059	411.2442	480.0709	495.0783	585.731	691.4981	781.7745	860.3043	878.8964	896.2655	920.7296	938.5289	969.6722	1024.966	1041.9833	1051.2213	1061.0949	1086.0564	1114.7141	1148.5702	1185.0587	1201.877	1254.2196	1271.1544	1304.2134	1335.1823	1362.5153	1373.6266	1401.0428	1417.1664	1422.1582	1477.7536	1481.4206	1492.0393	1494.8332	1504.3556	1507.4844	2962.6269	3008.2272	3018.8031	3032.4968	3047.7254	3077.7226	3078.9483	3085.4013	3096.5605	3114.3014	3127.5158	3216.038
CC12CC1OCCC2	C[C@]12C[C@H]1OCCC2	
InChI=1S/C7H12O/c1-7-3-2-4-8-6(7)5-7/h6H,2-5H2,1H3	InChI=1S/C7H12O/c1-7-3-2-4-8-6(7)5-7/h6H,2-5H2,1H3/t6-,7+/m1/s1
