17
gdb 43637	3.28343	1.30573	1.09999	4.2423	76.01	-0.2469	-0.0407	0.2062	1118.602	0.138119	-417.995711	-417.988146	-417.987202	-418.02826	28.837	
N	-0.7130278802	 1.0037852034	-0.3153084511	-0.52146
C	-0.2450308755	-0.1567638785	-0.1258502647	 0.389254
O	-1.0146781092	-1.2540130455	-0.4266931955	-0.234659
C	-0.2990637067	-2.458052242	-0.1368358455	 0.010902
C	 1.0295948761	-1.9841386989	 0.3862575835	-0.081401
C	 1.0452961138	-0.6524110454	 0.3898072017	-0.190349
C	-1.0799668462	-3.3266752006	 0.8392851551	 0.005904
C	-1.8881720382	-2.7198148969	 1.9206758241	-0.24051
N	-2.5421197356	-3.3750693949	 0.7698413899	-0.325646
H	-0.0248909163	 1.7056791719	-0.0501302108	 0.224224
H	-0.1793305696	-3.0114946654	-1.0809837629	 0.113331
H	 1.8130117934	-2.6593403151	 0.7043586756	 0.129842
H	 1.8404536198	 0.0054035477	 0.7117785573	 0.124255
H	-0.6089398248	-4.2939127043	 1.0080478602	 0.095404
H	-1.9984094443	-3.2375632708	 2.8688833085	 0.119227
H	-1.9251571333	-1.6363362016	 1.9787074103	 0.131806
H	-2.8627038131	-2.6506258433	 0.1295180444	 0.249877
87.3517	95.6157	176.7188	254.6715	337.7998	413.2013	472.5478	579.1764	665.7856	720.4553	780.4967	808.8745	813.0341	854.1919	868.934	902.6588	936.5082	965.2597	972.7133	1006.4106	1024.4048	1049.8782	1077.3889	1109.8695	1134.2356	1158.7493	1210.6134	1269.0137	1275.1266	1308.1912	1329.7242	1350.2719	1374.5966	1419.9367	1508.0522	1657.8719	1748.9154	2990.0943	3116.5941	3121.3022	3207.6451	3220.5729	3245.3853	3492.6025	3513.6852
N=C1OC(C=C1)C1CN1	[NH]C1=C[CH][C@H](O1)[C@H]1CN1	
InChI=1S/C6H8N2O/c7-6-2-1-5(9-6)4-3-8-4/h1-2,4-5,7-8H,3H2	InChI=1S/C6H8N2O/c7-6-2-1-5(9-6)4-3-8-4/h1-2,4-5,7-8H,3H2/t4-,5+/m1/s1
