14
gdb 28000	4.07225	1.24692	0.95544	4.002	69.51	-0.1985	-0.0442	0.1544	1135.5118	0.102298	-470.06667	-470.059018	-470.058074	-470.098588	29.102	
N	 0.0316598233	 1.4006985753	-0.1064012122	-0.589157
C	-0.0540178784	 0.0250980296	-0.0474599255	 0.320499
C	-1.1471532509	-0.7859489572	-0.0028282907	-0.23317
N	-0.6183134911	-2.1017681788	-0.0350055546	-0.118873
C	-1.2639630836	-3.3033247999	-0.011559697	 0.179524
O	-0.6850720551	-4.3794566501	-0.0386649769	-0.352401
C	 0.777792668	-1.9470650618	-0.0912430867	 0.493876
O	 1.5773617959	-2.99672517	-0.1244064832	-0.40417
N	 1.1366829923	-0.7052267694	-0.0994495611	-0.388518
H	 0.9316859339	 1.7473153315	 0.1933066416	 0.261881
H	-0.7384575527	 1.9049013672	 0.3062975074	 0.251571
H	-2.2063987695	-0.6050524569	 0.0312733673	 0.127692
H	-2.3601857238	-3.2154015321	 0.0342049191	 0.12303
H	 1.0034246217	-3.7963410373	-0.1052211576	 0.328216
119.9473	232.3295	247.5033	261.4186	305.8869	343.7117	368.9017	490.0357	539.7465	553.9044	592.084	646.9535	704.4247	743.0872	754.2765	806.4532	858.0771	1015.7273	1025.4173	1101.0869	1201.5762	1237.1858	1282.3124	1388.2707	1397.4811	1438.7059	1496.2614	1624.4478	1678.5254	1686.9631	1769.9931	3024.9156	3291.403	3427.63	3570.6655	3676.3793
NC1=CN(C=O)C(O)=N1	Nc1cn(C=O)c(O)n1	
InChI=1S/C4H5N3O2/c5-3-1-7(2-8)4(9)6-3/h1-2H,5H2,(H,6,9)	InChI=1S/C4H5N3O2/c5-3-1-7(2-8)4(9)6-3/h1-2H,5H2,(H,6,9)
