19
gdb 95046	2.16681	1.95113	1.23402	4.1371	73.94	-0.2666	0.011	0.2776	1050.1232	0.161114	-423.080832	-423.073063	-423.072119	-423.113056	30.276	
C	-0.4471497875	 1.5009428404	 0.0197408473	-0.409853
C	-0.0069465669	 0.0376759148	-0.0037037735	 0.023666
C	 0.9414204802	-0.3398041031	-1.1644226556	-0.23297
C	 1.5819921574	-1.6701992579	-0.7213669788	-0.232634
C	 1.7597725228	-1.5167249276	 0.7839933966	 0.11531
O	 2.8830354928	-0.6230520316	 1.1219207676	-0.262542
C	 2.0337711276	 0.3543168444	 1.5765113292	 0.458274
O	 2.3281478588	 1.4136478796	 2.0318752867	-0.332943
C	 0.7596669584	-0.432786152	 1.254498309	-0.232206
H	 0.41056245	 2.1682199946	 0.1450966371	 0.142666
H	-0.9549165902	 1.7655414313	-0.9132782703	 0.114661
H	-1.1408190622	 1.6955964619	 0.8439551282	 0.118541
H	-0.8991935009	-0.5992320161	-0.0780848669	 0.079925
H	 0.4182040675	-0.4174185859	-2.1208341119	 0.102668
H	 1.7135677445	 0.4298992541	-1.2797987386	 0.121241
H	 0.8944524684	-2.5050454431	-0.90445347	 0.107011
H	 2.5245575062	-1.8994595602	-1.2250972009	 0.119741
H	 1.8475521597	-2.4439677503	 1.3507328604	 0.094806
H	 0.1268585533	-0.6318663834	 2.1199468642	 0.104639
107.0996	152.8161	200.7465	233.9942	306.3303	354.8114	439.08	494.5332	542.7714	610.9928	714.7366	791.6718	815.6407	846.6809	869.4824	900.3696	926.7507	963.4772	968.5339	994.7613	1029.6687	1065.2611	1106.4822	1124.9358	1146.865	1179.8478	1200.9786	1221.2895	1268.5935	1299.3247	1310.7729	1336.9602	1356.7361	1361.9737	1374.0273	1419.6435	1473.5096	1497.1499	1499.0914	1502.3339	1924.7877	3007.0991	3037.4368	3039.7402	3047.1855	3098.8667	3103.082	3105.9897	3109.2634	3116.7519	3119.8224
CC1CCC2OC(=O)C12	C[C@H]1CC[C@H]2OC(=O)[C@@H]12	
InChI=1S/C7H10O2/c1-4-2-3-5-6(4)7(8)9-5/h4-6H,2-3H2,1H3	InChI=1S/C7H10O2/c1-4-2-3-5-6(4)7(8)9-5/h4-6H,2-3H2,1H3/t4-,5+,6-/m0/s1
