21
gdb 109329	1.78578	1.55676	0.98115	2.6156	85.76	-0.2309	-0.0253	0.2056	1298.0088	0.181891	-387.12364	-387.114038	-387.113094	-387.159352	34.488	
C	-0.0696653127	 1.7051821581	-0.1402214949	-0.374426
C	 0.0612159389	 0.1773108392	-0.0031774321	-0.292944
C	 0.707437701	-0.4726807102	-1.1919439623	 0.321277
C	 1.9065773365	-1.0574121546	-1.2517779946	-0.176044
C	 2.2412173006	-1.6099645997	-2.6135825575	-0.24999
C	 1.1019083656	-1.0506485509	-3.5083104865	-0.24839
C	-0.0116688021	-0.5771461301	-2.5388344455	-0.156985
C	-1.1279956979	-1.596122542	-2.3846216334	 0.15932
O	-2.2860935683	-1.3270992175	-2.1933643999	-0.257012
H	 0.9119627539	 2.1726860279	-0.2658619229	 0.117693
H	-0.6861010797	 1.9789400274	-1.0018426845	 0.126104
H	-0.5390676503	 2.1320590954	 0.7511193629	 0.116885
H	 0.642077427	-0.0594187031	 0.8950653925	 0.102523
H	-0.9399927821	-0.2475562943	 0.1457953894	 0.121371
H	 2.5838184811	-1.1397767367	-0.4073475225	 0.091055
H	 3.2324903661	-1.2985863471	-2.9631782491	 0.106875
H	 2.2568824234	-2.7082703564	-2.6031902697	 0.109613
H	 1.4607748084	-0.1917327586	-4.0813773137	 0.114393
H	 0.7375895175	-1.7857470062	-4.2328303908	 0.10353
H	-0.4767877043	 0.3670142605	-2.8390833332	 0.092218
H	-0.7813823427	-2.6566020511	-2.4209993918	 0.072939
41.5889	58.6678	84.0648	159.6934	204.3197	237.1274	269.7269	334.9273	375.8332	442.4557	569.4489	628.8442	702.045	785.4507	807.123	855.0091	872.8935	908.8481	950.3346	964.3869	976.8338	1026.141	1059.8202	1067.2264	1087.5149	1104.5374	1170.2957	1184.281	1242.0678	1257.8682	1270.8958	1283.2454	1314.7163	1327.9189	1355.9329	1358.7409	1406.5841	1424.5055	1480.0904	1484.5774	1497.987	1502.4792	1506.2197	1712.963	1823.8837	2847.8012	3014.5136	3023.1451	3038.3758	3047.0873	3055.464	3065.2533	3066.0746	3099.5515	3110.3982	3112.2317	3180.6912
CCC1=CCCC1C=O	CCC1=CCC[C@H]1C=O	
InChI=1S/C8H12O/c1-2-7-4-3-5-8(7)6-9/h4,6,8H,2-3,5H2,1H3	InChI=1S/C8H12O/c1-2-7-4-3-5-8(7)6-9/h4,6,8H,2-3,5H2,1H3/t8-/m0/s1
