20
gdb 120691	3.23078	0.80496	0.72157	3.8328	77.36	-0.2427	-0.021	0.2216	1621.8832	0.168956	-440.27078	-440.260551	-440.259606	-440.307051	36.134	
C	 0.3450705233	 1.2814947169	-0.8352283971	-0.485994
C	 0.0488383793	 0.3146388928	 0.2972688959	 0.410371
O	 0.8433179067	 0.0988066215	 1.1841153104	-0.304408
C	-1.3099558103	-0.3298113983	 0.2461290956	-0.153946
N	-1.491801353	-1.606614929	 0.960652765	-0.30987
C	-2.1990584634	-0.4328514134	 1.4608829705	-0.017746
C	-1.8129095512	 0.0711563346	 2.8308105848	-0.223014
C	-2.4607214053	-0.7638465997	 3.9409720854	-0.055247
O	-2.1470388371	-0.280492849	 5.2365261557	-0.420744
H	 1.3149250079	 1.7531563978	-0.6755635048	 0.144347
H	 0.3484223414	 0.7497652527	-1.794251284	 0.141054
H	-0.4359945317	 2.0478800512	-0.9008296001	 0.13958
H	-1.8323687444	-0.2021477096	-0.700177912	 0.085049
H	-2.1100600785	-2.2093300075	 0.424213197	 0.237573
H	-3.263764487	-0.3614515866	 1.2329429422	 0.09031
H	-0.7245281069	 0.0287389872	 2.9281527153	 0.134294
H	-2.1227881349	 1.1169699151	 2.9446250695	 0.101014
H	-3.5536869618	-0.7165646645	 3.8667592068	 0.100825
H	-2.1697903471	-1.8182994143	 3.8199411542	 0.102848
H	-1.1943416962	-0.3578959381	 5.3517785697	 0.283703
50.3739	75.9037	99.2374	117.9178	140.4388	205.3327	246.4295	319.7372	349.3987	369.3107	425.1129	490.1501	606.6363	627.6205	773.1092	789.3503	849.8282	869.3733	935.7278	961.6909	1011.4051	1021.601	1049.9056	1058.3162	1077.2772	1123.1838	1158.4532	1186.1162	1195.0113	1241.9884	1264.3867	1297.6387	1326.1454	1377.722	1392.844	1423.4242	1428.3176	1462.0112	1469.5606	1475.5804	1485.4155	1516.3331	1807.8077	2992.2966	3031.7299	3041.0213	3056.1109	3088.3803	3090.7477	3111.312	3123.7124	3155.3893	3505.8211	3813.3333
CC(=O)C1NC1CCO	CC(=O)[C@H]1N[C@H]1CCO	
InChI=1S/C6H11NO2/c1-4(9)6-5(7-6)2-3-8/h5-8H,2-3H2,1H3	InChI=1S/C6H11NO2/c1-4(9)6-5(7-6)2-3-8/h5-8H,2-3H2,1H3/t5-,6+/m0/s1
