19
gdb 53450	4.47912	0.81176	0.72062	0.6179	81.96	-0.2319	0.0385	0.2705	1596.8819	0.159002	-422.995278	-422.986096	-422.985152	-423.031338	32.838	
C	 0.0038964773	 1.4656838927	-0.0217406676	-0.502314
C	 0.0079666067	 0.0106159145	-0.0042967333	 0.159549
C	-0.00045603	-1.1928742843	-0.0019308517	-0.004164
C	 0.0369678091	-2.6473757142	 0.0415160196	-0.073783
C	 0.6550427093	-3.1601643555	 1.3549565565	-0.088608
O	 0.6419933571	-4.5750648707	 1.3918872094	-0.250494
C	-0.6773728138	-5.0797719656	 1.2497682992	-0.078888
C	-1.2965805106	-4.5802624523	-0.0498402692	-0.072763
O	-1.2909014532	-3.1607694329	-0.0939127336	-0.263098
H	 0.5665624552	 1.8560856507	-0.8766958498	 0.150589
H	-1.0185210007	 1.8525332062	-0.0922199944	 0.154993
H	 0.4519852223	 1.8768662885	 0.8893825039	 0.149899
H	 0.6530060595	-3.0322014997	-0.7902015412	 0.094966
H	 1.6988150759	-2.8461661863	 1.4349860413	 0.116428
H	 0.0867117648	-2.7386729929	 2.1987387726	 0.100501
H	-0.6015867258	-6.1713145019	 1.2566315938	 0.108023
H	-1.3008299291	-4.7618490712	 2.1012984498	 0.095604
H	-0.7353124127	-4.9914080826	-0.9051397231	 0.094424
H	-2.3423189015	-4.8907751126	-0.1345093823	 0.109137
12.0604	82.1137	87.5643	202.3957	261.6137	294.882	330.6986	373.853	411.0411	451.1185	513.801	530.2942	586.7921	827.3892	859.464	889.0306	930.0314	1004.8069	1045.9779	1052.4858	1055.9548	1082.9347	1119.322	1138.1621	1144.7848	1182.5937	1248.1195	1285.921	1308.3752	1325.7976	1369.4525	1378.9394	1409.3596	1413.9048	1419.0969	1476.2288	1477.9857	1478.3039	1483.8454	1492.3909	2376.7603	2947.7913	2970.8781	2981.3196	2991.6639	3028.7474	3086.7636	3087.052	3090.0801	3091.8948	3102.1299
CC#CC1COCCO1	CC#C[C@H]1COCCO1	
InChI=1S/C7H10O2/c1-2-3-7-6-8-4-5-9-7/h7H,4-6H2,1H3	InChI=1S/C7H10O2/c1-2-3-7-6-8-4-5-9-7/h7H,4-6H2,1H3/t7-/m0/s1
