20
gdb 66613	2.8323	1.93771	1.84646	1.6791	80.09	-0.2219	0.0996	0.3215	893.8919	0.174618	-365.993738	-365.987204	-365.98626	-366.024127	28.287	
C	-0.0276981518	 1.4631176441	-0.0109498409	-0.50907
C	 0.0654116133	-0.0345048123	 0.0072029417	 0.354481
C	 0.6299141356	-0.851924222	-1.1021825391	-0.086671
C	 0.7640723472	-2.2160551117	-0.4109395501	-0.072482
C	 1.3390831133	-1.8557746341	 0.9702172101	-0.21866
C	 0.2147416062	-0.8546324595	 1.3275754868	-0.103298
C	-1.0267017136	-1.7747686249	 1.2516839672	-0.216206
C	-0.805847457	-2.1293883142	-0.216083244	 0.012314
N	-0.8548254633	-0.7857107099	-0.9160470754	-0.19131
H	 0.8917059295	 1.920702434	 0.3711624791	 0.114957
H	-0.1936648215	 1.8238832197	-1.0299975722	 0.129094
H	-0.8622456368	 1.8132607999	 0.606892126	 0.120755
H	 1.128468989	-0.4752015945	-1.9900851114	 0.081888
H	 1.1848387799	-3.0580520836	-0.9558492912	 0.068195
H	 1.3968941954	-2.6965690979	 1.6699321825	 0.09043
H	 2.3256526382	-1.3878803975	 0.8897472421	 0.094314
H	 0.3430483927	-0.2591873958	 2.2308962625	 0.060673
H	-0.9747435158	-2.6245726734	 1.9395087833	 0.093195
H	-1.9746050329	-1.2476659137	 1.3938533999	 0.105313
H	-1.4398793976	-2.8794311128	-0.685505187	 0.072088
196.5978	225.3515	284.5407	421.1566	462.9933	557.3162	579.6538	641.0702	689.9427	756.6208	810.4607	826.2666	866.028	881.0963	900.8993	905.6624	930.4423	940.6122	962.3067	979.7729	997.2038	1015.8234	1032.1626	1056.0285	1096.6189	1109.84	1133.6235	1175.273	1199.6691	1211.4634	1221.1069	1255.8259	1269.9991	1278.1314	1288.689	1311.7313	1329.7111	1400.553	1424.6826	1477.2678	1485.6747	1492.9198	1498.0091	3028.1837	3039.6791	3052.213	3088.7827	3091.2518	3105.9089	3111.6164	3122.9532	3129.8938	3141.102	3155.8575
CC12C3C4CC1CC4N23	C[C@@]12[C@H]3[C@H]4C[C@@H]1C[C@H]4N23	
InChI=1S/C8H11N/c1-8-4-2-5-6(3-4)9(8)7(5)8/h4-7H,2-3H2,1H3	InChI=1S/C8H11N/c1-8-4-2-5-6(3-4)9(8)7(5)8/h4-7H,2-3H2,1H3/t4-,5+,6-,7-,8+,9?/m1/s1
