23
gdb 103300	2.49436	1.31428	1.25555	1.8453	85.55	-0.2295	0.0842	0.3137	1203.1756	0.203618	-388.236466	-388.22672	-388.225776	-388.270582	37.662	
C	 0.0950283214	 1.5539849503	 0.1828246489	-0.378988
C	-0.2795122578	 0.1055845505	-0.1633589251	-0.272808
C	 0.5518685922	-0.4900137014	-1.3104073491	 0.32869
C	 0.0618811638	 0.0157824918	-2.6664595372	-0.472994
C	 2.1048912903	-0.6318852783	-1.1633866087	 0.005648
C	 1.9389747272	-1.7286016968	-0.0919679305	-0.280583
C	 0.9604822621	-2.0148645174	-1.265821722	 0.360203
C	 0.1377735415	-3.2329039905	-1.5522528953	-0.518147
O	 2.0874742607	-1.6987243816	-2.189326727	-0.346519
H	 1.1292124659	 1.6208456804	 0.537540599	 0.117502
H	-0.0017504476	 2.2183528414	-0.6813018534	 0.121265
H	-0.5523176006	 1.9457892582	 0.9734348421	 0.113312
H	-0.2027654195	-0.5018559659	 0.7427837066	 0.095508
H	-1.3367414817	 0.0675517513	-0.4551186977	 0.09522
H	 0.0804175429	 1.1099642574	-2.709357875	 0.111331
H	 0.6808753162	-0.3721637517	-3.474924351	 0.138668
H	-0.9755033949	-0.2945916323	-2.8390596868	 0.107811
H	 2.8807944143	 0.1294764304	-1.2567055477	 0.085246
H	 2.7767215549	-2.4249341263	-0.0391261045	 0.102383
H	 1.548497758	-1.4731344703	 0.8933110153	 0.094856
H	-0.6298605246	-3.3614373242	-0.7822890085	 0.125803
H	-0.3584131039	-3.1448352639	-2.5237255533	 0.132951
H	 0.7674578493	-4.1277742211	-1.5649409791	 0.133639
65.9727	134.1308	184.5147	189.8093	215.9029	223.66	278.1662	337.1476	359.3594	403.1093	465.8048	532.8106	601.2923	654.1494	685.8194	719.268	783.6849	796.9561	871.7637	902.8732	911.1561	957.155	1003.8416	1015.4314	1017.5932	1042.7415	1059.9925	1108.0326	1139.2711	1145.1044	1192.1179	1204.2691	1218.1829	1246.567	1264.1501	1318.7665	1347.5155	1368.0556	1397.5021	1409.9578	1413.0134	1476.9552	1479.6126	1487.7751	1494.9296	1499.3936	1502.6676	1510.8015	1522.2264	3026.9742	3033.5259	3035.5692	3037.4118	3068.6059	3084.4699	3086.6822	3101.4329	3107.1202	3108.9879	3110.6999	3112.7046	3150.9702	3151.9238
CCC1(C)C2CC1(C)O2	CC[C@@]1(C)[C@H]2C[C@]1(C)O2	
InChI=1S/C8H14O/c1-4-7(2)6-5-8(7,3)9-6/h6H,4-5H2,1-3H3	InChI=1S/C8H14O/c1-4-7(2)6-5-8(7,3)9-6/h6H,4-5H2,1-3H3/t6-,7+,8+/m1/s1
