18
gdb 9400	4.24488	0.97929	0.82709	2.0866	65.61	-0.2614	-0.0344	0.2271	1351.3997	0.150341	-422.071196	-422.061572	-422.060628	-422.106763	32.885	
C	 0.0575725738	 1.325461384	-0.2762107025	-0.404864
C	 0.0840639261	-0.1764708536	 0.0025591601	 0.046572
O	 0.7410030476	-0.5337568797	 1.2036887402	-0.276792
C	 2.1581692731	-0.4384680095	 1.1804929982	-0.077328
C	 2.663220659	-1.1352411723	 2.4344776003	-0.059339
O	 2.2794421564	-2.494376162	 2.464675682	-0.418791
C	-1.3216953371	-0.7621981505	 0.1070597424	 0.150728
O	-2.2604247313	-0.3881283963	-0.5433881595	-0.240374
H	 1.0509172472	 1.7048930668	-0.5274733995	 0.120972
H	-0.6163976329	 1.5201689174	-1.1136857749	 0.14746
H	-0.3137698298	 1.8632154027	 0.6009202531	 0.132383
H	 0.5636093702	-0.6977445433	-0.8480498325	 0.099897
H	 2.5525750334	-0.9435531861	 0.2847629917	 0.099304
H	 2.4889498376	 0.6103214714	 1.1632344339	 0.097367
H	 3.757503592	-1.1059406776	 2.4531911545	 0.112013
H	 2.2960317375	-0.5904192045	 3.3187891165	 0.096853
H	 1.3279590397	-2.5014264245	 2.3093875665	 0.286429
H	-1.3980234725	-1.5951968525	 0.8405082694	 0.087512
46.1662	65.94	83.1329	156.4081	181.5778	214.215	271.4003	305.2282	403.1562	419.4996	455.6855	497.4184	629.4201	823.754	863.1102	909.0191	917.9374	964.0848	1075.9656	1089.4726	1117.5762	1135.9609	1144.3822	1171.1641	1236.1976	1264.5499	1329.218	1338.6534	1384.1161	1387.8648	1403.3583	1418.8507	1439.2758	1488.5448	1494.759	1498.4743	1509.1963	1843.0448	2895.5833	2928.9369	2978.9144	2983.4564	3026.7277	3051.8801	3081.8285	3127.236	3138.2469	3801.4197
CC(OCCO)C=O	C[C@@H](OCCO)C=O	
InChI=1S/C5H10O3/c1-5(4-7)8-3-2-6/h4-6H,2-3H2,1H3	InChI=1S/C5H10O3/c1-5(4-7)8-3-2-6/h4-6H,2-3H2,1H3/t5-/m1/s1
