21
gdb 37083	2.11122	1.97391	1.30275	0.3235	86.87	-0.241	0.09	0.331	1069.7552	0.18286	-349.892925	-349.884985	-349.884041	-349.924955	32.691	
C	 0.0262313726	 1.4500248782	-0.1409358231	-0.294332
C	 1.3435041129	 0.7370245517	 0.014628434	-0.140623
C	 0.0259303461	-0.0469826566	 0.0226623491	-0.140638
C	 0.4200003327	-0.720730703	-1.2805108556	 0.323023
C	 0.2287640669	-2.1673427092	-1.6157722065	-0.340254
C	-0.4697944414	-1.0966345913	-2.4293626792	-0.327409
C	 1.7359179006	 0.0623609213	-1.2885698425	 0.323025
C	 2.4802607428	 0.6590026247	-2.4473983302	-0.327408
C	 3.0955300926	-0.461307384	-1.6333470359	-0.340262
H	-0.3027531328	 2.0118381982	 0.7281430564	 0.106774
H	-0.2448520529	 1.895827676	-1.0947206575	 0.109155
H	 2.0172961149	 0.9336318257	 0.840122179	 0.085484
H	-0.4608232022	-0.5409252884	 0.8552377278	 0.085484
H	 1.0520813099	-2.704973806	-2.0761206851	 0.109511
H	-0.370466684	-2.7715360509	-0.9415464052	 0.110586
H	-1.541914014	-0.9758183548	-2.3111257022	 0.110633
H	-0.1090214907	-0.9114976102	-3.4366261774	 0.10826
H	 2.136397286	 0.4248244425	-3.4503598785	 0.108261
H	 2.8864249229	 1.6595606035	-2.3381727063	 0.110634
H	 3.9184217242	-0.219216715	-0.9678024459	 0.110585
H	 3.1712696228	-1.4438086723	-2.0891693453	 0.10951
107.3936	198.3162	200.0358	245.1905	279.4067	347.4024	488.0465	506.004	572.5322	576.5287	757.7361	767.0393	781.8428	802.0215	874.4171	885.9415	890.3909	925.1347	930.4512	946.8205	971.5381	977.6078	997.5579	1038.7007	1039.8376	1057.9192	1058.2206	1063.5528	1072.4191	1074.3726	1085.4269	1181.0224	1183.2282	1189.6393	1190.1044	1251.6301	1266.6666	1311.3102	1374.6992	1421.0676	1458.3232	1467.547	1482.7419	1497.1049	1513.2288	3109.129	3117.4721	3119.1177	3121.804	3122.4986	3174.4006	3181.8419	3194.6401	3195.6645	3200.3958	3209.798	3211.4767
C1C2C1C1(CC1)C21CC1	C1[C@H]2[C@@H]1C1(CC1)C12CC1	
InChI=1S/C9H12/c1-2-8(1)6-5-7(6)9(8)3-4-9/h6-7H,1-5H2	InChI=1S/C9H12/c1-2-8(1)6-5-7(6)9(8)3-4-9/h6-7H,1-5H2/t6-,7+
