17
gdb 125442	4.73717	0.80177	0.72085	2.9064	71.11	-0.2675	-0.019	0.2485	1548.9501	0.135354	-455.156729	-455.147572	-455.146628	-455.192022	31.626	
C	-0.0780088766	 1.4310848275	-0.1407522954	-0.495527
C	-0.0912105018	-0.0495259803	-0.0152402577	 0.411462
N	-1.0663562368	-0.8743246684	-0.2536311861	-0.346072
C	-0.4966590732	-2.0986437913	 0.0392383215	 0.34276
C	-1.2302469751	-3.3894316733	-0.101861218	-0.323681
C	-1.5948924464	-3.6912835274	-1.5676890064	-0.063684
O	-2.3048683976	-4.9081590969	-1.6990307313	-0.412263
N	 0.7487255925	-2.0332802049	 0.4306206899	-0.174535
O	 1.0279789656	-0.658044287	 0.3977259262	-0.194258
H	 0.6918290017	 1.7507986239	-0.8494177498	 0.159425
H	-1.0531948427	 1.7709429791	-0.4884194848	 0.162778
H	 0.1461921464	 1.8973980934	 0.8233275091	 0.159439
H	-0.6206832404	-4.2017989525	 0.3002670281	 0.137761
H	-2.1534864852	-3.3325888735	 0.4885419499	 0.11523
H	-2.1505712039	-2.8425522569	-1.990462935	 0.112307
H	-0.6787063746	-3.8109818391	-2.1545454505	 0.124439
H	-3.1765937519	-4.7876737025	-1.3091753898	 0.284419
55.7607	72.244	89.2252	102.6308	230.2116	282.0083	304.125	357.095	385.0375	421.6623	654.2719	675.9295	736.294	791.5903	816.3382	918.1592	997.1076	1011.4226	1017.6318	1058.0358	1069.8958	1072.6614	1083.5815	1160.6494	1293.0768	1297.6101	1315.3878	1383.1998	1403.1905	1411.527	1416.3062	1473.045	1476.2191	1476.3361	1512.8488	1563.7792	1630.9625	3010.4974	3034.2709	3054.3658	3083.3623	3113.5772	3118.9361	3164.5172	3817.1351
CC1=NC(CCO)=NO1	Cc1nc(CCO)no1	
InChI=1S/C5H8N2O2/c1-4-6-5(2-3-8)7-9-4/h8H,2-3H2,1H3	InChI=1S/C5H8N2O2/c1-4-6-5(2-3-8)7-9-4/h8H,2-3H2,1H3
