19
gdb 82895	2.46952	1.96207	1.47435	1.3934	74.14	-0.2466	0.072	0.3187	949.8761	0.160819	-422.990466	-422.982996	-422.982052	-423.021755	30.914	
O	 0.0602208052	 1.4895946912	-0.0724898261	-0.445114
C	 0.0294770547	 0.084408031	 0.0257363959	 0.063085
C	 0.1344310805	-0.6333701147	 1.4097789282	-0.119553
C	-0.9256969638	 0.1275365242	 2.2315185987	-0.203593
C	-2.1117736585	-0.3289536541	 1.3598082447	-0.107469
C	-2.0897877138	-1.8666877878	 1.5751521925	-0.242383
C	-0.7704635217	-1.7882212492	 0.7926540947	-0.071135
C	-1.3381796014	-0.5828944845	-0.0206124336	 0.405887
O	-2.0770455689	-0.7775732902	-1.179382073	-0.491941
H	 0.9779023095	 1.7792955138	-0.0647876203	 0.284092
H	 0.6875377413	-0.389519399	-0.7159011382	 0.069904
H	 1.1017476563	-0.8491767695	 1.8605116976	 0.059265
H	-1.0123750253	-0.2109288605	 3.2679761088	 0.08703
H	-0.7523268687	 1.2050054923	 2.2146209471	 0.103896
H	-3.038784026	 0.2438234893	 1.3884519069	 0.057913
H	-2.0926678481	-2.2397637663	 2.6040564255	 0.085127
H	-2.8527651787	-2.3808248019	 0.9860001903	 0.10898
H	-0.2728532504	-2.6369476921	 0.3267425783	 0.070267
H	-2.4984338722	 0.0583876081	-1.407847118	 0.285743
195.6523	219.8982	262.4738	273.7329	290.811	355.2412	462.3257	512.1574	546.2007	608.6529	694.1104	726.4329	785.6438	827.3166	882.3893	905.8845	932.7263	946.4601	961.1495	980.0857	996.2341	1028.4243	1069.6526	1082.4634	1101.7108	1128.9121	1139.642	1175.2604	1190.1942	1213.0334	1231.389	1244.162	1256.0335	1276.4982	1289.8034	1310.3385	1335.3332	1375.0662	1448.3611	1483.9136	1504.9345	3012.6522	3047.9429	3059.1436	3110.8308	3113.4611	3120.1398	3123.8536	3134.9987	3800.6257	3816.9253
OC1C2CC3CC2C13O	O[C@H]1[C@H]2C[C@@H]3C[C@H]2[C@]13O	
InChI=1S/C7H10O2/c8-6-4-1-3-2-5(4)7(3,6)9/h3-6,8-9H,1-2H2	InChI=1S/C7H10O2/c8-6-4-1-3-2-5(4)7(3,6)9/h3-6,8-9H,1-2H2/t3-,4+,5-,6+,7+/m1/s1
