15
gdb 131188	3.34139	1.65549	1.25077	3.8369	71.95	-0.2111	-0.0024	0.2087	966.005	0.114726	-416.74519	-416.738465	-416.737521	-416.776183	26.686	
O	 0.1961887348	 1.3514282531	 0.0622092289	-0.435083
C	 0.0677019886	 0.0044439669	-0.0543533278	 0.171692
C	-0.2124104634	-0.816958529	-1.1283438681	 0.082971
C	 0.1534424045	-1.3324641616	-2.5068254759	-0.205285
C	 1.4628587908	-2.1008779975	-2.3720839662	-0.270223
C	 0.187673189	-2.7235177704	-1.8700037023	 0.001759
N	-0.2489203568	-2.0950477575	-0.6154951727	 0.051801
N	 0.086061783	-2.1799774143	 0.6872808861	-0.264676
C	 0.1776429706	-0.8975397168	 1.0487081951	-0.055931
H	 0.1264409541	 1.7490334985	-0.8109541184	 0.302709
H	-0.2754418671	-1.0513704255	-3.4583430888	 0.112438
H	 1.85972542	-2.5312489604	-3.2882443329	 0.124698
H	 2.2120450223	-1.7639915761	-1.6630644911	 0.14022
H	-0.2286858742	-3.6620902017	-2.2095709863	 0.123903
H	 0.3068430439	-0.6260494977	 2.0871945004	 0.119007
142.0712	213.5129	271.6297	308.1478	405.6147	490.2496	538.7675	637.5679	678.1136	693.0561	731.2887	800.2399	823.6691	867.1535	879.3873	930.153	978.8667	999.3243	1048.9667	1085.9448	1090.8137	1099.445	1164.8314	1221.4206	1232.1058	1262.6897	1284.5605	1297.1184	1367.0188	1406.8679	1466.5683	1476.0935	1632.0994	3120.0859	3208.7372	3209.4989	3220.2672	3238.3059	3836.5745
OC1=C2C3CC3N2N=C1	O[C]1[C]2[C@H]3C[C@H]3N2N=C1	
InChI=1S/C6H6N2O/c9-5-2-7-8-4-1-3(4)6(5)8/h2-4,9H,1H2	InChI=1S/C6H6N2O/c9-5-2-7-8-4-1-3(4)6(5)8/h2-4,9H,1H2/t3-,4+/m0/s1
