18
gdb 19406	2.99072	2.17687	1.62265	1.5903	71.49	-0.2485	0.0733	0.3217	857.596	0.15416	-347.755743	-347.748434	-347.74749	-347.786889	29.072	
O	 0.1869835723	 1.3575752436	-0.214233576	-0.431075
C	 0.031287211	-0.025587837	-0.0075710033	 0.056689
C	 0.3135686465	-0.6343965484	 1.3715464973	-0.080736
C	-0.7426053888	-0.2540901479	 2.3791189398	-0.298733
C	-1.0653870321	-1.3123652584	 1.3651155477	-0.13301
C	-1.3899734829	-0.6415274575	 0.0450814353	 0.349932
C	-2.6649120137	 0.0339609036	-0.3709429198	-0.325597
C	-2.1601797119	-1.1836561127	-1.1156431666	-0.353384
H	-0.2573280959	 1.8143133234	 0.5082466771	 0.279822
H	 0.6367737373	-0.5056866647	-0.7820644687	 0.093223
H	 1.2666489366	-1.0406427046	 1.6875801565	 0.087768
H	-0.5467575766	-0.5995802067	 3.3892393628	 0.11424
H	-1.2528091634	 0.706579074	 2.3376202138	 0.098367
H	-1.310182981	-2.3323310957	 1.6342535322	 0.089785
H	-3.5411011203	-0.0763735649	 0.2600330861	 0.10996
H	-2.5749541064	 0.9981471746	-0.8617435745	 0.117058
H	-1.7508622676	-1.0441654545	-2.1117523005	 0.114801
H	-2.6969202531	-2.1177955861	-0.9817742691	 0.110891
130.0716	198.0442	233.9273	254.4493	288.1962	425.0572	478.9914	575.9273	587.9133	726.6692	777.4648	793.8908	818.5228	889.6627	915.1235	935.319	946.6804	981.8408	999.3609	1020.4347	1047.1579	1061.7523	1067.277	1077.1341	1084.7339	1120.4651	1181.9382	1190.7351	1230.1122	1236.3934	1281.1995	1287.4752	1340.9197	1400.4079	1432.8746	1460.0767	1488.7905	1503.9047	3070.321	3099.251	3118.8458	3123.105	3181.5052	3186.2889	3197.6715	3199.6592	3213.658	3807.1536
OC1C2CC2C11CC1	O[C@H]1[C@H]2C[C@H]2C21CC2	
InChI=1S/C7H10O/c8-6-4-3-5(4)7(6)1-2-7/h4-6,8H,1-3H2	InChI=1S/C7H10O/c8-6-4-3-5(4)7(6)1-2-7/h4-6,8H,1-3H2/t4-,5+,6-/m0/s1
