18
gdb 86801	4.81836	0.82587	0.75264	2.6301	78.05	-0.2628	-0.0034	0.2594	1467.3225	0.148195	-401.973631	-401.964951	-401.964006	-402.007821	32.077	
O	 0.0649964656	 1.4696457921	 0.0624501012	-0.429624
C	 0.0700005978	 0.050123931	 0.0408402869	 0.109562
C	-1.3441570015	-0.5914153748	-0.0163099795	-0.276778
C	-1.2180874405	-1.8269289283	-0.9422835071	-0.032978
C	-2.4536118086	-2.028169858	-1.8513895899	-0.3518
C	-2.3380463298	-3.20663727	-2.7080738618	 0.263915
N	-2.2210778012	-4.1422305829	-3.3764987082	-0.310209
C	 0.0686322206	-1.5580388248	-1.6923517785	-0.071111
C	 0.7634206228	-0.5566020902	-1.1573780119	-0.128335
H	-0.2731317734	 1.7712271375	-0.7883933471	 0.274555
H	 0.5886477546	-0.2261389621	 0.9675199133	 0.101175
H	-1.7418738346	-0.8349542181	 0.9714280366	 0.112448
H	-2.0240496795	 0.1432408612	-0.4655439546	 0.098706
H	-1.1057146432	-2.7405616426	-0.3431684381	 0.107336
H	-3.3564657928	-2.130386585	-1.2385914877	 0.153936
H	-2.5961513334	-1.1462681156	-2.4868581893	 0.148672
H	 0.3756292183	-2.1648595547	-2.537509701	 0.122958
H	 1.7333854087	-0.2031779448	-1.4892749933	 0.107573
45.8441	77.3493	140.8157	218.8045	277.3069	342.3257	385.4122	397.8837	414.3177	496.234	574.7967	636.1997	745.4369	791.6303	841.1217	863.5763	905.2199	940.6172	989.4298	1014.0679	1022.1499	1051.8013	1086.4006	1113.4676	1148.0511	1171.5193	1211.8818	1253.265	1280.0373	1298.408	1323.0845	1332.3194	1355.445	1382.3583	1429.8602	1465.9815	1484.5273	1683.3719	2360.059	3013.0276	3029.2344	3035.6668	3041.7491	3081.6913	3106.2266	3185.3811	3210.0064	3794.6949
OC1CC(CC#N)C=C1	O[C@H]1C[C@@H](CC#N)C=C1	
InChI=1S/C7H9NO/c8-4-3-6-1-2-7(9)5-6/h1-2,6-7,9H,3,5H2	InChI=1S/C7H9NO/c8-4-3-6-1-2-7(9)5-6/h1-2,6-7,9H,3,5H2/t6-,7-/m1/s1
