19
gdb 72737	2.62836	1.68132	1.51928	1.0414	74.7	-0.2436	0.0655	0.3091	978.0493	0.159026	-422.967915	-422.96013	-422.959186	-422.999899	30.641	
C	-0.1165181307	 1.5459863468	 0.0066359731	-0.476596
C	 0.0779765514	 0.054192809	 0.0658425129	 0.410818
C	 0.9846282242	-0.6726947176	-0.9669074724	-0.296436
C	 1.6166626681	-1.4533631799	 0.2074081127	 0.087987
O	 2.7570843203	-0.7812189834	 0.8063500263	-0.300125
C	 1.9765508101	-0.3524914638	 1.9545178863	-0.188212
C	 0.7005182561	-0.7590815163	 1.2439572331	 0.20555
C	-0.7099324799	-1.2166958046	 1.5498268902	-0.199551
O	-1.1744332572	-0.6640828912	 0.2911584662	-0.33589
H	 0.8465218679	 2.0612546707	-0.0674634421	 0.124516
H	-0.7103921723	 1.8103272846	-0.8757069199	 0.132199
H	-0.6463178182	 1.9115481062	 0.8916653098	 0.120905
H	 0.4170942135	-1.2785064818	-1.6776983292	 0.11145
H	 1.699662662	-0.041201374	-1.5003569313	 0.110115
H	 1.770509023	-2.5340721871	 0.1290829738	 0.074121
H	 2.2194246819	-0.9470208481	 2.8467032497	 0.102484
H	 2.1171625556	 0.7107703666	 2.1831746337	 0.10763
H	-0.8855509815	-2.2963969269	 1.6236032215	 0.106675
H	-1.1855625843	-0.7180697993	 2.4063576857	 0.10236
107.1798	192.4469	209.9001	236.8224	332.9296	347.9013	387.3832	460.9023	501.3214	619.2735	712.2917	728.6898	814.1162	860.111	870.302	916.9606	959.832	963.1023	977.5703	997.6789	1007.9141	1092.261	1108.7645	1132.9696	1153.0543	1167.1693	1187.7161	1191.9599	1227.8562	1260.0388	1266.2132	1303.2601	1314.0937	1350.6774	1395.7135	1407.7266	1445.3158	1482.2148	1485.5489	1518.7393	1521.8383	2995.6856	2999.4749	3030.9085	3051.5268	3052.7415	3055.6753	3065.6641	3099.4565	3110.1417	3125.258
CC12CC3OCC13CO2	C[C@@]12C[C@H]3OC[C@@]13CO2	
InChI=1S/C7H10O2/c1-6-2-5-7(6,3-8-5)4-9-6/h5H,2-4H2,1H3	InChI=1S/C7H10O2/c1-6-2-5-7(6,3-8-5)4-9-6/h5H,2-4H2,1H3/t5-,6-,7+/m1/s1
