19
gdb 63859	2.3452	1.57487	1.26345	0.8656	82.53	-0.2304	0.0336	0.264	1091.7642	0.156081	-385.827696	-385.818587	-385.817643	-385.860748	35.527	
C	-0.0479771857	 1.5648306347	 0.0313705925	-0.439136
C	 0.0250357718	 0.0474588455	 0.0527363722	 0.363634
C	-1.2967773861	-0.6007709668	-0.3308734053	-0.431483
O	 1.0868997948	-0.4675023115	-0.827012083	-0.327838
C	 1.6598179261	-1.2073584198	 0.2388938364	 0.054117
C	 2.1804630922	-0.3107871272	 1.3055467494	-0.351673
C	 0.6888171493	-0.6423127899	 1.274587281	 0.062756
C	 0.0001457703	-1.2438194298	 2.360418056	 0.191578
C	-0.5970833866	-1.7393813596	 3.2813205311	-0.41986
H	 0.9018968348	 2.0224167915	 0.3154683361	 0.120857
H	-0.3037783788	 1.9120815008	-0.9748591398	 0.127343
H	-0.8227315175	 1.9150049366	 0.7208039427	 0.125944
H	-1.594542056	-0.2697450725	-1.330243223	 0.121836
H	-1.2063981084	-1.6894975294	-0.3356673789	 0.127351
H	-2.082643795	-0.3235916693	 0.3784954724	 0.124652
H	 1.9849568122	-2.2234369048	 0.0471354678	 0.115239
H	 2.7088684384	-0.7981961721	 2.1182483252	 0.130323
H	 2.5339971283	 0.6830101354	 1.0494252855	 0.119199
H	-1.1216847042	-2.1807650017	 4.0919092118	 0.185161
117.5746	139.2434	184.7362	221.8078	239.0441	282.5513	343.4704	361.5675	458.0484	481.0687	487.5378	546.5609	567.6899	610.4441	651.3533	660.6287	821.1322	838.9276	887.7975	900.4715	939.295	987.6991	1000.1401	1009.1843	1032.2493	1058.2656	1092.5785	1151.0775	1200.3427	1230.6864	1261.3364	1305.4424	1371.6611	1403.9058	1416.1062	1467.698	1474.8872	1481.0345	1494.5885	1502.7278	2229.4919	3040.076	3045.5456	3108.3495	3117.6621	3124.4326	3128.5121	3129.128	3182.3879	3220.8061	3502.8509
CC1(C)OC2CC12C#C	CC1(C)O[C@H]2C[C@@]12C#C	
InChI=1S/C8H10O/c1-4-8-5-6(8)9-7(8,2)3/h1,6H,5H2,2-3H3	InChI=1S/C8H10O/c1-4-8-5-6(8)9-7(8,2)3/h1,6H,5H2,2-3H3/t6-,8+/m0/s1
