19
gdb 100358	2.62726	1.15711	0.97628	1.6697	67.89	-0.2481	-0.0428	0.2053	1247.5225	0.156511	-497.297034	-497.286925	-497.285981	-497.332001	36.855	
O	 0.0667956197	 1.3680472907	 0.4113036059	-0.431139
C	 0.0500090848	-0.0096857888	 0.0456272403	-0.120975
C	-1.399531383	-0.5291568805	-0.0233309078	 0.315884
O	-2.1072973455	-0.0833125531	 1.1237472935	-0.476565
C	-2.1107709584	 0.0045325248	-1.2889621246	-0.114054
O	-1.6401301471	-0.5855147717	-2.4834018698	-0.432332
C	-1.3666399648	-2.0766670312	 0.0046344761	-0.305034
C	-2.7109527015	-2.7055961074	-0.2804739201	 0.142087
O	-3.1804170544	-2.7888222054	-1.3941560647	-0.252364
H	-0.0701197181	 1.8955006135	-0.381703307	 0.298276
H	 0.5536756674	-0.1855049728	-0.9120523922	 0.122352
H	 0.5958687539	-0.5349394634	 0.8357132497	 0.112287
H	-1.7425757802	 0.7905891909	 1.3253526027	 0.288827
H	-3.191268098	-0.1264761553	-1.1571820013	 0.112369
H	-1.9337116758	 1.0852098079	-1.3648547831	 0.080321
H	-2.0865271368	-1.4428210369	-2.5473255825	 0.296781
H	-0.6717371013	-2.4191316856	-0.7688006162	 0.136772
H	-1.0026974964	-2.3905467613	 0.9865179245	 0.119618
H	-3.2748367343	-3.0960124744	 0.5905533068	 0.10689
71.2419	112.1181	135.3304	165.1206	182.7654	238.5026	273.8314	305.8646	334.4024	360.9697	408.7022	495.8601	524.1433	549.2852	598.142	607.232	765.3895	885.8908	910.971	919.939	983.6539	1018.0884	1051.7754	1079.6614	1096.9095	1125.2252	1175.2602	1214.5165	1229.9709	1281.9297	1313.8667	1364.8799	1386.8872	1403.6832	1416.8719	1422.2687	1442.2826	1460.2408	1490.6498	1506.1741	1796.669	2932.9429	3020.4508	3035.2838	3054.8713	3062.5902	3093.7496	3116.5457	3715.2407	3733.2796	3828.3151
OCC(O)(CO)CC=O	OCC(O)(CO)CC=O	
InChI=1S/C5H10O4/c6-2-1-5(9,3-7)4-8/h2,7-9H,1,3-4H2	InChI=1S/C5H10O4/c6-2-1-5(9,3-7)4-8/h2,7-9H,1,3-4H2
