16
gdb 10018	2.89853	1.45691	0.97541	0.5708	75.78	-0.2369	-0.0148	0.222	1168.3825	0.130773	-376.108629	-376.100038	-376.099094	-376.141946	29.864	
C	-0.2526489276	 1.3126702052	 0.2785036796	-0.31421
N	-0.0152016791	-0.1026650821	 0.0824863463	-0.235682
C	-1.0176968704	-0.8713280634	 0.1227457948	 0.118735
N	-0.900204041	-2.2595645312	-0.0546567336	-0.119998
C	 0.3566301902	-2.8339104434	-0.2851737653	 0.097853
N	 0.4988276883	-4.0849346137	-0.4496533906	-0.465201
C	-2.0413795162	-3.0701320083	-0.0009646743	 0.097025
N	-3.1957365828	-2.5831317966	 0.2060784141	-0.463808
H	 0.1044769605	 1.8677399026	-0.5964580216	 0.130806
H	-1.3109313125	 1.5657195311	 0.4454740092	 0.10706
H	 0.3296613611	 1.6653797675	 1.1374007169	 0.130808
H	-2.0533517501	-0.5692115028	 0.2923931893	 0.145564
H	 1.1364298697	-2.0724203847	-0.2977899141	 0.146523
H	 1.4799747074	-4.3071381696	-0.603301066	 0.236071
H	-1.7843651117	-4.1177146289	-0.1568588414	 0.152476
H	-3.891487586	-3.3259523917	 0.2096808769	 0.235978
103.0625	133.8738	171.8355	177.2578	195.8403	229.2988	259.8232	393.8323	394.2682	441.3949	650.79	713.3502	818.7842	836.3182	900.2374	1008.7773	1040.4868	1086.4292	1090.3794	1143.9036	1146.4192	1156.5076	1199.1465	1322.3831	1359.6282	1409.9963	1415.658	1422.7849	1449.059	1480.4239	1503.3592	1712.7837	1726.5472	1759.2339	2983.5921	3064.7914	3079.4291	3113.9707	3139.3104	3141.6823	3512.4402	3513.7555
CN=CN(C=N)C=N	CN=CN(C=N)C=N	
InChI=1S/C4H8N4/c1-7-4-8(2-5)3-6/h2-6H,1H3	InChI=1S/C4H8N4/c1-7-4-8(2-5)3-6/h2-6H,1H3
