16
gdb 51387	3.29126	1.09687	1.02648	3.0349	69.78	-0.2515	-0.0421	0.2094	1181.7666	0.12278	-437.854574	-437.846427	-437.845482	-437.88857	29.464	
O	 1.6856113198	-0.4435261541	-0.490406376	-0.229679
C	 0.9644059414	 0.5198540278	-0.5020853221	 0.171595
C	 1.3771038115	 1.8904216016	 0.0042681354	-0.332906
C	 1.4459701169	 2.8855124782	-1.149240187	-0.00594
C	 2.4170405728	 4.0177768111	-1.2468870126	-0.188043
N	 2.4213306071	 2.8413584549	-2.2390766494	-0.129565
C	 3.727281365	 2.3565624076	-1.6543092929	-0.304107
C	 3.7692535032	 3.5946636736	-0.7394169545	 0.406061
O	 4.6113824045	 4.1265729166	-0.0775950733	-0.299096
H	-0.0670982021	 0.4611473768	-0.9172717731	 0.088814
H	 0.615666021	 2.25202997	 0.7072496145	 0.131535
H	 2.3182827123	 1.792095609	 0.5462560028	 0.143388
H	 0.4635765689	 3.1418887561	-1.5438686981	 0.118717
H	 2.1114469712	 5.0249854088	-1.5088373209	 0.125926
H	 3.7038839522	 1.3544443482	-1.2212878786	 0.154203
H	 4.5140095141	 2.4094793339	-2.4117391643	 0.149097
45.7753	72.9129	109.758	209.1203	316.574	377.7527	449.7945	484.7482	538.275	598.1294	649.4185	704.1534	793.9644	821.7982	887.5921	941.987	966.9401	989.3131	1027.2265	1049.0918	1066.6189	1100.2433	1124.6707	1167.3088	1217.4227	1244.9492	1252.1193	1289.8496	1313.5949	1422.5698	1427.4104	1462.9554	1487.0142	1832.7071	1894.7242	2880.1681	3038.7822	3072.9117	3115.8958	3130.5923	3136.3291	3181.0836
O=CCC1C2N1CC2=O	O=CC[C@H]1[C@@H]2N1CC2=O	
InChI=1S/C6H7NO2/c8-2-1-4-6-5(9)3-7(4)6/h2,4,6H,1,3H2	InChI=1S/C6H7NO2/c8-2-1-4-6-5(9)3-7(4)6/h2,4,6H,1,3H2/t4-,6-,7?/m0/s1
