18
gdb 14200	3.52756	2.26706	2.07765	1.2826	70.54	-0.2477	0.0788	0.3266	755.773	0.156084	-347.771617	-347.765394	-347.76445	-347.801399	26.508	
O	-0.1251981223	 1.36573699	-0.0412319267	-0.493
C	-0.0258598288	-0.0228591267	 0.0150817584	 0.410346
C	 0.431062337	-0.7938234226	 1.2891747317	-0.303111
C	-0.4036565316	-1.9220657357	 0.6667103459	-0.026157
C	 0.001023015	-2.1134469632	-0.8646854585	-0.035656
C	-1.4524349387	-1.7169541066	-1.2456456042	-0.238977
C	-1.3664802148	-0.8692940831	 0.0308875267	-0.057416
C	 0.743383497	-0.7804789515	-1.0922945947	-0.274708
H	 0.7624614554	 1.7312530359	-0.1226265109	 0.276781
H	 1.5043001706	-0.9300283308	 1.4625646462	 0.080858
H	-0.05117388	-0.4055664528	 2.191095352	 0.099571
H	-0.7550398603	-2.7940402491	 1.2146638061	 0.068236
H	 0.4628434833	-3.0304557393	-1.2302269307	 0.060227
H	-1.6152789963	-1.2337806353	-2.2147924585	 0.090277
H	-2.1609006616	-2.541329513	-1.1207762695	 0.094609
H	-2.2151977744	-0.4334965822	 0.556157099	 0.070437
H	 0.5743334144	-0.3700967325	-2.0921687873	 0.094619
H	 1.8206166362	-0.8222976814	-0.900203285	 0.083065
218.1325	268.7124	341.5851	431.2103	453.3539	478.8379	595.0422	649.3021	719.6351	804.4326	815.4836	846.1458	875.5111	889.9763	939.8821	956.7777	982.9007	988.193	1003.8689	1030.8991	1047.5238	1068.2403	1103.3566	1137.6091	1164.117	1186.294	1196.5008	1209.6118	1228.7313	1250.8787	1269.5389	1276.0409	1299.6169	1335.1408	1374.7789	1482.8719	1496.0398	1514.7612	3033.5806	3038.7775	3043.2593	3090.5172	3096.5029	3100.5473	3111.412	3126.7135	3138.119	3801.9443
OC12CC3C(CC13)C2	O[C@@]12C[C@@H]3[C@@H](C[C@H]13)C2	
InChI=1S/C7H10O/c8-7-2-4-1-6(7)5(4)3-7/h4-6,8H,1-3H2	InChI=1S/C7H10O/c8-7-2-4-1-6(7)5(4)3-7/h4-6,8H,1-3H2/t4-,5+,6-,7-/m0/s1
