19
gdb 41327	2.97303	1.9149	1.74947	1.3509	78.95	-0.2366	0.0089	0.2455	885.5612	0.162365	-385.845232	-385.838878	-385.837934	-385.875354	27.968	
C	-0.0204286532	 1.5563726492	 0.2429498447	-0.279707
C	 1.5182120099	 1.4947991739	-0.1170787028	-0.318315
C	 1.182149149	 0.2164130252	-0.9058164617	 0.428354
O	 0.5887943195	 0.6837081833	-2.1678980204	-0.313103
C	-0.6464271976	-0.0131539828	-2.3291517844	-0.077331
C	-0.7078234831	-0.9271720681	-1.0773937617	-0.163507
C	 0.484377696	-1.8886916635	-1.2556872717	-0.072495
C	 1.6380752926	-1.1993649949	-1.1648835437	-0.203419
C	-0.0516350687	 0.0157101368	-0.0363716176	 0.022933
H	-0.2758811969	 1.8578208778	 1.2603417347	 0.095422
H	-0.5791456587	 2.1639602751	-0.468248759	 0.121042
H	 1.9476301763	 2.3214133625	-0.6849993056	 0.110135
H	 2.12759376	 1.2930453569	 0.767481414	 0.106138
H	-1.4786313715	 0.7035805698	-2.3472781696	 0.094659
H	-0.6477273755	-0.5789574167	-3.2683519574	 0.097103
H	-1.6777653901	-1.3864151244	-0.8855007525	 0.065424
H	 0.3731954018	-2.9266739448	-1.5457042127	 0.097819
H	 2.6391177884	-1.5618163391	-1.3589107094	 0.104099
H	 0.179879902	-0.5259380962	 0.8816480868	 0.084747
260.1042	292.9093	348.2043	381.708	426.3009	534.9119	588.1799	677.9473	694.0238	712.0813	761.0983	794.5897	827.7421	853.1668	861.8115	893.6802	912.9903	932.6569	955.7566	1000.0934	1025.7869	1047.025	1056.2201	1094.9031	1109.832	1127.1675	1175.7133	1196.6409	1211.9478	1214.9393	1237.9034	1257.1484	1265.9447	1279.3554	1345.2311	1349.3217	1364.7982	1473.3083	1488.3149	1523.0572	1587.0483	3006.0309	3051.46	3070.3686	3084.2667	3099.1423	3115.2382	3130.2283	3152.2476	3196.5791	3222.8617
C1CC23OCC(C=C2)C13	C1C[C@@]23OC[C@@H](C=C2)[C@H]13	
InChI=1S/C8H10O/c1-3-8-4-2-7(8)6(1)5-9-8/h1,3,6-7H,2,4-5H2	InChI=1S/C8H10O/c1-3-8-4-2-7(8)6(1)5-9-8/h1,3,6-7H,2,4-5H2/t6-,7+,8+/m1/s1
