18
gdb 74548	3.38541	1.59193	1.37475	1.5833	83.66	-0.1952	-0.0233	0.1719	994.6168	0.148308	-364.726641	-364.719367	-364.718423	-364.757947	29.345	
C	 0.2512651596	 1.3854168625	-0.091899674	-0.496724
C	-0.0284510029	-0.0835987437	-0.0903587921	 0.32472
C	-0.2702463315	-0.8822422657	-1.148437137	-0.261952
C	-0.2177535186	-2.2696721355	-0.5708979375	 0.050592
C	 0.944239689	-2.9425564409	-0.5458432793	-0.107934
C	 1.4203270552	-3.0197620019	 0.9009999918	-0.175986
N	 0.4341281936	-2.2402423976	 1.6896741909	-0.142023
C	-0.1653511108	-0.8652645436	 1.2187298531	-0.106075
C	-0.7497205245	-2.1623643443	 0.8600224691	-0.091035
H	 1.2474319062	 1.5957902058	 0.317846277	 0.132747
H	 0.2033860105	 1.8013157744	-1.1018028452	 0.125745
H	-0.465076277	 1.9317503005	 0.5353662703	 0.128488
H	-0.2270046614	-0.6023561532	-2.1933327641	 0.106566
H	 1.6485374634	-2.9743061383	-1.3707830566	 0.098142
H	 1.4865891383	-4.0188712842	 1.356749282	 0.113103
H	 2.4234016748	-2.577202454	 0.9599949038	 0.118374
H	-0.46505536	-0.3144343372	 2.104156907	 0.096801
H	-1.7090929542	-2.5693454829	 1.1742119808	 0.08645
145.0266	173.884	248.2365	295.9712	324.1343	402.3238	508.5778	563.0938	643.0355	688.4375	736.8744	770.1907	808.9054	811.6272	842.7592	881.2827	892.7399	921.8806	990.8918	1004.841	1017.8473	1031.1034	1063.8704	1113.5525	1130.1476	1158.1196	1198.6811	1224.4869	1258.8918	1279.6817	1302.9959	1323.0983	1342.7827	1410.6143	1474.9665	1478.3189	1485.4271	1611.6943	1642.7729	2991.8646	3014.7193	3039.7514	3060.1806	3111.7156	3117.71	3168.8548	3179.3964	3211.8274
CC1=CC2=CCN3C1C23	CC1=C[C]2[CH]CN3[C@@H]1[C@@H]23	
InChI=1S/C8H9N/c1-5-4-6-2-3-9-7(5)8(6)9/h2,4,7-8H,3H2,1H3	InChI=1S/C8H9N/c1-5-4-6-2-3-9-7(5)8(6)9/h2,4,7-8H,3H2,1H3/t7-,8+,9?/m0/s1
