14
gdb 16852	4.19037	2.06313	1.54697	4.8697	63.87	-0.2595	-0.0477	0.2118	793.1692	0.108801	-382.567283	-382.561112	-382.560167	-382.597607	24.011	
O	-0.0096639492	 0.0872678847	-0.6930443751	-0.334524
C	 0.0171593544	 1.1287590271	-0.0911785854	 0.411172
O	-1.1619218286	 1.6465711327	 0.3746764536	-0.241447
C	-1.2048276215	 2.7774661495	 1.2063007245	 0.126007
C	-0.5854808302	 2.7680080399	 2.5634389056	-0.314233
C	 0.0423951979	 3.6002000084	 1.4386584858	-0.126561
C	 1.2535079245	 3.0828572813	 0.78532757	-0.050532
C	 1.2431293641	 1.9194439489	 0.1245030473	-0.21149
H	-2.1525528462	 3.2851620442	 1.0711774612	 0.121906
H	-1.0973012024	 3.298864671	 3.358152894	 0.129597
H	-0.0424497764	 1.8809069004	 2.8693878983	 0.138925
H	-0.0537388812	 4.6782199318	 1.5093344021	 0.10781
H	 2.1655324428	 3.6701284508	 0.8523494546	 0.118042
H	 2.1271179119	 1.5062269792	-0.3448624466	 0.125329
110.0801	216.5051	374.7261	406.9599	474.3505	522.7791	576.5875	712.5683	733.8165	797.5119	808.8722	830.8875	886.2736	907.041	989.9424	1019.7801	1027.003	1045.2923	1095.038	1122.2932	1144.9874	1183.2723	1230.4845	1246.3144	1373.1362	1407.139	1428.0368	1470.8678	1685.4042	1825.7386	3138.3732	3160.0078	3170.7124	3182.4837	3218.3721	3234.5743
O=C1OC2CC2C=C1	O=C1O[C@H]2C[C@H]2C=C1	
InChI=1S/C6H6O2/c7-6-2-1-4-3-5(4)8-6/h1-2,4-5H,3H2	InChI=1S/C6H6O2/c7-6-2-1-4-3-5(4)8-6/h1-2,4-5H,3H2/t4-,5+/m1/s1
