19
gdb 118398	3.09646	0.79334	0.66356	1.4345	78.29	-0.2519	-0.0266	0.2253	1655.5682	0.154967	-422.993607	-422.98277	-422.981826	-423.030937	37.217	
O	-0.0871138605	 1.4283323777	-0.0459103103	-0.421664
C	 0.0445199694	 0.0179715436	 0.0433579661	-0.090136
C	-1.3591508108	-0.5705175979	-0.0532991074	-0.19497
C	-1.3877754813	-2.1122959578	 0.0164565889	-0.072609
C	-2.8332867698	-2.6240063955	 0.2145286453	-0.387616
C	-2.9152544104	-4.0772071279	 0.3003376914	 0.282273
C	-2.9453468618	-5.2769775918	 0.3631054315	-0.418386
C	-0.7978812419	-2.6757803499	-1.2661752208	 0.175891
O	 0.3457413163	-3.0229103897	-1.40375012	-0.251188
H	 0.7941029163	 1.8129239984	-0.0378264215	 0.289112
H	 0.6809518118	-0.3800743477	-0.7599813924	 0.110017
H	 0.503423407	-0.2828857956	 0.9991396924	 0.091384
H	-1.9655688248	-0.1617739874	 0.7632336288	 0.114317
H	-1.8231656787	-0.2246329116	-0.986306021	 0.112625
H	-0.7593187081	-2.4572307493	 0.8442198096	 0.107485
H	-3.2478977537	-2.1712779454	 1.1228952596	 0.13951
H	-3.4596582448	-2.2675163065	-0.6148120838	 0.13578
H	-2.9819896047	-6.3367726093	 0.4190248514	 0.200779
H	-1.5148938196	-2.7058012765	-2.1214701778	 0.077397
49.6783	55.8321	78.7863	100.6307	112.6205	198.0983	257.6987	274.9657	318.5117	341.8056	351.5404	390.423	535.7823	583.0243	630.8812	648.2296	786.855	845.9669	932.3304	963.261	986.4228	1020.8016	1044.49	1086.7054	1095.581	1142.8347	1206.3716	1221.2443	1239.7389	1289.233	1309.5624	1342.1496	1346.9597	1359.0747	1426.7365	1467.5943	1469.0309	1493.8784	1529.318	1834.6955	2240.1759	2848.1186	2971.6369	3016.1056	3017.0514	3026.65	3054.1364	3063.8996	3076.1715	3506.3577	3833.1434
OCCC(CC#C)C=O	OCC[C@@H](CC#C)C=O	
InChI=1S/C7H10O2/c1-2-3-7(6-9)4-5-8/h1,6-8H,3-5H2	InChI=1S/C7H10O2/c1-2-3-7(6-9)4-5-8/h1,6-8H,3-5H2/t7-/m1/s1
