25
gdb 121353	2.84461	0.906	0.73769	1.5631	88.53	-0.2448	0.0761	0.3208	1649.1827	0.229465	-389.505615	-389.495351	-389.494407	-389.542428	37.778	
C	 0.2261968762	 1.57241145	-0.1459400759	-0.381422
C	 0.105017136	 0.0585545773	 0.0481899354	-0.173722
C	-1.342717122	-0.4424028843	-0.0519818449	-0.191263
C	-1.4732467668	-1.9626779872	 0.0729207268	 0.014316
C	-1.0557065744	-2.5418444898	 1.434598249	-0.092893
O	-1.6234220614	-3.8384036354	 1.4714779322	-0.24599
C	-2.9318104026	-3.7162872107	 0.9341151647	-0.083138
C	-2.9036496052	-2.5705070365	-0.1177008989	-0.033607
C	-4.0794303004	-1.6058359004	 0.0675468533	-0.402108
H	 1.2667605383	 1.9033740143	-0.0716299744	 0.111786
H	-0.1510060979	 1.8764623815	-1.1288307104	 0.113478
H	-0.3507579036	 2.1162876583	 0.6103805749	 0.113914
H	 0.7182929406	-0.4583051016	-0.7019927713	 0.09583
H	 0.5251568664	-0.216400028	 1.0239315777	 0.100912
H	-1.9463670784	 0.0516018601	 0.7206094387	 0.093954
H	-1.7598815599	-0.1188282497	-1.0148760976	 0.093286
H	-0.8211393323	-2.4215163496	-0.6806274903	 0.074972
H	 0.024166041	-2.6465590736	 1.5652071463	 0.106729
H	-1.4437947731	-1.914064701	 2.2581489951	 0.077861
H	-3.2124685894	-4.6872269297	 0.5157980708	 0.103812
H	-3.6499546114	-3.4713967295	 1.7345665703	 0.082877
H	-2.9719326256	-2.9948568486	-1.1242967447	 0.075807
H	-4.0687520029	-1.1377713861	 1.0579885057	 0.116433
H	-4.0786665496	-0.8090946756	-0.6819786922	 0.115649
H	-5.0287817317	-2.1444301643	-0.0268715304	 0.112526
15.6129	88.9206	98.3521	127.6702	232.8114	247.9839	267.3648	279.8945	312.4249	365.1037	393.6532	510.7896	631.2512	656.5255	745.8809	793.0981	853.196	895.7041	907.1439	938.4574	961.1895	976.9169	1019.6506	1042.9067	1068.5713	1074.8739	1098.3866	1119.8501	1156.7782	1162.6331	1176.9677	1232.8609	1263.3741	1269.828	1297.0892	1308.7184	1324.5429	1338.2626	1355.6218	1365.4547	1385.792	1396.11	1405.5407	1413.0196	1416.5723	1481.2778	1492.469	1498.587	1499.7904	1503.1507	1507.9881	1511.2002	1522.5738	2933.265	2961.6632	3009.0416	3015.3978	3019.937	3028.4906	3030.4432	3037.0951	3046.6142	3060.7945	3079.2837	3092.5301	3094.4614	3095.6384	3101.2673	3106.9829
CCCC1COCC1C	CCC[C@H]1COC[C@H]1C	
InChI=1S/C8H16O/c1-3-4-8-6-9-5-7(8)2/h7-8H,3-6H2,1-2H3	InChI=1S/C8H16O/c1-3-4-8-6-9-5-7(8)2/h7-8H,3-6H2,1-2H3/t7-,8+/m1/s1
