20
gdb 110444	2.87778	1.41249	1.14502	3.0608	78.17	-0.2351	0.0828	0.318	1133.8082	0.171825	-403.068756	-403.060701	-403.059757	-403.101218	31.903	
C	 0.0699318092	 1.6306921593	 0.0981032923	-0.424248
C	 0.1581169736	 0.1148034452	 0.0603531961	 0.072854
C	 0.7672704242	-0.6531044997	-1.1068516225	-0.12187
C	 2.2810537225	-0.7678726476	-0.8115648616	-0.096591
C	 1.2863752964	-1.6619130464	-0.1322476784	-0.027049
N	 1.1545095775	-0.5922397108	 0.9790899971	-0.208941
C	 2.5044814688	-0.0598657939	 0.5130879442	 0.010549
C	 3.5740302075	-0.6460446138	 1.4258863289	-0.06914
O	 3.3429861163	-0.2452962952	 2.7611610811	-0.424971
H	 0.9594916258	 2.1196424702	-0.3050379089	 0.125186
H	-0.787547737	 1.9634513735	-0.4962638109	 0.119435
H	-0.080845028	 1.9772966571	 1.1263384815	 0.129812
H	-0.8202541839	-0.3119309562	 0.3065889448	 0.083607
H	 0.3764094488	-0.8272128479	-2.102251325	 0.092516
H	 2.9842742868	-1.0213255383	-1.5956182706	 0.092312
H	 1.1671083966	-2.7280047046	-0.0072015398	 0.102522
H	 2.5782077451	 1.031540767	 0.5349909582	 0.074921
H	 3.5866009942	-1.7439065401	 1.3256460153	 0.081257
H	 4.5652352356	-0.2760432824	 1.1412215207	 0.100915
H	 2.4006760101	-0.4100376955	 2.9060655373	 0.286925
115.266	138.086	179.1949	246.5872	260.5791	326.9232	432.6512	519.8078	556.6471	568.3806	704.666	774.4908	796.565	807.7275	811.5545	863.7064	890.6813	904.1727	965.2663	1007.5215	1021.471	1035.6985	1039.4018	1042.3133	1083.9275	1101.5905	1112.7355	1144.8398	1152.6283	1176.243	1218.1943	1245.7176	1279.0243	1298.6654	1332.3675	1362.8761	1389.5627	1401.5494	1411.9339	1445.6952	1488.4048	1503.521	1508.3535	2970.208	3037.5624	3045.8806	3058.153	3072.5093	3101.646	3126.9444	3183.0929	3190.2652	3226.7454	3742.2053
CC1C2C3C2N1C3CO	C[C@H]1[C@H]2[C@@H]3[C@H]2N1[C@H]3CO	
InChI=1S/C7H11NO/c1-3-5-6-4(2-9)8(3)7(5)6/h3-7,9H,2H2,1H3	InChI=1S/C7H11NO/c1-3-5-6-4(2-9)8(3)7(5)6/h3-7,9H,2H2,1H3/t3-,4-,5-,6+,7-/m0/s1
