23
gdb 100300	1.66361	1.43426	1.09278	1.9924	77.76	-0.254	0.063	0.317	1301.2891	0.202257	-462.560149	-462.54861	-462.547666	-462.596425	42.486	
C	 0.1343945459	 1.5786710152	 0.166884278	-0.396012
C	-0.0610237378	 0.0732623777	-0.0314705851	-0.208749
C	 0.6317061776	-0.508604598	-1.2880670733	 0.379651
O	 2.0075062259	-0.1340206943	-1.3220981446	-0.490607
C	 0.5482063096	-2.0446176691	-1.2424972615	-0.12585
O	 1.3659222142	-2.4566782097	-0.1432966017	-0.438665
C	 0.0088776871	 0.0529912372	-2.5852175012	 0.099452
C	 0.7178783103	-0.3728827735	-3.8711969655	-0.422767
O	-1.3600717699	-0.3550369851	-2.5782758792	-0.445133
H	 1.1943412908	 1.8405640521	 0.1116241152	 0.125569
H	-0.3991093327	 2.1670522145	-0.5865257742	 0.112155
H	-0.2456818302	 1.8873872529	 1.1456783309	 0.104102
H	 0.3415596535	-0.4626356827	 0.8347285116	 0.102982
H	-1.1276480416	-0.1662473199	-0.0872427775	 0.108594
H	 2.447244869	-0.729568166	-0.701155143	 0.285249
H	-0.4916887118	-2.3657172678	-1.1121382719	 0.110077
H	 0.9325002616	-2.4699974448	-2.1772446062	 0.088388
H	 1.5097964511	-3.4041155711	-0.2087533442	 0.293987
H	 0.0769323506	 1.1484606129	-2.5139696315	 0.076509
H	 0.3055714805	 0.1767999352	-4.7255155091	 0.098655
H	 1.7851581474	-0.1534588775	-3.8049400201	 0.142749
H	 0.5849481966	-1.4405818219	-4.0686273944	 0.116017
H	-1.7731071176	-0.015817086	-3.3778414216	 0.283647
48.122	101.54	126.9289	199.1236	209.6906	219.8958	233.9097	244.1006	261.2436	275.5058	327.4354	349.9937	375.838	444.14	458.8982	486.5312	568.9773	596.7696	712.259	786.8365	886.51	927.7565	962.7558	1004.2392	1013.13	1055.8323	1066.1578	1087.9571	1119.8157	1152.466	1158.056	1179.7501	1225.5169	1268.2616	1283.8344	1308.3151	1362.728	1382.0137	1394.3269	1403.8082	1412.8921	1436.4858	1450.4331	1485.6977	1494.2635	1500.2346	1505.7502	1510.8368	1514.161	2993.7072	3021.3795	3034.8604	3040.1384	3047.4947	3067.797	3086.0252	3099.2559	3102.4328	3122.4335	3141.87	3764.2048	3827.7459	3849.4307
CCC(O)(CO)C(C)O	CC[C@@](O)(CO)[C@@H](C)O	
InChI=1S/C6H14O3/c1-3-6(9,4-7)5(2)8/h5,7-9H,3-4H2,1-2H3	InChI=1S/C6H14O3/c1-3-6(9,4-7)5(2)8/h5,7-9H,3-4H2,1-2H3/t5-,6-/m1/s1
