22
gdb 60231	3.10249	0.83843	0.78247	2.5617	83.92	-0.2414	-0.0228	0.2186	1589.8549	0.192523	-404.350662	-404.34057	-404.339626	-404.386568	36.847	
C	-0.3078770421	 1.5037145881	-0.0559391922	-0.385452
C	 0.0634789297	 0.0144298633	-0.0259571704	 0.040871
C	 0.8060843124	-0.3824261976	-1.3088708616	-0.391573
C	 0.9000804693	-0.3601081723	 1.2116838153	-0.168828
C	 0.1608723118	-0.2241373595	 2.5392584004	-0.112373
N	-0.9541363062	-1.1959328864	 2.7627920483	-0.323973
C	-0.4324317293	-1.6149840444	 4.0919443653	-0.285397
C	 0.8410883416	-0.8084017375	 3.790725875	 0.385868
O	 1.9212570812	-0.7052484776	 4.2889619396	-0.289049
H	 0.5913372458	 2.1310337674	-0.0862023198	 0.114148
H	-0.9048166083	 1.7387311131	-0.9432040829	 0.112887
H	-0.8927501316	 1.8055415422	 0.818957007	 0.10534
H	-0.8640180561	-0.5723530174	 0.0226741614	 0.083998
H	 1.7529356617	 0.1636559282	-1.39890973	 0.112517
H	 1.0367213427	-1.4526447542	-1.3211824889	 0.113383
H	 0.207992136	-0.1569714168	-2.1979978861	 0.109209
H	 1.2318072232	-1.4006448902	 1.114882379	 0.097218
H	 1.8052710062	 0.2604379665	 1.2567655873	 0.104719
H	-0.1232402308	 0.8230841187	 2.7230764322	 0.095179
H	-1.8692910877	-0.7642489242	 2.8065486543	 0.224247
H	-0.9719217549	-1.2234108687	 4.9656614913	 0.122728
H	-0.3070651847	-2.6963174208	 4.2152122057	 0.134332
44.1721	72.4616	108.5658	121.8037	216.2523	231.1175	248.492	328.9009	379.1891	396.3924	422.3439	509.0544	549.6686	654.0546	761.4012	801.1271	816.9671	878.9029	929.1936	949.6551	953.0427	968.5644	996.2476	1018.1103	1078.3599	1090.4442	1099.223	1147.8248	1168.8733	1191.1672	1219.7371	1249.4879	1271.6961	1319.6732	1353.5207	1367.4899	1370.3818	1389.3356	1402.4475	1423.7339	1469.2313	1474.9317	1487.0168	1495.9431	1505.9041	1509.667	1911.6089	2992.3232	3011.4714	3011.5333	3020.9119	3023.4233	3029.2168	3066.9736	3068.8724	3087.9118	3093.9001	3097.2862	3100.9885	3549.5852
CC(C)CC1NCC1=O	CC(C)C[C@H]1NCC1=O	
InChI=1S/C7H13NO/c1-5(2)3-6-7(9)4-8-6/h5-6,8H,3-4H2,1-2H3	InChI=1S/C7H13NO/c1-5(2)3-6-7(9)4-8-6/h5-6,8H,3-4H2,1-2H3/t6-/m1/s1
