13
gdb 27342	3.27227	1.37707	0.9692	6.0742	64.42	-0.2329	-0.0268	0.2061	1097.8135	0.0891	-493.740775	-493.733226	-493.732282	-493.77268	28.72	
O	 0.0450205035	 1.3369337999	 0.0079398437	-0.400646
C	-0.0243044149	 0.0009767008	 0.0009541641	 0.488296
C	-1.1822035687	-0.6936787734	 0.0036274532	-0.394422
C	-1.1886625837	-2.1443455953	-0.0044049855	 0.354768
O	-2.1890431522	-2.8417706534	-0.0024754917	-0.371848
C	 0.1815136682	-2.7328959508	-0.015239005	 0.172437
O	 0.2218510044	-4.0841880974	-0.0228509104	-0.40166
C	 1.2685134628	-1.9423613451	-0.0169852462	-0.086149
O	 1.1908705157	-0.5685320841	-0.0090172202	-0.231426
H	 0.9752611991	 1.5956047256	 0.0041890363	 0.3119
H	-2.1231328748	-0.1612100928	 0.0118848948	 0.129505
H	 1.1368312097	-4.3871146558	-0.0296289803	 0.300687
H	 2.298567841	-2.2734928582	-0.0245549627	 0.128556
119.1785	179.6014	311.7687	331.0597	344.3243	365.0557	378.8846	438.0622	443.6062	521.5898	612.8474	682.2496	732.3833	768.4066	791.5372	797.5178	858.8842	941.4202	1131.2725	1176.4732	1213.9125	1258.7934	1290.8499	1320.688	1439.6511	1452.5925	1669.8286	1720.0234	1755.2887	3217.6839	3234.8065	3801.9948	3808.2172
OC1=CC(=O)C(O)=CO1	Oc1cc(=O)c(O)co1	
InChI=1S/C5H4O4/c6-3-1-5(8)9-2-4(3)7/h1-2,7-8H	InChI=1S/C5H4O4/c6-3-1-5(8)9-2-4(3)7/h1-2,7-8H
