17
gdb 91849	3.44083	1.15894	0.99415	3.9531	73.67	-0.2642	0.0126	0.2768	1184.7761	0.137369	-418.00218	-417.994123	-417.993178	-418.034985	30.732	
O	-0.1371647554	 1.4638378637	 0.1675322349	-0.427423
C	 0.0202040517	 0.0643970488	 0.0691474682	 0.1371
C	 0.6615181129	-0.6098599344	 1.3157828076	-0.256786
C	 0.0209743925	-1.9878154158	 1.3853520887	-0.087891
N	-1.3155032281	-1.9817895424	 1.9913288527	-0.350373
C	-1.2063619291	-1.9808220373	 0.5102299659	 0.193484
C	-1.3680136987	-0.5908820604	-0.1008784403	-0.286968
C	-1.61007772	-3.1527841066	-0.2135516972	 0.196811
N	-1.9448137105	-4.0982499033	-0.7912604757	-0.34316
H	 0.732411564	 1.8736425255	 0.1273035936	 0.287369
H	 0.6308403848	-0.1923882865	-0.8107823237	 0.076865
H	 1.7502362473	-0.6707665514	 1.2330632306	 0.103032
H	 0.4108357663	-0.0308921445	 2.209452965	 0.128989
H	 0.6292260372	-2.8819305328	 1.4703639644	 0.115192
H	-1.5547145899	-2.9186233989	 2.312203457	 0.249567
H	-2.1119012806	-0.0198809567	 0.4607842524	 0.138976
H	-1.6761107843	-0.630592157	-1.146990464	 0.125215
70.7267	148.527	166.1461	267.79	338.6536	354.9624	425.5785	453.9986	469.1508	556.3826	595.0244	607.291	728.7437	808.5467	860.8326	880.9052	925.3372	967.0803	1000.8023	1037.4427	1074.507	1090.3197	1117.1306	1125.957	1189.6241	1219.0762	1255.736	1268.4191	1295.3115	1304.4173	1339.0198	1364.3083	1413.8617	1433.2318	1476.5228	1487.9248	2346.9222	2972.7523	3056.8096	3075.0629	3108.2848	3130.5379	3173.451	3490.4231	3824.4888
OC1CC2NC2(C1)C#N	O[C@H]1C[C@H]2N[C@]2(C1)C#N	
InChI=1S/C6H8N2O/c7-3-6-2-4(9)1-5(6)8-6/h4-5,8-9H,1-2H2	InChI=1S/C6H8N2O/c7-3-6-2-4(9)1-5(6)8-6/h4-5,8-9H,1-2H2/t4-,5+,6+/m0/s1
