19
gdb 106901	2.80284	1.29571	1.06881	3.6344	76.57	-0.2367	-0.011	0.2256	1188.5602	0.156997	-423.006147	-422.996889	-422.995945	-423.040316	33.901	
C	 0.1965111247	 1.3106956251	-0.2258874587	-0.259798
O	-0.1723112826	-0.0158178063	 0.122407607	-0.282636
C	 0.556513619	-0.5393729078	 1.1618514514	 0.445129
C	 1.9269835243	-1.0950896634	 0.9848500698	-0.346611
C	 0.7874107495	-2.0431402136	 1.3948702871	-0.281484
C	 0.4948481222	-1.8313180518	 2.8503269277	 0.428026
O	 0.3885258926	-2.5556854484	 3.7996659467	-0.3219
C	 0.2293283957	-0.3099424225	 2.658270715	-0.187097
C	 0.9744520203	 0.7080135247	 3.5121318654	-0.424641
H	 1.2593229621	 1.3725903727	-0.4962063727	 0.115188
H	-0.4122434346	 1.5913721569	-1.0876137333	 0.134188
H	-0.0000716806	 2.0142077647	 0.5944407484	 0.117991
H	 2.230807905	-1.2367697638	-0.0476024546	 0.130556
H	 2.7417261715	-0.8795571597	 1.6692610039	 0.124223
H	 0.5337697171	-2.8989305143	 0.7821729924	 0.118728
H	-0.8560504649	-0.1762784894	 2.7559528815	 0.111384
H	 2.0558229483	 0.6599180001	 3.351203059	 0.119595
H	 0.6475705082	 1.7307158059	 3.2989342254	 0.11969
H	 0.7881886422	 0.5105932611	 4.5725568186	 0.139471
71.1991	100.3702	171.9403	180.722	189.2083	235.9756	259.0887	350.6973	416.2461	484.3228	498.4698	588.2833	677.7774	705.1921	772.6314	841.1102	888.1285	932.9691	974.9808	989.3868	1047.6489	1060.8431	1088.5124	1090.2671	1111.6625	1138.2034	1179.4598	1182.7934	1219.474	1231.6657	1262.6189	1334.2388	1383.489	1406.3857	1476.0597	1488.5187	1493.7366	1496.2904	1502.9755	1506.2951	1882.922	2998.8871	3034.7009	3036.186	3055.4441	3103.3603	3108.4916	3122.7919	3128.7161	3200.8148	3211.7609
COC12CC1C(=O)C2C	CO[C@]12C[C@H]1C(=O)[C@H]2C	
InChI=1S/C7H10O2/c1-4-6(8)5-3-7(4,5)9-2/h4-5H,3H2,1-2H3	InChI=1S/C7H10O2/c1-4-6(8)5-3-7(4,5)9-2/h4-5H,3H2,1-2H3/t4-,5+,7+/m1/s1
