21
gdb 104510	1.91665	1.31753	1.02785	4.3051	83.21	-0.2389	0.0354	0.2743	1303.5658	0.181132	-383.261664	-383.251545	-383.2506	-383.297117	36.801	
C	 1.828448037	-1.0818518569	 0.9613944874	-0.390946
C	 0.5907913414	-0.4874106983	 0.2747419537	-0.261837
C	 0.7360103905	-0.3515699413	-1.2343774305	 0.33188
C	 1.859663495	 0.5774476715	-1.7098571376	-0.390564
C	 1.7330515354	 1.9312365293	-1.1689844569	 0.267925
N	 1.6206924398	 2.990735635	-0.7210834307	-0.318119
C	 0.3960646755	-1.5110576723	-2.1149794124	-0.300941
N	-0.4242933465	-0.3060807493	-2.1236752182	-0.110253
C	-1.7822688024	-0.3799624308	-1.6055016701	-0.321113
H	 2.0826143533	-2.0611335731	 0.5422861424	 0.118595
H	 2.7039196324	-0.4333911625	 0.8588035858	 0.126325
H	 1.6459439494	-1.2110655767	 2.0320729011	 0.122619
H	-0.273484402	-1.1189424326	 0.4965714818	 0.103127
H	 0.3752038649	 0.499302625	 0.7028886625	 0.12827
H	 2.8400463045	 0.179648287	-1.4252384611	 0.148197
H	 1.8290873015	 0.6337358415	-2.8013874003	 0.157133
H	 0.9605838988	-1.7187941189	-3.0216779265	 0.112246
H	-0.0034410279	-2.3970222714	-1.6209911479	 0.108591
H	-1.9375911506	-1.1403732328	-0.8256035201	 0.104257
H	-2.0703431778	 0.5955423276	-1.202428895	 0.135675
H	-2.4539955421	-0.6144263302	-2.4371124773	 0.128931
43.1105	85.791	130.4388	163.9853	218.7319	240.7008	248.7751	290.3642	364.4735	384.6559	402.4416	448.1621	513.0155	550.2681	720.4241	758.9528	810.7382	884.4445	902.9267	954.9957	971.2847	1003.5971	1038.0271	1075.2416	1094.5367	1121.9169	1150.1516	1172.3163	1205.801	1227.5213	1284.1342	1304.8132	1315.7004	1364.9996	1409.0912	1414.619	1451.2359	1455.8901	1482.6883	1492.5172	1501.1255	1503.8975	1509.8629	1519.006	2358.9788	2988.9748	3036.7651	3040.3592	3054.7569	3073.0478	3080.0768	3087.9735	3103.792	3109.0879	3109.891	3114.3743	3162.2967
CCC1(CC#N)CN1C	CC[C@@]1(CC#N)CN1C	
InChI=1S/C7H12N2/c1-3-7(4-5-8)6-9(7)2/h3-4,6H2,1-2H3	InChI=1S/C7H12N2/c1-3-7(4-5-8)6-9(7)2/h3-4,6H2,1-2H3/t7-,9?/m1/s1
