18
gdb 115086	2.36558	1.61154	1.17237	2.0605	75.12	-0.2184	-0.0087	0.2097	1098.0837	0.14852	-439.12014	-439.111558	-439.110614	-439.153603	31.729	
C	-0.0924668887	 1.3784380637	 0.1617753316	-0.241731
O	-0.0510255223	-0.0151016925	-0.0928754834	-0.252921
C	-1.32112485	-0.6527712676	-0.0831503514	 0.016798
C	-1.1596570091	-2.0110282955	-0.7698621449	-0.3013
C	-0.5082833097	-3.0253195761	 0.1297496917	-0.097447
C	-0.6254791243	-2.9203097605	 1.4523892885	 0.021574
N	-1.3227989005	-1.8632279755	 2.0508645654	-0.324897
C	-1.7845834643	-0.7565781957	 1.3811794881	 0.394023
O	-2.4299698461	 0.1146959164	 1.9332373969	-0.372764
H	 0.9368238867	 1.7379378989	 0.090992798	 0.124034
H	-0.7081457064	 1.8997458383	-0.5867449369	 0.106931
H	-0.4932891597	 1.6086566198	 1.1559689281	 0.134697
H	-2.0605664604	-0.0323117457	-0.6075367477	 0.087301
H	-2.1501145853	-2.3693493269	-1.0880596259	 0.117389
H	-0.5763097639	-1.8531223792	-1.6826108665	 0.121651
H	 0.0386243703	-3.855350599	-0.2987721372	 0.097532
H	-0.1998225698	-3.6318374051	 2.1493401571	 0.114684
H	-1.5162135666	-1.8820373379	 3.0410499285	 0.254446
74.003	116.2439	150.6295	182.518	248.4531	287.4855	389.4798	439.3871	458.1291	535.8271	582.9936	603.8323	725.8199	746.5309	804.8569	846.1808	923.6751	942.2128	982.6698	1029.546	1034.9336	1101.9862	1128.4405	1176.6668	1188.1415	1206.9864	1245.8952	1314.4871	1320.7964	1369.5983	1378.8383	1428.0871	1455.998	1466.4914	1478.1463	1485.313	1514.0605	1729.7903	1787.9659	2990.8634	2998.2625	3019.2556	3062.8161	3075.5603	3120.5283	3200.0754	3220.9532	3621.4557
COC1CC=CNC1=O	CO[C@H]1CC=CNC1=O	
InChI=1S/C6H9NO2/c1-9-5-3-2-4-7-6(5)8/h2,4-5H,3H2,1H3,(H,7,8)	InChI=1S/C6H9NO2/c1-9-5-3-2-4-7-6(5)8/h2,4-5H,3H2,1H3,(H,7,8)/t5-/m0/s1
