16
gdb 97323	4.80749	0.76817	0.66577	2.9157	74.34	-0.2537	-0.0549	0.1987	1643.2829	0.122289	-471.232746	-471.223023	-471.222078	-471.26834	33.762	
C	 0.0492749219	 1.350673086	-0.0369127402	-0.320124
N	 0.0202124252	-0.0945589891	-0.1451459202	-0.182829
C	-1.0905585045	-0.6569323243	-0.0152386083	 0.114465
O	-1.1370905176	-2.0323756589	-0.1134378104	-0.193286
C	-2.3382176989	-2.6300432019	 0.0126425157	 0.488001
O	-3.3846626631	-2.0563882019	 0.1957369247	-0.367542
C	-2.245148369	-4.1420653704	-0.09274781	 0.215373
N	-3.4955601447	-4.7014304492	-0.1202564885	-0.534153
N	-1.0989389662	-4.6974532478	-0.161074037	-0.481742
H	 0.7307772927	 1.6350539237	 0.7718808208	 0.138771
H	 0.4594631785	 1.7703537305	-0.9616208338	 0.138767
H	-0.9336726775	 1.8084040817	 0.1526157133	 0.106484
H	-2.0613236996	-0.1937911746	 0.1717694495	 0.134805
H	-4.264127539	-4.1034342232	 0.1412713881	 0.27405
H	-3.5910012718	-5.6873622888	 0.0549501652	 0.256837
H	-1.1835736065	-5.7150644719	-0.2164666187	 0.212123
52.6398	68.9824	97.8319	122.5468	213.9587	253.5602	318.7736	345.301	375.8762	400.8392	469.3244	488.7627	509.3433	618.9836	632.4412	816.6009	890.7795	895.1057	983.8264	1060.4428	1084.5883	1116.114	1129.6084	1140.8258	1177.2287	1250.7877	1367.6001	1428.7705	1447.2114	1480.3151	1500.5867	1609.4474	1728.0327	1777.4974	1804.3099	2985.0698	3073.2424	3091.7964	3115.9391	3447.0306	3589.2574	3717.44
CN=COC(=O)C(N)=N	CN=COC(=O)C(=N)N	
InChI=1S/C4H7N3O2/c1-7-2-9-4(8)3(5)6/h2H,1H3,(H3,5,6)	InChI=1S/C4H7N3O2/c1-7-2-9-4(8)3(5)6/h2H,1H3,(H3,5,6)
