20
gdb 61572	3.64902	0.84464	0.71882	5.0737	74.96	-0.2487	0.0188	0.2674	1559.6746	0.171161	-440.30673	-440.297265	-440.296321	-440.342002	34.8	
N	-0.1251503208	 1.1534947313	-0.2477412279	-0.536316
H	 0.8882248981	 1.1424794118	-0.2335375501	 0.25153
H	-0.396795725	 1.834066243	-0.9523805716	 0.242569
H	-1.5350095037	-0.1075273395	-0.2035742673	 0.305386
C	-0.6658388134	 1.5404267093	 1.0677135294	-0.144806
C	-0.6621054355	 3.0419590723	 1.3914909344	-0.208452
C	 0.7273138002	 3.6239002646	 1.5384885576	 0.023202
C	 1.4876144386	 4.1620622025	 0.3467864468	-0.266901
C	 0.9555059219	 5.1057279049	 1.396490268	-0.276791
C	-2.0794535409	 0.9355005592	 1.2268479468	 0.438703
O	-2.8644466432	 1.298556714	 2.0621168001	-0.340827
O	-2.3340800145	-0.0582422718	 0.3666428767	-0.371108
H	-0.0558103459	 1.0223320621	 1.8206838874	 0.120405
H	-1.2095855734	 3.5794142476	 0.6043168609	 0.092346
H	-1.2377915097	 3.1805287177	 2.3118224447	 0.138378
H	 1.3338473771	 3.1300034859	 2.2952905197	 0.083716
H	 2.5588149447	 4.0002729383	 0.2937506521	 0.112971
H	 0.9925985451	 4.1585432237	-0.619304174	 0.102797
H	 0.1030341514	 5.7242562904	 1.1352531398	 0.116804
H	 1.6619639089	 5.5855002427	 2.0643138867	 0.116395
58.6117	63.7293	93.5909	143.6032	241.5436	279.666	329.7377	346.8796	376.3405	437.7945	530.0746	611.2588	728.382	778.7896	803.6608	823.6848	853.3993	857.3256	884.8228	914.5754	941.7942	973.5695	1050.6495	1069.2353	1079.4752	1098.1204	1131.8886	1141.342	1198.8047	1202.3282	1221.7843	1229.2265	1261.5787	1299.1113	1348.9322	1397.4776	1419.4821	1427.8351	1469.0982	1480.7407	1508.4493	1659.3567	1865.5253	3010.9861	3026.7078	3088.0816	3123.5395	3126.2384	3135.1562	3204.8386	3221.9995	3473.4795	3500.1255	3586.3551
[NH3+]C(CC1CC1)C([O-])=O	N[C@@H](CC1CC1)C(=O)O	
InChI=1S/C6H11NO2/c7-5(6(8)9)3-4-1-2-4/h4-5H,1-3,7H2,(H,8,9)	InChI=1S/C6H11NO2/c7-5(6(8)9)3-4-1-2-4/h4-5H,1-3,7H2,(H,8,9)/t5-/m0/s1
