18
gdb 53828	3.08541	0.99951	0.88604	1.3671	73.78	-0.2359	-0.0793	0.1566	1376.2323	0.144549	-439.075847	-439.066059	-439.065115	-439.112554	33.703	
C	-0.7508678972	 1.3112524826	 0.3874146063	-0.480386
C	-0.36242395	-0.1450422601	 0.3546087687	 0.317079
O	 0.4669710311	-0.6488537988	 1.074718183	-0.276801
C	-1.0584195401	-1.0090436097	-0.725258952	 0.291378
O	-1.5783695639	-0.4831983215	-1.6807425496	-0.281678
C	-1.050337537	-2.5131161468	-0.4925200524	-0.238682
N	-2.125123253	-2.787773944	 0.459219572	-0.080676
C	-3.4332141029	-3.0925443068	-0.1166638277	-0.218067
C	-2.6069139154	-4.1644034527	 0.5061615738	-0.217123
H	-0.1077519712	 1.852216125	 1.0816809865	 0.142011
H	-0.6952055581	 1.7382776572	-0.6173577748	 0.161182
H	-1.7966650108	 1.4013581518	 0.7040619704	 0.153544
H	-1.1778818686	-3.0218282186	-1.4606365478	 0.101088
H	-0.1017828779	-2.8071307996	-0.0359245201	 0.139794
H	-4.2867662971	-2.6788537705	 0.4119294689	 0.12232
H	-3.5244423192	-3.095270977	-1.2009116298	 0.124681
H	-2.1434868423	-4.8873480679	-0.1626674507	 0.115623
H	-2.8455953464	-4.5447456925	 1.4949304751	 0.124713
30.3902	48.9922	69.5479	123.3204	134.2312	231.0209	301.8797	346.0938	412.1202	421.866	536.0776	546.0712	663.2182	729.2744	777.1641	837.0855	896.1083	920.5378	1007.4994	1016.8388	1030.7444	1051.4413	1104.7067	1120.3349	1123.5765	1171.5546	1177.3584	1248.6925	1287.085	1317.0201	1360.8712	1381.1283	1455.8442	1462.3391	1473.1576	1492.7433	1521.6174	1806.5615	1810.1411	2985.0155	3045.4343	3100.6354	3104.4089	3107.0569	3112.6611	3164.0317	3185.0221	3199.3287
CC(=O)C(=O)CN1CC1	CC(=O)C(=O)CN1CC1	
InChI=1S/C6H9NO2/c1-5(8)6(9)4-7-2-3-7/h2-4H2,1H3	InChI=1S/C6H9NO2/c1-5(8)6(9)4-7-2-3-7/h2-4H2,1H3
