16
gdb 123799	5.5671	0.97156	0.85952	2.1094	71.3	-0.2241	-0.0164	0.2077	1301.7379	0.126781	-430.211384	-430.203686	-430.202742	-430.244629	28.292	
C	-0.3572842363	 1.1449998019	-0.1828383153	-0.233453
C	 1.0956662427	 1.082515974	 0.2152762303	-0.293683
C	 0.3110537614	-0.1868402127	 0.023177374	 0.048297
N	-0.0120248911	-0.9364175372	 1.2030386194	-0.378712
C	-1.0997209112	-1.7678433484	 1.2177664238	 0.491033
N	-1.281519826	-2.7234051398	 2.1311197829	-0.322361
N	-2.4685228456	-3.1978257706	 1.7445935545	-0.067844
N	-2.9898081966	-2.6101801033	 0.6896678771	-0.104343
N	-2.1297126234	-1.687671562	 0.3283355233	-0.271621
H	-1.0714626388	 1.4542963118	 0.5701382118	 0.127133
H	-0.6113654728	 1.4275636287	-1.1974979919	 0.121059
H	 1.8535352238	 1.3257227891	-0.5204044177	 0.117994
H	 1.3467453313	 1.3588558251	 1.233314371	 0.118458
H	 0.517569814	-0.772440003	-0.871601711	 0.097124
H	 0.7703278051	-1.2862355381	 1.736527923	 0.252781
H	-2.9323647867	-3.9538997655	 2.2239379148	 0.298137
57.0332	74.1897	131.808	311.1679	342.7161	377.5836	474.2681	528.9767	560.6907	718.4009	761.2979	781.5099	783.4661	848.3988	856.8532	972.1574	1011.5601	1028.8656	1061.1866	1077.8199	1079.4709	1128.711	1160.5313	1180.5855	1192.9573	1199.5254	1254.1318	1268.4106	1347.3763	1402.2629	1449.7783	1461.0419	1499.4105	1516.0486	1622.3197	3106.2081	3139.6302	3151.6679	3223.908	3243.2971	3605.1091	3657.9
C1CC1NC1=NNN=N1	C1CC1Nc1n[nH]nn1	
InChI=1S/C4H7N5/c1-2-3(1)5-4-6-8-9-7-4/h3H,1-2H2,(H2,5,6,7,8,9)	InChI=1S/C4H7N5/c1-2-3(1)5-4-6-8-9-7-4/h3H,1-2H2,(H2,5,6,7,8,9)
