20
gdb 35254	2.89355	1.07542	0.88283	4.0994	84.16	-0.2802	0.0315	0.3118	1361.2127	0.171933	-366.008572	-365.999879	-365.998935	-366.042907	32.48	
N	-0.1076211506	-1.2182677615	 0.2786024487	-0.348296
C	-0.0836492815	-0.0646123953	 0.1875784563	 0.288898
C	-0.0515920535	 1.3657306923	 0.0695596738	-0.177232
C	 0.5176596933	 2.2016143416	 1.207503284	-0.300462
C	 1.284502648	 2.09449699	-0.0767875026	-0.023087
C	 2.5807659986	 1.3377657639	-0.1527174671	 0.04441
C	 3.1296782946	 0.9115833305	-1.545651744	-0.234456
C	 4.5571173677	 1.2565850465	-1.0422257619	-0.210047
C	 3.9120340866	 2.1116283306	 0.0819119409	-0.238417
H	-0.8974076262	 1.7788534937	-0.4692961173	 0.132088
H	-0.0017715456	 3.1233380718	 1.4427441689	 0.128395
H	 0.895785522	 1.6607624014	 2.0677935826	 0.139414
H	 1.2311010287	 2.9593060425	-0.7342536473	 0.095692
H	 2.5372366579	 0.465182811	 0.5074026093	 0.089565
H	 2.9277425101	-0.1092003569	-1.8764256906	 0.113018
H	 2.8014332896	 1.6040075676	-2.3282048702	 0.096583
H	 5.0659077499	 0.3769253069	-0.6383722213	 0.108019
H	 5.2331172343	 1.7596396356	-1.7368259955	 0.09849
H	 3.8173376011	 3.1614097615	-0.2156362333	 0.097656
H	 4.3528820049	 2.0734591662	 1.0808969866	 0.099769
43.8385	87.8955	132.0455	168.3915	234.675	307.9321	366.2955	421.0246	558.5363	593.1113	651.5709	751.3144	774.6526	787.4429	837.2246	885.7492	908.521	932.3256	952.3766	959.4011	984.165	1008.0103	1051.883	1078.5955	1099.8823	1121.769	1141.5847	1193.9521	1203.6064	1223.9357	1255.382	1256.153	1259.0582	1277.9848	1286.2973	1327.8879	1372.5332	1436.3381	1477.5448	1485.6003	1487.4716	1510.0729	2349.5588	3046.3463	3047.7002	3056.4628	3062.4675	3100.9313	3108.9238	3122.1424	3136.3918	3142.3818	3170.2719	3232.4197
N#CC1CC1C1CCC1	N#C[C@H]1C[C@H]1C1CCC1	
InChI=1S/C8H11N/c9-5-7-4-8(7)6-2-1-3-6/h6-8H,1-4H2	InChI=1S/C8H11N/c9-5-7-4-8(7)6-2-1-3-6/h6-8H,1-4H2/t7-,8+/m1/s1
