22
gdb 57566	3.18962	0.74649	0.71199	3.2267	80.01	-0.2449	0.0361	0.281	1688.8932	0.191501	-441.520322	-441.509215	-441.508271	-441.557736	39.92	
C	-0.4058708084	 1.530185849	 0.0358938768	-0.416755
C	 0.0223039771	 0.0563957855	-0.0301077476	 0.340203
C	 1.0989677487	-0.234009492	 1.0254126778	-0.411986
O	-1.1130920005	-0.793156746	 0.1965121254	-0.463685
C	 0.5419212358	-0.3380407913	-1.4233978796	-0.177234
C	-0.4811241299	-0.1623377966	-2.5548853428	-0.182364
N	-0.0039800173	-0.6912894201	-3.8254047998	-0.268475
C	 0.6486627108	 0.0713094177	-4.7398465649	 0.151228
O	 0.8684189007	 1.2601236514	-4.6293759742	-0.329216
H	 0.4212908945	 2.1980279808	-0.224447732	 0.12486
H	-1.2382705107	 1.7295858924	-0.6430490964	 0.127941
H	-0.7312508123	 1.7859012768	 1.0513167049	 0.101616
H	 0.7294776636	 0.0068650221	 2.0292831594	 0.101354
H	 1.3731831498	-1.2926585744	 1.00878229	 0.119897
H	 2.0002930907	 0.3627967174	 0.851811478	 0.11741
H	-1.4952469	-0.5534839334	 1.047236573	 0.275926
H	 1.4373700892	 0.2474082528	-1.6568223896	 0.114232
H	 0.8444033504	-1.3914011048	-1.3815036731	 0.092071
H	-1.4151378541	-0.6632341234	-2.2896330557	 0.12615
H	-0.6920439681	 0.8954701465	-2.7228404943	 0.140139
H	-0.0762424218	-1.6811416906	-3.9984486346	 0.246576
H	 0.9557968519	-0.5202440397	-5.6260650107	 0.070114
25.1487	47.7711	100.9536	146.9885	212.4599	231.2807	263.7599	276.8425	288.031	336.2798	354.7987	372.6346	426.4134	469.4805	523.4952	534.2056	726.6876	775.009	816.6851	915.8052	931.656	944.7718	978.3472	1000.0109	1030.9829	1057.0156	1063.0086	1159.6504	1185.1843	1196.4192	1227.0287	1272.0395	1327.1218	1344.3126	1379.2796	1398.5552	1408.5475	1419.0675	1430.1796	1468.5626	1481.5683	1485.7162	1488.9868	1501.4533	1509.7215	1533.565	1803.1635	2927.6744	3025.4727	3029.7818	3035.7751	3076.0675	3083.6745	3091.4143	3098.7714	3115.1869	3124.6996	3134.8409	3635.599	3809.5355
CC(C)(O)CCNC=O	CC(C)(O)CCNC=O	
InChI=1S/C6H13NO2/c1-6(2,9)3-4-7-5-8/h5,9H,3-4H2,1-2H3,(H,7,8)	InChI=1S/C6H13NO2/c1-6(2,9)3-4-7-5-8/h5,9H,3-4H2,1-2H3,(H,7,8)
