19
gdb 113514	2.64358	1.17601	1.07981	2.4757	78.63	-0.2312	-0.0166	0.2145	1229.4393	0.157267	-423.009592	-423.000438	-422.999494	-423.044037	33.272	
C	 0.3484941879	 1.1131176801	-0.1229653708	-0.239431
O	-0.3199546047	-0.0188044398	 0.406673403	-0.226773
C	 0.4276321911	-0.696436772	 1.3528915275	 0.078893
C	-0.0076055546	-2.0644818595	 1.7120879674	-0.386789
C	 1.2647668923	-1.9009480893	 0.902342857	 0.196676
C	 1.5902056138	-2.3384218324	-0.5335763479	-0.324707
C	 3.0855721816	-2.5269459958	-0.1095535705	-0.341952
C	 2.676142652	-2.147543905	 1.3316255842	 0.339018
O	 3.255285195	-2.072124339	 2.3809894966	-0.320547
H	 1.2853653138	 0.8369221201	-0.6256340418	 0.112692
H	-0.3268111536	 1.5717744975	-0.848033287	 0.133834
H	 0.5793354056	 1.8445884401	 0.6649454159	 0.116905
H	 0.8777091805	-0.0729697641	 2.1269162012	 0.106415
H	 0.0963758384	-2.3887231059	 2.7421498037	 0.13679
H	-0.8635448676	-2.4599301504	 1.1751128358	 0.134009
H	 1.1001602279	-3.265294007	-0.8405107341	 0.112199
H	 1.414541625	-1.5820394143	-1.3008966717	 0.113085
H	 3.487786848	-3.5389440086	-0.206431707	 0.130789
H	 3.7949828777	-1.8286014547	-0.5625118416	 0.128894
74.6595	89.9664	119.0402	143.8089	200.0499	242.1061	283.0666	403.0687	460.7529	514.4413	557.4175	613.6246	732.285	748.1402	778.5411	840.4317	888.9358	923.1634	1003.125	1035.83	1057.2207	1061.4454	1074.5759	1100.2915	1135.2586	1172.2294	1178.779	1183.654	1205.8548	1228.2634	1248.9835	1260.2634	1327.4726	1401.8132	1440.338	1461.7364	1485.9724	1491.7568	1494.9852	1510.8834	1869.0187	2992.8346	3046.5368	3062.9587	3071.6378	3096.5654	3109.2889	3125.0358	3128.1667	3130.7018	3225.1989
COC1CC11CCC1=O	CO[C@H]1C[C@]21CCC2=O	
InChI=1S/C7H10O2/c1-9-6-4-7(6)3-2-5(7)8/h6H,2-4H2,1H3	InChI=1S/C7H10O2/c1-9-6-4-7(6)3-2-5(7)8/h6H,2-4H2,1H3/t6-,7+/m0/s1
