17
gdb 125796	3.17016	1.53832	1.06105	3.7202	75.47	-0.1991	0.001	0.2001	1109.9662	0.138341	-417.995805	-417.988165	-417.987221	-418.028015	28.874	
C	 0.0211318778	 1.5084622322	-0.0115384238	-0.505841
C	 0.0501757142	 0.0162023948	 0.0530942066	 0.264537
N	 0.1881974201	-0.6898501623	-1.0587922561	-0.21368
O	 0.1631921998	-2.0465548035	-0.6933483328	-0.231132
C	 0.0425070524	-2.0929723844	 0.6371238626	 0.36475
C	-0.0425597503	-0.8565702892	 1.1705114757	 0.116555
N	-0.3193571036	-0.8774685419	 2.554221338	-0.418008
C	-0.042621142	-2.2983394496	 2.9507216331	-0.167915
C	-0.1697635712	-3.1677828712	 1.6505737106	-0.352175
H	 0.8499159425	 1.9464736255	 0.555599091	 0.130998
H	 0.0981462507	 1.8389069103	-1.0490101846	 0.152369
H	-0.9092774261	 1.8988969217	 0.4144454304	 0.139791
H	 0.2320121002	-0.2266599493	 3.1012410095	 0.232371
H	 0.9777357879	-2.3949161573	 3.3441311468	 0.110025
H	-0.7392719814	-2.6155614252	 3.7300351122	 0.118166
H	-1.1673847382	-3.6162206169	 1.5596741814	 0.131265
H	 0.5600977673	-3.9817602337	 1.6302674793	 0.127924
128.3593	146.3906	156.986	235.0471	274.6511	359.8804	480.5365	570.3996	615.1554	625.1863	680.6032	707.9951	777.5866	832.6503	865.5804	920.5214	939.5899	1005.0611	1027.7584	1065.0073	1072.0875	1087.6256	1175.8302	1220.0957	1248.9228	1285.887	1336.2757	1358.3391	1404.7	1416.8438	1461.7306	1482.1953	1488.1432	1509.5939	1513.449	1540.5898	1682.779	3015.1642	3024.3888	3037.2835	3083.1134	3090.9738	3098.8554	3139.0094	3535.9909
CC1=NOC2=C1NCC2	Cc1noc2c1NCC2	
InChI=1S/C6H8N2O/c1-4-6-5(9-8-4)2-3-7-6/h7H,2-3H2,1H3	InChI=1S/C6H8N2O/c1-4-6-5(9-8-4)2-3-7-6/h7H,2-3H2,1H3
