14
gdb 124234	5.05653	1.02631	0.85769	3.5278	65.56	-0.2821	-0.0552	0.2269	1264.4259	0.099901	-469.964177	-469.956231	-469.955286	-469.997994	28.064	
C	-0.1298463343	 1.3414728506	-0.126995709	-0.448277
C	 0.1089571392	-0.1327896412	-0.0175700866	 0.389948
N	 1.2392078507	-0.6735348761	 0.0031176073	-0.481013
O	-1.1532237837	-0.7664981426	 0.0548131846	-0.280442
C	-1.3057723212	-2.0900184484	 0.1597547515	 0.430989
N	-0.3726281905	-3.0048221171	 0.2127868276	-0.171672
O	-1.0500167081	-4.1972442117	 0.3174021373	-0.16311
N	-2.4007951394	-4.0065759778	 0.3283712128	-0.048496
C	-2.5832341383	-2.7233947758	 0.2325565168	-0.111063
H	 0.8288306907	 1.8541812373	-0.1844060941	 0.159097
H	-0.7243331914	 1.5665203711	-1.0178073784	 0.146989
H	-0.6917175615	 1.7022936576	 0.7400117349	 0.146985
H	 1.2123544827	-1.6888521209	 0.0819697614	 0.266894
H	-3.565650465	-2.2799215448	 0.216848294	 0.163171
38.6491	79.7496	153.571	180.1023	348.6037	355.3645	377.4948	542.8459	565.5868	623.6055	720.5456	744.2907	871.0208	883.5111	906.4974	925.8935	926.5423	1005.9061	1031.235	1073.6814	1077.9966	1093.0476	1213.5313	1284.6948	1407.5381	1433.6557	1474.116	1476.4741	1506.5006	1619.1123	1785.0263	3052.8763	3111.5365	3174.3051	3280.9725	3505.5321
CC(=N)OC1=NON=C1	C[C]([NH])Oc1nonc1	
InChI=1S/C4H5N3O2/c1-3(5)8-4-2-6-9-7-4/h2,5H,1H3	InChI=1S/C4H5N3O2/c1-3(5)8-4-2-6-9-7-4/h2,5H,1H3
