19
gdb 40007	3.26902	1.62895	1.54443	1.3618	79.19	-0.2213	0.0094	0.2307	953.0494	0.161429	-385.870587	-385.863789	-385.862845	-385.901382	29.027	
C	-0.0011233881	 1.4991247033	 0.0356137065	-0.347748
C	 1.3085395712	 0.7173390353	 0.0190066271	-0.350672
C	-0.0097897505	 0.0082109981	-0.0478587746	 0.513173
O	-0.4258656922	-0.7310411366	 1.0914170939	-0.326392
C	-1.0992366878	-1.9108992201	 0.5550739143	 0.061991
C	-0.2362893737	-2.2286086023	-0.6772417477	-0.229404
C	-0.4922795972	-0.8106662306	-1.2598189132	-0.170828
C	-2.0142659971	-0.7598925717	-1.1963905861	-0.075411
C	-2.3872936752	-1.4304645728	-0.1010472317	-0.079453
H	-0.3043097908	 1.9394146071	 0.978950894	 0.121553
H	-0.2696512805	 2.0776059032	-0.8427191674	 0.107707
H	 1.9268108916	 0.7620771907	-0.8721688748	 0.107863
H	 1.8573451131	 0.6461684078	 0.9514696708	 0.121247
H	-1.1718117062	-2.6435845477	 1.3565068348	 0.074613
H	 0.8093449039	-2.4218970625	-0.4235996723	 0.10413
H	-0.6401110584	-3.0258163866	-1.3025632556	 0.100643
H	-0.020426102	-0.545823883	-2.2050441828	 0.067867
H	-2.638551243	-0.1792357287	-1.8633390794	 0.09943
H	-3.3775520273	-1.515316513	 0.3265755142	 0.099689
131.1165	252.2212	283.947	402.5817	438.9758	505.3226	533.4418	567.0535	709.562	757.6774	764.1128	813.9687	825.2504	865.3637	886.2934	899.7404	922.4112	923.9843	940.9632	968.4158	972.4508	986.6192	993.3434	1036.0416	1052.8421	1068.1895	1119.028	1127.3395	1174.2872	1186.2369	1215.024	1254.1381	1272.2612	1283.4355	1329.0659	1351.6699	1371.7995	1451.711	1487.091	1500.9463	1635.7532	3069.7343	3125.1569	3126.3378	3129.155	3137.2404	3141.7051	3203.3664	3210.5492	3224.5987	3229.5434
C1CC11OC2CC1C=C2	C1CC21O[C@@H]1C[C@H]2C=C1	
InChI=1S/C8H10O/c1-2-7-5-6(1)8(9-7)3-4-8/h1-2,6-7H,3-5H2	InChI=1S/C8H10O/c1-2-7-5-6(1)8(9-7)3-4-8/h1-2,6-7H,3-5H2/t6-,7+/m1/s1
