20
gdb 57576	2.73488	1.31942	1.10545	2.5956	74.19	-0.2407	0.0736	0.3143	1172.0254	0.169969	-440.233726	-440.224577	-440.223633	-440.267545	34.719	
C	-0.1240995581	 1.5162128194	 0.1565322004	-0.406934
C	 0.0227895036	 0.0024767621	-0.0189724248	 0.27377
O	 0.7601007283	-0.4877995536	 1.0921669158	-0.475558
C	-1.3624984184	-0.6517653623	-0.0793135673	 0.009987
C	-1.5679107102	-2.0642951256	 0.3146874299	-0.251692
N	-2.0653225863	-0.967239669	 1.1679670919	-0.333988
C	 0.7841078545	-0.3186009608	-1.3051992345	 0.060008
C	 2.2459304655	-0.2445893494	-1.3751468415	-0.191968
O	 1.5750151678	-1.5124701398	-1.2502974612	-0.255567
H	 0.8583477604	 1.9888627073	 0.2326991152	 0.120593
H	-0.6624994349	 1.9564163336	-0.6886322389	 0.116354
H	-0.6878826106	 1.7327713272	 1.0678412767	 0.136955
H	 1.199117172	-1.293595163	 0.7802189387	 0.295305
H	-2.0057173757	-0.234767634	-0.8532968762	 0.083933
H	-2.3367696239	-2.6565147013	-0.1728597444	 0.116641
H	-0.7100432432	-2.6327410073	 0.6616294067	 0.10791
H	-1.3990149582	-0.8446277834	 1.9301741951	 0.238888
H	 0.2136029803	-0.2018111289	-2.2265856104	 0.100351
H	 2.7346484878	-0.0778415893	-2.3326085647	 0.124655
H	 2.8040614894	 0.0647572079	-0.4949991164	 0.130356
74.2879	105.2906	174.0541	210.9114	243.3646	254.5746	304.8335	379.5896	400.8198	401.8371	568.0805	575.6741	617.5856	731.2043	810.3177	860.5909	870.2448	908.1182	940.4473	948.8735	977.0357	993.6998	1016.1495	1087.3096	1103.5857	1115.4506	1151.3116	1158.9449	1171.4802	1181.8201	1186.0625	1246.4195	1284.858	1287.4171	1315.5787	1368.2609	1409.0626	1411.4341	1436.7429	1486.1974	1493.0148	1509.4463	1517.0396	3044.3619	3101.5741	3108.9577	3115.0869	3116.0606	3120.8182	3127.7068	3195.9638	3198.8354	3474.6365	3714.5459
CC(O)(C1CN1)C1CO1	C[C@@](O)([C@H]1CN1)[C@H]1CO1	
InChI=1S/C6H11NO2/c1-6(8,4-2-7-4)5-3-9-5/h4-5,7-8H,2-3H2,1H3	InChI=1S/C6H11NO2/c1-6(8,4-2-7-4)5-3-9-5/h4-5,7-8H,2-3H2,1H3/t4-,5-,6-/m1/s1
