17
gdb 80089	2.3511	1.73699	1.40872	3.7014	73.61	-0.2313	-0.0159	0.2155	981.0394	0.136682	-421.84085	-421.833214	-421.832269	-421.872847	30.037	
O	 0.1308883978	 1.3225825246	-0.1545810303	-0.416627
C	-0.0330275633	-0.0499387895	-0.0324942161	 0.103241
C	-0.4570928876	-0.6810155593	 1.270977078	-0.153868
C	-0.7986125393	 0.2245785782	 2.39188973	-0.075577
C	-1.7593556505	 1.1510612095	 2.3129685687	-0.095865
C	-2.6455791871	 1.316492197	 1.1050894356	-0.379193
C	-2.6554634125	 0.1187543504	 0.1578029434	 0.430729
O	-3.6463116544	-0.1654301323	-0.4800055216	-0.335325
C	-1.4135338444	-0.6937380985	 0.0658202524	-0.198015
H	 0.1053766014	 1.7046555441	 0.7331318884	 0.291878
H	 0.6794655241	-0.5994563525	-0.6412950009	 0.118834
H	 0.0116544041	-1.6229351476	 1.5349175468	 0.105673
H	-0.1966206746	 0.1395870988	 3.2920984135	 0.102803
H	-1.9361213715	 1.8216115322	 3.1495682163	 0.105905
H	-3.680986131	 1.5281923405	 1.3867725586	 0.135824
H	-2.3067646914	 2.1791746313	 0.510052775	 0.148765
H	-1.5481696298	-1.627361447	-0.4678163579	 0.110817
93.4636	166.9131	204.0334	316.1699	343.2647	420.0203	443.0627	486.2572	540.9532	589.0231	645.6638	710.4415	752.7401	769.9592	825.7304	896.1868	935.2498	953.8735	962.8678	995.594	1019.4558	1036.6918	1096.3092	1120.0599	1181.9709	1196.9233	1214.6031	1248.2059	1325.7261	1339.4463	1360.1628	1366.1926	1416.5423	1423.2073	1441.4489	1702.3994	1792.2412	2999.9421	3089.2195	3148.1427	3156.1024	3166.1354	3179.8652	3185.9747	3738.1294
OC1C2C=CCC(=O)C12	O[C@H]1[C@H]2C=CCC(=O)[C@@H]12	
InChI=1S/C7H8O2/c8-5-3-1-2-4-6(5)7(4)9/h1-2,4,6-7,9H,3H2	InChI=1S/C7H8O2/c8-5-3-1-2-4-6(5)7(4)9/h1-2,4,6-7,9H,3H2/t4-,6-,7-/m0/s1
