17
gdb 91788	2.50598	1.71739	1.21569	1.3127	68.81	-0.245	-0.0352	0.2098	1035.4816	0.134049	-458.963376	-458.954853	-458.953909	-458.996466	32.062	
C	-0.5925280151	 1.388294592	 0.1477854389	-0.404599
C	 0.0844593169	 0.0321413733	-0.0297044546	 0.024003
O	 0.8424305742	-0.0382413917	-1.2425637086	-0.277328
C	 2.1870001486	-0.3656956629	-0.9705798837	 0.021842
C	 2.9806550271	 0.6857486463	-0.2534808583	-0.370395
C	 2.4076075119	-0.5000340084	 0.518809251	 0.31427
O	 3.2527761002	-1.3891483222	 1.1545206013	-0.470867
C	 1.0474904971	-0.3435333371	 1.0975508459	 0.295764
O	 0.7591484741	-0.6215473506	 2.2389199952	-0.349815
H	 0.14208134	 2.1965961824	 0.1990631449	 0.12684
H	-1.2621701112	 1.5850890148	-0.6929920576	 0.136129
H	-1.177216975	 1.3861050376	 1.0721517317	 0.140955
H	-0.6827622553	-0.754263846	-0.0615942554	 0.122503
H	 2.6392301157	-1.0228338858	-1.7041838038	 0.124111
H	 4.0600420865	 0.6312089944	-0.3525730254	 0.139776
H	 2.5685970503	 1.6823705447	-0.1396576285	 0.12792
H	 2.8554974541	-1.5437306507	 2.024773467	 0.298891
72.842	127.5403	210.4663	218.6271	275.6809	298.7692	352.5918	394.0583	439.3098	485.698	595.8024	612.3338	635.7078	795.0029	823.9584	876.585	901.4899	918.615	978.1095	1002.0997	1032.8768	1067.8385	1089.6637	1100.0476	1126.1756	1160.9202	1208.6541	1286.4799	1329.0546	1343.7134	1390.0613	1402.5548	1420.2632	1478.8486	1486.5564	1495.8439	1820.0691	3011.1964	3047.8747	3125.2825	3130.1369	3131.2236	3187.2862	3227.5935	3725.3795
CC1OC2CC2(O)C1=O	C[C@H]1O[C@H]2C[C@@]2(O)C1=O	
InChI=1S/C6H8O3/c1-3-5(7)6(8)2-4(6)9-3/h3-4,8H,2H2,1H3	InChI=1S/C6H8O3/c1-3-5(7)6(8)2-4(6)9-3/h3-4,8H,2H2,1H3/t3-,4+,6+/m1/s1
