20
gdb 17881	3.63336	1.92964	1.72639	0.2211	78.89	-0.2282	0.0242	0.2524	873.5472	0.179782	-311.87082	-311.863926	-311.862982	-311.901264	28.599	
C	-0.0957912578	 1.518220203	 0.0231791743	-0.426532
C	 0.021911028	-0.0015536995	 0.0099573756	 0.055443
C	 0.8358520034	-0.5981339346	-1.184036843	-0.016335
C	 2.108781463	-0.4447708272	-0.301161464	-0.226239
C	 1.147973816	-0.6110445659	 0.9168074421	-0.055998
C	 0.86241764	-2.0898301687	 1.0785267287	-0.066543
C	 0.5500825322	-2.7914168834	-0.0122047201	-0.059656
C	 0.4928995143	-2.090268376	-1.3530882535	-0.26195
H	 0.8685596058	 2.0137219803	-0.1264653225	 0.114317
H	-0.768516077	 1.8612004725	-0.7713773577	 0.112079
H	-0.5035620592	 1.870642017	 0.9772021669	 0.11225
H	-0.9664959532	-0.4472591789	 0.1646203291	 0.061581
H	 0.8017952955	-0.0660101597	-2.139351629	 0.052755
H	 2.9023392638	-1.1878565287	-0.412210968	 0.091072
H	 2.5373385028	 0.5571457797	-0.3675828322	 0.095012
H	 1.3907749486	-0.1093775746	 1.855907049	 0.051589
H	 0.9167439107	-2.5467253536	 2.0619905113	 0.082312
H	 0.3362410269	-3.8556758016	 0.0285247524	 0.08309
H	-0.5070090006	-2.2015048688	-1.7971225112	 0.101093
H	 1.1879281267	-2.5652404213	-2.0606244983	 0.100662
209.1444	232.3548	247.5218	299.4201	377.4019	456.322	481.1112	519.5686	689.1118	711.0599	806.9473	831.2784	857.8212	865.7297	905.3722	934.3198	954.0155	969.5604	979.1013	1047.705	1061.7129	1071.8793	1089.03	1095.7582	1136.9907	1140.1289	1174.6099	1206.9554	1240.8522	1268.2862	1287.8701	1303.1792	1313.1115	1354.2872	1382.2932	1400.0806	1411.9813	1472.9695	1492.3062	1496.8383	1506.2723	1698.3397	2996.6482	3020.2365	3026.458	3041.5444	3055.4578	3065.4884	3082.5309	3087.0564	3101.6643	3119.2029	3156.984	3181.5032
CC1C2CC1C=CC2	C[C@H]1[C@H]2C[C@@H]1C=CC2	
InChI=1S/C8H12/c1-6-7-3-2-4-8(6)5-7/h2-3,6-8H,4-5H2,1H3	InChI=1S/C8H12/c1-6-7-3-2-4-8(6)5-7/h2-3,6-8H,4-5H2,1H3/t6-,7+,8-/m1/s1
