19
gdb 110582	3.13806	1.26585	1.0507	2.9038	74.9	-0.2268	0.0693	0.2961	1193.826	0.15758	-422.930391	-422.921975	-422.921031	-422.963441	32.409	
C	 0.0439638777	 1.5998966945	-0.0941857738	-0.380104
C	 0.0137914638	 0.0971222819	 0.2058565409	-0.195902
C	-1.384514698	-0.5030484337	 0.1283813214	-0.101922
C	-2.0026489241	-0.8293824099	-1.2535694423	-0.099201
C	-1.2339238389	-2.1844612413	-1.3837253482	 0.037206
O	-2.4259310831	-2.9650522801	-1.6856203055	-0.327563
C	-2.8731648738	-1.994444322	-0.6963621938	 0.000879
C	-1.5370747156	-2.0456821692	 0.1400551017	 0.354362
O	-1.13068752	-2.9548487444	 1.0872721155	-0.462175
H	 1.058943302	 2.0011205213	-0.0141193404	 0.114569
H	-0.3195292038	 1.8115608544	-1.1054618797	 0.117506
H	-0.5896533873	 2.1550792372	 0.6065243346	 0.114013
H	 0.6792414601	-0.4312559427	-0.4887712063	 0.097979
H	 0.4211619009	-0.0840689714	 1.208971385	 0.099317
H	-2.0729707108	 0.0204806664	 0.805974154	 0.059911
H	-2.2766788405	-0.1675562926	-2.0710880852	 0.090571
H	-0.3066138676	-2.4269478238	-1.8999213306	 0.099917
H	-3.9162054615	-1.9991409414	-0.3801285612	 0.092374
H	-1.5835753094	-2.7647157732	 1.9162859338	 0.288262
78.0846	146.7329	176.5953	224.6328	258.5002	287.9379	351.8416	386.5509	514.8114	580.9453	688.1936	738.0977	771.5501	815.1652	836.9663	851.5115	893.8204	910.4298	919.0994	937.161	999.333	1021.5135	1058.9253	1077.0141	1099.0376	1126.0474	1140.8347	1159.2693	1175.1622	1210.5247	1233.6679	1287.9391	1296.433	1305.4564	1347.1643	1389.7917	1411.7978	1435.8456	1484.1906	1499.6343	1506.4994	3010.6071	3019.9112	3030.9276	3052.0022	3097.7159	3103.7903	3120.34	3135.2086	3160.1191	3804.4311
CCC1C2C3OC2C13O	CC[C@H]1[C@H]2[C@@H]3O[C@H]2[C@]13O	
InChI=1S/C7H10O2/c1-2-3-4-5-7(3,8)6(4)9-5/h3-6,8H,2H2,1H3	InChI=1S/C7H10O2/c1-2-3-4-5-7(3,8)6(4)9-5/h3-6,8H,2H2,1H3/t3-,4-,5-,6+,7-/m0/s1
