16
gdb 50909	2.30283	1.36893	0.96398	3.6895	70.73	-0.2627	-0.0041	0.2586	1207.72	0.124428	-434.039567	-434.030806	-434.029862	-434.073987	30.839	
N	 1.0919200888	-0.2734968332	 0.2486029843	-0.442756
C	-0.0059447648	 0.1362568673	-0.2128492004	 0.131519
O	-1.0445476186	-0.687821365	-0.4881856931	-0.21679
C	-0.8446087538	-2.0835916354	-0.2324336154	-0.056079
C	-1.0114891654	-2.3758751886	 1.2018362861	 0.29907
N	-1.1718534051	-2.6430150003	 2.3138995006	-0.316039
C	-1.8527122027	-2.8736726396	-1.0564218897	-0.001408
C	-3.2103814764	-2.3449344084	-1.313857825	-0.227848
N	-2.2126798248	-2.4288372163	-2.4012407494	-0.328526
H	 1.7457024796	 0.4935593917	 0.3834714038	 0.246252
H	-0.2994159997	 1.1596959679	-0.4588071212	 0.13024
H	 0.1796590892	-2.3500858145	-0.5142063574	 0.16143
H	-1.7073577411	-3.9462434693	-0.9546521476	 0.120509
H	-4.0460098086	-3.0318920957	-1.4020236402	 0.129476
H	-3.4538296012	-1.3650271475	-0.9159411095	 0.131371
H	-1.8266465554	-1.5009051929	-2.561541186	 0.239579
55.5766	80.4471	136.7697	182.9812	188.7846	270.4349	312.5359	357.0533	476.083	558.6586	613.1949	720.8367	817.1558	835.2216	871.9136	905.6715	962.3991	987.4999	1006.8983	1041.6407	1042.9696	1067.6311	1122.6624	1155.3732	1207.391	1266.3022	1273.5463	1306.0889	1315.1223	1372.7624	1394.6917	1416.3329	1507.2742	1729.0104	2362.9819	3065.4843	3107.9779	3125.7038	3143.9923	3215.9802	3501.6788	3534.7845
N=COC(C#N)C1CN1	[NH][CH]O[C@@H](C#N)[C@H]1CN1	
InChI=1S/C5H7N3O/c6-1-5(9-3-7)4-2-8-4/h3-5,7-8H,2H2	InChI=1S/C5H7N3O/c6-1-5(9-3-7)4-2-8-4/h3-5,7-8H,2H2/t4-,5+/m1/s1
