13
gdb 35315	5.62403	1.01272	0.94501	2.879	68.91	-0.2888	-0.0451	0.2438	1164.1565	0.088972	-415.57627	-415.568741	-415.567797	-415.608643	27.407	
N	-0.0645502993	-1.1454453157	-0.1168912974	-0.307483
C	-0.0168687666	 0.0047009198	-0.021639696	 0.295718
C	 0.058731444	 1.4627976005	 0.0788033633	-0.035042
O	-0.1115260416	 1.9521703714	 1.438210442	-0.306694
C	 1.1205918865	 2.681918408	 1.344286459	 0.358767
C	 2.2776229997	 1.7436010572	 1.1583640046	-0.334286
C	 1.4381357641	 2.1188422888	-0.0353080895	-0.175878
C	 1.1822786657	 4.0050448629	 1.8737483539	 0.217922
N	 1.2506768429	 5.0778286728	 2.3003421228	-0.33046
H	-0.6870709649	 1.9205514332	-0.5786583734	 0.153196
H	 3.2594707688	 2.2039917848	 1.1749862682	 0.157513
H	 2.210548328	 0.7545424543	 1.6010864353	 0.160313
H	 1.8226259426	 2.6124173421	-0.9156510127	 0.146413
86.8433	116.4189	185.6437	223.0007	352.165	412.3863	480.1181	514.9865	571.4799	588.9845	640.4341	737.2036	855.9335	894.4779	932.5464	963.4724	993.7043	1012.7659	1051.9338	1067.3954	1091.8057	1158.4636	1265.7439	1270.1936	1344.5789	1383.2934	1473.2038	2356.2044	2363.8007	3068.8794	3132.7255	3228.5825	3234.8274
N#CC1OC2(CC12)C#N	N#C[C@H]1O[C@]2(C[C@@H]12)C#N	
InChI=1S/C6H4N2O/c7-2-5-4-1-6(4,3-8)9-5/h4-5H,1H2	InChI=1S/C6H4N2O/c7-2-5-4-1-6(4,3-8)9-5/h4-5H,1H2/t4-,5+,6+/m0/s1
