23
gdb 116480	3.02009	1.13242	0.8737	1.1543	88.41	-0.2398	0.0149	0.2547	1409.5729	0.206526	-388.30075	-388.29143	-388.290486	-388.335841	35.456	
C	 0.1787341708	 1.5461568832	-0.2701036482	-0.390489
C	 0.0417634545	 0.0338998409	-0.0932303947	-0.185949
C	-1.4025636201	-0.4240889329	 0.1356494742	 0.082161
O	-2.1443863789	-0.0181142007	-1.0079359934	-0.250127
C	-3.5476179725	 0.0340084983	-0.8525026219	-0.06489
C	-4.2302440004	-1.3281813034	-0.9732830782	-0.190708
C	-3.9862758951	-2.2797687111	 0.2072687815	-0.257095
C	-2.5523115041	-2.6879126107	 0.4495459664	-0.079433
C	-1.4682195449	-1.9129157982	 0.4217832529	-0.039225
H	 1.2199441731	 1.8284733676	-0.4531156937	 0.107278
H	-0.4251889892	 1.8894096395	-1.1131370976	 0.132972
H	-0.1590609807	 2.0809054707	 0.6252721082	 0.107207
H	 0.4266906329	-0.4877763483	-0.978342936	 0.107337
H	 0.6438806825	-0.3046686187	 0.7585234181	 0.094015
H	-1.801648446	 0.1182919293	 1.0147959624	 0.068816
H	-3.8076867413	 0.5054978737	 0.1114226731	 0.079628
H	-3.9090341912	 0.6949069312	-1.6482401125	 0.10011
H	-5.3105908255	-1.1594672417	-1.0710607012	 0.090112
H	-3.8917189415	-1.7987029023	-1.9033949772	 0.108236
H	-4.383276869	-1.815796475	 1.124200187	 0.109455
H	-4.5873071091	-3.18338407	 0.0575955819	 0.101421
H	-2.4058870221	-3.7363396297	 0.7027075709	 0.08658
H	-0.5105334321	-2.3748923117	 0.6549882382	 0.082588
18.7918	110.3855	168.0911	204.9002	219.3929	291.0007	326.0001	361.039	412.3397	433.6103	505.0574	541.5558	694.8276	726.5713	756.5993	804.0748	874.756	904.4818	909.4936	954.9083	967.9578	997.4506	1017.9679	1057.1372	1078.8414	1103.1632	1114.1074	1151.9717	1165.8925	1219.4083	1250.8638	1280.8228	1288.4209	1301.2632	1323.5136	1361.1036	1377.52	1382.7693	1389.3494	1405.9505	1419.148	1431.2258	1470.7935	1476.6461	1478.1772	1492.8445	1495.2815	1510.1385	1725.4974	2907.4905	2954.7881	2986.4682	3021.9328	3028.1343	3034.3961	3057.4427	3061.2524	3065.9917	3074.7815	3098.6217	3127.912	3129.2088	3153.0091
CCC1OCCCC=C1	CC[C@H]1OCCCC=C1	
InChI=1S/C8H14O/c1-2-8-6-4-3-5-7-9-8/h4,6,8H,2-3,5,7H2,1H3	InChI=1S/C8H14O/c1-2-8-6-4-3-5-7-9-8/h4,6,8H,2-3,5,7H2,1H3/t8-/m1/s1
