17
gdb 91682	3.36102	1.27716	1.12604	2.3642	74.1	-0.2513	0.048	0.2993	1108.1309	0.135579	-421.760332	-421.752435	-421.751491	-421.792537	31.021	
O	-0.1320953452	 1.4256190711	 0.0155024114	-0.435493
C	-0.0102530648	 0.0161593841	 0.0375956069	 0.099376
C	 0.492839209	-0.5897963614	 1.3938914079	-0.275695
C	-0.7943376636	-1.3551995323	 1.7461087756	 0.075725
O	-1.116194737	-1.9840416337	 0.4650454477	-0.300413
C	-1.4140499773	-0.6242054075	 0.0460380098	 0.070435
C	-1.9276001183	-0.3132250662	 1.482883288	-0.210256
C	-3.2689488634	-0.7679788644	 1.7761829483	 0.305931
C	-4.3884852515	-1.1185295711	 2.0383174537	-0.411072
H	 0.7496752323	 1.8072815382	-0.0257933198	 0.290273
H	 0.5705587393	-0.348349733	-0.8178192079	 0.081475
H	 1.3363880858	-1.2723039463	 1.2725998389	 0.111306
H	 0.7552860593	 0.1913305518	 2.1126347318	 0.103584
H	-0.812766153	-2.0331078068	 2.5980096169	 0.092867
H	-2.0407869599	-0.540817676	-0.839719401	 0.094824
H	-1.7546501872	 0.7041420317	 1.8420978561	 0.115779
H	-5.3763861745	-1.4358346382	 2.2630455057	 0.191354
120.832	145.939	189.8223	260.0285	308.1579	403.4212	439.6035	498.6421	514.1513	562.7177	622.0401	633.716	694.9762	826.163	863.9307	882.1405	911.4666	924.7919	941.9921	965.6228	1016.5287	1041.5917	1068.8316	1090.3081	1158.4112	1168.1461	1174.785	1216.7768	1236.5478	1253.3561	1298.9788	1307.1658	1328.3569	1377.3084	1417.484	1477.512	2240.2396	3033.8087	3066.4463	3084.8471	3123.189	3138.1018	3148.3798	3505.5846	3829.3363
OC1CC2OC1C2C#C	O[C@H]1C[C@@H]2O[C@H]1[C@H]2C#C	
InChI=1S/C7H8O2/c1-2-4-6-3-5(8)7(4)9-6/h1,4-8H,3H2	InChI=1S/C7H8O2/c1-2-4-6-3-5(8)7(4)9-6/h1,4-8H,3H2/t4-,5-,6-,7-/m0/s1
