17
gdb 98808	2.8451	1.23369	0.90306	2.4177	71.37	-0.237	-0.0408	0.1962	1270.3321	0.135197	-455.162684	-455.153473	-455.152529	-455.197616	32.273	
C	-0.076650186	 1.4304324744	-0.3236541781	-0.332877
N	-0.2626728603	-0.0057706932	-0.4030084303	-0.31848
C	-1.2942197731	-0.6409633801	 0.2128972028	 0.41379
O	-2.1484654005	-0.1035997035	 0.8885474941	-0.374019
C	-1.2606514602	-2.1638610929	 0.0276623244	-0.216963
N	-2.5658954947	-2.8245983131	-0.2066462487	-0.303956
C	-2.03879682	-3.6456710635	-1.3277239409	-0.270608
C	-0.787601009	-2.7622750053	-1.304109323	 0.38721
O	 0.1374093026	-2.5469527204	-2.0339153199	-0.304599
H	 0.9310821193	 1.6765863877	 0.0271567538	 0.126546
H	-0.2351202136	 1.9097987409	-1.2963577221	 0.130096
H	-0.8098927256	 1.8188198759	 0.3840649485	 0.169346
H	 0.3318596306	-0.549502966	-1.0133413907	 0.265083
H	-0.6702214248	-2.5817527352	 0.8592656409	 0.124237
H	-2.9240564536	-3.3473344404	 0.5819791998	 0.235699
H	-1.7983680485	-4.6924614666	-1.0911868148	 0.127446
H	-2.6408136626	-3.6196190886	-2.2423108957	 0.14205
60.1083	86.0696	108.699	132.4164	154.855	267.07	299.5898	381.5103	409.1661	520.1116	569.4503	620.6918	666.5358	741.7975	792.7029	833.7222	942.1674	994.0871	1011.995	1019.8266	1091.7196	1104.6744	1117.0421	1153.0365	1178.6683	1201.408	1257.4874	1264.2839	1319.4267	1373.169	1441.2754	1475.565	1497.1587	1500.7848	1583.5403	1798.2008	1893.6011	2979.0585	3005.4989	3029.954	3072.025	3083.2313	3153.7706	3570.9122	3586.4079
CNC(=O)C1NCC1=O	CNC(=O)[C@H]1NCC1=O	
InChI=1S/C5H8N2O2/c1-6-5(9)4-3(8)2-7-4/h4,7H,2H2,1H3,(H,6,9)	InChI=1S/C5H8N2O2/c1-6-5(9)4-3(8)2-7-4/h4,7H,2H2,1H3,(H,6,9)/t4-/m0/s1
