18
gdb 55810	3.6578	1.20304	1.04304	4.1112	71.47	-0.2474	0.0157	0.2631	1161.4382	0.149469	-439.116388	-439.108552	-439.107608	-439.149187	30.079	
O	-0.6475090192	 1.1451198369	 1.2053008183	-0.228106
C	-0.396779054	 1.8115934066	 0.0407652553	 0.420396
O	 0.5196268866	 2.5708247156	-0.0724360263	-0.33166
C	-1.4349504305	 1.4193088775	-1.0139475414	-0.386582
C	-2.4819634795	 0.637879935	-0.2394330276	-0.030462
C	-1.8000790457	 0.2983177148	 1.1184501884	 0.096791
C	-3.0175384327	 0.8610878091	 1.8784015676	-0.24683
C	-3.5660077003	 1.445640133	 0.5450684347	 0.009933
N	-4.9371402224	 1.0600404677	 0.2417481998	-0.518203
H	-5.2076934895	 1.4226415185	-0.6691726542	 0.228034
H	-5.5698394311	 1.489238433	 0.9123763637	 0.2304
H	-1.8081316106	 2.3212389314	-1.5060349745	 0.1364
H	-0.9310257391	 0.8169831982	-1.777332025	 0.140003
H	-2.9134421366	-0.2129650975	-0.7659723913	 0.09034
H	-1.4867034573	-0.7247768454	 1.33388151	 0.093839
H	-3.6654442476	 0.0626143685	 2.2487450015	 0.115698
H	-2.7891562734	 1.5597051646	 2.6851440423	 0.116588
H	-3.3760516371	 2.5283821627	 0.4689982388	 0.06342
63.9312	111.2892	200.2569	275.7041	319.6333	360.0849	446.9729	498.217	558.5736	632.7231	676.4575	774.3635	798.0397	827.6343	860.7421	879.9167	909.2572	937.4232	981.0006	1028.7039	1047.8266	1098.1093	1123.6239	1139.6394	1153.1073	1202.4447	1212.781	1227.2885	1267.435	1272.0143	1283.7304	1306.263	1347.5204	1373.6731	1397.2039	1460.0208	1461.6222	1652.0541	1882.2911	2957.5463	3058.0305	3069.3243	3090.7752	3105.5452	3119.1951	3134.06	3474.3034	3550.9686
[O-]C(=O)CC1C2CC1[NH2+]2	O1C(=O)C[C@H]2[C@@H]1C[C@@H]2N	
InChI=1S/C6H9NO2/c8-6(9)1-3-4-2-5(3)7-4/h3-5,7H,1-2H2,(H,8,9)	InChI=1S/C6H9NO2/c7-4-2-5-3(4)1-6(8)9-5/h3-5H,1-2,7H2/t3-,4+,5+/m1/s1
