21
gdb 39393	2.3447	2.11143	1.42614	1.2242	82.06	-0.2409	0.0815	0.3224	983.4203	0.185752	-387.04342	-387.036239	-387.035295	-387.074495	30.39	
C	 0.0046392946	 1.5203315217	 0.0061206565	-0.441892
C	 1.2829380633	 0.69613373	-0.0905662866	-0.058333
C	 2.2978070205	 0.4050236927	 0.9835763014	-0.094285
O	 2.4037726953	-1.0013959717	 1.2811844701	-0.266626
C	 1.8465637641	-1.9535052835	 0.380266778	-0.069522
C	 0.2831601715	-1.9927294919	 0.3011053163	-0.018573
C	-0.2949562684	-0.8988721494	 1.2385917379	-0.268755
C	-0.0640212337	 0.032327284	 0.0418531234	 0.365652
C	-0.2906654457	-1.1585442011	-0.8933354214	-0.304467
H	-0.2109971501	 2.0325539202	 0.939888302	 0.114448
H	-0.2919666745	 2.0718984968	-0.8804631414	 0.115154
H	 1.6860586292	 0.656460308	-1.0998765089	 0.088209
H	 3.2912453249	 0.7726129554	 0.6914504379	 0.095443
H	 2.0342994998	 0.893547042	 1.9294561916	 0.10255
H	 2.2703354543	-1.8427896851	-0.6296992021	 0.086961
H	 2.2040756714	-2.9093518433	 0.7743108515	 0.106876
H	-0.0854004642	-3.016267569	 0.4089468828	 0.060506
H	-1.3643220542	-1.0455440514	 1.4212801767	 0.089775
H	 0.2222116569	-0.7108309349	 2.1786678122	 0.113687
H	 0.2511708138	-1.1716595669	-1.8441985578	 0.089694
H	-1.3466257288	-1.3928625528	-1.0672773501	 0.093498
146.7937	247.873	307.1364	350.0538	365.287	384.6159	434.0796	519.5163	571.7542	655.5949	775.0055	808.6781	835.9651	848.8811	861.3456	898.321	905.4251	931.7588	956.8486	990.7301	1022.2351	1048.0121	1067.4353	1079.5833	1095.2711	1116.7684	1133.656	1156.3031	1174.1412	1187.4712	1223.7625	1252.2925	1258.2482	1272.369	1312.5264	1332.2606	1351.9658	1387.0243	1402.811	1436.8755	1478.0055	1492.8369	1495.7868	1508.1664	1514.8916	2982.2249	3003.4267	3032.687	3044.9783	3052.9888	3065.3764	3083.5082	3089.0083	3117.8767	3126.7145	3138.0252	3202.4736
C1C2COCC3CC12C3	C1[C@H]2COC[C@H]3C[C@@]12C3	
InChI=1S/C8H12O/c1-6-2-8(1)3-7(8)5-9-4-6/h6-7H,1-5H2	InChI=1S/C8H12O/c1-6-2-8(1)3-7(8)5-9-4-6/h6-7H,1-5H2/t6-,7-,8+/m0/s1
