18
gdb 16562	3.10466	2.55709	2.05934	1.7109	70.76	-0.2338	0.0144	0.2482	754.8982	0.157819	-347.820916	-347.81481	-347.813866	-347.850827	25.289	
C	-0.0045769713	 1.542144615	-0.043806614	-0.070721
O	 1.3608283052	 1.9815754666	-0.081689657	-0.269214
C	 2.1784526419	 0.8274468737	 0.1693392944	 0.069104
C	 1.4228705687	-0.287152961	-0.5623404334	-0.226726
C	 0.0245979796	-0.0058305667	 0.0190906774	-0.047874
C	-0.0278494931	-0.5165644309	 1.4731848638	-0.257309
C	 1.202783274	-0.0992386351	 2.2446207904	-0.05164
C	 2.2285040577	 0.5172619839	 1.6568029222	-0.061677
H	-0.5174961122	 1.9758271563	 0.8245181569	 0.094678
H	-0.5028306624	 1.9057796384	-0.9507020222	 0.098421
H	 3.1693167899	 1.0470339401	-0.2337458171	 0.071246
H	 1.452398237	-0.1222065324	-1.6433643067	 0.09883
H	 1.7945354794	-1.2902678592	-0.3398741593	 0.099431
H	-0.7864029444	-0.4445076781	-0.5674307696	 0.068169
H	-0.9278089499	-0.1353459572	 1.9748143756	 0.105334
H	-0.1244822875	-1.6125765932	 1.488871348	 0.103909
H	 1.2217483433	-0.3172989884	 3.309875093	 0.088385
H	 3.094661354	 0.8381344181	 2.2276324875	 0.087655
146.8988	291.3895	345.8274	420.0998	488.4953	499.8167	637.631	716.2302	758.7045	808.1051	853.8187	889.3075	910.4395	925.0711	939.1409	952.3976	984.8874	996.3259	1034.7719	1061.14	1086.7759	1101.7883	1134.1896	1173.4917	1201.0545	1217.5359	1272.7325	1308.0314	1321.9843	1333.7271	1348.9346	1371.051	1389.6715	1408.8606	1474.1022	1490.7584	1522.2009	1706.6995	2996.8763	3011.3309	3027.196	3047.9641	3055.6825	3079.6171	3092.3148	3112.3488	3148.8169	3178.2175
C1OC2CC1CC=C2	C1O[C@@H]2C[C@H]1CC=C2	
InChI=1S/C7H10O/c1-2-6-4-7(3-1)8-5-6/h1,3,6-7H,2,4-5H2	InChI=1S/C7H10O/c1-2-6-4-7(3-1)8-5-6/h1,3,6-7H,2,4-5H2/t6-,7+/m1/s1
