16
gdb 123847	3.62629	1.60895	1.14521	0.949	77.49	-0.2203	-0.0191	0.2011	1015.221	0.129121	-396.958684	-396.952072	-396.951128	-396.989593	26.273	
C	-0.0194973365	 1.4902298875	 0.0830469661	-0.269481
C	 1.3741056058	 2.1535244515	-0.0461808521	-0.33425
C	 2.1870032221	 1.4162139881	-1.0609424832	 0.270396
N	 3.2118049226	 1.8462314632	-1.7875139625	-0.293296
N	 3.585395946	 0.7467536388	-2.4480921943	-0.096854
N	 2.890177628	-0.3636663529	-2.2137778293	-0.303333
C	 1.9834401435	 0.0452174115	-1.3230046124	 0.288645
C	 0.9264357981	-0.7072158966	-0.6763228187	-0.157237
C	 0.0007260122	-0.0247100767	 0.0128579099	-0.07666
H	-0.4924347167	 1.8164722804	 1.0146447012	 0.110051
H	-0.6718132218	 1.8562854086	-0.724811489	 0.122899
H	 1.2768439866	 3.2130716885	-0.2971647629	 0.123168
H	 1.8898949688	 2.1056653754	 0.9230606313	 0.122806
H	 4.3445394859	 0.7633968393	-3.1085873303	 0.290137
H	 0.9019068713	-1.7873216699	-0.7673837762	 0.104245
H	-0.8154180259	-0.5531509266	 0.4965355725	 0.098764
139.2035	209.4451	288.6823	403.5926	430.4608	455.61	511.9145	592.6496	693.479	700.3006	710.6225	760.366	829.7471	867.8659	924.8748	991.2516	995.6989	1019.7669	1040.32	1160.7384	1167.3462	1184.6257	1193.0732	1240.0004	1247.8804	1341.1722	1361.2962	1367.7444	1422.5897	1455.6063	1470.8184	1484.0917	1538.9472	1574.5929	1683.6922	2991.2636	3012.6593	3072.0789	3092.1164	3170.6525	3200.3316	3678.5614
C1CC2=NNN=C2C=C1	C1Cc2n[nH]nc2C=C1	
InChI=1S/C6H7N3/c1-2-4-6-5(3-1)7-9-8-6/h1,3H,2,4H2,(H,7,8,9)	InChI=1S/C6H7N3/c1-2-4-6-5(3-1)7-9-8-6/h1,3H,2,4H2,(H,7,8,9)
