19
gdb 9273	4.3503	0.92065	0.79526	5.118	73.25	-0.2674	0.0415	0.3089	1423.3077	0.163513	-365.078063	-365.068356	-365.067412	-365.113248	33.504	
C	 0.0573052511	 1.3943452248	 0.0736864593	-0.237613
O	-0.1132580781	 0.0086026924	-0.1224767929	-0.247046
C	 0.6590109006	-0.5523359377	-1.1768737968	 0.134373
C	 2.1358124672	-0.6956962251	-0.8009479345	-0.407403
C	 0.0277132485	-1.9079144219	-1.4992118743	-0.189954
C	-1.4534017705	-1.772330688	-1.9009087845	-0.343166
C	-2.0768070581	-3.0609227227	-2.1885206346	 0.255065
N	-2.5550771259	-4.0885046684	-2.4145241883	-0.309337
H	 1.063675701	 1.6500613393	 0.433486254	 0.112038
H	-0.1332386274	 1.9613972	-0.8509561631	 0.105552
H	-0.6681422365	 1.7018490749	 0.8307361871	 0.132013
H	 0.5762372533	 0.1004030209	-2.0647123713	 0.064949
H	 2.696670175	-1.1554649987	-1.620586856	 0.121121
H	 2.5932963519	 0.2749937508	-0.5917296783	 0.120972
H	 2.2410882881	-1.3244540384	 0.0886260569	 0.129164
H	 0.59074039	-2.3866407634	-2.3062723209	 0.118224
H	 0.1062527319	-2.5555336757	-0.619524233	 0.127986
H	-2.0009444958	-1.2786733212	-1.0931155662	 0.168946
H	-1.5505791264	-1.1348425117	-2.7880293626	 0.144118
61.0533	73.5952	116.2935	127.4592	191.8025	217.3875	253.6719	296.7157	362.6037	400.0778	468.2646	488.7776	574.3643	760.0148	832.4586	925.3305	941.138	957.6895	1030.0093	1089.1684	1117.2134	1124.3363	1165.7826	1182.0642	1196.4567	1247.5757	1278.2815	1318.4862	1355.2522	1383.4774	1399.5112	1406.0295	1469.3019	1477.7206	1481.0763	1485.5961	1493.68	1503.8562	1512.8072	2361.6916	2940.4536	2980.3858	3033.0903	3042.0197	3043.6122	3055.6451	3091.6184	3109.268	3114.3527	3115.7214	3119.5709
COC(C)CCC#N	CO[C@@H](C)CCC#N	
InChI=1S/C6H11NO/c1-6(8-2)4-3-5-7/h6H,3-4H2,1-2H3	InChI=1S/C6H11NO/c1-6(8-2)4-3-5-7/h6H,3-4H2,1-2H3/t6-/m0/s1
