21
gdb 88370	2.05222	1.36737	1.20533	1.2667	83.95	-0.2611	0.0366	0.2977	1206.1181	0.178999	-387.042466	-387.032096	-387.031152	-387.077072	39.4	
C	-1.3692159936	 0.9248741792	 0.7223637906	-0.423074
C	-0.4966501775	-0.2742891494	 0.4160783099	 0.002483
C	 0.768235675	-0.1567268595	-0.4014117815	-0.334086
C	 0.8462095598	-0.5581492883	 1.0535610504	-0.025696
C	 1.5677265696	 0.2692253604	 2.1228542966	 0.15064
C	 0.9154432963	 0.0692703534	 3.4979009782	-0.393257
O	 2.8997687041	-0.2509318021	 2.26420937	-0.441721
C	 1.6599564639	 1.7045594739	 1.8029325451	 0.321788
C	 1.8052723654	 2.8732861989	 1.5579580616	-0.490951
H	-0.7813297049	 1.827083874	 0.8986089566	 0.136653
H	-2.0467031036	 1.1230903771	-0.1157711234	 0.113472
H	-1.9887845937	 0.7476208753	 1.6090408949	 0.113923
H	-1.0721541087	-1.1785550708	 0.2302232174	 0.084182
H	 0.9822501922	-0.8983854903	-1.1635089496	 0.107174
H	 1.0947502054	 0.8490318435	-0.6469441818	 0.122291
H	 1.0434423386	-1.609905571	 1.2443584373	 0.093883
H	 0.8775736726	-0.9995775989	 3.7255644099	 0.121656
H	 1.5059095551	 0.5718769035	 4.2671369729	 0.131162
H	-0.0993770444	 0.4718395074	 3.5042544208	 0.127909
H	 3.3384432261	-0.1407698399	 1.4127551742	 0.281441
H	 1.9268342222	 3.9069446335	 1.3450434298	 0.200129
68.9245	143.4653	157.8985	186.2297	208.2164	236.6125	238.7287	319.3885	342.5867	350.3279	371.9381	439.7214	498.6293	580.5045	627.6443	635.0605	653.5471	662.1428	773.089	854.5507	886.8493	918.4765	929.6286	955.8382	1026.1528	1070.358	1077.6827	1084.4846	1119.9226	1144.5659	1157.3268	1204.7784	1223.3177	1280.2084	1346.4129	1386.6813	1403.6595	1408.4586	1424.8089	1479.9756	1489.4214	1492.8296	1502.0929	1504.9405	2224.1734	3030.2584	3052.7214	3082.1018	3118.5454	3127.0213	3130.2995	3138.8642	3142.9653	3144.3346	3213.5365	3498.1962	3800.425
CC1CC1C(C)(O)C#C	C[C@H]1C[C@H]1[C@@](C)(O)C#C	
InChI=1S/C8H12O/c1-4-8(3,9)7-5-6(7)2/h1,6-7,9H,5H2,2-3H3	InChI=1S/C8H12O/c1-4-8(3,9)7-5-6(7)2/h1,6-7,9H,5H2,2-3H3/t6-,7+,8-/m0/s1
