17
gdb 92434	2.69812	1.62892	1.4993	2.8371	67.27	-0.2356	-0.0284	0.2073	960.7968	0.137039	-458.974014	-458.966603	-458.965659	-459.005898	28.693	
C	-0.1743184606	 1.5330558091	-0.0604514864	-0.416518
C	 0.0352168133	 0.0340372118	 0.05628	 0.147481
O	 0.7016333903	-0.4605234861	-1.1528123148	-0.288423
C	 1.8136858577	-1.2174396987	-0.7258042879	 0.08642
O	 2.8300456005	-0.3762819778	-0.2182990069	-0.272954
C	 2.3432794716	 0.1290544764	 1.0584300465	-0.086198
C	 0.9445945845	-0.4984090545	 1.1942277919	-0.223167
C	 1.2717674315	-1.8597944003	 0.5572702065	 0.428734
O	 1.1378417695	-2.988422801	 0.9260132117	-0.320429
H	 0.7702228645	 2.0694580382	-0.1763287642	 0.135773
H	-0.7867290692	 1.7432519949	-0.9419171525	 0.137969
H	-0.6985382678	 1.9183140221	 0.8201849896	 0.118988
H	-0.9431552376	-0.4599839679	 0.1273027715	 0.096041
H	 2.1980698921	-1.8292903808	-1.5370662907	 0.115313
H	 3.0129165027	-0.2003121935	 1.860958379	 0.120643
H	 2.3419707071	 1.2220279968	 1.0306597217	 0.117501
H	 0.5091620098	-0.5082491187	 2.1902821148	 0.102824
101.9026	156.1407	214.7437	289.0069	311.878	432.0577	477.1039	510.7769	556.086	660.5815	756.2988	770.2411	809.8682	848.3791	897.7629	926.8728	954.7201	960.8457	1009.7053	1060.3774	1089.9643	1102.2787	1138.0443	1155.2218	1172.4253	1218.4854	1265.5553	1273.0888	1308.528	1347.7575	1375.2857	1399.8617	1414.8442	1483.5199	1495.6543	1537.461	1905.6796	3010.4215	3038.089	3045.6633	3086.2498	3115.7473	3131.35	3158.7495	3178.0455
CC1OC2OCC1C2=O	C[C@H]1O[C@H]2OC[C@@H]1C2=O	
InChI=1S/C6H8O3/c1-3-4-2-8-6(9-3)5(4)7/h3-4,6H,2H2,1H3	InChI=1S/C6H8O3/c1-3-4-2-8-6(9-3)5(4)7/h3-4,6H,2H2,1H3/t3-,4+,6-/m1/s1
