18
gdb 18857	3.30156	2.45358	2.0635	0.4161	74.71	-0.217	0.018	0.235	762.1955	0.155944	-310.641694	-310.635364	-310.63442	-310.671632	26.527	
C	-0.0371633931	 1.6052139585	-0.0224505364	-0.413201
C	 0.0952981915	 0.0885232509	-0.0188804048	 0.039819
C	 0.715250928	-0.6541599906	-1.1980008472	-0.08769
C	 2.2649501702	-0.7639972942	-1.1009124286	-0.075281
C	 3.0012119125	 0.146206981	-0.1781338861	-0.081331
C	 2.397425724	 0.1509722965	 1.0158430465	-0.088845
C	 1.1343161323	-0.6712734089	 0.929716613	-0.121963
C	 1.3734482123	-1.6463455545	-0.2711830584	-0.073587
H	 0.9214266583	 2.0953368118	-0.2080768235	 0.119576
H	-0.733189116	 1.920660865	-0.8082954239	 0.108746
H	-0.4299975576	 1.972981828	 0.932677658	 0.106754
H	-0.8819932897	-0.3667591714	 0.1741400195	 0.076572
H	 0.2373055066	-0.8291653974	-2.1555634885	 0.08026
H	 2.7402412179	-1.1687253044	-1.9872706954	 0.080166
H	 3.8656512699	 0.7297860507	-0.4704189868	 0.092572
H	 2.6565433873	 0.771047188	 1.8652931784	 0.092183
H	 0.7284208743	-1.0526494955	 1.8657476185	 0.062119
H	 1.3681000114	-2.7296729936	-0.2678208543	 0.083131
192.8	220.5255	263.8525	443.7755	468.3394	567.5028	681.1851	694.701	738.9607	763.3812	796.9631	814.212	823.4698	877.1265	914.7323	930.592	944.9442	972.3852	983.6449	1034.4954	1058.2786	1065.1131	1088.2084	1109.8478	1123.2787	1133.8855	1164.1404	1229.3744	1246.8716	1281.0598	1318.8988	1360.1692	1370.5201	1387.9757	1407.9082	1492.6913	1502.6286	1642.3038	3027.378	3045.7226	3085.1983	3116.7576	3123.0346	3166.8759	3173.865	3186.8767	3195.0706	3219.9389
CC1C2C3C=CC1C23	C[C@H]1[C@H]2[C@H]3C=C[C@@H]1[C@@H]23	
InChI=1S/C8H10/c1-4-5-2-3-6-7(4)8(5)6/h2-8H,1H3	InChI=1S/C8H10/c1-4-5-2-3-6-7(4)8(5)6/h2-8H,1H3/t4-,5+,6-,7+,8-/m1/s1
