14
gdb 46030	3.27006	1.29321	0.96709	5.4047	69.24	-0.2398	-0.0702	0.1696	1139.6921	0.100485	-436.696947	-436.688822	-436.687877	-436.73014	29.657	
O	-0.0427859538	-0.0712590031	-0.4109032828	-0.345601
C	-0.0501996807	 1.1156175844	-0.1925217572	 0.322505
N	-1.1091346913	 1.9755400765	-0.2498500902	-0.323159
C	-0.8650329032	 3.3366309243	 0.2058599445	-0.185021
C	 0.6825580942	 3.4590251169	 0.1720961943	-0.310022
C	 1.2537515564	 4.324668494	 1.1824317825	 0.325552
C	 1.7188288531	 5.0322004605	 2.0340456766	-0.423633
C	 1.1604339319	 1.9888186948	 0.2146393002	 0.30356
O	 2.247425491	 1.5802736852	 0.492933885	-0.264648
H	-2.0380088971	 1.6252691746	-0.4281177694	 0.266272
H	-1.3458724852	 4.0656943059	-0.4515815	 0.133879
H	-1.234719195	 3.4978738529	 1.2249415639	 0.138728
H	 0.9743439705	 3.8118415617	-0.8284041335	 0.153767
H	 2.1404855791	 5.6555121512	 2.783633236	 0.207822
57.0637	127.7513	154.275	213.1517	320.8704	364.9252	417.0098	474.0375	535.8514	571.4665	626.3912	642.584	656.1396	667.4856	727.0788	826.6154	916.6457	1019.1448	1043.7037	1076.9735	1088.1442	1193.2478	1240.219	1262.1615	1321.2065	1348.4765	1444.9829	1532.7996	1846.0641	1878.7474	2247.042	3004.1826	3038.4841	3090.2013	3503.1142	3629.5942
O=C1NCC(C#C)C1=O	O=C1NC[C@@H](C#C)C1=O	
InChI=1S/C6H5NO2/c1-2-4-3-7-6(9)5(4)8/h1,4H,3H2,(H,7,9)	InChI=1S/C6H5NO2/c1-2-4-3-7-6(9)5(4)8/h1,4H,3H2,(H,7,9)/t4-/m1/s1
