19
gdb 65536	2.80201	1.5934	1.33495	3.4632	79.01	-0.2426	0.0267	0.2692	1022.9772	0.161513	-382.063338	-382.055572	-382.054628	-382.095192	31.141	
C	-0.0920325962	 1.5433875556	-0.0120241914	-0.426935
C	 0.0478563038	 0.0157093717	 0.0327881618	 0.157287
N	 0.966700021	-0.4998273226	-1.0462859492	-0.339633
C	 1.9315060369	-1.2907919062	-0.2409988219	 0.012485
C	 1.0674763441	-2.019116826	 0.8290064303	-0.249868
C	 0.8044139076	-0.5475227973	 1.2738889807	-0.05053
C	 2.287402037	-0.2777293598	 0.8715746608	-0.22625
C	-1.2928778355	-0.5824454969	-0.0777086204	 0.251656
N	-2.3473657504	-1.0453724307	-0.1855759498	-0.354478
H	 0.8878223473	 2.0145899532	 0.0790322942	 0.129048
H	-0.5303258718	 1.8535482357	-0.9638035563	 0.137912
H	-0.7365786162	 1.8976292063	 0.7982942032	 0.127634
H	 0.4553992392	-1.1023062184	-1.6846526231	 0.232238
H	 2.6811853605	-1.7901952953	-0.8534449958	 0.077596
H	 0.2189742044	-2.6182439692	 0.4896060535	 0.116709
H	 1.6582176646	-2.5718624688	 1.561761593	 0.105733
H	 0.3926981004	-0.2861324554	 2.2476120609	 0.083943
H	 2.9832938534	-0.6817550756	 1.6078039357	 0.108523
H	 2.5884992701	 0.7250688798	 0.5663291137	 0.10693
146.5871	158.5286	197.3027	250.0743	294.2141	427.662	470.4753	491.7028	537.2997	577.4635	622.7378	719.0447	793.7576	839.8371	849.5962	875.0043	880.3647	919.6114	954.3517	979.9671	1025.5246	1040.4808	1042.358	1071.846	1095.8647	1117.7348	1164.3428	1165.9765	1195.2343	1221.7921	1249.6669	1253.2607	1287.9658	1316.3333	1402.1507	1422.2411	1478.9142	1483.9241	1493.5267	1518.7143	2343.4833	3049.7295	3067.7992	3083.9015	3123.4723	3128.4299	3130.2674	3133.3032	3140.4907	3147.9985	3513.8407
CC1(NC2CC1C2)C#N	C[C@]1(N[C@@H]2C[C@H]1C2)C#N	
InChI=1S/C7H10N2/c1-7(4-8)5-2-6(3-5)9-7/h5-6,9H,2-3H2,1H3	InChI=1S/C7H10N2/c1-7(4-8)5-2-6(3-5)9-7/h5-6,9H,2-3H2,1H3/t5-,6+,7-/m0/s1
