17
gdb 26855	2.9056	1.4459	0.97297	4.4331	83.91	-0.1872	-0.0377	0.1495	1178.3931	0.136453	-418.043284	-418.034668	-418.033724	-418.076488	32.434	
C	 0.1210407679	 1.4875403601	 0.0150581258	-0.491379
C	-0.0629688167	 0.0050314816	 0.0079991024	 0.33317
C	-1.2305381389	-0.6808036442	-0.0063353186	 0.10852
N	-2.5106082387	-0.0878939148	 0.0650059791	-0.596045
C	-1.1608944531	-2.1229080833	-0.0107918099	-0.08072
C	 0.0219739884	-2.7656875721	 0.0015481881	-0.164357
C	 1.2674742468	-2.0279786448	 0.0400987261	 0.37443
N	 2.4147171789	-2.5810381589	 0.0621047459	-0.547291
O	 1.1435754957	-0.6472681036	 0.0553885465	-0.280535
H	 1.0027202796	 1.751913379	-0.5759127127	 0.146908
H	-0.7425759376	 2.0032383213	-0.414153315	 0.121357
H	 0.2758460728	 1.8776262986	 1.0288383259	 0.146162
H	-2.4980875033	 0.9169360432	-0.0459009167	 0.239845
H	-3.1578972365	-0.4869246215	-0.6051261388	 0.244827
H	-2.0937774875	-2.6792297734	-0.0157246474	 0.107608
H	 0.1039422	-3.8444837939	-0.0066808545	 0.123452
H	 3.1500835724	-1.8740845234	 0.0899235638	 0.214051
96.6444	103.9191	160.2808	218.3486	305.6956	315.4121	342.2752	405.2902	475.8384	485.5815	568.5494	575.4315	708.5523	720.7414	755.8877	791.7935	830.1601	857.4447	882.323	988.3261	998.499	1050.4742	1063.2448	1109.8736	1171.8235	1198.9595	1252.7342	1295.528	1359.5972	1414.6749	1456.3846	1473.5168	1485.753	1622.5349	1651.116	1688.8622	1745.7722	3026.1921	3086.5531	3117.2662	3174.2941	3228.9328	3485.6362	3524.1984	3625.1918
CC1=C(N)C=CC(=N)O1	C[C@@H]1C(=CC=C([NH])O1)N	
InChI=1S/C6H8N2O/c1-4-5(7)2-3-6(8)9-4/h2-3,8H,7H2,1H3	InChI=1S/C6H9N2O/c1-4-5(7)2-3-6(8)9-4/h2-4,8H,7H2,1H3/t4-/m1/s1
