21
gdb 107264	3.11828	1.39272	1.24522	1.5605	80.98	-0.2399	0.0875	0.3274	1117.1819	0.183995	-387.043	-387.035197	-387.034253	-387.075197	31.717	
C	-0.29507041	 1.4802289223	-0.0229667111	-0.376294
C	 0.2008761294	 0.0289079769	 0.0162719926	-0.275442
C	 0.8073597061	-0.434365425	-1.2874206443	 0.388755
C	-0.0387374041	-0.9661979838	-2.418901455	-0.361619
C	 0.9233009106	-1.8909454172	-1.7088490009	-0.111625
C	 2.412462436	-1.8957044752	-2.1031260449	 0.06663
C	 2.6272229652	-0.6355538699	-2.9690427961	-0.246027
C	 2.2696005601	-0.0228177848	-1.598767291	 0.000242
O	 3.0134124109	-1.1393770967	-0.9859196735	-0.3041
H	 0.5188801593	 2.1752617654	-0.2563686164	 0.114487
H	-1.0691276219	 1.6112399576	-0.786575229	 0.115666
H	-0.7180038165	 1.7793107633	 0.941155146	 0.111418
H	 0.9486727799	-0.0909176173	 0.8104252663	 0.110526
H	-0.6335785435	-0.6331110059	 0.279450746	 0.092158
H	-1.0879194697	-1.1183461053	-2.1779015285	 0.108798
H	 0.1184337431	-0.6690115718	-3.448717033	 0.111382
H	 0.5459369343	-2.6963616322	-1.0894370187	 0.092666
H	 2.8993190141	-2.8506739053	-2.2984791886	 0.078532
H	 3.6858674206	-0.4960559179	-3.1846545125	 0.113199
H	 2.0227450977	-0.4438089875	-3.8557957048	 0.095992
H	 2.6093807383	 0.9600189704	-1.2715012225	 0.074657
88.8534	146.3234	202.3354	279.8612	330.3583	392.6942	459.9004	517.0357	613.7044	623.8936	703.9312	769.6795	785.9864	833.0458	844.7865	859.7328	901.2799	930.7785	937.5616	965.0947	979.9227	1009.5374	1027.0279	1036.3268	1067.2204	1081.6292	1089.7958	1105.4844	1128.0401	1181.4329	1216.4059	1232.8146	1256.2192	1279.5861	1294.0708	1298.2053	1330.0689	1354.7706	1397.9206	1412.211	1477.7697	1487.5697	1499.3925	1506.3748	1522.2708	3020.4009	3032.0871	3053.8649	3089.6863	3099.0614	3104.1303	3119.7297	3122.5322	3127.7797	3153.4449	3178.8175	3203.847
CCC12CC1C1CC2O1	CC[C@]12C[C@H]1[C@H]1C[C@@H]2O1	
InChI=1S/C8H12O/c1-2-8-4-5(8)6-3-7(8)9-6/h5-7H,2-4H2,1H3	InChI=1S/C8H12O/c1-2-8-4-5(8)6-3-7(8)9-6/h5-7H,2-4H2,1H3/t5-,6+,7-,8-/m0/s1
