19
gdb 56775	2.95205	1.18063	1.08927	1.1635	81.31	-0.252	0.0316	0.2837	1203.6977	0.157721	-385.818667	-385.809585	-385.808641	-385.852616	34.402	
O	 0.1486628264	 1.5592492669	-0.0692946552	-0.416103
C	 0.0686925733	 0.1359350899	 0.0296724379	-0.181987
C	 0.5551065212	-0.5065833832	-1.1972734817	 0.302961
C	 1.0062962839	-1.0049669399	-2.194298412	-0.466709
C	 0.7914845654	-0.3955582257	 1.2447672581	 0.413662
C	 0.3461913803	-1.6353241199	 1.9673403624	-0.32518
C	 0.3800096705	-0.3318464375	 2.7186164745	-0.11589
C	 1.8201868685	 0.0036581961	 3.1219103344	-0.217523
C	 2.2429980896	-0.0614038482	 1.6158728019	-0.299652
H	 0.9776112156	 1.7720305855	-0.5104669013	 0.287271
H	-1.0010990501	-0.0817416417	 0.1461196681	 0.112168
H	 1.3856160482	-1.4530854794	-3.0793929835	 0.200467
H	-0.6447420934	-1.9938434833	 1.7043782791	 0.111787
H	 1.0578988746	-2.4265709963	 2.1939433474	 0.104385
H	-0.5151273786	 0.0968619434	 3.1533286043	 0.090257
H	 1.9290694178	 1.0075073183	 3.5369684443	 0.10735
H	 2.3024427177	-0.7095729025	 3.7983250398	 0.096847
H	 2.9970920898	-0.8029730201	 1.3350107184	 0.098127
H	 2.5550564492	 0.9174722577	 1.2444174632	 0.097765
56.0604	103.6497	175.9484	187.1537	239.8073	261.1882	308.9286	400.1662	444.7955	478.5057	596.5744	631.753	669.0883	685.5243	755.2113	789.5979	835.0937	887.3167	922.1487	939.1385	957.0161	972.5163	1021.0928	1030.4177	1053.2419	1084.5006	1112.1551	1148.8542	1212.221	1224.3285	1240.7928	1254.8036	1267.2062	1294.3633	1340.3344	1398.2651	1409.6096	1478.1564	1484.9422	1509.5474	2229.7493	3025.2667	3045.9121	3054.3703	3099.168	3101.6193	3117.7053	3180.1564	3192.8356	3501.9612	3820.8636
OC(C#C)C12CC1CC2	O[C@@H](C#C)[C@]12C[C@H]1CC2	
InChI=1S/C8H10O/c1-2-7(9)8-4-3-6(8)5-8/h1,6-7,9H,3-5H2	InChI=1S/C8H10O/c1-2-7(9)8-4-3-6(8)5-8/h1,6-7,9H,3-5H2/t6-,7+,8-/m1/s1
