21
gdb 109890	2.68081	1.3819	1.15008	2.8239	77.86	-0.2369	0.0581	0.2949	1169.3104	0.182406	-424.18863	-424.179657	-424.178713	-424.222468	33.91	
C	 0.1014650012	 1.3372548462	 0.3219631569	-0.387929
C	-0.0001899353	-0.1599387316	 0.0110503019	-0.17514
C	 0.7312448535	-0.5576447713	-1.266397114	-0.008391
C	 2.2993056685	-0.5734725323	-1.2810113197	 0.078103
O	 2.8714668768	-0.3056705507	-0.0175388069	-0.413077
C	 2.2852951772	-2.0617864728	-1.7569287675	-0.134461
C	 2.1936897596	-3.0835912316	-0.6147520068	-0.072586
O	 0.7526054979	-2.9569233244	-0.5462674325	-0.288488
C	 0.7320736934	-2.0531623506	-1.6702828347	 0.089297
H	 1.1444398522	 1.6314373565	 0.4665783965	 0.129935
H	-0.3139899384	 1.9440235252	-0.491293573	 0.102193
H	-0.4493444658	 1.5864674594	 1.2345965737	 0.107411
H	 0.3921543833	-0.7446842701	 0.8467066848	 0.118839
H	-1.0543575454	-0.4473857867	-0.0958278324	 0.091215
H	 0.3690785504	 0.049958327	-2.1049003892	 0.0664
H	 2.7173047327	 0.0976673089	-2.0423360879	 0.067217
H	 3.829600826	-0.311732844	-0.1087462629	 0.285747
H	 2.8644575801	-2.3220845959	-2.6422147312	 0.070061
H	 2.4877470501	-4.1032369871	-0.8935209525	 0.095772
H	 2.6812678506	-2.8004119332	 0.3238183757	 0.108483
H	 0.0443666914	-2.3845142509	-2.4534965983	 0.0694
66.8857	102.0192	161.6206	207.0996	261.1012	264.4034	273.126	308.2712	471.6527	521.1606	577.3978	678.5188	744.0901	790.4899	794.7429	856.5052	910.4465	918.6345	960.029	991.8467	1010.7583	1026.0277	1037.2132	1068.5339	1103.6439	1134.0218	1155.6542	1168.1534	1184.3152	1206.4111	1225.7735	1272.7352	1275.6857	1288.4005	1303.7627	1321.6939	1349.3546	1363.4128	1384.9075	1406.1217	1421.4259	1483.7141	1499.1999	1512.1613	1513.1439	3004.0251	3016.488	3025.6837	3028.4431	3032.3335	3066.4461	3075.3536	3085.3061	3105.1616	3114.2276	3120.1292	3816.9787
CCC1C(O)C2COC12	CC[C@H]1[C@@H](O)[C@H]2CO[C@@H]12	
InChI=1S/C7H12O2/c1-2-4-6(8)5-3-9-7(4)5/h4-8H,2-3H2,1H3	InChI=1S/C7H12O2/c1-2-4-6(8)5-3-9-7(4)5/h4-8H,2-3H2,1H3/t4-,5+,6+,7-/m0/s1
