14
gdb 34954	3.73204	1.57365	1.36307	3.9671	64.27	-0.2693	0.0189	0.2882	905.9681	0.102579	-436.634387	-436.628197	-436.627253	-436.665097	24.545	
N	-0.0289591119	-1.1376481722	-0.0346233073	-0.323954
C	-0.0032700287	 0.0159941186	 0.0275790092	 0.279739
C	 0.0325253926	 1.4682684876	 0.0532091198	-0.154421
C	-0.3204563446	 2.0877807838	 1.433621819	 0.01887
O	 0.6540235678	 1.4569719007	 2.2996543192	-0.270517
C	 1.6209079323	 2.2743143626	 1.6448206094	 0.065008
C	 0.6168271701	 3.3839982556	 1.3287528812	 0.049263
O	 1.0616329834	 3.5338835595	-0.0190006245	-0.27827
C	 1.4399316383	 2.1363029573	 0.0598007073	 0.016228
H	-0.5506945197	 1.8817937014	-0.7727570306	 0.140298
H	-1.3422301059	 2.0587658066	 1.8028930289	 0.111857
H	 2.6027927433	 2.339784189	 2.1061940784	 0.116413
H	 0.3963169422	 4.2956393223	 1.8785302719	 0.11477
H	 2.1984471308	 1.8233436173	-0.652576892	 0.114715
137.8243	156.3251	385.5589	458.5419	486.4221	526.831	608.0607	728.0827	760.4298	785.6398	848.0586	851.4367	882.9236	916.9664	949.619	960.2561	993.0377	1024.994	1031.592	1090.0453	1117.0918	1139.1336	1160.8925	1196.4044	1221.5845	1230.7922	1274.1463	1301.2193	1329.9237	1347.3218	2362.5701	3099.0953	3156.5481	3164.3069	3168.2596	3174.8666
N#CC1C2OC3C2OC13	N#C[C@H]1[C@H]2O[C@@H]3[C@H]2O[C@H]13	
InChI=1S/C6H5NO2/c7-1-2-3-5-6(8-3)4(2)9-5/h2-6H	InChI=1S/C6H5NO2/c7-1-2-3-5-6(8-3)4(2)9-5/h2-6H/t3-,4-,5+,6+/m1/s1
