17
gdb 13592	4.36448	1.196	1.10136	4.0655	66.64	-0.2588	-0.0314	0.2274	1118.3169	0.140815	-400.986182	-400.977665	-400.976721	-401.019562	30.698	
C	 0.1105545493	 1.5711400226	-0.5404210955	-0.405113
C	-0.0416944938	 0.1428087746	-0.0821064408	 0.012775
N	 1.1648860681	-0.6652575216	 0.0169125448	-0.308403
C	 0.4331894668	-0.3583539374	 1.2619907052	-0.153352
C	 1.0969851352	 0.5313899677	 2.2568544495	 0.386906
O	 1.9467837834	 1.3546765381	 1.9840446285	-0.332945
C	 0.6399223179	 0.3934525107	 3.7045362601	-0.134793
O	 1.2777297536	 1.3197111029	 4.5269553336	-0.421078
H	 1.0228947779	 2.0093795217	-0.135155941	 0.165671
H	 0.1617337976	 1.6039668999	-1.6338244627	 0.123681
H	-0.7480627654	 2.172792977	-0.2244649158	 0.117053
H	-0.9454219156	-0.3566589791	-0.4324843575	 0.094215
H	 0.9864117385	-1.6304092692	-0.2480980528	 0.240416
H	-0.1686640331	-1.1484232539	 1.7078512581	 0.09092
H	-0.456521347	 0.5135398383	 3.7369614057	 0.115319
H	 0.8427679418	-0.643864809	 4.0254983814	 0.114148
H	 1.8896155647	 1.7928802168	 3.9385856192	 0.294581
54.6506	115.5858	170.8832	191.7423	238.064	306.4341	369.3797	400.4677	419.5009	459.352	583.9301	699.9235	767.635	836.1296	868.8296	928.1616	989.6035	1006.5167	1036.3121	1076.6084	1084.3066	1148.1339	1159.22	1193.0598	1238.4878	1242.6043	1260.1039	1308.809	1399.8067	1433.8315	1448.4671	1466.1655	1491.4459	1496.1863	1501.4659	1791.1951	2956.3396	2975.8805	3041.2219	3100.3675	3101.0091	3123.8631	3157.6296	3505.5993	3665.8372
CC1NC1C(=O)CO	C[C@H]1N[C@H]1C(=O)CO	
InChI=1S/C5H9NO2/c1-3-5(6-3)4(8)2-7/h3,5-7H,2H2,1H3	InChI=1S/C5H9NO2/c1-3-5(6-3)4(8)2-7/h3,5-7H,2H2,1H3/t3-,5-/m1/s1
