16
gdb 74087	2.99406	1.41051	1.03082	6.5426	75.49	-0.2217	-0.0222	0.1995	1122.1914	0.124522	-437.907756	-437.899705	-437.898761	-437.940361	30.711	
N	 0.0529725307	 1.329993308	 0.0514735402	-0.577333
C	-0.0243748671	-0.0223371062	 0.0136448943	 0.384358
C	-1.1427749438	-0.7963465505	-0.0246123655	-0.335838
C	-0.7926804025	-2.2059848625	 0.0032511198	 0.350396
O	-1.5109265822	-3.1842288752	-0.0166539737	-0.367004
C	 0.7353311436	-2.2680381861	 0.0759236285	 0.328879
C	 1.4093060192	-3.4292511891	 0.6681468797	-0.237898
O	 1.3833150443	-3.2394446432	-0.745102766	-0.264252
C	 1.2503156921	-0.8377820522	 0.0733370241	-0.420713
H	 0.9330377098	 1.7823247892	-0.1296380954	 0.265444
H	-0.7721677595	 1.8809136992	-0.1190947818	 0.267573
H	-2.1628813659	-0.4379440681	-0.0687783736	 0.098701
H	 2.3814032144	-3.301197327	 1.1438502758	 0.107772
H	 0.7933974053	-4.2487304571	 1.0340597165	 0.13538
H	 1.8859926644	-0.6545234148	-0.8011443754	 0.136572
H	 1.8348913771	-0.5834358542	 0.9653146624	 0.127963
71.7674	164.5265	252.6516	273.5994	288.569	323.9618	375.6434	455.019	475.9954	558.1525	561.4564	625.3816	721.2544	743.0188	843.0101	858.2922	885.3093	908.0107	951.3567	1023.2487	1072.945	1127.9855	1132.2592	1170.9431	1178.4527	1240.6283	1258.8475	1292.4089	1414.4441	1418.9663	1469.268	1513.1341	1632.5638	1677.1695	1801.9819	3032.4799	3069.9123	3079.9019	3177.8987	3217.8631	3601.8152	3716.9009
NC1=CC(=O)C2(CO2)C1	NC1=CC(=O)[C@]2(CO2)C1	
InChI=1S/C6H7NO2/c7-4-1-5(8)6(2-4)3-9-6/h1H,2-3,7H2	InChI=1S/C6H7NO2/c7-4-1-5(8)6(2-4)3-9-6/h1H,2-3,7H2/t6-/m1/s1
