14
gdb 20429	6.14302	1.54274	1.3083	2.7224	64.14	-0.2371	-0.0029	0.2342	897.6327	0.108668	-378.680477	-378.67406	-378.673116	-378.711513	23.833	
C	-0.1118464045	 1.3657855779	-0.244173084	-0.234039
C	 1.2874964567	 0.9188166602	 0.0093530979	-0.217507
N	 0.1857892393	-0.0329757808	 0.0806959999	-0.146085
C	-0.1885525868	-0.5373783373	 1.3228130034	 0.423064
N	 0.6856678814	-0.7347014923	 2.2868098071	-0.21307
O	-0.0372507774	-1.32517856	 3.3262719695	-0.16981
C	-1.3171371353	-1.4485622478	 2.9482547377	 0.097727
C	-1.4975580314	-0.9749053299	 1.6930451204	-0.345077
H	-0.5908139564	 1.9689655383	 0.5230000811	 0.129281
H	-0.4609469927	 1.5391414585	-1.2573730237	 0.126654
H	 1.9684024642	 0.7690305485	-0.8224391304	 0.127383
H	 1.7510376428	 1.2126280983	 0.9458714647	 0.148003
H	-1.9797413508	-1.894767068	 3.6742678172	 0.150411
H	-2.3989445291	-0.9434453956	 1.1052198994	 0.123064
72.0841	168.2779	211.152	386.2228	490.1794	580.806	601.2886	737.8529	795.0265	820.2057	871.1556	891.6992	908.0428	919.6961	947.8163	1015.0195	1044.4332	1076.4079	1118.3028	1135.6445	1164.4747	1176.6349	1182.6484	1245.9384	1349.529	1443.5221	1492.202	1514.5002	1517.7841	1613.1997	3112.4196	3126.5886	3200.9823	3219.6286	3258.6456	3289.7721
C1CN1C1=NOC=C1	C1CN1c1nocc1	
InChI=1S/C5H6N2O/c1-4-8-6-5(1)7-2-3-7/h1,4H,2-3H2	InChI=1S/C5H6N2O/c1-4-8-6-5(1)7-2-3-7/h1,4H,2-3H2
