15
gdb 125472	5.33603	1.29871	1.05134	1.1761	75.15	-0.2095	0.0024	0.2118	1083.7692	0.116241	-413.026271	-413.019063	-413.018119	-413.057809	27.614	
C	-0.0216598632	 1.4645297518	 0.0660294783	-0.502375
C	-0.0029086405	-0.0226520005	-0.042797897	 0.322505
N	-0.0517238025	-0.6948133224	-1.1675119277	-0.393045
C	-0.0084278799	-2.0236218173	-0.7693859552	 0.221198
C	-0.0093046351	-3.3399297419	-1.1954997293	-0.180636
N	 0.0640164917	-4.0779939752	-0.0486167459	-0.18862
N	 0.1139798523	-3.3571236984	 1.1121567615	-0.374027
C	 0.068148201	-2.1232064607	 0.636270725	 0.418945
N	 0.0712463615	-0.8257893013	 1.0958150744	-0.431915
H	 0.8843102054	 1.8437578912	 0.5529220004	 0.135198
H	-0.0835537162	 1.8883019148	-0.9364144887	 0.160481
H	-0.8811073982	 1.8144589524	 0.6495935302	 0.135111
H	-0.0530885731	-3.8105666641	-2.1637840933	 0.135556
H	 0.0842788051	-5.0804486579	 0.0202435768	 0.274482
H	 0.1159041217	-0.5061138004	 2.0474614403	 0.267142
107.4973	153.7711	290.3209	319.9184	351.9865	394.9592	450.4702	536.8187	580.0935	633.0581	672.4888	747.929	766.6433	788.9733	844.2487	959.0725	979.9028	1018.9285	1037.2601	1060.1292	1172.33	1186.6007	1259.0949	1318.9642	1386.1309	1409.2152	1456.6481	1469.5099	1480.4573	1485.6321	1532.8358	1588.022	1673.2448	3031.6387	3081.7532	3155.3939	3272.4755	3681.1284	3688.1637
CC1=NC2=CNN=C2N1	Cc1nc2c[nH]nc2[nH]1	
InChI=1S/C5H6N4/c1-3-7-4-2-6-9-5(4)8-3/h2H,1H3,(H2,6,7,8,9)	InChI=1S/C5H6N4/c1-3-7-4-2-6-9-5(4)8-3/h2H,1H3,(H2,6,7,8,9)
