23
gdb 110605	2.95433	1.21108	1.07486	0.1742	89.87	-0.2518	0.0954	0.3472	1277.8543	0.205888	-351.120274	-351.111228	-351.110284	-351.153817	35.496	
C	 0.2588469288	 1.4743550768	 0.126777155	-0.37532
C	-0.1911499231	 0.0305320083	-0.1295850064	-0.20934
C	 0.5934999082	-0.6203833217	-1.2526013892	 0.005499
C	 1.9470984853	-1.2663485856	-1.0962515186	-0.078008
C	 2.056398471	-2.0982942156	 0.1588755159	-0.11095
C	 2.2109245747	-3.5546652649	-0.2028169588	-0.330976
C	 0.8352346068	-2.9363993612	-0.270733072	 0.362808
C	-0.3192380227	-3.4652333451	 0.5382544747	-0.495569
C	 0.7197321103	-2.1002822477	-1.5291370859	-0.167804
H	 1.3170112622	 1.5110015548	 0.4064305161	 0.118166
H	 0.133255632	 2.0938015421	-0.768444991	 0.111385
H	-0.3197797235	 1.9349053855	 0.9336700993	 0.108263
H	-0.0835279837	-0.5522351793	 0.7897566692	 0.10404
H	-1.2598497429	 0.0192805545	-0.3814427372	 0.091491
H	 0.5315586311	-0.0546561449	-2.1838056961	 0.076789
H	 2.7898036352	-0.9833797722	-1.7184536548	 0.080136
H	 2.290822976	-1.7318052086	 1.1527377753	 0.080984
H	 2.7407513052	-3.8344394199	-1.1101528106	 0.10041
H	 2.3717191497	-4.2313089527	 0.6325993072	 0.101934
H	 0.0158991	-3.8402179062	 1.5111464508	 0.113811
H	-1.0786473256	-2.69748506	 0.7163965311	 0.11949
H	-0.8095730173	-4.298205225	 0.0194951764	 0.117144
H	 0.5211231623	-2.5018063115	-2.5183269506	 0.075614
72.8358	135.6772	165.1299	206.4711	239.4176	259.7633	319.4366	360.6683	417.2467	520.1661	608.7633	629.8479	722.0757	770.5783	799.1412	808.964	841.8458	896.9004	899.9291	942.2951	975.082	994.7215	1004.7507	1019.0037	1043.7444	1061.8863	1067.7479	1085.1749	1099.7949	1109.8422	1122.0924	1141.1418	1212.9614	1227.2282	1271.4254	1292.3946	1312.5098	1331.2032	1351.4692	1378.0376	1407.3529	1420.2962	1449.4684	1483.0993	1488.2724	1496.2038	1497.7373	1502.3876	1506.0704	3021.1506	3024.3141	3029.5689	3074.8256	3081.8592	3094.3188	3101.2433	3103.2737	3104.3988	3105.8162	3148.9828	3160.3648	3165.6475	3188.4972
CCC1C2C3CC3(C)C12	CC[C@H]1[C@H]2[C@@H]3C[C@]3(C)[C@@H]12	
InChI=1S/C9H14/c1-3-5-7-6-4-9(6,2)8(5)7/h5-8H,3-4H2,1-2H3	InChI=1S/C9H14/c1-3-5-7-6-4-9(6,2)8(5)7/h5-8H,3-4H2,1-2H3/t5-,6-,7-,8-,9-/m0/s1
