18
gdb 93037	2.88885	1.61582	1.13637	1.8097	73.88	-0.2313	0.0204	0.2517	1079.8592	0.148368	-439.074965	-439.067157	-439.066212	-439.10722	30.324	
C	-0.650258835	 1.2665067265	 0.1631333685	-0.405762
C	 0.3178612887	 0.1210111308	-0.0433351386	 0.213987
O	 1.2384893697	 0.5496822657	-1.0587202152	-0.229902
C	 2.2810063913	-0.2347890094	-1.4280355964	 0.125187
N	 2.7755842389	-1.2995833824	-0.9643697301	-0.262333
C	 2.343046163	-2.0118840278	 0.1917768976	-0.00046
C	 2.89774607	-1.6428015827	 1.5547438224	-0.315748
C	 1.434917817	-1.4652806663	 1.2701165295	 0.063427
O	 0.9727296173	-0.1475357326	 1.1586841101	-0.24404
H	-0.1115600665	 2.1310551635	 0.5587189976	 0.141379
H	-1.1188003801	 1.5409537469	-0.784234925	 0.130893
H	-1.4228173668	 0.9719495582	 0.8768332202	 0.127944
H	-0.1878398728	-0.7833250724	-0.4112279596	 0.083688
H	 2.7486734294	 0.2189625671	-2.3015223892	 0.12311
H	 2.2647577297	-3.0789758243	 0.0003238077	 0.104418
H	 3.2158527418	-2.4330703199	 2.2248274477	 0.117223
H	 3.4790440104	-0.7289127997	 1.6030869026	 0.134005
H	 0.717274264	-2.1398258212	 1.7356070801	 0.092987
96.0353	150.9628	220.4372	264.7304	316.2768	359.4968	418.2419	430.1943	538.2338	575.0305	695.9623	756.3644	785.9621	813.0538	847.8698	865.8977	932.4304	965.4191	1025.4245	1037.677	1061.7777	1081.3379	1093.6548	1126.6406	1138.0002	1166.8536	1182.7989	1211.4095	1250.3464	1362.8972	1376.1635	1388.0428	1408.2357	1427.8585	1439.0035	1474.1672	1482.9227	1488.4606	1758.7863	3004.5897	3059.2387	3106.1549	3135.0138	3141.1146	3141.6666	3143.7265	3143.9536	3235.48
CC1OC=NC2CC2O1	C[C@H]1OC=N[C@H]2C[C@H]2O1	
InChI=1S/C6H9NO2/c1-4-8-3-7-5-2-6(5)9-4/h3-6H,2H2,1H3	InChI=1S/C6H9NO2/c1-4-8-3-7-5-2-6(5)9-4/h3-6H,2H2,1H3/t4-,5-,6+/m0/s1
