17
gdb 88503	2.3921	1.50842	1.16363	3.799	73.18	-0.2422	-0.0044	0.2379	1097.3467	0.134547	-417.954064	-417.945303	-417.944358	-417.987775	31.911	
C	-0.2815726392	 1.4487303604	-0.0603561779	-0.338544
N	 0.0026384197	 0.0191743287	 0.0445759106	-0.081784
C	 1.3708802593	-0.4240240069	-0.1935264773	-0.258111
C	 0.7821621484	-0.4770111844	 1.1737827307	-0.089231
C	 1.3163725709	 0.4237742862	 2.2575764651	 0.220649
C	 2.7275725722	 0.3276077511	 2.6949939976	-0.20439
O	 2.2755677784	 1.4249979106	 1.9071702204	-0.241661
C	 0.3332395897	 0.8545797322	 3.2412151229	 0.272953
N	-0.4654241653	 1.1705652536	 4.014320564	-0.327434
H	 0.5509908829	 2.1004068635	 0.2382437252	 0.131718
H	-0.5360784497	 1.6695376928	-1.1010154895	 0.129376
H	-1.1516586206	 1.6854777256	 0.5590636943	 0.141566
H	 1.4861145452	-1.3365648951	-0.772227525	 0.121189
H	 2.1301550997	 0.3368137024	-0.363072203	 0.129677
H	 0.4248721421	-1.4258208374	 1.5722861257	 0.112907
H	 2.9878854063	 0.5673203991	 3.7231696607	 0.144753
H	 3.3710943001	-0.3850861724	 2.1835515655	 0.136366
57.533	125.19	175.0251	195.6163	232.8273	252.8195	313.2295	370.3536	470.2992	483.3397	578.2623	593.0484	697.2266	772.6103	853.3073	872.7489	915.1193	955.9617	1016.731	1051.5923	1091.1062	1128.7957	1133.0285	1136.0118	1169.5077	1176.5346	1207.4048	1214.7962	1324.5896	1354.0828	1404.498	1451.0017	1491.5829	1502.775	1505.6441	1515.4566	2359.0782	3009.1418	3086.0359	3099.4129	3099.9439	3113.4635	3114.8416	3188.3248	3199.6132
CN1CC1C1(CO1)C#N	CN1C[C@H]1[C@]1(CO1)C#N	
InChI=1S/C6H8N2O/c1-8-2-5(8)6(3-7)4-9-6/h5H,2,4H2,1H3	InChI=1S/C6H8N2O/c1-8-2-5(8)6(3-7)4-9-6/h5H,2,4H2,1H3/t5-,6+,8?/m0/s1
