19
gdb 119598	4.29819	0.99569	0.89324	2.3812	77.57	-0.2429	0.0057	0.2487	1355.5159	0.158371	-423.000958	-422.992369	-422.991425	-423.034675	31.894	
C	-0.2134082747	 1.369532225	 0.0839105325	-0.220581
O	-0.1007273812	-0.0328653803	 0.0493233883	-0.236148
C	 0.7177926742	-0.5419398485	 1.0810794934	-0.17036
C	 0.78951408	-2.0330136155	 0.9400765081	 0.399285
O	-0.243367059	-2.799175615	 1.6120441161	-0.295782
C	 1.1113524088	-2.9732706584	 2.0302377416	-0.04002
C	 1.8096154618	-4.1863740609	 1.4235836407	-0.295387
C	 1.789828038	-3.8806535098	-0.0616735573	-0.076482
C	 1.2521661575	-2.6877081919	-0.3251843091	-0.132491
H	 0.7666108049	 1.8616252741	-0.0257384825	 0.102248
H	-0.8535633645	 1.6665595747	-0.7500532094	 0.129628
H	-0.6684659634	 1.7194682098	 1.02390125	 0.106565
H	 1.7324760022	-0.1111765462	 1.0103806928	 0.089134
H	 0.3107183695	-0.2869195137	 2.0720834371	 0.097658
H	 1.3295984875	-2.6571192641	 3.0477127868	 0.091532
H	 2.8320851483	-4.2901787946	 1.8092684653	 0.111562
H	 1.2818770181	-5.117191779	 1.6641919392	 0.126874
H	 2.1448424957	-4.5875304357	-0.8032490782	 0.10113
H	 1.1178794863	-2.2355783499	-1.2986383555	 0.111635
68.3413	95.9843	126.1265	225.7535	272.4275	288.6274	343.8689	380.5504	466.6624	513.8921	707.5587	726.6058	749.1939	798.052	860.8416	910.8442	933.7129	956.4558	965.3073	992.4631	1015.6957	1039.878	1064.2324	1128.5502	1155.6752	1183.867	1187.1825	1219.9313	1235.128	1276.4665	1284.4162	1309.5496	1367.0365	1402.2215	1455.6334	1462.618	1480.8304	1485.7869	1495.7215	1518.1435	1664.2245	2946.5148	2969.1844	2999.4055	3012.8886	3027.13	3063.3182	3116.865	3138.9418	3193.7873	3232.6215
COCC12OC1CC=C2	COC[C@]12O[C@H]1CC=C2	
InChI=1S/C7H10O2/c1-8-5-7-4-2-3-6(7)9-7/h2,4,6H,3,5H2,1H3	InChI=1S/C7H10O2/c1-8-5-7-4-2-3-6(7)9-7/h2,4,6H,3,5H2,1H3/t6-,7-/m0/s1
