16
gdb 127795	3.39025	1.38753	1.06046	4.2088	71.76	-0.2517	-0.0125	0.2392	1094.3889	0.125339	-434.038372	-434.030452	-434.029507	-434.071475	28.429	
C	 0.3500465826	 1.3756819365	 0.1031479228	-0.344983
N	 0.1059128289	-0.0568188163	 0.1109002098	-0.04107
N	-0.095415042	-0.6911625482	-1.0641211515	-0.142712
N	-0.2948904847	-1.9525081488	-0.8113513249	-0.18964
C	-0.2325725435	-2.1420813482	 0.5308112136	-0.155282
C	 0.0280601209	-0.9358478085	 1.1469176048	 0.344859
C	 0.1881275919	-0.6440374193	 2.5821620652	-0.022119
C	 1.1985605855	 0.2650203733	 3.1519879926	-0.194587
O	-0.1725415826	 0.6567528824	 3.0701059804	-0.231457
H	 1.4226264831	 1.588101754	 0.1564025643	 0.142574
H	-0.0399477411	 1.7647557336	-0.8370966571	 0.166132
H	-0.1564717174	 1.8349785137	 0.9510594987	 0.174167
H	-0.3790723272	-3.1123125725	 0.9786552097	 0.125296
H	-0.1516823053	-1.4624246884	 3.2155238268	 0.115997
H	 1.5725018185	 0.0794297185	 4.1574351975	 0.131427
H	 1.8805847426	 0.7973796884	 2.4921064275	 0.121397
70.9599	102.3765	175.5825	194.6477	227.821	342.3259	420.9819	439.0808	668.2189	700.54	717.0938	719.5968	839.4069	853.6482	904.9779	979.2584	996.4557	1037.6368	1096.1058	1144.661	1152.0531	1155.1854	1170.8553	1225.5021	1263.4115	1295.7707	1309.9329	1316.3771	1418.7055	1436.9866	1480.4449	1499.3119	1512.4947	1524.4809	1596.2912	3050.9527	3092.4886	3123.2605	3135.7137	3179.445	3182.891	3263.7336
CN1N=NC=C1C1CO1	Cn1nncc1[C@H]1CO1	
InChI=1S/C5H7N3O/c1-8-4(2-6-7-8)5-3-9-5/h2,5H,3H2,1H3	InChI=1S/C5H7N3O/c1-8-4(2-6-7-8)5-3-9-5/h2,5H,3H2,1H3/t5-/m1/s1
