13
gdb 51454	3.29961	1.11432	0.91447	5.2049	61.27	-0.2602	-0.0563	0.204	1199.6008	0.086542	-493.673335	-493.665464	-493.66452	-493.707406	27.133	
O	-0.0009411328	-0.0219429319	 0.0189158028	-0.2585
C	 0.0226475927	 1.1668893499	-0.0275366045	 0.179797
O	 1.1816392084	 1.8707080819	-0.0479727666	-0.186555
C	 1.1064209994	 3.2726608941	-0.1343206042	 0.000161
C	 2.1694613546	 4.0556499802	 0.6357426811	-0.000078
O	 3.4195917402	 3.7359592711	 0.0472552639	-0.21616
C	 2.6387659876	 4.7745077417	-0.5815026065	-0.120956
C	 1.6427162248	 3.9954331828	-1.4326818285	 0.397048
O	 1.297027258	 3.9979475154	-2.5713131932	-0.278043
H	-0.8724404239	 1.8182766947	-0.0526070803	 0.086964
H	 0.0875041604	 3.6356036683	 0.0632789301	 0.119167
H	 2.1542118166	 4.4074282713	 1.6596210269	 0.135337
H	 3.0854099741	 5.7534521705	-0.696546161	 0.141817
31.6934	103.0867	135.0564	187.8037	245.7915	327.003	460.4667	530.1501	596.2106	706.1203	774.2855	822.0463	848.5923	891.8144	935.7087	982.8028	1028.7251	1036.835	1057.86	1114.2085	1166.3332	1186.0977	1211.2723	1258.9239	1345.0258	1372.4641	1438.2402	1880.0306	1918.8669	2952.8228	3016.8978	3205.0295	3219.4924
O=COC1C2OC2C1=O	O=CO[C@H]1[C@H]2O[C@H]2C1=O	
InChI=1S/C5H4O4/c6-1-8-3-2(7)4-5(3)9-4/h1,3-5H	InChI=1S/C5H4O4/c6-1-8-3-2(7)4-5(3)9-4/h1,3-5H/t3-,4+,5-/m1/s1
