19
gdb 107732	3.86711	1.20294	1.11909	2.1173	75.42	-0.238	0.0742	0.3123	1149.7483	0.157855	-422.958171	-422.949695	-422.948751	-422.991008	32.824	
C	 0.1734996054	 1.2495974135	 0.2088016756	-0.25806
O	-0.1749013606	-0.0565139769	-0.2209655635	-0.282351
C	 0.5598730884	-0.493222659	-1.295096892	 0.457468
C	 0.4065669177	-0.0818855489	-2.7606711805	-0.378573
C	 1.2461552983	-1.3669582387	-3.0527562576	 0.388012
O	 1.0599847461	-2.1059130329	-4.2092543033	-0.476473
C	 2.6625261548	-1.041306494	-2.4907563286	-0.298754
C	 1.9836237237	-1.0686235165	-1.122130759	-0.134755
C	 0.8367094723	-1.924694353	-1.6327142265	-0.217699
H	 1.2314104272	 1.3070425639	 0.4995484167	 0.111056
H	-0.0150917645	 1.9972369812	-0.5742362605	 0.113
H	-0.4524589203	 1.4775673995	 1.0741466651	 0.127575
H	-0.6259212348	-0.2141352081	-3.0953595675	 0.107877
H	 0.8058476921	 0.8804056582	-3.1031114594	 0.081543
H	 1.3017114877	-1.5566517097	-4.9636809569	 0.280855
H	 3.3358286539	-1.8937717662	-2.6208894889	 0.104645
H	 3.1500373875	-0.1191309161	-2.8304816038	 0.081073
H	 2.4355652466	-1.1181354143	-0.1400646621	 0.090836
H	 0.4117230185	-2.857302792	-1.2944952871	 0.102726
91.5085	163.0191	168.762	184.8949	293.6099	322.1704	379.4392	436.8988	452.5048	476.254	605.0764	632.1017	740.687	743.9868	821.1682	879.2053	905.2278	931.9443	954.1097	965.3193	1005.645	1036.8728	1073.4375	1094.4518	1108.0456	1134.5044	1145.1644	1179.1796	1183.2778	1211.3125	1233.458	1237.7542	1259.1482	1322.1682	1377.0708	1406.4656	1480.3434	1486.9754	1495.5688	1506.6208	1513.3497	2994.8471	3019.9543	3028.8711	3049.3397	3093.3606	3104.9043	3123.6279	3202.224	3239.1093	3795.3893
COC12CC3(O)CC1C23	CO[C@@]12C[C@@]3(O)C[C@@H]1[C@@H]23	
InChI=1S/C7H10O2/c1-9-7-3-6(8)2-4(7)5(6)7/h4-5,8H,2-3H2,1H3	InChI=1S/C7H10O2/c1-9-7-3-6(8)2-4(7)5(6)7/h4-5,8H,2-3H2,1H3/t4-,5-,6+,7+/m1/s1
