22
gdb 109931	2.12715	1.37373	1.02374	3.1619	79.23	-0.2151	0.0624	0.2775	1276.3498	0.192001	-441.454846	-441.444467	-441.443523	-441.490067	38.588	
C	 0.0765110702	 1.5649107575	 0.262538783	-0.330803
N	 0.1437610615	 0.1193756129	 0.1708474884	-0.097765
C	-1.1216038535	-0.6260995443	 0.336164849	-0.212966
C	-0.4159940989	-1.6165082159	 1.3085911075	 0.369839
C	-1.0895784144	-1.8659737434	 2.6495291316	-0.453325
O	-0.0325041961	-2.8387265789	 0.6993861135	-0.473747
C	 0.7799369612	-0.6162039052	 1.2922239203	 0.003971
C	 2.1783701798	-1.122936849	 0.9443770788	-0.079159
O	 2.9714438326	-0.0608011792	 0.4301878019	-0.426791
H	 1.0887209593	 1.9765772985	 0.3025813226	 0.128671
H	-0.4283138177	 1.9731877909	-0.6198975081	 0.117619
H	-0.4685801801	 1.9167800947	 1.1596650411	 0.088856
H	-1.9158267918	-0.0375473965	 0.8211962745	 0.082333
H	-1.514166104	-1.0647712326	-0.5883216986	 0.096415
H	-2.0182260776	-2.4363000467	 2.5172481085	 0.107195
H	-0.4279568037	-2.4413716632	 3.3047410122	 0.12878
H	-1.3463927908	-0.9281473693	 3.1500792161	 0.120658
H	-0.811786584	-3.402341663	 0.6481188992	 0.277312
H	 0.8146223581	-0.0171395272	 2.2154905632	 0.055597
H	 2.6898901493	-1.4954911819	 1.8377546231	 0.101267
H	 2.1013757718	-1.946360539	 0.2261204883	 0.109358
H	 2.5393429389	 0.2013588408	-0.3912855259	 0.286685
57.3447	73.4329	180.0383	218.0783	227.1263	242.9787	247.9968	299.9721	302.1029	341.7509	362.638	410.5656	472.1878	535.5773	543.4378	605.8297	793.9913	843.0715	893.6441	942.0646	970.631	988.2675	1019.8696	1059.3023	1097.5707	1103.746	1118.982	1158.3179	1170.498	1204.4063	1214.7304	1233.9067	1257.9104	1294.7643	1316.0298	1358.2381	1384.9156	1399.7253	1407.2949	1425.0254	1452.6964	1489.3465	1489.7308	1493.0352	1502.0053	1506.3875	1509.2668	2922.3761	2974.6398	2981.9716	3021.1941	3041.457	3052.1566	3058.3744	3088.8441	3091.4845	3111.6122	3115.8344	3791.7161	3806.4527
CN1CC(C)(O)C1CO	CN1C[C@@](C)(O)[C@H]1CO	
InChI=1S/C6H13NO2/c1-6(9)4-7(2)5(6)3-8/h5,8-9H,3-4H2,1-2H3	InChI=1S/C6H13NO2/c1-6(9)4-7(2)5(6)3-8/h5,8-9H,3-4H2,1-2H3/t5-,6-/m1/s1
