17
gdb 103482	2.33529	1.48906	1.24571	1.6067	63.94	-0.2258	0.039	0.2647	1062.2961	0.134193	-496.028033	-496.019444	-496.0185	-496.060959	33.037	
O	 0.1219961141	 0.8937850411	 0.7777028998	-0.423974
C	-0.1886811195	 0.283684125	-0.4797492261	-0.173866
C	-1.4628705895	-0.5133880115	-0.3540809828	 0.297066
O	-2.504699838	 0.2347099111	 0.2352171522	-0.490253
C	-1.9702834009	-1.514359527	-1.3548186591	-0.069047
O	-0.8655316	-2.2440766001	-1.9086619181	-0.286934
C	-0.56638001	-2.848838803	-0.6171403563	-0.146206
C	-1.603597811	-1.9777390928	 0.05706383	 0.278324
O	-2.3243360116	-2.3642903135	 1.1569600016	-0.457516
H	 0.428097297	 0.2008526283	 1.373227242	 0.292755
H	-0.3398593553	 1.1148857068	-1.1763772156	 0.127164
H	 0.6334797331	-0.3312007932	-0.8593032662	 0.121462
H	-2.0520343662	 0.8199500202	 0.8611304091	 0.296487
H	-2.8827531661	-1.4187702686	-1.9324348654	 0.118003
H	-0.8342138398	-3.9115968625	-0.6161132221	 0.125466
H	 0.4858499743	-2.7313430159	-0.3308894864	 0.100163
H	-2.8292415408	-1.5801998743	 1.4206359235	 0.290908
97.1219	137.5606	219.0729	237.5753	285.0588	318.7214	363.0854	408.3745	436.3223	464.6285	512.3522	558.5054	601.4692	685.2302	702.7297	811.5578	903.6397	959.0425	970.5846	1011.7956	1020.3747	1039.9826	1049.9746	1080.6829	1130.2773	1149.022	1206.2741	1215.3867	1270.0384	1305.6074	1349.9879	1372.7145	1408.3559	1439.5524	1487.5871	1499.4826	1521.5392	3020.6751	3048.7807	3072.0104	3095.093	3180.5375	3719.5364	3729.4752	3806.6133
OCC1(O)C2OCC12O	OC[C@@]1(O)[C@H]2OC[C@@]12O	
InChI=1S/C5H8O4/c6-1-4(7)3-5(4,8)2-9-3/h3,6-8H,1-2H2	InChI=1S/C5H8O4/c6-1-4(7)3-5(4,8)2-9-3/h3,6-8H,1-2H2/t3-,4-,5+/m1/s1
