16
gdb 66983	2.70257	1.69113	1.29142	2.9633	68.69	-0.2309	-0.0328	0.1981	978.1552	0.123476	-437.796794	-437.789268	-437.788324	-437.828858	29.01	
O	-0.2520132758	 1.3264789117	 0.0222735315	-0.45511
C	-0.0199207475	-0.0265822125	-0.0164315237	 0.331701
C	-0.2305619157	-0.8900589515	-1.2863415789	-0.156863
C	 0.4846036317	-2.1988293017	-1.0193999335	-0.187742
N	 0.0472812631	-2.090062928	 0.4407069842	-0.17974
C	-1.0468462679	-1.1086732588	-0.0389033024	-0.074402
C	 0.8112612709	-0.8879152135	 0.9502401383	-0.111019
C	 2.3158091032	-0.8425787401	 0.9507622067	 0.135346
O	 3.0673031629	-1.6797062495	 0.5175431222	-0.246499
H	 0.3684036127	 1.7682341099	-0.5681688585	 0.295667
H	-0.5421376415	-0.4198831762	-2.2117385821	 0.096169
H	-0.0301394642	-3.0551545088	-1.4629281348	 0.113651
H	 1.5602102831	-2.2871711612	-1.1685517138	 0.136861
H	-2.0977577892	-1.1615255512	 0.2052034063	 0.112441
H	 0.4820051173	-0.6816769212	 1.9776251199	 0.110022
H	 2.7106400167	 0.0911905626	 1.4188540285	 0.079516
81.2436	181.9857	213.229	276.7675	335.3266	363.4002	413.5012	509.0436	591.7151	678.0501	726.9564	761.2206	836.4898	845.5964	853.09	931.3302	933.7501	955.8545	998.118	1022.8007	1067.217	1103.4784	1108.0326	1120.2606	1159.8135	1195.2918	1211.6992	1250.8005	1282.3424	1318.7483	1361.3225	1425.8171	1444.8289	1521.7736	1823.0457	2843.7335	3027.2865	3069.8605	3148.6865	3184.0464	3227.5316	3794.5654
OC12C3CN(C13)C2C=O	O[C@]12[C@H]3CN([C@@H]13)[C@H]2C=O	
InChI=1S/C6H7NO2/c8-2-4-6(9)3-1-7(4)5(3)6/h2-5,9H,1H2	InChI=1S/C6H7NO2/c8-2-4-6(9)3-1-7(4)5(3)6/h2-5,9H,1H2/t3-,4-,5+,6-/m0/s1
