22
gdb 62494	1.98683	1.42135	1.16521	4.3963	87.89	-0.2723	0.0348	0.3071	1229.8864	0.191285	-367.236042	-367.225251	-367.224307	-367.271072	39.71	
C	-0.0910810026	 1.536514855	-0.0011829333	-0.457547
C	-0.0135242803	 0.0184129576	 0.0335979072	 0.266976
C	-1.2138515296	-0.6230311804	-0.6449553253	-0.453889
C	 1.3477680831	-0.6576832795	-0.1966871252	-0.279137
C	 2.5277469199	 0.1198495957	-0.4359360985	 0.299422
N	 3.4782098673	 0.7542172604	-0.6240652329	-0.358617
C	 0.6804461992	-0.6794122802	 1.1880264669	 0.266953
C	 1.2985470195	 0.1391725927	 2.3103812093	-0.457483
C	 0.1849962772	-2.0296501492	 1.6820591661	-0.453881
H	 0.8232787324	 2.0245470602	 0.3364195515	 0.140798
H	-0.2815937718	 1.8778993962	-1.0242708143	 0.125157
H	-0.9182806595	 1.8898939256	 0.6245748829	 0.119211
H	-1.3191160883	-0.2361665105	-1.6642782937	 0.126083
H	-1.1425490821	-1.7098300789	-0.7124604283	 0.119055
H	-2.1363138775	-0.3808152807	-0.1046196139	 0.12327
H	 1.3290196503	-1.591885315	-0.7501287034	 0.120096
H	 1.7988120133	 1.0428961502	 1.9622353869	 0.140735
H	 0.5309424181	 0.4312370634	 3.0357765065	 0.119199
H	 2.0452186314	-0.4597596651	 2.8426507662	 0.125187
H	 0.9959923841	-2.5639439117	 2.1885963078	 0.126074
H	-0.6264938884	-1.8999285494	 2.4074688219	 0.123268
H	-0.1827706358	-2.6742429062	 0.8820422354	 0.119069
117.7874	133.5731	135.3542	154.2818	171.0826	176.5479	194.8751	283.3044	315.5369	359.0671	385.5336	395.6909	423.1902	459.3167	554.2858	591.5588	664.7912	704.7249	834.0919	941.254	960.0738	963.5579	971.9093	995.8954	1027.2514	1045.6269	1086.3668	1141.1063	1150.3991	1186.3756	1216.4877	1296.6385	1322.2501	1405.406	1413.711	1414.6917	1418.9372	1439.5867	1474.5327	1480.0709	1487.1982	1492.257	1496.6377	1500.4511	1514.4739	1522.6788	2341.9779	3030.4548	3033.8469	3035.6949	3040.619	3088.6455	3090.0748	3093.4116	3094.7844	3119.4078	3135.0171	3136.3554	3150.9047	3152.7162
CC1(C)C(C#N)C1(C)C	CC1(C)C(C#N)C1(C)C	
InChI=1S/C8H13N/c1-7(2)6(5-9)8(7,3)4/h6H,1-4H3	InChI=1S/C8H13N/c1-7(2)6(5-9)8(7,3)4/h6H,1-4H3
