19
gdb 54708	4.40011	1.16069	1.06323	2.4843	80.37	-0.2351	-0.0113	0.2238	1186.3945	0.158647	-385.832806	-385.824832	-385.823887	-385.866025	30.43	
C	 0.00173555	 1.4826750204	-0.3716617709	-0.480787
C	 0.145240937	 0.0123761833	-0.0177002685	 0.364777
O	 1.2293155355	-0.4989404233	 0.164336021	-0.308911
C	-1.140494745	-0.7801041783	 0.0716658425	-0.128501
C	-1.5154536087	-1.6670421113	-1.1545952778	-0.045605
C	-0.5183493289	-2.8068103034	-0.745307999	-0.028747
C	-1.614718465	-3.8870396716	-0.8334730375	-0.270562
C	-2.3381107024	-2.6537418356	-0.2601301108	-0.050899
C	-1.0938990968	-2.228905605	 0.5957230552	-0.037346
H	 0.9840370548	 1.9271401489	-0.5360152884	 0.139763
H	-0.621466745	 1.606741836	-1.2646062781	 0.135703
H	-0.506340454	 2.0128876068	 0.4427226354	 0.140015
H	-1.9679843587	-0.1596645449	 0.4376311873	 0.06881
H	-1.7632973058	-1.3488059347	-2.1688371206	 0.073412
H	 0.5350052766	-2.8651319287	-1.0090790791	 0.095357
H	-1.9115935418	-4.2112816454	-1.8363290748	 0.091921
H	-1.5096684312	-4.7491075412	-0.1669221141	 0.094646
H	-3.3839741783	-2.5284874502	 0.0259690482	 0.069561
H	-0.8487755121	-2.5747578117	 1.6000950201	 0.077392
42.959	135.0579	150.2459	168.1563	336.121	368.9821	415.2485	584.4669	600.5664	732.9847	780.3297	838.8214	848.2262	856.8745	882.3575	898.9697	917.0694	942.8675	964.2623	980.0794	1011.6234	1028.1691	1034.1916	1070.7248	1119.7958	1129.6494	1142.4737	1156.7333	1172.6236	1187.8108	1192.4272	1217.4246	1244.4396	1272.8648	1309.228	1373.4584	1392.8549	1462.7009	1475.2482	1508.6804	1797.9653	3029.316	3035.2389	3037.1697	3091.1918	3091.8893	3093.8046	3100.4046	3114.7715	3147.9402	3150.6783
CC(=O)C1C2C3CC2C13	CC(=O)[C@H]1[C@H]2[C@@H]3C[C@H]2[C@H]13	
InChI=1S/C8H10O/c1-3(9)6-7-4-2-5(7)8(4)6/h4-8H,2H2,1H3	InChI=1S/C8H10O/c1-3(9)6-7-4-2-5(7)8(4)6/h4-8H,2H2,1H3/t4-,5+,6-,7-,8+
