16
gdb 17201	5.1578	1.61248	1.44657	1.9012	65.32	-0.2489	0.0698	0.3187	880.4216	0.130247	-383.641157	-383.63451	-383.633566	-383.671649	26.769	
O	 0.146571254	 1.4094767505	-0.1019882953	-0.452988
C	 0.0923845053	 0.0258338864	-0.0715340469	 0.20766
C	 0.0081454799	-0.6799447346	 1.3198249343	-0.118323
O	-1.3628902858	-0.09676974	 1.4553079773	-0.341452
C	-1.3063631778	-0.6559964704	 0.0688553145	-0.118326
C	-0.6151457165	-1.8935155316	 0.6351902323	 0.473811
C	-0.0806852657	-3.1562531347	 0.0494150129	-0.358789
C	-1.1329338488	-3.182869633	 1.1546333863	-0.355274
H	-0.4889597532	 1.696101915	 0.5713081977	 0.286943
H	 0.7867455245	-0.3805341252	-0.808940773	 0.096833
H	 0.6676564104	-0.6173792497	 2.1858716821	 0.098229
H	-2.2025273554	-0.5650856056	-0.5455803612	 0.098229
H	-0.3897486005	-3.4352342716	-0.9528287745	 0.120303
H	 0.9300805719	-3.4592864992	 0.3031145628	 0.120304
H	-0.8217620983	-3.5040274674	 2.1431663988	 0.121419
H	-2.1415684241	-3.4800427389	 0.8872207717	 0.12142
159.2592	223.6147	257.318	325.0317	412.3801	479.4057	591.8997	610.1109	727.6583	744.422	771.0964	778.3749	846.4648	888.1149	906.6297	927.0876	955.314	1009.4324	1051.8095	1080.7306	1091.7628	1108.2824	1132.1717	1137.7532	1171.8742	1181.608	1199.5643	1215.9504	1250.834	1311.9754	1428.7443	1448.7191	1462.9263	1525.2883	3108.7809	3117.5979	3124.7073	3126.4586	3131.1279	3204.66	3218.7395	3726.118
OC1C2OC1C21CC1	O[C@H]1[C@H]2O[C@@H]1C12CC1	
InChI=1S/C6H8O2/c7-3-4-6(1-2-6)5(3)8-4/h3-5,7H,1-2H2	InChI=1S/C6H8O2/c7-3-4-6(1-2-6)5(3)8-4/h3-5,7H,1-2H2/t3-,4+,5-
