14
gdb 29678	2.4618	2.02618	1.11919	3.11	66.02	-0.2667	-0.0574	0.2093	996.6315	0.1024	-470.065871	-470.058209	-470.057265	-470.098558	27.592	
C	-0.0477832679	 1.4250231726	 0.18366589	-0.334877
N	-0.0141790964	-0.0315766338	 0.0291964486	-0.199527
C	-1.2302118178	-0.6849035629	 0.0204658424	 0.487135
N	-2.334579152	-0.0875667779	 0.1375222709	-0.558977
O	-1.1579306433	-2.0646409841	-0.127530288	-0.208773
C	 0.0529602348	-2.6472682324	-0.2487475591	 0.133905
N	 1.1862259263	-2.0819367802	-0.2458995028	-0.308861
C	 1.22702555	-0.6796447269	-0.1009120723	 0.458351
O	 2.2654831855	-0.0702073406	-0.0888557478	-0.34706
H	 0.9820354682	 1.7728769038	 0.1689837515	 0.17217
H	-0.6209199606	 1.8708625275	-0.6319716739	 0.152248
H	-0.5334758304	 1.6864222806	 1.126171425	 0.152215
H	-3.109178978	-0.7460022774	 0.1067775328	 0.239925
H	-0.0521360882	-3.7236247583	-0.3563122073	 0.162127
80.2079	118.4693	141.8287	222.1406	349.2365	410.3686	436.4862	526.0003	538.0304	591.6693	709.6918	714.6256	792.0723	820.709	898.6357	945.5621	994.2504	1033.9716	1059.4136	1161.7479	1164.5573	1240.9425	1330.3356	1380.2861	1416.0693	1451.4503	1490.7259	1505.9681	1705.3807	1767.9279	1828.5008	3067.6215	3132.5839	3187.1221	3194.9547	3538.6583
CN1C(=N)OC=NC1=O	CN1[C]([NH])OC=NC1=O	
InChI=1S/C4H5N3O2/c1-7-3(5)9-2-6-4(7)8/h2,5H,1H3	InChI=1S/C4H5N3O2/c1-7-3(5)9-2-6-4(7)8/h2,5H,1H3
