19
gdb 67813	2.94086	1.84313	1.5843	1.3563	78.59	-0.2214	0.0155	0.2369	932.6052	0.161754	-385.89878	-385.891885	-385.890941	-385.929467	29.269	
C	-0.0161578828	 1.4844650947	 0.0409732393	-0.495862
C	-0.0380063054	-0.0270812867	 0.0010034398	 0.261784
C	-1.2261999358	-0.7021879365	-0.5625920817	-0.103051
C	-1.2009381129	-2.0373221963	-0.6443643347	-0.09622
C	 0.0676713415	-2.6599448616	-0.1306892476	 0.002799
C	 0.2882645452	-2.2135966213	 1.3395847508	-0.24032
C	 0.7211354568	-0.7779281556	 1.1204850002	-0.157978
C	 1.2872827677	-0.765966183	-0.2657259659	 0.069599
O	 1.1790137854	-2.0365566393	-0.8328170676	-0.258953
H	 0.948737087	 1.8587185652	 0.3980867217	 0.114634
H	-0.1885295776	 1.9096322262	-0.9541036244	 0.121876
H	-0.78918538	 1.8763862537	 0.7123069889	 0.120358
H	-2.0509104241	-0.0994935886	-0.9319873292	 0.088827
H	-1.9967751281	-2.634642614	-1.0725847413	 0.090371
H	 0.1401618391	-3.7338784948	-0.2985791439	 0.079745
H	-0.6203959751	-2.33024174	 1.9351847265	 0.106941
H	 1.0995397244	-2.7826695676	 1.8048056116	 0.105544
H	 1.1390325488	-0.1952456141	 1.9321389539	 0.088065
H	 2.165060246	-0.2250480904	-0.5968355665	 0.101841
190.741	238.8228	300.7665	353.3755	389.8428	434.0341	500.5951	604.1306	627.2404	688.1684	723.9603	742.786	828.1307	838.1057	874.4629	876.7845	907.6431	943.708	955.9354	994.6263	1008.7841	1015.1031	1043.5224	1071.451	1106.441	1116.7046	1145.8753	1182.7871	1205.1614	1239.3043	1280.4848	1283.22	1329.6197	1342.26	1393.3652	1415.4164	1421.1304	1481.4016	1491.359	1501.8807	1672.5018	3023.3286	3053.0392	3084.3681	3096.8155	3107.9245	3123.9163	3164.0205	3185.9158	3197.2451	3203.6953
CC12C=CC3CC1C2O3	C[C@]12C=C[C@@H]3C[C@H]1[C@H]2O3	
InChI=1S/C8H10O/c1-8-3-2-5-4-6(8)7(8)9-5/h2-3,5-7H,4H2,1H3	InChI=1S/C8H10O/c1-8-3-2-5-4-6(8)7(8)9-5/h2-3,5-7H,4H2,1H3/t5-,6+,7-,8+/m1/s1
