16
gdb 123660	4.003	1.6867	1.30794	3.4522	74.17	-0.1997	0.0364	0.2361	938.3778	0.128751	-396.923036	-396.916739	-396.915794	-396.953579	25.897	
C	-0.0272486762	 1.4423301832	 0.1280844406	-0.322161
C	 1.3063463907	 0.7247063011	-0.0135505257	-0.01779
N	 2.0689786125	 0.3327578172	 1.1657096026	-0.420073
C	 1.2158192499	-0.4574075764	 1.9462790006	 0.422261
C	 1.1089859159	-1.0750338261	 3.1754678528	-0.37587
C	-0.1457448358	-1.7381493029	 3.0901666373	 0.015299
N	-0.7730533078	-1.5442982805	 1.9304225631	-0.306704
N	 0.0974891987	-0.7632559439	 1.2491828937	 0.051618
C	 0.0120070342	-0.0638526473	 0.0048950318	 0.000218
H	-0.3064714932	 1.8610548829	 1.0885415676	 0.132255
H	-0.3636416401	 2.0003871102	-0.7387890691	 0.125593
H	 1.8851379123	 0.8553551483	-0.9198441038	 0.114254
H	 2.5396242028	 1.084973464	 1.6511614492	 0.249324
H	 1.8093672866	-1.0737452689	 3.9930784478	 0.098901
H	-0.6068321392	-2.3631141889	 3.8418529989	 0.107053
H	-0.3978672616	-0.5985649121	-0.8419713374	 0.125823
123.1169	251.285	356.5531	429.7674	461.7546	581.9678	647.158	660.9043	716.4368	729.0511	750.8491	799.1474	806.7227	849.5888	877.0802	947.0575	951.8815	993.2741	1044.9103	1052.0151	1056.2929	1094.7617	1134.8532	1165.9525	1198.403	1220.2227	1284.5284	1323.937	1355.47	1364.9724	1403.3138	1440.2121	1467.374	1521.1084	1610.3397	3136.28	3181.4197	3201.4567	3231.3102	3238.4081	3278.9567	3575.2556
C1C2NC3=CC=NN3C12	C1[C@H]2Nc3ccnn3[C@@H]12	
InChI=1S/C6H7N3/c1-2-7-9-5-3-4(5)8-6(1)9/h1-2,4-5,8H,3H2	InChI=1S/C6H7N3/c1-2-7-9-5-3-4(5)8-6(1)9/h1-2,4-5,8H,3H2/t4-,5+/m1/s1
