17
gdb 34141	2.78282	1.71652	1.35775	1.4862	79.25	-0.234	0.0395	0.2735	978.4915	0.13692	-384.613354	-384.606336	-384.605392	-384.644608	28.618	
C	 0.0131349887	-1.181170792	 0.0236585417	-0.372247
C	-0.0163502962	 0.022052265	 0.0353874513	 0.06031
C	-0.0440974599	 1.4522965882	 0.0412689901	 0.236742
C	-0.7000515468	 2.4109052601	 1.069918655	-0.297663
C	-0.0602149767	 3.3603677944	 0.0347805327	-0.12162
C	 1.1966087307	 2.4290912959	-0.0374359073	-0.093828
C	 1.6567560034	 2.4164968506	-1.4871095911	-0.11427
O	 0.3889874764	 2.4164532041	-2.1720414734	-0.275669
C	-0.5294985809	 2.415459892	-1.1075441875	 0.110969
H	 0.0335008151	-2.2426960452	 0.0114388258	 0.178839
H	-1.791986109	 2.3925937429	 1.1221190787	 0.101812
H	-0.2583845168	 2.4085419997	 2.0687320768	 0.105235
H	-0.0616203584	 4.4493994889	 0.0253697439	 0.080904
H	 1.9336491945	 2.4258590708	 0.7650943901	 0.082764
H	 2.2359476941	 3.3037986788	-1.7693363358	 0.106266
H	 2.2245139949	 1.5173385853	-1.7535884098	 0.115642
H	-1.5569245833	 2.3932492505	-1.4677332312	 0.095813
124.2178	154.5136	304.3178	366.2284	399.2514	504.8042	516.5929	587.9651	614.5416	643.1765	698.6185	745.8663	765.555	834.6685	906.3868	927.7832	952.8633	963.992	988.6885	1004.1753	1026.6936	1045.6843	1085.6331	1096.8093	1130.6272	1140.1282	1190.6003	1204.4206	1220.4514	1235.5754	1276.832	1288.1931	1325.4559	1386.4775	1516.005	1521.1373	2229.1173	3026.2233	3058.2717	3067.7028	3121.4715	3124.4046	3131.3591	3145.4603	3501.8576
C#CC12CC3C1COC23	C#C[C@@]12C[C@H]3[C@@H]1CO[C@@H]23	
InChI=1S/C8H8O/c1-2-8-3-5-6(8)4-9-7(5)8/h1,5-7H,3-4H2	InChI=1S/C8H8O/c1-2-8-3-5-6(8)4-9-7(5)8/h1,5-7H,3-4H2/t5-,6-,7+,8+/m0/s1
