15
gdb 130331	3.06561	1.46698	1.04993	4.424	68.49	-0.235	-0.0213	0.2137	1089.7391	0.113733	-450.052272	-450.044606	-450.043662	-450.084925	28.612	
N	 0.1224719676	 1.2785208519	 0.3767521387	-0.594096
C	 0.0530968795	-0.0620057795	 0.0676101829	 0.297441
N	-1.0461919749	-0.7556090948	-0.0452618786	-0.168915
O	-0.6337470549	-2.0546410566	-0.2961753033	-0.174197
N	 0.7311044636	-2.1449446461	-0.3390091278	-0.158478
C	 1.1744698958	-0.9385460468	-0.1195096084	 0.328938
N	 2.5057035269	-0.5357928045	-0.1433777038	-0.174076
C	 3.244513392	-0.4975660183	 1.134299207	-0.231532
C	 3.5368170936	-1.5390271961	 0.1129039852	-0.218354
H	 0.9173915377	 1.7433928053	-0.0403404263	 0.26611
H	-0.7425065717	 1.7792720344	 0.2273172299	 0.267267
H	 3.9046982967	 0.355107038	 1.2541731422	 0.130381
H	 2.7091528762	-0.805968083	 2.027675422	 0.141117
H	 3.2015652899	-2.5519121127	 0.3115245507	 0.156298
H	 4.419098012	-1.4509953712	-0.5125376304	 0.132097
59.0941	158.2544	174.0495	289.826	295.9122	358.5631	456.3868	541.5515	583.2576	595.1567	665.0222	745.878	792.5819	826.3027	888.3187	903.3346	926.0366	943.4417	1033.8064	1054.436	1116.1289	1139.6541	1155.7035	1177.1147	1184.34	1229.6337	1366.0098	1475.5766	1490.5326	1516.7134	1582.7158	1623.0928	1669.2573	3121.5174	3130.7934	3211.6482	3226.6081	3556.025	3658.8656
NC1=NON=C1N1CC1	Nc1nonc1N1CC1	
InChI=1S/C4H6N4O/c5-3-4(7-9-6-3)8-1-2-8/h1-2H2,(H2,5,6)	InChI=1S/C4H6N4O/c5-3-4(7-9-6-3)8-1-2-8/h1-2H2,(H2,5,6)
