15
gdb 124971	3.14737	1.23314	0.9506	2.7219	71.13	-0.2631	-0.0227	0.2403	1179.048	0.112524	-416.824619	-416.816233	-416.815288	-416.858911	29.251	
C	-0.0682476235	 1.4427518248	-0.2873865708	-0.512431
C	-0.1035354061	-0.0275655672	-0.0608848389	 0.370086
C	-1.1028966876	-0.9601486596	-0.0181975173	 0.062194
C	-2.5906688266	-0.7890293876	-0.17953708	-0.463238
C	-2.968441891	 0.0339847351	-1.3317726751	 0.275563
N	-3.2587554989	 0.6993778784	-2.2305958105	-0.311518
C	-0.4097791607	-2.1701392616	 0.2584869685	-0.036042
N	 0.880922633	-1.9933494383	 0.3733607437	-0.137508
O	 1.0759462209	-0.6306811619	 0.1683197367	-0.203497
H	 0.8420453235	 1.7177067443	-0.8260125266	 0.160201
H	-0.9334692648	 1.7656832797	-0.8694655421	 0.170443
H	-0.0700562198	 1.9868901236	 0.664104165	 0.152338
H	-3.0614464656	-1.7711531009	-0.295640772	 0.168077
H	-3.0423442588	-0.340906252	 0.7149824391	 0.17014
H	-0.8184052339	-3.1652044769	 0.3731314202	 0.135194
38.8944	75.7431	115.8458	236.2966	240.6197	301.0028	374.3966	391.6963	476.9125	645.85	655.5212	689.038	757.6504	905.0181	919.3697	936.5281	943.7577	962.3168	1008.2032	1065.1312	1166.1024	1201.8067	1248.7443	1266.7451	1322.7528	1412.9968	1425.0794	1461.5381	1479.9676	1484.3482	1517.4253	1663.3199	2363.5726	3029.6698	3042.0607	3076.9814	3108.7581	3145.3138	3235.2673
CC1=C(CC#N)C=NO1	Cc1c(CC#N)cno1	
InChI=1S/C6H6N2O/c1-5-6(2-3-7)4-8-9-5/h4H,2H2,1H3	InChI=1S/C6H6N2O/c1-5-6(2-3-7)4-8-9-5/h4H,2H2,1H3
