17
gdb 84307	2.19845	1.72065	1.04312	3.4885	75.28	-0.2441	-0.0567	0.1874	1119.0321	0.135004	-421.871136	-421.862722	-421.861778	-421.904643	30.916	
C	-0.0305747957	 1.5817533864	-0.0255745128	-0.391974
C	 0.0059795248	 0.0460743608	 0.0985786876	-0.071267
C	 0.6531463436	-0.5647925989	-1.1249574715	-0.038643
C	 1.7823816316	-1.2377096065	-0.8746489361	-0.188877
C	 2.0589256265	-1.2406677165	 0.5745660998	 0.365288
O	 3.0146474523	-1.699447431	 1.1566056913	-0.334979
C	 0.8600006971	-0.5386283269	 1.2536548079	-0.227475
C	 1.3011716068	 0.3350912283	 2.4152706464	 0.148606
O	 0.7121140806	 1.300992206	 2.8278067987	-0.254255
H	 0.9797261779	 1.9938421599	-0.1107169067	 0.122075
H	-0.5869265301	 1.8676471822	-0.9241512712	 0.111184
H	-0.5049115996	 2.0298738629	 0.8471226502	 0.15524
H	-1.0304625982	-0.3042773604	 0.1785409647	 0.099139
H	 0.2284667029	-0.4052862257	-2.1112911896	 0.120675
H	 2.4351248064	-1.7175971548	-1.5920470459	 0.123427
H	 0.3064918803	-1.354929501	 1.7443993589	 0.145875
H	 2.2327128726	-0.0315540046	 2.8947142583	 0.115963
53.5319	114.1631	196.6852	224.1371	242.5085	276.0136	350.9541	383.2316	498.3927	606.921	635.7567	684.7531	732.3107	762.0815	828.0506	892.5344	929.8898	964.3854	1002.2274	1020.0921	1074.1944	1102.3481	1110.2591	1151.2604	1181.8386	1189.4303	1275.9767	1308.0799	1335.3933	1362.2443	1406.826	1417.2405	1491.5655	1501.5836	1646.3818	1805.5853	1827.247	2925.1022	2998.4291	3028.9964	3042.6971	3106.8363	3156.6135	3185.1025	3229.9358
CC1C=CC(=O)C1C=O	C[C@H]1C=CC(=O)[C@H]1C=O	
InChI=1S/C7H8O2/c1-5-2-3-7(9)6(5)4-8/h2-6H,1H3	InChI=1S/C7H8O2/c1-5-2-3-7(9)6(5)4-8/h2-6H,1H3/t5-,6-/m0/s1
