13
gdb 131183	3.39935	1.12898	0.87595	2.6374	61.64	-0.2329	-0.0109	0.2219	1211.327	0.089448	-489.906268	-489.898327	-489.897383	-489.939645	28.087	
O	-0.0681034219	 1.2708647949	-0.0757562679	-0.427337
C	 0.0208101212	-0.0695376975	-0.0900877224	 0.375344
C	 0.2883220665	-0.979269543	-1.0953405694	 0.102915
O	 0.5850237115	-0.617721765	-2.3959229769	-0.235785
C	-0.269291398	-1.0472753484	-3.3717687974	 0.151258
O	-0.0801444138	-0.8103678042	-4.5220444532	-0.253448
C	 0.259408237	-2.2427411874	-0.467432839	-0.0766
N	-0.0183435684	-2.1320608457	 0.8256684598	-0.227881
N	-0.153085872	-0.7950629178	 1.0324977385	-0.247354
H	 0.1589494258	 1.5957869347	-0.9559156616	 0.322612
H	-1.1165845645	-1.6202604304	-2.9543733754	 0.099877
H	 0.4299829384	-3.2137565731	-0.9081939586	 0.129297
H	-0.3575583417	-0.446971547	 1.9539855236	 0.287102
50.8621	131.7737	147.3613	257.4141	285.1007	335.1308	409.1447	467.9454	485.1922	530.0494	681.0992	701.5628	718.047	850.1689	873.2669	945.7227	1046.6744	1099.3003	1116.2618	1179.581	1220.932	1247.108	1368.9811	1399.6467	1411.9888	1456.6354	1591.8191	1664.1906	1878.9532	2986.4605	3247.5761	3675.3377	3802.0024
OC1=C(OC=O)C=NN1	Oc1c(OC=O)cn[nH]1	
InChI=1S/C4H4N2O3/c7-2-9-3-1-5-6-4(3)8/h1-2H,(H2,5,6,8)	InChI=1S/C4H4N2O3/c7-2-9-3-1-5-6-4(3)8/h1-2H,(H2,5,6,8)
