22
gdb 105396	2.10185	1.19675	0.97345	2.8191	83.43	-0.228	-0.0205	0.2075	1353.1579	0.191119	-404.330584	-404.319982	-404.319038	-404.36728	37.797	
C	-1.7109757031	-1.3220301737	 1.1256173381	-0.394647
C	-0.5298253329	-0.6923875618	 0.3743922216	-0.251079
C	 0.688584501	-0.4327324888	 1.2537318556	 0.316887
C	 0.4360205816	 0.4350270112	 2.489515375	-0.325249
C	-0.077389591	 1.8028743127	 2.1004137002	 0.155864
O	-1.162694637	 2.2400467381	 2.3916663091	-0.247268
C	 1.7614177282	-1.4719146698	 1.3346671783	-0.297876
N	 2.0146585423	-0.2022036251	 0.6646322271	-0.117714
C	 2.2175013812	-0.2085308995	-0.7767299894	-0.318425
H	-2.1196035813	-0.6387837618	 1.8750880226	 0.141101
H	-2.5184231719	-1.5669573299	 0.4292515551	 0.116325
H	-1.4119488118	-2.2460453029	 1.6320016073	 0.11671
H	-0.2447225257	-1.3461051043	-0.4542852389	 0.100014
H	-0.8584182224	 0.2531220326	-0.0777051243	 0.109921
H	-0.2801879044	-0.0317806782	 3.1708511901	 0.118282
H	 1.3925904187	 0.5641104096	 3.0079650696	 0.121113
H	 0.634217144	 2.3984903786	 1.4844002346	 0.084486
H	 2.3054030943	-1.6477478098	 2.2601722684	 0.110701
H	 1.6319606647	-2.3575249489	 0.7121830632	 0.105342
H	 1.6928782493	-1.0108767894	-1.3168600909	 0.104236
H	 1.8995023371	 0.7521165489	-1.1946379045	 0.124356
H	 3.2886096291	-0.3219587878	-0.9723904477	 0.126918
32.3547	60.9547	91.0692	148.2299	176.6709	214.1546	241.7089	272.7382	289.4632	359.1176	426.6923	461.0513	498.7264	527.1036	687.5674	757.3509	803.2954	841.6461	895.3581	931.7256	989.322	1019.9315	1040.0309	1062.579	1084.1201	1107.9513	1120.3362	1152.4625	1174.2614	1202.2498	1210.7514	1283.0532	1291.7465	1308.5898	1356.5574	1403.8832	1411.4595	1421.4723	1451.9906	1453.4912	1482.3221	1489.6531	1499.6846	1503.8795	1511.7095	1516.4659	1825.458	2876.9763	2984.3217	3020.1752	3038.067	3046.6168	3066.7796	3079.481	3086.9218	3100.872	3105.5985	3108.4963	3121.0484	3163.9341
CCC1(CC=O)CN1C	CC[C@@]1(CC=O)CN1C	
InChI=1S/C7H13NO/c1-3-7(4-5-9)6-8(7)2/h5H,3-4,6H2,1-2H3	InChI=1S/C7H13NO/c1-3-7(4-5-9)6-8(7)2/h5H,3-4,6H2,1-2H3/t7-,8?/m1/s1
