20
gdb 119853	4.03191	0.86295	0.78093	2.7936	81.51	-0.2264	0.0191	0.2455	1495.7824	0.171884	-403.124341	-403.115578	-403.114634	-403.158494	32.868	
O	-0.1098176039	 1.4590080197	-0.1160121749	-0.417307
C	 0.0257995215	 0.0466913904	-0.0993096896	-0.066601
C	-1.3683650636	-0.5495388169	 0.111514125	-0.303919
C	-1.3757270666	-2.0480990816	 0.0902595189	 0.36905
C	-1.6223054082	-2.8751641407	 1.1129047587	-0.190394
C	-1.5461514959	-4.3385999665	 0.7283100128	-0.252915
C	-1.2731791014	-4.2818759155	-0.7711954325	-0.033576
N	-2.3546713074	-3.6364894871	-1.5470428959	-0.333121
C	-1.1452985709	-2.8515045767	-1.1560855489	-0.158093
H	 0.7648013535	 1.8441507377	-0.2218464358	 0.285514
H	 0.4560418017	-0.3214854627	-1.0449887236	 0.083271
H	 0.6910934473	-0.2859711205	 0.7126996466	 0.089949
H	-1.7571113053	-0.1818976966	 1.066642471	 0.110038
H	-2.02389835	-0.1548481627	-0.6755563063	 0.117226
H	-1.8935414214	-2.5527009086	 2.1128508503	 0.088307
H	-0.7410188657	-4.8604288378	 1.2630791826	 0.101936
H	-2.4771899134	-4.8738323949	 0.9509130695	 0.118076
H	-0.6871674794	-5.0609463267	-1.2467831842	 0.084557
H	-2.2524040742	-3.9187225491	-2.5211962333	 0.224384
H	-0.4795490269	-2.5059689633	-1.9404002503	 0.083615
61.4202	84.5648	114.5026	244.2306	256.7158	297.118	343.0068	346.8648	409.2147	619.358	657.2643	754.1339	798.7392	814.9931	823.0805	856.963	862.6886	914.7503	934.5357	974.8334	995.7424	1016.8335	1066.4921	1075.6494	1083.123	1131.88	1166.317	1185.1192	1196.5397	1219.1131	1237.2883	1248.2937	1284.3441	1311.4013	1326.0679	1340.8409	1387.855	1413.0897	1455.9366	1467.0356	1486.004	1526.055	1702.3224	2965.2158	2994.9069	3016.4946	3028.0529	3055.4759	3083.0198	3157.8068	3169.5473	3186.0991	3468.3631	3830.9553
OCCC1=CCC2NC12	OCCC1=CC[C@H]2N[C@@H]12	
InChI=1S/C7H11NO/c9-4-3-5-1-2-6-7(5)8-6/h1,6-9H,2-4H2	InChI=1S/C7H11NO/c9-4-3-5-1-2-6-7(5)8-6/h1,6-9H,2-4H2/t6-,7+/m1/s1
