18
gdb 19155	3.82301	1.54082	1.26609	2.5469	67.32	-0.2571	0.0846	0.3416	1007.4631	0.152258	-384.896532	-384.888268	-384.887323	-384.929465	30.243	
C	-0.2395127146	 1.7592923813	-0.1042832207	-0.402699
C	-0.5368592111	 0.2695737726	-0.2815035853	-0.249007
C	 0.4604776443	-0.4992476183	-1.1336464611	 0.377265
C	 1.2714622194	 0.130187607	-2.1881424195	-0.223467
O	 1.8436568063	-0.1977127566	-0.9176067149	-0.263419
C	 0.1425375122	-1.9635787541	-1.2709070655	-0.000586
C	 1.1799129194	-2.9951053214	-1.1821311593	-0.169321
O	 0.2906499507	-2.7522015429	-0.0872362807	-0.239037
H	 0.7885062838	 1.9081066513	 0.2362158674	 0.14025
H	-0.3760406642	 2.31738977	-1.0360783051	 0.113837
H	-0.9129970529	 2.1950305686	 0.6388359716	 0.11662
H	-0.5582149326	-0.2254605284	 0.6969357667	 0.129666
H	-1.5359120249	 0.1278806479	-0.7141613258	 0.101882
H	 1.6230598663	-0.4731666383	-3.0243148482	 0.110911
H	 1.1736615112	 1.1937717915	-2.3928033084	 0.117952
H	-0.7667007667	-2.1792915108	-1.8359832927	 0.094432
H	 1.0383685512	-3.9449399097	-1.6959190089	 0.111047
H	 2.2082973123	-2.6844492997	-1.0177948997	 0.133674
74.9402	91.164	182.2097	215.7123	256.3298	288.149	353.6662	414.9607	479.4647	584.8551	687.4955	776.6688	836.2338	864.2577	878.7585	936.0378	943.9208	1010.8312	1030.8825	1077.8146	1101.9833	1123.1439	1145.3604	1158.486	1167.9344	1174.4511	1210.9996	1285.009	1308.9401	1376.0372	1389.2635	1414.1708	1441.1621	1483.1146	1498.6722	1510.8237	1517.665	1533.0041	3025.6233	3043.7013	3061.4257	3086.6593	3089.4463	3095.3334	3109.2242	3125.8871	3179.1307	3192.4861
CCC1(CO1)C1CO1	CC[C@]1(CO1)[C@H]1CO1	
InChI=1S/C6H10O2/c1-2-6(4-8-6)5-3-7-5/h5H,2-4H2,1H3	InChI=1S/C6H10O2/c1-2-6(4-8-6)5-3-7-5/h5H,2-4H2,1H3/t5-,6+/m1/s1
