14
gdb 132409	3.67602	1.11469	0.85533	2.0926	74.6	-0.2597	-0.0697	0.19	1220.6884	0.101457	-444.733109	-444.726015	-444.725071	-444.764935	26.816	
F	-0.0175076099	 0.0228489932	 0.0034476294	-0.075961
C	-0.0196231716	 1.3588543615	 0.0105795006	 0.329243
C	-1.2301385338	 2.0336417149	 0.03089641	-0.364756
C	-1.2229087626	 3.4306876312	 0.0382232659	 0.235409
C	-2.5113326809	 4.1628683848	 0.059923008	 0.099504
O	-2.6168341429	 5.3663028983	 0.0677807351	-0.264516
C	-0.011563288	 4.1314405742	 0.0252070129	-0.193735
C	 1.1879028345	 3.4326301611	 0.0049145631	-0.084724
C	 1.1921108626	 2.0369875479	-0.0025626593	-0.246177
H	-2.1607304335	 1.4756959831	 0.0407909713	 0.120237
H	-3.4106672477	 3.5068150285	 0.068866152	 0.074805
H	-0.0397449932	 5.2145631563	 0.0313546867	 0.131089
H	 2.1310201384	 3.9680026284	-0.0052742731	 0.11698
H	 2.1157238886	 1.4701791668	-0.0183406227	 0.122602
110.7745	198.6523	233.4104	261.3053	376.5645	449.2918	456.1613	521.629	573.3869	668.6028	698.5369	791.0406	820.2077	895.4642	933.34	951.1501	985.8522	1013.8319	1044.2262	1095.4644	1150.2874	1183.2594	1297.9486	1299.5424	1355.4312	1417.661	1476.0364	1517.9023	1630.5116	1644.1909	1803.0378	2880.5031	3187.8236	3189.7231	3207.5407	3213.9775
FC1=CC(C=O)=CC=C1	Fc1cc(C=O)ccc1	
InChI=1S/C7H5FO/c8-7-3-1-2-6(4-7)5-9/h1-5H	InChI=1S/C7H5FO/c8-7-3-1-2-6(4-7)5-9/h1-5H
