18
gdb 73172	2.4748	1.47263	1.33313	2.816	77.89	-0.2255	0.0232	0.2487	1069.3892	0.146166	-401.863272	-401.854702	-401.853757	-401.896317	32.799	
C	-0.2189904005	 1.3344453905	-0.1519854535	-0.514513
C	 0.0257573026	-0.1340797123	 0.0792168029	 0.280376
N	-1.1440179196	-0.9795671262	 0.4181815446	-0.340629
C	-0.4786060317	-1.4887981032	 1.6529805746	-0.185859
C	 0.8339349123	-0.8072280773	 1.2212022941	 0.059969
O	 1.6054940583	-1.5781018493	 0.2815784574	-0.309136
C	 1.0160054374	-0.8920451457	-0.8630228408	-0.087214
C	 0.489310065	-1.7666585958	-1.8897710899	 0.355277
C	 0.0676499526	-2.4680758923	-2.7698799669	-0.446742
H	 0.7169827349	 1.8735558779	-0.327779891	 0.128548
H	-0.8602325843	 1.4790968432	-1.0298347314	 0.136849
H	-0.7184092227	 1.7914193391	 0.7091830109	 0.120447
H	-1.9879236445	-0.4468539997	 0.5913069712	 0.217606
H	-0.8811354957	-1.077001858	 2.587523907	 0.09445
H	-0.442045766	-2.5800193961	 1.7235623007	 0.116957
H	 1.454757041	-0.3070691681	 1.9679772571	 0.08113
H	 1.760198446	-0.2104841903	-1.3000363797	 0.095288
H	-0.3164595852	-3.0958619064	-3.5354413573	 0.197194
76.9547	131.3322	189.5384	215.8446	256.6743	332.8223	343.6788	390.1091	507.7638	531.7212	612.482	649.2004	664.0106	675.0011	734.2525	837.0617	846.9555	903.6058	944.6146	962.9983	1001.2871	1032.6676	1045.4459	1085.6825	1141.1331	1144.9199	1176.0406	1218.2121	1231.4779	1274.4291	1316.8641	1340.7236	1356.2945	1405.4282	1418.8661	1488.9721	1491.7942	1496.0399	2236.9497	2994.0655	3015.0265	3026.0956	3082.1229	3085.3683	3090.9019	3105.7599	3503.5318	3546.6892
CC12NCC1OC2C#C	C[C@]12NC[C@H]1O[C@H]2C#C	
InChI=1S/C7H9NO/c1-3-5-7(2)6(9-5)4-8-7/h1,5-6,8H,4H2,2H3	InChI=1S/C7H9NO/c1-3-5-7(2)6(9-5)4-8-7/h1,5-6,8H,4H2,2H3/t5-,6+,7+/m0/s1
