20
gdb 7477	4.29963	1.1924	1.14952	2.8207	75.2	-0.2443	-0.0198	0.2245	1124.8169	0.175492	-349.008859	-349.000083	-348.999138	-349.042635	32.212	
C	-0.1273753595	 1.5271874804	 0.1157909842	-0.443762
C	 0.0183269329	 0.0077277441	-0.0115327466	 0.335948
C	-1.3267278745	-0.6460699027	-0.3705269567	-0.339775
C	-1.8633240159	-0.2003452008	-1.7117139334	 0.161681
O	-2.9535674517	 0.277077825	-1.8992488431	-0.245008
C	 1.2535151404	-0.3964889022	-0.8854983763	-0.251616
C	 2.0816150244	-0.5899966757	 0.4122455445	-0.213784
C	 0.7558096111	-0.6113472189	 1.2193025474	-0.257504
H	 0.8232176007	 1.9940993422	 0.3928231193	 0.115434
H	-0.4572388685	 1.9795578088	-0.8261267979	 0.123431
H	-0.8643201337	 1.7861877099	 0.8841902847	 0.120342
H	-1.1868519323	-1.7356582871	-0.4234574679	 0.109242
H	-2.085439993	-0.4387589911	 0.3917011663	 0.115731
H	-1.1558866123	-0.3479691981	-2.5616904815	 0.073354
H	 1.092660081	-1.3432363654	-1.4104266213	 0.095623
H	 1.6106648721	 0.3414811075	-1.6089531146	 0.098751
H	 2.7119595442	-1.4796973036	 0.4699858701	 0.100274
H	 2.6994260701	 0.2804569174	 0.6465442966	 0.10702
H	 0.718495922	-0.0396127806	 2.1507268663	 0.097882
H	 0.4174935325	-1.631003319	 1.4267271499	 0.096738
55.1898	77.7926	134.3358	196.6386	262.0869	309.2457	333.9465	363.0869	425.5031	480.2252	635.6742	707.1319	791.3891	826.6287	870.1721	905.9764	925.1461	944.1826	949.6359	991.3883	1018.8566	1025.9135	1087.9703	1163.5583	1177.0163	1206.1908	1215.4224	1235.8593	1259.7747	1276.2413	1302.4627	1310.7767	1320.4937	1417.1964	1431.2066	1458.1975	1476.3558	1483.667	1497.7191	1499.6902	1509.1232	1830.7113	2852.665	3007.8242	3026.7435	3046.3506	3051.2938	3067.0961	3082.0258	3092.7169	3093.9685	3099.6967	3100.311	3121.7452
CC1(CC=O)CCC1	CC1(CC=O)CCC1	
InChI=1S/C7H12O/c1-7(5-6-8)3-2-4-7/h6H,2-5H2,1H3	InChI=1S/C7H12O/c1-7(5-6-8)3-2-4-7/h6H,2-5H2,1H3
