21
gdb 70757	2.45837	1.55027	1.16993	1.4711	78.4	-0.2352	0.0793	0.3144	1122.744	0.183918	-424.214737	-424.206507	-424.205563	-424.246955	33.387	
O	-0.1139956351	 1.3682225266	 0.0223079444	-0.473606
C	 0.0283264708	-0.0327203045	-0.0091453448	 0.406628
C	-0.4099790767	-0.7491448702	-1.2642051501	-0.378564
C	-1.2831384582	-0.7574358444	-0.018819374	-0.037341
C	-1.4978265559	-1.9949060048	 0.8340509436	-0.241955
C	-1.2864290247	-1.7350096865	 2.3349674111	-0.062142
O	 0.0741032934	-1.7044737707	 2.7290477669	-0.247448
C	 0.82708678	-0.5684787948	 2.3408393044	-0.064608
C	 1.1729242539	-0.5500265409	 0.8446642556	-0.271245
H	 0.6340407105	 1.7497505928	-0.4516002745	 0.277637
H	-0.7362601783	-0.1387373869	-2.0991565786	 0.110855
H	 0.0977960576	-1.6690895933	-1.5383471126	 0.108055
H	-2.1356964884	-0.0854104271	-0.064939314	 0.096702
H	-2.5173131656	-2.3703036395	 0.6795934223	 0.09735
H	-0.8228933363	-2.8051087644	 0.5348339727	 0.103552
H	-1.7928475165	-0.8004207305	 2.6286436429	 0.088726
H	-1.7297011021	-2.5508147151	 2.9161270176	 0.100496
H	 0.3004040565	 0.3614562511	 2.6072227404	 0.100338
H	 1.7446946705	-0.6193482201	 2.9362597429	 0.098
H	 1.4622489254	-1.5629494753	 0.546111407	 0.105296
H	 2.0508317994	 0.0898880885	 0.6800455469	 0.083272
139.6912	159.6911	238.5549	299.3315	336.7087	368.7956	370.6456	390.9677	436.4317	448.4022	538.5069	564.9501	703.7139	768.4805	830.8929	887.7356	907.5702	913.1506	946.4218	975.6008	986.9254	1013.0653	1039.0342	1059.7109	1078.2932	1112.9786	1150.5799	1158.2546	1193.2352	1229.4552	1257.4276	1271.8372	1306.3193	1324.5732	1343.3522	1372.0386	1378.1311	1397.6108	1420.7893	1428.5415	1462.7658	1480.4918	1487.1894	1493.7912	1502.9053	2970.445	2988.1184	3015.106	3025.8842	3066.6834	3068.5618	3071.3817	3080.0667	3122.6816	3147.953	3215.2682	3783.1088
OC12CC1CCOCC2	O[C@]12C[C@H]1CCOCC2	
InChI=1S/C7H12O2/c8-7-2-4-9-3-1-6(7)5-7/h6,8H,1-5H2	InChI=1S/C7H12O2/c8-7-2-4-9-3-1-6(7)5-7/h6,8H,1-5H2/t6-,7-/m1/s1
