15
gdb 5036	3.48521	2.30499	1.39942	3.7931	71.19	-0.2114	-0.0337	0.1777	847.4273	0.121153	-362.73548	-362.728605	-362.727661	-362.766598	25.822	
C	-0.0102627685	 1.4516039948	 0.0058228008	-0.332474
N	 0.0060695207	-0.0071929912	-0.0303593265	-0.124333
C	-0.0978896866	-0.6864948364	-1.2052683392	 0.049316
C	-0.084040702	-2.0472530367	-1.253902944	-0.203226
C	 0.0434271644	-2.7589685086	-0.0316994068	-0.055469
C	 0.1485706646	-2.0954196384	 1.1532011212	-0.24311
C	 0.1362225787	-0.6509041438	 1.2290221139	 0.426984
O	 0.2247175197	 0.0278676448	 2.2429557087	-0.413995
H	 0.9131038338	 1.8242869799	 0.4552939349	 0.157036
H	-0.1140776326	 1.8350185157	-1.0098619615	 0.124118
H	-0.8397220304	 1.8003256429	 0.6254050515	 0.15708
H	-0.1918834781	-0.0732397683	-2.0939693534	 0.127654
H	-0.1686700237	-2.5563267334	-2.2040248482	 0.105678
H	 0.0567747754	-3.8447407823	-0.0466359066	 0.109513
H	 0.2467978746	-2.613006439	 2.099363755	 0.115227
100.4321	150.0091	226.0488	340.0951	410.5845	461.0943	534.1296	568.1135	600.5583	747.3409	747.8543	765.288	865.4707	884.3374	927.7602	1002.3997	1019.0216	1067.8585	1144.769	1153.8349	1173.0403	1204.5395	1243.4591	1350.6183	1421.328	1449.2774	1465.3477	1492.7164	1518.2755	1574.1946	1662.8015	1759.4955	3057.6278	3125.0157	3151.8699	3173.267	3195.8859	3214.7368	3229.3911
CN1C=CC=CC1=O	Cn1ccccc1=O	
InChI=1S/C6H7NO/c1-7-5-3-2-4-6(7)8/h2-5H,1H3	InChI=1S/C6H7NO/c1-7-5-3-2-4-6(7)8/h2-5H,1H3
