17
gdb 50546	2.73294	1.14489	0.85656	2.638	75.01	-0.2506	-0.039	0.2116	1312.8252	0.132847	-421.773392	-421.764081	-421.763137	-421.809004	32.463	
O	-0.3309190388	 0.3032169793	 0.5744455051	-0.235266
C	 0.1146810959	 1.0091203261	-0.2939125994	 0.137708
C	 1.2344964638	 2.0040605712	-0.1319016537	-0.177373
C	 1.0005906361	 3.4227996374	-0.7042100127	-0.08462
O	 1.2366941031	 4.0184140107	 0.5816959385	-0.275372
C	 1.4842830965	 2.7406710195	 1.2129577141	 0.132906
C	 0.5552479026	 2.4906259761	 2.4046533403	-0.379618
C	 0.8586274543	 3.3863039049	 3.5139819521	 0.29822
C	 1.1283148987	 4.1230056638	 4.4240806955	-0.42034
H	-0.2822115366	 0.9525036611	-1.3350783112	 0.088476
H	 2.1346113248	 1.5264086632	-0.5359911617	 0.120551
H	 1.7231480434	 3.7564878917	-1.4576869598	 0.1124
H	-0.0145648518	 3.6222326891	-1.0733260636	 0.108799
H	 2.5255702954	 2.6737491169	 1.5503279481	 0.094383
H	-0.4856450467	 2.6189795924	 2.0891183752	 0.1346
H	 0.6550619629	 1.4449416406	 2.7153224949	 0.150419
H	 1.3557089564	 4.776662736	 5.2291197383	 0.194128
42.8967	69.1586	80.9122	113.0565	178.7369	298.3092	331.4369	350.6667	383.9281	508.899	617.1133	643.1546	660.5002	715.214	835.9702	890.1366	907.2766	931.3195	982.5197	1009.8536	1042.136	1060.2655	1117.7175	1142.4459	1162.7353	1208.5989	1227.3508	1268.8677	1314.6505	1336.4784	1367.9489	1397.8594	1425.4508	1446.4	1531.9247	1824.9077	2241.6794	2855.347	3008.1856	3028.8583	3046.3283	3049.2429	3061.7076	3087.4063	3507.75
O=CC1COC1CC#C	O=C[C@H]1CO[C@H]1CC#C	
InChI=1S/C7H8O2/c1-2-3-7-6(4-8)5-9-7/h1,4,6-7H,3,5H2	InChI=1S/C7H8O2/c1-2-3-7-6(4-8)5-9-7/h1,4,6-7H,3,5H2/t6-,7-/m0/s1
