17
gdb 53482	3.06578	0.81661	0.66854	0.8168	88.95	-0.2473	0.0281	0.2754	1665.6193	0.131223	-347.457743	-347.447025	-347.446081	-347.495732	37.077	
C	 0.0132502276	 1.5003595755	 0.0761069965	-0.498009
C	 0.0161118639	 0.0448184945	 0.0606881275	 0.100175
C	 0.026033354	-1.1587229523	 0.0402696443	 0.043733
C	 0.009438449	-2.6139375038	 0.0298130054	-0.357067
C	-1.4368236432	-3.2057900563	-0.0874724397	-0.34562
C	-2.0721248259	-2.8369324719	-1.3550914484	 0.360466
C	-2.5812856553	-2.5317607269	-2.3986108187	-0.466945
C	-1.4047740572	-4.6602000301	 0.0926514832	 0.326016
C	-1.3431167759	-5.8480567542	 0.2581315457	-0.439202
H	 0.8187576787	 1.9057749702	-0.5460686618	 0.149071
H	-0.9327742698	 1.8973847979	-0.3082028724	 0.1507
H	 0.1490437075	 1.8907121079	 1.0907549731	 0.147065
H	 0.6061788021	-3.005578455	-0.8009692377	 0.144832
H	 0.4510698015	-3.0098796371	 0.9511797337	 0.138869
H	-2.0250722899	-2.7687233965	 0.7308694613	 0.14596
H	-3.0365313498	-2.2627344566	-3.3194331764	 0.200242
H	-1.3054950574	-6.900109185	 0.3980509345	 0.199712
12.8058	49.9598	75.5089	128.8359	176.0757	186.5498	226.5756	294.8346	340.946	387.515	443.3131	467.7946	560.045	564.2346	634.0005	639.1689	645.1423	655.3746	775.4222	817.9214	962.605	1014.7159	1050.8634	1052.4776	1060.5767	1172.3616	1199.4756	1274.1857	1325.4069	1350.1942	1414.701	1471.4221	1478.1125	1478.5912	2240.8889	2246.6008	2376.1715	3015.3605	3027.4311	3040.0063	3079.5225	3088.0239	3088.9516	3504.1758	3505.401
CC#CCC(C#C)C#C	CC#CCC(C#C)C#C	
InChI=1S/C9H8/c1-4-7-8-9(5-2)6-3/h2-3,9H,8H2,1H3	InChI=1S/C9H8/c1-4-7-8-9(5-2)6-3/h2-3,9H,8H2,1H3
