16
gdb 130214	3.14857	1.32125	0.99676	2.4918	71.92	-0.2143	-0.0027	0.2116	1154.6966	0.127749	-430.221281	-430.213298	-430.212354	-430.254382	29.507	
N	-0.1125543681	 1.3934424786	-0.3343094368	-0.597424
C	-0.0015861377	 0.0288156107	-0.0858985264	 0.242224
N	-1.0567421317	-0.7847445812	-0.060835529	-0.276035
N	-0.5049735243	-1.9853016943	 0.1308593291	-0.086207
N	 0.8126816291	-2.0169472074	 0.2339384516	-0.298971
C	 1.1746570349	-0.7386839508	 0.099798837	 0.310829
C	 2.5826852993	-0.3006873665	 0.1430498345	-0.133007
C	 3.4614020696	-0.701448398	 1.283576481	-0.231581
N	 3.65849514	-1.2858543331	-0.0469113285	-0.314755
H	 0.4638580682	 1.9627163957	 0.2707592737	 0.254145
H	-1.0748775448	 1.7041366779	-0.2988395257	 0.256647
H	-1.0611025872	-2.8228193502	 0.1564415366	 0.290916
H	 2.7663735631	 0.6554937792	-0.3417495172	 0.09665
H	 4.2537535781	-0.0367628008	 1.617870853	 0.117748
H	 3.0068604194	-1.3110914851	 2.059564613	 0.120486
H	 3.235938002	-2.2120818948	-0.0761234358	 0.248335
49.5305	155.6525	172.9156	243.9374	289.368	316.8699	386.85	468.8955	511.4415	638.715	695.0687	711.419	764.1641	799.8974	835.7144	893.2953	972.0519	989.9153	1013.0773	1098.8593	1107.9554	1145.8525	1180.9346	1191.4837	1196.5383	1268.4308	1277.9848	1310.5505	1397.2444	1408.4281	1478.0939	1502.9034	1569.0561	1581.0794	1650.9846	3106.0486	3132.2047	3197.4712	3492.8509	3546.6888	3639.8341	3685.2081
NC1=NNN=C1C1CN1	Nc1n[nH]nc1[C@H]1CN1	
InChI=1S/C4H7N5/c5-4-3(2-1-6-2)7-9-8-4/h2,6H,1H2,(H3,5,7,8,9)	InChI=1S/C4H7N5/c5-4-3(2-1-6-2)7-9-8-4/h2,6H,1H2,(H3,5,7,8,9)/t2-/m1/s1
