20
gdb 73863	3.15745	1.08368	0.8232	4.4562	84.73	-0.2297	0.0165	0.2462	1402.6345	0.170172	-403.201455	-403.191843	-403.190899	-403.236328	34.385	
C	 0.1152729869	 1.4936154633	 0.0501100058	-0.49656
C	 0.0213225215	 0.0016882662	 0.0151062278	 0.201926
C	-1.066517996	-0.7767814809	 0.0591987657	 0.210291
C	-2.5075436569	-0.3889984161	 0.1562834026	-0.496163
C	-0.6890644564	-2.2385176254	-0.0032561984	-0.252045
N	 0.7678029438	-2.1935323192	-0.0894246246	-0.059289
C	 1.2791917265	-0.8259694182	-0.0829185987	-0.237702
C	 1.5833627071	-3.2690749383	-0.167205134	 0.143714
O	 2.7957564513	-3.2128240231	-0.2381819312	-0.344247
H	 0.7175019865	 1.8287954868	 0.9039805092	 0.133144
H	 0.6120363017	 1.8766240158	-0.8502528985	 0.133142
H	-0.8641006268	 1.9714119572	 0.1220205243	 0.127544
H	-3.0776917672	-0.7694978028	-0.7009076427	 0.130231
H	-2.9720695009	-0.8163089711	 1.0542000498	 0.130244
H	-2.6431128841	 0.6938088279	 0.1933243639	 0.129934
H	-1.0320115204	-2.7868913703	 0.88795982	 0.115489
H	-1.1378078125	-2.7388538531	-0.87554664	 0.115485
H	 1.8591221237	-0.6148785662	-0.9930152505	 0.124551
H	 1.9644521765	-0.6626171312	 0.761400175	 0.124564
H	 1.0200973656	-4.2248252111	-0.1593419257	 0.065748
43.6899	139.9261	167.0777	172.5306	179.9288	203.7102	277.2411	281.1254	338.7019	369.0212	483.4953	508.6731	594.5318	700.1751	802.135	898.3516	925.9315	939.4833	990.7081	1008.8579	1037.6984	1084.3679	1090.2277	1120.3552	1192.6655	1201.5041	1202.6202	1221.8864	1276.9866	1338.0864	1370.5484	1409.2629	1415.3372	1423.3311	1449.7311	1478.0642	1481.5407	1486.7711	1493.1385	1513.6938	1522.5772	1751.9544	1792.3008	2921.7691	2973.901	2990.896	2998.5396	3015.4821	3019.2433	3022.1597	3062.0761	3065.6312	3120.6561	3126.7207
CC1=C(C)CN(C1)C=O	CC1=C(C)CN(C1)C=O	
InChI=1S/C7H11NO/c1-6-3-8(5-9)4-7(6)2/h5H,3-4H2,1-2H3	InChI=1S/C7H11NO/c1-6-3-8(5-9)4-7(6)2/h5H,3-4H2,1-2H3
