22
gdb 120608	3.3648	0.78592	0.69965	2.2094	85.61	-0.2537	-0.0322	0.2215	1702.0208	0.191963	-404.35039	-404.339776	-404.338831	-404.386719	37.707	
C	-0.2205397663	 1.4230698162	 0.107918608	-0.383528
C	-0.1488008219	-0.0877928499	-0.1256318105	-0.159864
C	 0.9858419872	-0.4913772022	-1.0796255643	-0.192365
C	 1.0251143004	-1.9857224309	-1.2981914407	-0.028477
N	 0.1324052503	-2.5565957788	-2.2997878916	-0.360742
C	 1.5833260229	-2.6455641555	-2.5414905126	 0.204407
C	 2.1678188876	-1.8818500667	-3.7086621047	-0.476779
C	 2.1895722972	-3.9843288265	-2.272381873	 0.10354
O	 1.6345355544	-4.8598731307	-1.6488092439	-0.275833
H	 0.7100893947	 1.8030071002	 0.5443420328	 0.113204
H	-0.388283145	 1.9607789825	-0.8318043407	 0.116367
H	-1.0370353031	 1.6814211543	 0.7892144983	 0.114294
H	-0.0162729556	-0.6031435471	 0.8347072537	 0.095687
H	-1.0980795581	-0.4473272889	-0.5401489959	 0.114213
H	 0.8483411046	 0.0209969179	-2.0368880563	 0.10448
H	 1.9492051553	-0.1587872985	-0.6701811013	 0.096945
H	 1.1614369127	-2.5715793698	-0.3889532355	 0.099651
H	-0.1810774789	-3.4769300583	-1.9883454842	 0.24404
H	 1.7117105589	-0.8967295383	-3.80723773	 0.139008
H	 3.2487709922	-1.7497805847	-3.5870244243	 0.121337
H	 1.9967345061	-2.4200986209	-4.6472173153	 0.129745
H	 3.2085510445	-4.1364583835	-2.6903796879	 0.080669
64.4615	77.541	96.9901	120.9136	144.3472	223.6926	245.1028	248.8925	275.2784	336.5083	382.1663	447.6581	501.735	640.4023	741.9411	759.2267	813.7337	858.2738	899.726	917.1521	970.2192	1007.4741	1027.9253	1051.5841	1086.969	1108.8134	1119.883	1142.641	1145.5147	1243.4196	1272.5092	1290.2225	1306.4635	1330.0853	1342.1991	1384.9656	1412.0647	1420.2106	1427.1767	1457.8978	1472.4473	1488.8243	1493.2724	1497.3859	1499.8034	1509.1407	1798.6091	2897.3634	3019.103	3023.523	3029.9832	3037.361	3057.5531	3082.0746	3094.8315	3098.2009	3103.3764	3112.2132	3146.6569	3456.4842
CCCC1NC1(C)C=O	CCC[C@H]1N[C@]1(C)C=O	
InChI=1S/C7H13NO/c1-3-4-6-7(2,5-9)8-6/h5-6,8H,3-4H2,1-2H3	InChI=1S/C7H13NO/c1-3-4-6-7(2,5-9)8-6/h5-6,8H,3-4H2,1-2H3/t6-,7-/m1/s1
