18
gdb 78861	2.82451	1.82676	1.39637	2.3081	74.88	-0.2413	0.088	0.3293	964.685	0.147855	-401.856845	-401.849564	-401.84862	-401.888196	29.348	
C	 0.1125172819	 1.6088322054	-0.148025737	-0.42212
C	 0.1227521335	 0.0921939677	-0.1250354452	 0.084289
C	 0.7319674205	-0.7501372971	-1.2715679138	-0.229783
C	 1.2286552991	-1.703477305	-0.1133511062	-0.04098
C	 2.3626808913	-0.7584567181	 0.0842497941	-0.176404
N	 1.0707020375	-0.5844383239	 0.8421457722	-0.161025
C	 2.1808001048	-0.2563625695	-1.3230480079	 0.52718
C	 3.1305514495	-0.3028063107	-2.4288718412	-0.291779
O	 2.6511612951	 0.9482305659	-1.8940599873	-0.286421
H	 1.0959049887	 2.0241232868	-0.3754811477	 0.149127
H	-0.592588644	 1.9723508402	-0.9035272308	 0.116097
H	-0.2104707664	 1.990329693	 0.8259727883	 0.123585
H	-0.8707897524	-0.291408021	 0.1296383081	 0.081901
H	 0.1894955913	-1.0063974733	-2.1793926219	 0.077298
H	 1.1054567553	-2.7526479237	 0.1154821169	 0.105028
H	 3.2648530802	-0.8656181788	 0.6706881912	 0.105681
H	 4.181863558	-0.5139508923	-2.2369940767	 0.119677
H	 2.7869411563	-0.5404029257	-3.434821705	 0.118648
160.0709	191.9375	215.9945	290.0827	315.3053	368.3355	490.785	581.7469	640.0371	714.3619	760.9053	788.2822	828.304	872.305	882.4933	898.4128	901.9998	947.0628	975.2665	990.9088	1036.6504	1060.3265	1099.2674	1116.5226	1125.9191	1140.1597	1148.9595	1172.6442	1182.3213	1223.8099	1242.3039	1270.2373	1311.1035	1392.7689	1416.2454	1456.2049	1490.7281	1499.6183	1546.3244	3039.946	3052.3781	3080.7199	3102.6682	3138.2904	3141.1909	3166.6565	3209.8727	3222.4948
CC1C2C3C(N13)C21CO1	C[C@H]1[C@@H]2[C@H]3[C@H](N13)[C@]12CO1	
InChI=1S/C7H9NO/c1-3-4-5-6(8(3)5)7(4)2-9-7/h3-6H,2H2,1H3	InChI=1S/C7H9NO/c1-3-4-5-6(8(3)5)7(4)2-9-7/h3-6H,2H2,1H3/t3-,4+,5-,6-,7+,8?/m0/s1
