14
gdb 21794	6.12344	1.17123	1.05928	1.7358	64.11	-0.2403	-0.0222	0.2181	1056.0737	0.10843	-378.748885	-378.741668	-378.740724	-378.782135	25.131	
O	 0.1735198491	-0.2086154687	-0.1772804853	-0.239145
C	 0.0746725551	 0.9902725624	-0.175667104	 0.16452
C	 1.2397509528	 1.9546569141	-0.0073226585	-0.393655
C	 1.299417598	 2.9322923603	-1.1459967386	 0.180419
C	 1.6655933214	 2.6816722784	-2.4573465828	-0.112169
N	 1.5366239784	 3.8534095786	-3.1219428268	-0.170731
N	 1.1068729981	 4.8634385482	-2.3440499	-0.220044
C	 0.9593015618	 4.3056416573	-1.1465943588	-0.08258
H	-0.9087187426	 1.4926254861	-0.3214866237	 0.080372
H	 1.0853696636	 2.5019822814	 0.9317554002	 0.127454
H	 2.1564695239	 1.3666051254	 0.0929175942	 0.128605
H	 2.0034115233	 1.7814094125	-2.9466506696	 0.145263
H	 1.7275778299	 4.0342782949	-4.0930111302	 0.278998
H	 0.6199353172	 4.9049542092	-0.3134847461	 0.112693
30.6153	54.3519	162.9754	303.1755	368.3169	459.5537	537.7401	653.045	685.9158	705.7248	800.1817	825.2174	886.6625	951.1846	1004.5891	1018.7851	1059.1017	1070.5307	1167.6149	1191.8635	1243.7772	1288.6641	1331.5939	1388.4538	1414.2391	1421.0541	1459.3312	1497.3816	1603.325	1833.2634	2875.8735	3030.9532	3096.5917	3239.033	3260.6363	3673.8588
O=CCC1=CNN=C1	O=CCc1c[nH]nc1	
InChI=1S/C5H6N2O/c8-2-1-5-3-6-7-4-5/h2-4H,1H2,(H,6,7)	InChI=1S/C5H6N2O/c8-2-1-5-3-6-7-4-5/h2-4H,1H2,(H,6,7)
