16
gdb 130438	2.58857	1.55997	0.98475	4.6498	79.87	-0.1997	-0.0536	0.1461	1143.9208	0.126948	-430.206684	-430.198727	-430.197783	-430.239643	29.512	
N	 0.0002194368	 0.9318607136	 0.0659705505	-0.530726
H	-0.7004512788	 0.528116738	-0.5443093576	 0.251012
H	 0.6880272972	 0.2126446679	 0.2479907659	 0.25225
H	 0.2630290549	 3.0069217132	-0.4069964029	 0.283877
C	-0.6017061891	 1.4179844108	 1.3125886143	-0.273287
C	-0.7256454861	 2.9159933557	 1.3038929618	 0.401371
N	-0.1992527936	 3.5816364285	 0.3020999318	-0.203325
N	-0.1794706374	 4.908672542	 0.0751857971	-0.155073
N	-0.7878579678	 5.6241597423	 1.0074777861	-0.190301
C	-1.3534930561	 5.0741172762	 2.0592703083	-0.035505
C	-1.3896448414	 3.6545326683	 2.3527768518	 0.157088
N	-1.8999439199	 3.0109772458	 3.3549615302	-0.585384
H	-1.5944282404	 1.0026731338	 1.5280206971	 0.153359
H	 0.0119747596	 1.1396836309	 2.1776710366	 0.155199
H	-1.8236591589	 5.7678990306	 2.7530815308	 0.114551
H	-2.3349394891	 3.6637081724	 4.0091245981	 0.204894
68.326	122.964	203.5268	219.1716	253.1369	333.9339	451.41	518.323	544.7613	579.1159	636.3829	745.37	773.5467	814.5744	861.3784	907.859	918.7525	925.5987	992.0835	1055.9862	1065.444	1084.8493	1137.0524	1171.3188	1220.8404	1325.5707	1339.3734	1375.9209	1399.9313	1464.1535	1479.13	1514.7904	1600.9739	1655.3503	1668.0309	3031.8039	3063.8225	3152.4538	3437.2947	3454.7937	3537.6739	3617.0734
[NH3+]CC1=N[N-]N=CC1=N	NCc1[nH]nncc1[NH]	
InChI=1S/C4H6N5/c5-1-4-3(6)2-7-9-8-4/h2H,1,5H2,(H-,6,9)/q-1/p+1	InChI=1S/C4H12N5/c5-1-4-3(6)2-7-9-8-4/h3-4,6-9H,1-2,5H2
