21
gdb 110325	2.19437	1.57036	1.09544	2.0401	79.08	-0.2466	0.0753	0.3219	1194.5	0.181466	-424.188801	-424.179423	-424.178479	-424.222619	35.555	
C	-0.4545675314	 1.0563310516	 0.028055145	-0.252852
O	 0.3598920311	-0.0752922223	-0.2361457861	-0.263507
C	 0.8893621494	-0.6345478014	 0.9390976395	 0.09012
C	 0.1636426332	-1.6803029031	 1.7363588637	-0.198962
C	-0.6167939031	-2.614002198	 0.7992870663	 0.150999
O	-1.7340201149	-2.1024428894	 0.1129306444	-0.444274
C	 0.6911914742	-2.9095375476	-0.0061969778	-0.33081
C	 1.476562463	-2.0007635722	 0.9487324373	 0.270475
C	 2.8627509801	-2.2971751459	 1.4476506686	-0.496332
H	 0.1103518362	 1.8411964875	 0.5512004549	 0.113568
H	-0.7879910174	 1.445121724	-0.9370558155	 0.129676
H	-1.3295647735	 0.7869142125	 0.635651323	 0.125491
H	 1.43350621	 0.0938807332	 1.5438411542	 0.084053
H	 0.0002896178	-1.5781993678	 2.8041843135	 0.078288
H	-0.9679627726	-3.5036322368	 1.3273507745	 0.089038
H	-1.3955662696	-1.3894648971	-0.4413088508	 0.289041
H	 0.9969331412	-3.9570683928	 0.0558573168	 0.100149
H	 0.680329943	-2.6037797751	-1.0559518718	 0.104161
H	 3.5991342729	-2.2037562331	 0.6401324778	 0.12546
H	 3.1581997906	-1.6098703149	 2.2470203754	 0.117093
H	 2.9315536697	-3.3178746112	 1.8406361671	 0.119126
89.5221	138.2671	177.3451	186.1376	212.5315	236.5682	268.9087	323.7015	410.6017	440.1656	506.5174	525.2536	577.2655	649.3735	774.3779	807.5577	876.6552	897.33	956.6563	968.7302	977.7846	996.2639	1044.2904	1066.9387	1094.7985	1120.1179	1121.4126	1160.0764	1183.7976	1218.3397	1229.9757	1255.852	1265.4279	1310.4486	1315.0739	1344.9378	1416.1415	1443.6489	1452.5845	1479.4691	1486.7078	1489.5422	1494.2686	1503.6705	1512.1072	2991.3511	3021.2498	3047.7271	3056.5883	3080.4824	3080.8884	3083.8108	3097.2376	3111.0215	3118.636	3163.921	3794.1561
COC1C2C(O)CC12C	CO[C@H]1[C@H]2[C@@H](O)C[C@@]12C	
InChI=1S/C7H12O2/c1-7-3-4(8)5(7)6(7)9-2/h4-6,8H,3H2,1-2H3	InChI=1S/C7H12O2/c1-7-3-4(8)5(7)6(7)9-2/h4-6,8H,3H2,1-2H3/t4-,5+,6-,7+/m0/s1
