15
gdb 28517	3.18729	1.40231	0.97473	1.9557	73.64	-0.1867	-0.0041	0.1826	1130.2347	0.114515	-454.021809	-454.014017	-454.013072	-454.053583	30.89	
N	 0.0566674959	 1.3731276318	-0.1271915592	-0.571701
C	-0.0091393311	-0.0149382343	-0.0602252001	 0.354522
C	-1.2265039873	-0.6975668707	 0.0219100962	-0.190473
C	-1.2149401476	-2.0898817333	 0.0222084566	-0.14853
C	-0.010026892	-2.7699504512	-0.0621680988	 0.260851
O	 0.0398221765	-4.1343475129	-0.0655040117	-0.453838
C	 1.1462592061	-1.9864199792	-0.1396271256	 0.315116
O	 2.3320265941	-2.650329217	-0.2182404859	-0.447401
N	 1.1619771281	-0.6667715411	-0.1345602744	-0.417412
H	 0.9687240592	 1.7356326643	 0.1105175625	 0.248742
H	-0.6922550691	 1.863631186	 0.3379650982	 0.247203
H	-2.1612755432	-0.1518244087	 0.0769033347	 0.085932
H	-2.13665642	-2.6577043092	 0.0862148342	 0.111507
H	 0.9676619459	-4.3893573377	-0.1325872844	 0.30622
H	 3.0210884245	-1.9754028968	-0.2710661623	 0.299262
138.3052	245.3066	297.6531	319.4141	343.8588	349.5818	372.369	439.9726	485.6775	495.1506	535.5243	596.0117	604.3253	692.5254	754.5675	775.4952	802.6316	824.9921	948.4109	983.1809	1091.7084	1133.4971	1198.7444	1207.2441	1287.3387	1336.2279	1361.2496	1429.8291	1489.563	1534.4905	1637.806	1650.1664	1676.9523	3187.3254	3202.9672	3568.2391	3676.0826	3787.6003	3804.1313
NC1=CC=C(O)C(O)=N1	Nc1ccc(O)c(O)n1	
InChI=1S/C5H6N2O2/c6-4-2-1-3(8)5(9)7-4/h1-2,8H,(H3,6,7,9)	InChI=1S/C5H6N2O2/c6-4-2-1-3(8)5(9)7-4/h1-2,8H,(H3,6,7,9)
