23
gdb 121141	2.80711	0.96393	0.86977	1.0042	83.1	-0.2427	0.0797	0.3224	1493.2572	0.20294	-425.417797	-425.407208	-425.406264	-425.453624	39.034	
C	-0.4709758803	 1.3018266337	-0.1506960913	-0.385562
C	 0.2091013284	-0.0567824602	-0.1433180186	-0.03732
O	 0.2468113554	-0.5326187378	 1.1893959755	-0.257164
C	 0.8155001106	-1.8039988907	 1.3238531359	 0.143808
C	 2.3623110341	-1.9680750509	 1.288544676	-0.272646
C	 2.2280123329	-2.9594609095	 2.4765979966	-0.281658
C	 0.8003547023	-2.3861447676	 2.7557356197	 0.361172
C	 0.7699185705	-1.3266099686	 3.851084887	-0.440253
O	-0.2442974603	-3.3269807162	 2.9188174331	-0.480175
H	 0.0805785324	 2.0102461629	 0.4740952784	 0.124375
H	-0.518397046	 1.7002469116	-1.1686249442	 0.113179
H	-1.4892989162	 1.2220119077	 0.2402167321	 0.127201
H	-0.340480437	-0.7693946681	-0.7810014554	 0.08775
H	 1.2295756636	 0.0209754192	-0.5522001238	 0.08864
H	 0.3328312163	-2.5234357343	 0.6450441588	 0.074698
H	 2.8132196154	-2.340976314	 0.367263895	 0.098287
H	 2.8592186846	-1.0381164046	 1.5781914258	 0.106716
H	 2.1595574781	-3.9977364525	 2.1439767811	 0.106913
H	 2.9635909517	-2.8855059879	 3.281249514	 0.093421
H	 1.5558473318	-0.579489492	 3.7130295732	 0.122368
H	-0.1927885039	-0.8101446095	 3.8517067497	 0.134954
H	 0.9244059134	-1.796665532	 4.8307687649	 0.098267
H	-0.2808055578	-3.5793262589	 3.8475199266	 0.273028
59.1825	74.4353	113.1247	144.8618	238.1972	243.4692	248.0705	268.4952	287.8046	336.1814	366.4236	412.3664	515.2804	545.8362	616.1395	755.9722	804.8335	821.5442	881.1705	903.9082	912.3355	947.2301	975.2203	992.3576	1063.6281	1086.2828	1121.5478	1142.9758	1172.657	1183.2921	1189.254	1199.9973	1221.7574	1240.425	1260.8416	1294.4433	1305.265	1369.013	1385.7611	1403.5297	1409.455	1441.0164	1474.5497	1483.6134	1488.1099	1492.0004	1499.1088	1500.5232	1528.9238	2960.1038	2987.6576	2992.9318	3025.5564	3044.2898	3061.1614	3066.3269	3101.6631	3112.9748	3118.4729	3121.1315	3127.6069	3132.3659	3805.6044
CCOC1CCC1(C)O	CCO[C@H]1CC[C@]1(C)O	
InChI=1S/C7H14O2/c1-3-9-6-4-5-7(6,2)8/h6,8H,3-5H2,1-2H3	InChI=1S/C7H14O2/c1-3-9-6-4-5-7(6,2)8/h6,8H,3-5H2,1-2H3/t6-,7-/m0/s1
