18
gdb 81950	2.3914	1.81115	1.21008	1.1098	70.81	-0.2385	-0.039	0.1994	1041.1725	0.147338	-439.079894	-439.07158	-439.070636	-439.112683	31.745	
C	 0.1719338004	 1.6249846499	 0.0644947239	-0.390093
C	 0.1193232732	 0.1034290604	 0.0287696624	-0.065512
N	 0.743950694	-0.4981365471	-1.169420863	-0.109455
C	 2.2155200212	-0.4586677949	-1.146916944	-0.255618
C	 1.5169599147	-1.7017674856	-0.7429474088	-0.040283
C	 1.3559421017	-1.926259422	 0.7449144152	 0.04536
O	 2.5357939792	-2.2535586046	 1.4330256367	-0.437383
C	 0.7916458655	-0.5779023876	 1.21942336	 0.324084
O	 0.9668850447	-0.148100324	 2.3319750927	-0.324887
H	 1.2039010152	 1.985188444	 0.0265689757	 0.126823
H	-0.372185443	 2.0450674867	-0.7845474942	 0.131275
H	-0.2766879466	 1.9882276902	 0.9925696806	 0.138387
H	-0.9331318356	-0.2189444888	 0.0272107106	 0.115567
H	 2.6810376812	-0.3931998738	-2.1247627877	 0.127274
H	 2.7216367561	 0.1091966648	-0.367970781	 0.127756
H	 1.4724834291	-2.5537836049	-1.4128503659	 0.101054
H	 0.576461563	-2.6920821459	 0.9136387811	 0.094224
H	 2.4725505658	-1.8034728368	 2.2890659356	 0.291425
77.9804	178.4384	193.5149	210.2437	256.0878	283.67	405.5937	467.4324	500.6325	521.8971	576.7483	606.0273	693.3888	757.8985	832.0167	864.4491	897.1218	971.1647	1001.1669	1018.9155	1057.3235	1101.5064	1108.2659	1124.3842	1147.5779	1171.4335	1180.0007	1226.8755	1267.5442	1301.9306	1340.4	1353.4837	1390.4256	1405.5205	1423.3515	1486.5607	1496.0138	1509.8435	1842.2	2935.6971	2995.1465	3051.9164	3103.9437	3124.5937	3134.6636	3164.9553	3198.2005	3715.6912
CC1N2CC2C(O)C1=O	C[C@H]1N2C[C@H]2[C@@H](O)C1=O	
InChI=1S/C6H9NO2/c1-3-5(8)6(9)4-2-7(3)4/h3-4,6,9H,2H2,1H3	InChI=1S/C6H9NO2/c1-3-5(8)6(9)4-2-7(3)4/h3-4,6,9H,2H2,1H3/t3-,4+,6-,7?/m1/s1
