15
gdb 18289	3.06912	2.34411	2.156	2.614	60.67	-0.2366	0.008	0.2446	722.701	0.120808	-399.782086	-399.775551	-399.774607	-399.812523	25.372	
O	-0.0071162618	 1.4682324889	-0.2187707964	-0.421356
C	-0.0350737351	 0.0861662966	-0.0995986841	 0.121571
C	-1.2931777497	-0.7092696084	 0.092309358	-0.147361
C	-2.6400117057	-0.0388572881	-0.0457492706	-0.111858
O	-2.6764561515	 0.9187330474	-1.1306345983	-0.252094
C	-2.0482155906	 0.5290978714	-2.2856534913	 0.080074
N	-1.0832377207	-0.2769819937	-2.400806439	-0.217468
C	-0.524718174	-0.8437413781	-1.219015755	-0.0553
H	-0.8789634774	 1.7808687343	-0.4864125221	 0.303753
H	 0.8476711986	-0.2549637239	 0.4322932511	 0.114841
H	-1.2813497124	-1.5373964259	 0.7960374542	 0.09853
H	-3.4169655677	-0.7919349277	-0.2279259371	 0.124752
H	-2.915998631	 0.5332650865	 0.8442884444	 0.129808
H	-2.476826496	 1.035281779	-3.1468547216	 0.132484
H	 0.056651245	-1.7405216482	-1.4031126024	 0.099624
161.7313	189.1767	230.1234	378.169	434.5204	465.2945	536.887	638.4918	707.257	735.4963	777.3131	847.4007	883.798	906.4064	947.3559	993.0533	1016.6338	1071.9161	1099.0913	1111.2897	1123.3021	1157.8151	1225.2901	1276.6117	1334.0339	1350.7844	1367.7517	1396.845	1414.3719	1466.3538	1511.6863	1721.579	3026.6233	3088.3849	3141.1966	3158.1199	3168.7525	3175.672	3792.1212
OC1C2COC=NC12	O[C@H]1[C@H]2COC=N[C@@H]12	
InChI=1S/C5H7NO2/c7-5-3-1-8-2-6-4(3)5/h2-5,7H,1H2	InChI=1S/C5H7NO2/c7-5-3-1-8-2-6-4(3)5/h2-5,7H,1H2/t3-,4+,5-/m0/s1
