21
gdb 80569	2.45905	1.47348	1.2129	1.8824	78.02	-0.2323	0.0768	0.3091	1148.008	0.182021	-424.220921	-424.211971	-424.211027	-424.25409	34.959	
C	 0.283516309	 1.5452897871	 0.1047831222	-0.407412
C	 0.1312259479	 0.0391884548	 0.0043269128	 0.153988
C	 0.7512112761	-0.6214927664	-1.2461128563	-0.320847
C	 1.2209795784	-1.9880521796	-0.7432519006	 0.264867
C	 0.8452000693	-3.2398816836	-1.4978380865	-0.489532
C	 2.5008304454	-1.9544930557	 0.0889724026	 0.056889
O	 3.3141426515	-0.8261545107	 0.1227556689	-0.432305
C	 1.1561919028	-1.8887209944	 0.7664268575	-0.027935
O	 0.8037279164	-0.5749264564	 1.1288795602	-0.290497
H	 1.3373249805	 1.8325427979	 0.0292747269	 0.121803
H	-0.2637180793	 2.0348195208	-0.7068008965	 0.120762
H	-0.1106464559	 1.9137595641	 1.0558765953	 0.127687
H	-0.9346934537	-0.2305595834	 0.0653201041	 0.075352
H	 0.0179306886	-0.723567161	-2.0507757557	 0.100386
H	 1.5923422259	-0.0277030379	-1.6202490176	 0.115436
H	 1.2878516298	-3.2452074162	-2.5005104836	 0.123998
H	 1.1983676765	-4.1375427335	-0.9794621777	 0.116911
H	-0.2418669846	-3.3294103139	-1.6104862256	 0.115674
H	 3.0643765293	-2.8827837499	 0.1498089978	 0.091574
H	 2.8830444808	-0.2135921604	 0.7365938338	 0.291531
H	 0.7736130453	-2.6668763419	 1.4207954483	 0.091669
80.3349	194.8155	200.9053	232.3303	251.009	257.7653	282.4022	356.2952	454.9414	469.6248	514.0269	564.3386	602.3128	671.5099	771.3586	828.8283	840.2461	873.4805	905.4379	930.4343	979.6038	1012.3774	1039.0845	1069.2633	1090.7519	1118.5704	1148.7814	1158.043	1171.8873	1210.3078	1261.6784	1275.3775	1303.0027	1321.0404	1353.9654	1378.7881	1399.0524	1412.608	1417.6033	1445.1976	1484.5303	1488.0616	1492.3125	1498.3191	1498.9869	2978.3248	3020.0832	3039.4321	3045.3858	3081.2146	3092.46	3097.3755	3112.3176	3119.5672	3131.7863	3146.2681	3722.1273
CC1CC2(C)C(O)C2O1	C[C@H]1C[C@@]2(C)[C@@H](O)[C@H]2O1	
InChI=1S/C7H12O2/c1-4-3-7(2)5(8)6(7)9-4/h4-6,8H,3H2,1-2H3	InChI=1S/C7H12O2/c1-4-3-7(2)5(8)6(7)9-4/h4-6,8H,3H2,1-2H3/t4-,5-,6+,7-/m0/s1
