22
gdb 97937	5.70313	0.52838	0.50648	1.3703	93.46	-0.2341	0.0604	0.2944	2270.7963	0.192831	-367.169835	-367.159074	-367.15813	-367.207519	37.975	
C	-0.1923123507	 1.5129167513	 0.0380836128	-0.362295
C	-0.174350672	-0.0179866812	-0.1249604213	-0.312065
C	 0.704717974	-0.468882392	-1.1996047575	 0.100892
C	 1.431626508	-0.8092733549	-2.0979379069	 0.027383
C	 2.309713221	-1.2625700273	-3.1740569676	-0.35546
C	 2.3212386237	-2.778863556	-3.3101173593	 0.003431
N	 1.3006126059	-3.3806128622	-4.178355897	-0.330157
C	 2.7220047497	-3.5029876686	-4.5481349466	-0.004823
C	 3.1654505452	-2.8392765364	-5.8306498635	-0.391735
H	 0.8084954525	 1.8911389136	 0.2638905981	 0.125619
H	-0.5350528542	 1.9968353548	-0.8805660991	 0.127567
H	-0.8630979193	 1.8034894175	 0.8523706408	 0.111283
H	 0.1353798336	-0.4812590757	 0.8210207227	 0.123363
H	-1.1947662225	-0.3762453024	-0.3135114376	 0.126511
H	 1.9913622692	-0.8178608947	-4.1225274939	 0.132558
H	 3.3341659754	-0.911213763	-2.9882517636	 0.121792
H	 2.5374116507	-3.2879260921	-2.3719623944	 0.086512
H	 0.9484431092	-4.2455912422	-3.7789163042	 0.229636
H	 3.1889090481	-4.4726975084	-4.3737820713	 0.078929
H	 2.6499794855	-1.8897960084	-5.9896614968	 0.126994
H	 4.2450875905	-2.6527734427	-5.8216617478	 0.114642
H	 2.9435203565	-3.482718849	-6.6888061362	 0.119425
25.83	44.8207	67.5472	152.1132	174.0015	178.4532	208.1918	264.803	323.2051	387.3845	419.0945	453.5911	503.2495	520.2999	744.7601	771.5028	787.4812	839.7761	873.3545	932.6645	965.2204	983.6964	1028.3317	1032.532	1079.3872	1091.2117	1105.3141	1153.2326	1164.6035	1192.3486	1248.5365	1270.3236	1276.8888	1287.1148	1322.5915	1352.66	1400.6197	1409.3578	1423.6804	1458.2939	1469.8292	1477.7506	1491.818	1495.0679	1504.9807	1506.0352	2367.5918	3014.3602	3016.4002	3035.7484	3042.506	3043.0727	3070.5267	3093.9683	3095.5573	3115.5933	3117.664	3122.6167	3132.4237	3511.4132
CCC#CCC1NC1C	CCC#CC[C@H]1N[C@H]1C	
InChI=1S/C8H13N/c1-3-4-5-6-8-7(2)9-8/h7-9H,3,6H2,1-2H3	InChI=1S/C8H13N/c1-3-4-5-6-8-7(2)9-8/h7-9H,3,6H2,1-2H3/t7-,8+/m0/s1
