20
gdb 111885	2.6673	1.29337	1.19532	1.7975	74.33	-0.221	0.0583	0.2792	1145.3007	0.172735	-440.23977	-440.231369	-440.230425	-440.272919	32.077	
O	 0.2020372901	 0.858670075	-1.3184339979	-0.416512
C	 0.0387549755	 0.2125249945	-0.060522739	-0.110438
C	-1.3198042863	-0.4599300902	 0.0210884126	-0.036052
C	-1.5258854537	-1.9179432289	-0.2176788875	-0.049739
C	-0.3817482646	-2.8981088787	-0.4365622078	-0.119519
O	 0.6176825921	-2.8298741094	 0.5653332296	-0.233513
C	 0.039389706	-2.9287465197	 1.8574045901	-0.082714
C	-0.7795304778	-1.6811774938	 2.182182187	-0.159519
N	-1.742838468	-1.3404039165	 1.1189638672	-0.125323
H	 0.2116410666	 0.1756832771	-1.9964808896	 0.281815
H	 0.8507473999	-0.494097818	 0.1408160603	 0.117579
H	 0.0983580509	 1.0144157298	 0.6849632705	 0.112291
H	-2.1137524236	 0.2131881571	-0.3031253561	 0.094291
H	-2.4465368426	-2.228524753	-0.7123163859	 0.090962
H	-0.7995111059	-3.9184418172	-0.4699218328	 0.100963
H	 0.1228069275	-2.7197362328	-1.3928090414	 0.107924
H	-0.5963724589	-3.8276911823	 1.912520657	 0.095588
H	 0.8628469256	-3.0502549354	 2.566671099	 0.112894
H	-1.3456661365	-1.8522669582	 3.105999896	 0.106558
H	-0.1065199864	-0.8384347895	 2.3749668087	 0.112466
79.6647	116.0636	181.6652	225.9251	273.2262	332.811	353.93	441.7423	455.7384	524.7147	556.0255	701.1588	744.0789	801.0858	849.7736	871.5491	956.5455	966.9783	993.4711	1022.9651	1059.7894	1089.8568	1109.2491	1124.8736	1132.5807	1166.9761	1169.3071	1220.8326	1253.1758	1269.9993	1311.4437	1332.6437	1351.8256	1373.0636	1380.7211	1397.2596	1416.562	1429.2884	1454.2395	1492.0229	1500.3547	1506.7845	1521.7444	2963.9169	2975.734	3024.8281	3034.5672	3057.4182	3062.1445	3078.4615	3091.8102	3094.5769	3107.3802	3817.4887
OCC1C2COCCN12	OC[C@H]1[C@H]2COCCN12	
InChI=1S/C6H11NO2/c8-3-5-6-4-9-2-1-7(5)6/h5-6,8H,1-4H2	InChI=1S/C6H11NO2/c8-3-5-6-4-9-2-1-7(5)6/h5-6,8H,1-4H2/t5-,6+,7?/m0/s1
