16
gdb 46432	3.81178	1.19425	1.09697	2.635	78.14	-0.2531	0.0082	0.2613	1120.8047	0.124727	-400.72293	-400.715178	-400.714234	-400.755124	30.066	
N	-0.0649521841	 1.2419986139	 0.2910260391	-0.54786
C	-0.0318663482	 0.0114202804	 0.0160409799	 0.429365
O	 1.1136571081	-0.7056437988	-0.2361526406	-0.253628
C	 0.8127016579	-1.9526214075	-0.8780846998	-0.155422
C	-0.6796614427	-2.2021940925	-0.6590808103	 0.14919
C	-1.1214002026	-2.1360891712	 0.7837888599	-0.320957
C	-1.2064863012	-0.8935939949	-0.0703071294	-0.169042
C	-1.3945940868	-2.9814088638	-1.6208092605	 0.164784
C	-1.9712949754	-3.6478504384	-2.4391410798	-0.373445
H	 0.8743539754	 1.6415834319	 0.2557121753	 0.225022
H	 1.0351562156	-1.8752277771	-1.9479138253	 0.126988
H	 1.4488136174	-2.7242589249	-0.4348284845	 0.126038
H	-2.0591950084	-2.6203903372	 1.0259931811	 0.138616
H	-0.3593434173	-2.183677558	 1.5550902389	 0.134228
H	-2.1679884178	-0.4765460916	-0.3321914371	 0.131742
H	-2.4884025999	-4.2331093204	-3.1587354469	 0.194382
105.0872	147.827	165.6601	266.1496	353.8598	410.0225	477.9174	518.5087	554.6109	596.7817	638.6861	662.2852	700.725	748.2474	816.3587	873.9174	896.9539	938.7992	965.3223	1005.0528	1031.6717	1052.6436	1073.6528	1090.2339	1114.3789	1218.5063	1246.1748	1255.8566	1291.6034	1375.9843	1410.1698	1483.0874	1519.4831	1781.9297	2241.0609	3042.8631	3093.7417	3136.9532	3229.5025	3238.6654	3476.2418	3501.8048
N=C1OCC2(CC12)C#C	[NH][C]1OC[C@]2(C[C@@H]12)C#C	
InChI=1S/C7H7NO/c1-2-7-3-5(7)6(8)9-4-7/h1,5,8H,3-4H2	InChI=1S/C7H7NO/c1-2-7-3-5(7)6(8)9-4-7/h1,5,8H,3-4H2/t5-,7+/m0/s1
