23
gdb 91380	2.78227	1.32749	1.09074	1.2577	85.42	-0.2418	0.0788	0.3206	1241.3316	0.206723	-388.300861	-388.291978	-388.291034	-388.334597	34.561	
C	 0.0820122875	 1.6411033493	-0.0210943208	-0.402956
C	 0.04470433	 0.1227431228	 0.04474486	 0.022374
C	 0.9090143102	-0.7009378323	-0.9572739582	-0.256175
C	 1.3754903644	-1.6241227417	 0.2111542787	-0.013786
C	 2.8763233871	-1.6859349514	 0.543273442	-0.267118
C	 3.0049612515	-0.7547625408	 1.7736464108	 0.167425
C	 4.2852449393	 0.0575550433	 1.8536178861	-0.405426
O	 1.8949895221	 0.1415147066	 1.6832677871	-0.276801
C	 0.7784498337	-0.5918931495	 1.2111016224	 0.094138
H	 1.1064617381	 2.0041174443	 0.0949935176	 0.126176
H	-0.3057151974	 1.9979797867	-0.9817197074	 0.106783
H	-0.5241681294	 2.091837806	 0.7724633866	 0.111903
H	-0.9918137713	-0.2317223135	 0.0162708767	 0.067395
H	 0.3728931432	-1.1842256619	-1.7776031859	 0.09514
H	 1.7329553096	-0.1187536228	-1.3808777806	 0.096242
H	 0.8887364714	-2.6007096985	 0.2080264463	 0.066919
H	 3.2236075905	-2.6977907214	 0.7706911768	 0.097414
H	 3.4829701595	-1.3083459002	-0.2870886031	 0.098029
H	 2.8993276211	-1.3607560922	 2.690252192	 0.061271
H	 4.399803056	 0.6754284625	 0.9573005551	 0.119424
H	 4.273368257	 0.7158299437	 2.726778582	 0.124214
H	 5.1530163047	-0.6046500325	 1.9333808372	 0.114305
H	 0.1681668613	-0.9546278265	 2.0497786684	 0.053109
60.199	88.8568	200.803	215.0184	240.7878	306.945	343.7356	370.4782	452.0418	507.8382	578.3524	622.314	715.0343	802.4667	838.7905	871.0631	882.9794	910.7835	912.8981	923.1489	947.9847	1002.8755	1023.6155	1047.221	1098.3447	1125.3508	1140.2607	1147.0523	1164.795	1182.9406	1212.5393	1234.0742	1250.8242	1270.8769	1287.9033	1305.0135	1320.0759	1337.0937	1367.3212	1377.3929	1393.9182	1407.1218	1415.0257	1482.0435	1483.4483	1490.4388	1495.145	1499.5838	1502.001	2945.5844	2998.416	3030.5532	3038.3499	3041.8968	3043.3013	3053.6099	3083.3513	3091.5561	3095.7552	3110.9159	3112.7017	3117.4936	3120.741
CC1CC2CC(C)OC12	C[C@H]1C[C@H]2C[C@@H](C)O[C@@H]12	
InChI=1S/C8H14O/c1-5-3-7-4-6(2)9-8(5)7/h5-8H,3-4H2,1-2H3	InChI=1S/C8H14O/c1-5-3-7-4-6(2)9-8(5)7/h5-8H,3-4H2,1-2H3/t5-,6+,7-,8-/m0/s1
