18
gdb 45279	2.76573	1.75974	1.28371	3.4586	76.05	-0.2217	-0.0294	0.1922	1005.7068	0.148423	-401.901059	-401.893672	-401.892728	-401.933109	28.96	
O	 0.1613750686	 0.0487063358	-0.5111449563	-0.297449
C	 0.0442994155	 1.1758087333	-0.1286716951	 0.368202
C	-1.1328392697	 2.0024457128	 0.4481809728	-0.361615
C	-0.2846183174	 3.2978934644	 0.2655097095	-0.120942
C	 0.5302166991	 3.7340117029	 1.5024818978	-0.187991
N	 1.599630104	 2.7274050094	 1.2059729399	-0.152465
C	 2.7810691815	 3.2747834396	 0.4564053324	-0.164129
C	 2.2298261631	 2.7432610383	-0.8940598365	-0.373986
C	 0.9476519223	 2.4036640121	-0.1373996316	 0.268071
H	-2.0273745272	 1.9454029411	-0.1788277904	 0.133842
H	-1.4107034462	 1.7525058988	 1.475880871	 0.134255
H	-0.7191404506	 4.0581041443	-0.3824698441	 0.083066
H	 0.8952177525	 4.7670346923	 1.4515691807	 0.101267
H	 0.0516607788	 3.5850981618	 2.4765178594	 0.106349
H	 2.8562363364	 4.3671002304	 0.5143459792	 0.101727
H	 3.7266124303	 2.842176932	 0.7940552421	 0.115247
H	 2.1404920133	 3.4562244655	-1.7158677159	 0.113164
H	 2.7376798356	 1.8465249351	-1.2570931948	 0.133386
85.6909	114.9463	226.2368	278.133	399.7024	428.468	502.9293	559.4005	620.9243	702.285	751.5098	784.1947	813.8181	825.5483	869.6591	922.7507	948.1191	973.744	996.7759	1030.6701	1049.1046	1064.6976	1109.72	1129.568	1164.9272	1169.813	1202.6759	1214.5235	1226.6294	1250.0809	1289.6334	1300.8878	1311.7589	1329.3363	1433.0638	1475.0192	1496.106	1515.4939	1886.8934	3021.3152	3029.9934	3059.9802	3069.0811	3071.2046	3086.4074	3110.3207	3121.0928	3125.4708
O=C1CC2CN3CCC123	O=C1C[C@H]2CN3CC[C@]123	
InChI=1S/C7H9NO/c9-6-3-5-4-8-2-1-7(5,6)8/h5H,1-4H2	InChI=1S/C7H9NO/c9-6-3-5-4-8-2-1-7(5,6)8/h5H,1-4H2/t5-,7+/m0/s1
