18
gdb 83464	3.14661	1.10822	0.95011	2.9004	74.43	-0.2433	0.0141	0.2574	1272.0727	0.14604	-439.028667	-439.019833	-439.018889	-439.062747	32.141	
C	 0.0414750692	 1.6618456447	 0.42133771	-0.423337
C	 0.0137368935	 0.1503498264	 0.4109132124	-0.095595
C	 1.1004587136	-0.70783952	-0.1916774071	-0.000885
O	 2.3897194764	-0.1111372647	-0.0198054399	-0.279641
C	 2.2826838217	-0.2396559489	 1.4245459562	-0.151165
C	 0.8530349321	-0.7566957626	 1.2927275387	 0.315059
O	 0.3449191722	-1.7908298585	 2.0665589062	-0.21802
C	-0.5027375134	-1.4411537935	 3.0682553331	 0.108433
N	-0.9528934034	-2.3299087296	 3.8384535921	-0.435703
H	 1.0699146702	 2.030874938	 0.4155420568	 0.141666
H	-0.4543812103	 2.0579632213	-0.47065842	 0.126673
H	-0.4707199114	 2.0715915739	 1.2983167642	 0.116141
H	-0.9632854789	-0.3009993715	 0.2415289902	 0.106351
H	 0.9706130132	-1.4295615641	-0.9889434184	 0.121965
H	 2.9667047323	-1.0099100486	 1.7960441494	 0.128136
H	 2.4549357111	 0.7074522537	 1.9476314792	 0.109513
H	-0.7189326507	-0.3660689646	 3.0931959601	 0.097275
H	-1.5760050774	-1.9118003015	 4.5262713267	 0.233134
63.4181	112.2908	126.7543	175.4408	236.9979	247.3092	338.617	371.7336	416.2664	509.3741	594.7163	752.4941	756.7871	795.4794	824.1653	917.1895	953.3716	989.0586	998.7286	1004.5322	1048.935	1053.8829	1084.0638	1089.9748	1124.6021	1136.5674	1158.8026	1226.922	1265.6698	1281.342	1294.2396	1346.744	1408.6471	1410.728	1463.8431	1490.8874	1501.5411	1514.366	1748.4213	3033.5725	3037.5579	3046.8169	3090.1569	3097.4861	3117.9051	3133.0957	3193.5374	3519.2563
CC1C2OCC12OC=N	C[C@H]1[C@H]2OC[C@@]12O[CH][NH]	
InChI=1S/C6H9NO2/c1-4-5-6(4,2-8-5)9-3-7/h3-5,7H,2H2,1H3	InChI=1S/C6H9NO2/c1-4-5-6(4,2-8-5)9-3-7/h3-5,7H,2H2,1H3/t4-,5+,6+/m0/s1
