15
gdb 49103	2.04102	1.6028	0.91094	5.0863	80.57	-0.2343	-0.0809	0.1534	1197.2637	0.113764	-416.845652	-416.837495	-416.836551	-416.878787	29.231	
O	-0.0379678264	-0.0937843758	 0.1486703621	-0.287866
C	-0.0202695589	 1.1223581623	 0.1201110085	 0.038253
C	 1.1954641118	 1.8992868294	 0.0162125431	 0.08749
C	 1.2938475171	 3.2544366353	-0.0523296857	 0.223417
N	 2.5901056111	 3.6924283502	-0.2268804528	-0.362656
C	 3.4970098198	 2.5622578958	 0.0598403545	-0.182291
C	 2.5879945699	 1.3200500815	-0.1208304551	-0.303966
C	 0.2250039942	 4.1963701221	 0.0007648216	 0.238377
N	-0.6240041357	 4.9808946416	 0.0557687119	-0.325886
H	-0.957280762	 1.7159162822	 0.1818809166	 0.08235
H	 2.8357995359	 4.6157200627	 0.0990329776	 0.261821
H	 4.35126378	 2.574686302	-0.6201835193	 0.130451
H	 3.8741395253	 2.6292928173	 1.0891286737	 0.121416
H	 2.7892867359	 0.5348042529	 0.6106039291	 0.14179
H	 2.713198392	 0.8709606004	-1.113520456	 0.137301
120.2289	124.5205	148.1565	172.0814	208.9605	330.0426	428.8813	446.8533	500.9008	549.1505	614.2334	682.8151	709.6611	785.158	873.2927	951.617	1015.1121	1036.8232	1049.8387	1075.7376	1187.9202	1228.4435	1273.2469	1298.9944	1329.5848	1359.4107	1422.3879	1475.4948	1487.2013	1524.2724	1641.7062	1754.587	2349.3574	2903.9317	3014.1655	3038.858	3100.3826	3110.7283	3611.8485
O=CC1=C(NCC1)C#N	O=CC1=C(NCC1)C#N	
InChI=1S/C6H6N2O/c7-3-6-5(4-9)1-2-8-6/h4,8H,1-2H2	InChI=1S/C6H6N2O/c7-3-6-5(4-9)1-2-8-6/h4,8H,1-2H2
