20
gdb 121759	3.84974	0.6823	0.64215	0.9211	72.92	-0.229	0.008	0.2369	1803.5626	0.169245	-477.43624	-477.425606	-477.424662	-477.473575	36.555	
C	-0.205854608	 0.7501185526	-0.81527349	-0.31961
N	-0.4298698657	 0.3384015284	 0.5698927777	-0.258656
C	-1.5136674425	-0.6055069069	 0.7261020757	-0.287378
C	-1.2128174455	-2.0151086292	 0.2141117185	 0.435694
O	-0.1143823206	-2.426925537	-0.0605561661	-0.355869
O	-2.3340284065	-2.7621113805	 0.1481047593	-0.25763
C	-2.1682889166	-4.1314529557	-0.2811800248	-0.075607
C	-3.5501407215	-4.7579569388	-0.2476213815	-0.069047
O	-4.4473851573	-4.1208307256	-1.1345068192	-0.417356
H	 0.6477234899	 1.4326910431	-0.8512949867	 0.12265
H	-0.0102625309	-0.0814565596	-1.5100505912	 0.113838
H	-1.0835278807	 1.2993774159	-1.1748473758	 0.118854
H	 0.4194713098	-0.0885241244	 0.9263266854	 0.229113
H	-1.7750321155	-0.7060966251	 1.7883862826	 0.133923
H	-2.4140825861	-0.2306929231	 0.2274564864	 0.128669
H	-1.7530033385	-4.1385952249	-1.2930851189	 0.130717
H	-1.4698698485	-4.6441127444	 0.3877202297	 0.121851
H	-3.4748361534	-5.8024750696	-0.5671163818	 0.118328
H	-3.9277646188	-4.7507924111	 0.7870530478	 0.09738
H	-4.4580225731	-3.1883135141	-0.8926090173	 0.290138
33.9502	60.6701	85.8121	112.3503	141.2467	185.1193	219.6605	287.4034	305.8527	349.5239	396.0055	461.2536	507.2953	576.9038	698.386	781.8863	851.8738	890.9963	949.3143	956.3505	1001.946	1033.7892	1094.2006	1126.1568	1146.2251	1157.1283	1199.1107	1218.5985	1234.024	1263.3262	1310.4448	1362.6075	1388.0597	1399.6674	1433.2949	1446.9485	1463.9165	1489.4354	1495.1602	1498.4649	1503.8975	1527.3104	1819.0472	2984.8937	2986.1229	3023.357	3054.6842	3062.1619	3079.261	3083.2288	3107.1521	3109.842	3523.5689	3811.0893
CNCC(=O)OCCO	CNCC(=O)OCCO	
InChI=1S/C5H11NO3/c1-6-4-5(8)9-3-2-7/h6-7H,2-4H2,1H3	InChI=1S/C5H11NO3/c1-6-4-5(8)9-3-2-7/h6-7H,2-4H2,1H3
