18
gdb 127077	2.50916	1.56471	0.98838	3.3458	77.79	-0.1928	0.0189	0.2117	1183.8986	0.147833	-435.242338	-435.233056	-435.232112	-435.276475	33.437	
C	-0.135079749	 1.5991884291	 0.1826425323	-0.336426
N	-0.1132920033	 0.1449150462	 0.2093329682	-0.171058
C	 0.8855913122	-0.459867495	 1.0792293039	-0.354787
C	-1.2638310721	-0.5358021528	-0.0606466003	 0.540133
C	-1.609077834	-1.877838529	-0.087785564	-0.064886
N	-0.7766892568	-2.9934632273	 0.2111464459	-0.613366
C	-2.9616269153	-1.8443472661	-0.5146906592	 0.009122
N	-3.4204153591	-0.638769436	-0.7306212104	-0.17842
O	-2.3209744686	 0.2048172123	-0.4345883145	-0.239979
H	 0.8915039526	 1.9581591522	 0.0659648738	 0.123739
H	-0.7309519598	 1.9520341624	-0.6590291582	 0.156103
H	-0.5500456678	 2.0315225417	 1.1058517993	 0.121532
H	 0.7160236099	-0.1988330899	 2.1354730997	 0.11341
H	 0.8508844147	-1.5442325939	 0.9758279125	 0.175323
H	 1.8778836865	-0.0962664826	 0.7932901988	 0.120889
H	-0.5133709033	-3.5043683673	-0.6259395401	 0.24188
H	-1.2410522998	-3.6493424304	 0.8300664328	 0.240137
H	-3.621085227	-2.6882166339	-0.6754090904	 0.116655
62.6498	129.8199	171.5055	180.6779	224.0772	237.487	269.7704	318.5252	347.9195	380.0642	515.4217	619.1544	630.3909	704.4324	726.8167	825.0169	895.7336	915.6248	927.8404	981.4939	1092.3797	1131.6874	1162.4722	1177.7956	1196.0247	1222.1272	1227.238	1301.2167	1347.1424	1428.3566	1452.4839	1472.6511	1487.5437	1499.8551	1502.844	1515.6295	1577.2773	1643.1261	1687.3719	2983.5671	2993.0503	3069.2982	3083.1628	3149.7238	3150.1992	3220.2426	3491.4244	3560.8538
CN(C)C1=C(N)C=NO1	CN(C)c1c(N)cno1	
InChI=1S/C5H9N3O/c1-8(2)5-4(6)3-7-9-5/h3H,6H2,1-2H3	InChI=1S/C5H9N3O/c1-8(2)5-4(6)3-7-9-5/h3H,6H2,1-2H3
