19
gdb 42940	2.3508	2.07411	1.42844	3.3123	78.42	-0.232	-0.0095	0.2225	961.5505	0.162613	-385.893662	-385.886869	-385.885925	-385.924597	28.538	
O	-0.0153512841	-0.0127834198	-0.050827593	-0.341227
C	-0.0066735954	 1.1958324279	 0.0144825762	 0.405435
C	-1.2710486726	 2.0123673918	 0.0053349733	-0.125463
C	-1.6994348727	 2.8841846906	 1.1822062128	-0.309199
C	-1.0756558858	 3.5186373374	-0.0218587959	-0.027564
C	 0.3888350595	 3.9514872999	-0.0277309772	-0.031683
C	 1.2418360074	 3.171888857	 1.0107567393	-0.250406
C	 1.2822892387	 2.0086672592	-0.0206333597	-0.105856
C	 1.1336982846	 3.121408059	-1.1166030359	-0.23018
H	-2.0762566073	 1.550552515	-0.5552589292	 0.107232
H	-2.7711685413	 2.9884082111	 1.3110915069	 0.120982
H	-1.1527222448	 2.8295008563	 2.1145818891	 0.126511
H	-1.723604022	 4.0902749975	-0.679582597	 0.092844
H	 0.4821864909	 5.0395457935	-0.045454216	 0.069032
H	 2.2317307922	 3.6254485365	 1.106557142	 0.107247
H	 0.8517776912	 2.9825080343	 2.0121401117	 0.103831
H	 2.141234126	 1.3382171464	-0.0480870167	 0.079437
H	 0.5898605368	 2.8753870619	-2.032341912	 0.104159
H	 2.1099601687	 3.5431639248	-1.3695009288	 0.104869
123.287	230.073	326.367	412.3594	431.0957	442.4736	483.9157	575.5491	679.2813	753.0599	764.4282	821.1271	826.6565	876.4584	894.5112	908.2831	941.3879	963.5463	966.3469	1001.3087	1029.6807	1056.8452	1075.4512	1105.7165	1112.0595	1118.873	1132.6978	1150.8225	1197.747	1237.9882	1248.8222	1259.9506	1271.8965	1323.1424	1342.6633	1357.2028	1385.9321	1474.6124	1495.6818	1523.2406	1803.7319	3055.9019	3065.4599	3081.5284	3112.7341	3116.1305	3117.9432	3145.9646	3151.3704	3173.7734	3231.8964
O=C1C2CC2C2CC1C2	O=C1[C@H]2C[C@H]2[C@H]2C[C@@H]1C2	
InChI=1S/C8H10O/c9-8-5-1-4(2-5)6-3-7(6)8/h4-7H,1-3H2	InChI=1S/C8H10O/c9-8-5-1-4(2-5)6-3-7(6)8/h4-7H,1-3H2/t4-,5+,6-,7-/m0/s1
