20
gdb 76991	3.03899	1.24596	1.05643	4.2754	81.9	-0.2283	0.0324	0.2607	1211.9353	0.16976	-403.146633	-403.137425	-403.136481	-403.180567	34.288	
C	-0.1668924544	 1.4937639463	-0.0907322063	-0.412969
C	-0.0086025668	-0.0134657369	 0.0272679918	-0.007945
N	 0.9944125208	-0.6653982282	-0.8445156121	-0.04119
C	 1.3130390235	-0.4805492206	-2.1436947377	 0.131578
O	 0.6833610607	 0.2019847396	-2.9290860633	-0.343285
C	 1.6847915876	-1.3045994978	 0.2581874185	-0.065739
C	 2.1954088613	-0.2638348567	 1.2198178774	-0.345986
C	 0.7289202048	-0.6353289338	 1.2425721035	 0.30084
C	 0.0300443485	-1.1889813799	 2.4489716785	-0.496076
H	 0.7749090954	 2.0148654634	 0.1031351234	 0.117165
H	-0.4994647099	 1.7558803803	-1.0971460803	 0.159599
H	-0.9105358858	 1.8455542825	 0.6318969626	 0.116019
H	-0.9824232927	-0.5016162385	-0.1078002748	 0.094767
H	 2.2165977	-1.0602610624	-2.4274964699	 0.067109
H	 2.0374373474	-2.3273689875	 0.1962911441	 0.112274
H	 2.7635324689	-0.6506554846	 2.060994206	 0.118468
H	 2.5426887806	 0.6936412941	 0.8428764415	 0.119043
H	-0.3452247397	-0.3843679824	 3.092498126	 0.128333
H	-0.8236925141	-1.8139593259	 2.1644244398	 0.124505
H	 0.7074065639	-1.800747581	 3.0530573914	 0.12349
55.3521	165.3427	181.4986	186.2719	214.764	244.283	278.074	315.963	366.4591	475.612	521.855	541.1861	645.7676	736.3074	786.6048	821.1712	892.151	928.7922	968.0207	983.9031	1029.1677	1044.5701	1062.0658	1076.1437	1107.2955	1130.4577	1141.2915	1176.9709	1243.3506	1255.106	1283.65	1375.0106	1398.0422	1405.4303	1407.8257	1427.8009	1454.3042	1483.9869	1486.9122	1490.0711	1498.1339	1503.9812	1782.2872	2911.6922	3021.776	3025.6114	3044.2527	3084.1369	3100.6558	3112.5417	3117.2271	3138.7711	3181.7134	3204.275
CC1N(C=O)C2CC12C	C[C@H]1N(C=O)[C@H]2C[C@@]12C	
InChI=1S/C7H11NO/c1-5-7(2)3-6(7)8(5)4-9/h4-6H,3H2,1-2H3	InChI=1S/C7H11NO/c1-5-7(2)3-6(7)8(5)4-9/h4-6H,3H2,1-2H3/t5-,6+,7+/m1/s1
