20
gdb 94978	2.82222	1.70457	1.32723	1.4155	78.9	-0.2251	0.0648	0.2899	1023.409	0.172823	-403.043777	-403.03631	-403.035366	-403.075522	30.245	
C	-0.0687523134	 1.5887037301	 0.0273989779	-0.403503
C	 0.0547211855	 0.0752976497	 0.01317322	 0.006437
O	 0.9543302433	-0.2973373285	-1.0691574795	-0.300619
C	 1.7758557228	-1.454836697	-0.7618017157	-0.128341
C	 1.3450793165	-1.8749220926	 0.6405749595	 0.013841
N	 2.0805211635	-1.7234349535	 2.0220032176	-0.174091
C	 2.1810156636	-0.2353949139	 1.6540797069	-0.201218
C	 0.7464063855	-0.5856762671	 1.181316047	 0.284474
C	 0.662949125	-1.3498224053	 2.5299771204	-0.259914
H	 0.8969579614	 2.0514129534	 0.2514017412	 0.121872
H	-0.4057325328	 1.9543418432	-0.9461219161	 0.129191
H	-0.7941782668	 1.9039877945	 0.7843863652	 0.114958
H	-0.9310330907	-0.3846807273	-0.1604425066	 0.06989
H	 1.5622636514	-2.2415356579	-1.4936121179	 0.104077
H	 2.82910654	-1.1739952252	-0.8644685973	 0.115046
H	 0.7178210349	-2.7699417344	 0.6411330731	 0.080286
H	 2.2823739083	 0.4158435073	 2.5259129598	 0.098275
H	 2.9479548327	-0.0104936442	 0.9132306023	 0.114952
H	-0.0175806805	-2.2021678453	 2.5983300395	 0.108376
H	 0.6856420598	-0.7724032162	 3.4573043327	 0.106011
101.364	184.3063	230.3021	265.7034	344.4924	428.607	499.5427	524.9816	606.8043	662.8668	692.9481	751.3612	807.2849	824.0824	862.6948	903.935	955.1273	969.7007	984.2173	1009.7317	1038.2623	1055.5792	1072.8759	1100.5592	1120.4321	1123.3458	1161.5858	1168.2348	1188.5143	1189.9067	1206.7962	1247.2877	1298.9448	1331.0022	1358.243	1385.2758	1397.8236	1410.3112	1484.8215	1497.9397	1507.0913	1523.5918	1557.5371	2975.0605	3034.981	3040.7913	3056.8277	3061.1703	3069.8562	3081.7273	3113.3728	3121.7437	3128.3879	3140.6783
CC1OCC2N3CC12C3	C[C@H]1OC[C@H]2N3C[C@@]12C3	
InChI=1S/C7H11NO/c1-5-7-3-8(4-7)6(7)2-9-5/h5-6H,2-4H2,1H3	InChI=1S/C7H11NO/c1-5-7-3-8(4-7)6(7)2-9-5/h5-6H,2-4H2,1H3/t5-,6-/m1/s1
