22
gdb 59097	2.06171	1.38033	1.06612	3.6635	83.71	-0.2352	0.0381	0.2733	1284.9619	0.192694	-404.389436	-404.379232	-404.378288	-404.42533	37.227	
C	-0.1846591766	 1.3702522176	 0.099666808	-0.387013
C	 0.1195664593	-0.1212369055	-0.1106135053	 0.030365
C	 0.8901104094	-0.3720109077	-1.4131124312	-0.387687
N	 0.8476919738	-0.6740998163	 1.025448107	-0.080724
C	 0.3736512099	-1.3340539102	 2.2583946255	 0.057502
C	-0.2180803366	-2.7221607415	 2.0665523796	-0.40154
C	 1.8359022244	-1.2351592307	 2.7834431832	-0.397886
C	 2.13746291	-0.4916123743	 1.4641313413	 0.415787
O	 3.0900434594	 0.0655251336	 0.9763801325	-0.388572
H	 0.747262154	 1.9404245345	 0.1573760471	 0.14341
H	-0.7800880672	 1.7638037948	-0.7302597948	 0.11503
H	-0.7447165159	 1.5318103487	 1.0260328815	 0.111659
H	-0.8295046138	-0.6706771185	-0.1542228222	 0.085512
H	 1.8685276397	 0.1123161059	-1.373128806	 0.156415
H	 1.0456384349	-1.4429111284	-1.571522561	 0.114979
H	 0.3316571867	 0.0271438659	-2.2651932487	 0.110257
H	-0.3201838689	-0.6999897714	 2.826293673	 0.080359
H	 0.4824533456	-3.3720870777	 1.5325395868	 0.123329
H	-0.4455016377	-3.1772176434	 3.0361148909	 0.123838
H	-1.1508006668	-2.6819163113	 1.4935022615	 0.121113
H	 1.9818670586	-0.6333512662	 3.6822167555	 0.127781
H	 2.3525987977	-2.1911064378	 2.8935559658	 0.126087
27.069	87.0539	116.3084	161.8881	228.742	232.7882	255.3402	266.6757	351.9255	394.5188	437.0322	467.2153	502.8388	579.544	685.6614	720.8706	836.8961	879.3565	913.3596	930.3911	949.4114	974.9069	1044.351	1055.9299	1090.5685	1111.4612	1140.678	1162.6326	1184.1138	1200.4763	1238.4863	1259.6072	1342.9508	1362.2992	1384.4379	1397.1673	1411.1216	1414.8122	1430.0842	1464.7732	1481.7555	1488.96	1492.5202	1496.9245	1498.165	1514.4191	1858.0154	3011.6301	3023.7945	3031.9698	3036.1666	3045.4611	3081.144	3099.3241	3106.221	3110.9138	3115.1362	3118.6499	3136.9004	3138.926
CC(C)N1C(C)CC1=O	CC(C)N1[C@@H](C)CC1=O	
InChI=1S/C7H13NO/c1-5(2)8-6(3)4-7(8)9/h5-6H,4H2,1-3H3	InChI=1S/C7H13NO/c1-5(2)8-6(3)4-7(8)9/h5-6H,4H2,1-3H3/t6-/m0/s1
