16
gdb 27052	2.94551	1.12782	0.88908	2.7961	72.15	-0.2334	-0.0229	0.2105	1275.4019	0.123263	-437.935553	-437.926871	-437.925927	-437.970667	30.014	
C	 0.104869455	 1.5478522907	 0.1865483565	-0.496695
C	-0.0398500726	 0.0733858794	 0.104850602	 0.268877
C	-1.0841252386	-0.7929683612	 0.0099345267	 0.143924
C	-2.5517347707	-0.5194605481	-0.0809309936	-0.388119
C	-3.0754652892	-0.7245531999	-1.4976280203	 0.161137
O	-3.7862584556	 0.0550512176	-2.0751925138	-0.235986
N	-0.5914313779	-2.0990988189	-0.0330373704	-0.304118
C	 0.6887849095	-1.9584783138	 0.0427166301	 0.062806
O	 1.1105228471	-0.6781263621	 0.1326146309	-0.173263
H	 0.6852366591	 1.9399394775	-0.6558900744	 0.148639
H	-0.8786275598	 2.0219668333	 0.1688457358	 0.147344
H	 0.6154105636	 1.8491127479	 1.1078875924	 0.145987
H	-3.0845019708	-1.2287169256	 0.567071513	 0.14424
H	-2.8060933581	 0.4938955974	 0.2376587055	 0.125235
H	-2.7418050128	-1.6738337278	-1.9705260398	 0.097627
H	 1.4497740218	-2.7229972165	 0.0468123794	 0.152365
28.1958	66.9865	123.0074	157.8108	236.0056	253.9258	348.2574	422.3088	450.5272	646.4582	653.9304	691.0172	740.7606	830.5857	838.5652	955.8167	969.8893	998.956	1052.3032	1066.1336	1113.4173	1152.6668	1202.0794	1251.1142	1273.3635	1317.1697	1364.7109	1418.3409	1423.033	1449.1395	1472.323	1487.8991	1562.5288	1674.2019	1835.0637	2901.458	3026.6304	3035.8517	3088.2433	3114.9483	3134.2883	3276.4142
CC1=C(CC=O)N=CO1	Cc1c(CC=O)nco1	
InChI=1S/C6H7NO2/c1-5-6(2-3-8)7-4-9-5/h3-4H,2H2,1H3	InChI=1S/C6H7NO2/c1-5-6(2-3-8)7-4-9-5/h3-4H,2H2,1H3
