17
gdb 35485	3.16693	1.52361	1.45512	2.5449	73.95	-0.2511	0.029	0.2802	955.5414	0.139409	-380.854821	-380.847997	-380.847053	-380.886138	27.083	
N	-0.0985008236	-1.2008381922	-0.1600202125	-0.336603
C	-0.0606653588	-0.0486486872	-0.0711668044	 0.282027
C	-0.0107702857	 1.4088821	 0.0406992129	-0.177867
C	-0.6392400769	 1.9642677868	 1.359842497	-0.232431
C	 0.5849103759	 2.3699442354	 2.1715141227	 0.011843
C	 1.5389849391	 1.182572811	 2.4681848214	-0.262649
C	 2.3094582325	 1.6330894401	 1.2364193937	-0.023843
C	 1.4203271586	 1.9603442032	 0.0951919754	-0.03518
N	 1.5794595938	 2.9630573821	 1.1683405404	-0.154119
H	-0.528761342	 1.8198960201	-0.8312330216	 0.132735
H	-1.2517238661	 2.8395387356	 1.1261001842	 0.122542
H	-1.2665001581	 1.2301356203	 1.8704954983	 0.130037
H	 0.3733618447	 3.0478849922	 2.9974612284	 0.089358
H	 2.1183370176	 1.3478184326	 3.3784914152	 0.119219
H	 1.1255653752	 0.1700051856	 2.4842858412	 0.124167
H	 3.3852646893	 1.5717369181	 1.1054242366	 0.101357
H	 1.8942093944	 2.2244963763	-0.8439967991	 0.109407
99.8243	155.9484	270.2478	358.3208	401.817	494.7351	563.0667	647.0441	709.9677	758.3613	790.9679	814.3079	820.2209	866.4906	882.3853	965.5328	993.7209	1012.7694	1021.8031	1035.7131	1074.0403	1083.5771	1094.5202	1148.3792	1186.1857	1199.3988	1232.7783	1255.8781	1277.1949	1313.6373	1326.8965	1340.143	1367.351	1407.2817	1482.6508	1500.4102	2353.6702	3059.3705	3060.1379	3069.4049	3114.6761	3119.9835	3125.867	3160.1905	3176.4482
N#CC1CC2CC3C1N23	N#C[C@H]1C[C@H]2C[C@H]3[C@@H]1N23	
InChI=1S/C7H8N2/c8-3-4-1-5-2-6-7(4)9(5)6/h4-7H,1-2H2	InChI=1S/C7H8N2/c8-3-4-1-5-2-6-7(4)9(5)6/h4-7H,1-2H2/t4-,5+,6+,7-,9?/m1/s1
