17
gdb 39441	2.54994	2.04429	1.37789	0.5797	67.17	-0.2342	0.0643	0.2985	933.9552	0.137307	-458.911801	-458.904902	-458.903957	-458.94296	27.643	
C	-0.0303616887	 1.468040223	-0.0330364315	-0.399249
C	 1.2950033881	 0.7282725565	 0.0496493308	 0.003338
O	 1.962569025	 0.6814183369	 1.2863958846	-0.24178
C	 1.9765054195	-0.633914898	 1.785630864	 0.010694
O	 0.695147088	-1.0822670849	 2.1748674517	-0.252236
C	-0.2824113227	-0.9794786696	 1.1662869048	 0.013844
C	-0.3742926238	-2.0198237341	 0.0145236121	-0.125835
O	-0.4006279805	-0.9477568839	-0.969428438	-0.310503
C	-0.0017113463	-0.0167568279	 0.0264718388	 0.389707
H	-0.3802379136	 2.013889992	 0.8373547935	 0.132239
H	-0.2503881372	 1.926841183	-0.9914063275	 0.131757
H	 1.9426354518	 0.7416858753	-0.8248024082	 0.104526
H	 2.4161873112	-1.315164636	 1.0381181944	 0.087038
H	 2.5810004556	-0.6280653807	 2.6938517961	 0.124579
H	-1.2394999495	-0.8287922156	 1.6709980519	 0.105028
H	 0.5185824794	-2.6483399893	-0.0876449788	 0.110299
H	-1.2752438464	-2.6367226469	-0.0347403988	 0.116556
141.241	183.8004	278.3547	360.2945	414.8264	426.2431	475.0806	536.7869	577.9763	697.1803	787.3563	830.4377	858.3819	900.7377	965.9446	972.7562	999.5459	1017.946	1029.8158	1039.9268	1077.5428	1089.5111	1116.5255	1147.6452	1174.5883	1205.5719	1220.4539	1256.5051	1305.834	1316.8002	1339.6649	1395.2041	1399.1583	1443.5288	1473.3493	1508.638	1522.1356	2963.1847	3032.1875	3080.329	3103.7807	3123.9207	3126.8886	3130.6545	3222.6607
C1C2OCOC3COC123	C1[C@H]2OCO[C@@H]3CO[C@]123	
InChI=1S/C6H8O3/c1-4-6(1)5(2-9-6)8-3-7-4/h4-5H,1-3H2	InChI=1S/C6H8O3/c1-4-6(1)5(2-9-6)8-3-7-4/h4-5H,1-3H2/t4-,5-,6-/m1/s1
