17
gdb 44758	2.70324	1.65676	1.2271	3.1761	79.3	-0.2346	-0.0109	0.2238	1030.6168	0.136274	-384.667175	-384.659635	-384.658691	-384.698999	30.187	
O	 0.0134924521	 0.0552269586	-0.0371699864	-0.318305
C	 0.007525754	 1.2520900043	-0.0057752163	 0.400357
C	-1.1955856861	 2.217552529	 0.0206729753	-0.330647
C	-0.4093910355	 3.5392194745	 0.0549998884	-0.051032
C	 0.6863481182	 3.2935559687	-1.018483595	-0.265807
C	 1.2051341396	 2.2238193793	 0.019097246	 0.11405
C	 0.6878504743	 3.2372514481	 1.1124581798	-0.265802
C	 2.5334188362	 1.6840595783	 0.0038959871	 0.064036
C	 3.6489630867	 1.2360413273	-0.0086909259	-0.327599
H	-1.819171757	 2.0898981838	-0.8694974422	 0.128185
H	-1.8178097567	 2.0430312519	 0.9038145853	 0.128197
H	-0.9810206806	 4.4650087758	 0.0798675597	 0.079802
H	 0.3854145797	 2.9354860799	-2.0065056378	 0.111164
H	 1.3937489864	 4.1194406555	-1.1097350624	 0.119702
H	 1.3954026811	 4.0571978644	 1.2461972193	 0.119704
H	 0.388300983	 2.827493152	 2.080616876	 0.111167
H	 4.6300447248	 0.8305577588	-0.0199403207	 0.182831
124.9656	130.711	184.5773	387.2512	397.3674	461.3782	491.9112	499.4973	597.1134	613.421	627.2881	628.1243	643.8652	759.9105	835.5992	889.3451	889.7453	907.5923	964.1088	984.2708	988.6826	1015.4922	1070.0892	1090.7759	1130.1439	1160.2949	1195.6995	1212.6405	1250.3471	1275.7699	1298.5041	1327.8684	1462.906	1486.9875	1523.6496	1875.4429	2240.7818	3056.8297	3063.6377	3066.6016	3103.517	3130.6211	3131.9453	3135.6277	3504.6546
O=C1CC2CC1(C2)C#C	O=C1C[C@@H]2C[C@]1(C2)C#C	
InChI=1S/C8H8O/c1-2-8-4-6(5-8)3-7(8)9/h1,6H,3-5H2	InChI=1S/C8H8O/c1-2-8-4-6(5-8)3-7(8)9/h1,6H,3-5H2/t6-,8+
