16
gdb 75976	2.44447	1.62406	1.29762	2.4655	67.79	-0.2662	-0.0106	0.2556	1012.2812	0.126967	-471.212696	-471.204785	-471.203841	-471.245293	29.721	
N	-0.2439451299	 1.3947141595	 0.3848814424	-0.525287
C	-0.0329101784	-0.0284116128	 0.0533646635	-0.173619
C	 0.7522746682	-0.6582723546	 1.18878506	 0.424833
N	 2.0010081782	-0.8218833566	 1.1082222216	-0.518446
O	 0.020446026	-1.0299041021	 2.281018327	-0.242475
C	-1.3408251577	-0.6397900226	 2.2706847514	 0.012167
O	-1.9973594279	-1.0505335719	 1.085101238	-0.242475
C	-1.3961832908	-0.6802395054	-0.0845680581	 0.424833
N	-1.9223970891	-0.8620020731	-1.2171120599	-0.518446
H	 0.6625710292	 1.8490426547	 0.4529460233	 0.248268
H	-0.745625299	 1.8346447446	-0.3816672043	 0.248268
H	 0.5190614278	-0.1978294609	-0.875023521	 0.125457
H	 2.367093025	-1.230116401	 1.9710665116	 0.227882
H	-1.8219206184	-1.1701362457	 3.091559215	 0.138537
H	-1.416024359	 0.445884094	 2.3788360307	 0.14262
H	-2.8487766743	-1.2834503959	-1.1202884613	 0.227882
89.7572	111.0082	235.2549	250.7758	309.7301	350.129	376.8858	440.8965	531.2245	536.3839	666.9894	730.7716	759.348	806.9895	865.1681	919.2803	920.9406	954.0991	1013.8489	1028.3251	1069.7033	1082.6439	1145.3236	1193.5696	1201.2396	1286.8471	1313.5968	1343.4765	1367.2748	1377.3605	1467.3728	1510.7202	1643.4707	1760.6054	1783.1067	3068.3455	3075.8483	3154.2253	3465.7576	3466.0785	3486.5114	3571.1009
NC1C(=N)OCOC1=N	N[C@H]1[C]([NH])OCO[C]1[NH]	
InChI=1S/C4H7N3O2/c5-2-3(6)8-1-9-4(2)7/h2,6-7H,1,5H2	InChI=1S/C4H7N3O2/c5-2-3(6)8-1-9-4(2)7/h2,6-7H,1,5H2
