18
gdb 86658	2.95993	1.23887	0.96343	1.5941	78.07	-0.2223	-0.0109	0.2114	1223.3263	0.147478	-439.124558	-439.115647	-439.114703	-439.158346	32.829	
C	-0.0937877983	 1.511885318	-0.0345792746	-0.470405
C	-0.0651557411	 0.019273047	-0.0731363835	 0.370955
C	-0.1487548302	-0.7803627184	-1.1487883921	-0.274504
C	 0.0296724099	-2.2263199007	-0.7729769437	 0.082811
O	 1.2751216877	-2.7637937808	-1.2145786156	-0.428281
C	-0.1111497336	-2.1745877778	 0.770984667	-0.218374
N	 0.0482887493	-0.7496907821	 1.1078138645	-0.117612
C	 0.2544962285	-0.3092855066	 2.3845723234	 0.142447
O	 0.3737581747	 0.8442680738	 2.7397255847	-0.331807
H	 0.8202158281	 1.9154541187	 0.4071753903	 0.157287
H	-0.2088741756	 1.8977512116	-1.0500591267	 0.120939
H	-0.917292486	 1.8764170699	 0.5854243183	 0.151756
H	-0.2345776955	-0.4336765969	-2.1688176062	 0.104871
H	-0.7230208138	-2.8937370716	-1.2014366957	 0.097311
H	 1.9330817539	-2.0646129896	-1.1274363441	 0.277373
H	-1.1025672686	-2.5210496216	 1.0832136536	 0.123547
H	 0.6506244149	-2.7905819634	 1.25377946	 0.131621
H	 0.3036731258	-1.1612944596	 3.0912067704	 0.080066
58.8045	126.5613	202.5092	205.6208	244.4394	263.9488	323.1794	331.8353	387.5885	453.898	506.0442	603.0116	664.9385	769.668	806.4408	812.7015	855.4813	952.5043	1012.1633	1026.7373	1048.426	1069.2586	1081.2568	1121.1946	1191.766	1252.7036	1266.178	1288.7992	1302.3277	1345.1993	1414.9254	1423.3408	1434.5503	1450.6165	1469.3803	1472.679	1498.9146	1694.0189	1792.4947	2937.0747	3039.4407	3054.9169	3075.6065	3112.7	3120.4688	3137.0618	3236.2755	3795.9145
CC1=CC(O)CN1C=O	CC1=C[C@@H](O)CN1C=O	
InChI=1S/C6H9NO2/c1-5-2-6(9)3-7(5)4-8/h2,4,6,9H,3H2,1H3	InChI=1S/C6H9NO2/c1-5-2-6(9)3-7(5)4-8/h2,4,6,9H,3H2,1H3/t6-/m1/s1
