19
gdb 113396	2.99397	0.95494	0.8213	1.7877	68.03	-0.2587	0.0549	0.3136	1417.4285	0.157581	-497.258397	-497.248481	-497.247537	-497.293776	35.813	
O	-0.2381446603	 1.2906399271	-0.7105213679	-0.414111
C	 0.0059981045	 0.1429359091	 0.0849732041	-0.096791
C	-1.2807259722	-0.6036326751	 0.3444826428	-0.018246
O	-1.7922864926	-1.3758864628	-0.7552387061	-0.305314
C	-1.4291092398	-2.0661567119	 0.4603724269	 0.30156
C	-0.2637248749	-3.0386946366	 0.3668117346	-0.112913
O	-0.5947674854	-4.2340989005	-0.3086643909	-0.428553
C	-2.6487471705	-2.5904816882	 1.2004907546	-0.137589
O	-3.22395391	-3.7139061235	 0.5321120735	-0.415741
H	-0.6029711855	 0.9801672325	-1.5469673338	 0.294713
H	 0.7522723843	-0.5141359883	-0.3784762422	 0.102747
H	 0.4171900783	 0.5090995953	 1.0320918227	 0.11809
H	-2.0386019518	 0.0144577914	 0.8313468686	 0.094805
H	 0.5645428045	-2.5893999122	-0.1853923686	 0.108158
H	 0.0932890176	-3.2357827862	 1.3935853995	 0.086174
H	-1.4663211078	-4.5103076801	 0.0078811355	 0.289497
H	-2.3710034718	-2.9445488024	 2.1985619799	 0.122858
H	-3.3882423833	-1.7871719427	 1.3141939846	 0.107322
H	-3.4684991333	-3.4118374449	-0.3516582679	 0.303333
58.6926	76.7218	118.116	162.4609	191.2303	240.4136	319.5195	333.4544	356.1968	395.4015	418.3132	449.7638	518.2203	626.7997	653.0676	749.9804	833.6711	924.6741	926.2194	979.9241	1026.6695	1037.0404	1070.7751	1092.1181	1105.0456	1125.7944	1188.2519	1222.3242	1246.1153	1291.5717	1326.2169	1363.7051	1371.8905	1403.5115	1421.2777	1423.7645	1472.6213	1486.6513	1490.6143	1499.2734	1504.1971	2946.6622	3019.778	3026.053	3074.8901	3086.7712	3092.1577	3102.9044	3727.6369	3788.006	3803.0449
OCC1OC1(CO)CO	OC[C@H]1OC1(CO)CO	
InChI=1S/C5H10O4/c6-1-4-5(2-7,3-8)9-4/h4,6-8H,1-3H2	InChI=1S/C5H10O4/c6-1-4-5(2-7,3-8)9-4/h4,6-8H,1-3H2/t4-/m1/s1
