16
gdb 65584	2.99079	1.50474	1.31303	3.4607	68.36	-0.2754	0.0173	0.2927	1007.2749	0.123074	-437.874266	-437.86634	-437.865396	-437.906617	30.145	
C	 0.1089827733	 1.4773082369	 0.0148516501	-0.431609
C	 0.0608380329	-0.0372804352	 0.0046559577	 0.288715
O	 0.7686528649	-0.548507121	-1.1124719237	-0.270533
C	 1.2645978068	-1.8138359479	-0.7159302462	 0.05369
C	 2.5545892113	-1.7831248887	 0.0699757473	-0.322399
C	 1.2194828605	-1.8224572458	 0.7761002337	 0.053691
O	 0.7000485563	-0.5616171339	 1.1565388273	-0.270534
C	-1.351776981	-0.5365704389	-0.040969912	 0.278012
N	-2.4396629062	-0.9236612552	-0.0759936638	-0.335503
H	 1.1542378597	 1.7894912426	 0.0482722743	 0.141279
H	-0.3634556238	 1.8706744253	-0.8873488723	 0.151652
H	-0.417260917	 1.860409538	 0.8913223489	 0.151652
H	 0.9790320049	-2.6402954828	-1.3549055117	 0.124641
H	 3.1544587125	-2.6872920402	 0.0828915025	 0.127151
H	 3.103062286	-0.8488738086	 0.091957854	 0.135452
H	 0.8961199688	-2.6561382444	 1.3870708638	 0.124642
96.2943	164.1195	192.6652	211.5134	314.9872	323.278	413.8486	444.0554	562.874	581.7612	649.4797	743.9271	785.751	789.9933	808.8959	894.2916	896.3125	955.8411	1006.2715	1015.3446	1067.9751	1093.2848	1105.4464	1137.3662	1146.9964	1173.0474	1198.2978	1242.2114	1328.1493	1371.9449	1409.9842	1459.3091	1477.6087	1479.9882	2352.3494	3065.2037	3137.5842	3151.476	3155.2406	3186.4689	3194.6813	3237.2222
CC1(OC2CC2O1)C#N	C[C@]1(O[C@H]2C[C@H]2O1)C#N	
InChI=1S/C6H7NO2/c1-6(3-7)8-4-2-5(4)9-6/h4-5H,2H2,1H3	InChI=1S/C6H7NO2/c1-6(3-7)8-4-2-5(4)9-6/h4-5H,2H2,1H3/t4-,5+,6+
