16
gdb 128213	2.81189	1.48855	0.9793	3.223	78.27	-0.2043	-0.0294	0.1749	1153.6938	0.126917	-434.11591	-434.107809	-434.106864	-434.148943	29.767	
C	-0.0589732517	 1.4412599918	 0.1348614478	-0.32629
N	 0.042082151	 0.0158191198	-0.0467157564	-0.346178
C	 0.638962975	-0.5792530421	-1.0981347114	 0.28144
C	 1.2511453928	 0.0232051482	-2.171413942	-0.269604
C	 1.8230646442	-0.7932928846	-3.180331436	 0.031401
N	 1.8197655393	-2.0983068977	-3.1797996484	-0.230922
N	 1.2079126029	-2.6610388915	-2.1070482832	-0.278203
C	 0.6015840003	-2.0506121024	-1.0389266216	 0.395661
O	 0.0768671473	-2.6733222389	-0.1199044044	-0.420431
H	 0.9313709308	 1.9130372193	 0.191993154	 0.133875
H	-0.6118839729	 1.9156665408	-0.6872283463	 0.133855
H	-0.5891152617	 1.6463259239	 1.0660586052	 0.140028
H	-0.3434436153	-0.630903646	 0.6268271453	 0.267399
H	 1.3052423279	 1.1015661709	-2.2619162892	 0.099013
H	 2.3112485438	-0.3387574338	-4.0362016479	 0.117959
H	 1.2034824864	-3.6718848377	-2.1036971553	 0.270999
82.7805	112.4379	172.5149	191.255	267.1037	354.6705	460.7703	502.5519	527.7726	563.1092	605.6503	610.9518	729.0512	781.6207	794.6047	843.4784	898.5305	942.3757	1063.3969	1085.3999	1140.9977	1160.2951	1191.5333	1271.3393	1328.9508	1383.6095	1408.5324	1433.8365	1466.1973	1480.1839	1516.1028	1544.3171	1611.524	1662.5021	1747.8268	3001.8799	3044.3431	3135.3453	3183.7962	3201.5964	3600.6873	3604.6745
CNC1=CC=NNC1=O	CNc1ccn[nH]c1=O	
InChI=1S/C5H7N3O/c1-6-4-2-3-7-8-5(4)9/h2-3H,1H3,(H,6,7)(H,8,9)	InChI=1S/C5H7N3O/c1-6-4-2-3-7-8-5(4)9/h2-3H,1H3,(H,6,7)(H,8,9)
