19
gdb 82845	3.11178	1.72156	1.69008	1.7795	72.49	-0.2514	0.0825	0.3339	912.4725	0.162625	-423.030926	-423.024338	-423.023394	-423.06158	27.759	
C	-0.1431453936	 1.5985267863	 0.0701256057	-0.419778
C	 0.052051684	 0.0932053139	-0.0118696351	 0.018405
C	 0.7851180157	-0.577807368	-1.213640845	-0.113571
C	 2.1233869622	 0.1269746281	-1.5421949652	-0.240223
C	 2.9636618519	-0.3727409733	-0.3517973011	 0.172313
O	 2.3605470102	 0.0881134145	 0.8571401473	-0.276407
C	 1.0974922817	-0.5944651153	 0.8987489048	 0.051681
C	 1.3198142366	-1.6771020846	-0.2127992191	 0.075084
O	 2.7200432501	-1.7688418278	-0.3628551558	-0.242462
H	 0.8153036598	 2.1230063816	 0.0878847178	 0.129626
H	-0.726576563	 1.9715190178	-0.7785963273	 0.113003
H	-0.6802132851	 1.868364204	 0.9859588609	 0.115589
H	-0.9084581374	-0.4185324731	 0.131138202	 0.072167
H	 0.2021010143	-0.8684447618	-2.0873175843	 0.068543
H	 2.5510950813	-0.2402947172	-2.4790871812	 0.108469
H	 2.0531605973	 1.2148962403	-1.5882853945	 0.108999
H	 4.0309735888	-0.1575086317	-0.3358857285	 0.091957
H	 0.864037332	-0.8426129453	 1.9351831706	 0.075999
H	 0.8464640031	-2.6522586182	-0.1450602119	 0.090605
173.518	212.441	257.6511	422.8266	446.6129	532.3935	595.699	627.7938	665.359	752.4923	817.3966	829.0487	849.4909	857.4975	872.9442	925.6148	954.1637	966.6454	982.7761	1010.1505	1049.6666	1071.7505	1088.6531	1114.6998	1119.9015	1147.2028	1171.8999	1199.3058	1223.5113	1245.5362	1277.2704	1289.9396	1307.1969	1329.023	1349.6694	1368.5984	1384.0331	1412.8516	1479.1695	1491.6672	1514.0071	3022.8637	3036.6023	3068.3568	3093.9387	3099.9608	3108.4339	3123.6297	3129.2269	3143.9967	3168.9955
CC1C2CC3OC1C2O3	C[C@H]1[C@H]2C[C@H]3O[C@@H]1[C@@H]2O3	
InChI=1S/C7H10O2/c1-3-4-2-5-8-6(3)7(4)9-5/h3-7H,2H2,1H3	InChI=1S/C7H10O2/c1-3-4-2-5-8-6(3)7(4)9-5/h3-7H,2H2,1H3/t3-,4+,5-,6-,7+/m0/s1
