12
gdb 131889	2.91494	1.69404	1.07156	4.2299	64.62	-0.242	-0.0789	0.1631	997.0829	0.078178	-505.892115	-505.884753	-505.883809	-505.924229	26.488	
N	 0.0647568205	 1.3953599539	 0.0789517917	-0.591509
C	-0.0041912109	 0.0574044942	 0.0288080869	 0.314114
C	-1.1183387233	-0.758328363	 0.0183541134	 0.357125
O	-0.6970243964	-2.0665061544	-0.0082405773	-0.149432
C	 0.6359112528	-1.9610383395	-0.0154890687	 0.101397
N	 1.1165574384	-0.7541042083	 0.0044155448	-0.311867
N	-2.4750283376	-0.4438413397	 0.0108997032	 0.341283
O	-2.7339653771	 0.7753360796	 0.0234501696	-0.431318
O	-3.3071055932	-1.3441097153	-0.0089335426	-0.374919
H	 0.952711338	 1.8441941156	-0.0624374945	 0.278445
H	-0.7992801369	 1.9069921275	-0.009217235	 0.291959
H	 1.1941399057	-2.8845784306	-0.0368426214	 0.174722
111.3944	147.7736	203.7952	238.7294	311.6523	354.6684	458.693	555.0914	574.4972	608.5938	725.5202	735.9466	774.8542	843.0526	889.2708	942.1829	1014.8824	1190.7474	1205.3631	1242.2766	1339.4279	1363.814	1462.8484	1542.7265	1568.6684	1601.1935	1702.3245	3274.8746	3592.9597	3738.3829
NC1=C(OC=N1)N(=O)=O	Nc1c(ocn1)N(=O)=O	
InChI=1S/C3H3N3O3/c4-2-3(6(7)8)9-1-5-2/h1H,4H2	InChI=1S/C3H3N3O3/c4-2-3(6(7)8)9-1-5-2/h1H,4H2
