19
gdb 83835	2.0992	1.87264	1.31331	4.4426	74.94	-0.2547	0.0073	0.2619	1043.2614	0.160961	-423.060067	-423.052034	-423.05109	-423.092692	30.979	
C	-0.1354605938	 1.4919276104	 0.2047249836	-0.420758
C	 0.0210026924	 0.003419372	-0.0134087927	-0.00974
C	 0.6424010412	-0.5987372431	-1.2469048316	-0.070095
C	 1.2862985763	 0.2789935887	-2.3146601226	-0.246091
C	 2.7833865513	 0.3987932783	-2.0583534844	-0.070045
O	 3.0763442038	 0.8556660883	-0.7252993244	-0.233238
C	 2.5882369719	 0.1410228477	 0.3288790875	 0.415145
O	 3.1115545826	 0.2465383603	 1.4047386544	-0.33231
C	 1.3746374778	-0.6961650948	 0.0796548008	-0.194215
H	 0.7218517544	 2.0600400221	-0.1641493882	 0.136483
H	-1.0323900102	 1.8661016224	-0.3012899735	 0.118164
H	-0.2363681815	 1.7116842938	 1.272073852	 0.134941
H	-0.7882623832	-0.5841174131	 0.4116929288	 0.09692
H	 0.1925830056	-1.5186214935	-1.6058825379	 0.093811
H	 1.1334530217	-0.1599502969	-3.3056978637	 0.111126
H	 0.8352332594	 1.2762259902	-2.3401858001	 0.117882
H	 3.2770071681	-0.5688588975	-2.2152944578	 0.114054
H	 3.2555204857	 1.1313585358	-2.7171221982	 0.122048
H	 1.3985137667	-1.6358589613	 0.6180819881	 0.115919
79.8692	138.5389	193.8713	234.1783	288.6448	373.4504	429.2379	462.2764	502.8071	538.3642	687.8121	726.9833	760.6211	791.9038	802.6538	909.8149	928.3655	942.8499	992.806	1013.7671	1054.7965	1081.8253	1091.4375	1112.9188	1146.8633	1155.7062	1202.9539	1246.819	1249.1946	1287.8245	1352.7629	1361.4906	1381.7359	1421.1748	1421.623	1430.7841	1482.0867	1501.9592	1506.3394	1510.3237	1842.1157	3026.1012	3037.3125	3048.6398	3087.2022	3099.1293	3106.0478	3120.144	3143.3805	3157.177	3187.0688
CC1C2CCOC(=O)C12	C[C@H]1[C@H]2CCOC(=O)[C@@H]12	
InChI=1S/C7H10O2/c1-4-5-2-3-9-7(8)6(4)5/h4-6H,2-3H2,1H3	InChI=1S/C7H10O2/c1-4-5-2-3-9-7(8)6(4)5/h4-6H,2-3H2,1H3/t4-,5+,6-/m0/s1
