18
gdb 128105	1.91537	1.8089	0.99512	3.4736	75.71	-0.2231	0.0118	0.2349	1199.6556	0.147525	-435.257317	-435.247805	-435.246861	-435.29179	34.235	
C	-0.3139297973	 1.4101480258	 0.0521121069	-0.32929
N	 0.1228860428	 0.0114848884	 0.0837759453	-0.395848
C	 0.7327850226	-0.4686279921	-1.0970621872	-0.04101
C	 0.1519291177	-1.2080754632	-2.0840642867	 0.433572
C	-1.229123268	-1.7287223326	-2.2450343274	-0.496048
O	 1.0498502692	-1.4878513176	-3.0406176169	-0.231113
N	 2.2957792705	-0.92760436	-2.6939553176	-0.242019
C	 2.0914085718	-0.3313223158	-1.54324423	 0.366983
N	 3.1274586284	 0.2617784536	-0.8350392691	-0.596022
H	 0.4879877034	 2.136980456	-0.1621631665	 0.094032
H	-1.0809306538	 1.5319629675	-0.7179682341	 0.132986
H	-0.7591254053	 1.6678616033	 1.0175756219	 0.122545
H	 0.7213119308	-0.1530848953	 0.8856181913	 0.231231
H	-1.7558586256	-1.2285218397	-3.0652544721	 0.142585
H	-1.2171629201	-2.8005006179	-2.4661074523	 0.146599
H	-1.781070006	-1.559706771	-1.3178116168	 0.149385
H	 3.9666910752	 0.3593908388	-1.3925434847	 0.2598
H	 2.8738456137	 1.1405743919	-0.4041802341	 0.251633
61.9878	139.9761	146.031	161.4259	183.2089	250.7573	257.448	273.9494	362.0382	454.6713	519.2668	578.7217	624.7506	679.2105	685.1932	765.5908	782.2058	818.713	922.8687	1006.2295	1045.2849	1061.0105	1067.5303	1142.936	1152.5801	1179.673	1276.5242	1331.4841	1406.06	1453.7884	1457.9102	1478.5553	1483.6523	1490.5586	1501.2877	1519.9832	1565.1236	1641.0076	1699.5938	2957.7501	3038.4395	3070.8785	3096.4967	3115.679	3136.0494	3528.2385	3543.4323	3640.0853
CNC1=C(C)ON=C1N	CNc1c(C)onc1N	
InChI=1S/C5H9N3O/c1-3-4(7-2)5(6)8-9-3/h7H,1-2H3,(H2,6,8)	InChI=1S/C5H9N3O/c1-3-4(7-2)5(6)8-9-3/h7H,1-2H3,(H2,6,8)
