20
gdb 87368	2.15317	1.61188	1.09326	2.7701	81.61	-0.2151	-0.0192	0.1959	1177.1713	0.169113	-403.125523	-403.116312	-403.115367	-403.159359	34.628	
C	-0.597101728	 1.3113110913	-0.0768170351	-0.414764
C	-0.3409772038	-0.1558168285	 0.1886371583	-0.053082
C	 0.963197849	-0.7908862217	-0.214514214	-0.332413
C	 0.6175729621	-0.6778004586	 1.2492220591	 0.222534
N	 1.3926936882	-0.0347116784	 2.3292571131	-0.15108
C	 1.1234571619	 1.334956146	 2.7227364107	-0.331018
C	 0.9910232229	-1.084143586	 3.3048264437	-0.293761
C	 0.3132369337	-1.8361429095	 2.148326453	 0.340369
O	-0.2345875774	-2.8923680678	 2.011838605	-0.314298
H	 0.3204375725	 1.9025006357	-0.0176062807	 0.121741
H	-1.0032617636	 1.4379821898	-1.0863225568	 0.125232
H	-1.3186150203	 1.734634614	 0.6290103345	 0.124143
H	-1.2201717796	-0.788452813	 0.0828606343	 0.108981
H	 0.9703171	-1.785625172	-0.6485030198	 0.12966
H	 1.7437711754	-0.1244730759	-0.5696360819	 0.121638
H	 0.0603787503	 1.5349617377	 2.9486405683	 0.097631
H	 1.7077019669	 1.5628197114	 3.6199366715	 0.124793
H	 1.443949502	 2.0277332982	 1.9399557806	 0.123823
H	 1.8231089677	-1.5871880945	 3.8074842453	 0.131474
H	 0.2619616202	-0.7491360282	 4.0584150207	 0.118396
69.2623	120.3828	177.8182	209.8411	229.8584	273.6664	304.5589	310.9419	364.0728	461.4136	536.8193	577.0698	601.0407	649.9787	754.5842	807.3019	872.5399	921.3974	943.7948	987.5424	1008.9082	1040.2449	1065.5528	1092.4507	1112.5979	1133.3847	1161.9564	1180.9224	1189.8906	1197.5057	1250.4535	1277.468	1328.2234	1402.266	1421.0259	1451.3998	1469.9885	1476.3024	1487.0707	1496.9616	1504.4026	1506.1008	1900.095	2941.8288	2994.3546	3036.0707	3068.6869	3076.3721	3096.1793	3107.7476	3113.5245	3121.7251	3132.7685	3213.6141
CC1CC11N(C)CC1=O	C[C@H]1C[C@]21N(C)CC2=O	
InChI=1S/C7H11NO/c1-5-3-7(5)6(9)4-8(7)2/h5H,3-4H2,1-2H3	InChI=1S/C7H11NO/c1-5-3-7(5)6(9)4-8(7)2/h5H,3-4H2,1-2H3/t5-,7+/m0/s1
