12
gdb 132213	1.9693	1.81433	0.94432	1.7019	61.71	-0.2369	-0.0268	0.2101	1086.3634	0.077022	-521.895169	-521.888328	-521.887384	-521.926761	25.866	
F	 0.1067889	 0.0935910772	 0.0442736667	-0.032635
C	-0.0528909034	 1.392031675	-0.015061644	 0.400039
C	-1.2082238583	 2.0396982669	 0.1289174621	-0.372921
C	-1.2484797393	 3.500144265	 0.0397209236	 0.338428
N	-2.3651014312	 4.1195738728	 0.1792678299	-0.538799
C	 0.0659638808	 4.1009711868	-0.2117522338	-0.43455
C	 1.1431379931	 3.3228830058	-0.3345680215	 0.408186
F	 2.3615688441	 3.7481918451	-0.5590339049	-0.031722
O	 1.1492965096	 1.975720461	-0.2472841796	-0.219144
H	-2.1200565511	 1.4892872538	 0.3121184569	 0.142617
H	-2.2274806566	 5.1281718503	 0.090943438	 0.210716
H	 0.1815627522	 5.1732391304	-0.3006738635	 0.129785
155.4337	188.1075	221.4268	338.8732	358.2855	497.6191	511.1236	596.5577	618.6745	622.9823	646.4879	693.9652	817.4789	866.19	902.6354	939.6733	972.1554	1037.3192	1144.3272	1234.0879	1264.7195	1301.2887	1387.8087	1425.4276	1670.7794	1707.9889	1770.3172	3222.0663	3243.1545	3451.8725
FC1=CC(=N)C=C(F)O1	F[C@H]1C=C([NH])C=C(F)O1	
InChI=1S/C5H3F2NO/c6-4-1-3(8)2-5(7)9-4/h1-2,8H	InChI=1S/C5H4F2NO/c6-4-1-3(8)2-5(7)9-4/h1-2,4,8H/t4-/m1/s1
