16
gdb 123898	3.69958	1.57692	1.14908	4.0871	70.14	-0.2502	0.0005	0.2508	1006.5178	0.128426	-434.066665	-434.060003	-434.059059	-434.097912	25.655	
C	-0.0180534786	 1.4144690558	 0.0257231199	-0.099666
C	 1.4227130047	 1.9313047236	-0.0114387791	-0.155333
N	 2.1073703259	 1.2349095571	-1.0865391535	 0.008146
N	 3.2715110616	 1.6534377976	-1.6219810834	-0.161736
N	 3.6219381851	 0.7679549597	-2.5127903404	-0.188992
C	 2.6913407601	-0.2253822944	-2.5478788932	-0.179611
C	 1.7074586373	 0.0590085884	-1.6275138143	 0.312307
C	 0.412369992	-0.5577390375	-1.1871989715	-0.20175
O	-0.0384172485	-0.0021823422	 0.0391113818	-0.242206
H	-0.5141363037	 1.7471263818	 0.9401923762	 0.129071
H	-0.5814028267	 1.8023837372	-0.8377870795	 0.108887
H	 1.4630574853	 3.0066147229	-0.2014279785	 0.143061
H	 1.9279647554	 1.7234634233	 0.9374431596	 0.141982
H	 2.7825709744	-1.0640480056	-3.2190450897	 0.123842
H	-0.3543880857	-0.4214431993	-1.9683943695	 0.119927
H	 0.5254127315	-1.6320735584	-1.018773165	 0.142071
104.986	193.3455	276.5188	340.8077	377.4323	463.4138	529.1232	659.0818	708.6014	723.1864	748.7862	836.0774	873.7955	966.4684	981.8656	1005.1696	1030.0978	1117.6597	1123.7316	1138.1285	1169.5674	1221.3298	1242.6793	1277.7567	1296.0821	1318.2508	1323.5393	1367.7007	1385.7407	1414.3744	1478.4621	1491.0395	1499.6441	1516.2083	1581.1804	2964.2179	2986.8278	3055.1251	3090.5681	3109.2964	3115.4762	3269.0239
C1CN2N=NC=C2CO1	C1Cn2nncc2CO1	
InChI=1S/C5H7N3O/c1-2-9-4-5-3-6-7-8(1)5/h3H,1-2,4H2	InChI=1S/C5H7N3O/c1-2-9-4-5-3-6-7-8(1)5/h3H,1-2,4H2
