23
gdb 118408	1.54761	0.97058	0.62465	1.4899	91.33	-0.2426	0.0576	0.3002	1855.4858	0.202569	-388.271796	-388.259744	-388.258799	-388.312122	41.007	
C	 0.7498386853	-0.2359182895	-1.3108638912	-0.388978
C	-0.0405883505	-0.0876649639	-0.0101598465	-0.169305
C	 0.6934219189	-0.6410602919	 1.2350218945	-0.153386
C	-0.0978599212	-0.3248421617	 2.5226865632	-0.171024
C	 0.6260131361	-0.7230130243	 3.801722481	-0.083803
O	-0.1876143806	-0.3251579889	 4.897072816	-0.422549
C	 0.9597924217	-2.0758530596	 1.1032627117	 0.125823
C	 1.1542653647	-3.2597702206	 0.9880411116	 0.009611
C	 1.3995751209	-4.6892641844	 0.8505592301	-0.49782
H	 0.9710584242	-1.2870216895	-1.5173562263	 0.128188
H	 0.1873578101	 0.1666178727	-2.1588733799	 0.110418
H	 1.7032421958	 0.3020814031	-1.2582555878	 0.110531
H	-0.2593773373	 0.9714711068	 0.1724184822	 0.093655
H	-1.0074610798	-0.5971641921	-0.1001417278	 0.102725
H	 1.6617444861	-0.1206524957	 1.3014036141	 0.094452
H	-0.2986169462	 0.7521269394	 2.5589812362	 0.101883
H	-1.068523258	-0.8324527972	 2.4930073762	 0.109228
H	 0.8033099325	-1.8081156997	 3.8055926836	 0.098072
H	 1.611765807	-0.2290354827	 3.8394879318	 0.079277
H	 0.2332161255	-0.6276307986	 5.7067923415	 0.284362
H	 1.568668002	-5.1610922199	 1.8249522353	 0.145453
H	 0.5491475639	-5.1971134355	 0.3821050119	 0.146835
H	 2.2824176587	-4.8849686563	 0.2317069289	 0.146351
7.1254	67.313	80.5253	84.7369	126.8873	139.0744	161.2591	238.7696	256.9066	269.005	309.002	327.2791	363.8428	436.2195	517.6889	595.2916	678.0476	789.373	840.1967	902.1387	988.079	1017.0006	1035.2391	1053.2768	1053.8463	1068.9601	1083.8887	1108.0978	1136.9197	1176.5958	1220.6101	1243.5591	1280.8914	1301.8147	1311.05	1351.2917	1366.2741	1376.5948	1411.2066	1415.4327	1462.1242	1479.1319	1479.734	1482.0835	1492.526	1497.4709	1508.0382	1528.8604	2362.4719	2957.3923	2980.3028	3012.0812	3024.7891	3025.4126	3033.0245	3037.9641	3063.3625	3084.5129	3084.829	3084.9562	3099.132	3114.7089	3831.4153
CCC(CCO)C#CC	CC[C@@H](CCO)C#CC	
InChI=1S/C8H14O/c1-3-5-8(4-2)6-7-9/h8-9H,4,6-7H2,1-2H3	InChI=1S/C8H14O/c1-3-5-8(4-2)6-7-9/h8-9H,4,6-7H2,1-2H3/t8-/m1/s1
