18
gdb 93554	3.2065	1.19554	0.92916	2.1198	76.3	-0.2261	-0.0144	0.2117	1228.167	0.149748	-439.128195	-439.119926	-439.118982	-439.161206	31.703	
O	-0.0741084484	 1.5218011003	-0.1591585915	-0.43211
C	 0.0154276483	 0.1134430359	 0.0623519706	 0.076007
C	-1.3762448918	-0.5059964269	 0.2154444379	-0.24091
C	-1.3420652843	-2.0116132976	 0.5200126786	-0.317347
C	-1.2579448178	-2.9061111764	-0.7013420879	 0.386343
O	-1.9918080277	-3.8586855664	-0.8735713142	-0.351568
N	-0.2884983828	-2.616187649	-1.6476188051	-0.32572
C	 0.7071822715	-1.6403839084	-1.7027893978	 0.000604
C	 0.8781498705	-0.5184211955	-0.9948814738	-0.119791
H	-0.3908287131	 1.6482111198	-1.0609377104	 0.275702
H	 0.528137993	 0.0375580204	 1.0322402377	 0.09762
H	-1.8817206333	 0.0218477227	 1.0286836824	 0.118666
H	-1.9636395923	-0.3169300587	-0.6923784824	 0.101255
H	-0.4882616542	-2.2395484114	 1.1732832432	 0.127375
H	-2.2421354339	-2.3295271147	 1.0481585267	 0.135292
H	-0.2850119353	-3.3002644345	-2.3908736635	 0.254239
H	 1.4504441967	-1.8844759804	-2.4561272745	 0.114554
H	 1.7759146648	 0.0497535007	-1.220460236	 0.099791
71.246	122.9052	212.3889	294.4283	300.0012	341.5582	351.6905	394.1115	507.7328	530.9218	585.4755	640.2022	713.6807	723.1801	762.7723	840.7078	863.0895	933.776	973.3351	977.6896	1050.8723	1061.828	1081.4052	1144.7876	1174.3803	1219.1397	1258.5013	1289.0625	1333.1056	1346.8611	1371.4831	1390.6563	1420.4237	1452.7982	1469.54	1492.0313	1494.6464	1734.2576	1790.8763	2999.5537	3022.4164	3034.3457	3091.9386	3122.3961	3161.8027	3182.0206	3606.2568	3793.4347
OC1CCC(=O)NC=C1	O[C@H]1CCC(=O)NC=C1	
InChI=1S/C6H9NO2/c8-5-1-2-6(9)7-4-3-5/h3-5,8H,1-2H2,(H,7,9)	InChI=1S/C6H9NO2/c8-5-1-2-6(9)7-4-3-5/h3-5,8H,1-2H2,(H,7,9)/t5-/m0/s1
