20
gdb 93380	2.92623	1.41481	1.05515	3.2617	80.59	-0.2118	-0.012	0.1998	1167.5249	0.171887	-403.151925	-403.143582	-403.142638	-403.185021	32.257	
C	 0.0827399568	 1.425099233	-0.1008747819	-0.329953
N	-0.0561946613	-0.011391235	 0.0481571648	-0.066713
C	-1.419627493	-0.5046508447	-0.0885191459	-0.1548
C	-1.3947233878	-2.0333258276	-0.2234304027	-0.314388
C	-0.79346667	-2.679525917	 1.0176976741	 0.390993
O	-1.2295703846	-3.7061792682	 1.4904156842	-0.328188
C	 0.3141071342	-1.9236398098	 1.6746756648	-0.141233
C	 1.6402256624	-1.6288217873	 0.9700385304	-0.299745
C	 0.6520570687	-0.5246192649	 1.1991870961	 0.019107
H	 1.1433853472	 1.6946007919	-0.1089567479	 0.125223
H	-0.351674399	 1.7411810364	-1.0543330885	 0.120397
H	-0.4085904182	 2.003507594	 0.7045526312	 0.09623
H	-2.0701843015	-0.2125490365	 0.7586700871	 0.085291
H	-1.8543847455	-0.0603584757	-0.9902596512	 0.104646
H	-2.3926016827	-2.4531021905	-0.3718917005	 0.121103
H	-0.7820242694	-2.2943234283	-1.0957133204	 0.126009
H	 0.3924241396	-2.1339070244	 2.7352954163	 0.110608
H	 2.5306837305	-1.7007562261	 1.5844241638	 0.121557
H	 1.75491559	-1.9583368159	-0.0559424263	 0.126271
H	 0.8655029634	 0.2024900065	 1.9825970426	 0.087586
51.8876	156.4497	218.2717	241.2229	256.6917	342.9055	395.5454	426.4768	449.857	509.64	567.3278	704.09	730.0429	763.6393	829.2203	855.7144	908.7269	957.3974	988.7551	1027.7625	1047.2672	1056.5522	1075.5887	1117.5777	1127.6537	1145.2331	1167.7969	1199.4651	1216.8984	1250.8343	1272.209	1321.2734	1338.7419	1367.888	1377.8578	1414.8674	1451.4854	1463.5729	1477.9866	1489.8635	1506.0743	1517.6792	1799.5436	2913.8487	2928.1441	3035.7756	3059.8813	3062.8648	3095.9674	3106.6953	3110.6057	3138.4482	3177.9814	3233.7766
CN1CCC(=O)C2CC12	CN1CCC(=O)[C@H]2C[C@@H]12	
InChI=1S/C7H11NO/c1-8-3-2-7(9)5-4-6(5)8/h5-6H,2-4H2,1H3	InChI=1S/C7H11NO/c1-8-3-2-7(9)5-4-6(5)8/h5-6H,2-4H2,1H3/t5-,6+/m0/s1
