15
gdb 62326	4.13201	1.31252	1.16061	4.3818	69.06	-0.2403	0.0072	0.2475	1025.6581	0.112407	-416.716849	-416.70941	-416.708466	-416.748438	29.29	
N	 0.1714259034	 1.5048092092	 0.0554456433	-0.58506
C	-0.0341574247	 0.0808388525	 0.0699664581	 0.166942
C	 1.0261536262	-0.593678863	-0.668443446	 0.267726
N	 1.8543237723	-1.1237797842	-1.2760765452	-0.333677
C	-0.4645353504	-0.7523155695	 1.2613424316	-0.120894
C	-1.6909711761	-0.1799587554	 2.0369998303	 0.002214
O	-2.1360549978	 1.0488710866	 1.4425118793	-0.246919
C	-2.506558233	-0.1973481317	 0.8271980623	 0.000883
C	-1.324007374	-0.7631293622	-0.0107852282	-0.150058
H	 0.214161275	 1.8359926089	-0.903408879	 0.238889
H	-0.6035597275	 1.9575252605	 0.5220750661	 0.261513
H	 0.1563859529	-1.543711487	 1.6605699643	 0.123224
H	-1.9260601374	-0.3473903729	 3.0802917966	 0.128214
H	-3.5611836352	-0.3785680617	 0.6626195738	 0.126897
H	-1.4400260337	-1.5613331601	-0.7322063274	 0.120103
137.0475	161.2821	263.3052	282.8974	316.1676	371.7376	481.4442	537.3656	582.6028	603.8643	705.8481	750.4595	763.8098	783.5707	867.0647	882.6884	892.0299	924.0293	933.8279	975.2761	1006.412	1038.2083	1047.2421	1060.0862	1222.7894	1227.2215	1242.3442	1249.6107	1299.6552	1374.0002	1408.222	1647.8556	2357.7728	3192.377	3201.2403	3204.2417	3213.5608	3512.9777	3618.6399
NC1(C#N)C2C3OC3C12	N[C@@]1(C#N)[C@H]2[C@H]3O[C@H]3[C@@H]12	
InChI=1S/C6H6N2O/c7-1-6(8)2-3(6)5-4(2)9-5/h2-5H,8H2	InChI=1S/C6H6N2O/c7-1-6(8)2-3(6)5-4(2)9-5/h2-5H,8H2/t2-,3+,4-,5+,6+
