12
gdb 9157	8.16953	0.79467	0.72756	5.2515	73.03	-0.2819	-0.0831	0.1988	1435.7568	0.083105	-377.531945	-377.523454	-377.52251	-377.566077	27.792	
C	 0.0238115906	 1.461010436	 0.0962917784	-0.343996
N	-0.0808935815	 0.0135410065	 0.1345893731	-0.312497
C	-1.212229462	-0.6448169439	-0.2305827369	 0.253952
O	-2.2389438198	-0.1219880444	-0.6203119965	-0.339001
C	-1.1031707062	-2.0995873757	-0.1163773422	-0.016346
C	-1.0929646776	-3.3064290239	-0.0499577832	 0.145791
C	-1.0650826529	-4.6689197031	 0.030802159	 0.208064
N	-1.0331389941	-5.8277087724	 0.1023942817	-0.322921
H	 0.8209395884	 1.777963311	-0.5839549582	 0.140534
H	-0.9289011411	 1.8512134166	-0.261682842	 0.180795
H	 0.2265016594	 1.8654596759	 1.0932730289	 0.140547
H	 0.7082686769	-0.5323366526	 0.4417757378	 0.265078
63.9675	74.0771	82.6837	169.6636	220.6247	307.2818	322.6751	416.1602	491.0944	539.2485	584.074	593.8967	758.0724	811.3093	984.778	1133.4662	1150.5195	1175.5436	1258.6058	1443.0403	1489.1684	1497.1074	1561.2131	1763.9791	2258.5561	2393.551	3037.7158	3094.81	3162.251	3639.9215	63.9705	74.0768	82.6834	169.6636	220.6252	307.2821	322.6721	416.1603	491.0941	539.2475	584.0724	593.8974	758.072	811.3092	984.7779	1133.4659	1150.5192	1175.5433	1258.6054	1443.0399	1489.168	1497.107	1561.2127	1763.9791	2258.5552	2393.5503	3037.7158	3094.81	3162.2511	3639.9217
CNC(=O)C#CC#N	CNC(=O)C#CC#N	
InChI=1S/C5H4N2O/c1-7-5(8)3-2-4-6/h1H3,(H,7,8)	InChI=1S/C5H4N2O/c1-7-5(8)3-2-4-6/h1H3,(H,7,8)
