21
gdb 60550	2.92832	1.23265	1.05839	2.9276	78.13	-0.2363	0.0682	0.3044	1224.5281	0.183293	-420.352189	-420.343105	-420.342161	-420.386185	34.907	
C	 0.0533481848	 1.5151309403	-0.0349371036	-0.490762
C	-0.03037993	 0.0045747748	-0.0124004812	 0.318224
C	 1.1256706118	-0.7778318187	-0.5200602518	-0.276853
N	 0.8283801801	-0.7430271338	 0.9269964746	-0.371381
C	-1.4340868822	-0.6245640921	-0.1240004141	 0.026524
O	-1.3706793168	-1.9934679247	 0.2222297625	-0.444452
C	-2.4711384698	 0.1140394256	 0.7169111382	 0.005418
C	-3.6110958572	-0.6168412691	 1.3116459841	-0.246349
N	-2.5301066717	-0.0908572877	 2.1722973212	-0.330035
H	 1.0966480229	 1.8460077179	-0.0493352058	 0.112557
H	-0.434174208	 1.9208655642	-0.9285621114	 0.129269
H	-0.4335231383	 1.9542951055	 0.8410173291	 0.148659
H	 0.9676016026	-1.7454700313	-0.9860465939	 0.132465
H	 1.9911812869	-0.2282887591	-0.8795843141	 0.115381
H	 1.4614149041	-0.1269967449	 1.4279121269	 0.237779
H	-1.7510297478	-0.5623685301	-1.1756757325	 0.087368
H	-0.6122933991	-2.0613753936	 0.829451408	 0.296898
H	-2.6331623258	 1.1473713026	 0.4166374576	 0.08571
H	-4.570273627	-0.1205823025	 1.4284173998	 0.109726
H	-3.6500520908	-1.6882809404	 1.1466806874	 0.128029
H	-1.9146155587	-0.866940213	 2.410084089	 0.225825
62.4818	74.8922	184.4549	238.5219	249.9797	305.6519	342.3722	356.0333	383.6234	431.5186	526.0252	657.1706	662.2983	757.0089	785.5079	844.1992	864.1764	887.5628	938.8489	954.4598	973.3275	994.0423	998.8901	1017.201	1051.1172	1092.8362	1120.8257	1136.6891	1148.5395	1158.8832	1200.1921	1251.725	1265.6468	1270.6952	1306.7573	1332.9719	1347.475	1377.1214	1408.4707	1419.7263	1451.2059	1486.838	1499.074	1503.6071	1507.6733	2997.3583	3031.2852	3096.6378	3107.7107	3115.8356	3117.6448	3126.9252	3205.4666	3214.0219	3482.6553	3521.1136	3611.5529
CC1(CN1)C(O)C1CN1	C[C@]1(CN1)[C@@H](O)[C@H]1CN1	
InChI=1S/C6H12N2O/c1-6(3-8-6)5(9)4-2-7-4/h4-5,7-9H,2-3H2,1H3	InChI=1S/C6H12N2O/c1-6(3-8-6)5(9)4-2-7-4/h4-5,7-9H,2-3H2,1H3/t4-,5+,6+/m1/s1
