16
gdb 18247	4.60374	1.62883	1.32321	3.3155	65.26	-0.2516	-0.0002	0.2514	919.898	0.132003	-379.901673	-379.894587	-379.893642	-379.933032	26.588	
O	 0.1234134318	 1.3566054376	-0.0220964623	-0.423056
C	 0.0271775397	-0.0396512043	 0.0683767409	-0.124302
C	-1.3946401877	-0.5108272521	 0.0528269314	 0.317552
N	-2.3770100056	 0.2993685642	 0.0224815458	-0.289795
C	-3.6161892543	-0.4951741423	 0.0426024292	-0.191912
C	-3.1446752582	-1.9488505422	-0.0129717466	-0.03154
C	-2.3016289579	-2.3662756745	-1.1558742817	-0.248999
N	-1.662173539	-1.9142360938	 0.1116253774	-0.156535
H	-0.7874621567	 1.685136558	-0.0106132535	 0.295223
H	 0.5662150144	-0.5216050199	-0.7631334661	 0.113955
H	 0.4973491652	-0.4150765522	 0.9917697165	 0.121573
H	-4.1695006019	-0.2908864151	 0.9665739479	 0.124238
H	-4.2638770777	-0.2060054442	-0.792310259	 0.123
H	-3.6534270414	-2.7016219747	 0.5793535842	 0.108254
H	-2.1661790093	-3.4208245729	-1.3732378607	 0.130159
H	-2.2258022013	-1.7015426916	-2.0128243034	 0.132186
95.5697	188.4166	215.9182	284.5364	322.4651	378.4895	436.8636	620.6352	681.9079	745.3186	780.5919	829.8064	894.9044	932.9281	984.6446	1021.9588	1036.4815	1081.0945	1091.8921	1104.3463	1114.6667	1162.1009	1200.8941	1210.8652	1243.4274	1268.7408	1319.3037	1350.3358	1372.3334	1472.714	1489.4478	1499.0345	1505.257	1709.5941	2980.2124	2993.5821	3038.6426	3070.9745	3113.2071	3171.7597	3207.5095	3719.0848
OCC1=NCC2CN12	OCC1=NC[C@H]2CN12	
InChI=1S/C5H8N2O/c8-3-5-6-1-4-2-7(4)5/h4,8H,1-3H2	InChI=1S/C5H8N2O/c8-3-5-6-1-4-2-7(4)5/h4,8H,1-3H2/t4-,7?/m0/s1
