20
gdb 22557	2.11615	1.42549	0.95218	2.0657	79.29	-0.2394	0.004	0.2434	1270.0822	0.169118	-440.232408	-440.222597	-440.221652	-440.267019	36.84	
C	-0.6727580918	-1.2185339273	 1.2062656337	-0.489324
C	-0.6460283301	-0.3542509005	-0.0271168616	 0.330177
N	-1.1808439523	 0.8122002517	-0.0511679934	-0.207671
O	-1.7836429837	 1.1432048084	 1.1728494755	-0.403227
C	 0.006005405	-0.7972272348	-1.2941566938	 0.258359
C	-0.1687187849	 0.1329784318	-2.4889867307	-0.139575
O	 0.4349400314	 1.3979944956	-2.3175039422	-0.42438
C	 1.3169731766	-1.561518715	-1.2074751166	-0.294741
C	 0.0662956152	-2.2833329399	-1.610878091	-0.314904
H	-0.3315544444	-0.6434884339	 2.071211243	 0.152337
H	-1.7008442065	-1.52675752	 1.4242457215	 0.149619
H	-0.0570562597	-2.1121062291	 1.106306888	 0.123148
H	-2.1264672775	 2.0262483082	 1.0002874083	 0.305775
H	 0.3096974649	-0.3226059052	-3.3626430841	 0.091204
H	-1.2427872771	 0.2272632577	-2.7107822563	 0.090648
H	-0.0371242867	 1.7981532102	-1.5753019367	 0.284567
H	 2.0566433008	-1.3315035283	-1.9660407717	 0.129743
H	 1.7358192349	-1.7629628701	-0.2280495147	 0.118918
H	-0.3787007293	-2.9832867961	-0.913146288	 0.118551
H	-0.0595641547	-2.5618632733	-2.6519150493	 0.120775
63.399	109.5729	133.4737	186.0187	217.4994	280.9241	313.8274	345.2984	354.2867	391.5211	439.7369	486.3766	530.1409	564.6444	611.8756	745.071	782.6528	845.4128	915.2899	931.4671	951.5466	976.8398	1021.3678	1045.9925	1050.2763	1064.5469	1081.1886	1090.2216	1157.4674	1189.8991	1231.4801	1312.7266	1349.7841	1388.0396	1404.7661	1420.2103	1449.3947	1462.6797	1483.6398	1486.284	1495.9606	1509.5364	1699.9738	2986.4841	3051.4364	3066.2717	3108.4258	3135.9239	3139.7115	3153.2133	3214.4271	3227.6945	3755.7495	3822.7351
CC(=NO)C1(CO)CC1	CC(=NO)C1(CO)CC1	
InChI=1S/C6H11NO2/c1-5(7-9)6(4-8)2-3-6/h8-9H,2-4H2,1H3	InChI=1S/C6H11NO2/c1-5(7-9)6(4-8)2-3-6/h8-9H,2-4H2,1H3
