14
gdb 129607	3.33632	1.29089	0.97402	4.5944	70.	-0.2269	-0.0181	0.2089	1133.4816	0.099497	-432.815607	-432.8073	-432.806356	-432.848729	30.795	
N	-0.2060401431	 1.2604824643	-0.5133444473	-0.58953
C	-0.0997141921	-0.050467404	-0.1626688669	 0.39044
C	-1.0550236823	-1.0350761245	 0.0003848908	 0.181141
C	-2.5451612907	-1.0058171541	-0.1841761415	-0.464424
C	-2.969088736	-0.1453798291	-1.2887126645	 0.290765
C	-3.2971599158	 0.5891051215	-2.183127871	-0.44973
N	-0.3797239239	-2.1450786296	 0.4159885916	-0.15445
N	 0.8506290941	-1.9584358265	 0.5257250425	-0.046917
O	 1.0892966141	-0.5378945864	 0.137429058	-0.227984
H	 0.6430373193	 1.6945766232	-0.842280829	 0.271732
H	-1.0380247646	 1.4923644463	-1.0396109157	 0.273252
H	-2.8850137027	-2.0319321196	-0.3648196382	 0.165968
H	-3.0526781214	-0.6770063509	 0.734238679	 0.151967
H	-3.6191855648	 1.2044341593	-2.9870812077	 0.20777
54.5856	124.4659	231.488	256.0566	309.4691	332.1493	378.5061	400.1834	462.5743	539.8146	580.7174	625.9014	655.4935	667.9699	715.9392	741.5063	780.9069	940.7091	960.5316	983.8657	1092.3388	1192.3464	1273.7353	1289.3851	1345.8856	1464.4492	1471.3312	1493.7537	1613.2926	1670.9699	2232.3073	3002.3012	3064.7044	3500.4766	3551.6944	3672.4702
NC1=C(CC#C)N=NO1	Nc1c(CC#C)nno1	
InChI=1S/C5H5N3O/c1-2-3-4-5(6)9-8-7-4/h1H,3,6H2	InChI=1S/C5H5N3O/c1-2-3-4-5(6)9-8-7-4/h1H,3,6H2
