20
gdb 79885	2.49436	1.71302	1.42196	1.3925	78.93	-0.2156	0.0585	0.2742	1029.1212	0.170483	-403.060767	-403.05245	-403.051506	-403.093089	32.516	
C	-0.3880670513	 1.4609083583	-0.0404622754	-0.337386
N	 0.1115877564	 0.0901260141	 0.0660086465	-0.110577
C	 1.3639178014	-0.4860330113	-0.3244436681	-0.133141
C	 2.6634357566	 0.2464895625	 0.1253884418	-0.089779
C	 2.7002037107	 1.7804729184	 0.2695069235	-0.111548
O	 2.0943521831	 1.7052343123	 1.5902063907	-0.298957
C	 2.1319081566	 0.2560832113	 1.5629768287	 0.064091
C	 0.8470648209	-0.5319221227	 1.1218292924	 0.299404
C	 0.2312495613	-1.6291288598	 1.9422141423	-0.492532
H	 0.1109876238	 2.1772636875	 0.6131772712	 0.147814
H	-0.3026662324	 1.786420256	-1.0818026357	 0.118121
H	-1.4546840096	 1.4474981969	 0.209690045	 0.116032
H	 1.3543670112	-1.261276478	-1.0864884775	 0.0907
H	 3.5820699761	-0.2719807676	-0.144899822	 0.080369
H	 3.7138070003	 2.1940415496	 0.3339952956	 0.10424
H	 2.1104654685	 2.3797041652	-0.4305932705	 0.104822
H	 2.6691362326	-0.1721380081	 2.4140298509	 0.078035
H	-0.3447536923	-1.2139102304	 2.7785018721	 0.124581
H	-0.448806769	-2.2244732587	 1.3274347638	 0.130324
H	 0.995511055	-2.291162295	 2.3638813945	 0.115387
152.7138	184.0251	188.645	222.7312	262.0873	274.3716	310.2238	339.8215	522.307	583.9312	638.4995	689.1369	745.493	819.857	857.4142	882.3067	889.5953	927.3327	965.2636	981.7703	990.514	1029.2985	1062.2768	1104.8788	1124.9899	1151.9289	1160.5248	1185.8512	1190.5964	1204.3858	1229.5556	1279.1383	1291.9002	1299.1489	1353.2767	1400.8306	1423.4768	1470.6783	1483.1805	1485.5217	1494.6237	1520.0094	1534.5848	3024.203	3026.0399	3032.319	3068.5176	3081.7658	3083.1617	3091.8277	3118.5741	3123.4893	3134.6801	3140.1175
CN1C2C3COC3C12C	CN1[C@H]2[C@H]3CO[C@H]3[C@@]12C	
InChI=1S/C7H11NO/c1-7-5(8(7)2)4-3-9-6(4)7/h4-6H,3H2,1-2H3	InChI=1S/C7H11NO/c1-7-5(8(7)2)4-3-9-6(4)7/h4-6H,3H2,1-2H3/t4-,5+,6-,7+,8?/m1/s1
