16
gdb 85781	3.08582	1.2408	0.93221	2.2261	68.92	-0.2361	-0.019	0.2172	1205.457	0.12456	-471.230482	-471.221555	-471.220611	-471.264449	32.397	
N	-0.0925066976	 1.3183010499	-0.155379906	-0.537924
C	 0.0614057381	-0.0382641398	-0.0388320937	 0.427041
N	 1.2042030582	-0.6020428893	 0.0285247061	-0.556914
N	-1.1725292684	-0.7169528807	-0.0447456251	-0.150358
C	-1.4846164641	-2.1536600333	 0.0088125505	-0.19627
C	-2.9893927515	-1.7618792525	 0.0161103811	-0.020971
O	-3.6698582124	-2.2061636314	 1.1577384251	-0.420957
C	-2.4851944266	-0.2971375654	 0.0468241943	 0.401017
O	-2.982111119	 0.7967085072	 0.1538539392	-0.384211
H	 0.7314972664	 1.8548259252	 0.0610571118	 0.264171
H	-0.9905765775	 1.7140243787	 0.0835052157	 0.27751
H	 1.1220627905	-1.6148705408	 0.061576597	 0.215697
H	-1.1346334742	-2.7165123369	-0.8597558759	 0.131197
H	-1.1715801023	-2.6362895768	 0.9380224964	 0.142082
H	-3.5124211434	-2.0140160459	-0.9162225603	 0.105326
H	-4.4641140462	-1.6690640882	 1.2568372839	 0.303566
76.6173	92.2243	152.6616	181.9752	204.2445	295.7491	356.9675	424.6688	429.8411	471.5137	501.6919	583.3909	640.1854	727.0512	767.3199	782.3064	797.4387	885.7171	965.8849	1049.8942	1103.9616	1140.6629	1148.3321	1172.9722	1190.8446	1220.3144	1249.0612	1307.1902	1368.6214	1404.6925	1436.9555	1514.4498	1627.0802	1735.7817	1859.1737	3018.7042	3063.3743	3123.4448	3526.1147	3564.2104	3703.8931	3808.4888
NC(=N)N1CC(O)C1=O	NC(=N)N1C[C@@H](O)C1=O	
InChI=1S/C4H7N3O2/c5-4(6)7-1-2(8)3(7)9/h2,8H,1H2,(H3,5,6)	InChI=1S/C4H7N3O2/c5-4(6)7-1-2(8)3(7)9/h2,8H,1H2,(H3,5,6)/t2-/m1/s1
