18
gdb 127249	2.35899	1.34146	0.86637	1.4779	77.15	-0.1929	0.0391	0.232	1315.0706	0.148108	-435.277971	-435.268244	-435.2673	-435.31402	34.048	
C	-0.0071474143	 1.3958013566	 0.1106842699	-0.313483
N	-0.0254817234	-0.0415569497	-0.0072238595	 0.04754
C	-0.0696445401	-0.7889741307	-1.1339191756	-0.101963
C	-0.0258917283	-2.1141840782	-0.7527298163	 0.140038
C	-0.09291588	-3.3203155649	-1.6300117288	-0.20386
O	 0.0232587034	-2.9001578131	-2.9823874179	-0.419539
C	 0.0528212108	-2.0584373781	 0.6614692252	 0.282968
N	 0.0430284809	-3.1436658836	 1.5450165192	-0.593338
N	 0.0613860974	-0.8066254209	 1.1111869623	-0.358338
H	 0.9544921689	 1.74556094	 0.5010860461	 0.138645
H	-0.171910137	 1.8327407105	-0.875962387	 0.134836
H	-0.7990214261	 1.728515637	 0.7877036269	 0.143986
H	-0.1288777035	-0.3463330009	-2.1146765382	 0.139697
H	 0.7144238882	-4.0290093077	-1.3690693217	 0.082633
H	-1.0409255405	-3.8602623072	-1.4649012049	 0.103158
H	-0.140937997	-3.6618348036	-3.5452540728	 0.288689
H	 0.6711632807	-3.8864304776	 1.2631333901	 0.240557
H	 0.2697891997	-2.8429918581	 2.4854217131	 0.247774
27.7658	46.9017	149.5146	157.7648	214.6974	251.6253	262.2027	282.3062	332.3223	368.4623	545.2985	608.6765	637.292	648.3458	694.9339	797.7347	807.1198	847.2441	1018.2425	1047.3206	1066.6216	1074.9357	1143.1898	1151.6564	1185.9402	1210.669	1236.2087	1262.9221	1341.3075	1435.7901	1458.0144	1462.9352	1472.6418	1482.3124	1519.0248	1529.5814	1543.721	1626.7603	1651.7857	2926.2989	2955.2492	3037.2201	3098.6463	3139.7998	3273.4021	3524.0039	3618.1326	3837.458
CN1C=C(CO)C(N)=N1	Cn1cc(CO)c(N)n1	
InChI=1S/C5H9N3O/c1-8-2-4(3-9)5(6)7-8/h2,9H,3H2,1H3,(H2,6,7)	InChI=1S/C5H9N3O/c1-8-2-4(3-9)5(6)7-8/h2,9H,3H2,1H3,(H2,6,7)
