18
gdb 31274	2.58728	1.27024	0.87816	0.9732	77.38	-0.179	0.0414	0.2204	1307.2179	0.147674	-439.098545	-439.08928	-439.088335	-439.133336	33.423	
C	 0.0163414345	 1.404950252	 0.1558275388	-0.243453
O	 0.020557787	 0.0029176921	-0.0096714559	-0.273131
C	-1.2045978127	-0.5959088799	-0.0339532739	 0.266728
C	-1.355576883	-1.9669076885	-0.0917844519	 0.209118
C	-0.3600155662	-3.0679450867	-0.1530217973	-0.206916
O	-0.8654134295	-4.1638501504	 0.6167646191	-0.429353
N	-2.7099743892	-2.2136074794	-0.1414586864	-0.282137
C	-3.4073053077	-1.0429165584	-0.0826157428	-0.080424
C	-2.5002816593	-0.0038651679	-0.0307906306	-0.292083
H	 1.0615367044	 1.7190166778	 0.1898499362	 0.126444
H	-0.4824228613	 1.9099509604	-0.6829641447	 0.116464
H	-0.4804599312	 1.7011495481	 1.0898580292	 0.117732
H	-0.1856013695	-3.3971333165	-1.1921704044	 0.093754
H	 0.5993498223	-2.6971203418	 0.2343019287	 0.114201
H	-0.3095448964	-4.9285539608	 0.4385106415	 0.287184
H	-3.0901535831	-3.1404489893	-0.0570718966	 0.265469
H	-4.4850754573	-1.0320750896	-0.0716319965	 0.115284
H	-2.7426701018	 1.0456649687	 0.0018748274	 0.095121
48.9017	70.2468	150.5505	191.6944	216.3563	269.514	296.4092	321.8909	381.3517	497.5738	569.6825	607.1401	646.2455	679.4347	702.0543	753.72	791.0915	916.2142	1010.7861	1030.2609	1056.8602	1103.3318	1129.5847	1181.1511	1190.1811	1212.279	1216.6516	1240.9988	1283.9742	1340.9745	1424.8108	1462.3787	1471.4451	1487.0646	1502.5603	1509.6986	1517.8798	1527.3428	1648.3424	2940.9795	2994.5186	3017.8692	3048.393	3124.7481	3255.9208	3274.2264	3682.795	3823.5113
COC1=C(CO)NC=C1	COc1c(CO)[nH]cc1	
InChI=1S/C6H9NO2/c1-9-6-2-3-7-5(6)4-8/h2-3,7-8H,4H2,1H3	InChI=1S/C6H9NO2/c1-9-6-2-3-7-5(6)4-8/h2-3,7-8H,4H2,1H3
