15
gdb 81903	2.42231	1.8627	1.17684	4.4475	65.49	-0.2418	-0.094	0.1478	1009.2133	0.111511	-457.774957	-457.767125	-457.766181	-457.807567	28.867	
C	 0.1644251071	 1.6261782267	-0.0308551354	-0.399477
C	 0.0463755734	 0.1006429003	-0.0117822762	-0.142078
C	 0.7111076914	-0.6085804464	-1.1799428264	 0.030396
O	 2.1316740152	-0.5135980375	-1.1247031966	-0.240796
C	 1.5231117442	-1.7673109424	-0.7431711594	-0.094655
C	 1.4474473838	-1.8459512415	 0.7528770194	 0.335336
O	 1.8090569926	-2.7318970649	 1.4765353132	-0.282607
C	 0.7195206076	-0.5396590756	 1.2102881754	 0.298586
O	 0.6758378349	-0.1492620887	 2.343119072	-0.280414
H	 1.2082777889	 1.9236200198	-0.1621695901	 0.143133
H	-0.424958591	 2.0572675314	-0.8449322931	 0.120931
H	-0.1933886687	 2.0357904802	 0.9167268154	 0.146595
H	-1.0141571217	-0.1901966149	 0.0285267927	 0.117835
H	 0.2771698467	-0.5802717368	-2.1761564477	 0.11729
H	 1.7488813556	-2.6304514598	-1.3597837432	 0.129925
68.907	174.473	213.4622	227.2448	236.7666	315.7944	444.229	473.7189	532.6568	620.8976	654.4356	700.1804	816.0426	835.6808	867.5916	907.1671	972.9629	1007.2332	1044.2525	1084.8545	1100.7448	1143.3299	1185.8068	1232.5303	1274.7978	1304.4019	1333.6598	1396.3756	1413.2692	1493.1949	1502.9979	1849.7119	1866.1289	3007.9619	3049.0647	3123.0325	3133.635	3152.0495	3186.623
CC1C2OC2C(=O)C1=O	C[C@H]1[C@H]2O[C@H]2C(=O)C1=O	
InChI=1S/C6H6O3/c1-2-3(7)4(8)6-5(2)9-6/h2,5-6H,1H3	InChI=1S/C6H6O3/c1-2-3(7)4(8)6-5(2)9-6/h2,5-6H,1H3/t2-,5-,6+/m1/s1
