18
gdb 125933	4.52494	1.2147	0.99248	1.0422	77.47	-0.2452	-0.0024	0.2428	1181.4668	0.15139	-398.148836	-398.141413	-398.140469	-398.180711	28.965	
C	-0.7627801951	 1.2283800307	-0.0250776705	-0.403588
C	 0.1991770721	 0.0439155088	 0.0140073827	 0.04182
C	 1.192758529	-0.0069899056	-1.2028236746	-0.363513
C	 2.3863317791	-0.6609793415	-0.5836344658	 0.311255
N	 3.5220820554	-1.2253690453	-0.9772104861	-0.316762
N	 4.0875746346	-1.5459649899	 0.193451202	-0.100199
N	 3.4106299494	-1.2401998249	 1.3075723404	-0.316767
C	 2.3180833357	-0.6703110056	 0.812663263	 0.31126
C	 1.069348067	-0.0239369138	 1.3211636442	-0.363514
H	-0.2165911779	 2.1782336424	 0.0080018374	 0.116834
H	-1.3648794394	 1.2216168376	-0.9397821257	 0.116888
H	-1.4512308925	 1.209762959	 0.8263577368	 0.116887
H	-0.3852164211	-0.8835122761	-0.0207833877	 0.087955
H	 0.7697573262	-0.5483511952	-2.0536337288	 0.120274
H	 1.4330165271	 1.005673256	-1.5534245082	 0.11629
H	 4.9696505774	-2.0295234571	 0.2333402733	 0.28832
H	 1.2735960978	 0.9838096087	 1.7069807514	 0.116288
H	 0.565751355	-0.5763152083	 2.119382198	 0.120274
82.7566	238.195	257.0038	270.2571	284.701	408.6844	460.077	471.9668	511.074	702.4377	704.8519	733.07	780.1368	810.9989	900.2935	925.5162	945.3107	994.4279	1052.6181	1110.3078	1113.507	1149.3715	1158.181	1173.9587	1202.7487	1228.3958	1277.1926	1278.664	1342.3167	1367.4547	1411.4688	1432.9281	1442.98	1484.0611	1492.3739	1497.299	1501.5635	1523.5402	1591.9373	3018.0882	3020.1457	3026.403	3031.9329	3084.945	3086.2302	3096.6879	3098.8239	3674.8012
CC1CC2=NNN=C2C1	C[C@H]1Cc2n[nH]nc2C1	
InChI=1S/C6H9N3/c1-4-2-5-6(3-4)8-9-7-5/h4H,2-3H2,1H3,(H,7,8,9)	InChI=1S/C6H9N3/c1-4-2-5-6(3-4)8-9-7-5/h4H,2-3H2,1H3,(H,7,8,9)
