21
gdb 63644	3.5783	0.89671	0.8666	2.2018	79.08	-0.2479	0.0788	0.3267	1450.8821	0.180383	-424.19158	-424.181827	-424.180882	-424.227301	35.074	
C	-0.000283001	 1.5093701593	-0.289872687	-0.458258
C	-0.0838897088	 0.0363672625	 0.0488322293	 0.38464
C	-1.2464261878	-0.6951277381	-0.5908046542	-0.449729
O	 1.1626829069	-0.6823370662	 0.0020341513	-0.302041
C	 0.5181335588	-0.5302792374	 1.2740005267	-0.000613
C	 1.2507541966	 0.2395933129	 2.3358147481	-0.069589
C	 0.4941678888	 0.4631339192	 3.6679560762	-0.08358
O	 1.4806554126	-0.2740808965	 4.4136317634	-0.271973
C	 2.2320206554	-0.571681177	 3.2187295373	-0.079888
H	 0.8889265443	 1.9773918977	 0.1341983879	 0.129636
H	 0.0400680254	 1.6387767558	-1.3769057245	 0.127324
H	-0.885493293	 2.0416347126	 0.0748618865	 0.121336
H	-1.1932389447	-0.6142044377	-1.682031511	 0.125538
H	-1.2327860625	-1.7552638124	-0.3267243598	 0.127528
H	-2.2022601229	-0.2667457916	-0.2699808133	 0.119738
H	 0.0694382974	-1.4564771678	 1.6464839889	 0.084931
H	 1.6958642921	 1.1450171165	 1.9246043238	 0.084657
H	 0.4131804025	 1.5041974159	 4.0030476534	 0.10258
H	-0.4989183676	-0.0037757729	 3.7240730577	 0.098097
H	 2.2640426184	-1.6488192944	 3.0090326253	 0.104827
H	 3.2577312991	-0.1887203403	 3.2705846441	 0.10484
44.309	53.2635	120.8698	150.99	186.2424	205.7733	295.0689	358.4364	369.9688	411.4052	431.5313	527.4671	708.6664	793.2648	827.196	883.5475	900.9955	924.9234	945.3603	975.2925	1001.4915	1021.1909	1046.2814	1068.5928	1089.0736	1142.355	1153.1608	1156.6752	1163.4557	1193.9538	1243.5659	1265.1478	1309.8612	1314.531	1359.999	1383.1674	1408.3465	1419.5048	1468.8092	1473.5952	1486.352	1500.0187	1511.871	1521.0275	1537.4646	3000.5206	3014.8583	3032.7481	3039.5495	3047.9197	3056.6641	3059.3512	3093.9841	3099.3781	3114.6572	3123.7426	3141.6864
CC1(C)OC1C1COC1	CC1(C)O[C@H]1C1COC1	
InChI=1S/C7H12O2/c1-7(2)6(9-7)5-3-8-4-5/h5-6H,3-4H2,1-2H3	InChI=1S/C7H12O2/c1-7(2)6(9-7)5-3-8-4-5/h5-6H,3-4H2,1-2H3/t6-/m0/s1
