20
gdb 102064	2.03365	1.21723	1.06843	3.74	82.37	-0.2451	0.024	0.2692	1299.291	0.168029	-403.13789	-403.12735	-403.126405	-403.1739	37.673	
C	-0.3228337748	 1.4443590833	-0.003782102	-0.371823
C	 0.1498456895	-0.0119262978	-0.0155134637	-0.169579
N	 0.8655667824	-0.3865765983	-1.2302931399	-0.027597
C	 2.1922972157	-0.7027341195	-1.1899702673	 0.157029
O	 2.8543716775	-1.1080479817	-2.121183544	-0.34416
C	 0.0809837973	-0.61138005	-2.4609465099	-0.173702
C	 0.598398936	 0.2036990097	-3.6607508963	-0.395619
C	-0.0367671616	-2.0396799398	-2.7740970554	 0.386435
C	-0.1747758897	-3.2029752089	-3.0396923218	-0.478356
H	 0.5273160307	 2.1277380393	-0.0867088923	 0.129027
H	-1.0080200725	 1.6545714081	-0.8312483632	 0.125887
H	-0.8531100616	 1.6617179828	 0.9287582787	 0.122503
H	 0.8223492411	-0.1860993929	 0.8301200215	 0.120439
H	-0.7025745979	-0.6900036805	 0.1202682213	 0.120856
H	 2.6194357278	-0.5368170238	-0.1801036349	 0.074958
H	-0.9260609688	-0.2475848614	-2.2271000827	 0.114836
H	-0.0773692139	 0.0691741653	-4.5094528364	 0.123782
H	 0.6289808162	 1.2653642225	-3.3990589028	 0.113031
H	 1.5974084097	-0.1270044552	-3.9395404229	 0.171731
H	-0.2724750032	-4.2339318613	-3.2749561762	 0.200321
38.4718	85.4302	106.7748	166.4431	203.8704	226.0783	238.0649	260.5002	298.1424	343.2538	390.976	447.4454	538.5062	564.9761	622.6539	637.592	662.0975	784.7709	813.2957	880.581	961.5044	1027.5757	1037.3316	1077.5478	1104.4051	1124.4047	1136.6937	1213.9201	1282.8976	1327.1626	1355.5875	1393.9724	1397.5107	1411.2845	1435.695	1458.4316	1481.5764	1489.5588	1493.0497	1507.0034	1510.1827	1794.6163	2238.4197	2922.0906	3023.4552	3038.3434	3041.219	3052.6571	3077.6377	3109.808	3118.7954	3121.9472	3175.6516	3504.2208
CCN(C=O)C(C)C#C	CCN(C=O)[C@@H](C)C#C	
InChI=1S/C7H11NO/c1-4-7(3)8(5-2)6-9/h1,6-7H,5H2,2-3H3	InChI=1S/C7H11NO/c1-4-7(3)8(5-2)6-9/h1,6-7H,5H2,2-3H3/t7-/m0/s1
