17
gdb 96606	2.59708	1.23561	0.84605	1.1087	84.56	-0.2439	-0.0563	0.1876	1328.7591	0.134991	-414.20166	-414.191719	-414.190775	-414.236881	34.183	
C	 0.089961783	 1.4175184868	-0.1129175251	-0.344576
N	 0.0781556814	-0.0265308158	-0.0488721681	-0.304645
C	 0.6256344233	-0.6607482317	 0.9095559223	 0.37243
C	 1.3047948405	 0.0053377023	 2.0139987906	 0.220868
N	 1.8235043499	 0.6110370845	 2.8518651391	-0.345741
N	 0.6010318804	-2.0474863284	 0.948983234	-0.135824
C	-0.074787635	-2.7363630945	-0.1482264034	-0.337682
C	 1.1868128926	-2.7746132488	 1.9763664081	 0.090187
N	 1.1593105859	-4.0451860317	 2.0034013244	-0.476285
H	 0.5661001977	 1.7251838394	-1.0508298336	 0.141179
H	-0.944411538	 1.7773296951	-0.1535337214	 0.141178
H	 0.6022787752	 1.9152792196	 0.7205891436	 0.136313
H	 0.3983851707	-2.4776808806	-1.098558939	 0.145373
H	 0.0016746155	-3.8041197667	 0.0431520831	 0.174549
H	-1.1209242232	-2.4245535191	-0.196047456	 0.145384
H	 1.6563495538	-2.138416101	 2.7296056504	 0.141667
H	 1.6396768964	-4.3889451497	 2.831487131	 0.235625
63.8564	121.23	126.8713	142.4188	155.339	203.2456	241.8107	284.9486	341.9176	371.9101	387.0118	470.1341	519.2093	687.8368	720.214	763.7341	807.748	951.4952	1048.8142	1072.5015	1100.6837	1130.4008	1160.4078	1165.1173	1220.5861	1362.5273	1386.3786	1437.7624	1443.3852	1457.503	1483.3242	1490.7192	1499.4798	1507.5019	1690.5598	1726.1325	2339.5015	3008.7055	3060.8355	3080.1414	3080.958	3106.1094	3122.3556	3188.6171	3522.3041
CN=C(C#N)N(C)C=N	CN=C(C#N)N(C)C=N	
InChI=1S/C5H8N4/c1-8-5(3-6)9(2)4-7/h4,7H,1-2H3	InChI=1S/C5H8N4/c1-8-5(3-6)9(2)4-7/h4,7H,1-2H3
