19
gdb 70383	2.35452	1.55452	1.35073	3.0324	79.63	-0.2321	0.0195	0.2515	1065.7252	0.158532	-382.04522	-382.036249	-382.035305	-382.078282	34.248	
C	-0.143166517	 1.5596679945	 0.0184624297	-0.505919
C	 0.0163660501	 0.0673751456	 0.0390623972	 0.295935
C	-0.7968023702	-0.8475582651	 0.9336229699	-0.333246
C	 0.6951703527	-0.8936879487	 1.001465245	-0.044768
N	 1.1554832725	-1.7769815413	-0.0971005054	-0.365073
C	 0.6477823149	-0.7722829722	-1.1111831843	 0.104422
C	-0.2501993412	-1.3543214142	-2.2008742192	-0.43542
C	 1.7671790495	-0.0377572906	-1.7115722864	 0.260662
N	 2.6612901096	 0.5280724947	-2.17930815	-0.351186
H	 0.7661555537	 2.0575832612	-0.3324521718	 0.144922
H	-0.9685208375	 1.8625612625	-0.6371983241	 0.125603
H	-0.3681548384	 1.9345452122	 1.0216760791	 0.123854
H	-1.2951608096	-0.3204856922	 1.7414411478	 0.117563
H	-1.3349503906	-1.7090098755	 0.5494386272	 0.118742
H	 1.2873304764	-0.7231162142	 1.8921464952	 0.104063
H	 2.1684619004	-1.8373573747	-0.134743795	 0.237472
H	-1.0771370735	-1.9021500014	-1.7455412975	 0.131562
H	-0.6532266318	-0.5584120773	-2.834397456	 0.132481
H	 0.31407256	-2.0455358831	-2.8330095216	 0.138333
128.6031	141.4491	182.8151	204.6132	214.1742	242.6558	328.2483	353.5975	428.1508	477.3685	528.138	557.3668	644.281	661.4085	784.8528	804.9465	847.8443	895.8129	925.8804	959.022	986.5152	991.2619	1030.2064	1070.5909	1106.1293	1111.4239	1134.8761	1151.3214	1200.379	1253.2233	1296.7459	1346.92	1396.4822	1410.7279	1428.2418	1479.6014	1484.1182	1486.3737	1494.5758	1501.109	2341.8546	3026.5931	3048.4623	3089.0384	3108.6031	3118.5967	3120.5057	3140.0415	3188.5159	3208.6712	3524.5429
CC12CC1NC2(C)C#N	C[C@]12C[C@H]1N[C@]2(C)C#N	
InChI=1S/C7H10N2/c1-6-3-5(6)9-7(6,2)4-8/h5,9H,3H2,1-2H3	InChI=1S/C7H10N2/c1-6-3-5(6)9-7(6,2)4-8/h5,9H,3H2,1-2H3/t5-,6+,7-/m1/s1
