17
gdb 82189	2.88279	1.60597	1.30672	1.8997	66.05	-0.2529	0.0631	0.316	985.7529	0.135709	-458.921671	-458.913966	-458.913022	-458.953454	30.839	
O	 0.0645847736	 1.4267998568	 0.0465628592	-0.433622
C	 0.0185510041	 0.0151912771	-0.0356603579	 0.101768
C	 0.7690346489	-0.665759666	 1.1122718804	 0.002757
O	 0.1969148958	-0.3476167357	 2.3965302333	-0.26588
C	-0.1267841878	-1.6084355946	 1.7878108868	-0.048735
C	-1.472489081	-1.6373687648	 1.070168975	 0.365635
O	-2.0334022698	-2.8887317608	 0.832159934	-0.465585
C	-2.3053191183	-0.3885466988	 1.1774727843	-0.359339
C	-1.3906468095	-0.6040772015	-0.0189538023	-0.118458
H	-0.2214746438	 1.6598267976	 0.9377555498	 0.289797
H	 0.5057413673	-0.2385566367	-0.983317889	 0.094915
H	 1.8531449841	-0.7433561442	 1.0965796959	 0.1046
H	 0.2085462697	-2.4961241493	 2.317611765	 0.102028
H	-2.5460174209	-3.1414379761	 1.6080367931	 0.287559
H	-3.364357342	-0.501282379	 0.9703411463	 0.11481
H	-2.0549151661	 0.3418106815	 1.9368862851	 0.126533
H	-1.8770422444	-0.7827562555	-0.9703169188	 0.101219
120.9982	187.2455	278.0316	308.2864	324.4281	349.1195	385.5612	479.1273	514.2043	545.9144	605.5215	717.539	742.1213	798.4867	858.9542	875.0213	918.4434	942.944	965.6647	966.9956	1031.684	1069.5529	1079.3631	1089.0965	1098.3411	1111.5633	1215.6865	1253.0887	1257.1256	1274.3742	1295.0448	1328.5985	1336.8884	1398.3625	1422.1681	1431.4061	1484.3463	3059.4133	3138.0496	3145.8995	3159.2535	3185.1534	3231.8317	3793.7893	3794.853
OC1C2OC2C2(O)CC12	O[C@H]1[C@H]2O[C@H]2[C@@]2(O)C[C@@H]12	
InChI=1S/C6H8O3/c7-3-2-1-6(2,8)5-4(3)9-5/h2-5,7-8H,1H2	InChI=1S/C6H8O3/c7-3-2-1-6(2,8)5-4(3)9-5/h2-5,7-8H,1H2/t2-,3+,4+,5+,6+/m0/s1
