13
gdb 31910	6.50629	0.93467	0.82152	4.961	70.8	-0.248	-0.0451	0.2029	1301.3014	0.090105	-452.783862	-452.776065	-452.775121	-452.816751	27.075	
C	-0.0455663806	 1.3081914069	 0.0715406638	-0.243063
O	 0.0455533977	-0.1211586253	-0.0633251262	-0.243203
C	 0.6567109399	-0.5442615623	-1.1446833951	 0.514981
N	 1.1928132028	 0.1431936214	-2.1138306723	-0.369759
C	 1.6803863455	-0.8283793309	-2.9638603565	-0.176631
C	 1.4100073814	-2.06263168	-2.4588976607	 0.2146
O	 0.7353685278	-1.8779895142	-1.2590918379	-0.208499
C	 1.6691678016	-3.372383605	-2.8961287842	 0.225623
N	 1.8950186778	-4.4431526092	-3.2784066297	-0.332443
H	 0.9533771642	 1.7492272246	 0.1041964924	 0.155362
H	-0.6016250898	 1.7323654057	-0.7677122232	 0.155358
H	-0.5731825037	 1.4754058509	 1.0092732987	 0.151937
H	 2.1923642154	-0.5846470325	-3.881076839	 0.155738
86.1477	137.0883	140.7027	171.7717	250.6914	324.6279	448.2916	506.1704	568.5598	632.3223	655.9797	731.993	763.597	892.4128	968.5083	1002.8687	1079.8431	1181.9126	1182.0999	1228.7938	1235.328	1290.2651	1400.7257	1463.268	1481.1869	1496.7131	1606.2934	1640.4768	2340.517	3057.2147	3136.9591	3174.7156	3273.589
COC1=NC=C(O1)C#N	COc1ncc(o1)C#N	
InChI=1S/C5H4N2O2/c1-8-5-7-3-4(2-6)9-5/h3H,1H3	InChI=1S/C5H4N2O2/c1-8-5-7-3-4(2-6)9-5/h3H,1H3
