18
gdb 97210	2.41103	1.6011	1.06137	2.7715	75.6	-0.2456	0.0084	0.254	1153.6072	0.147334	-439.077254	-439.068591	-439.067647	-439.111443	31.198	
C	-0.0774220991	 1.3981974479	 0.0055451238	-0.336096
N	-0.0454078649	-0.0540222737	 0.0408386426	-0.330012
C	 0.4195583488	-0.6490410126	 1.0462441504	 0.40751
O	 0.8787268673	-0.0599926526	 2.1950741199	-0.260416
C	 1.4585158512	-1.0475177664	 3.0687519355	-0.091841
C	 0.8383063981	-2.3893289935	 2.6498634818	-0.326939
C	 0.5527358274	-2.1413050085	 1.1822664926	 0.315594
C	-0.0422536407	-3.0744609867	 0.2285466626	-0.241842
O	 1.3617716146	-2.8016713688	 0.1996294451	-0.266861
H	 0.3385065339	 1.7374057936	-0.9491968497	 0.1275
H	-1.1202674745	 1.7365321448	 0.0339724628	 0.126201
H	 0.4675440659	 1.8810884415	 0.8242927762	 0.123958
H	 2.546445189	-1.0445213054	 2.933090883	 0.123679
H	 1.2299391009	-0.7533842709	 4.0949149767	 0.122995
H	 1.504657675	-3.2396961295	 2.8005714951	 0.130414
H	-0.0939011715	-2.566789833	 3.1958872948	 0.123298
H	-0.3181068296	-4.0741395522	 0.5630852981	 0.112539
H	-0.6099933921	-2.6666294239	-0.6047498913	 0.140319
47.2676	85.4012	153.3128	178.4359	205.2729	296.8792	331.7395	384.2207	503.4092	554.4129	669.6084	712.9675	727.5432	800.4675	876.812	909.3047	954.8987	986.1253	1023.8586	1052.7287	1091.7179	1108.7185	1131.2203	1133.2029	1164.6466	1176.3025	1209.6565	1237.6244	1283.6427	1308.0612	1389.0118	1434.6395	1440.0762	1474.9296	1491.277	1497.3895	1518.6791	1525.74	1805.1629	3017.1024	3038.7275	3057.4957	3076.3006	3085.0567	3091.61	3111.4996	3132.281	3185.674
CN=C1OCCC11CO1	CN=C1OCC[C@]21CO2	
InChI=1S/C6H9NO2/c1-7-5-6(4-9-6)2-3-8-5/h2-4H2,1H3	InChI=1S/C6H9NO2/c1-7-5-6(4-9-6)2-3-8-5/h2-4H2,1H3/t6-/m1/s1
