23
gdb 100153	3.80839	0.74151	0.73614	4.0389	83.57	-0.2773	0.0094	0.2867	1666.5273	0.202443	-425.461659	-425.450511	-425.449567	-425.498537	39.867	
C	 0.0360318493	 1.5053844758	 0.1640045147	-0.402207
C	-0.0182003199	-0.0092726869	-0.0632598567	-0.186735
C	 0.6296711566	-0.530228634	-1.3718050303	 0.24904
C	-0.0493922575	 0.0783496437	-2.6124133418	-0.415779
C	 2.1398420458	-0.2361045203	-1.3986292771	-0.42446
C	 0.4049764258	-2.053504949	-1.3731800463	-0.093407
O	 0.9345546667	-2.6654921937	-2.5574030014	-0.185691
C	 1.8653296588	-3.6273405023	-2.4272175135	 0.170721
O	 2.3540515572	-4.187084505	-3.3619276756	-0.276762
H	 1.0641430411	 1.8764634442	 0.2096685858	 0.121498
H	-0.4848794393	 2.0555794189	-0.6248923705	 0.12304
H	-0.4452948188	 1.7605085925	 1.113063495	 0.117457
H	 0.4643846024	-0.5100987094	 0.7872082579	 0.092367
H	-1.0691081424	-0.3285908603	-0.0464386139	 0.094344
H	 0.1409502627	 1.1527721012	-2.6821373813	 0.116043
H	 0.3280063466	-0.3895165611	-3.5251804894	 0.137509
H	-1.1349088061	-0.0700101525	-2.5816761163	 0.108393
H	 2.6429980092	-0.6511437056	-0.5172600257	 0.105615
H	 2.6058296688	-0.6654031271	-2.2899495086	 0.133285
H	 2.3327821277	 0.8398385828	-1.41605225	 0.120996
H	 0.8669672038	-2.5088746704	-0.4867090233	 0.102993
H	-0.6667583895	-2.2799003234	-1.3530602619	 0.115947
H	 2.1191167511	-3.8370798381	-1.3691245198	 0.075792
42.7127	71.8738	78.3714	140.4145	202.6637	213.0977	259.6797	267.9637	290.936	305.6352	345.492	361.8342	393.1467	418.439	544.0218	679.4231	736.7105	785.8355	876.8798	923.9782	954.0767	969.3563	1000.4979	1024.0739	1045.2113	1046.2055	1085.6022	1094.8464	1163.6628	1216.8828	1244.5992	1268.5618	1305.9855	1358.4845	1374.8809	1392.16	1400.2558	1412.7109	1421.6518	1437.7952	1480.5147	1483.3225	1492.2955	1495.4714	1508.4207	1510.6718	1510.8351	1518.4337	1864.4009	2940.1416	3003.1797	3012.3057	3030.3852	3036.2966	3037.8565	3043.4751	3070.5981	3100.0803	3102.84	3107.7499	3113.2456	3118.9142	3124.2277
CCC(C)(C)COC=O	CCC(C)(C)COC=O	
InChI=1S/C7H14O2/c1-4-7(2,3)5-9-6-8/h6H,4-5H2,1-3H3	InChI=1S/C7H14O2/c1-4-7(2,3)5-9-6-8/h6H,4-5H2,1-3H3
