18
gdb 75390	2.19517	1.69089	1.02321	3.5629	81.88	-0.2179	-0.0306	0.1873	1168.0164	0.149034	-402.000191	-401.99186	-401.990916	-402.033143	31.691	
C	 0.0303262083	 1.5304734134	-0.1216432589	-0.478442
C	-0.0757852769	 0.0349319698	 0.0105203812	 0.361664
C	-1.2423807429	-0.6096247492	 0.1103257544	-0.155588
C	-1.3711153831	-2.1138617073	 0.1417567738	-0.328523
C	-0.5940904458	-2.7344545928	 1.2769108041	-0.066015
C	 0.7044493845	-2.5301066971	 1.5120554949	-0.120926
C	 1.6461581765	-1.7044990266	 0.7233169615	 0.35256
O	 2.8432218529	-1.9417208081	 0.7199133765	-0.373629
N	 1.1701720843	-0.6167116167	 0.0004002074	-0.392214
H	 0.5788183803	 1.967232428	 0.7210762938	 0.136915
H	 0.5732833823	 1.8033624458	-1.0360784307	 0.129886
H	-0.9583487101	 1.9894753845	-0.1719350478	 0.134664
H	-2.1488706306	-0.0185354847	 0.16950494	 0.091342
H	-2.4243727271	-2.3934144455	 0.2183837514	 0.110554
H	-1.0098424579	-2.5355019054	-0.8087744852	 0.130906
H	-1.1325894163	-3.4120061485	 1.9359574068	 0.106328
H	 1.2058368388	-3.0641476893	 2.3125035438	 0.115723
H	 1.9439254928	-0.0976317904	-0.394768467	 0.244793
90.2214	121.4291	179.0874	227.9379	296.322	320.7206	380.8258	413.2385	505.8957	570.2152	610.5072	642.4487	679.9284	726.287	796.2336	823.683	869.0812	883.3324	970.4533	1013.4446	1015.5902	1054.9695	1072.1092	1090.9115	1173.1784	1224.7387	1238.9582	1330.5878	1347.9123	1365.6665	1413.8715	1416.3303	1469.7572	1478.5447	1481.3037	1496.1225	1695.8022	1740.1315	1764.4862	2989.6915	3021.1236	3072.161	3093.308	3134.9004	3150.3117	3192.7092	3193.6732	3578.4388
CC1=CCC=CC(=O)N1	CC1=CCC=CC(=O)N1	
InChI=1S/C7H9NO/c1-6-4-2-3-5-7(9)8-6/h3-5H,2H2,1H3,(H,8,9)	InChI=1S/C7H9NO/c1-6-4-2-3-5-7(9)8-6/h3-5H,2H2,1H3,(H,8,9)
