17
gdb 125968	3.70885	1.19258	1.12367	3.475	75.	-0.2151	0.0005	0.2156	1132.5596	0.137493	-414.157577	-414.149676	-414.148732	-414.190834	29.478	
C	-0.0689910031	 1.4882944713	-0.3186708259	-0.414376
C	 0.0075252324	-0.0017809379	-0.0929139236	 0.00793
C	 1.2797967359	-0.7447372032	-0.2996054509	-0.247232
N	 0.7563869992	-0.5669986698	 1.054469993	-0.185904
C	 1.4453766657	 0.2795711908	 1.9264098906	 0.364169
C	 0.9937765803	 0.7983981525	 3.1228134327	-0.17803
N	 2.0608259612	 1.4904766708	 3.5907168531	-0.144515
N	 3.112494474	 1.4091041719	 2.7636819248	-0.120368
N	 2.7391080268	 0.6778724836	 1.7479376598	-0.251231
H	 0.9017721831	 1.966999128	-0.1682846818	 0.142445
H	-0.3972560644	 1.693760319	-1.3428223733	 0.124532
H	-0.7895072106	 1.9554968549	 0.3621896514	 0.119677
H	-0.9232653918	-0.537414861	-0.2699796539	 0.093337
H	 1.2700522228	-1.7689502417	-0.6617812605	 0.116458
H	 2.1592180598	-0.1667466243	-0.5679485996	 0.144914
H	 0.0580301343	 0.7231760407	 3.6481523912	 0.145407
H	 2.1480329843	 2.0141157843	 4.4469787729	 0.282787
38.4257	115.0839	184.9167	225.3894	303.5463	372.8222	457.0881	527.2308	571.9835	591.2391	706.172	731.5884	773.2634	803.5984	863.6508	912.4904	983.7234	990.8393	1038.2988	1049.4133	1065.483	1130.1756	1131.9431	1133.5693	1160.1531	1196.4641	1246.3058	1286.0942	1327.7789	1371.2827	1400.1023	1424.6982	1488.9028	1495.8884	1499.3379	1510.2601	1593.6269	3034.5588	3094.7641	3113.4702	3116.601	3133.3475	3205.5348	3294.2473	3657.0824
CC1CN1C1=CNN=N1	C[C@H]1CN1c1c[nH]nn1	
InChI=1S/C5H8N4/c1-4-3-9(4)5-2-6-8-7-5/h2,4H,3H2,1H3,(H,6,7,8)	InChI=1S/C5H8N4/c1-4-3-9(4)5-2-6-8-7-5/h2,4H,3H2,1H3,(H,6,7,8)/t4-,9?/m0/s1
