15
gdb 44055	2.70778	1.73636	1.58283	2.0326	64.25	-0.2481	-0.0499	0.1982	895.8461	0.111467	-457.673269	-457.666174	-457.665229	-457.704818	27.379	
O	-0.0511819496	-0.0128903621	-0.4038640134	-0.265858
C	-0.0686807677	 1.1448387385	-0.1280984302	 0.341557
C	-1.1932282817	 2.1490029055	 0.3139453003	-0.424074
C	-0.065910147	 3.1737765514	 0.5856182398	 0.3102
C	 0.7507250284	 3.2030534832	 1.8972343147	-0.148207
O	 1.7450793463	 2.2791686514	 1.3217046674	-0.325385
C	 1.0080456012	 2.2577800265	 0.08503139	 0.198524
C	 1.2920999392	 3.3608107117	-0.9628202652	-0.163292
O	 0.2117670798	 4.1840285292	-0.4039230843	-0.328717
H	-1.8589217719	 2.4424208353	-0.5020751371	 0.155334
H	-1.7953920969	 1.8133975619	 1.1628412076	 0.143472
H	 1.1919099214	 4.1747114703	 2.1357550443	 0.129064
H	 0.2744453862	 2.7725610476	 2.7842782756	 0.120066
H	 2.2722237647	 3.8337516987	-0.8485876496	 0.131492
H	 1.1115682476	 3.1105884007	-2.0129364799	 0.125824
89.744	195.2619	278.0064	299.5163	343.1301	403.1278	450.5108	594.7735	617.2458	686.7888	732.1938	814.8624	835.0968	896.8594	898.523	927.4893	963.4196	975.115	1042.1422	1119.5377	1131.4252	1132.3509	1164.4671	1202.1447	1217.1127	1233.0322	1240.7598	1316.327	1337.8922	1413.7966	1495.8109	1500.4551	1897.5856	3040.6974	3041.9809	3065.4197	3101.6379	3106.012	3126.2834
O=C1CC23COC12CO3	O=C1C[C@@]23CO[C@@]12CO3	
InChI=1S/C6H6O3/c7-4-1-5-2-9-6(4,5)3-8-5/h1-3H2	InChI=1S/C6H6O3/c7-4-1-5-2-9-6(4,5)3-8-5/h1-3H2/t5-,6+/m1/s1
