16
gdb 126024	3.0607	1.63697	1.13151	3.9794	70.28	-0.2174	0.0097	0.2271	1040.4996	0.126663	-434.050978	-434.04353	-434.042585	-434.083643	27.88	
C	 0.044301651	 1.593078581	-0.0334013687	-0.394679
C	-0.0105328412	 0.0643217882	 0.0710007737	-0.14872
C	 0.7272252606	-0.657041872	-1.1258544302	-0.107241
O	 1.6968655055	-1.6413193455	-0.5938668644	-0.28435
C	 1.6455417401	-1.4442632852	 0.7281790461	 0.45812
C	 0.7556828162	-0.537617264	 1.2148834138	 0.217736
N	 0.859815132	-0.5040912498	 2.5650712727	-0.28446
N	 1.7805584007	-1.3503891991	 2.9367533865	-0.14254
N	 2.2834377373	-1.9500941212	 1.7891910516	-0.337815
H	 1.0805898921	 1.9445215419	-0.0630900112	 0.122711
H	-0.4674405672	 1.9465799506	-0.9349565481	 0.114847
H	-0.4414211761	 2.0501167139	 0.8329756811	 0.140861
H	-1.0620886179	-0.2480722498	 0.0876018245	 0.101114
H	 0.0490076671	-1.2104137381	-1.7773281417	 0.132332
H	 1.3023649337	 0.0546214129	-1.7249741628	 0.12863
H	 3.0104227462	-2.6411469837	 1.8657091271	 0.283454
38.7157	155.3657	229.1114	274.0302	319.6309	418.1302	489.2388	502.4751	616.1933	678.5821	693.8647	744.7033	761.7979	887.8199	922.005	922.3828	939.3806	1009.6226	1041.6067	1098.119	1140.2619	1193.8511	1223.198	1239.7944	1279.8305	1340.8677	1360.2816	1385.127	1408.3998	1416.7254	1494.3126	1499.0946	1505.6289	1566.6522	1653.4767	3020.2707	3034.525	3064.0741	3105.0169	3119.2822	3127.2488	3677.8573
CC1COC2=C1N=NN2	C[C@H]1COc2c1nn[nH]2	
InChI=1S/C5H7N3O/c1-3-2-9-5-4(3)6-8-7-5/h3H,2H2,1H3,(H,6,7,8)	InChI=1S/C5H7N3O/c1-3-2-9-5-4(3)6-8-7-5/h3H,2H2,1H3,(H,6,7,8)/t3-/m0/s1
