22
gdb 120275	2.93791	1.03486	0.89173	0.8628	82.93	-0.2251	0.0831	0.3082	1417.2614	0.193745	-404.290344	-404.280786	-404.279841	-404.325133	35.3	
C	-1.1551207014	 1.2342812105	-1.1850910241	-0.223169
O	-0.9141387018	-0.1502765439	-1.1594024264	-0.239355
C	 0.3818761068	-0.4735659252	-0.6885321649	-0.075059
C	 0.532887926	-1.9801869684	-0.7595559446	-0.021785
C	 0.7264996279	-2.6011457148	-2.1489825167	-0.048281
N	 2.0166045143	-2.0794303257	-2.6643827289	-0.33728
C	 2.0044018432	-3.2381349637	-1.7376816944	-0.057485
C	 1.8976381832	-2.6602561235	-0.3170826122	-0.008943
C	 3.055455213	-1.8100592486	 0.1916372312	-0.408812
H	-1.0822709877	 1.6826519662	-0.1806165987	 0.098745
H	-0.4475195304	 1.7624474548	-1.8441527611	 0.103131
H	-2.1694750515	 1.3855907837	-1.5637178679	 0.121516
H	 1.1490392458	 0.0156232921	-1.3061655421	 0.107067
H	 0.5093347575	-0.1193204885	 0.3495056937	 0.077173
H	-0.3087978073	-2.4426445827	-0.2367208408	 0.07864
H	-0.0404069586	-2.9489635116	-2.8294563188	 0.091523
H	 2.1337514618	-2.4489896381	-3.6069834431	 0.227134
H	 2.4415145352	-4.1844301036	-2.0342685881	 0.086576
H	 1.6760742594	-3.4589994332	 0.3973362917	 0.073016
H	 3.3431607442	-1.0604197936	-0.549381886	 0.13739
H	 2.797104225	-1.2972816437	 1.1243573672	 0.110498
H	 3.9307264954	-2.4376763984	 0.394081125	 0.107762
65.7183	96.8892	124.5105	158.3805	222.6416	231.5099	258.6879	280.883	373.3706	429.4176	554.9513	598.4187	669.5034	801.9172	821.8722	846.7812	873.2291	899.5591	929.5311	983.745	1011.4308	1031.2585	1060.4916	1074.5055	1109.2725	1116.8475	1141.9676	1151.6025	1167.725	1186.4341	1195.064	1228.393	1253.5661	1266.4249	1290.3071	1320.8723	1359.428	1373.3955	1383.6651	1405.7767	1423.8888	1479.3851	1484.8923	1491.4845	1502.2912	1507.3216	1529.4485	2948.9017	2965.9612	3006.2786	3017.0579	3031.9453	3053.8113	3076.8403	3089.7051	3106.8664	3125.8101	3177.0602	3197.1261	3478.1087
COCC1C2NC2C1C	COC[C@H]1[C@H]2N[C@H]2[C@H]1C	
InChI=1S/C7H13NO/c1-4-5(3-9-2)7-6(4)8-7/h4-8H,3H2,1-2H3	InChI=1S/C7H13NO/c1-4-5(3-9-2)7-6(4)8-7/h4-8H,3H2,1-2H3/t4-,5+,6-,7+/m0/s1
