25
gdb 105217	1.7714	1.38848	1.07569	1.3358	89.04	-0.2587	0.0739	0.3326	1338.5877	0.227046	-389.477619	-389.466571	-389.465627	-389.512935	41.698	
C	 0.6101860564	-1.1567838654	 1.2375367303	-0.392781
C	 0.1869281299	-0.410913421	-0.0405848113	-0.032122
C	 1.2325244028	-0.5841727257	-1.1507274046	-0.418864
C	-1.2725910792	-0.7176480206	-0.4311939303	 0.361624
C	-2.2537762299	 0.1653455248	 0.3189523758	-0.149165
O	-2.0450788059	 1.5187737733	-0.0740707863	-0.420231
C	-1.6914742699	-1.0568983098	-1.8457437394	-0.335391
C	-1.8179039715	-2.0993188256	-0.7624451643	-0.040827
C	-1.0106485837	-3.3800874578	-0.7989346699	-0.423824
H	 1.56643393	-0.7734999719	 1.6098288713	 0.105853
H	-0.1265083794	-1.0378016515	 2.0387842095	 0.10628
H	 0.7316207102	-2.2289930416	 1.0564750208	 0.114728
H	 0.180821784	 0.6601282033	 0.1948617185	 0.093483
H	 1.3483506252	-1.6250920632	-1.4695452735	 0.11377
H	 0.9815228181	 0.0130690937	-2.0317119346	 0.120838
H	 2.2112348406	-0.2487270035	-0.7907228737	 0.107336
H	-3.2838370592	-0.1488140994	 0.0902827228	 0.080021
H	-2.1095133764	 0.051195093	 1.4054012846	 0.083013
H	-2.5388650249	 2.0842671747	 0.5266955462	 0.285051
H	-2.5856089078	-0.5874014975	-2.2429057495	 0.107163
H	-0.9114681061	-1.2094278422	-2.5833940433	 0.106712
H	-2.832354355	-2.2649194556	-0.4036406675	 0.073432
H	-0.0044335774	-3.2309363522	-1.1965994642	 0.122626
H	-0.9130923088	-3.8253793112	 0.1969608273	 0.116968
H	-1.5075361022	-4.1170297672	-1.4406582147	 0.114306
79.9242	106.8355	175.7339	195.4708	206.4799	233.556	237.2069	249.8127	265.2568	291.7101	328.1601	386.7343	393.0434	451.2133	463.2764	613.0643	648.6223	798.2075	861.2046	892.7599	920.0267	932.462	955.8676	962.486	976.7516	1029.5702	1060.1547	1069.2986	1082.6668	1132.8049	1146.4608	1148.0887	1185.2983	1194.7533	1229.8026	1252.4534	1266.4703	1348.9211	1362.2396	1385.7866	1399.654	1412.08	1422.1779	1435.3898	1454.3096	1486.7137	1490.3628	1492.4408	1499.8926	1507.3785	1509.3977	1515.191	1517.5521	2965.3085	2996.8083	3029.7945	3031.4212	3032.0144	3036.4585	3084.3033	3092.4011	3096.6734	3106.5906	3108.5016	3112.168	3129.5922	3131.7277	3214.3447	3830.418
CC(C)C1(CO)CC1C	CC(C)[C@@]1(CO)C[C@H]1C	
InChI=1S/C8H16O/c1-6(2)8(5-9)4-7(8)3/h6-7,9H,4-5H2,1-3H3	InChI=1S/C8H16O/c1-6(2)8(5-9)4-7(8)3/h6-7,9H,4-5H2,1-3H3/t7-,8+/m1/s1
