16
gdb 28727	4.28578	0.883	0.79536	3.3986	75.91	-0.189	-0.0209	0.1681	1406.6064	0.123415	-437.922148	-437.913361	-437.912417	-437.957111	31.277	
N	 0.0405443684	 1.3316292206	 0.0728661432	-0.594085
C	-0.1220831546	-0.0446025697	 0.0256015615	 0.364088
C	-1.2043418036	-0.8709867561	 0.0962936374	-0.253191
C	-0.6713980011	-2.2046254077	 0.0994266722	-0.237868
C	 0.6795510872	-2.0993786281	 0.0341991617	 0.308593
C	 1.7986791375	-3.0769533213	-0.0522726219	-0.385878
C	 2.2434548748	-3.3017473296	-1.4942570343	 0.163718
O	 2.4083331625	-4.3823386451	-1.9951678799	-0.235649
O	 1.0275955153	-0.7607800752	-0.0146017882	-0.209124
H	 0.8450143081	 1.6508682658	-0.4520059995	 0.256563
H	-0.791333976	 1.8335516715	-0.2046770677	 0.257777
H	-2.2396340623	-0.5751936867	 0.1456833981	 0.099078
H	-1.23195788	-3.1258575894	 0.1429817722	 0.111911
H	 2.6646589806	-2.7022388965	 0.5114060756	 0.135815
H	 1.5078036209	-4.0408516215	 0.3715105634	 0.137053
H	 2.3972844824	-2.362531481	-2.0723085138	 0.081198
32.7832	57.3019	132.3911	179.4461	243.5078	278.6474	360.192	425.9985	450.1368	629.14	643.2738	678.9352	693.527	737.2278	757.3419	805.3962	828.6807	960.0126	993.4193	1019.8628	1046.4479	1051.3095	1101.8033	1181.0781	1229.6805	1266.2303	1299.2764	1306.7775	1419.7634	1439.5384	1442.5442	1606.8046	1641.875	1671.931	1834.5007	2879.3111	3017.8062	3115.9845	3250.7937	3267.1368	3546.5647	3648.3428
NC1=CC=C(CC=O)O1	Nc1ccc(CC=O)o1	
InChI=1S/C6H7NO2/c7-6-2-1-5(9-6)3-4-8/h1-2,4H,3,7H2	InChI=1S/C6H7NO2/c7-6-2-1-5(9-6)3-4-8/h1-2,4H,3,7H2
