23
gdb 119403	3.83535	0.99095	0.94068	0.9448	86.42	-0.2505	0.0864	0.337	1386.7099	0.207292	-388.275112	-388.266382	-388.265438	-388.308788	33.823	
C	 0.0476484084	 1.3714666178	-0.0202357964	-0.21706
O	 0.0969818797	-0.0332805328	-0.0399574434	-0.239569
C	 0.6232559348	-0.5844323623	 1.1515394597	-0.187678
C	 0.6263906543	-2.085815934	 1.032905591	 0.363651
C	 1.5420769349	-2.8426612659	 0.0221578594	-0.247819
C	 1.2719576835	-4.039024211	 0.9779505283	-0.01739
C	 1.2762207146	-2.9877306268	 2.1258596125	-0.275638
C	-0.2366574276	-4.2787033392	 0.7695659946	-0.212692
C	-0.7291586868	-2.7945274005	 0.8116117016	-0.244284
H	 1.0487110684	 1.8154222845	 0.104149198	 0.100996
H	-0.3665536217	 1.7000283288	-0.9768178578	 0.12476
H	-0.5940564055	 1.748105606	 0.7928040532	 0.101169
H	 1.6467478873	-0.2081077003	 1.3255525797	 0.078249
H	 0.0136361393	-0.2721273403	 2.0193523122	 0.079834
H	 1.2066938805	-2.9203377632	-1.0158377834	 0.091578
H	 2.5778876985	-2.4950766753	 0.0593713649	 0.088786
H	 1.9212592157	-4.9146240082	 1.0029921429	 0.055188
H	 2.2842579217	-2.6610274465	 2.3950751193	 0.091193
H	 0.6954992816	-3.2025696082	 3.0290694225	 0.084195
H	-0.4505840141	-4.7664851408	-0.1860660157	 0.093813
H	-0.6739992056	-4.8917794247	 1.5632718611	 0.091664
H	-1.4273053556	-2.6035679631	 1.633115075	 0.087865
H	-1.2052104363	-2.4713281541	-0.1164362793	 0.109188
73.4259	95.5398	128.633	231.3766	274.1736	320.1881	341.3714	386.5109	445.1917	508.7394	629.9183	726.6895	828.9126	831.3564	835.612	887.6128	899.5276	938.6313	946.0366	972.0085	979.0196	993.2873	1023.7471	1044.9183	1088.7977	1117.1075	1148.1215	1154.9655	1169.0138	1183.6036	1200.4435	1220.5674	1226.1258	1240.6586	1248.6463	1269.7827	1283.2886	1297.8345	1325.347	1349.4581	1421.9685	1480.4933	1485.6056	1486.4336	1494.7154	1500.9226	1502.0135	1522.0148	1533.8492	2932.3256	2960.7818	2966.0537	3006.6836	3040.7053	3045.9707	3051.8944	3057.1232	3087.3336	3102.826	3108.4597	3110.359	3112.3627	3113.7623
COCC12CC(C1)CC2	COC[C@@]12C[C@@H](C1)CC2	
InChI=1S/C8H14O/c1-9-6-8-3-2-7(4-8)5-8/h7H,2-6H2,1H3	InChI=1S/C8H14O/c1-9-6-8-3-2-7(4-8)5-8/h7H,2-6H2,1H3/t7-,8-
