18
gdb 64106	3.4113	1.21412	1.11607	4.7133	69.42	-0.2515	0.0427	0.2941	1142.5159	0.147427	-476.233096	-476.224493	-476.223549	-476.266608	32.718	
C	 0.3937862153	 1.4128317664	 0.0132502424	-0.463245
C	-0.1308139568	-0.0237633407	-0.0225732	 0.353761
O	-1.5549685705	-0.0498605988	 0.0201345258	-0.46581
C	 0.4200465364	-0.7744743673	-1.2586793115	-0.114358
O	 0.7033945202	-2.1511256978	-0.9807934454	-0.221339
C	 1.6306130488	-2.3454563024	-0.0167035778	 0.445387
N	 2.4490869232	-3.2997293691	-0.0899016023	-0.557169
O	 1.5873690868	-1.4347986318	 0.9993643666	-0.254836
C	 0.3022288829	-0.8351142498	 1.2079155493	-0.115592
H	 1.4790313259	 1.4266672932	 0.1512426512	 0.139537
H	 0.1704490522	 1.9399872291	-0.9226772795	 0.116337
H	-0.0719297866	 1.9605441053	 0.837537063	 0.131361
H	-1.8902054661	 0.6226395283	-0.5821261466	 0.28313
H	-0.3304369501	-0.785863629	-2.0510144577	 0.12308
H	 1.3301508262	-0.2942113968	-1.6378560668	 0.114422
H	 2.9973343059	-3.3430186862	 0.767473205	 0.227173
H	 0.4043300807	-0.2090492614	 2.0955239652	 0.121748
H	-0.4506423943	-1.6067323012	 1.3965649291	 0.136415
38.7392	150.9817	223.2716	268.1159	279.508	333.8012	341.3565	385.8139	392.2809	466.859	513.7589	571.9599	710.0413	759.2395	803.8641	840.9896	857.014	910.9894	949.2096	956.3981	1012.8859	1027.9643	1091.0495	1095.9582	1145.4567	1196.0467	1224.5667	1270.1705	1286.1819	1330.2736	1360.0656	1399.145	1414.4981	1427.8091	1488.4437	1493.5169	1495.2473	1506.1122	1779.293	3025.2902	3032.6477	3059.429	3095.9612	3118.9608	3122.7221	3129.3759	3517.6458	3812.1598
CC1(O)COC(=N)OC1	C[C@@]1(O)CO[C]([NH])OC1	
InChI=1S/C5H9NO3/c1-5(7)2-8-4(6)9-3-5/h6-7H,2-3H2,1H3	InChI=1S/C5H9NO3/c1-5(7)2-8-4(6)9-3-5/h6-7H,2-3H2,1H3/t5-
