18
gdb 17848	4.62416	1.79708	1.55604	1.9186	71.38	-0.242	0.0779	0.3198	858.3303	0.155486	-347.725741	-347.719193	-347.718249	-347.756542	25.88	
O	 0.0468307869	 1.3691282305	-0.4394029423	-0.277939
C	 1.3822244975	 1.5171356777	 0.0863634213	-0.177571
C	 1.3319863574	 0.1033064479	 0.6895339983	 0.383895
C	-0.0838949523	 0.0345767088	 0.0930384128	-0.177571
C	 2.4289869281	-0.9821856183	 0.5437365468	-0.109434
C	 3.204812669	-0.2323991538	 1.6672679693	-0.227487
C	 1.7216293371	-0.2754787705	 2.1413133344	-0.109432
C	 1.6929721561	-1.7611928259	 1.6741517078	-0.227487
H	 2.1214234253	 1.6764550812	-0.7102999904	 0.099724
H	 1.451144046	 2.3461481653	 0.8036207172	 0.099725
H	-0.9088491371	-0.0403084389	 0.8143655763	 0.099725
H	-0.238540018	-0.7099709902	-0.6995550071	 0.099724
H	 2.8325621124	-1.3854750972	-0.386650676	 0.073321
H	 3.9162915237	-0.8277433265	 2.2456459572	 0.092304
H	 3.6186622816	 0.7478409415	 1.4168869432	 0.096439
H	 1.305999739	 0.1396841272	 3.0611108408	 0.073322
H	 0.7162944693	-2.1870720713	 1.4301017686	 0.096439
H	 2.2988175852	-2.4633547005	 2.2530107918	 0.092304
84.7746	218.338	233.3865	338.2378	434.792	557.7491	588.7048	755.6477	800.9984	858.0627	859.0628	903.9749	905.362	959.4445	981.4117	991.1049	1014.2813	1027.8095	1035.9205	1058.2807	1100.1416	1116.4764	1137.2978	1157.2425	1158.4867	1171.9798	1193.3307	1195.5879	1207.6168	1250.5769	1253.5525	1309.1957	1312.9654	1391.8779	1501.3372	1506.541	1532.5928	1538.7605	2992.2829	3004.2055	3037.1471	3037.6755	3052.3116	3052.8843	3095.9701	3101.936	3115.2792	3117.7005
O1CC2(C1)C1CC2C1	O1CC2(C1)[C@H]1C[C@@H]2C1	
InChI=1S/C7H10O/c1-5-2-6(1)7(5)3-8-4-7/h5-6H,1-4H2	InChI=1S/C7H10O/c1-5-2-6(1)7(5)3-8-4-7/h5-6H,1-4H2/t5-,6+
