15
gdb 28968	2.94247	1.53363	1.01447	3.3452	81.71	-0.2708	-0.0628	0.208	1102.6454	0.114479	-379.756278	-379.748521	-379.747577	-379.789062	28.275	
C	-0.0364314905	 1.5084768306	-0.0210987286	-0.491678
C	-0.010814801	 0.0052541216	-0.0004285328	 0.269176
N	-0.0300195701	-0.6273471564	-1.1759105431	-0.309257
C	-0.0071011682	-1.962840756	-1.1887481195	 0.007251
C	 0.0359340764	-2.7495787907	-0.0420036724	-0.123493
C	 0.0562168306	-2.1083869093	 1.1873089335	-0.149145
C	 0.0327423948	-0.7111646957	 1.2169215378	 0.103922
C	 0.0527487758	-0.0163802655	 2.4649094918	 0.211847
N	 0.0685275484	 0.5535300983	 3.4729971905	-0.33866
H	 0.8562741442	 1.9243096299	 0.4584976542	 0.150249
H	-0.0833943979	 1.8544707741	-1.0536343682	 0.146489
H	-0.8991900906	 1.896510775	 0.5307312923	 0.150268
H	-0.0242882557	-2.4270138672	-2.171909756	 0.122938
H	 0.0528167277	-3.8305811607	-0.1122796842	 0.117039
H	 0.0895483261	-2.6667365679	 2.1158725446	 0.133056
66.3794	127.7149	148.4706	216.4399	349.9187	401.4448	470.2268	480.0311	560.9949	603.2488	604.8927	724.4104	759.058	837.7115	857.9841	983.3017	992.5307	1000.0251	1063.7043	1088.7322	1129.2955	1198.6123	1257.9377	1286.9221	1304.6245	1408.7028	1460.8093	1464.5029	1482.2252	1493.0359	1595.8433	1625.9328	2339.6121	3042.2102	3096.4241	3155.634	3159.5964	3197.8378	3213.3092
CC1=NC=CC=C1C#N	Cc1ncccc1C#N	
InChI=1S/C7H6N2/c1-6-7(5-8)3-2-4-9-6/h2-4H,1H3	InChI=1S/C7H6N2/c1-6-7(5-8)3-2-4-9-6/h2-4H,1H3
