15
gdb 15749	6.73526	1.05928	0.98568	1.5379	66.34	-0.2743	-0.0232	0.251	1171.2058	0.118424	-399.82256	-399.814682	-399.813737	-399.855623	27.557	
N	-0.1766122755	 1.2712409583	 0.3639904681	-0.419831
C	-0.0350748788	 0.0531580394	 0.08382407	 0.114138
O	-1.1576953142	-0.7358985893	 0.0704770268	-0.212616
C	-1.00483851	-2.0693415577	-0.2356911758	 0.48285
O	 0.0548867174	-2.5808506803	-0.4921836644	-0.364319
C	-2.3138944344	-2.7519339764	-0.2013927473	-0.14133
C	-2.5222150921	-3.8944532672	-1.1858187656	-0.249575
C	-2.3231129508	-4.2036505632	 0.2571690118	-0.249614
H	 0.7295686946	 1.7366787583	 0.3383513388	 0.239071
H	 0.873859654	-0.4971454297	-0.159426328	 0.142849
H	-3.1592424022	-2.1256037186	 0.0494572705	 0.116978
H	-3.5130441118	-3.9894212339	-1.6138846646	 0.127601
H	-1.6990319908	-4.0945770903	-1.8613315445	 0.143111
H	-1.3654339312	-4.612647706	 0.5564504576	 0.143098
H	-3.1728680443	-4.5176782634	 0.8515632466	 0.127591
59.0545	110.9636	135.2165	163.9765	275.9363	296.3637	384.1326	530.7983	696.6668	752.3317	797.3506	832.9211	853.3755	878.5341	918.0399	949.4737	1035.9218	1067.1275	1073.6472	1099.2164	1119.9288	1131.3496	1166.7277	1210.2143	1221.642	1268.6941	1386.1944	1413.869	1458.232	1490.567	1746.667	1823.0189	3140.5389	3146.874	3148.8571	3207.7724	3234.1437	3248.7088	3506.9049
N=COC(=O)C1CC1	[NH][CH]OC(=O)C1CC1	
InChI=1S/C5H7NO2/c6-3-8-5(7)4-1-2-4/h3-4,6H,1-2H2	InChI=1S/C5H7NO2/c6-3-8-5(7)4-1-2-4/h3-4,6H,1-2H2
