19
gdb 50566	3.18139	1.3678	1.19499	2.7611	74.81	-0.2401	-0.0278	0.2123	1080.3132	0.160721	-423.018183	-423.01058	-423.009636	-423.050676	29.607	
O	-0.3742344927	 0.354893497	-0.4505544969	-0.241736
C	 0.4988921215	 0.7354558365	 0.2869845493	 0.143059
C	 1.3006557793	 2.0118008811	 0.1251291643	-0.117429
C	 0.9349813969	 2.7744271795	-1.1670916176	-0.084396
O	 1.132949086	 4.1847106246	-1.0730541288	-0.280071
C	 0.9352667341	 4.713277472	 0.2281382889	 0.139488
C	 2.0212499644	 4.1668466681	 1.1937305732	-0.241134
C	 1.086415592	 2.9357008263	 1.3504522271	-0.036824
C	-0.1023963905	 3.8983328247	 1.0518928435	-0.261048
H	 0.7772719001	 0.1459432194	 1.1918837912	 0.080532
H	 2.357563569	 1.7060664452	 0.1272468468	 0.097467
H	 1.5395079718	 2.4333435022	-2.0113119281	 0.114107
H	-0.1113523381	 2.5565696279	-1.4099805177	 0.123784
H	 0.81005151	 5.7909502339	 0.1103420075	 0.078394
H	 3.0192325023	 4.0116975847	 0.7757763043	 0.097926
H	 2.0850636597	 4.7504923497	 2.1159340572	 0.100182
H	 1.0982216521	 2.3776613433	 2.2908582009	 0.066957
H	-0.4062212781	 4.4472179443	 1.9459507629	 0.106379
H	-0.9888806296	 3.5124741198	 0.5440157919	 0.114361
57.7722	139.703	237.1075	251.6602	349.5507	426.3898	441.5395	482.3889	569.4027	667.9247	763.0435	804.8743	836.5525	887.1092	894.831	922.5759	953.3223	969.0331	987.1045	1026.7578	1045.1122	1060.338	1099.8913	1112.2969	1140.7243	1161.7085	1198.7348	1239.5174	1246.8169	1267.9215	1276.2259	1302.5258	1322.371	1336.6715	1373.9333	1415.4372	1432.8383	1469.8568	1497.7804	1524.8204	1825.5754	2857.6086	2999.1951	3040.9135	3054.3618	3063.8537	3074.4746	3093.9059	3099.0386	3117.5669	3127.4963
O=CC1COC2CC1C2	O=C[C@H]1CO[C@@H]2C[C@H]1C2	
InChI=1S/C7H10O2/c8-3-6-4-9-7-1-5(6)2-7/h3,5-7H,1-2,4H2	InChI=1S/C7H10O2/c8-3-6-4-9-7-1-5(6)2-7/h3,5-7H,1-2,4H2/t5-,6-,7+/m0/s1
