21
gdb 87188	3.7816	0.90569	0.84009	3.21	79.93	-0.2389	-0.0231	0.2158	1476.7327	0.179187	-424.242573	-424.232328	-424.231384	-424.278065	37.696	
C	-0.0314158041	 1.5540338551	 0.0664135701	-0.402508
C	 0.0121751041	 0.0460864116	-0.0413664964	-0.05988
C	 1.2916974907	-0.6650491337	-0.4505005492	-0.348475
C	 0.7665839361	-0.7755904485	 0.9658136506	 0.439446
O	 1.4234568565	-0.0556650524	 1.9674495645	-0.480713
C	 0.1950851127	-2.0958286709	 1.4463939651	-0.382594
C	 1.2545928477	-3.0461849022	 1.9949439662	 0.398873
C	 0.8614941562	-4.503380032	 2.1217290502	-0.474081
O	 2.3559902818	-2.6566254022	 2.3281074772	-0.311616
H	 0.8842066645	 1.9340603905	 0.5238323879	 0.136103
H	-0.1449377751	 2.0130738248	-0.9216433633	 0.110101
H	-0.8722431698	 1.8816429104	 0.687536615	 0.113849
H	-0.9061936208	-0.4063979423	-0.4100801319	 0.07562
H	 1.2293287322	-1.5208119947	-1.1155632867	 0.097582
H	 2.175849372	-0.0505812727	-0.5818750266	 0.115807
H	 2.1391525056	-0.637033118	 2.265281261	 0.291342
H	-0.5193634243	-1.9165757653	 2.2645520531	 0.135197
H	-0.3710050277	-2.5994549173	 0.6544015542	 0.112352
H	-0.1103666139	-4.6017312745	 2.6171576751	 0.140782
H	 0.7527064368	-4.9405415634	 1.1219644815	 0.146822
H	 1.6242330689	-5.0526563623	 2.6747236425	 0.145993
52.1524	81.7075	131.9951	135.7248	187.2338	227.2881	264.0271	308.0856	339.7759	409.8236	445.8427	482.3698	533.4127	593.7003	616.1742	728.9629	799.5747	826.8131	858.1473	890.2611	926.8652	935.8294	981.8218	1009.2198	1037.1672	1052.0287	1108.7584	1138.4305	1178.1565	1190.7042	1206.3454	1251.3102	1314.0935	1348.0876	1373.8004	1385.0089	1413.5522	1424.4966	1445.8744	1461.6912	1475.5828	1491.186	1496.7782	1512.3694	1790.3333	3004.8784	3033.93	3036.1559	3065.789	3090.1534	3097.5122	3117.4007	3124.7929	3136.6623	3153.4866	3214.9548	3715.5408
CC1CC1(O)CC(C)=O	C[C@H]1C[C@]1(O)CC(=O)C	
InChI=1S/C7H12O2/c1-5-3-7(5,9)4-6(2)8/h5,9H,3-4H2,1-2H3	InChI=1S/C7H12O2/c1-5-3-7(5,9)4-6(2)8/h5,9H,3-4H2,1-2H3/t5-,7-/m0/s1
