17
gdb 98255	3.30643	1.1571	0.86649	2.8907	67.44	-0.2637	0.0127	0.2764	1290.6816	0.134954	-492.366474	-492.356544	-492.3556	-492.401944	34.344	
C	-0.0191951064	 1.2720104603	 0.5512459736	-0.236698
O	-0.1128188446	-0.0307402986	-0.0382377785	-0.24596
C	-1.21611809	-0.727044418	 0.2945054822	 0.559552
O	-2.0706596922	-0.2831315545	 1.0405244496	-0.434888
N	-1.2146713966	-1.9608987648	-0.3186168228	-0.259441
C	-0.0932827287	-2.3364188014	-1.1896165738	-0.338911
C	-2.2563622692	-2.9392089434	-0.1625671485	 0.488768
N	-3.2880930944	-2.5804142356	 0.6299188274	-0.560922
O	-2.1735988832	-4.0098245065	-0.7313385923	-0.398083
H	 0.9175783229	 1.689731715	 0.1827291886	 0.137967
H	-0.8629598374	 1.89541957	 0.2466287658	 0.145191
H	-0.0053904544	 1.2027076242	 1.6413722748	 0.145144
H	 0.8452504829	-2.3300295186	-0.6313210104	 0.134146
H	-0.3035909537	-3.337666224	-1.5561597618	 0.175636
H	-0.0073997563	-1.6396329385	-2.0260625486	 0.134168
H	-3.2960384905	-1.6819195524	 1.091757712	 0.290301
H	-4.0104929182	-3.2670832433	 0.7534981429	 0.264032
57.4918	76.1773	124.1583	148.7704	162.6815	210.3583	247.739	314.9831	363.5851	387.4003	433.2997	455.0574	583.4277	657.0298	688.1364	777.0565	788.3754	813.1498	934.7205	1075.4363	1121.7467	1162.3699	1182.2661	1194.1572	1218.5099	1230.4	1360.1494	1362.4159	1446.151	1482.5822	1484.5559	1500.5483	1504.2819	1509.4185	1585.3607	1774.6771	1816.2814	3056.3787	3063.3635	3125.9821	3133.7611	3162.6108	3192.1644	3539.0309	3729.9528
COC(=O)N(C)C(N)=O	COC(=O)N(C)C(=O)N	
InChI=1S/C4H8N2O3/c1-6(3(5)7)4(8)9-2/h1-2H3,(H2,5,7)	InChI=1S/C4H8N2O3/c1-6(3(5)7)4(8)9-2/h1-2H3,(H2,5,7)
