19
gdb 26477	3.56022	1.2577	1.0346	1.944	83.	-0.1905	0.0475	0.238	1189.1407	0.161432	-382.088182	-382.080035	-382.07909	-382.120957	31.926	
C	-0.2507655512	 1.3667079143	-0.7257507681	-0.471828
C	-0.0531799866	 0.0146952342	-0.0715621384	 0.185775
C	 1.0738013556	-0.8435207382	-0.552433011	-0.262111
N	 1.1411115556	-0.2070666345	 0.7743348192	-0.365401
C	-1.2793589795	-0.6198433892	 0.4755430174	 0.321147
C	-2.5969755675	-0.615722105	 0.0634762451	-0.263807
C	-3.3309201364	-1.427061309	 0.9738040426	-0.141375
C	-2.4421507266	-1.8976824102	 1.9135632248	-0.09951
N	-1.2038097867	-1.4056961122	 1.5962459735	-0.287055
H	 0.694854273	 1.7527690251	-1.120560154	 0.107063
H	-0.9560718997	 1.2969296558	-1.5599672713	 0.133749
H	-0.6536157537	 2.0907329754	-0.0103274046	 0.131074
H	 0.971152359	-1.9245538962	-0.5346425264	 0.12084
H	 1.7074480651	-0.4576924542	-1.3473596172	 0.111105
H	 1.7481493551	 0.6079193407	 0.747675318	 0.23135
H	-2.9904536775	-0.0983171498	-0.7981058188	 0.083521
H	-4.3889197297	-1.638097763	 0.9413935095	 0.088152
H	-2.5866081288	-2.53013966	 2.7746650877	 0.110745
H	-0.3454233296	-1.5052834039	 2.113995732	 0.266565
64.6015	143.6205	198.5331	227.3513	316.4871	352.7221	409.215	483.4799	550.1013	586.3819	650.4762	693.2238	719.1614	790.588	815.1449	835.6592	844.8018	900.4129	927.5967	959.2568	979.1129	1003.0644	1049.2772	1057.3318	1096.8107	1115.4778	1129.5611	1149.9255	1207.9538	1258.2879	1280.3668	1332.6484	1362.4422	1414.9088	1440.0897	1463.6381	1481.6102	1490.6057	1503.1089	1511.7939	1608.2982	3031.9453	3102.1587	3104.2164	3105.8361	3195.2387	3237.966	3250.8169	3269.7526	3504.0185	3653.5392
CC1(CN1)C1=CC=CN1	C[C@]1(CN1)c1ccc[nH]1	
InChI=1S/C7H10N2/c1-7(5-9-7)6-3-2-4-8-6/h2-4,8-9H,5H2,1H3	InChI=1S/C7H10N2/c1-7(5-9-7)6-3-2-4-8-6/h2-4,8-9H,5H2,1H3/t7-/m0/s1
