17
gdb 97633	3.13233	0.66756	0.57798	2.0389	79.86	-0.2561	0.0222	0.2783	1868.9441	0.132692	-421.743362	-421.732796	-421.731852	-421.781164	36.495	
O	 0.2758394141	 1.1084247432	-0.7006979484	-0.399983
C	 0.0710509607	 0.0066063994	 0.1713558544	-0.194974
C	-1.3021008114	-0.4991431125	 0.1612358155	 0.091507
C	-2.4516857313	-0.8576804828	 0.1573651201	 0.046063
C	-3.8256680981	-1.3589251303	 0.1261513592	-0.357505
C	-3.8520462945	-2.8950356795	-0.1518219005	-0.057584
O	-5.1652429046	-3.3857583392	-0.2465019669	-0.412104
C	-4.5590653055	-1.0739603443	 1.3642128775	 0.312143
C	-5.1895908546	-0.9104850182	 2.3746191207	-0.454312
H	-0.3848447465	 1.7747221694	-0.484236408	 0.288966
H	 0.7608562612	-0.7738415226	-0.1683896756	 0.142578
H	 0.3569216435	 0.2530541588	 1.2064382848	 0.121518
H	-4.3620694096	-0.8839363609	-0.7071829243	 0.145466
H	-3.3694209164	-3.0798058405	-1.1147099527	 0.126069
H	-3.2681413408	-3.4000147238	 0.6305045844	 0.10725
H	-5.6001979576	-3.2081852679	 0.5964796354	 0.289061
H	-5.7332263684	-0.7306053583	 3.2693911743	 0.205842
12.797	79.7161	81.0724	124.7993	155.8713	202.9374	241.9635	324.3363	332.848	370.9785	418.4667	470.1617	521.9491	553.849	589.0041	635.0186	665.4454	804.2571	854.3337	986.4424	1027.5627	1031.2813	1052.4081	1091.5172	1158.7516	1199.5212	1215.817	1268.6551	1328.9974	1360.459	1381.7341	1417.7859	1421.4031	1490.735	1504.7524	2233.5533	2363.9615	2978.1265	3004.3484	3018.6213	3064.2536	3105.5995	3500.824	3782.5285	3815.7046
OCC#CC(CO)C#C	OCC#C[C@@H](CO)C#C	
InChI=1S/C7H8O2/c1-2-7(6-9)4-3-5-8/h1,7-9H,5-6H2	InChI=1S/C7H8O2/c1-2-7(6-9)4-3-5-8/h1,7-9H,5-6H2/t7-/m0/s1
