17
gdb 46304	3.01407	1.36943	1.24603	1.2647	75.27	-0.241	-0.0318	0.2092	1069.2692	0.135812	-421.836451	-421.828607	-421.827663	-421.869557	29.283	
O	 0.249156953	 0.0254945897	-0.3125812202	-0.275577
C	 0.0590841634	 1.1808692727	-0.0888646871	 0.277095
C	-1.1291666034	 2.0550995032	 0.3188458045	-0.196407
O	-0.2568817785	 3.1991999731	 0.3575993605	-0.330006
C	 0.9364700931	 2.4560023378	-0.0495811112	 0.310829
C	 2.093651563	 2.5017075566	 0.9757431916	-0.293018
C	 3.3921869909	 2.6848334302	 0.1501729507	-0.261795
C	 2.885361267	 3.038968154	-1.2241409535	-0.060379
C	 1.5630399375	 2.9178640334	-1.3314849461	-0.12265
H	-1.9224306675	 2.1407135356	-0.4353161277	 0.130385
H	-1.579606274	 1.8185495219	 1.2913665371	 0.130671
H	 1.9078674081	 3.3662429874	 1.6190937785	 0.13133
H	 2.1190143247	 1.613863293	 1.6119790909	 0.114832
H	 4.0536581581	 3.4551354611	 0.5630147457	 0.112345
H	 3.9810298735	 1.7595739302	 0.1186290849	 0.122929
H	 3.5483066832	 3.3355277145	-2.0299206645	 0.10553
H	 0.970730778	 3.0974521755	-2.220603344	 0.103886
52.9351	100.0872	156.2635	220.0389	332.1936	382.2209	471.8351	533.9045	557.944	676.0093	742.7552	773.8945	801.6396	838.6708	900.9669	923.2332	952.1177	976.4927	997.993	1011.6471	1034.5464	1074.8948	1106.0536	1134.9698	1152.4668	1174.9148	1200.9644	1261.7219	1281.8133	1295.6113	1322.6546	1380.7403	1471.8458	1484.4636	1493.3296	1677.3765	1918.2525	3013.6972	3029.9299	3057.2897	3058.5092	3068.0113	3114.4399	3187.4569	3215.8401
O=C1COC11CCC=C1	O=C1CO[C@]21CCC=C2	
InChI=1S/C7H8O2/c8-6-5-9-7(6)3-1-2-4-7/h1,3H,2,4-5H2	InChI=1S/C7H8O2/c8-6-5-9-7(6)3-1-2-4-7/h1,3H,2,4-5H2/t7-/m0/s1
