17
gdb 53425	2.70414	1.06616	0.904	4.3078	76.85	-0.2475	0.0065	0.254	1353.1764	0.135805	-421.849554	-421.840528	-421.839583	-421.885219	31.334	
C	-0.102981472	 1.4330003376	 0.1232783162	-0.496999
C	 0.0185676304	-0.016646368	 0.0730043482	 0.031291
C	 0.1201737615	-1.2149776821	 0.0139588736	 0.108637
C	 0.224425712	-2.6691356364	-0.0316518042	-0.305938
C	 0.673379121	-3.2948247686	 1.3048060999	-0.240767
C	-0.6661539654	-3.4779217823	 2.0284663637	-0.075301
O	-1.6284918591	-3.7345951518	 0.9907780077	-0.216078
C	-1.1838425089	-3.2894448768	-0.2130314783	 0.441106
O	-1.8194194789	-3.3896831091	-1.2180298283	-0.334421
H	 0.3661428176	 1.8988320629	-0.7500524214	 0.153982
H	-1.1540638829	 1.7409079432	 0.1393097821	 0.155377
H	 0.3781927045	 1.8432137487	 1.0178377168	 0.148546
H	 0.8453290882	-2.9792865726	-0.8763374559	 0.13116
H	 1.1377630553	-4.2677826625	 1.1187621006	 0.119536
H	 1.3737113813	-2.6709163426	 1.8605603741	 0.125132
H	-0.6844649911	-4.3262216316	 2.7150411561	 0.127272
H	-0.9660820535	-2.5731586779	 2.5684622891	 0.127465
25.3969	66.9424	88.2543	159.5505	212.058	257.2825	305.425	412.3781	453.7027	514.1675	632.3584	679.7706	694.308	780.3237	863.1987	899.586	935.4121	1006.8605	1051.3373	1052.8161	1058.2669	1082.6852	1155.0767	1171.6961	1199.9828	1229.8501	1263.8702	1314.4326	1344.9927	1399.0823	1415.0688	1476.9964	1477.7882	1489.4791	1520.4441	1890.7464	2370.5354	3029.7294	3049.5191	3063.9466	3078.1521	3091.276	3092.9614	3116.9022	3136.8709
CC#CC1CCOC1=O	CC#C[C@H]1CCOC1=O	
InChI=1S/C7H8O2/c1-2-3-6-4-5-9-7(6)8/h6H,4-5H2,1H3	InChI=1S/C7H8O2/c1-2-3-6-4-5-9-7(6)8/h6H,4-5H2,1H3/t6-/m0/s1
