17
gdb 13170	3.55041	1.45125	1.09763	3.3287	67.93	-0.2595	0.0291	0.2886	1059.6444	0.141997	-363.856453	-363.848098	-363.847153	-363.890335	29.089	
C	-0.146195741	 1.5009637327	-0.0006147642	-0.400661
C	 0.0336620286	-0.0290712918	-0.0145718779	-0.162689
C	 0.7032114655	-0.4610209162	-1.2473903307	 0.272334
N	 1.2470692114	-0.8028039198	-2.2083630352	-0.321437
C	 0.8130854857	-0.5356168705	 1.2094315278	-0.016229
C	 0.0416383669	-0.5241802257	 2.5493940819	-0.0934
O	 0.072442734	-1.960250314	 2.6333575482	-0.268483
C	 0.8503823216	-2.0654621929	 1.4226873358	-0.090593
H	 0.8239168124	 2.0051337663	-0.0264858769	 0.140096
H	-0.7288311277	 1.8362581407	-0.861733821	 0.142164
H	-0.6705870283	 1.8052602665	 0.9095539295	 0.130942
H	-0.9574141305	-0.5025333981	-0.0074172342	 0.132523
H	 1.7916532093	-0.0517751194	 1.2447372526	 0.098149
H	 0.5639267897	-0.0493169682	 3.3889309966	 0.10786
H	-0.9847696659	-0.1351775446	 2.5067753977	 0.102122
H	 0.3449059616	-2.6650207423	 0.6553891753	 0.114328
H	 1.8437713467	-2.4903917529	 1.6069760748	 0.112976
41.2799	81.5289	130.9667	214.3419	226.0971	254.3451	359.5707	395.6627	520.9231	577.2439	774.0473	830.9957	880.5497	887.8019	966.6504	988.6742	1011.1629	1046.7513	1070.8286	1110.1049	1114.7179	1154.1855	1166.5887	1205.5577	1258.871	1286.8574	1314.5623	1332.2949	1369.9937	1395.1445	1413.0781	1492.846	1498.3482	1511.8339	1536.7299	2355.7605	3003.3927	3020.2651	3025.3973	3047.7351	3048.5496	3062.7729	3090.4625	3123.4596	3130.6006
CC(C#N)C1COC1	C[C@@H](C#N)C1COC1	
InChI=1S/C6H9NO/c1-5(2-7)6-3-8-4-6/h5-6H,3-4H2,1H3	InChI=1S/C6H9NO/c1-5(2-7)6-3-8-4-6/h5-6H,3-4H2,1H3/t5-/m0/s1
