23
gdb 96269	2.06476	1.45684	0.96409	2.9167	85.51	-0.2333	-0.0085	0.2248	1309.3803	0.207124	-388.335882	-388.326766	-388.325822	-388.36984	35.309	
C	-0.0499784301	 1.5490557272	 0.0901261177	-0.401106
C	 0.0343827204	 0.0183504835	-0.0059566555	 0.027013
C	 0.5665385975	-0.4200272881	-1.3888259278	-0.188131
C	 0.1101527256	-1.8140927974	-1.8487483215	-0.196447
C	 0.6636330067	-3.0079583961	-1.0608430917	-0.194992
C	 0.3632532861	-2.9869994093	 0.4559738897	-0.28298
C	 1.2628371999	-1.9902268965	 1.1708577513	 0.367393
O	 2.276238213	-2.3570031307	 1.7230945083	-0.312229
C	 0.8788836264	-0.5135542905	 1.1670755124	-0.288991
H	 0.9351828786	 2.0048887633	-0.0637627116	 0.118204
H	-0.7275274992	 1.955223929	-0.6676529627	 0.111977
H	-0.412229692	 1.8687714048	 1.0729714142	 0.111529
H	-0.9879847082	-0.3723700105	 0.0946403643	 0.07228
H	 0.2224989661	 0.3051970313	-2.1359351096	 0.093675
H	 1.6643005951	-0.3596825949	-1.3955690741	 0.097456
H	-0.9880884668	-1.8465072472	-1.818284004	 0.094381
H	 0.3857375981	-1.9433890445	-2.9024025248	 0.09642
H	 0.2417653848	-3.9278773196	-1.4807237602	 0.102101
H	 1.7500017156	-3.0788835112	-1.1989337133	 0.112659
H	-0.6954547367	-2.751999294	 0.6209560155	 0.099608
H	 0.5736842055	-3.9694761973	 0.885765917	 0.11665
H	 1.8155029557	 0.049070712	 1.2533435583	 0.121558
H	 0.3376615979	-0.337386573	 2.1084803481	 0.121973
52.3137	117.6647	178.8562	241.2803	274.5099	306.3978	316.161	341.8334	391.4554	464.106	495.1851	535.4731	605.4677	757.6808	792.2307	823.1679	855.7538	877.855	930.805	942.5372	970.1608	1004.4456	1025.9871	1045.4494	1071.1406	1107.2186	1162.1767	1171.0607	1180.4193	1227.2154	1260.1081	1281.0241	1296.6798	1306.9161	1340.8124	1347.204	1377.5265	1380.6927	1389.1136	1398.6062	1413.7278	1448.4722	1479.4819	1485.7604	1487.4617	1496.6441	1498.5407	1501.3203	1800.5833	2998.0387	3007.0576	3009.7287	3012.3964	3025.7945	3026.2055	3033.5397	3053.3949	3055.0344	3069.1425	3071.0391	3093.364	3100.8506	3104.6491
CC1CCCCC(=O)C1	C[C@H]1CCCCC(=O)C1	
InChI=1S/C8H14O/c1-7-4-2-3-5-8(9)6-7/h7H,2-6H2,1H3	InChI=1S/C8H14O/c1-7-4-2-3-5-8(9)6-7/h7H,2-6H2,1H3/t7-/m0/s1
