17
gdb 125615	5.1983	0.83912	0.77671	2.2735	77.53	-0.2394	-0.0347	0.2047	1462.8127	0.135719	-418.047357	-418.03836	-418.037416	-418.083014	31.336	
C	-0.1139999698	 1.4952050909	-0.3454971032	-0.490462
C	-0.0074976514	 0.0403272562	-0.0133619583	 0.357955
N	 0.2405125278	-0.855719278	-0.9673483776	-0.278863
N	 0.2674051865	-2.0413328623	-0.3261814842	-0.249718
C	 0.0351245132	-1.9361134337	 1.0097233244	 0.371039
C	 0.0481290747	-3.1299891677	 1.9142645821	-0.384734
C	 1.457832104	-3.6999800832	 2.0191537415	 0.156885
O	 1.773423347	-4.7974367709	 1.6416328128	-0.234403
C	-0.1413208796	-0.5887678135	 1.2494275769	-0.386558
H	 0.6342137028	 2.0850695673	 0.1951863154	 0.128555
H	 0.0388966729	 1.6427865847	-1.4164979883	 0.141615
H	-1.0978684733	 1.8960317367	-0.078273919	 0.128818
H	 0.439904249	-2.8807817861	-0.8544929722	 0.278028
H	-0.2780135258	-2.8173254834	 2.9122596134	 0.137701
H	-0.6180633536	-3.9243746424	 1.5628841125	 0.133314
H	 2.200992645	-2.9957578297	 2.4545577362	 0.090133
H	-0.3485098894	-0.1269763747	 2.2020790077	 0.100695
26.4757	48.723	98.2268	138.1349	243.149	252.2708	374.7597	398.614	465.6901	512.9343	614.075	691.7579	701.4691	739.4516	808.2581	845.2765	987.9552	999.7292	1013.5872	1040.224	1059.0978	1066.1415	1163.0107	1181.1289	1191.9211	1284.906	1310.4372	1408.1594	1417.7067	1428.5112	1453.8128	1472.0123	1484.2673	1488.9062	1507.3767	1610.0413	1832.4769	2891.0483	3036.0294	3045.2405	3087.2857	3100.5531	3133.9404	3255.7507	3663.3034
CC1=NNC(CC=O)=C1	Cc1n[nH]c(CC=O)c1	
InChI=1S/C6H8N2O/c1-5-4-6(2-3-9)8-7-5/h3-4H,2H2,1H3,(H,7,8)	InChI=1S/C6H8N2O/c1-5-4-6(2-3-9)8-7-5/h3-4H,2H2,1H3,(H,7,8)
