18
gdb 31046	2.24081	1.43384	0.89388	1.8368	77.21	-0.1626	0.0612	0.2238	1290.4417	0.147872	-435.307917	-435.298257	-435.297313	-435.342773	34.62	
C	 0.1806225299	 1.4534040837	 0.000116366	-0.318417
N	-0.2822378928	 0.0903473521	-0.2347403066	-0.38534
C	 0.4301847845	-0.6820414595	-1.1529859624	 0.256938
C	 0.6477799737	-2.0378989883	-1.1507797231	 0.197854
C	 0.2897611222	-3.1315937369	-0.2072305653	-0.513319
N	 1.331993127	-2.2744087148	-2.360171465	-0.363093
C	 1.4853051683	-1.0781140872	-2.9614165656	 0.443715
O	 2.1288896595	-0.9908868573	-4.139816332	-0.429776
N	 0.9649517369	-0.0878641114	-2.2868711533	-0.420797
H	 1.1922953946	 1.5129551173	 0.433113507	 0.09972
H	 0.1920458026	 1.9926391716	-0.9483575317	 0.151529
H	-0.519363017	 1.9521910874	 0.6760603354	 0.110528
H	-0.4507928402	-0.4112528111	 0.6262124221	 0.223835
H	-0.4947774233	-3.7984258616	-0.5921514837	 0.125547
H	 1.1534472977	-3.7601925846	 0.0483777194	 0.120965
H	-0.0842563137	-2.7122037631	 0.7317406292	 0.12473
H	 1.6638726515	-3.15749112	-2.706786981	 0.264357
H	 2.1113845985	-0.0570298564	-4.3833173994	 0.311024
50.7948	104.0173	148.5444	181.487	189.9872	252.4544	262.2848	311.8836	380.3612	403.2109	437.5252	535.7463	596.4507	625.5266	685.6044	691.8479	736.1213	844.7039	983.0837	1059.74	1060.4754	1068.8967	1127.2646	1155.1333	1188.4398	1204.3613	1244.6958	1330.2978	1417.0288	1435.722	1467.7277	1468.169	1473.0336	1491.4667	1500.3299	1519.7315	1579.1678	1627.7862	1676.1016	2971.7704	2996.3256	3035.013	3084.2808	3096.4465	3139.413	3580.2514	3679.1066	3808.304
CNC1=C(C)NC(O)=N1	CNc1c(C)[nH]c(O)n1	
InChI=1S/C5H9N3O/c1-3-4(6-2)8-5(9)7-3/h6H,1-2H3,(H2,7,8,9)	InChI=1S/C5H9N3O/c1-3-4(6-2)8-5(9)7-3/h6H,1-2H3,(H2,7,8,9)
