21
gdb 73691	2.23483	1.80954	1.38042	2.1926	76.98	-0.2459	0.0746	0.3206	1041.6017	0.184954	-424.251344	-424.243441	-424.242497	-424.283487	32.071	
O	-0.089420114	 1.3783455863	 0.0677416789	-0.495501
C	 0.0462553563	-0.0382611604	 0.0164567146	 0.385515
C	 0.6996030799	-0.5445165794	-1.2893514375	-0.285926
C	-0.0635343614	-1.8373239432	-1.6271549093	-0.210091
C	-1.5167272865	-1.4802022286	-1.2635458248	-0.234973
C	-1.3881877645	-0.6638967454	 0.0255215179	 0.11612
O	-1.4492334216	-1.5284330419	 1.1581486028	-0.271095
C	-0.5483848676	-1.0135197869	 2.127964435	-0.082088
C	 0.6798414748	-0.6034189494	 1.311686681	-0.266994
H	 0.789345097	 1.7621457901	-0.0204222743	 0.273933
H	 0.5189557345	 0.2057704209	-2.0681616745	 0.101497
H	 1.7819433347	-0.683963772	-1.1999463893	 0.088252
H	 0.0621753686	-2.1485601667	-2.6675941901	 0.095888
H	 0.2841855849	-2.661492271	-0.9939750216	 0.107694
H	-1.9542386477	-0.8522070506	-2.0482320856	 0.099545
H	-2.1670436788	-2.3467722779	-1.1232721835	 0.108393
H	-2.1370750699	 0.1334404331	 0.1166098243	 0.07622
H	-0.980918519	-0.1413586762	 2.6439846926	 0.095958
H	-0.3610170464	-1.79811456	 2.8656668519	 0.104443
H	 1.2921577397	-1.4845761417	 1.0943973752	 0.100741
H	 1.3081955869	 0.1421024309	 1.8066615463	 0.092468
86.545	186.5572	256.6673	288.6874	300.3317	387.7218	390.6224	441.5385	544.8493	579.3673	615.1889	650.3314	776.5149	823.5968	853.946	884.2889	921.7102	942.8852	962.4551	966.8507	1005.8362	1013.8217	1036.4322	1059.3891	1095.5719	1137.5908	1160.8797	1192.4446	1207.4322	1221.359	1245.0132	1264.201	1290.29	1321.7571	1325.3605	1331.4419	1341.7701	1369.1993	1385.1343	1395.4809	1471.7634	1474.7806	1489.5125	1503.1814	1517.1474	2979.5894	3019.1276	3033.4954	3043.3184	3047.8607	3049.5011	3081.2024	3092.8655	3097.2906	3105.0161	3110.1016	3808.5341
OC12CCCC1OCC2	O[C@]12CCC[C@H]1OCC2	
InChI=1S/C7H12O2/c8-7-3-1-2-6(7)9-5-4-7/h6,8H,1-5H2	InChI=1S/C7H12O2/c8-7-3-1-2-6(7)9-5-4-7/h6,8H,1-5H2/t6-,7+/m1/s1
