19
gdb 81790	2.13047	1.90685	1.22989	2.1931	75.21	-0.2442	0.0821	0.3263	1066.292	0.157707	-422.976279	-422.967693	-422.966749	-423.009092	33.354	
C	-0.1496964697	 1.5069791717	 0.0918598569	-0.515231
C	 0.1576642375	 0.049397882	-0.0004352841	 0.346328
O	-0.7047235316	-0.8795896666	 0.7058883134	-0.306707
C	 0.7084877823	-0.9109781306	 0.9751585208	-0.10125
C	 1.3156727611	-1.781290032	-0.1454154531	 0.031063
O	 0.8643797217	-3.1040450981	-0.2267881277	-0.434496
C	 0.7382931869	-0.7452765153	-1.1565806875	 0.292305
C	 0.1376912469	-1.035095773	-2.4956060567	-0.323266
C	 1.4171964593	-0.2345708502	-2.3905920007	-0.342898
H	 0.7192848254	 2.1034671362	-0.2029506781	 0.130566
H	-0.982542287	 1.7740666739	-0.568492669	 0.132187
H	-0.4292576231	 1.7732848503	 1.1142546186	 0.138311
H	 1.0214308082	-0.7850248071	 2.0060892528	 0.102092
H	 2.4088484464	-1.8066011251	-0.1384510135	 0.09186
H	-0.0946700762	-3.0568431148	-0.1164349145	 0.289355
H	 0.2045534382	-2.0602115106	-2.8457458658	 0.125786
H	-0.7714294459	-0.5171721446	-2.7834999133	 0.114393
H	 1.3682591877	 0.8293698794	-2.602000132	 0.112167
H	 2.348189062	-0.7044779955	-2.6921954465	 0.117434
105.4603	180.6441	187.302	208.4934	225.6034	242.8629	362.0115	450.3174	491.837	502.0979	580.6569	641.469	693.4926	747.0462	781.14	836.1518	863.938	923.1943	937.5572	971.0297	981.1539	1005.921	1040.332	1050.5556	1076.2168	1091.6291	1109.9432	1166.6054	1187.1448	1205.3177	1249.9401	1265.0158	1288.3029	1385.384	1401.6026	1431.2598	1461.5185	1467.5408	1484.4568	1492.9743	1504.3997	3035.893	3081.4125	3098.2448	3120.3696	3124.6799	3127.176	3176.2943	3199.1007	3215.9492	3766.618
CC12OC1C(O)C21CC1	C[C@]12O[C@H]1[C@@H](O)C12CC1	
InChI=1S/C7H10O2/c1-6-5(9-6)4(8)7(6)2-3-7/h4-5,8H,2-3H2,1H3	InChI=1S/C7H10O2/c1-6-5(9-6)4(8)7(6)2-3-7/h4-5,8H,2-3H2,1H3/t4-,5+,6+/m1/s1
