12
gdb 43507	3.89108	1.15773	0.89226	6.3287	75.97	-0.2457	-0.1094	0.1363	1176.4135	0.076561	-435.505144	-435.497397	-435.496452	-435.537649	28.4	
O	-0.067240382	-0.0242867951	 0.0032922221	-0.314839
C	-0.0238553639	 1.1753656625	 0.0094453085	 0.327763
N	-1.1003114777	 2.0518264594	 0.0288351754	-0.420006
C	-0.6575200121	 3.3814950105	 0.0310329096	 0.238513
C	 0.7006288201	 3.4725964355	 0.0141419508	-0.37231
C	 1.2384459984	 2.1165130907	-0.0002990126	 0.310376
O	 2.3750440634	 1.7126517039	-0.0175677283	-0.299136
C	-1.6021114561	 4.4293175995	 0.0493291446	 0.273706
C	-2.4276945311	 5.3051279755	 0.0650627136	-0.38072
H	-2.0677991333	 1.7740140239	 0.0398198376	 0.277224
H	 1.2713883337	 4.3866432195	 0.0121269889	 0.137543
H	-3.1446644593	 6.0901082943	 0.0788221698	 0.221887
97.5946	137.9668	141.8173	304.3983	309.4286	408.9486	464.5475	495.7853	514.3278	593.7517	654.8403	660.9087	681.1742	699.4557	745.6129	764.5814	847.9295	980.675	1051.4331	1163.5813	1245.9567	1287.414	1407.1053	1608.0906	1815.7342	1862.814	2234.0396	3272.6433	3492.9256	3660.9914
O=C1NC(=CC1=O)C#C	O=C1NC(=CC1=O)C#C	
InChI=1S/C6H3NO2/c1-2-4-3-5(8)6(9)7-4/h1,3H,(H,7,8,9)	InChI=1S/C6H3NO2/c1-2-4-3-5(8)6(9)7-4/h1,3H,(H,7,8,9)
