20
gdb 55952	3.85621	0.90863	0.88295	2.9622	81.05	-0.2119	-0.0101	0.2018	1396.5637	0.169494	-403.160396	-403.150983	-403.150039	-403.196262	33.56	
C	 0.1119291702	 0.3515286607	 1.044495015	-0.46466
C	-0.0794288713	 0.377318303	-0.4595200836	 0.374353
O	 0.5294810506	 1.1337695985	-1.1793033778	-0.295241
C	-1.1338777855	-0.575070918	-1.0397121555	-0.252406
N	-1.1337300508	-1.8847432669	-0.429565009	-0.075392
C	-0.0141913821	-2.7611233548	-0.7977019771	-0.203583
C	-0.5975962967	-4.140178205	-0.6528282424	-0.06585
C	-1.9158976661	-4.0773948453	-0.4956436884	-0.070252
C	-2.3854388772	-2.6486962707	-0.5166105484	-0.197754
H	 0.818039448	 1.1298806394	 1.3358659313	 0.13483
H	-0.8472625234	 0.5044993491	 1.5516995482	 0.134433
H	 0.4742015425	-0.6284532097	 1.3677152645	 0.15067
H	-2.1063761621	-0.1024757339	-0.842338999	 0.120092
H	-0.995641301	-0.5890527315	-2.1353333586	 0.101155
H	 0.33431691	-2.5873409297	-1.8350965936	 0.098656
H	 0.8580222611	-2.5933312866	-0.1487064905	 0.105437
H	 0.0049877844	-5.0383583715	-0.7018524442	 0.103056
H	-2.5943616473	-4.9146633995	-0.3912697568	 0.10263
H	-3.0566801841	-2.4014508581	 0.3187302725	 0.106527
H	-2.9508056893	-2.4408035492	-1.4458649864	 0.093299
31.9122	68.2681	88.5401	95.643	170.2429	308.2045	333.1966	400.7689	408.1125	475.2586	536.3338	681.172	705.7495	782.4835	796.1222	857.5179	876.4332	948.5877	963.0963	996.4806	1005.6724	1032.1847	1043.1396	1072.3802	1130.1279	1159.3512	1188.7804	1207.8776	1213.9846	1228.6053	1280.1087	1327.1804	1349.1656	1382.1501	1390.3571	1397.2177	1453.3517	1462.318	1472.4982	1511.0831	1524.3167	1694.495	1816.4635	2903.7672	2910.4791	2950.4399	2993.586	2999.1568	3032.546	3045.31	3109.1943	3155.5791	3203.8929	3228.3207
CC(=O)CN1CC=CC1	CC(=O)CN1CC=CC1	
InChI=1S/C7H11NO/c1-7(9)6-8-4-2-3-5-8/h2-3H,4-6H2,1H3	InChI=1S/C7H11NO/c1-7(9)6-8-4-2-3-5-8/h2-3H,4-6H2,1H3
