16
gdb 5611	3.40788	2.03593	1.29534	2.4227	67.33	-0.1974	0.048	0.2454	927.8295	0.13145	-379.953566	-379.945471	-379.944526	-379.986762	28.072	
C	 0.0061295437	 1.3459434128	-0.0300903662	-0.233986
O	 0.0365864217	-0.080900486	 0.0134816602	-0.274589
C	 0.6555706359	-0.594911655	 1.0864530437	 0.4888
N	 1.2134680702	 0.0557154435	 2.0745164675	-0.381233
C	 1.6984171746	-0.9394978953	 2.9073552638	-0.10372
C	 1.4226223655	-2.1742168757	 2.4007925417	-0.132105
N	 0.7406361827	-1.9494751007	 1.208856374	-0.087093
C	 0.2192176108	-2.9427604679	 0.292860078	-0.350326
H	 1.0207341672	 1.7545817745	-0.0438089417	 0.140193
H	-0.5222347418	 1.6039307745	-0.9487152999	 0.127144
H	-0.5197011396	 1.7484908404	 0.8405242308	 0.140509
H	 2.2180909752	-0.6957659385	 3.8210124623	 0.105196
H	 1.6308282919	-3.173122415	 2.7462217034	 0.120876
H	-0.5573143406	-3.548891573	 0.7710910986	 0.138816
H	-0.213780035	-2.4289897398	-0.5652743252	 0.162606
H	 1.0178397277	-3.6049029487	-0.0561495112	 0.138911
54.05	92.2329	156.8337	179.3796	215.0203	318.3611	324.0443	539.8681	626.5356	640.0068	681.1273	736.8019	778.1511	830.4207	927.7777	1048.8872	1073.8876	1106.5088	1154.06	1172.3024	1184.5199	1219.6292	1252.3107	1305.1193	1372.9978	1446.3586	1457.6412	1476.7853	1492.3731	1500.2553	1510.2656	1539.2983	1562.2989	1600.5789	3037.3042	3042.1054	3093.6316	3113.2133	3149.5067	3158.2979	3250.0618	3279.0206
COC1=NC=CN1C	COc1nccn1C	
InChI=1S/C5H8N2O/c1-7-4-3-6-5(7)8-2/h3-4H,1-2H3	InChI=1S/C5H8N2O/c1-7-4-3-6-5(7)8-2/h3-4H,1-2H3
