13
gdb 27981	3.86345	1.2467	0.94355	7.1308	64.33	-0.2142	-0.0292	0.1851	1135.7204	0.089036	-489.944946	-489.936998	-489.936054	-489.977587	28.719	
N	 0.0977692757	 1.3737565479	 0.1643752789	-0.588531
C	-0.0698024501	 0.0131978861	 0.0477716413	 0.372818
C	-1.131411449	-0.8031672915	 0.0080701629	-0.230201
N	-0.6144839671	-2.1279702102	 0.0013144842	-0.174201
C	-1.3843988147	-3.2892763662	-0.0305024087	 0.169517
O	-0.9600412243	-4.4107794507	-0.0459924262	-0.263794
C	 0.7868406029	-2.068171458	 0.0178106919	 0.515394
O	 1.6049512249	-2.9314544916	 0.0042970674	-0.342999
O	 1.0965493304	-0.7123883446	 0.0522328502	-0.235759
H	 0.9269811674	 1.714910272	-0.3047017557	 0.271307
H	-0.7211413915	 1.9120581193	-0.0800824524	 0.265175
H	-2.1871414383	-0.6024843685	-0.0079205479	 0.14861
H	-2.4616460762	-3.0335167839	-0.0400451458	 0.092663
92.1187	184.4634	197.6116	211.5994	224.0023	335.9556	346.9947	466.8374	552.3794	614.2732	618.3577	649.0485	697.7274	766.4343	792.8086	845.7542	987.7108	1022.4565	1068.7098	1112.2297	1203.403	1244.5547	1383.6359	1413.2581	1446.3889	1632.5569	1759.3236	1819.0903	1934.9117	2947.643	3299.1254	3553.5048	3657.5867
NC1=CN(C=O)C(=O)O1	Nc1cn(C=O)c(=O)o1	
InChI=1S/C4H4N2O3/c5-3-1-6(2-7)4(8)9-3/h1-2H,5H2	InChI=1S/C4H4N2O3/c5-3-1-6(2-7)4(8)9-3/h1-2H,5H2
