19
gdb 72946	2.66802	1.72992	1.44638	2.3647	73.64	-0.2434	0.0555	0.2989	977.7277	0.159946	-422.964556	-422.957032	-422.956088	-422.996457	30.349	
O	-0.3824620441	 1.2863888034	-0.2479965053	-0.473866
C	 0.0118007336	-0.0231971095	 0.0148643555	 0.36098
C	-1.1769033056	-0.9690513498	 0.2359871641	-0.122773
O	-0.5803906834	-1.5154149741	 1.4394451183	-0.286636
C	 0.5331507886	-0.6018251401	 1.3733095601	 0.027148
C	 1.8027670468	-1.1553030338	 0.6553703648	-0.040465
C	 1.7063144014	-2.5896570618	 0.0637648463	-0.231678
C	 1.2921961212	-1.9943290368	-1.3198778627	-0.241054
C	 1.2917708545	-0.5683316404	-0.7050201826	-0.109821
H	 0.4032883531	 1.821282291	-0.4014773155	 0.281916
H	-2.095489348	-0.4139211638	 0.4598543788	 0.113204
H	-1.3859544725	-1.7377653297	-0.5149930882	 0.105577
H	 0.6692472787	-0.0357620496	 2.299305567	 0.07468
H	 2.7543769691	-0.8568816915	 1.0979772717	 0.063095
H	 2.6544501687	-3.1307833555	 0.0499218915	 0.097834
H	 0.9502839026	-3.2094544694	 0.5479284603	 0.123123
H	 2.0693080201	-2.1108416757	-2.0794171544	 0.101276
H	 0.3514440732	-2.3460777112	-1.7506763403	 0.102233
H	 1.8339192522	 0.2080723384	-1.2531736092	 0.055228
70.7899	246.1076	260.4912	274.3145	309.9755	361.5281	437.306	516.2183	626.9031	642.9443	710.9589	791.7054	800.5856	842.1441	869.3988	899.9073	947.7566	954.2058	974.5008	995.4206	1009.4821	1054.4974	1071.9857	1099.5591	1112.3398	1133.2586	1149.9584	1181.2354	1208.4712	1230.4961	1234.9585	1266.6778	1270.1829	1286.9369	1302.957	1321.2092	1344.9421	1410.4135	1471.2874	1488.6456	1515.4335	3026.955	3053.0157	3062.8148	3066.1732	3074.813	3078.9794	3096.5882	3103.7234	3135.2742	3811.5375
OC12COC1C1CCC21	O[C@]12CO[C@H]1[C@H]1CC[C@@H]21	
InChI=1S/C7H10O2/c8-7-3-9-6(7)4-1-2-5(4)7/h4-6,8H,1-3H2	InChI=1S/C7H10O2/c8-7-3-9-6(7)4-1-2-5(4)7/h4-6,8H,1-3H2/t4-,5+,6-,7-/m0/s1
