20
gdb 72941	2.79711	1.71185	1.48614	0.2488	77.66	-0.2082	0.0595	0.2677	991.3604	0.171882	-403.078811	-403.07113	-403.070185	-403.110826	30.687	
C	-0.2123572497	 1.4516302167	-0.069205925	-0.485471
C	 0.0251280935	-0.028871741	 0.0544536522	 0.427768
O	-1.2007149844	-0.8017504913	-0.0091461077	-0.325472
C	-0.8935254842	-1.4785546732	 1.2343062682	-0.102689
C	 0.4935750307	-0.8242417194	 1.3122497942	-0.097504
N	 1.6446239108	-1.4079632463	 0.5480334729	-0.142268
C	 1.455871138	-2.7261121461	-0.1430041682	-0.169796
C	 0.9837270645	-2.0250150671	-1.4500581031	-0.260101
C	 1.2090329935	-0.6885987756	-0.7072520111	-0.014428
H	 0.7234019891	 2.0067379668	 0.0496507938	 0.124319
H	-0.6233777248	 1.6830724439	-1.0586991286	 0.130666
H	-0.9262926529	 1.7994334794	 0.6831447434	 0.123959
H	-1.5651563355	-1.1499583318	 2.0385951364	 0.102706
H	-0.958029662	-2.5678526665	 1.1475082992	 0.106603
H	 0.7885143663	-0.3892989838	 2.2689610989	 0.082803
H	 2.4106452465	-3.2538649447	-0.2290586536	 0.105965
H	 0.7414341538	-3.4051686835	 0.3303986037	 0.103186
H	 1.6251444962	-2.1816292311	-2.3192772861	 0.101089
H	-0.0557461299	-2.2083787213	-1.7251302726	 0.123494
H	 1.9292314406	 0.0128563759	-1.1433245371	 0.065168
77.374	205.8498	227.6344	246.6722	327.7221	329.0326	458.4279	492.1345	607.6719	656.4778	727.2042	749.5627	823.2006	837.1586	877.953	906.6077	916.1497	961.8796	987.9382	997.9041	1002.4898	1009.4672	1075.8133	1119.9904	1136.941	1160.6487	1170.6754	1183.5352	1203.9967	1215.7308	1223.3315	1262.8751	1263.5821	1303.0577	1315.9611	1343.579	1362.5779	1408.496	1473.634	1480.3056	1486.9757	1497.8926	1529.3516	3011.6707	3030.6773	3035.988	3046.7794	3069.3607	3078.2945	3087.2688	3089.3909	3100.462	3114.3928	3137.7877
CC12OCC1N1CCC21	C[C@]12OC[C@H]1N1CC[C@@H]21	
InChI=1S/C7H11NO/c1-7-5-2-3-8(5)6(7)4-9-7/h5-6H,2-4H2,1H3	InChI=1S/C7H11NO/c1-7-5-2-3-8(5)6(7)4-9-7/h5-6H,2-4H2,1H3/t5-,6+,7+/m0/s1
