20
gdb 95518	2.53026	1.62254	1.30671	1.9449	79.94	-0.2315	0.0254	0.2569	1062.4661	0.172268	-403.155527	-403.147305	-403.146361	-403.188016	32.207	
C	-0.0391748269	 1.581594701	-0.0033397787	-0.392031
C	 0.0137339143	 0.0465253612	 0.0116219056	-0.097726
C	 0.758476382	-0.5036108543	-1.2074937266	-0.082631
O	 2.1553673882	-0.1706656575	-1.1556003929	-0.227971
C	 2.7230895169	-0.2631506276	 0.0718969333	 0.104721
N	 2.1665559296	-0.436119691	 1.1960761527	-0.312693
C	 0.7300865563	-0.5054506384	 1.2399759354	 0.390306
C	 0.1189895532	-0.3380449228	 2.6087390573	-0.316105
C	 0.1681837327	-1.704683013	 1.9756902456	-0.3164
H	 0.9647622569	 2.015268843	 0.0067856206	 0.134586
H	-0.552807005	 1.9447262314	-0.899781736	 0.109328
H	-0.5744890417	 1.9606563574	 0.8713925294	 0.119795
H	-1.0106386527	-0.3435936876	-0.0196592961	 0.074837
H	 0.6650394654	-1.5958788197	-1.2535929855	 0.11245
H	 0.390407764	-0.0799476481	-2.1452114308	 0.112876
H	 3.8029156402	-0.1555908566	-0.0060635288	 0.123368
H	 0.8054528572	-0.1331703218	 3.4215084098	 0.12405
H	-0.8420282752	 0.1603523897	 2.6801368073	 0.108674
H	-0.7562142535	-2.1364537724	 1.6053558868	 0.107792
H	 0.8837043881	-2.4182678229	 2.3661334114	 0.122774
98.266	183.0873	187.0457	219.3589	286.1887	309.6943	369.8164	435.0996	456.8058	604.6649	617.501	692.6485	777.616	830.2783	873.8809	895.847	913.4157	927.6237	939.0587	970.2887	972.9723	998.416	1048.1667	1071.7651	1077.5949	1090.049	1146.9041	1172.4988	1193.241	1256.5345	1281.3525	1303.0792	1338.5101	1376.0345	1392.1547	1411.8467	1420.9001	1454.7514	1490.47	1493.0697	1500.1213	1508.2762	1719.2931	3024.6383	3037.0551	3040.6636	3098.8772	3107.2018	3120.5153	3129.8342	3135.5932	3163.045	3219.6552	3233.6338
CC1COC=NC11CC1	C[C@H]1COC=NC21CC2	
InChI=1S/C7H11NO/c1-6-4-9-5-8-7(6)2-3-7/h5-6H,2-4H2,1H3	InChI=1S/C7H11NO/c1-6-4-9-5-8-7(6)2-3-7/h5-6H,2-4H2,1H3/t6-/m0/s1
