18
gdb 82058	2.77611	1.53251	1.29354	3.4736	71.	-0.2439	0.055	0.2989	1027.6393	0.147561	-439.004139	-438.996111	-438.995167	-439.036859	30.432	
O	 0.0741573212	 1.4629051518	 0.0697047441	-0.427551
C	 0.0610385832	 0.0545560885	 0.086019366	 0.018017
C	 0.2122276978	-0.6732240043	 1.4215889717	-0.070937
C	-0.9123528031	-0.3501321464	 2.317418239	-0.245376
N	-1.1454155002	-1.3530982242	 1.2598280612	-0.162427
C	-1.3538017397	-0.5603318623	 0.0034919836	 0.278335
C	-2.6258535968	 0.2767592408	-0.1985979653	-0.124385
O	-2.9573708562	-0.4445796089	-1.4047674521	-0.277498
C	-1.8294030509	-1.3268555349	-1.2370230896	-0.141132
H	 0.9831172247	 1.766854378	 0.1617560298	 0.287684
H	 0.7226482187	-0.3636985771	-0.6847419826	 0.078624
H	 1.0857125148	-1.2284595231	 1.7477306385	 0.094323
H	-0.8990980537	-0.783063043	 3.3124108776	 0.125009
H	-1.3927398125	 0.6224326102	 2.2459153611	 0.131031
H	-3.3791803933	 0.1391011289	 0.5882512057	 0.103155
H	-2.4669386463	 1.3443117315	-0.3818728461	 0.122552
H	-1.1578111425	-1.3094555805	-2.1050487353	 0.099177
H	-2.1313050551	-2.359513215	-1.0233456773	 0.1114
82.8752	125.8232	206.0175	225.0049	262.2525	280.559	418.2143	462.4276	545.4726	596.1719	758.0799	769.0164	801.9229	852.6848	893.1551	952.3331	965.0673	985.5806	1003.5985	1035.8373	1055.941	1074.7323	1110.2093	1138.7649	1141.8887	1157.7814	1163.5412	1198.8143	1216.9154	1234.4279	1262.6415	1307.3985	1316.8715	1367.7453	1383.9279	1420.8263	1496.9101	1499.8588	1523.2706	3005.6952	3010.3403	3018.4929	3060.4842	3079.0691	3116.3577	3164.7576	3208.1267	3813.7175
OC1C2CN2C11COC1	O[C@H]1[C@H]2CN2C21COC2	
InChI=1S/C6H9NO2/c8-5-4-1-7(4)6(5)2-9-3-6/h4-5,8H,1-3H2	InChI=1S/C6H9NO2/c8-5-4-1-7(4)6(5)2-9-3-6/h4-5,8H,1-3H2/t4-,5+,7?/m1/s1
