21
gdb 68236	2.72001	1.82586	1.61055	1.5056	80.65	-0.2354	0.0799	0.3153	960.5972	0.18563	-387.038712	-387.031808	-387.030864	-387.069407	30.118	
C	-0.0583401437	 1.5392505715	 0.0077018381	-0.505263
C	 0.0421830984	 0.0274131903	-0.0104952449	 0.321091
C	 0.9827828838	-0.6985653269	-1.0255578536	-0.257831
C	 0.9070218438	-1.8723089757	-0.0065800862	-0.062352
C	 0.8605795965	-0.7496545333	 1.0760218731	-0.223801
C	-0.5464763533	-2.4935280884	-0.0510314913	 0.079834
C	-1.4139905231	-1.8121845123	-1.1370937842	-0.230065
C	-1.3729176421	-0.7024850396	-0.0587957911	 0.036439
O	-1.3602922253	-1.7764395665	 0.9328719697	-0.283932
H	 0.9345283004	 1.9998777101	 0.0415479747	 0.112109
H	-0.5697679678	 1.9171260929	-0.88619695	 0.113389
H	-0.6210443253	 1.8891683667	 0.8812261821	 0.11892
H	 0.6738959887	-0.8411433217	-2.0608666353	 0.08863
H	 1.9765380739	-0.24101595	-1.0242086412	 0.088728
H	 1.694446543	-2.6275169873	 0.0133703046	 0.058626
H	 1.8447465424	-0.2961635472	 1.2194499315	 0.083
H	 0.3909262104	-0.9630139839	 2.0324154178	 0.112113
H	-0.5720070015	-3.5749158467	 0.0953604287	 0.075648
H	-1.0460348216	-1.6483459966	-2.1479441933	 0.097346
H	-2.4046643064	-2.2678302727	-1.1675284355	 0.10605
H	-2.2132811612	-0.0175344426	 0.0774527863	 0.071321
209.0873	218.095	286.9919	367.0464	480.5532	488.5691	510.0512	562.9275	588.0221	637.4182	749.2704	785.7395	842.8208	852.9364	864.7146	874.8505	889.2579	919.1651	939.4522	970.9252	983.5391	1026.4253	1043.3496	1054.6846	1068.6924	1082.3696	1117.7034	1123.8537	1192.4484	1203.2547	1209.0729	1237.9665	1241.956	1247.4503	1262.3556	1302.7914	1314.2321	1327.1752	1358.6968	1410.7106	1476.7332	1491.8931	1492.2021	1501.2608	1548.5268	3018.1675	3057.0135	3072.006	3079.7457	3080.5216	3087.36	3092.3512	3094.2417	3104.8216	3119.3573	3154.0769	3165.3325
CC12CC(C1)C1CC2O1	C[C@@]12C[C@@H](C1)[C@@H]1C[C@H]2O1	
InChI=1S/C8H12O/c1-8-3-5(4-8)6-2-7(8)9-6/h5-7H,2-4H2,1H3	InChI=1S/C8H12O/c1-8-3-5(4-8)6-2-7(8)9-6/h5-7H,2-4H2,1H3/t5-,6-,7+,8+/m0/s1
