19
gdb 56603	3.10229	0.93178	0.92904	2.57	77.52	-0.2586	0.0417	0.3003	1378.3991	0.156725	-422.967459	-422.957628	-422.956684	-423.002249	36.623	
O	-0.1250604898	 1.4282492877	-0.1546211829	-0.423725
C	 0.0222741274	 0.0240953348	-0.022724905	-0.079659
C	 0.600164941	-0.5898436738	-1.2255447049	 0.331331
C	 1.0711301749	-1.0942143778	-2.2094029849	-0.44313
C	 0.8635318516	-0.2987166975	 1.2344476096	 0.100925
O	 2.076813499	 0.4334636017	 1.0624599636	-0.454318
C	 0.1484937571	 0.1034701006	 2.5015611432	-0.00916
C	-0.6843341818	-0.9010055374	 3.2531318878	-0.269671
C	 0.6303965015	-0.4387294868	 3.8288311679	-0.298897
H	 0.7729988049	 1.7798539288	-0.0813226419	 0.290832
H	-0.9861999828	-0.3759880895	 0.1316164739	 0.117042
H	 1.486006183	-1.5348777549	-3.0819929981	 0.194275
H	 1.0703887571	-1.3799382297	 1.2542612083	 0.076153
H	 2.4682122111	 0.5520658055	 1.933656309	 0.289991
H	-0.211924541	 1.1272394219	 2.4880454921	 0.104868
H	-1.6017527093	-0.5577014251	 3.7170446749	 0.120591
H	-0.7341041339	-1.913408934	 2.8656125299	 0.117883
H	 1.4537755314	-1.1469505468	 3.8241380823	 0.115406
H	 0.6160491786	 0.2200169322	 4.6897586453	 0.119262
70.4761	86.4175	120.5995	182.7436	231.6648	254.2592	280.9326	319.1113	344.3032	440.8456	472.869	495.2994	566.1727	624.1393	665.0346	739.6782	783.1084	834.4765	858.953	872.4206	943.0437	968.2802	1000.4771	1052.9436	1061.299	1082.6244	1092.1888	1148.6402	1166.4394	1200.0229	1218.656	1222.8981	1295.0167	1312.4358	1338.9024	1378.7814	1433.7343	1438.8657	1469.182	1504.0372	2234.2371	2987.3494	3053.265	3127.1884	3134.923	3164.7486	3208.7331	3224.4159	3503.9154	3759.6013	3823.8248
OC(C#C)C(O)C1CC1	O[C@@H](C#C)[C@@H](O)C1CC1	
InChI=1S/C7H10O2/c1-2-6(8)7(9)5-3-4-5/h1,5-9H,3-4H2	InChI=1S/C7H10O2/c1-2-6(8)7(9)5-3-4-5/h1,5-9H,3-4H2/t6-,7-/m0/s1
