19
gdb 114561	2.68436	1.46188	1.14852	3.8241	70.65	-0.2435	0.0612	0.3048	1103.3688	0.159851	-460.131636	-460.123526	-460.122581	-460.164123	32.251	
O	 0.023697972	 1.3607501364	-0.1910840754	-0.424176
C	 0.0761382849	-0.0192295973	 0.1198660912	-0.087463
C	-1.3213872264	-0.6218075695	 0.0911524781	 0.098928
O	-1.9479497528	-0.3552989948	-1.1912567021	-0.309282
C	-2.3378957569	-1.6779819121	-1.6120985681	 0.106778
C	-1.0731618216	-2.5291638486	-1.3555252876	-0.307661
C	-1.4502773494	-2.1551972087	 0.1209426442	 0.343476
O	-0.8979616699	-2.7245731773	 1.2581928466	-0.481932
C	-2.9452255751	-2.2969169673	-0.3305068502	-0.300331
H	-0.4838852132	 1.4261262172	-1.0091751642	 0.291278
H	 0.7448223478	-0.5588651747	-0.5674030187	 0.082855
H	 0.4920342824	-0.109535864	 1.1282305473	 0.118564
H	-1.9208254514	-0.1580968404	 0.8847494627	 0.086367
H	-2.8545090536	-1.6308754984	-2.5674541013	 0.088777
H	-1.2256559275	-3.5910453736	-1.5626982333	 0.09607
H	-0.1297683448	-2.180382865	-1.7766124045	 0.108036
H	-1.0208231053	-3.6782269531	 1.2188330632	 0.286122
H	-3.705019788	-1.7188533258	 0.1997187368	 0.108017
H	-3.2545026112	-3.3366447331	-0.4603956046	 0.095578
90.0892	165.4571	207.0975	276.8953	294.6819	380.92	429.3534	459.6384	496.0033	513.5533	563.157	605.8515	680.0697	818.3287	844.2333	876.5569	924.2818	932.6842	952.6174	984.1063	1011.7126	1027.3943	1053.9626	1094.356	1112.8639	1125.5762	1140.5447	1157.9787	1221.685	1225.1115	1228.9798	1266.5977	1294.071	1327.4206	1359.6982	1389.8959	1415.4195	1441.7945	1470.8294	1501.6487	1515.5055	2990.8211	3029.7109	3064.5756	3075.5954	3085.019	3133.5213	3142.2146	3156.4297	3787.9654	3821.8159
OCC1OC2CC1(O)C2	OC[C@H]1O[C@H]2C[C@]1(O)C2	
InChI=1S/C6H10O3/c7-3-5-6(8)1-4(2-6)9-5/h4-5,7-8H,1-3H2	InChI=1S/C6H10O3/c7-3-5-6(8)1-4(2-6)9-5/h4-5,7-8H,1-3H2/t4-,5-,6-/m1/s1
