20
gdb 40652	3.22188	1.17594	1.14729	2.7393	78.8	-0.2256	0.077	0.3027	1181.3196	0.172727	-403.101138	-403.093125	-403.092181	-403.134618	30.493	
C	-0.6678573274	 1.3232180722	-0.2698881162	-0.188528
O	 0.5606902871	 1.577228586	 0.4047139156	-0.238595
C	 0.1985338832	 0.2100668301	 0.1465174398	 0.074279
C	-0.1504897711	-0.6031632112	 1.3475212011	-0.023186
C	-0.2296959147	-2.0936065436	 1.3627383655	-0.051457
C	 0.3951946848	-2.9146285287	 0.2406016382	-0.229886
C	 1.8808596971	-2.4732084874	 0.1889893806	-0.237641
C	 2.1118644485	-1.683457451	 1.5071710004	-0.155653
N	 0.8096480147	-1.3983425014	 2.1392484708	-0.118352
H	-1.5700032944	 1.5411246481	 0.3009200179	 0.114873
H	-0.7022578656	 1.6165592792	-1.3184982192	 0.113808
H	 0.8036572749	-0.2551065712	-0.6268662605	 0.094478
H	-0.8439039658	-0.0701422273	 1.9969547801	 0.093415
H	-1.0289332638	-2.5606965808	 1.9335390345	 0.088754
H	 0.3109573368	-3.9754159304	 0.4961437503	 0.109901
H	-0.1126834246	-2.7801113544	-0.7196018989	 0.10751
H	 2.5515103686	-3.3334355197	 0.1173853262	 0.103754
H	 2.0819304835	-1.8534712944	-0.6883722183	 0.111908
H	 2.6810465664	-2.2853051669	 2.2224255107	 0.109517
H	 2.6670453017	-0.7536483371	 1.3501368414	 0.121103
38.5382	128.8749	147.1125	190.7147	297.6964	332.32	474.7939	535.1025	682.979	706.1188	741.9173	788.6763	834.5779	843.1864	867.4452	892.9944	897.6867	931.726	979.2704	995.0758	1041.7566	1060.0973	1096.246	1116.7498	1135.0064	1156.7089	1159.9434	1183.9202	1194.9798	1228.6701	1255.0987	1294.0587	1294.5062	1307.4685	1327.0717	1334.5448	1343.5692	1396.4225	1473.1567	1493.2878	1499.0074	1519.3744	1529.2648	3047.7613	3048.7857	3064.5256	3078.3041	3078.8939	3086.6207	3107.6247	3109.874	3131.5595	3149.5362	3167.0148
C1OC1C1C2CCCN12	C1O[C@H]1[C@H]1[C@H]2CCCN12	
InChI=1S/C7H11NO/c1-2-5-7(6-4-9-6)8(5)3-1/h5-7H,1-4H2	InChI=1S/C7H11NO/c1-2-5-7(6-4-9-6)8(5)3-1/h5-7H,1-4H2/t5-,6-,7-,8?/m1/s1
