20
gdb 66450	3.00809	1.68551	1.5623	1.3425	82.17	-0.213	0.0922	0.3053	982.7056	0.171131	-365.935357	-365.927661	-365.926717	-365.966855	31.448	
C	 0.0456895389	 1.4053273883	-0.0083733596	-0.513932
C	 0.0077485066	-0.087836561	-0.0105424963	 0.388244
C	-0.9880920947	-0.9707316782	 0.7525167515	-0.125031
C	 0.5138064562	-1.1073519952	 0.9691064843	-0.245455
C	 0.5037580217	-2.0778771249	-0.2369680182	 0.394875
C	 1.4686731044	-3.1725980026	-0.5617973692	-0.526552
C	-1.0705511748	-2.1476609909	-0.2444823974	-0.121801
C	-1.0125600802	-1.4909838286	-1.6341356042	-0.199694
N	 0.3191704126	-0.9022598286	-1.2321620898	-0.224457
H	 1.0313000964	 1.7742399777	-0.310103573	 0.127877
H	-0.6956049286	 1.8186799132	-0.702436116	 0.12086
H	-0.1767622896	 1.7960914288	 0.9901127544	 0.118271
H	-1.7420957966	-0.5805269304	 1.4231041461	 0.084124
H	 1.1338097837	-1.0173278156	 1.8518262696	 0.087295
H	 1.4520818876	-3.9484443922	 0.2116579443	 0.120519
H	 1.2226156199	-3.6418981394	-1.5204839976	 0.124565
H	 2.4879302933	-2.7780123195	-0.6314196687	 0.129893
H	-1.6597301046	-3.0300414953	 0.0079723958	 0.06267
H	-0.8666063376	-2.2026162922	-2.4522087341	 0.101473
H	-1.7799485445	-0.7606213735	-1.9098828619	 0.096255
185.5431	192.2207	216.1751	240.2492	262.6403	331.4447	454.1617	552.2009	586.1376	631.2786	744.3364	771.2161	802.7052	824.5556	840.8654	851.9195	876.6095	885.3221	924.8944	934.3758	966.5292	997.8317	1031.8975	1060.171	1095.1615	1109.0476	1131.8346	1146.3698	1165.9923	1182.9528	1195.098	1237.2359	1268.831	1285.3996	1342.4271	1399.3729	1412.967	1444.1792	1476.6489	1481.2923	1485.8573	1498.1612	1499.8399	3025.5826	3027.5287	3045.3119	3088.4286	3096.9846	3098.9462	3102.4992	3103.0464	3107.8861	3191.1098	3206.455
CC12C3C1C1(C)C3CN21	C[C@]12[C@@H]3[C@H]1[C@@]1(C)[C@@H]3CN21	
InChI=1S/C8H11N/c1-7-4-3-9(7)8(2)5(4)6(7)8/h4-6H,3H2,1-2H3	InChI=1S/C8H11N/c1-7-4-3-9(7)8(2)5(4)6(7)8/h4-6H,3H2,1-2H3/t4-,5+,6+,7-,8+/m1/s1
