18
gdb 83170	2.67789	1.4869	1.37178	4.9774	71.84	-0.2393	0.0502	0.2895	1030.0285	0.149578	-439.11887	-439.110746	-439.109802	-439.151714	30.613	
C	-0.2700901814	 1.5016629203	 0.2490511519	-0.431319
C	-0.0185744564	 0.0209695556	 0.0648498519	-0.038937
C	 0.5424768164	-0.6020710372	-1.2011680667	-0.091553
C	 1.1061172056	 0.1944156761	-2.3557682216	-0.091689
O	 1.9987398213	 1.2559866211	-1.9880723068	-0.250171
C	 2.8457641427	 1.1601012622	-0.9270744754	 0.450188
O	 3.7706585921	 1.9259885719	-0.8217072122	-0.387084
N	 2.5570270604	 0.1913444693	-0.0011021415	-0.357082
C	 1.3681604475	-0.6069942439	 0.0470290896	-0.004163
H	 0.4575302842	 2.122666137	-0.2741644242	 0.153893
H	-1.2615348051	 1.7677577905	-0.1328333768	 0.122755
H	-0.2442849571	 1.7683209284	 1.3110120584	 0.122134
H	-0.7617323687	-0.6073948103	 0.5513570922	 0.091814
H	 0.1080306294	-1.5447748874	-1.5207279137	 0.100273
H	 1.6454993656	-0.4895583843	-3.0244428993	 0.121177
H	 0.3200814025	 0.6803895686	-2.9418113088	 0.126144
H	 3.105697656	 0.2858932156	 0.8392232496	 0.259018
H	 1.519081605	-1.5384755535	 0.5826515435	 0.104601
89.8648	138.8673	149.573	177.7335	240.7812	406.7987	460.443	488.947	520.8525	562.9223	644.4223	745.754	757.3971	765.8688	785.4404	842.9853	914.6474	963.3705	1015.128	1031.6465	1058.6971	1092.8173	1130.3701	1145.1771	1159.7403	1166.9497	1242.8182	1284.8809	1305.8341	1371.0621	1387.1554	1426.4757	1428.9922	1457.1035	1480.5728	1499.4222	1506.1501	1519.006	1843.516	3018.585	3039.9826	3077.3276	3093.0178	3123.7615	3147.6015	3150.766	3161.1689	3634.7549
CC1C2COC(=O)NC12	C[C@H]1[C@H]2COC(=O)N[C@@H]12	
InChI=1S/C6H9NO2/c1-3-4-2-9-6(8)7-5(3)4/h3-5H,2H2,1H3,(H,7,8)	InChI=1S/C6H9NO2/c1-3-4-2-9-6(8)7-5(3)4/h3-5H,2H2,1H3,(H,7,8)/t3-,4+,5-/m0/s1
