17
gdb 37556	4.1419	1.5564	1.30624	1.4541	78.43	-0.2263	0.0348	0.2611	970.1644	0.136934	-384.572929	-384.566393	-384.565449	-384.603842	26.873	
C	-0.0526435242	 1.4967123966	 0.2420730293	-0.230548
C	 1.418318866	 1.9573647221	-0.1121408046	-0.407214
C	 2.0611548884	 0.676353004	-0.6249439664	 0.275032
C	 2.6954922219	 0.049558586	-1.9349047246	 0.029394
O	 4.0512007301	-0.0191001185	-1.4225540523	-0.328429
C	 3.2187256995	-0.3498550997	-0.2811742848	 0.029399
C	 2.1826489737	-1.2074196704	-1.1183579067	-0.280549
C	 1.0433761794	-0.3971745852	-0.5621960552	 0.407746
C	-0.1298705608	-0.0003881346	-0.0950935902	-0.339366
H	-0.2792336548	 1.6798746622	 1.3001931504	 0.106224
H	-0.7939567162	 2.0727582379	-0.3263768413	 0.106223
H	 1.4182778112	 2.748451448	-0.8665109301	 0.1173
H	 1.934780754	 2.3542501476	 0.7657208831	 0.117299
H	 2.5315743617	 0.2920192066	-2.9848286964	 0.105381
H	 3.6886374276	-0.5912363538	 0.6721958752	 0.105381
H	 2.2831992075	-2.252825533	-1.4026618091	 0.093593
H	-1.0337513549	-0.579113356	 0.0511473039	 0.093135
93.597	233.2226	292.919	324.1453	578.7004	635.7252	646.4081	675.9939	706.0593	765.7063	776.0894	821.9716	827.8455	845.7979	870.4472	896.2739	899.2517	959.9377	965.0054	988.0406	1053.8014	1064.6783	1091.3913	1107.3546	1156.9169	1157.796	1173.268	1197.1077	1228.4603	1240.8579	1269.8293	1304.5659	1318.8988	1367.8755	1475.0195	1499.5447	1772.4602	3018.1177	3042.1976	3066.0661	3105.9894	3118.2431	3123.3516	3148.2462	3201.7049
C1CC23C4OC2C4C3=C1	C1C[C@@]23[C@H]4O[C@@H]2[C@H]4C3=C1	
InChI=1S/C8H8O/c1-2-4-5-6-8(4,3-1)7(5)9-6/h2,5-7H,1,3H2	InChI=1S/C8H8O/c1-2-4-5-6-8(4,3-1)7(5)9-6/h2,5-7H,1,3H2/t5-,6-,7+,8+
