18
gdb 85138	2.21612	1.64438	1.14712	2.8122	72.89	-0.2566	0.0139	0.2706	1106.4883	0.147376	-439.063413	-439.054979	-439.054035	-439.096846	31.048	
C	-0.2800340333	 1.5040594057	-0.0638846463	-0.411413
C	 0.1271168929	 0.0488777231	-0.0767178868	 0.084004
O	 1.4118365576	-0.1551905896	-0.7716844526	-0.280851
C	 1.9766012455	-0.717283162	 0.3517765355	 0.38246
N	 3.1247346739	-1.1764148318	 0.5598758754	-0.547757
C	 0.7353813986	-0.5829791239	 1.1964372849	 0.114154
C	 0.7381172751	 0.0731798504	 2.5910613609	-0.131277
O	 0.0700088068	-1.0587317685	 3.1796831934	-0.271884
C	 0.1089708692	-1.7818519665	 1.9351043319	-0.131004
H	 0.4886078322	 2.1254463308	 0.4050405481	 0.131457
H	-0.4340168597	 1.8612059362	-1.086208409	 0.13819
H	-1.2178463946	 1.6325725475	 0.4864360219	 0.131803
H	-0.636857675	-0.5780805007	-0.5489938006	 0.096716
H	 3.7163334435	-1.1060790375	-0.2696309618	 0.230068
H	 1.7403811214	 0.2262663889	 3.007747784	 0.126479
H	 0.1538001432	 0.9959154303	 2.6892574664	 0.106728
H	-0.8914066615	-2.0772075553	 1.5936056933	 0.105333
H	 0.7567845538	-2.6646671672	 1.9871007115	 0.126794
82.9611	94.1234	173.5844	212.597	231.1365	262.9928	308.5286	472.0708	484.9461	564.5718	673.5791	727.8552	814.2416	856.4511	866.0051	867.1078	958.3025	987.7524	1006.2732	1016.3153	1046.8132	1063.7341	1098.9482	1154.76	1163.8609	1164.747	1195.6873	1246.1139	1252.3588	1308.9808	1354.528	1377.0946	1385.0799	1412.1155	1482.7989	1493.9948	1501.5601	1527.3957	1822.2298	3010.4797	3023.3641	3040.6248	3051.6379	3066.0445	3069.7433	3114.2101	3120.675	3479.4688
CC1OC(=N)C11COC1	C[C@H]1O[C]([NH])C21COC2	
InChI=1S/C6H9NO2/c1-4-6(2-8-3-6)5(7)9-4/h4,7H,2-3H2,1H3	InChI=1S/C6H9NO2/c1-4-6(2-8-3-6)5(7)9-4/h4,7H,2-3H2,1H3/t4-/m1/s1
