23
gdb 42021	3.01489	1.40053	1.02829	1.2178	85.04	-0.2387	0.0891	0.3278	1222.0307	0.210117	-388.320778	-388.312928	-388.311984	-388.353108	31.895	
C	-0.040347009	 1.5219789102	-0.0466733813	-0.21093
C	 1.4426348808	 2.0163437898	-0.0312097903	-0.25206
C	 2.2217827797	 0.8258435449	 0.5365489075	 0.059674
C	 3.7232923142	 0.6867799175	 0.3031047239	-0.247922
C	 4.1558091151	-0.7034040639	 0.8113388073	-0.205479
C	 3.2711439109	-1.8178710544	 0.233299723	-0.070869
O	 1.8834230466	-1.6000473317	 0.4603611586	-0.2663
C	 1.4832623904	-0.3633319971	-0.0899159998	 0.171395
C	 0.0103399083	-0.0270626264	 0.1264029697	-0.258865
H	-0.6156873174	 1.9807920613	 0.7617847842	 0.102929
H	-0.5363638133	 1.8045033802	-0.9790340458	 0.100561
H	 1.7828511678	 2.235082539	-1.0507758705	 0.094907
H	 1.5738447559	 2.932702967	 0.5506595448	 0.094563
H	 2.0340309573	 0.7682306373	 1.6195891985	 0.070305
H	 3.9382054908	 0.7752035821	-0.7714833511	 0.090716
H	 4.2937465449	 1.4758978977	 0.8059813969	 0.091346
H	 5.2012074789	-0.9089112119	 0.5535256716	 0.092444
H	 4.0826871212	-0.7280389436	 1.9056072356	 0.102885
H	 3.457154394	-1.9096247635	-0.8514866686	 0.082355
H	 3.5076716054	-2.7812358788	 0.694234096	 0.102528
H	 1.702902432	-0.3662102732	-1.1758649618	 0.051114
H	-0.2674503931	-0.3214817454	 1.1438821642	 0.107377
H	-0.6551336915	-0.5559667971	-0.5600453228	 0.097326
84.8231	161.7408	197.352	327.5631	337.442	356.0936	432.0881	490.1869	519.203	599.3029	621.8209	768.127	806.5884	853.6655	878.8263	893.3431	902.451	941.007	956.0064	983.2045	1010.5717	1051.7563	1058.4621	1102.3185	1114.4151	1132.0859	1153.3815	1187.9671	1204.4844	1230.6883	1233.7043	1270.3127	1273.4271	1304.4478	1316.8663	1323.215	1331.6255	1338.1524	1369.8393	1372.4435	1392.6764	1408.6005	1423.1476	1478.7934	1487.993	1493.0314	1498.2295	1501.288	1516.3026	2906.3235	2951.3108	2991.6028	3010.4153	3027.8125	3033.4398	3051.6213	3059.6266	3062.4762	3073.5983	3081.2211	3084.5334	3095.0215	3110.7651
C1CC2CCCOC2C1	C1C[C@@H]2CCCO[C@H]2C1	
InChI=1S/C8H14O/c1-3-7-4-2-6-9-8(7)5-1/h7-8H,1-6H2	InChI=1S/C8H14O/c1-3-7-4-2-6-9-8(7)5-1/h7-8H,1-6H2/t7-,8+/m1/s1
