20
gdb 24167	4.61178	0.93288	0.85635	2.1231	85.45	-0.1987	0.0467	0.2455	1403.0066	0.172962	-366.03126	-366.022979	-366.022034	-366.06553	31.577	
C	-0.0460414589	 1.5228067244	-0.2221321241	-0.208089
C	-0.1096703944	 0.0095379212	-0.1806199403	 0.035967
C	-0.2213585595	-0.716037063	 1.1345532433	-0.250661
C	-1.4011055698	-0.6711409831	 0.1950176259	-0.271899
N	 1.2990015565	 2.0557956044	-0.077553576	 0.046329
C	 1.9465763551	 2.2887205998	 1.1114638902	-0.094479
C	 3.2304378456	 2.698028289	 0.8338456422	-0.167139
C	 3.371575003	 2.7090522066	-0.5811047478	-0.167535
C	 2.1677870463	 2.3070915727	-1.1122039058	-0.101781
H	-0.4482768052	 1.8925116694	-1.171652247	 0.118489
H	-0.6710101435	 1.9425957079	 0.5742409815	 0.111804
H	 0.488469447	-0.4746015294	-0.9474453192	 0.094217
H	 0.3129882919	-1.6517930174	 1.2517681568	 0.118477
H	-0.2748388636	-0.1219415579	 2.041117369	 0.112157
H	-2.2438568578	-0.0450996501	 0.4711751434	 0.112095
H	-1.6790881659	-1.5752622756	-0.3346474676	 0.116433
H	 1.4341284216	 2.1472177208	 2.0497958948	 0.108012
H	 3.9778273249	 2.9722063712	 1.5626351209	 0.089576
H	 4.2473922327	 2.9933702336	-1.1440754092	 0.089667
H	 1.8479592839	 2.1836077455	-2.135260391	 0.108359
29.8077	77.9587	98.0036	255.8978	300.8664	362.736	411.2923	623.3161	632.5466	678.7333	720.9786	739.4488	773.8613	793.1985	806.5112	845.0761	846.7289	885.3669	905.5581	952.1886	990.7848	1009.7916	1058.7076	1081.1218	1084.306	1091.567	1113.6926	1136.7075	1154.4048	1196.9288	1225.9961	1253.2231	1303.5366	1312.3589	1360.2046	1417.4216	1422.5214	1436.0582	1470.0888	1479.4569	1507.6773	1534.7377	1560.7788	3036.1529	3078.9105	3130.5074	3136.1574	3150.2325	3209.2161	3224.4036	3237.3015	3247.5357	3259.8475	3269.0586
C(C1CC1)N1C=CC=C1	C(C1CC1)n1cccc1	
InChI=1S/C8H11N/c1-2-6-9(5-1)7-8-3-4-8/h1-2,5-6,8H,3-4,7H2	InChI=1S/C8H11N/c1-2-6-9(5-1)7-8-3-4-8/h1-2,5-6,8H,3-4,7H2
