20
gdb 101802	4.667	0.5965	0.57903	3.4422	72.44	-0.2501	0.0296	0.2797	1910.0092	0.169085	-477.453284	-477.442499	-477.441555	-477.490561	38.12	
N	-0.0325018965	 1.3025730706	 0.1901081588	-0.522117
C	-0.0223161322	 0.0137527626	-0.2599884542	 0.409012
O	 0.9176216242	-0.4507573611	-0.876977796	-0.360628
C	-1.2838077146	-0.7873037034	 0.0557622568	-0.317396
C	-1.0068627343	-2.2893375543	 0.1552391439	-0.208072
C	-2.2733344316	-3.1371920528	 0.0643444864	 0.09111
O	-2.9709325756	-2.9269822423	-1.1729130142	-0.439593
C	-2.0061664759	-4.6345915634	 0.2309137663	-0.062761
O	-3.1938039061	-5.3808327368	 0.0797212816	-0.425045
H	 0.7265872356	 1.9060248934	-0.081435541	 0.260684
H	-0.8411480133	 1.7110878184	 0.6243999955	 0.258174
H	-1.7607342226	-0.4120305907	 0.9686484109	 0.101243
H	-1.9960160207	-0.6123816837	-0.7607926202	 0.14147
H	-0.3138895531	-2.5636520737	-0.6495414108	 0.123229
H	-0.4870861566	-2.5162194874	 1.0938993131	 0.107415
H	-2.9962443308	-2.8320701559	 0.831175242	 0.092875
H	-2.3391302607	-3.0741975725	-1.8880798236	 0.284794
H	-1.2361198084	-4.9441422802	-0.5003470856	 0.07491
H	-1.6084441968	-4.8434032209	 1.2302453434	 0.106809
H	-3.66267161	-4.964717936	-0.6555905633	 0.283887
35.408	50.1979	88.1259	137.4628	149.5398	184.4637	241.1242	267.7698	342.4298	380.9129	437.6279	486.5675	509.7492	522.454	558.5986	629.4006	673.5471	776.9576	843.014	882.3192	956.1626	1032.2761	1049.5182	1084.5927	1096.9956	1103.9841	1118.2838	1163.8539	1209.8224	1243.1638	1287.17	1300.1045	1335.1865	1365.6513	1391.2661	1409.0814	1422.7582	1445.5574	1468.878	1488.1469	1507.7867	1617.9176	1795.0515	2933.1094	3029.3768	3033.6566	3041.9944	3061.2285	3068.0846	3084.1846	3601.1397	3737.8226	3761.9348	3776.1336
NC(=O)CCC(O)CO	NC(=O)CC[C@@H](O)CO	
InChI=1S/C5H11NO3/c6-5(9)2-1-4(8)3-7/h4,7-8H,1-3H2,(H2,6,9)	InChI=1S/C5H11NO3/c6-5(9)2-1-4(8)3-7/h4,7-8H,1-3H2,(H2,6,9)/t4-/m1/s1
