18
gdb 79035	4.79312	1.3518	1.29897	1.0937	74.46	-0.2302	0.0787	0.3089	1000.408	0.150152	-401.863402	-401.856867	-401.855923	-401.89391	27.713	
O	-0.0126218156	 1.4506441576	-0.0740870399	-0.441186
C	 0.032038831	 0.0454063996	 0.0081721586	 0.110198
C	-0.0185385866	-0.6290776873	 1.3959803019	-0.106739
C	-1.5327375544	-0.1892352978	 1.5293198838	-0.027892
C	-2.2217880245	-1.319816679	 2.2728292135	-0.057487
C	-2.9848264476	-2.3187201519	 1.4781472711	-0.245961
N	-1.5439088676	-2.5184901867	 1.7305302646	-0.115022
C	-0.6750178233	-1.8748494132	 0.725168836	 0.008895
C	-1.3440633386	-0.6297634703	 0.0383157968	-0.10256
H	 0.8746300921	 1.7886216807	 0.082041186	 0.283683
H	 0.7562279152	-0.3741881666	-0.7037447198	 0.063536
H	 0.7367817322	-0.6374464681	 2.1836016533	 0.071952
H	-1.7777834393	 0.8444375417	 1.7580116406	 0.0848
H	-2.343744031	-1.2589362518	 3.3508240119	 0.09191
H	-3.6263050228	-3.0280984561	 1.9934050279	 0.114745
H	-3.3125753179	-2.0600371319	 0.4761092568	 0.116194
H	-0.0809988774	-2.577806542	 0.1409148752	 0.074164
H	-2.0887740339	-0.615958737	-0.7572793483	 0.076769
214.8633	239.4193	283.6619	341.7395	424.1396	502.5461	576.8272	684.6511	706.7682	775.3347	795.2166	812.8381	837.5619	875.7354	927.1281	936.7624	943.9692	977.9707	1002.4152	1021.3131	1053.3661	1077.5228	1107.2935	1109.831	1116.7512	1129.3535	1152.088	1160.5298	1182.0437	1198.0734	1216.6113	1239.3602	1266.3125	1277.791	1315.1514	1327.7852	1366.7784	1442.6037	1504.5157	3005.3678	3100.1246	3107.6151	3117.8222	3123.068	3143.5297	3162.6182	3203.866	3820.5907
OC1C2C3C4CN4C2C13	O[C@H]1[C@H]2[C@@H]3[C@H]4CN4[C@H]2[C@H]13	
InChI=1S/C7H9NO/c9-7-4-3-2-1-8(2)6(4)5(3)7/h2-7,9H,1H2	InChI=1S/C7H9NO/c9-7-4-3-2-1-8(2)6(4)5(3)7/h2-7,9H,1H2/t2-,3-,4-,5+,6+,7-,8?/m1/s1
