17
gdb 26514	3.77814	1.51822	1.24673	4.285	78.84	-0.2129	0.0182	0.2311	1014.5812	0.138017	-380.845458	-380.838294	-380.83735	-380.876912	28.192	
C	-0.0404144891	 1.5634290834	 0.0816436588	-0.486151
C	 0.0031773829	 0.0691004991	 0.079649187	 0.353123
C	-0.8115832496	-0.8638033844	 0.9395561995	-0.306262
C	 0.7125539357	-0.9454845684	 0.9828851745	-0.274414
C	 1.1629633771	-1.6294029117	-0.2900257473	 0.241414
C	 1.4620743358	-2.6879197137	-1.1079662205	-0.19848
N	 1.0350765898	-2.3872710745	-2.3917649462	-0.261398
C	 0.4224069369	-1.2192064994	-2.3374892131	-0.033282
N	 0.53839906	-0.6934116144	-1.0828830385	-0.04563
H	 0.9170600961	 1.9859619541	-0.2374835193	 0.138423
H	-0.8215545092	 1.9375049582	-0.5899834956	 0.133986
H	-0.2646119718	 1.9318761704	 1.0867220511	 0.1327
H	-1.2847096791	-0.3990037678	 1.801621101	 0.121297
H	-1.3780630075	-1.6722895003	 0.4883954679	 0.134275
H	 1.2887793385	-0.7547181872	 1.8771488343	 0.112588
H	 1.973495684	-3.6130134134	-0.894374793	 0.107996
H	-0.0213900304	-0.7028601701	-3.1746252405	 0.129815
113.6774	200.4387	203.0404	262.8552	365.9059	470.7069	488.8571	608.9962	657.8372	696.7571	712.25	797.8579	817.7907	835.1675	859.9697	919.6201	962.4444	981.3082	989.4999	1023.8358	1075.8129	1092.3293	1108.8968	1117.9679	1202.9349	1213.3663	1224.5852	1258.1599	1347.8591	1369.2674	1384.0263	1426.6206	1458.5464	1479.1787	1480.8353	1498.2664	1571.3995	3034.1869	3097.4999	3112.9155	3118.9001	3204.8063	3218.8747	3256.3032	3260.285
CC12CC1C1=CN=CN21	C[C@]12C[C@H]1c1cncn21	
InChI=1S/C7H8N2/c1-7-2-5(7)6-3-8-4-9(6)7/h3-5H,2H2,1H3	InChI=1S/C7H8N2/c1-7-2-5(7)6-3-8-4-9(6)7/h3-5H,2H2,1H3/t5-,7-/m0/s1
