17
gdb 61080	3.38332	1.17575	1.09831	1.6734	65.29	-0.2505	-0.0383	0.2123	1141.3851	0.134982	-496.099656	-496.091097	-496.090153	-496.133672	30.52	
O	 0.0106532554	 1.4351398284	 0.4115442565	-0.430104
C	-0.0021795647	 0.0651987885	 0.1374399647	 0.009588
C	 0.682341421	-0.2187818248	-1.1836751851	 0.143918
O	 1.153403661	 0.6703823541	-1.8502654165	-0.260187
C	 0.6779783599	-0.7467620262	 1.2669927756	 0.205609
O	 2.0417635474	-0.3838979489	 1.3353386655	-0.2736
C	 2.3130987374	 0.105375764	 2.6470887072	-0.085032
C	 0.9255621195	 0.459120916	 3.1822675863	-0.103628
O	 0.0927222895	-0.4920182736	 2.517670727	-0.260385
H	 0.5310310157	 1.8347963543	-0.3041499728	 0.297
H	-1.0384327697	-0.3089303539	 0.0655196543	 0.103808
H	 0.7290117806	-1.278356966	-1.5055804269	 0.101818
H	 0.571469635	-1.8238032504	 1.0618871296	 0.084016
H	 2.7943207711	-0.6759133949	 3.250652421	 0.104885
H	 2.983617164	 0.9651253189	 2.569897424	 0.119784
H	 0.8192679526	 0.3073435282	 4.2586715536	 0.114551
H	 0.6352612042	 1.4793787964	 2.913377226	 0.127957
68.8806	78.4278	117.7995	202.7595	243.9988	271.5659	313.6346	386.3815	461.5022	656.3248	666.2731	740.0511	783.7565	852.2866	894.3791	901.4492	950.7201	955.9968	1011.6136	1038.3978	1074.7547	1145.1322	1167.9809	1195.9665	1225.5951	1233.5541	1249.7584	1317.678	1335.9129	1371.1826	1387.7182	1395.4974	1414.317	1439.9152	1507.8673	1523.1271	1813.7085	2934.7268	2965.367	2984.4128	3014.7413	3056.7596	3096.6253	3119.4948	3682.0888
OC(C=O)C1OCCO1	O[C@@H](C=O)C1OCCO1	
InChI=1S/C5H8O4/c6-3-4(7)5-8-1-2-9-5/h3-5,7H,1-2H2	InChI=1S/C5H8O4/c6-3-4(7)5-8-1-2-9-5/h3-5,7H,1-2H2/t4-/m0/s1
