20
gdb 64100	3.24229	1.21974	1.09608	3.9147	76.73	-0.253	0.0238	0.2768	1185.4662	0.171033	-440.309725	-440.300759	-440.299815	-440.343024	34.589	
C	-0.0975954679	 1.5539975708	 0.0425290911	-0.434856
C	-0.0208531885	 0.0252333093	-0.0054039038	 0.324366
O	-1.3319859299	-0.5385035565	-0.0593815021	-0.459924
C	 0.6953733898	-0.4780264309	-1.2633093388	-0.227554
C	 0.8012667788	-2.0064503339	-1.2288104952	-0.275637
C	 1.3672217702	-2.5345944604	 0.0661475259	 0.383505
N	 2.095345773	-3.5692310013	 0.1034400688	-0.505457
O	 0.9654219915	-1.9101855715	 1.219799612	-0.255066
C	 0.7437919308	-0.4994119532	 1.2163528527	-0.095596
H	 0.8956539972	 2.0125179357	 0.0107388059	 0.120066
H	-0.6762092822	 1.917780176	-0.8107739413	 0.131906
H	-0.5957274801	 1.8931789779	 0.9587435265	 0.107716
H	-1.7886925016	-0.3261598941	 0.7615060869	 0.280132
H	 0.1433937798	-0.1563092388	-2.1515934636	 0.109612
H	 1.6908499634	-0.02175401	-1.3111740346	 0.102858
H	-0.2067420597	-2.4231226487	-1.3310364411	 0.145955
H	 1.4079099377	-2.3962640559	-2.0471073944	 0.126085
H	 2.3379594134	-3.7849278864	 1.0733328802	 0.215073
H	 1.710758772	 0.018448641	 1.292456012	 0.103855
H	 0.1841583224	-0.2922842787	 2.1354807529	 0.102962
75.407	152.8205	211.598	228.8988	257.1728	271.6796	329.8838	385.2983	403.862	460.6351	485.0825	517.3094	574.9212	698.5142	759.5784	784.9468	872.5381	910.0588	928.3126	932.7082	990.5247	1012.6962	1028.0827	1056.3168	1124.7432	1142.6512	1149.9234	1166.7268	1235.0025	1262.2251	1305.2331	1311.6355	1355.5928	1370.344	1399.0908	1406.1473	1431.4511	1466.5642	1483.201	1491.2846	1496.1292	1502.6355	1749.5009	3002.3899	3028.6512	3041.8248	3058.0541	3063.9818	3089.8859	3096.7217	3121.1186	3128.7449	3455.0629	3809.4585
CC1(O)CCC(=N)OC1	C[C@@]1(O)CC[C]([NH])OC1	
InChI=1S/C6H11NO2/c1-6(8)3-2-5(7)9-4-6/h7-8H,2-4H2,1H3	InChI=1S/C6H11NO2/c1-6(8)3-2-5(7)9-4-6/h7-8H,2-4H2,1H3/t6-/m1/s1
