13
gdb 127356	3.62744	1.34814	0.98903	3.33	75.41	-0.2193	-0.0779	0.1414	1098.7892	0.089699	-448.948899	-448.941001	-448.940057	-448.981912	27.466	
C	 0.0099564976	 1.5604235197	-0.1309110065	-0.351428
N	-0.0364649975	 0.1228061742	 0.0407968987	-0.108317
C	-0.3338178802	-0.8379329242	-0.9023385266	 0.041764
N	-0.3021770978	-2.0611406763	-0.4721453345	-0.327852
C	 0.0444196594	-1.9185774421	 0.8708442752	 0.25585
C	 0.2323641124	-0.5157909635	 1.2679264065	 0.342275
O	 0.5292109976	 0.0196890543	 2.3145405733	-0.397867
N	 0.3209191069	-3.767948482	 2.4317911776	-0.202009
N	 0.1864990588	-2.9281725072	 1.6854921441	 0.139736
H	 0.2800832096	 1.9866440042	 0.8370499455	 0.176775
H	 0.7627500394	 1.846131182	-0.8719009232	 0.142808
H	-0.9639976655	 1.9538505628	-0.4375260861	 0.142811
H	-0.5730651507	-0.5634088117	-1.921344644	 0.145454
88.5649	103.5403	142.5121	207.4905	276.5792	283.1194	437.3369	522.0036	524.5544	617.96	618.4277	735.5681	763.7933	787.513	868.3599	996.2981	1058.0865	1154.817	1193.2321	1281.3137	1311.0967	1390.7283	1410.7536	1455.4311	1496.3679	1507.3539	1602.1791	1804.4297	2217.3434	3039.7733	3103.126	3145.6904	3228.0038
CN1C=NC2=C1ON=N2	CN1C=N[C](C1=O)[N][N]	
InChI=1S/C4H4N4O/c1-8-2-5-3-4(8)9-7-6-3/h2H,1H3	InChI=1S/C4H4N4O/c1-8-2-6-3(7-5)4(8)9/h2H,1H3
