20
gdb 107949	2.9117	1.53101	1.31153	1.9759	82.33	-0.2109	-0.0046	0.2063	1067.0225	0.172099	-365.937176	-365.929493	-365.928549	-365.96931	30.897	
C	-0.0277381051	 1.5689779178	-0.0558882075	-0.380381
C	-0.0458313808	 0.0386940643	 0.0464749459	-0.323163
C	 0.7054310303	-0.4866432427	 1.2455858872	 0.328373
C	 0.4756760164	-0.2511632505	 2.7475729161	-0.227161
N	 1.6868756647	-1.1826728672	 2.7878461842	-0.149837
C	 1.0169773684	-1.9775165514	 1.6276928533	-0.087015
C	 2.1636216797	-2.4685687391	 0.771561011	-0.093133
C	 2.9789150132	-1.4116795948	 0.7331384063	-0.093296
C	 2.2426483021	-0.3880693568	 1.5690382892	-0.072269
H	 0.9966823403	 1.9472657102	-0.1388023665	 0.118211
H	-0.581478849	 1.9117451749	-0.934844626	 0.115231
H	-0.4817060286	 2.032072506	 0.8264484448	 0.119758
H	-1.0831589051	-0.3183576564	 0.0939092694	 0.099152
H	 0.3931656272	-0.4026254389	-0.8579111737	 0.103581
H	 0.6780864389	 0.7439018832	 3.1554408849	 0.094977
H	-0.4211989866	-0.6812814784	 3.2046986177	 0.093333
H	 0.2166957959	-2.6563055911	 1.9277749394	 0.066626
H	 2.2731377147	-3.4519124771	 0.3377065904	 0.109676
H	 3.9413836801	-1.2887195811	 0.2579866543	 0.109109
H	 2.7070805733	 0.5691271692	 1.8110519097	 0.068228
80.1828	163.6366	184.1093	264.5612	333.0402	453.5346	473.8082	530.7336	604.2202	703.4235	724.7254	764.0336	767.0875	815.3308	831.7455	904.0861	914.5135	916.1297	944.8708	958.1092	972.273	990.7837	1007.1827	1055.5758	1098.9335	1127.6791	1131.2975	1137.3036	1165.3694	1196.6493	1240.8171	1262.6624	1286.5534	1306.6093	1324.8583	1336.1918	1374.3068	1411.1554	1477.7437	1499.8878	1505.2702	1528.6397	1629.8702	3015.7696	3034.6662	3040.2488	3049.4536	3097.7387	3102.1362	3104.7539	3107.7183	3110.5723	3226.8806	3253.4735
CCC12CN3C1C=CC23	CC[C@@]12CN3[C@@H]1C=C[C@@H]23	
InChI=1S/C8H11N/c1-2-8-5-9-6(8)3-4-7(8)9/h3-4,6-7H,2,5H2,1H3	InChI=1S/C8H11N/c1-2-8-5-9-6(8)3-4-7(8)9/h3-4,6-7H,2,5H2,1H3/t6-,7+,8-
