22
gdb 86087	2.60584	1.33957	0.98066	1.827	89.85	-0.217	0.0271	0.2441	1291.8395	0.194655	-367.212083	-367.203049	-367.202105	-367.245438	35.321	
C	-0.6987732546	 1.2617028453	 0.0625608965	-0.414484
C	 0.119784387	-0.0219362398	-0.0502128371	-0.063023
C	 1.27144732	 0.0363997657	-1.0865212754	-0.320611
C	 2.3449135774	-0.8634411752	-0.5044455527	 0.301509
C	 3.5346472155	-1.2839864295	-1.3063105793	-0.488577
C	 2.0752507214	-1.1551296684	 0.7705502991	-0.219403
C	 0.8148264769	-0.5172314451	 1.2340892542	 0.332382
C	 0.703770279	 0.1677156847	 2.5543712599	-0.291675
N	 0.0617683852	-1.142044284	 2.336702663	-0.367673
H	-0.0685669255	 2.1130661761	 0.3405325239	 0.119581
H	-1.1800747445	 1.4984554523	-0.8920071991	 0.115221
H	-1.494178785	 1.172255748	 0.811711245	 0.10872
H	-0.5526426746	-0.8341960929	-0.3604980066	 0.082235
H	 0.9493527335	-0.2793501875	-2.0864363292	 0.098148
H	 1.6529436511	 1.0628420864	-1.1986640909	 0.100858
H	 4.1013245388	-0.4134399357	-1.6621739272	 0.123464
H	 4.2120564356	-1.9154564691	-0.7251045605	 0.124164
H	 3.2316720245	-1.8416954601	-2.2019724494	 0.123686
H	 2.689642304	-1.7571600414	 1.4307027779	 0.092976
H	 1.5448924144	 0.1539744405	 3.2431296294	 0.110958
H	 0.0786099764	 1.0532734318	 2.6278605102	 0.107995
H	-0.9367073965	-1.0094728222	 2.1834552281	 0.223545
86.9184	137.4944	190.023	248.1207	253.7398	264.6532	301.165	381.8706	427.3533	454.9191	503.2054	519.1323	590.6668	719.2753	829.9651	876.213	884.7163	892.1949	919.2099	931.0912	941.7689	981.8571	1017.8841	1029.4396	1057.1405	1072.5057	1115.8152	1133.7257	1136.441	1161.6691	1206.6402	1258.2608	1267.8469	1317.9407	1322.6434	1339.0568	1373.3026	1393.3871	1412.3683	1414.7543	1479.1634	1486.842	1489.8109	1496.858	1498.3867	1512.0021	1720.1874	2991.1384	3001.1656	3013.9135	3025.5953	3044.5969	3057.8475	3088.2952	3100.6625	3104.6157	3110.0096	3188.4778	3196.3296	3471.5053
CC1CC(C)=CC11CN1	C[C@H]1CC(=C[C@]21CN2)C	
InChI=1S/C8H13N/c1-6-3-7(2)8(4-6)5-9-8/h4,7,9H,3,5H2,1-2H3	InChI=1S/C8H13N/c1-6-3-7(2)8(4-6)5-9-8/h4,7,9H,3,5H2,1-2H3/t7-,8+/m0/s1
