21
gdb 86241	2.6606	1.18243	0.87807	3.1904	79.69	-0.2432	-0.0239	0.2193	1360.3509	0.180821	-424.255033	-424.245366	-424.244422	-424.290095	35.247	
C	 0.1260707301	 1.7385242958	 0.0240989003	-0.39821
C	 0.0493211091	 0.2212107007	-0.0108170143	 0.146342
C	 0.7349805245	-0.453316584	-1.2026172778	-0.253221
C	 1.099303263	-1.8370652956	-0.6451336274	-0.002828
C	 2.1999732706	-2.6011891969	-1.3731238034	-0.418846
C	 1.4599473608	-1.4693170421	 0.8184550334	 0.056125
O	 0.7152810118	-0.3096194396	 1.1515707657	-0.296301
C	 1.1076106288	-2.6027822205	 1.7618863748	 0.133452
O	 1.8117796784	-3.5592725912	 1.9598039625	-0.250193
H	 1.1680034321	 2.0708041392	-0.0177965642	 0.120349
H	-0.4135947777	 2.1690852023	-0.8256596887	 0.115233
H	-0.3208240899	 2.1243326627	 0.9444816813	 0.128346
H	-1.0072216198	-0.0888988165	 0.0272050457	 0.071381
H	 0.0928004462	-0.502731495	-2.0860106176	 0.106226
H	 1.6461173883	 0.0952241019	-1.4729498155	 0.102638
H	 0.1875571818	-2.4510505437	-0.6297719017	 0.082893
H	 3.1096003239	-1.9952808682	-1.4509991429	 0.118358
H	 2.4538450816	-3.519668476	-0.8355821806	 0.143485
H	 1.8868930984	-2.8732439405	-2.3858008484	 0.117768
H	 2.5383455531	-1.2697301349	 0.9014264438	 0.093415
H	 0.1072563947	-2.4865312081	 2.2386656652	 0.083589
52.4192	77.6003	118.666	203.5647	228.3326	238.1846	267.3823	306.1807	379.762	414.4172	463.5048	484.7112	557.0374	672.875	837.2858	852.4815	895.5949	919.9798	944.3659	979.8616	1008.7003	1056.7365	1074.9596	1088.2079	1137.8062	1151.7269	1160.0016	1181.6675	1211.4734	1273.7197	1289.9827	1319.9397	1353.0207	1367.7022	1377.031	1392.0565	1401.9318	1411.7734	1415.6484	1484.1904	1489.2677	1496.7762	1497.7445	1501.893	1828.911	2876.95	2969.8406	2995.6545	3007.297	3031.7412	3035.6351	3039.7644	3098.5338	3103.3154	3112.4667	3113.5428	3119.3025
CC1CC(C)C(O1)C=O	C[C@H]1C[C@@H](C)[C@@H](O1)C=O	
InChI=1S/C7H12O2/c1-5-3-6(2)9-7(5)4-8/h4-7H,3H2,1-2H3	InChI=1S/C7H12O2/c1-5-3-6(2)9-7(5)4-8/h4-7H,3H2,1-2H3/t5-,6+,7+/m1/s1
