19
gdb 59747	2.71029	1.33789	1.10954	3.5928	70.88	-0.2691	0.0057	0.2749	1162.6198	0.159936	-460.215822	-460.207146	-460.206202	-460.249253	32.634	
C	-0.0027430215	 1.5617732151	-0.2737171652	-0.424627
C	 0.0439515112	 0.0699604105	 0.0597406983	 0.124156
O	 0.7957743072	-0.1909442481	 1.2374904312	-0.442185
C	-1.3596869043	-0.5644818727	 0.1684642253	-0.155421
C	-1.396834326	-2.0974359937	 0.1606339386	-0.25974
C	-2.6532846519	-2.3958646753	 0.9869269904	-0.090375
O	-2.7643713195	-1.3011855441	 1.9197525871	-0.214751
C	-2.030990128	-0.2424721691	 1.5058007816	 0.451435
O	-1.9358019562	 0.7620961175	 2.1597509986	-0.361213
H	 1.0138511317	 1.9618195889	-0.3140827711	 0.123586
H	-0.4797499314	 1.7324230866	-1.2448796586	 0.109967
H	-0.5688103753	 2.1062137609	 0.4869664759	 0.148214
H	 0.5825448132	-0.4577251729	-0.7368352325	 0.090424
H	 0.4050171837	 0.3450655048	 1.9397750583	 0.295439
H	-2.0070579207	-0.1632044875	-0.6231547617	 0.105513
H	-1.4414127586	-2.5332118624	-0.8393877077	 0.112938
H	-0.5061734385	-2.477112519	 0.670744879	 0.13797
H	-3.5604275621	-2.4205761539	 0.3718364481	 0.118039
H	-2.598124293	-3.3177219156	 1.5689656943	 0.130631
82.3481	110.4132	188.2824	200.3394	248.0555	264.0153	329.373	461.4396	482.3113	501.0372	527.2208	625.5295	672.6775	728.1014	803.9673	860.0869	904.3036	947.4447	972.3467	1011.8302	1051.7903	1055.5306	1071.7268	1124.5847	1156.7967	1177.2088	1211.45	1237.2846	1279.7361	1289.8645	1328.7383	1360.6607	1366.7275	1403.0915	1403.9274	1439.3637	1492.2338	1493.0506	1508.3337	1524.2017	1848.9282	3024.1188	3035.5569	3040.3875	3040.9087	3064.389	3111.2161	3111.6452	3124.5305	3131.5012	3773.0305
CC(O)C1CCOC1=O	C[C@@H](O)[C@H]1CCOC1=O	
InChI=1S/C6H10O3/c1-4(7)5-2-3-9-6(5)8/h4-5,7H,2-3H2,1H3	InChI=1S/C6H10O3/c1-4(7)5-2-3-9-6(5)8/h4-5,7H,2-3H2,1H3/t4-,5-/m1/s1
