18
gdb 61022	3.55689	1.09947	0.93919	2.3932	72.11	-0.2431	-0.0386	0.2045	1244.9094	0.146912	-439.036456	-439.02806	-439.027116	-439.070025	31.356	
O	 0.6869100813	-0.4436020848	-1.1398640441	-0.433438
C	-0.0993997683	-0.0345622566	-0.0533300044	 0.024325
C	-1.4589581468	-0.7045886809	-0.0984012433	 0.134715
O	-1.750332307	-1.4684855097	-0.9885642747	-0.266317
C	 0.6101639243	-0.3834732018	 1.2632774023	 0.047153
C	 1.9798546794	 0.2652810677	 1.5951783002	-0.283295
C	 1.3209387099	 0.7433330577	 2.889164173	-0.006569
C	 0.1470500361	 1.5789783995	 2.5939893818	-0.242539
N	-0.0215503953	 0.1079934871	 2.5429646337	-0.161398
H	 0.1284586782	-1.0580898875	-1.6437794461	 0.296049
H	-0.2777228792	 1.0532236979	-0.0997297074	 0.090378
H	-2.156830499	-0.4677357997	 0.7265646448	 0.122226
H	 0.6737614886	-1.4733127622	 1.3278755363	 0.098309
H	 2.7723588804	-0.4703841972	 1.7333799504	 0.119524
H	 2.3409762132	 1.0503668766	 0.9252229022	 0.116402
H	 1.7428168097	 0.6548008675	 3.8845624554	 0.101572
H	-0.390475047	 2.0163745863	 3.4293321319	 0.126668
H	 0.1216305215	 2.1731438301	 1.683903838	 0.116234
59.304	104.5747	153.5333	196.8986	300.1582	351.8791	371.6383	401.6397	472.1323	506.8507	718.1235	756.8374	766.7708	784.7373	823.1403	898.5683	927.2486	954.8246	992.662	1014.6223	1058.848	1087.1737	1104.3343	1117.3967	1128.6651	1160.8661	1182.0566	1229.6415	1261.8504	1266.3223	1278.1876	1311.5541	1364.0861	1384.6366	1390.1704	1439.7054	1488.9181	1506.9164	1806.7253	2959.3204	2973.7587	3066.2553	3067.3462	3113.7915	3131.9685	3170.829	3202.7606	3676.5463
OC(C=O)C1CC2CN12	O[C@@H](C=O)[C@H]1C[C@H]2CN12	
InChI=1S/C6H9NO2/c8-3-6(9)5-1-4-2-7(4)5/h3-6,9H,1-2H2	InChI=1S/C6H9NO2/c8-3-6(9)5-1-4-2-7(4)5/h3-6,9H,1-2H2/t4-,5+,6-,7?/m0/s1
