17
gdb 73243	2.21776	1.92299	1.39752	1.6902	67.37	-0.246	-0.0413	0.2046	971.1849	0.135636	-458.965508	-458.957663	-458.956719	-458.998013	30.154	
O	 0.0811490475	 1.3891228609	-0.0865256916	-0.477699
C	 0.0144980942	-0.0054513066	-0.0537864194	 0.304369
C	 0.3156556606	-0.7916889965	-1.3698940668	-0.302311
C	-0.9676452655	-1.6377034323	-1.1433369402	-0.25509
C	-1.3597034914	-0.7130500934	 0.0489228599	 0.066401
O	-1.4630325504	-1.3430487634	 1.3258216038	-0.264191
C	-0.1617193562	-1.5963982392	 1.8251333956	-0.196813
C	 0.7393901826	-0.5458662157	 1.182241895	 0.31627
O	 1.7861038267	-0.1150206989	 1.5940585635	-0.319338
H	 0.9263735266	 1.635591398	 0.3164368861	 0.290723
H	 0.2361773692	-0.1078656835	-2.2177088927	 0.126056
H	 1.2704158092	-1.3199430161	-1.4304614906	 0.109482
H	-1.6759276134	-1.6540342837	-1.97291596	 0.115413
H	-0.7849935578	-2.6667561315	-0.8261582518	 0.112927
H	-2.2475549582	-0.0973576155	-0.0960762206	 0.103227
H	-0.1626552484	-1.5047706265	 2.9143997001	 0.147007
H	 0.2002757847	-2.606210496	 1.5674009698	 0.123565
64.6051	155.8378	201.0151	276.6868	301.6817	392.2695	420.2958	489.8803	509.2905	626.6328	649.4621	671.8941	718.7027	812.6755	825.484	905.1124	949.166	979.1882	996.8329	1037.1094	1078.8514	1089.6979	1125.6633	1141.7345	1194.6035	1213.2093	1218.59	1231.4726	1257.2836	1312.2676	1322.0688	1367.6003	1391.0418	1473.4764	1480.1434	1495.1393	1848.3946	2967.647	3065.1241	3078.823	3097.5345	3114.0487	3120.1512	3137.0705	3731.9356
OC12CCC1OCC2=O	O[C@]12CC[C@H]1OCC2=O	
InChI=1S/C6H8O3/c7-4-3-9-5-1-2-6(4,5)8/h5,8H,1-3H2	InChI=1S/C6H8O3/c7-4-3-9-5-1-2-6(4,5)8/h5,8H,1-3H2/t5-,6+/m1/s1
