15
gdb 125487	3.01885	1.32419	1.0442	3.108	70.61	-0.2698	-0.012	0.2578	1120.1117	0.11399	-413.026892	-413.018644	-413.0177	-413.06096	28.602	
C	 0.1545071741	 1.4622412	 0.0983340634	-0.515317
C	 0.0435806318	-0.0200112959	-0.0078372263	 0.362973
N	-0.0309581617	-0.7271695545	-1.1215441007	-0.305592
C	-0.1063200627	-2.0114139514	-0.6742845547	 0.030665
N	-0.0844170182	-2.15493268	 0.6370222202	-0.248766
N	 0.0079274258	-0.8629578981	 1.0586362519	-0.004406
C	 0.069939685	-0.5745810075	 2.4758014844	-0.281802
C	 1.3922114357	-0.1012745224	 2.9089567821	 0.276989
N	 2.4219619238	 0.295762517	 3.2482756375	-0.293883
H	 1.0796037081	 1.7612838351	 0.6024929478	 0.164675
H	 0.1507290167	 1.8833711141	-0.907089978	 0.169076
H	-0.6838243059	 1.8924697909	 0.6581654808	 0.140378
H	-0.1825160435	-2.8624073989	-1.3344539793	 0.13392
H	-0.6782116085	 0.1786166816	 2.7455725444	 0.17471
H	-0.1787635506	-1.5015873801	 2.9965850863	 0.196378
37.8496	96.0609	110.3607	233.3121	251.3284	286.2102	365.0076	421.6758	495.236	664.1586	692.1828	705.2857	786.0441	912.1378	934.0212	953.7332	979.1215	1007.9449	1067.3974	1135.2314	1207.0081	1243.3522	1312.7756	1335.181	1371.8935	1407.7533	1416.6232	1452.9594	1479.8291	1483.6512	1510.849	1575.4443	2369.3397	3038.0606	3058.0545	3093.2009	3126.8835	3156.9849	3261.6733
CC1=NC=NN1CC#N	Cc1ncnn1CC#N	
InChI=1S/C5H6N4/c1-5-7-4-8-9(5)3-2-6/h4H,3H2,1H3	InChI=1S/C5H6N4/c1-5-7-4-8-9(5)3-2-6/h4H,3H2,1H3
