17
gdb 53167	2.98171	1.03627	0.87017	3.1553	82.85	-0.2273	-0.0117	0.2156	1375.1044	0.134438	-384.656985	-384.648052	-384.647107	-384.692565	31.764	
C	 0.0288818805	 1.5467583885	 0.0098443631	-0.498873
C	 0.0586876094	 0.0919306889	 0.0430976504	 0.064871
C	 0.0904614096	-1.1125436746	 0.0617715754	 0.090997
C	 0.08553579	-2.5592366236	 0.0923219853	-0.320393
C	 0.2903943413	-3.2935520293	 1.4383306805	-0.048523
C	-0.8094413448	-2.9479361898	 2.3689193195	-0.282444
C	-1.0752870722	-4.0131589856	 1.3050504299	-0.17439
C	-1.280739987	-3.3493648018	-0.0163666743	 0.410874
O	-2.0589628678	-3.4843329634	-0.9125196484	-0.308702
H	 0.6104988222	 1.9367051774	-0.8327301204	 0.150521
H	-0.9954059843	 1.9221033492	-0.0922676104	 0.151048
H	 0.4485108959	 1.9738246963	 0.9274837177	 0.147952
H	 0.7381290103	-2.9736847831	-0.6861414017	 0.125925
H	 1.2248132138	-3.73794994	 1.7529693155	 0.110475
H	-0.7412844608	-3.3507252532	 3.3739628738	 0.128459
H	-1.2919666621	-1.9777945857	 2.3038477793	 0.138083
H	-1.375508984	-5.0173916701	 1.5758673847	 0.11412
18.9013	78.472	89.4657	157.5015	245.8192	262.9491	385.071	396.4428	501.3792	510.5719	591.5474	664.6362	764.2629	825.0944	830.4965	887.9847	920.2618	950.2703	989.7404	1003.1571	1052.1439	1052.3935	1061.3093	1088.8032	1110.8164	1144.0642	1187.4026	1188.4803	1285.7117	1316.4965	1338.5752	1414.609	1476.9067	1478.5581	1492.4193	1891.74	2364.4966	3026.1875	3037.6597	3086.7294	3087.9003	3128.7313	3198.4092	3207.8872	3218.8582
CC#CC1C2CC2C1=O	CC#C[C@H]1[C@H]2C[C@H]2C1=O	
InChI=1S/C8H8O/c1-2-3-5-6-4-7(6)8(5)9/h5-7H,4H2,1H3	InChI=1S/C8H8O/c1-2-3-5-6-4-7(6)8(5)9/h5-7H,4H2,1H3/t5-,6+,7+/m0/s1
