18
gdb 74118	2.33857	1.78428	1.11962	5.8875	80.58	-0.2124	-0.0085	0.204	1083.1356	0.149668	-401.986385	-401.978423	-401.977478	-402.01908	30.908	
N	 0.0058932747	 1.2859164793	-0.1766529766	-0.582305
C	-0.0694565772	-0.058481715	 0.0070857637	 0.391471
C	-1.1828585517	-0.8313096129	 0.1144546678	-0.332602
C	-0.8308917075	-2.2330864763	 0.3123674538	 0.394682
O	-1.5759410272	-3.1888320891	 0.4056821905	-0.375938
C	 0.7038968223	-2.31623415	 0.3436094626	-0.133606
C	 1.3667594341	-2.753318563	-1.0017423122	-0.217848
C	 1.8552932522	-1.2953419327	-1.233967757	-0.233393
C	 1.1968006015	-0.8660749773	 0.1248685234	-0.124765
H	 0.886033266	 1.6936958092	-0.4435417585	 0.261342
H	-0.8159523601	 1.7976472154	-0.45276066	 0.263579
H	-2.2071473109	-0.4885036069	 0.0396905711	 0.08789
H	 1.0485381265	-2.8493440955	 1.2305712576	 0.089053
H	 2.1766264901	-3.4753201987	-0.8804576345	 0.107454
H	 0.667199499	-3.1463436032	-1.7424691601	 0.116924
H	 2.9417375156	-1.1836461302	-1.2488490377	 0.104425
H	 1.4453020125	-0.7957430551	-2.1153594146	 0.102168
H	 1.8885537402	-0.4379874579	 0.8559067006	 0.081469
58.4333	158.3412	219.5986	233.8026	303.22	338.7358	459.5731	486.6781	577.1974	592.284	661.9566	715.6145	737.1005	782.8299	813.5704	824.966	861.5566	921.1215	966.4032	977.8697	1012.4265	1045.4769	1071.4463	1110.1052	1189.5993	1194.9181	1220.326	1231.8743	1246.8647	1266.6701	1277.9166	1285.657	1312.3908	1412.6191	1477.8879	1495.2853	1630.9425	1673.3418	1788.907	3059.7208	3065.3334	3072.4472	3103.2247	3108.2026	3128.4417	3210.8528	3599.4911	3713.3162
NC1=CC(=O)C2CCC12	NC1=CC(=O)[C@H]2CC[C@@H]12	
InChI=1S/C7H9NO/c8-6-3-7(9)5-2-1-4(5)6/h3-5H,1-2,8H2	InChI=1S/C7H9NO/c8-6-3-7(9)5-2-1-4(5)6/h3-5H,1-2,8H2/t4-,5+/m1/s1
