14
gdb 10372	2.52888	2.12623	1.41578	4.7892	66.13	-0.3253	-0.0113	0.314	885.895	0.107866	-341.596246	-341.588808	-341.587864	-341.628156	26.747	
N	 0.1031089061	-1.1881671885	 0.086494837	-0.321678
C	 0.0333986949	-0.0362239633	 0.0333049447	 0.270837
C	-0.0153192642	 1.425255733	 0.0102878407	-0.002778
C	-0.1986487238	 2.0330929937	 1.4572181485	-0.242886
C	 1.3363167564	 2.2189142075	 1.5472710818	-0.219774
C	 1.4296648095	 2.0645373726	 0.0090244072	-0.242889
C	-0.9373475015	 1.9007546108	-1.0160141861	 0.25202
N	-1.6545854011	 2.3314474358	-1.8127741674	-0.324201
H	-0.7365216605	 2.9801483202	 1.3914865878	 0.141991
H	-0.6899859512	 1.3831793721	 2.1808019554	 0.143183
H	 1.6933416507	 3.1585904161	 1.9691063185	 0.124545
H	 1.8180844425	 1.3905789451	 2.0709760627	 0.136459
H	 2.2193951244	 1.4393711762	-0.4067470179	 0.143184
H	 1.4066138178	 3.0215379887	-0.5145782429	 0.141988
105.4381	135.125	179.6725	196.3534	261.8471	473.8433	507.1025	528.6481	584.6047	595.2785	691.6885	796.1748	869.5191	913.2067	949.046	967.1771	972.2553	1081.1856	1105.144	1201.0045	1215.3714	1262.3509	1271.8782	1284.1136	1304.3832	1473.443	1485.2483	1503.2848	2359.7325	2364.3328	3082.9318	3088.1647	3091.1464	3134.4901	3153.9066	3158.6815
N#CC1(CCC1)C#N	N#CC1(CCC1)C#N	
InChI=1S/C6H6N2/c7-4-6(5-8)2-1-3-6/h1-3H2	InChI=1S/C6H6N2/c7-4-6(5-8)2-1-3-6/h1-3H2
