17
gdb 82284	2.46277	1.86067	1.18564	3.3829	74.28	-0.2462	-0.0645	0.1817	1029.8221	0.136272	-421.842113	-421.834341	-421.833396	-421.874607	29.711	
C	 0.2404358662	 1.57203374	-0.0366674255	-0.394635
C	 0.0786683882	 0.046338624	 0.0047589695	-0.15757
C	 0.6550948713	-0.6130848596	-1.2288257918	 0.04941
O	 2.0730690123	-0.7124338856	-1.30371458	-0.251625
C	 1.3105179425	-1.9302576908	-1.1408278042	-0.022781
C	 1.4061983679	-2.5884446562	 0.1826179888	-0.04342
C	 1.1085718742	-1.936256935	 1.3128926117	-0.165201
C	 0.6168961439	-0.5401216918	 1.322642158	 0.380435
O	 0.5767360115	 0.1009369211	 2.3533435574	-0.333227
H	 1.2970326249	 1.8357486966	-0.1401478586	 0.13657
H	-0.3051600304	 1.9975387623	-0.8840268474	 0.110326
H	-0.1336515043	 2.0131253102	 0.8878392759	 0.144818
H	-0.9969158376	-0.1931266987	 0.0169485076	 0.111163
H	 0.176161203	-0.3381337206	-2.1700680896	 0.098567
H	 1.3279985087	-2.5768201121	-2.0152671219	 0.101556
H	 1.7518085228	-3.6181389386	 0.2103206425	 0.115748
H	 1.2354316647	-2.3899633552	 2.2904985977	 0.119865
59.307	178.9725	203.5205	265.8162	292.7763	373.8241	432.3933	494.8297	522.7314	620.6558	657.1901	723.2987	770.7668	832.0436	834.8916	883.1425	953.435	962.9553	1009.8369	1028.1477	1063.0745	1093.2634	1123.9861	1139.5836	1163.7487	1230.139	1271.9278	1298.7607	1331.3291	1380.316	1400.1197	1409.5802	1459.5385	1491.4837	1503.4882	1685.1305	1770.7606	2989.248	3048.7643	3094.8475	3116.6814	3137.6289	3149.4634	3168.147	3194.7516
CC1C2OC2C=CC1=O	C[C@H]1[C@H]2O[C@H]2C=CC1=O	
InChI=1S/C7H8O2/c1-4-5(8)2-3-6-7(4)9-6/h2-4,6-7H,1H3	InChI=1S/C7H8O2/c1-4-5(8)2-3-6-7(4)9-6/h2-4,6-7H,1H3/t4-,6+,7-/m1/s1
