16
gdb 39007	3.25103	1.94031	1.37838	1.0702	74.61	-0.2186	-0.01	0.2087	907.0245	0.128272	-396.935673	-396.929302	-396.928358	-396.966068	26.256	
C	-0.0114055243	 1.4816112244	 0.0121541334	-0.320295
C	 1.3198603244	 0.785566624	 0.0079307373	-0.139455
C	 1.8739659877	 0.4117693104	 1.4032089851	-0.179647
N	 0.9582403306	-0.5715842015	 2.0427919446	-0.340333
C	 0.044464988	-0.7764815094	 1.1810356997	 0.370976
N	-0.9295780803	-1.7507475694	 1.0158344635	-0.390733
C	-1.203479026	-1.7555633056	-0.3649102931	 0.026129
N	-0.6825328209	-0.809836316	-1.0629095101	-0.320222
C	 0.0282609158	-0.0239036412	-0.0932972582	 0.304416
H	-0.382539116	 1.9316522424	 0.9291382042	 0.120722
H	-0.2974094136	 1.9897973846	-0.9028044822	 0.128281
H	 1.9954440092	 0.9340110162	-0.8253338148	 0.106284
H	 2.8646839446	-0.052547731	 1.3317044029	 0.113999
H	 1.9843239708	 1.3012645033	 2.0345214425	 0.116436
H	-1.0006023677	-2.5714298389	 1.5963763671	 0.266507
H	-1.8443560623	-2.5296404522	-0.771783642	 0.136935
219.8066	242.4302	277.4983	396.2201	428.8458	518.1614	596.5939	620.9594	667.4035	718.5028	791.6345	817.118	864.3915	897.4519	904.0079	942.3364	953.1396	981.2955	1014.7353	1035.0375	1051.8179	1079.8404	1102.9136	1162.7504	1205.3969	1259.9973	1304.161	1332.5237	1344.3021	1376.9802	1383.2066	1471.9183	1489.8035	1626.739	1755.9256	3032.2304	3064.6124	3115.2202	3191.9029	3208.7483	3212.5063	3644.0047
C1C2CN=C3NC=NC123	C1[C@H]2CN=C3N[CH][N][C@]123	
InChI=1S/C6H7N3/c1-4-2-7-5-6(1,4)9-3-8-5/h3-4H,1-2H2,(H,7,8,9)	InChI=1S/C6H7N3/c1-4-2-7-5-6(1,4)9-3-8-5/h3-4H,1-2H2,(H,7,8,9)/t4-,6+/m0/s1
