21
gdb 122315	4.65745	0.7005	0.67251	2.5443	79.78	-0.2295	0.0777	0.3072	1721.5995	0.181458	-424.17762	-424.168129	-424.167185	-424.212885	34.725	
O	-0.1105176232	 1.4489912064	 0.1085420932	-0.421175
C	-0.0104922976	 0.0482277584	-0.0971173631	-0.078156
C	-1.4010023235	-0.5503745943	 0.061890708	-0.159516
C	-1.4119749906	-2.074966132	-0.121902596	-0.320569
C	-2.7917222362	-2.6444709838	-0.0197942105	 0.504215
C	-3.5289129484	-3.0245937773	 1.2290559962	-0.327701
C	-3.3714342051	-4.0379101915	 0.1082418613	-0.205904
C	-4.2735997493	-3.6287485259	-1.0471636801	-0.083307
O	-3.7345256823	-2.2794166835	-1.0441258333	-0.326458
H	 0.7623128393	 1.8338958791	-0.0117255615	 0.2845
H	 0.3800118249	-0.1809274866	-1.1026364491	 0.084113
H	 0.6793979614	-0.4129853322	 0.6300853122	 0.079473
H	-1.785513499	-0.2904456097	 1.0548343708	 0.108154
H	-2.0725329605	-0.0874768743	-0.6689203297	 0.127857
H	-0.9905386125	-2.3346602309	-1.101783418	 0.103972
H	-0.7791934788	-2.553206625	 0.6362835227	 0.099845
H	-2.9095876302	-3.2183380178	 2.0996990356	 0.111638
H	-4.4992214404	-2.5830514919	 1.4414262349	 0.112662
H	-2.8895781447	-4.9977977253	 0.2377483725	 0.097718
H	-4.0401601696	-4.1335488267	-1.9917368877	 0.1062
H	-5.3574491238	-3.643865405	-0.8789596485	 0.102439
54.2227	79.7006	99.0743	132.328	237.6647	262.8086	277.3278	320.9459	396.9428	439.3012	486.6626	713.1549	742.8467	763.3716	839.91	859.0094	900.6125	952.9424	970.3236	981.5168	993.3176	1010.3297	1032.5435	1043.1449	1068.401	1072.5685	1086.7264	1133.669	1169.9315	1187.1999	1228.8409	1234.7826	1271.396	1297.3142	1309.8262	1319.312	1344.3529	1372.0462	1415.4763	1464.1984	1474.2501	1489.0476	1500.6185	1519.7693	1528.623	2952.0631	2977.5676	3017.1962	3019.3274	3044.8657	3055.8039	3066.4874	3094.1237	3110.9447	3197.0823	3206.0981	3830.8736
OCCCC12CC1CO2	OCCC[C@]12C[C@H]1CO2	
InChI=1S/C7H12O2/c8-3-1-2-7-4-6(7)5-9-7/h6,8H,1-5H2	InChI=1S/C7H12O2/c8-3-1-2-7-4-6(7)5-9-7/h6,8H,1-5H2/t6-,7-/m0/s1
