21
gdb 10722	3.19866	1.49511	1.25597	3.0043	73.76	-0.2428	0.0609	0.3037	1070.2851	0.188421	-366.238501	-366.229444	-366.2285	-366.271707	34.456	
C	 0.5532315438	 1.5405270925	-0.2196438637	-0.386201
C	 0.0366829234	 0.1179354993	 0.0679262789	-0.055672
C	 0.1314269882	-0.7454610141	-1.197026867	-0.406012
C	 0.7230476626	-0.4796123749	 1.3010114288	 0.305064
C	 0.1969970761	 0.0549407427	 2.6357858691	-0.110733
O	 1.0081876546	-0.3288745842	 3.7210411107	-0.425224
C	 1.3116518603	-1.8426961046	 1.310149046	-0.27899
N	 2.1906504781	-0.6528941486	 1.3308413866	-0.374137
H	 1.6046831453	 1.5219290409	-0.5287474279	 0.112023
H	-0.0198203246	 2.0006901445	-1.0305649542	 0.114959
H	 0.4780222647	 2.192191086	 0.6546751677	 0.124139
H	-1.0289566659	 0.1993221579	 0.3256877112	 0.081729
H	 1.1731197873	-0.9169727535	-1.4952655661	 0.109261
H	-0.3473048354	-1.7191012965	-1.0633161664	 0.122005
H	-0.3612151668	-0.2415698188	-2.0342399126	 0.117039
H	 0.1044204706	 1.1524502481	 2.5781320165	 0.083742
H	-0.8087462672	-0.3448274004	 2.816090404	 0.104439
H	 1.9164293845	-0.2573837486	 3.3884418955	 0.291964
H	 1.3111505631	-2.407871297	 2.236910049	 0.128685
H	 1.2822543657	-2.4388912397	 0.4049527086	 0.111834
H	 2.5962305619	-0.4926478812	 0.4123563152	 0.230086
76.7059	120.0893	208.6774	220.2415	262.375	277.0998	317.188	345.0212	360.6564	438.5501	495.7466	551.5455	579.1684	682.9165	825.0023	848.2635	924.1763	936.0757	952.2548	964.1946	971.2518	1038.4514	1057.3598	1098.2217	1104.398	1140.5534	1159.1122	1189.6505	1235.81	1261.1214	1264.113	1335.7228	1342.6357	1389.8621	1395.5631	1406.5424	1424.4924	1453.0721	1486.1402	1493.3005	1501.644	1504.2295	1511.0691	1516.6497	2962.6281	3001.4741	3025.9176	3034.4784	3044.9568	3089.9616	3098.9047	3113.4018	3115.9371	3129.2202	3217.8953	3505.0121	3700.4927
CC(C)C1(CO)CN1	CC(C)[C@@]1(CO)CN1	
InChI=1S/C6H13NO/c1-5(2)6(4-8)3-7-6/h5,7-8H,3-4H2,1-2H3	InChI=1S/C6H13NO/c1-5(2)6(4-8)3-7-6/h5,7-8H,3-4H2,1-2H3/t6-/m0/s1
