17
gdb 13787	3.70748	1.39001	1.08032	4.0789	66.57	-0.2537	0.0013	0.2549	1094.8886	0.140338	-400.997838	-400.988882	-400.987938	-401.032209	31.039	
C	-0.1084759069	 1.3312786165	 0.0521583831	-0.476255
C	 0.026207868	-0.1760713764	-0.0066856698	 0.365368
O	-0.2696988196	-0.9190840937	 0.9045053212	-0.337386
N	 0.6074864093	-0.6696397251	-1.1710781716	-0.081411
C	 0.1967081142	-0.4910304551	-2.5477378031	-0.271746
C	 0.1436004785	-1.8395405166	-1.883655629	-0.021997
C	 1.162462748	-2.9299950091	-2.1023442567	-0.061764
O	 1.2725931271	-3.7471948333	-0.9536391106	-0.419351
H	 0.7996485444	 1.8187755238	-0.3125946657	 0.14493
H	-0.9359921761	 1.6594491026	-0.5870647381	 0.14109
H	-0.3148560773	 1.6345465155	 1.078293631	 0.151088
H	-0.7515540178	 0.0041210323	-2.7460199076	 0.128379
H	 0.9905401609	-0.258573563	-3.2536331392	 0.128323
H	-0.8444345863	-2.1987159373	-1.5976078389	 0.116379
H	 0.8537690215	-3.5851632206	-2.9244816457	 0.110642
H	 2.1255568834	-2.4708963528	-2.3776437812	 0.088657
H	 1.2981128689	-3.1625740575	-0.1858885883	 0.295055
61.1273	80.9454	103.3392	134.4047	176.5903	263.2558	365.7738	385.1024	421.7072	498.6887	584.1476	615.5622	711.4313	830.4223	909.8481	974.273	1008.9551	1046.5982	1054.2602	1082.7897	1087.091	1133.1914	1150.4181	1160.5039	1219.5147	1237.5769	1342.5365	1366.6954	1394.0841	1423.6595	1462.795	1469.3285	1479.3446	1502.0918	1515.8795	1785.2093	2978.9279	3045.8142	3067.9313	3099.439	3111.4562	3127.2248	3163.223	3186.0011	3782.2468
CC(=O)N1CC1CO	CC(=O)N1C[C@H]1CO	
InChI=1S/C5H9NO2/c1-4(8)6-2-5(6)3-7/h5,7H,2-3H2,1H3	InChI=1S/C5H9NO2/c1-4(8)6-2-5(6)3-7/h5,7H,2-3H2,1H3/t5-,6?/m0/s1
