17
gdb 60835	2.42721	1.18863	0.8394	2.7388	70.91	-0.2534	-0.0678	0.1856	1314.3683	0.130809	-458.983659	-458.973631	-458.972687	-459.019655	33.995	
C	-0.2710463947	 1.4661382287	 0.1713853996	-0.41839
C	-0.0304944558	-0.0421601472	-0.0498868972	-0.082274
C	-1.3965171013	-0.7231890884	-0.0615844898	 0.17457
O	-1.9878903505	-1.0337269243	 0.9370357034	-0.25846
C	 0.770697066	-0.3004727833	-1.3297754302	-0.189912
C	 2.2045719673	 0.2250842716	-1.2791656321	 0.139267
O	 2.9209613481	 0.2747873977	-2.2437671857	-0.243409
C	 0.8467515173	-1.7831285661	-1.7086396666	 0.138954
O	 0.2306794118	-2.6439704811	-1.1395310259	-0.220894
H	 0.6714866262	 2.0207558563	 0.2133900246	 0.126708
H	-0.871399808	 1.892124345	-0.6406911103	 0.127895
H	-0.8053126891	 1.6261784898	 1.1106898555	 0.150172
H	 0.5109354788	-0.4482379825	 0.812004386	 0.113658
H	-1.8603517548	-0.8353255499	-1.0683903394	 0.074891
H	 0.3079765957	 0.1901767417	-2.2003296755	 0.138667
H	 2.5662078363	 0.5164536856	-0.2688872586	 0.103799
H	 1.5201573168	-1.9991151235	-2.5621854877	 0.124758
44.4076	86.9633	105.5039	124.1009	178.7043	210.5505	234.8981	282.3874	323.4602	336.7287	401.2203	467.0758	601.1836	698.1581	820.3807	887.9936	893.8951	938.9848	974.8426	1019.6078	1099.8844	1110.1494	1145.2627	1166.4113	1211.1837	1241.8741	1294.4406	1355.1236	1399.6732	1409.7773	1417.9412	1428.9924	1495.2117	1500.9817	1805.2799	1837.3963	1841.5972	2865.5221	2894.8766	2941.0904	3005.633	3034.1165	3056.3639	3100.0387	3128.5658
CC(C=O)C(C=O)C=O	C[C@@H](C=O)C(C=O)C=O	
InChI=1S/C6H8O3/c1-5(2-7)6(3-8)4-9/h2-6H,1H3	InChI=1S/C6H8O3/c1-5(2-7)6(3-8)4-9/h2-6H,1H3/t5-/m0/s1
