19
gdb 59703	2.2693	1.37966	1.01599	4.7284	71.85	-0.2397	-0.0235	0.2161	1216.7064	0.156546	-460.141978	-460.132255	-460.131311	-460.178044	34.279	
C	 0.0403605104	 1.5479367887	 0.1392130585	-0.416054
C	 0.0645270629	 0.0213103049	 0.085476985	 0.118592
O	-1.2302340414	-0.5347906979	 0.31135495	-0.436065
C	 0.6461504998	-0.4988350069	-1.2260895534	-0.081779
C	 2.1759513589	-0.3890227725	-1.4145586357	-0.08349
O	 2.322728701	-1.8193844314	-1.4853324301	-0.265035
C	 0.9155859868	-2.0354611167	-1.3386747456	 0.034504
C	 0.5426242158	-2.8871379363	-0.1386297243	 0.15251
O	 1.3037736594	-3.1680526	 0.7492555662	-0.246554
H	 1.0470702464	 1.9674458214	 0.0443061305	 0.126214
H	-0.5693801704	 1.9563242778	-0.6769354236	 0.108509
H	-0.3857364926	 1.8846060418	 1.08766495	 0.134145
H	 0.671988859	-0.3605492759	 0.9141963504	 0.116515
H	-1.8328374399	-0.1560477157	-0.3389515882	 0.278964
H	 0.0659487253	-0.1079964054	-2.0680808847	 0.074712
H	 2.5090510462	 0.1050957321	-2.3346817502	 0.105347
H	 2.7231110306	 0.0342668863	-0.5625178862	 0.109975
H	 0.4738707611	-2.4968855815	-2.2354503955	 0.087053
H	-0.5133884294	-3.2331551027	-0.1441614232	 0.081936
24.2025	63.6066	96.0505	167.7823	237.006	253.808	264.3906	307.6051	344.7105	354.857	474.1076	520.2244	715.6692	755.6781	797.8629	880.2639	909.0757	948.0213	973.9617	998.5858	1027.5916	1059.5975	1077.311	1111.4716	1115.3534	1160.1563	1184.9723	1221.5991	1253.4455	1278.6474	1327.6362	1341.6086	1366.8715	1402.9274	1404.7597	1418.4382	1425.1727	1491.5507	1494.8962	1523.9531	1833.1153	2899.5062	2986.9229	3014.7949	3024.6851	3044.998	3054.491	3068.0036	3096.015	3123.0281	3794.5896
CC(O)C1COC1C=O	C[C@@H](O)[C@H]1CO[C@H]1C=O	
InChI=1S/C6H10O3/c1-4(8)5-3-9-6(5)2-7/h2,4-6,8H,3H2,1H3	InChI=1S/C6H10O3/c1-4(8)5-3-9-6(5)2-7/h2,4-6,8H,3H2,1H3/t4-,5-,6+/m1/s1
