16
gdb 20823	3.36339	1.81402	1.2773	1.8825	66.61	-0.2146	0.031	0.2456	951.5959	0.13194	-379.951401	-379.943568	-379.942624	-379.983821	28.859	
C	-0.0343226403	 1.5639146546	 0.135630754	-0.370662
C	-0.114642137	 0.0363419333	-0.0276948528	-0.305004
C	 0.6167284149	-0.4700678932	-1.2344450545	 0.136317
C	 0.1150917832	-1.0248216749	-2.3955203904	-0.117339
N	 1.1671217944	-1.3126444514	-3.1971017204	-0.201062
N	 2.3581287794	-0.9812985056	-2.6366811904	-0.333477
C	 2.0162952593	-0.4768285751	-1.461973159	 0.354385
O	 2.9395512325	-0.022489203	-0.5839311687	-0.43119
H	 1.0074848114	 1.8873365324	 0.2143918003	 0.135112
H	-0.4803933586	 2.0733831461	-0.724419543	 0.112725
H	-0.5623321738	 1.8894353849	 1.0377523354	 0.106523
H	 0.2955778748	-0.4373187199	 0.872988704	 0.111997
H	-1.1640282751	-0.2743059588	-0.0862310053	 0.096535
H	-0.9007437265	-1.2323724545	-2.6957514139	 0.130275
H	 1.1585730698	-1.7311946396	-4.1096029976	 0.272944
H	 3.8051886416	-0.1500459954	-0.9917327176	 0.301922
53.9446	149.1995	197.727	280.734	302.8188	357.2101	388.491	451.579	464.8717	633.1749	655.0876	740.315	745.2891	787.4433	802.4218	941.2288	969.5608	1057.9984	1084.1679	1094.8901	1139.4183	1248.2861	1254.4601	1287.1587	1334.3394	1368.5699	1407.0209	1450.1105	1480.4716	1490.9829	1496.8323	1509.0098	1560.9443	1639.4713	3024.5707	3036.1702	3061.1847	3105.1174	3118.1582	3251.4366	3697.1983	3796.0302
CCC1=CNN=C1O	CCc1c[nH]nc1O	
InChI=1S/C5H8N2O/c1-2-4-3-6-7-5(4)8/h3H,2H2,1H3,(H2,6,7,8)	InChI=1S/C5H8N2O/c1-2-4-3-6-7-5(4)8/h3H,2H2,1H3,(H2,6,7,8)
