19
gdb 126371	2.7541	1.27354	0.94145	2.3066	79.36	-0.2025	0.0242	0.2267	1287.1097	0.160805	-415.430938	-415.42146	-415.420516	-415.465774	34.053	
C	-0.0287067316	 1.5147526742	 0.1082511148	-0.375359
C	-0.0211718348	-0.0184910929	-0.029129901	-0.30114
C	 0.6754740498	-0.4889826501	-1.2666343531	 0.354808
N	 0.0759574193	-0.7131085212	-2.4299414194	-0.369503
C	 1.1078870179	-1.0754252195	-3.2412998156	 0.385052
N	 0.9181211477	-1.3447631762	-4.5836228326	-0.585581
N	 2.3013211077	-1.0994995445	-2.6645752059	-0.344666
N	 2.0016694236	-0.7107130491	-1.3845699076	-0.004065
C	 3.0692435777	-0.5903574929	-0.4202511226	-0.322813
H	 0.987126454	 1.914041347	 0.1912551841	 0.118299
H	-0.4991566003	 1.9731401544	-0.7656989737	 0.141382
H	-0.5856505394	 1.8186549872	 0.999539579	 0.117559
H	 0.429907782	-0.4720089263	 0.86036806	 0.107879
H	-1.0491367725	-0.3861592853	-0.0863913142	 0.135142
H	-0.0123162581	-1.67977773	-4.7863626557	 0.254981
H	 1.6395684812	-1.9262636689	-4.9845173743	 0.253461
H	 3.7651620996	 0.2004739674	-0.7164469599	 0.14718
H	 2.6511243303	-0.349652687	 0.557589667	 0.139136
H	 3.6200195559	-1.5327409561	-0.3551513292	 0.148249
51.3883	79.506	135.5281	170.3088	212.4406	272.3665	303.1722	314.8435	334.9128	419.6413	512.9846	611.3221	639.1832	664.5423	724.6828	780.0224	790.892	838.8456	974.9427	1036.8083	1055.9505	1077.3247	1090.7206	1135.4035	1153.0943	1209.3501	1285.6305	1318.7619	1351.6194	1408.8843	1425.5204	1453.3582	1472.3657	1482.4992	1494.9103	1498.9686	1505.8204	1521.4328	1562.6842	1588.5709	1648.1936	3040.9213	3045.3602	3048.5239	3094.8697	3107.0509	3113.668	3125.3738	3152.3569	3570.8973	3676.6672
CCC1=NC(N)=NN1C	CCc1nc(N)nn1C	
InChI=1S/C5H10N4/c1-3-4-7-5(6)8-9(4)2/h3H2,1-2H3,(H2,6,8)	InChI=1S/C5H10N4/c1-3-4-7-5(6)8-9(4)2/h3H2,1-2H3,(H2,6,8)
