17
gdb 77220	3.20652	1.11054	0.90934	4.1611	73.79	-0.2589	-0.0466	0.2123	1257.2117	0.135278	-418.007185	-417.998262	-417.997318	-418.041375	31.757	
C	 0.2281615268	 1.7145725917	-0.1080707169	-0.411959
C	 0.0517865828	 0.2053603505	-0.1645730052	-0.031738
C	 0.6082419522	-0.4811874911	-1.4595149806	-0.06732
N	 1.7925200106	-0.9354835923	-0.7163344113	-0.307001
C	 1.1295659094	-0.6588699842	 0.579716257	-0.133965
C	 1.9667204467	 0.0084008012	 1.5769872093	 0.307049
N	 2.6042852455	 0.5441650513	 2.3782854624	-0.325976
C	-0.2845317397	-1.5865884818	-1.9723099716	 0.144629
O	-0.0612261626	-2.7585685752	-1.7965311501	-0.249761
H	 1.2495916311	 2.0029124996	-0.3723699943	 0.148805
H	-0.459124	 2.2035623207	-0.8057332652	 0.122464
H	 0.0195538038	 2.0945605489	 0.8963885361	 0.141448
H	-0.9715852535	-0.0749629446	 0.0959333273	 0.099169
H	 0.8228157733	 0.2106195499	-2.2861548576	 0.103862
H	 1.9965333315	-1.9200416253	-0.8665428477	 0.241506
H	 0.6779556833	-1.5420801803	 1.0478723081	 0.129015
H	-1.1856789213	-1.2437614988	-2.5285338297	 0.089772
62.1653	103.9535	136.6424	177.2481	236.4677	264.8371	288.1375	306.5928	396.3826	538.3453	569.0913	674.7166	750.4408	799.0612	818.5682	853.2189	956.0385	978.8591	1005.802	1038.9104	1082.9304	1099.3724	1131.631	1137.4286	1222.9407	1243.212	1270.9677	1314.2647	1343.1125	1367.7353	1409.5539	1417.2428	1425.3415	1492.6502	1494.8565	1817.3947	2357.103	2886.371	3013.1155	3030.7389	3041.2138	3078.0708	3111.8432	3122.7377	3513.0119
CC1C(NC1C#N)C=O	C[C@H]1[C@@H](N[C@H]1C#N)C=O	
InChI=1S/C6H8N2O/c1-4-5(2-7)8-6(4)3-9/h3-6,8H,1H3	InChI=1S/C6H8N2O/c1-4-5(2-7)8-6(4)3-9/h3-6,8H,1H3/t4-,5+,6+/m1/s1
