24
gdb 102575	2.13505	1.13224	0.86587	1.6205	86.36	-0.2404	0.0757	0.3161	1483.8748	0.215499	-405.520407	-405.509407	-405.508463	-405.55676	39.68	
C	 0.6592590234	 1.1337269539	 0.0818928005	-0.389022
C	 0.0898042256	-0.282565725	 0.185782108	-0.179808
C	-1.4246089853	-0.339513909	-0.0249108862	 0.124814
O	-1.6785539954	 0.1202664997	-1.3474822448	-0.245093
C	-3.0174711683	 0.4704187483	-1.6094889572	-0.234935
C	-1.9480185138	-1.7549376029	 0.1611235536	-0.039304
N	-1.9246463289	-2.2980363453	 1.529193126	-0.343186
C	-3.2171963293	-2.1454646246	 0.8446525258	-0.000842
C	-4.2081430844	-1.1847862787	 1.4568484019	-0.398202
H	 1.7456138391	 1.1318311791	 0.2136814274	 0.106678
H	 0.4318875676	 1.5697314361	-0.8939922938	 0.129554
H	 0.2325230356	 1.7878128284	 0.8509467454	 0.108335
H	 0.5643425123	-0.9321512956	-0.5609795301	 0.094098
H	 0.302543155	-0.7134957716	 1.1695485296	 0.112015
H	-1.9086923364	 0.3334646366	 0.7009717334	 0.062197
H	-3.0500326453	 0.8796487944	-2.6228210266	 0.122838
H	-3.6964723824	-0.3925912949	-1.5589468508	 0.108685
H	-3.3825747921	 1.2369232356	-0.9081961367	 0.102433
H	-1.6242361142	-2.4147146666	-0.6448125363	 0.082901
H	-1.6178946493	-3.2663192185	 1.5271696747	 0.231265
H	-3.6728170089	-3.0582811105	 0.459618404	 0.080536
H	-3.7088796092	-0.3053140071	 1.8689232956	 0.129204
H	-4.9450383	-0.8540556154	 0.7168859245	 0.114529
H	-4.7494635553	-1.6708636765	 2.2757527422	 0.120309
62.5759	88.7175	103.2886	133.4275	185.7579	193.378	201.764	238.7634	266.1611	297.6301	389.8275	416.0424	455.6898	498.3229	553.902	767.7813	784.1299	850.9194	888.7914	933.5722	952.9372	973.51	1013.6943	1034.5172	1053.5572	1099.5688	1110.1142	1131.2495	1154.4719	1161.2255	1182.6946	1212.7865	1231.0335	1257.0207	1266.8196	1299.9499	1315.8228	1349.3978	1388.5842	1403.7985	1408.8547	1427.8185	1466.0764	1477.9002	1481.1805	1486.7975	1490.7749	1497.4124	1502.268	1510.9794	1512.1761	2973.303	2980.9914	3029.0077	3030.1846	3035.2104	3035.9334	3081.0972	3091.6691	3094.9454	3098.7723	3103.9347	3106.4465	3125.5394	3129.935	3510.6804
CCC(OC)C1NC1C	CC[C@@H](OC)[C@H]1N[C@H]1C	
InChI=1S/C7H15NO/c1-4-6(9-3)7-5(2)8-7/h5-8H,4H2,1-3H3	InChI=1S/C7H15NO/c1-4-6(9-3)7-5(2)8-7/h5-8H,4H2,1-3H3/t5-,6+,7-/m0/s1
