16
gdb 29612	3.20346	1.24067	0.95079	1.7103	72.13	-0.1958	-0.0321	0.1638	1181.8075	0.124012	-437.912975	-437.904392	-437.903448	-437.946846	31.265	
N	 0.3554904557	 1.3418645225	 0.3741120261	-0.615659
C	 0.1242058334	-0.0079109128	 0.1118820181	 0.136087
C	-1.0693218491	-0.6464344225	-0.0624138831	-0.076141
O	-0.8710458414	-1.9939578587	-0.2238704206	-0.144423
C	 0.4565747742	-2.2088221959	-0.1425479946	-0.104421
C	 1.1331104469	-1.0426618343	 0.050653752	 0.186846
C	 2.6201746117	-0.8433920162	 0.1379285723	-0.405367
C	 2.9917356964	-0.253361313	 1.488110451	 0.162511
O	 3.2085796067	 0.9190278859	 1.6674257931	-0.241253
H	 1.323642265	 1.6244208097	 0.3198722164	 0.257441
H	-0.2515908293	 1.9827777683	-0.1147034601	 0.24674
H	-2.0919785421	-0.3121448105	-0.0915620737	 0.124904
H	 0.7841638618	-3.2294855896	-0.2595969349	 0.134269
H	 3.1288760091	-1.8048792301	 0.0077575096	 0.120379
H	 2.9746796207	-0.1522662094	-0.6360030671	 0.125638
H	 3.0095589302	-0.9772764133	 2.3318845157	 0.09245
57.9495	77.0156	154.5081	234.1571	238.5618	294.4536	381.7206	420.274	506.0969	577.4715	612.8996	632.0834	654.4902	719.6446	729.7806	762.4862	878.2075	894.0854	1000.0633	1058.6644	1078.2639	1106.7499	1184.2081	1206.5222	1227.9138	1275.1073	1293.6326	1343.091	1415.6571	1433.3858	1463.0806	1581.4887	1660.9372	1669.6048	1820.0851	2898.3723	3029.4674	3086.6225	3265.9937	3285.754	3562.0895	3662.1936
NC1=COC=C1CC=O	Nc1cocc1CC=O	
InChI=1S/C6H7NO2/c7-6-4-9-3-5(6)1-2-8/h2-4H,1,7H2	InChI=1S/C6H7NO2/c7-6-4-9-3-5(6)1-2-8/h2-4H,1,7H2
