14
gdb 60776	3.56418	0.93139	0.83557	3.489	62.1	-0.2614	-0.0649	0.1965	1327.2653	0.098649	-511.011907	-511.003058	-511.002114	-511.046546	30.392	
O	-0.9203565429	-0.0226005827	 0.0129354998	-0.437167
C	 0.3107695094	-0.5394927747	-0.4046282515	-0.047959
C	 1.1528362606	 0.5561930159	-1.0476829292	 0.137271
O	 0.6995867247	 1.6657374894	-1.1829256065	-0.25342
C	 1.1425327778	-1.181837045	 0.7324249245	 0.368895
O	 2.1889476416	-1.7269452752	 0.4917078573	-0.31415
N	 0.5474482187	-1.0250775092	 1.9718072729	-0.344089
C	 1.0204083361	-1.4628643303	 3.2088932652	 0.168024
O	 2.0519347922	-2.0388676411	 3.4087266084	-0.246005
H	-0.9145906904	 0.9105538477	-0.2668076286	 0.304494
H	 0.1833842498	-1.3365119858	-1.1540832236	 0.146237
H	 2.1711842684	 0.2712285989	-1.3610048427	 0.145274
H	-0.3477416214	-0.5506518031	 1.9401713209	 0.27631
H	 0.2981556754	-1.1994118848	 4.0069193231	 0.096284
50.5278	86.2044	144.533	161.2781	219.3732	248.4608	292.8582	340.9276	472.8444	519.0724	561.9648	649.5382	740.3998	764.407	802.4247	879.6008	936.2293	1022.4803	1033.8977	1122.8266	1153.079	1180.1318	1237.1	1314.6336	1371.8969	1410.8094	1440.7767	1517.1645	1797.9399	1814.2648	1872.2947	2939.1158	2996.0928	3012.5136	3561.519	3632.5502
OC(C=O)C(=O)NC=O	O[C@@H](C=O)C(=O)NC=O	
InChI=1S/C4H5NO4/c6-1-3(8)4(9)5-2-7/h1-3,8H,(H,5,7,9)	InChI=1S/C4H5NO4/c6-1-3(8)4(9)5-2-7/h1-3,8H,(H,5,7,9)/t3-/m0/s1
