22
gdb 109739	2.73742	0.91314	0.83752	3.1999	85.2	-0.2278	-0.0105	0.2172	1530.4523	0.190977	-404.346243	-404.335423	-404.334479	-404.383017	38.362	
C	 0.4907616117	 1.2476207408	 0.0302000963	-0.380266
C	 0.3257660632	-0.2689440078	-0.1338593256	-0.209437
C	-1.120204125	-0.6791781739	-0.3357223074	 0.010248
C	-1.5781456954	-2.0795921404	-0.0131538509	-0.141377
N	-2.0710914735	-0.9221885411	 0.7373687063	-0.097838
C	-1.6709644854	-0.8121237177	 2.1337723038	-0.319416
C	-2.5250680993	-2.8620215246	-0.8768546774	 0.381737
C	-3.7829557756	-2.1660983072	-1.3558468881	-0.486665
O	-2.2612857192	-4.0084964563	-1.1701149538	-0.314382
H	 1.5465267212	 1.5192499623	 0.1222295037	 0.118613
H	 0.0820191921	 1.7827583031	-0.8336770845	 0.120758
H	-0.0294336161	 1.6126979401	 0.9212985445	 0.123253
H	 0.8934067006	-0.6059898355	-1.0101259471	 0.112898
H	 0.7592126403	-0.7914012349	 0.7244601001	 0.105041
H	-1.5849751393	-0.1930901329	-1.1946181819	 0.090448
H	-0.8277190885	-2.7127290831	 0.4608281122	 0.091788
H	-0.6496035516	-1.1588214557	 2.3482968876	 0.109731
H	-1.756580583	 0.2317827688	 2.4516072435	 0.127529
H	-2.3608486795	-1.4080184434	 2.738909208	 0.131424
H	-3.5300738727	-1.3857991849	-2.0835077083	 0.137985
H	-4.4391485705	-2.8949063646	-1.8323242442	 0.135854
H	-4.2834407446	-1.6664159511	-0.522573777	 0.152075
34.1856	77.9882	109.9887	141.1699	149.6746	188.2133	218.6382	253.3141	282.0771	329.8827	371.8391	484.3358	514.8665	536.0366	597.7094	740.372	779.4903	800.3065	848.2038	938.191	994.2194	1023.9629	1031.7179	1060.1744	1080.7201	1099.224	1135.0345	1148.3498	1173.2151	1194.9923	1254.984	1266.9521	1296.1034	1340.6521	1378.3007	1383.2597	1411.164	1434.3623	1457.6705	1464.8008	1470.6094	1477.9122	1491.1335	1500.0565	1503.3193	1507.6498	1794.8392	2993.4276	3035.1655	3036.7784	3041.915	3070.751	3076.4516	3093.5565	3105.8102	3108.1112	3109.9493	3111.6169	3114.0039	3160.0067
CCC1C(N1C)C(C)=O	CC[C@H]1[C@@H](N1C)C(=O)C	
InChI=1S/C7H13NO/c1-4-6-7(5(2)9)8(6)3/h6-7H,4H2,1-3H3	InChI=1S/C7H13NO/c1-4-6-7(5(2)9)8(6)3/h6-7H,4H2,1-3H3/t6-,7-,8?/m0/s1
