20
gdb 17566	3.30358	2.29441	1.8549	0.178	77.77	-0.2475	0.0959	0.3434	825.1222	0.179519	-311.837366	-311.830748	-311.829803	-311.867467	28.345	
C	-0.030274148	 1.5237945657	 0.0414745911	-0.501811
C	 0.0362155689	 0.0133479807	 0.0586556191	 0.345155
C	 0.8953012686	-0.8156001669	-0.9711131619	-0.242107
C	 0.7243443632	-1.9310504484	 0.1166589451	-0.04219
C	 0.8353296097	-0.7712144365	 1.1404744029	-0.27117
C	-0.7900644744	-2.1955007277	-0.0005578449	-0.026826
C	-1.7360805373	-1.6947879498	 1.0639210342	-0.318169
C	-1.2974981262	-0.7662083831	-0.0431795957	-0.060956
H	 0.9700662013	 1.9685661815	 0.0688866242	 0.109722
H	-0.5324266979	 1.8875652882	-0.8628225832	 0.112525
H	-0.5904141917	 1.9032805309	 0.9036828933	 0.116863
H	 0.4599008474	-1.0010178514	-1.9578951212	 0.082837
H	 1.9229013117	-0.4510837136	-1.0681666412	 0.08472
H	 1.3848925354	-2.7971031366	 0.164900963	 0.056821
H	 1.8609006199	-0.4016061891	 1.2148030961	 0.090807
H	 0.4253281813	-0.884767594	 2.1453530796	 0.089197
H	-1.1291497611	-2.9495810011	-0.7020323165	 0.081757
H	-2.7560225709	-2.0596124181	 0.9839677274	 0.104636
H	-1.4166413478	-1.5520632688	 2.0892761165	 0.110306
H	-2.0237988921	-0.4304202419	-0.776032858	 0.077886
214.0892	234.3273	289.1198	377.6279	405.1261	537.2753	552.6857	583.962	654.641	761.8127	794.3802	815.7808	831.1086	857.3818	898.5484	924.1132	954.0403	981.0076	983.8123	1008.141	1038.3243	1050.8613	1070.8605	1079.7804	1095.2574	1109.8244	1136.8006	1190.7646	1194.9942	1207.7509	1230.2233	1247.7687	1265.4134	1294.7255	1335.482	1376.5885	1412.0105	1474.864	1491.7932	1493.0578	1497.963	1538.6973	3022.0455	3040.314	3068.3754	3084.3197	3093.2064	3101.2872	3109.319	3115.9166	3132.0373	3158.6881	3171.712	3209.6216
CC12CC(C1)C1CC21	C[C@@]12C[C@@H](C1)[C@H]1C[C@@H]21	
InChI=1S/C8H12/c1-8-3-5(4-8)6-2-7(6)8/h5-7H,2-4H2,1H3	InChI=1S/C8H12/c1-8-3-5(4-8)6-2-7(6)8/h5-7H,2-4H2,1H3/t5-,6-,7-,8+/m1/s1
