16
gdb 15242	3.0436	1.64879	1.45918	0.8547	67.8	-0.2321	0.0374	0.2695	938.6209	0.127294	-383.666755	-383.657903	-383.656959	-383.700042	31.652	
C	-0.3748912829	 1.143091826	 0.1784686372	-0.239754
O	 0.5677251281	 0.111141222	-0.0809169167	-0.234705
C	 0.9823800566	-0.5304333099	 1.0713465394	 0.067797
C	 0.0960846393	-1.6001371075	 1.6563327087	 0.086608
O	-1.1378030098	-1.8700952253	 1.0833882341	-0.419711
C	 1.3830202564	-1.9969118894	 0.9180136473	-0.328047
C	 1.2308444288	-2.643044738	-0.3484059023	 0.319558
C	 1.0324667055	-3.2106092151	-1.3916679197	-0.437362
H	 0.0554763746	 1.9232148545	 0.8236782299	 0.105596
H	-0.6292481639	 1.584995353	-0.7873930941	 0.129102
H	-1.2794050727	 0.7433637871	 0.6504749621	 0.134
H	 1.5892766239	 0.0719264347	 1.7512231435	 0.088445
H	 0.079228598	-1.7394364757	 2.7331221153	 0.111092
H	-0.9865545625	-2.1945344804	 0.184981351	 0.294697
H	 2.217219014	-2.3347030307	 1.5249624303	 0.121137
H	 0.8994487367	-3.6951205854	-2.327196756	 0.201545
98.9624	107.5703	135.0816	179.6539	217.1331	249.9945	292.6982	366.3276	390.9558	589.7221	621.0288	645.0984	665.5397	697.6134	747.8446	774.3102	890.4116	996.806	1060.2958	1069.1348	1106.5429	1114.1558	1156.8596	1180.7966	1212.2889	1264.1871	1339.9462	1346.5261	1380.5001	1446.0924	1482.2782	1487.7507	1508.9542	2229.087	2994.6228	3070.2863	3073.8032	3126.9455	3151.3228	3160.35	3502.6451	3743.6147
COC1C(O)C1C#C	CO[C@H]1[C@@H](O)[C@H]1C#C	
InChI=1S/C6H8O2/c1-3-4-5(7)6(4)8-2/h1,4-7H,2H3	InChI=1S/C6H8O2/c1-3-4-5(7)6(4)8-2/h1,4-7H,2H3/t4-,5+,6-/m1/s1
