16
gdb 124957	2.28989	1.6526	0.97137	2.6995	74.69	-0.2596	-0.0534	0.2062	1167.0176	0.122539	-437.914958	-437.906072	-437.905128	-437.948947	31.127	
C	 0.0349487564	 1.4919551107	 0.0486106135	-0.494111
C	-0.0765455435	 0.0093323501	 0.0745437623	 0.383381
C	-1.1289750115	-0.8649870548	-0.04364642	-0.089251
C	-2.5363782667	-0.5566983119	-0.2425004286	 0.063369
O	-3.4162470029	-1.3863099903	-0.3386774577	-0.288267
C	-0.5141008386	-2.161061714	 0.0753468954	 0.322289
C	-1.1705144752	-3.499869108	 0.0234901409	-0.480456
N	 0.7763233769	-2.0573150594	 0.2471428295	-0.197375
O	 1.054816934	-0.6726445671	 0.2465360087	-0.216286
H	 0.6973618082	 1.8113599504	-0.7622980669	 0.163335
H	-0.9425126203	 1.9541462423	-0.095568466	 0.150246
H	 0.4622610976	 1.8596515764	 0.9869743332	 0.163336
H	-2.7727557939	 0.5284840326	-0.3042754993	 0.071261
H	-1.6922804111	-3.6333969549	-0.9280373723	 0.153076
H	-0.4240626169	-4.2865923211	 0.1463827194	 0.142372
H	-1.9274483525	-3.5853729711	 0.8078596479	 0.15308
79.7907	111.8469	143.8711	174.3109	177.9121	263.5322	289.1062	349.804	381.3873	519.4474	594.4707	640.2729	708.5112	729.9754	800.2696	888.4114	1007.4427	1028.345	1033.4711	1061.1887	1070.6675	1074.4931	1261.9014	1312.8036	1408.2688	1416.7835	1433.5772	1454.5217	1468.1516	1471.3462	1473.1573	1480.1463	1555.5047	1640.9691	1780.206	2881.0581	3047.6066	3055.8501	3106.1012	3117.9668	3146.6957	3147.4101
CC1=C(C=O)C(C)=NO1	Cc1c(C=O)c(C)no1	
InChI=1S/C6H7NO2/c1-4-6(3-8)5(2)9-7-4/h3H,1-2H3	InChI=1S/C6H7NO2/c1-4-6(3-8)5(2)9-7-4/h3H,1-2H3
