16
gdb 9797	3.05325	1.62311	1.43488	2.6875	64.91	-0.2581	0.0093	0.2674	933.4483	0.129918	-379.906189	-379.89772	-379.896776	-379.939033	31.218	
N	-0.2869900597	 1.4226179731	-0.1627032203	-0.577933
C	-0.0788902761	 0.0038536988	-0.0587177741	 0.329
C	-0.3183495057	-0.6164086089	 1.2942115807	-0.279954
C	-1.3078154434	-0.8340339705	 0.1750706401	-0.302917
C	 1.0242859586	-0.6079651282	-0.9255634389	-0.079913
O	 0.8176141994	-0.4092612986	-2.3120485396	-0.408922
C	 2.3395397942	-0.0658627636	-0.5122457161	 0.250208
N	 3.34152672	 0.4138771527	-0.1928164933	-0.323399
H	 0.552772743	 1.9474632921	 0.0640247359	 0.244607
H	-0.6040771381	 1.6928575288	-1.0880270167	 0.228675
H	 0.3082035189	-1.4472697288	 1.600692587	 0.120239
H	-0.5978219884	 0.0629890519	 2.0898850581	 0.130458
H	-2.2495162269	-0.3015184509	 0.2277191808	 0.128385
H	-1.3593412378	-1.8118782138	-0.2905017901	 0.121692
H	 1.0431689536	-1.6933080667	-0.7840668616	 0.134563
H	 0.8786994985	 0.5371840724	-2.4867134719	 0.285209
64.4616	130.0177	205.7639	236.0712	248.6211	321.8374	335.8629	375.0869	419.7117	518.9306	548.1971	616.0953	767.6453	778.7788	828.8469	872.0274	914.3318	930.7977	979.6295	1014.675	1058.1335	1074.2981	1086.1571	1187.6787	1238.4054	1266.1361	1277.6067	1294.5823	1376.9107	1416.1699	1458.1647	1496.8837	1651.5667	2349.9377	3070.7032	3140.0987	3144.1964	3227.5643	3239.9453	3490.1466	3578.3526	3796.282
NC1(CC1)C(O)C#N	NC1(CC1)[C@@H](O)C#N	
InChI=1S/C5H8N2O/c6-3-4(8)5(7)1-2-5/h4,8H,1-2,7H2	InChI=1S/C5H8N2O/c6-3-4(8)5(7)1-2-5/h4,8H,1-2,7H2/t4-/m0/s1
