14
gdb 29390	5.94948	0.9208	0.80131	1.0181	68.31	-0.2101	0.0126	0.2227	1311.4848	0.102342	-432.922957	-432.914946	-432.914002	-432.956809	29.022	
O	-0.7439936221	 1.1835695692	-0.6533213828	-0.434686
C	-0.2234508747	 0.0087272889	-0.2424790899	 0.342498
C	 0.6867493572	-0.7699159989	-0.9111871061	-0.20496
N	 0.8877191157	-1.8527129496	-0.0685486062	-0.279484
C	 0.1129170955	-1.6727249507	 1.025994485	 0.383029
C	 0.0477297231	-2.6337061098	 2.1814090268	-0.454776
C	 0.9165338154	-3.7919141299	 1.9852665401	 0.267275
N	 1.6179266472	-4.6880764365	 1.7858171798	-0.307352
N	-0.5768851044	-0.5495111294	 0.9532456558	-0.401675
H	-1.3490164891	 1.471343665	 0.0408429755	 0.30266
H	 1.1853659789	-0.6657733626	-1.8575397733	 0.137862
H	 1.4993387845	-2.6360443354	-0.2354053656	 0.284125
H	 0.3339259679	-2.1255216492	 3.1099424163	 0.182712
H	-0.982717665	-2.9801029511	 2.3244964145	 0.182772
20.2712	115.876	191.3068	281.1281	340.4863	366.1761	375.4383	442.1389	507.9962	554.0795	651.5217	682.6785	698.5176	729.5209	758.8515	945.668	950.2974	1014.9579	1035.01	1112.1981	1177.1046	1205.0257	1291.8222	1309.8875	1327.3184	1423.4162	1458.894	1502.999	1557.2879	1662.0394	2366.0691	3040.35	3069.9575	3300.932	3648.6445	3807.2885
OC1=CNC(CC#N)=N1	Oc1c[nH]c(CC#N)n1	
InChI=1S/C5H5N3O/c6-2-1-4-7-3-5(9)8-4/h3,9H,1H2,(H,7,8)	InChI=1S/C5H5N3O/c6-2-1-4-7-3-5(9)8-4/h3,9H,1H2,(H,7,8)
