21
gdb 121249	2.92262	0.90743	0.74385	2.7173	76.69	-0.2445	0.069	0.3135	1590.3058	0.180008	-461.311997	-461.301682	-461.300738	-461.348617	35.352	
C	 0.0823059428	 1.3330169978	 0.293704576	-0.224057
O	 0.0379499962	-0.0458011803	 0.0208514841	-0.234974
C	-1.2738252176	-0.5625368211	 0.0280910764	-0.054195
C	-1.186551451	-2.0581817766	-0.2021919079	 0.075796
O	-0.7749624336	-2.8041026821	 0.9684400642	-0.286869
C	-2.0204573772	-3.5263885691	 1.0208453105	-0.098127
C	-2.5225327829	-2.8296811345	-0.2661993566	 0.060802
O	-3.649424021	-2.0033180024	-0.1555349218	-0.239017
C	-4.8667014493	-2.7174986915	-0.1459665745	-0.239441
H	 1.1308874205	 1.6393116089	 0.2637741828	 0.126175
H	-0.4804173306	 1.9171160927	-0.4527435982	 0.100034
H	-0.327992848	 1.5668420486	 1.2889676324	 0.104476
H	-1.7768552115	-0.3586633368	 0.9851757455	 0.096187
H	-1.884217212	-0.1069937204	-0.7699406354	 0.093071
H	-0.5049468682	-2.2459890939	-1.0408825546	 0.087261
H	-1.8705278935	-4.6114000664	 0.967885852	 0.100349
H	-2.608501	-3.2809108593	 1.9150332408	 0.102575
H	-2.6202527847	-3.4993490473	-1.1323884627	 0.075592
H	-4.9911191762	-3.3129392268	-1.0637120502	 0.109525
H	-4.9401022754	-3.3947677794	 0.7179487271	 0.111863
H	-5.6729673769	-1.98322403	-0.0860674699	 0.132973
59.6968	73.9209	92.2137	107.0081	110.2317	199.1387	234.3214	242.9296	318.2726	348.3222	428.6268	501.1833	533.3234	790.7194	864.1649	888.3371	916.3904	991.4193	1018.6995	1047.2577	1077.1552	1088.0486	1129.4694	1161.8282	1167.9409	1180.6788	1184.7284	1187.6651	1220.2373	1237.8109	1249.9759	1278.5284	1289.4697	1332.5746	1363.153	1398.9932	1428.9868	1477.7335	1483.2264	1485.9306	1489.4234	1495.2844	1508.7021	1513.19	1517.3654	2961.0268	2972.0617	2977.9632	2997.9616	3007.586	3009.2075	3012.4931	3027.8821	3040.5218	3059.199	3112.5787	3121.4037
COCC1OCC1OC	COC[C@H]1OC[C@H]1OC	
InChI=1S/C6H12O3/c1-7-3-6-5(8-2)4-9-6/h5-6H,3-4H2,1-2H3	InChI=1S/C6H12O3/c1-7-3-6-5(8-2)4-9-6/h5-6H,3-4H2,1-2H3/t5-,6-/m1/s1
