19
gdb 112951	4.76277	0.837	0.73984	3.0273	74.31	-0.2338	0.0541	0.2878	1523.3478	0.158989	-456.354068	-456.344514	-456.34357	-456.389273	34.075	
C	 0.2004681473	 1.127773539	 0.3381198443	-0.242575
O	-0.2116605217	-0.0964407118	-0.2319292286	-0.241497
C	 0.5307338614	-0.4573297757	-1.3622142063	 0.122845
C	 1.9296515068	-1.1061623874	-1.1058762478	-0.192502
N	 1.3933113817	-2.3714593765	-1.6181923831	-0.107718
C	 0.0665242541	-1.8171037105	-1.9349379972	-0.217638
C	 2.1394930005	-3.2843354451	-2.3217189797	 0.40626
N	 1.3803910959	-4.18944579	-3.0559858721	-0.558392
O	 3.3573971315	-3.2789828595	-2.3225966279	-0.39441
H	 1.2418405393	 1.0897807315	 0.6903140943	 0.11408
H	 0.1082737083	 1.9580422874	-0.3791490915	 0.108955
H	-0.4519727173	 1.3218831018	 1.1921773275	 0.132916
H	 0.5514624333	 0.3626579232	-2.0927727259	 0.078093
H	 2.7623107001	-0.7188103385	-1.7003894183	 0.123856
H	 2.2202837979	-1.1438607205	-0.0509131841	 0.116266
H	-0.7578069231	-2.258241575	-1.3639205397	 0.119448
H	-0.1764180123	-1.8243555858	-3.002903947	 0.120127
H	 0.4724114485	-4.4377597028	-2.6922047209	 0.252249
H	 1.9246417777	-4.9770475138	-3.3744319162	 0.259636
43.6221	100.3923	113.991	164.5646	170.3498	209.1783	274.3345	376.2592	418.4937	450.877	477.06	559.0431	579.4296	680.4456	776.5337	795.6357	872.6041	923.9513	1003.9814	1025.4259	1079.3203	1101.9375	1142.0167	1162.2649	1171.4079	1180.9126	1186.1442	1207.3684	1253.5	1275.7148	1288.9186	1328.7058	1394.7994	1440.5623	1482.6765	1488.5037	1495.8055	1508.2743	1516.7374	1623.0979	1790.6716	2978.737	3009.7982	3028.6545	3030.5833	3044.3556	3082.432	3096.5299	3122.0141	3572.3648	3686.9923
COC1CN(C1)C(N)=O	COC1CN(C1)C(=O)N	
InChI=1S/C5H10N2O2/c1-9-4-2-7(3-4)5(6)8/h4H,2-3H2,1H3,(H2,6,8)	InChI=1S/C5H10N2O2/c1-9-4-2-7(3-4)5(6)8/h4H,2-3H2,1H3,(H2,6,8)
