20
gdb 96523	2.4583	1.5986	1.05969	4.5045	76.02	-0.2373	0.0406	0.2779	1162.2325	0.172624	-440.331205	-440.3224	-440.321455	-440.365143	32.546	
C	 0.0192779492	 1.4591252898	 0.0168100399	-0.337778
N	 0.0348245637	 0.0120241257	-0.1532685661	-0.119441
C	-1.2583600022	-0.6797064885	-0.1349695878	-0.162269
C	-1.5572226488	-1.4986736978	-1.3957374528	-0.190292
C	-0.7049041115	-2.7656100776	-1.4955733165	-0.194513
C	 0.7891699857	-2.4898116798	-1.3821423057	-0.077381
O	 1.1666909076	-1.9975114479	-0.0859742964	-0.251329
C	 1.2154764188	-0.6405268249	 0.1015472133	 0.42609
O	 2.2288554621	-0.1040127477	 0.479459417	-0.380452
H	 1.0365427024	 1.8327689233	-0.0869343465	 0.164885
H	-0.6201199461	 1.9161361661	-0.7453077744	 0.119328
H	-0.3557148494	 1.7500351839	 1.0074713348	 0.123227
H	-1.3242387014	-1.326043162	 0.7499689833	 0.120785
H	-2.0206090505	 0.0948900272	-0.0192490542	 0.111017
H	-2.6187991809	-1.7719488221	-1.3886050646	 0.100447
H	-1.3969215443	-0.8629476152	-2.27558989	 0.103264
H	-0.9858326153	-3.466106855	-0.6992201165	 0.110965
H	-0.8931069851	-3.2753551429	-2.448263308	 0.10113
H	 1.3583328709	-3.414839628	-1.5097668687	 0.120404
H	 1.119096695	-1.7821398168	-2.1528286502	 0.111913
53.2588	105.6062	140.2461	211.5223	246.0036	312.5692	328.3611	388.5193	406.0071	492.0907	568.0454	596.7235	727.208	805.3748	837.3185	867.9556	882.9757	937.4258	979.7087	1045.7247	1062.5411	1099.5627	1117.3671	1149.9027	1159.0633	1204.7461	1248.2855	1266.1978	1305.4433	1316.136	1363.4294	1389.5028	1394.9208	1412.8158	1426.6685	1449.616	1473.053	1479.9765	1494.1467	1496.0651	1501.7365	1520.3514	1814.9291	3011.4336	3021.7583	3026.4901	3028.9973	3029.8595	3065.8329	3075.9288	3077.2005	3093.8666	3094.7553	3167.7426
CN1CCCCOC1=O	CN1CCCCOC1=O	
InChI=1S/C6H11NO2/c1-7-4-2-3-5-9-6(7)8/h2-5H2,1H3	InChI=1S/C6H11NO2/c1-7-4-2-3-5-9-6(7)8/h2-5H2,1H3
