21
gdb 106409	2.47438	1.39947	1.30345	1.4561	79.25	-0.2455	0.0766	0.3221	1135.9529	0.180876	-424.16754	-424.158215	-424.15727	-424.201237	35.854	
C	 0.5284989936	 1.581530964	-0.4297564608	-0.261193
O	 0.4977194373	 0.1738069551	-0.2959049262	-0.293709
C	 0.9237628568	-0.5126300075	-1.4079823303	 0.413552
C	 0.3599675104	-0.476837663	-2.8739555019	-0.302853
C	 1.4894395493	-1.5511409651	-2.8597756793	-0.132388
C	 2.3501984649	-0.5373062849	-2.0549928138	-0.314534
C	 0.8957430433	-2.0607715001	-1.4938851495	 0.409749
C	 1.7286360688	-2.9125725363	-0.5440709873	-0.4911
O	-0.4243604354	-2.5729800272	-1.5313034703	-0.487698
H	 1.5490742991	 1.95176305	-0.6028373472	 0.11027
H	-0.1121283563	 1.9228085123	-1.2546304149	 0.115129
H	 0.1541342268	 1.9993877112	 0.5071956394	 0.128244
H	-0.657482566	-0.8302251728	-3.0189782845	 0.118767
H	 0.5799383439	 0.4231559179	-3.4527992153	 0.083567
H	 1.8198442937	-2.1575988185	-3.7008677572	 0.073499
H	 2.6355089843	 0.3620265213	-2.6047823041	 0.093922
H	 3.1834284404	-0.9129351857	-1.4618123948	 0.093239
H	 2.7618915132	-2.5812802533	-0.439766644	 0.124324
H	 1.2639900708	-2.9103811539	 0.4461214726	 0.138335
H	 1.7550323883	-3.9507042303	-0.9000678607	 0.104356
H	-0.3677591272	-3.525641233	-1.6536512798	 0.276522
70.8671	160.688	171.7063	201.5475	222.9664	239.3117	300.4753	345.6851	397.0739	434.9533	537.8079	568.091	583.1799	633.9405	699.5538	788.3231	816.7949	913.4888	939.4986	951.92	966.08	1000.8269	1038.5831	1052.825	1088.0513	1108.8114	1125.5512	1150.5187	1160.6669	1180.717	1193.0172	1196.0163	1214.3985	1229.33	1241.6566	1298.7122	1393.8596	1411.7227	1482.7858	1485.7815	1488.7376	1495.8634	1505.6236	1507.838	1545.0747	2992.6898	3027.0202	3045.9645	3073.3044	3078.4258	3097.7155	3121.9789	3134.8844	3136.3861	3151.3478	3175.3357	3819.2315
COC12CC(C1)C2(C)O	CO[C@@]12C[C@@H](C1)[C@]2(C)O	
InChI=1S/C7H12O2/c1-6(8)5-3-7(6,4-5)9-2/h5,8H,3-4H2,1-2H3	InChI=1S/C7H12O2/c1-6(8)5-3-7(6,4-5)9-2/h5,8H,3-4H2,1-2H3/t5-,6-,7-/m0/s1
