20
gdb 39853	3.09928	1.83182	1.50894	1.536	81.96	-0.224	0.0872	0.3113	947.0119	0.174157	-365.941436	-365.934845	-365.933901	-365.971959	28.535	
C	-0.0294179454	 1.4638424007	-0.0232803822	-0.366404
C	 1.2768747968	 0.6927047414	 0.0071801968	-0.360819
C	-0.0330242658	-0.0333800394	 0.0018414268	 0.477324
C	-0.5346720389	-0.9274432078	 1.1328272915	-0.159147
C	 0.2431172086	-2.2134786284	 0.7910011905	-0.166955
N	-0.6165348208	-2.313411808	-0.440343412	-0.154054
C	-1.7302068009	-1.617348244	 0.3507236286	 0.002086
C	-2.0952266847	-0.8152126442	-0.8975516947	-0.235182
C	-0.570145656	-0.919081937	-1.1226223778	-0.098752
H	-0.3250526974	 1.9980659778	 0.8741255509	 0.112115
H	-0.3037334798	 1.9660821729	-0.9464448314	 0.111313
H	 1.8799052893	 0.6809708103	-0.8954824642	 0.112625
H	 1.8555678175	 0.7064610043	 0.9259904474	 0.110735
H	-0.6158244508	-0.5081191853	 2.1372730862	 0.059466
H	 1.323120203	-2.1438184554	 0.6303171863	 0.100286
H	 0.0128334418	-3.0670233391	 1.4356047314	 0.100905
H	-2.4283779374	-2.2407280588	 0.9112145458	 0.075355
H	-2.6646678143	-1.43278266	-1.5953196446	 0.109269
H	-2.5332928357	 0.1798007733	-0.8019598382	 0.098884
H	-0.1063833592	-0.8652863934	-2.1074016972	 0.070951
177.5609	248.1875	277.1686	418.1546	424.4393	507.6473	570.7475	721.5456	741.7739	751.4015	777.705	820.0128	848.503	886.9005	916.6166	932.4174	947.3629	955.7742	971.9521	977.9558	1006.3264	1016.1297	1048.8279	1057.2292	1070.2798	1081.4268	1093.8122	1148.3573	1172.9675	1186.082	1203.5496	1207.6679	1231.1983	1239.1181	1247.1895	1267.6227	1282.8811	1318.885	1406.0998	1469.1859	1480.5436	1502.2434	1513.327	3046.2655	3072.2739	3094.2011	3103.8626	3107.8283	3117.9007	3118.2784	3121.7886	3135.8329	3194.316	3208.8179
C1CC11C2CN3C2CC13	C1CC21[C@@H]1CN3[C@@H]1C[C@@H]23	
InChI=1S/C8H11N/c1-2-8(1)5-4-9-6(5)3-7(8)9/h5-7H,1-4H2	InChI=1S/C8H11N/c1-2-8(1)5-4-9-6(5)3-7(8)9/h5-7H,1-4H2/t5-,6-,7+/m1/s1
