18
gdb 42439	4.78218	0.73568	0.70186	3.1172	81.18	-0.2488	0.023	0.2718	1631.4336	0.146279	-401.933822	-401.924265	-401.923321	-401.969809	34.312	
O	 0.1322730802	 0.1445227027	-0.7825619601	-0.39635
C	 0.0373908531	 1.2068372412	-0.1868654167	 0.452804
N	 1.0948422614	 1.7821155851	 0.4627033112	-0.340005
C	 2.4304636815	 1.2059697867	 0.4092467263	-0.2899
C	 3.4388074736	 2.1748126542	-0.0107590683	 0.285403
C	 4.2639809477	 2.9877160908	-0.3299462998	-0.446184
C	-1.2439421834	 1.9712295434	-0.1021789254	-0.127799
C	-2.1672051146	 1.8942402433	-1.3043724515	-0.24801
C	-2.5261460441	 1.160864559	-0.0538567397	-0.248786
H	 0.9862064846	 2.6887430392	 0.8861201664	 0.250686
H	 2.7106555135	 0.7848853402	 1.384691434	 0.137445
H	 2.3676753318	 0.3692961303	-0.293972088	 0.178458
H	 4.9986790641	 3.6943960119	-0.6276222	 0.203185
H	-1.2235912241	 2.9043455858	 0.4515040602	 0.077812
H	-2.7183500142	 2.7903898772	-1.5648838849	 0.114719
H	-1.8030181153	 1.3063322222	-2.1384286597	 0.141413
H	-2.4016394604	 0.0845550607	-0.0555267829	 0.14068
H	-3.3303224455	 1.540744926	 0.5656869789	 0.114427
24.2609	60.785	84.5921	180.5953	214.8106	281.9009	311.0903	328.7238	369.4729	452.5818	563.1955	617.8403	663.8756	667.8511	753.4408	790.2769	831.8562	855.9056	919.0778	940.7011	955.4262	1035.4665	1068.4227	1085.2498	1094.8343	1114.7677	1120.0708	1208.5433	1212.6988	1232.4929	1259.6104	1367.0063	1413.3198	1451.7476	1484.3066	1486.4774	1531.1696	1761.2578	2241.6324	3009.6309	3085.7275	3142.5988	3144.2153	3156.9948	3231.1279	3245.0244	3505.1358	3651.3793
O=C(NCC#C)C1CC1	O=C(NCC#C)C1CC1	
InChI=1S/C7H9NO/c1-2-5-8-7(9)6-3-4-6/h1,6H,3-5H2,(H,8,9)	InChI=1S/C7H9NO/c1-2-5-8-7(9)6-3-4-6/h1,6H,3-5H2,(H,8,9)
