16
gdb 70052	4.17839	1.14695	1.00058	4.4131	72.56	-0.2569	-0.0758	0.1811	1179.2083	0.123115	-437.890859	-437.882849	-437.881905	-437.923507	29.746	
C	-0.0156361196	 1.5031318115	-0.104270909	-0.476119
C	 0.0607618651	 0.0130028329	 0.0317310372	 0.389186
C	-0.8266514097	-0.8197478789	 0.9046061302	-0.346022
C	 0.6734130656	-0.832488523	 1.156734554	-0.063043
N	 1.4081750033	-1.8841209237	 0.5134649371	-0.268335
C	 1.2254029085	-1.7239596259	-0.7403872346	 0.280893
O	 0.4951739715	-0.6486557819	-1.1560361148	-0.270884
C	 1.7643433264	-2.5673114429	-1.8464399318	 0.100977
O	 2.4099024648	-3.5667968646	-1.6760311165	-0.224568
H	 0.9420719424	 1.9150673028	-0.4357371028	 0.136145
H	-0.7854681638	 1.7920363919	-0.8272945772	 0.138338
H	-0.2717046366	 1.9530145164	 0.8586685005	 0.130931
H	-1.4234826537	-0.278021968	 1.6299675068	 0.127943
H	-1.2850454823	-1.7162544556	 0.5007558347	 0.131669
H	 1.0728959426	-0.449281927	 2.0879070343	 0.111789
H	 1.5143536055	-2.1759562441	-2.8539835779	 0.101101
92.7386	171.6226	174.2802	199.5503	249.4557	316.6992	420.449	440.8733	490.689	631.5725	651.9559	713.1017	787.4106	806.0742	881.7005	953.3547	959.8012	971.8539	1024.6958	1030.0435	1045.6253	1094.5884	1104.5444	1143.8203	1210.8494	1267.9557	1286.02	1381.87	1421.92	1433.6077	1470.2302	1477.0496	1498.3775	1660.3518	1830.0482	2928.5046	3040.5203	3107.7846	3123.1121	3133.0374	3185.8491	3227.6944
CC12CC1N=C(O2)C=O	C[C@]12C[C@H]1N=C(O2)C=O	
InChI=1S/C6H7NO2/c1-6-2-4(6)7-5(3-8)9-6/h3-4H,2H2,1H3	InChI=1S/C6H7NO2/c1-6-2-4(6)7-5(3-8)9-6/h3-4H,2H2,1H3/t4-,6+/m1/s1
