21
gdb 104263	2.1837	1.4365	1.11037	1.7601	84.83	-0.2417	0.053	0.2948	1218.1099	0.179566	-387.038687	-387.02869	-387.027745	-387.073248	37.503	
C	-0.2071286387	 1.4664882251	-0.0916817694	-0.252103
O	-0.4266056837	 0.1043209651	-0.3855790035	-0.27379
C	 0.5587062794	-0.5179134078	-1.1734783268	 0.441492
C	 0.5761066821	 0.0164063446	-2.6056211595	-0.450608
C	 1.9802660153	-0.6613668884	-0.5480431717	-0.272849
C	 1.9772551492	-2.1576649806	-0.9495990557	-0.230148
C	 0.4236333579	-2.087854996	-1.1504622933	-0.288818
C	-0.3384232906	-2.636010373	-0.0466983118	 0.376439
C	-0.9474202235	-3.1271064583	 0.8663989432	-0.473461
H	 0.7843223014	 1.6382389453	 0.352747022	 0.106936
H	-0.3064985771	 2.1125854003	-0.9755288837	 0.106908
H	-0.9691481533	 1.7570096103	 0.6355003004	 0.12977
H	 0.8966569462	 1.0622291659	-2.638084948	 0.117085
H	 1.2692897364	-0.5571453129	-3.2285002148	 0.118702
H	-0.4239230498	-0.0548702739	-3.0447484187	 0.126063
H	 2.776501652	-0.0289808167	-0.9479728397	 0.093817
H	 1.9314845012	-0.5416217112	 0.5368807534	 0.117438
H	 2.4977670881	-2.3492488899	-1.8905442233	 0.105712
H	 2.3227796802	-2.8710604073	-0.2017253271	 0.115294
H	 0.0590731853	-2.5070221906	-2.0937031404	 0.09626
H	-1.4995046278	-3.54430479	 1.6713491184	 0.189862
80.8877	99.567	124.2242	197.2466	210.9472	241.2352	261.5828	319.9926	348.4976	383.8741	443.0865	486.3269	578.9918	616.8498	623.9544	649.7247	732.3332	810.1847	891.783	901.0106	916.0293	957.4727	967.7503	1029.7442	1101.9072	1116.4135	1140.6859	1176.2272	1181.7523	1195.9769	1227.4856	1234.4201	1264.6695	1273.1104	1283.5266	1337.6549	1402.4065	1471.1233	1476.4592	1483.7898	1489.9945	1494.3739	1505.4526	1510.0824	2234.8285	2986.8056	3033.0322	3038.934	3049.415	3062.5013	3076.6185	3106.8386	3112.1066	3114.0644	3117.8516	3140.6788	3505.8674
COC1(C)CCC1C#C	CO[C@@]1(C)CC[C@H]1C#C	
InChI=1S/C8H12O/c1-4-7-5-6-8(7,2)9-3/h1,7H,5-6H2,2-3H3	InChI=1S/C8H12O/c1-4-7-5-6-8(7,2)9-3/h1,7H,5-6H2,2-3H3/t7-,8+/m1/s1
