21
gdb 71929	2.74004	1.90012	1.44943	0.1626	86.24	-0.2269	0.0224	0.2494	991.1293	0.184873	-349.945557	-349.938278	-349.937334	-349.976609	30.85	
C	 0.005809077	 1.5637765589	 0.0229861186	-0.480773
C	-0.0046709782	 0.0416021124	 0.021423344	 0.318306
C	 0.2731489074	-0.6391820452	-1.3781905775	-0.279059
C	-1.0327936655	-1.4684791188	-1.2539536237	-0.013712
C	-0.935939991	-2.7872887458	-0.4396888473	-0.236556
C	-1.1182940058	-1.9831570686	 0.9035183001	-0.072773
C	 0.1641172188	-1.6831982574	 1.6352363252	-0.089534
C	 0.7698169642	-0.5977666027	 1.1510236468	-0.12624
C	-1.3861022738	-0.6979024935	 0.0586586323	-0.079858
H	 1.0184188115	 1.951854756	-0.1411564551	 0.111838
H	-0.6343297601	 1.9662653553	-0.7697257652	 0.110076
H	-0.3529123493	 1.9604096375	 0.979419418	 0.11492
H	 0.2211215853	 0.0836625414	-2.1985706139	 0.092185
H	 1.2093590151	-1.1977181154	-1.4672923983	 0.090497
H	-1.6789685732	-1.4873246094	-2.1325792364	 0.060689
H	-1.7841072241	-3.4485507443	-0.6392487422	 0.095827
H	-0.0126216075	-3.3659039117	-0.5359589057	 0.091086
H	-1.9217409602	-2.3570070611	 1.5428576743	 0.064416
H	 0.5627906032	-2.3273794933	 2.412202809	 0.089499
H	 1.7353517891	-0.2203796495	 1.4743617138	 0.085924
H	-2.2958330728	-0.1179751246	 0.2188200632	 0.053242
187.0759	220.4887	242.3084	292.2228	341.5265	390.9703	510.5719	559.6407	639.8919	688.4155	768.9166	775.683	789.7549	821.6529	859.497	884.7582	906.5503	920.6933	923.5426	951.8419	970.8514	991.1948	1000.79	1040.8523	1093.4827	1100.7771	1132.546	1153.5791	1165.6636	1182.981	1209.3791	1230.4397	1248.5075	1261.37	1264.81	1289.8854	1313.1066	1326.2598	1377.7342	1408.4665	1473.5663	1482.9928	1491.079	1496.3313	1668.6675	3018.5633	3041.144	3045.0406	3069.822	3083.3989	3085.4321	3090.5776	3096.3988	3099.649	3106.4037	3167.4491	3194.5853
CC12CC3CC(C=C1)C23	C[C@@]12C[C@H]3C[C@@H](C=C1)[C@@H]23	
InChI=1S/C9H12/c1-9-3-2-6-4-7(5-9)8(6)9/h2-3,6-8H,4-5H2,1H3	InChI=1S/C9H12/c1-9-3-2-6-4-7(5-9)8(6)9/h2-3,6-8H,4-5H2,1H3/t6-,7-,8-,9+/m1/s1
