17
gdb 87513	3.63474	1.38076	1.29549	0.6357	72.25	-0.2424	-0.0036	0.2387	1033.3383	0.135176	-421.752969	-421.745531	-421.744587	-421.784704	29.352	
C	 0.0119873062	 1.5288348611	-0.115403461	-0.414172
C	-0.0096148571	 0.0335885123	 0.0534579116	-0.057008
O	 1.2730766439	-0.6570083383	-0.0690437783	-0.29433
C	 0.6284476526	-0.6556962495	 1.163514897	 0.481541
C	 1.13794936	-0.1914677424	 2.5588276843	-0.093257
O	-0.0673944208	-0.8351212901	 3.0854137111	-0.280779
C	 0.2030396669	-1.8503206125	 2.0639353513	-0.092817
C	 1.5758622535	-2.3804928597	 2.5001709136	-0.074164
C	 2.2116061933	-1.2536631409	 2.8353998889	-0.071609
H	 0.8482304167	 1.9723356751	 0.4306881651	 0.126001
H	 0.1103210285	 1.7965380318	-1.172381461	 0.132108
H	-0.9207819946	 1.964872974	 0.2579419622	 0.130925
H	-0.819157471	-0.4855660142	-0.4617273388	 0.099384
H	 1.2777454162	 0.8436340081	 2.8643279942	 0.087719
H	-0.6235836225	-2.5266983052	 1.8551675202	 0.08787
H	 1.9116276067	-3.4063648006	 2.489282819	 0.116561
H	 3.2204218616	-1.0854864291	 3.1807087206	 0.116025
139.0899	152.5441	187.6191	240.6791	361.9022	439.5667	493.8051	574.8616	583.0212	639.2854	724.1715	792.7843	798.2786	862.4359	875.9443	887.1949	905.2344	912.8297	956.7132	987.3624	1003.2221	1032.0721	1094.0986	1126.9056	1150.658	1153.0389	1188.2996	1209.179	1227.2996	1285.5458	1303.4377	1348.5019	1410.4619	1475.6759	1491.3679	1543.6148	1610.3273	3039.2331	3098.5442	3103.9403	3128.4447	3145.5919	3148.6868	3237.922	3264.1531
CC1OC11C2OC1C=C2	C[C@H]1O[C@]21[C@H]1O[C@@H]2C=C1	
InChI=1S/C7H8O2/c1-4-7(9-4)5-2-3-6(7)8-5/h2-6H,1H3	InChI=1S/C7H8O2/c1-4-7(9-4)5-2-3-6(7)8-5/h2-6H,1H3/t4-,5-,6+,7+/m1/s1
