17
gdb 45250	3.19852	1.67565	1.38003	1.6609	71.88	-0.2389	0.0219	0.2608	949.0936	0.13877	-417.982437	-417.975686	-417.974742	-418.0136	27.137	
N	-0.1158337116	 1.1916556579	-0.7290579744	-0.546884
C	-0.0644234344	 0.0882014299	-0.1397614202	 0.432343
O	 0.9560587734	-0.4972504963	 0.5909171936	-0.276649
C	 0.2057251922	-1.7618180482	 0.6940096449	 0.094041
C	-0.2002513443	-2.181132472	 2.1069766844	-0.193186
N	-1.5364199644	-1.6323131541	 2.4069391486	-0.100036
C	-1.6103353308	-0.1664890865	 2.399875295	-0.248913
C	-2.0231128406	-0.9307197022	 1.1938816397	-0.033038
C	-1.0222101969	-1.0725612911	 0.0484552591	-0.166593
H	 0.7572540603	 1.7119072469	-0.6252045964	 0.229327
H	 0.7253600252	-2.5358879841	 0.125509101	 0.102852
H	-0.2721555616	-3.2736329108	 2.1473817352	 0.117302
H	 0.5351260377	-1.8647478487	 2.853178532	 0.128444
H	-2.3684494295	 0.2511239697	 3.0565705872	 0.120512
H	-0.6856221507	 0.402668733	 2.3580385665	 0.133605
H	-3.0756386634	-1.0456654965	 0.956869478	 0.102374
H	-1.4599431806	-1.492676287	-0.8556098142	 0.104498
112.8293	171.8946	279.1212	361.9871	416.5538	465.2441	613.2862	678.9818	697.6221	751.3597	777.7615	830.4003	844.3214	871.6114	875.7355	942.929	959.2689	988.6447	1005.4112	1033.0207	1052.6791	1068.845	1114.0537	1126.274	1160.6127	1204.9311	1214.9967	1235.1538	1268.4756	1281.2428	1307.8391	1334.7186	1356.8396	1385.8186	1478.8508	1510.3228	1827.3442	3043.8565	3090.4766	3096.6171	3109.9379	3131.6519	3162.7327	3196.3401	3474.4042
N=C1OC2CN3CC3C12	[NH][C]1O[C@H]2CN3C[C@H]3[C@@H]12	
InChI=1S/C6H8N2O/c7-6-5-3-1-8(3)2-4(5)9-6/h3-5,7H,1-2H2	InChI=1S/C6H8N2O/c7-6-5-3-1-8(3)2-4(5)9-6/h3-5,7H,1-2H2/t3-,4-,5+,8?/m0/s1
