19
gdb 92836	2.28851	1.64611	1.5291	2.6184	77.29	-0.2419	-0.0029	0.239	1005.6143	0.158996	-422.999822	-422.991456	-422.990511	-423.032256	33.09	
O	 0.114120559	 1.4329657229	 0.0484568724	-0.430568
C	 0.0652301257	 0.018631215	-0.0096523298	 0.070546
C	 0.5661256874	-0.6210906859	 1.326733289	-0.281045
C	-0.7129636556	-0.7091780241	 2.1646389692	-0.26071
C	-1.7608139161	-0.731469422	 1.3437786394	 0.241417
C	-3.1910578238	-0.2823327478	 1.1199855811	-0.33992
C	-2.6795422147	 0.304933964	-0.254856145	-0.296838
C	-1.3742083195	-0.5491101713	-0.1036168037	 0.373806
O	-1.3118237403	-1.710178085	-0.9203083397	-0.492617
H	-0.2891511467	 1.7017987223	 0.8823573921	 0.277526
H	 0.6623224044	-0.2693246834	-0.877601768	 0.095141
H	 1.0211725341	-1.6045537987	 1.1568573015	 0.119991
H	 1.3313695447	 0.0137212338	 1.7855502413	 0.105856
H	-0.7183230248	-0.6693665064	 3.2487904879	 0.097422
H	-3.9046528201	-1.1008516171	 0.9749559156	 0.109259
H	-3.6152041024	 0.4117290898	 1.8498319544	 0.114527
H	-3.2816938066	 0.0757010658	-1.1370512591	 0.104201
H	-2.4836258954	 1.3780222965	-0.2135958968	 0.114126
H	-2.0165282992	-2.3111461582	-0.6565694818	 0.277879
102.657	181.0927	220.8892	231.3037	264.6039	324.0014	362.766	412.9634	457.7073	514.8104	592.6509	665.9499	716.0567	763.2338	803.4534	818.9809	866.1617	902.1983	915.275	926.8061	982.222	992.4229	1060.0319	1075.9366	1116.9977	1122.3718	1151.2072	1174.1185	1204.6822	1211.5339	1224.7712	1246.3746	1289.1441	1299.5538	1332.6886	1362.6894	1421.8069	1466.382	1474.708	1484.6855	1716.7784	3033.3685	3042.455	3070.8338	3079.5793	3098.0001	3099.2532	3136.5047	3185.4273	3784.2554	3806.8392
OC1CC=C2CCC12O	O[C@H]1C[CH][C]2CC[C@@]12O	
InChI=1S/C7H10O2/c8-6-2-1-5-3-4-7(5,6)9/h1,6,8-9H,2-4H2	InChI=1S/C7H10O2/c8-6-2-1-5-3-4-7(5,6)9/h1,6,8-9H,2-4H2/t6-,7-/m0/s1
