14
gdb 24500	3.99534	1.74602	1.21503	5.504	76.72	-0.2369	-0.0331	0.2039	934.0755	0.106531	-395.821361	-395.815504	-395.81456	-395.851398	23.855	
N	-0.0308160707	 1.365364522	 0.0099605593	-0.389852
C	 1.2916580307	 1.7455717928	-0.0003735163	 0.020729
N	 2.1303816087	 0.7465124433	-0.0141289554	-0.309564
C	 1.3291577705	-0.383810607	-0.0130618808	 0.328835
C	-0.0406984984	-0.0124403397	 0.0020921814	 0.330352
C	-1.0356034628	-0.9800267568	 0.0059378006	-0.236728
C	-0.5845651145	-2.2944686783	-0.0059512487	-0.099317
C	 0.7941467124	-2.569525224	-0.0206316389	-0.037179
N	 1.7547400694	-1.6474637612	-0.0244150877	-0.327516
H	-0.8282724302	 1.9786165123	 0.0210964692	 0.269541
H	 1.5680356299	 2.7909432162	 0.003055764	 0.14063
H	-2.0926719148	-0.7362060077	 0.0173817308	 0.102981
H	-1.2902268452	-3.1172446166	-0.0040147942	 0.101147
H	 1.1273191251	-3.6045831554	-0.0297864933	 0.10594
232.8399	259.5047	438.021	449.9776	454.9993	561.0169	609.4891	645.264	655.9618	789.6639	803.0108	831.4822	878.8118	900.6409	939.7297	942.2246	975.6279	1056.1372	1096.7985	1137.7638	1197.6269	1273.1933	1298.3756	1349.6027	1376.1348	1398.0447	1440.6524	1518.9254	1541.3079	1604.044	1661.4904	3154.8762	3180.4947	3203.0415	3240.3722	3664.3401
N1C=NC2=C1C=CC=N2	[nH]1cnc2c1cccn2	
InChI=1S/C6H5N3/c1-2-5-6(7-3-1)9-4-8-5/h1-4H,(H,7,8,9)	InChI=1S/C6H5N3/c1-2-5-6(7-3-1)9-4-8-5/h1-4H,(H,7,8,9)
