14
gdb 6434	4.55725	1.35847	1.26425	0.6571	59.34	-0.2552	-0.0496	0.2056	947.2085	0.103978	-419.690936	-419.683287	-419.682342	-419.723413	28.051	
O	 0.2182103984	 1.5246384755	-0.2271291847	-0.477735
C	-0.0063421332	 0.1753463768	 0.0204318578	 0.33024
C	 0.1669160853	-0.2793290386	 1.5185550434	-0.412813
C	-1.2392270435	-0.8889972565	 1.4546691238	 0.417713
O	-1.8508673109	-1.631564971	 2.1636717614	-0.281803
C	-1.5182224126	-0.2622841849	 0.0826646391	-0.41281
C	 0.7967381546	-0.6751065077	-0.9321734894	 0.113521
O	 1.5152959479	-0.1851101493	-1.7695938977	-0.273021
H	 0.8481202842	 1.5580169437	-0.9658363234	 0.295681
H	 0.9857870126	-0.9561993259	 1.7771917318	 0.137255
H	 0.2140642313	 0.6030258665	 2.1641081101	 0.159928
H	-2.1526371791	 0.6270057052	 0.1474824199	 0.159931
H	-1.9114690272	-0.9268160399	-0.6915097027	 0.137254
H	 0.6914711721	-1.7737918637	-0.8217259395	 0.106659
46.0987	112.5884	284.8188	286.8423	358.478	370.8133	404.2488	462.237	482.3034	534.7675	654.3271	709.2733	823.7985	843.3314	875.3105	927.6331	1002.0726	1047.2355	1078.4305	1117.0153	1138.9627	1194.1603	1226.4747	1301.5968	1389.9042	1411.2164	1431.8388	1442.6239	1809.6402	1902.0636	2930.2436	3059.292	3063.1538	3120.4074	3121.3551	3676.4132
OC1(CC(=O)C1)C=O	OC1(CC(=O)C1)C=O	
InChI=1S/C5H6O3/c6-3-5(8)1-4(7)2-5/h3,8H,1-2H2	InChI=1S/C5H6O3/c6-3-5(8)1-4(7)2-5/h3,8H,1-2H2
