17
gdb 91214	2.11706	1.6436	1.53887	2.9531	67.76	-0.2667	-0.0046	0.2622	997.7051	0.134869	-458.974438	-458.966027	-458.965083	-459.007419	31.407	
C	-0.5338382197	 1.3814424931	 0.0918957607	-0.420776
C	 0.0564093257	-0.0159615377	-0.0251893192	-0.016055
C	 1.3501955151	-0.2422148267	-0.8769083864	-0.263322
C	 2.0393946071	-0.8768592059	 0.3394576352	 0.033287
O	 2.728609911	 0.1442341829	 1.1377920375	-0.256142
C	 1.6641961465	 0.3005746196	 1.992786401	 0.377924
O	 1.6168816791	 0.9404361389	 2.9950474561	-0.335286
C	 0.7511012038	-0.6541552138	 1.217290312	 0.213426
O	-0.0317026029	-1.5592231831	 1.9065875945	-0.463513
H	 0.2211154015	 2.113561633	 0.3966476397	 0.132715
H	-0.9459202223	 1.7076270074	-0.8686631102	 0.121121
H	-1.3419738132	 1.404610314	 0.82979577	 0.133924
H	-0.7165776009	-0.7281092431	-0.3300034155	 0.101963
H	 1.2085523477	-0.9258503217	-1.7162534301	 0.115733
H	 1.8516142152	 0.660994735	-1.2312163773	 0.12197
H	 2.6276071346	-1.7898570185	 0.2719701037	 0.103619
H	 0.3483695316	-1.7118109433	 2.7792292282	 0.29941
91.7096	117.8032	201.3748	210.3062	239.6033	317.8756	353.1553	400.355	420.307	539.548	611.0809	705.0316	736.5204	789.3826	842.7837	869.4474	911.8418	950.2704	967.7173	993.1112	1072.9639	1101.8368	1120.0384	1128.1428	1181.5938	1186.8527	1224.7826	1268.7446	1309.4238	1340.2612	1360.9154	1382.3954	1414.9585	1471.0274	1492.1627	1496.6972	1922.7498	3034.0214	3062.107	3074.6682	3103.1411	3108.3577	3129.794	3142.3443	3801.3719
CC1CC2OC(=O)C12O	C[C@H]1C[C@H]2OC(=O)[C@@]12O	
InChI=1S/C6H8O3/c1-3-2-4-6(3,8)5(7)9-4/h3-4,8H,2H2,1H3	InChI=1S/C6H8O3/c1-3-2-4-6(3,8)5(7)9-4/h3-4,8H,2H2,1H3/t3-,4+,6+/m0/s1
