18
gdb 31746	5.95656	0.82229	0.73858	2.2587	77.45	-0.1834	0.0407	0.224	1516.5051	0.14763	-439.099471	-439.090277	-439.089333	-439.133772	33.498	
C	-0.1284029182	 1.5226075992	-0.0916583791	-0.239949
O	-0.08133707	 0.1932890918	-0.5627407042	-0.263027
C	-1.1520144142	-0.5765328056	-0.2333168328	 0.372045
C	-2.2849964411	-0.2386534684	 0.4804127075	-0.229374
N	-3.0786867228	-1.3680014491	 0.5183399215	-0.300356
C	-2.4577557252	-2.4040472674	-0.1196034102	 0.367159
C	-3.1385143989	-3.7256507917	-0.2434331554	-0.198952
O	-3.9008873753	-3.9422766105	 0.9443296254	-0.426164
C	-1.2550648606	-1.9445441249	-0.6101677731	-0.403894
H	 0.7862452443	 2.0125479638	-0.4307217257	 0.127356
H	-0.9989583465	 2.0596756757	-0.4948337754	 0.113502
H	-0.1733512318	 1.5573549532	 1.0062796126	 0.113977
H	-2.58434469	 0.6751238653	 0.9626703022	 0.11161
H	-3.909682451	-1.4916096941	 1.0700493987	 0.2636
H	-3.8035586454	-3.7425623003	-1.1232916737	 0.10069
H	-2.3831898884	-4.510776443	-0.3934974431	 0.107205
H	-4.4955677438	-4.68102128	 0.784748913	 0.290561
H	-0.530474761	-2.502887524	-1.1816358082	 0.094011
59.358	85.014	152.8675	206.8593	225.7659	274.7313	292.6432	341.8194	371.4059	492.1138	542.1572	623.2888	633.6851	666.0641	684.4322	732.9948	786.1826	975.5638	996.2491	1023.6454	1054.0338	1078.5129	1132.227	1181.3972	1182.5665	1213.1466	1222.6865	1241.087	1287.9334	1326.283	1431.3776	1449.7873	1472.3259	1483.0872	1488.6374	1510.6524	1516.7741	1559.6726	1636.9046	2952.4227	2987.792	3006.5482	3038.9875	3126.8156	3255.4326	3282.7625	3685.7058	3829.5625
COC1=CNC(CO)=C1	COc1c[nH]c(CO)c1	
InChI=1S/C6H9NO2/c1-9-6-2-5(4-8)7-3-6/h2-3,7-8H,4H2,1H3	InChI=1S/C6H9NO2/c1-9-6-2-5(4-8)7-3-6/h2-3,7-8H,4H2,1H3
