25
gdb 102649	2.03378	0.97512	0.70757	1.6534	89.81	-0.2626	0.0902	0.3527	1701.9401	0.227081	-389.479146	-389.468118	-389.467174	-389.51634	39.785	
C	 0.2467224567	 1.3447157627	-0.1125757766	-0.389466
C	 0.0218192758	-0.1710461181	-0.1175902052	-0.190079
C	-1.448886943	-0.5995026266	 0.0753247132	 0.053491
C	-2.2916622912	-0.3231315339	-1.1870699229	-0.182335
C	-3.8082716888	-0.3440441623	-0.9677308272	-0.389891
C	-1.5427216329	-2.0834876652	 0.4911654265	-0.23775
C	-1.0944636852	-2.3633634673	 1.9061944612	 0.097233
C	-0.5131803995	-3.6503398237	 2.3083467349	-0.185297
O	 0.3107223259	-2.4934932026	 2.1561884516	-0.229177
H	 1.3067499994	 1.5813526827	-0.2484569898	 0.112209
H	-0.3049216669	 1.8529171175	-0.9101954156	 0.113798
H	-0.0697586954	 1.7851657866	 0.8398051346	 0.112552
H	 0.3879615562	-0.5961567309	-1.0629487442	 0.087207
H	 0.6321712691	-0.6231522492	 0.6693316714	 0.128739
H	-1.8705377098	 0.002644398	 0.8960277257	 0.061844
H	-2.0159342145	 0.6562077121	-1.593703977	 0.095127
H	-2.0188453866	-1.0555587517	-1.9597157547	 0.091493
H	-4.3415710388	-0.1264922786	-1.898595234	 0.112539
H	-4.1640418975	-1.3157935505	-0.6102728602	 0.11548
H	-4.1090810701	 0.4086961088	-0.2302789674	 0.114316
H	-2.5813643053	-2.4272719969	 0.4066643654	 0.097689
H	-0.9496811116	-2.6980471742	-0.1982650123	 0.098543
H	-1.6171969845	-1.791107444	 2.6762954046	 0.088149
H	-0.6327395044	-4.0085070994	 3.3300435854	 0.111973
H	-0.3681983368	-4.4285961332	 1.5596917622	 0.111615
40.8484	78.0234	88.5763	97.4146	163.4172	202.2317	229.9898	240.1432	274.5513	337.0806	378.7909	446.1956	459.0885	503.8089	752.158	774.8396	791.2728	833.2447	865.4558	892.9817	944.3457	963.1195	992.6216	1025.2556	1039.7491	1054.0157	1065.6371	1089.3178	1141.8877	1154.9488	1167.6971	1174.4289	1184.8613	1242.6926	1272.4041	1294.0745	1306.0165	1324.6751	1341.1059	1362.8084	1388.2528	1396.5592	1413.8094	1415.948	1446.5158	1467.7884	1485.6003	1492.6061	1500.3566	1503.2663	1506.8485	1509.5888	1530.0726	2975.0592	3010.9698	3015.9389	3023.7276	3031.4778	3031.7172	3059.2871	3061.439	3079.5667	3083.4659	3086.2992	3097.2625	3098.0402	3101.1606	3107.0921	3165.58
CCC(CC)CC1CO1	CCC(CC)C[C@H]1CO1	
InChI=1S/C8H16O/c1-3-7(4-2)5-8-6-9-8/h7-8H,3-6H2,1-2H3	InChI=1S/C8H16O/c1-3-7(4-2)5-8-6-9-8/h7-8H,3-6H2,1-2H3/t8-/m0/s1
