17
gdb 7858	4.52007	1.18575	1.11133	5.994	65.07	-0.2505	0.0257	0.2762	1102.9812	0.142535	-401.018478	-401.010426	-401.009482	-401.051542	29.375	
C	 0.3613755508	 1.4051623141	-0.3641200252	-0.399328
C	-0.1161086526	 0.0627199549	 0.1305320482	-0.00216
N	 0.8943466224	-0.9931124195	 0.3185833856	-0.352867
H	 0.5519002879	-1.9037146222	 0.0284792257	 0.24795
H	 2.4586080733	-1.0733272111	 1.2747121354	 0.311807
C	 0.1447557451	-0.4840171369	 1.4935482211	-0.024108
C	 0.9649687428	 0.2240794071	 2.5586084352	-0.354025
C	 2.1582344954	-0.5831381962	 3.091039984	 0.401678
O	 2.9045794363	-1.1771214639	 2.1458372288	-0.371183
O	 2.4390321042	-0.6457125298	 4.2574818729	-0.326496
H	 1.3398583766	 1.6641535869	 0.0459316383	 0.134199
H	 0.4551215656	 1.3932625553	-1.4546653836	 0.131255
H	-0.3500822954	 2.1927784552	-0.0949257187	 0.128596
H	-1.052960737	-0.2654445847	-0.3170611738	 0.098448
H	-0.6179434169	-1.1495298232	 1.8912934724	 0.107018
H	 1.373538011	 1.1616151493	 2.1658352794	 0.132403
H	 0.3374120703	 0.4806425748	 3.4135870343	 0.136812
58.9321	91.5486	164.2121	240.1124	255.6386	363.3963	405.4844	473.5984	492.0804	598.4169	693.8715	771.1839	824.4907	846.0604	882.0986	925.5495	946.1563	980.76	1017.3084	1041.1226	1091.7516	1154.2489	1170.2577	1234.2418	1252.2807	1273.1976	1295.3088	1309.2271	1398.5431	1423.9352	1450.9817	1459.3209	1467.4175	1490.7235	1503.6716	1864.7215	3042.8401	3059.3197	3105.7379	3113.6738	3123.0816	3133.2898	3141.5357	3409.749	3524.6987
CC1[NH2+]C1CC([O-])=O	C[C@H]1N[C@H]1CC(=O)O	
InChI=1S/C5H9NO2/c1-3-4(6-3)2-5(7)8/h3-4,6H,2H2,1H3,(H,7,8)	InChI=1S/C5H9NO2/c1-3-4(6-3)2-5(7)8/h3-4,6H,2H2,1H3,(H,7,8)/t3-,4+/m1/s1
