18
gdb 10149	2.67464	1.25618	0.90075	2.3004	75.29	-0.2517	-0.0314	0.2203	1287.6577	0.150233	-347.784756	-347.775091	-347.774146	-347.820062	33.547	
C	 0.0316467173	 1.5531532262	 0.0231531	-0.387809
C	 0.0148345553	 0.0238164903	-0.0479983721	-0.177457
C	-1.4040964037	-0.548727785	 0.0329209333	-0.185579
C	-1.4478514155	-2.1027287342	-0.0185795091	-0.254383
C	-0.8249541367	-2.6694672467	 1.2611054039	 0.171624
O	 0.2581133864	-3.1849058592	 1.3184203975	-0.244396
C	-2.8132503517	-2.5986184234	-0.14148296	 0.287897
C	-3.9424343298	-3.0078834168	-0.1949538232	-0.428594
H	 1.05261199	 1.9402201752	-0.0453634892	 0.118733
H	-0.5486971099	 1.9956772473	-0.7939624765	 0.116938
H	-0.3978576621	 1.9113199352	 0.9652177863	 0.117296
H	 0.4828144248	-0.3077590086	-0.9836812075	 0.104855
H	 0.6311417799	-0.3904233881	 0.7585957299	 0.116577
H	-1.8996748925	-0.2129919721	 0.9531892178	 0.110143
H	-2.0121319947	-0.1697753656	-0.7955990577	 0.118063
H	-0.8355647945	-2.4542668683	-0.8570769513	 0.12378
H	-1.4650881308	-2.5401899827	 2.1624630535	 0.090536
H	-4.9369640018	-3.3740032135	-0.2642396755	 0.201777
51.5442	79.7238	95.9593	118.1899	185.1413	244.8689	263.081	297.4604	388.3997	449.8847	503.8951	551.4448	633.9768	650.4489	738.9667	844.7595	900.3993	957.0886	962.7505	993.0365	1054.0395	1079.4996	1120.2008	1150.728	1233.912	1272.2973	1299.3227	1334.4673	1338.4276	1391.5997	1413.4116	1417.4107	1484.2187	1493.259	1499.8135	1510.8174	1837.3705	2233.9589	2884.7076	3023.336	3029.9695	3034.0663	3049.6858	3056.6896	3079.4192	3100.3773	3107.1305	3503.6871
CCCC(C=O)C#C	CCC[C@@H](C=O)C#C	
InChI=1S/C7H10O/c1-3-5-7(4-2)6-8/h2,6-7H,3,5H2,1H3	InChI=1S/C7H10O/c1-3-5-7(4-2)6-8/h2,6-7H,3,5H2,1H3/t7-/m0/s1
