17
gdb 92695	2.50047	1.55777	1.16029	1.0676	71.26	-0.2344	-0.0644	0.17	1074.2573	0.136656	-455.179202	-455.170673	-455.169728	-455.21223	32.499	
N	 0.0125352099	 1.325856409	 0.033782884	-0.538431
C	-0.0629678169	-0.0330817501	 0.0002242663	 0.257048
N	-1.1853015789	-0.655407519	-0.0399132326	-0.299634
C	-1.200532575	-2.1120604871	 0.0169904365	-0.187358
C	 0.0460492089	-2.7925021874	-0.5575482518	 0.099538
O	 0.1144728181	-2.6640301294	-1.9724698965	-0.441044
C	 1.298823064	-2.2058843133	 0.1120660866	-0.327754
C	 1.3075731542	-0.6993967304	 0.0180097904	 0.354217
O	 2.3133909129	-0.0276549126	-0.0486793344	-0.318736
H	 0.9151581311	 1.7350977143	-0.1446495274	 0.271731
H	-0.820040552	 1.8546996864	-0.1635630097	 0.260159
H	-1.3434469719	-2.4311308676	 1.0607678948	 0.109431
H	-2.0810853099	-2.4627350755	-0.5325757457	 0.115972
H	 0.0005981174	-3.8696772013	-0.3635010521	 0.091084
H	-0.199661779	-1.7835602184	-2.206764102	 0.287546
H	 1.2938167636	-2.4653220281	 1.1813626196	 0.130855
H	 2.2206421335	-2.5987376095	-0.3228989659	 0.135376
74.6133	114.3857	228.7677	294.0686	325.7549	336.7716	357.052	369.8856	415.7272	496.5506	526.1076	546.9035	574.5329	681.0632	696.4265	830.0152	861.0488	894.8155	942.0775	962.3985	1053.8762	1080.9846	1143.0619	1195.7519	1208.5066	1229.8632	1276.9309	1314.2227	1366.8506	1377.0178	1405.1593	1423.8358	1439.3222	1485.7973	1590.2016	1706.4338	1798.7238	2992.2673	3012.937	3052.463	3059.831	3110.7919	3598.6103	3731.6598	3800.9252
NC1=NCC(O)CC1=O	NC1=NC[C@@H](O)CC1=O	
InChI=1S/C5H8N2O2/c6-5-4(9)1-3(8)2-7-5/h3,8H,1-2H2,(H2,6,7)	InChI=1S/C5H8N2O2/c6-5-4(9)1-3(8)2-7-5/h3,8H,1-2H2,(H2,6,7)/t3-/m0/s1
