17
gdb 30884	2.61515	1.29091	0.91077	1.9715	72.93	-0.1709	0.0553	0.2262	1264.2119	0.135095	-455.149482	-455.139631	-455.138687	-455.184989	34.783	
C	-0.4158232572	 1.0371031886	-0.1064122458	-0.249723
O	 0.7276575595	 0.1799197915	-0.1780566066	-0.279907
C	 0.9861080753	-0.5181096183	 0.9613876041	 0.203041
C	 0.7092224415	-1.830872402	 1.2567864569	 0.257666
O	 0.0544798258	-2.7326226728	 0.4660896887	-0.461517
C	 1.2460917495	-2.11010955	 2.5451162019	-0.308259
C	 1.8337032534	-0.9473661519	 3.0013416824	 0.273413
N	 2.4900236743	-0.6047772659	 4.2064114363	-0.611032
N	 1.6744626536	 0.0169205622	 2.038170218	-0.322994
H	-0.271431457	 1.8336788773	 0.6342533743	 0.114589
H	-0.5356022503	 1.4847388202	-1.0956461887	 0.129182
H	-1.3168820351	 0.4706143905	 0.1569385725	 0.124418
H	-0.0612118259	-2.3223731048	-0.3985069975	 0.293788
H	 1.2168300149	-3.0587065089	 3.057701254	 0.090824
H	 3.4835240947	-0.8179003543	 4.1727936265	 0.242388
H	 2.100607021	-1.1248483183	 4.9841802111	 0.244527
H	 1.9925474422	 0.9660058871	 2.1284332419	 0.259595
45.7184	62.1171	133.7495	138.5498	212.4435	258.4063	269.4306	310.5896	353.252	402.3066	436.9658	539.6265	602.7597	640.2383	659.4919	687.9853	767.2841	812.9954	833.851	1014.3998	1026.8645	1128.4297	1172.6985	1176.0366	1186.4517	1201.9891	1237.6631	1261.5411	1373.9857	1454.3945	1477.6443	1485.3557	1501.6791	1524.7876	1563.6801	1651.5284	1677.7546	3009.3879	3074.4486	3125.8541	3255.4169	3482.3903	3577.2158	3684.7125	3805.742
COC1=C(O)C=C(N)N1	COc1c(O)cc(N)[nH]1	
InChI=1S/C5H8N2O2/c1-9-5-3(8)2-4(6)7-5/h2,7-8H,6H2,1H3	InChI=1S/C5H8N2O2/c1-9-5-3(8)2-4(6)7-5/h2,7-8H,6H2,1H3
