20
gdb 61796	2.53128	0.98946	0.90108	3.833	76.69	-0.249	-0.0248	0.2242	1387.6467	0.168031	-440.327489	-440.316884	-440.31594	-440.363909	36.965	
C	 0.0047460926	 1.954690263	-0.3857129251	-0.427019
C	-0.0945543971	 0.494472897	 0.0574881857	 0.038079
N	-1.4979252412	 0.1334990744	 0.2367425693	-0.278974
C	-1.8910042867	-0.894772965	 1.0313900394	 0.152274
O	-1.1341277422	-1.6067939736	 1.6599873684	-0.328491
C	 0.6290145644	-0.5037913274	-0.8959875449	-0.076303
C	 0.1404965401	-0.4837165312	-2.3431486689	-0.403566
C	 2.1265160976	-0.301234121	-0.7890510777	 0.146013
O	 2.8703267986	-0.123941456	-1.720365509	-0.246391
H	 1.0496472812	 2.2460663455	-0.5236341046	 0.142679
H	-0.5104129981	 2.1234081432	-1.3373721787	 0.126662
H	-0.4382630349	 2.6147647526	 0.3652849496	 0.129335
H	 0.3724603074	 0.385185798	 1.0428922472	 0.114216
H	-2.1998526685	 0.6448711722	-0.2743890586	 0.249446
H	-2.992443838	-1.0133940255	 1.0499774715	 0.081182
H	 0.4430889177	-1.4912683517	-0.4479868652	 0.128734
H	-0.9436718801	-0.6214255919	-2.387964905	 0.105036
H	 0.3989384614	 0.4540321146	-2.8418261098	 0.130245
H	 0.6098766543	-1.288006861	-2.9142781657	 0.134904
H	 2.5180578514	-0.3327562663	 0.2549005023	 0.081939
52.4248	63.4448	86.4902	167.2949	187.0149	207.9897	249.1954	262.3712	270.3458	278.9662	384.8048	416.2093	496.6532	566.3952	670.1722	755.0229	804.1891	883.9423	915.2534	944.0429	1008.8888	1019.9918	1032.378	1096.9567	1139.6378	1160.9344	1177.2666	1224.4224	1272.9555	1338.8953	1355.6073	1395.7211	1404.6715	1415.834	1427.0691	1439.4236	1489.1576	1490.601	1496.4178	1506.6078	1517.8872	1794.5741	1826.2892	2857.8804	2939.8119	3012.4493	3039.8163	3047.6668	3051.0371	3108.9462	3121.6287	3122.5151	3127.4009	3633.663
CC(NC=O)C(C)C=O	C[C@@H](NC=O)[C@@H](C)C=O	
InChI=1S/C6H11NO2/c1-5(3-8)6(2)7-4-9/h3-6H,1-2H3,(H,7,9)	InChI=1S/C6H11NO2/c1-5(3-8)6(2)7-4-9/h3-6H,1-2H3,(H,7,9)/t5-,6+/m0/s1
