19
gdb 95124	2.46783	1.51623	1.13188	2.8969	76.09	-0.2417	-0.0228	0.2189	1121.8105	0.158869	-423.031008	-423.022575	-423.02163	-423.063925	32.019	
C	 0.0003272886	 1.6123087617	-0.2502655429	-0.405513
C	 0.0209208475	 0.101544944	-0.0069138067	-0.098742
C	 0.766201353	-0.6792010357	-1.1191815009	-0.103735
O	 1.2990863544	-1.8597412893	-0.5204405264	-0.248969
C	 1.5352470963	-1.5978355845	 0.8259472183	 0.090284
C	 2.2618162119	-0.3674230085	 1.2436373071	-0.375078
C	 0.7363551254	-0.3548469693	 1.2587176486	 0.222253
C	 0.038488323	-0.3926684999	 2.557688708	 0.060235
O	 0.5760364371	-0.5830686439	 3.6249996986	-0.277729
H	 1.0156472298	 2.022266367	-0.2638361198	 0.122128
H	-0.4719612108	 1.8505388083	-1.2093358606	 0.120558
H	-0.5594840161	 2.1322527477	 0.532794217	 0.12512
H	-1.0132253017	-0.2635977139	 0.0532520071	 0.085382
H	 0.1191845898	-0.9877220357	-1.9441537508	 0.119285
H	 1.5753122504	-0.062325243	-1.5365881263	 0.101201
H	 1.5649595977	-2.4954510215	 1.4319691745	 0.125649
H	 2.7158099852	-0.3852207524	 2.2283610678	 0.147337
H	 2.7754400385	 0.2306840842	 0.4995008767	 0.123047
H	-1.0659598001	-0.2595734352	 2.4905624507	 0.067284
102.4651	145.595	201.5556	222.8784	238.7623	253.292	314.392	443.413	459.1043	529.5551	617.4779	679.6468	729.3902	798.1547	864.2253	900.9143	923.641	949.8546	984.0984	1009.5814	1048.2008	1054.3841	1080.436	1108.3592	1127.9142	1139.3656	1182.682	1221.7161	1255.5481	1280.3523	1319.4757	1360.9448	1371.2837	1410.0098	1416.3746	1432.5289	1459.226	1495.6471	1500.4184	1524.6522	1796.8162	2863.0899	2996.5733	3016.7197	3034.2841	3094.4264	3101.4823	3108.9591	3138.7099	3193.7039	3233.1161
CC1COC2CC12C=O	C[C@H]1CO[C@H]2C[C@@]12C=O	
InChI=1S/C7H10O2/c1-5-3-9-6-2-7(5,6)4-8/h4-6H,2-3H2,1H3	InChI=1S/C7H10O2/c1-5-3-9-6-2-7(5,6)4-8/h4-6H,2-3H2,1H3/t5-,6-,7+/m0/s1
