19
gdb 96927	2.45948	1.35979	1.12769	2.8653	79.76	-0.2209	0.0238	0.2447	1195.3587	0.157774	-419.167063	-419.157484	-419.15654	-419.201371	35.023	
C	 0.0431934364	 1.4382605164	-0.0683924418	-0.340543
N	-0.0725319577	-0.0126487359	-0.1065762093	-0.336839
C	 0.5666171518	-0.653722249	-0.9663288653	 0.446628
O	 1.4049947924	-0.1970359705	-1.9991215857	-0.288403
C	 1.4799485139	-1.5342031729	-2.5483877016	 0.008985
C	 2.1316486028	-2.4528581833	-1.5595586595	-0.06334
C	 3.2607187184	-2.0589416263	-0.6335960118	-0.420666
C	 0.6587291809	-2.0944793892	-1.3714638246	 0.139785
N	-0.3631742856	-3.0441591789	-1.1452592618	-0.596087
H	 0.6297658705	 1.8628415113	-0.8912937609	 0.127341
H	-0.9607566608	 1.8757811531	-0.0849478266	 0.125862
H	 0.5034876043	 1.7351815349	 0.8807516146	 0.128843
H	 1.4204540681	-1.6315581443	-3.6243244165	 0.114169
H	 2.2096652884	-3.4658812696	-1.9586432563	 0.089247
H	 3.1913764012	-1.0038402701	-0.3610666869	 0.141942
H	 3.2400878033	-2.6539865801	 0.2845267956	 0.126385
H	 4.2289626022	-2.2179565536	-1.1199694316	 0.119172
H	-1.2331994335	-2.7906991676	-1.6003465493	 0.24172
H	-0.0957014371	-3.9762395742	-1.4340172107	 0.235799
89.4234	93.7027	174.8854	185.0142	211.9193	218.6801	228.7509	277.5206	317.7659	446.029	520.3164	587.5801	639.1874	716.8166	746.2525	774.999	797.9812	886.1592	914.8022	923.0913	953.875	1033.7005	1051.9953	1077.1369	1104.2949	1120.1223	1132.758	1172.5947	1191.872	1265.6028	1321.6623	1363.4259	1413.541	1437.563	1474.5209	1492.4538	1493.1049	1497.5995	1501.9505	1649.3906	1850.4683	3017.6636	3040.8043	3082.3616	3089.2966	3098.9864	3102.8393	3133.6675	3206.968	3517.5617	3614.2035
CN=C1OC2C(C)C12N	CN=C1O[C@H]2[C@@H](C)[C@@]12N	
InChI=1S/C6H10N2O/c1-3-4-6(3,7)5(8-2)9-4/h3-4H,7H2,1-2H3	InChI=1S/C6H10N2O/c1-3-4-6(3,7)5(8-2)9-4/h3-4H,7H2,1-2H3/t3-,4+,6+/m1/s1
