20
gdb 9759	3.12274	1.7197	1.56078	0.9574	76.58	-0.2422	0.0163	0.2585	958.3728	0.176322	-349.010336	-349.001762	-349.000818	-349.043328	32.128	
C	 0.0794330045	 1.1993623339	 0.3590888059	-0.243799
O	-0.1416160713	-0.1554016966	 0.042869002	-0.285345
C	-1.509005492	-0.5616096071	-0.1774451765	 0.375344
C	-2.0047221215	-0.0274835425	-1.5248713673	-0.443909
C	-1.4869040411	-2.1086124033	-0.1042042786	-0.243199
C	-1.8947557299	-2.4765821016	 1.3419282786	-0.261616
C	-2.5919027405	-1.2265619428	 1.8199799952	-0.070905
C	-2.4033222954	-0.1967151596	 0.997694109	-0.108643
H	 1.1606137397	 1.3216806511	 0.4672200747	 0.123064
H	-0.2644460218	 1.8861431694	-0.4285601038	 0.099344
H	-0.3983160066	 1.491669226	 1.3050971788	 0.103626
H	-1.3493743894	-0.3711224327	-2.3312686206	 0.120447
H	-3.0210208575	-0.3794060384	-1.7257593734	 0.115688
H	-2.0252410601	 1.0665448902	-1.5457416988	 0.112155
H	-2.2191500457	-2.5156284329	-0.8079038768	 0.096779
H	-0.5011546682	-2.4812510451	-0.3892507557	 0.109888
H	-2.5410976243	-3.3605024755	 1.3824617711	 0.101458
H	-1.0254607407	-2.7005988064	 1.9740071736	 0.115569
H	-3.1619172968	-1.1916478304	 2.7429540474	 0.094041
H	-2.8026256213	 0.8014086041	 1.1403042953	 0.090011
69.0723	93.1339	206.4955	224.0965	230.5109	310.2456	339.0491	363.2882	442.7121	531.6793	613.8471	698.7107	773.2286	792.3439	842.6016	874.4801	920.6537	949.7412	977.3722	993.0689	1015.6466	1099.7036	1110.0295	1120.4395	1174.4759	1180.7092	1194.8641	1209.1975	1241.6446	1261.3106	1314.4876	1324.6525	1385.5499	1400.9745	1470.9159	1474.1482	1483.8333	1490.5071	1491.5834	1502.1766	1512.1127	1684.3082	2983.1585	3023.2675	3030.184	3037.6628	3052.4115	3066.0254	3102.6425	3106.1939	3111.7191	3119.2895	3173.8345	3200.5414
COC1(C)CCC=C1	CO[C@@]1(C)CCC=C1	
InChI=1S/C7H12O/c1-7(8-2)5-3-4-6-7/h3,5H,4,6H2,1-2H3	InChI=1S/C7H12O/c1-7(8-2)5-3-4-6-7/h3,5H,4,6H2,1-2H3/t7-/m1/s1
