15
gdb 55430	2.45519	1.71025	1.15123	2.0512	62.39	-0.2535	-0.0071	0.2464	1027.2174	0.113855	-491.123313	-491.115352	-491.114408	-491.156439	29.169	
N	 0.0769419387	 1.1997084889	 0.197630572	-0.516983
C	 0.0224699414	-0.1488880031	 0.0206247818	 0.349286
O	 0.9772942607	-0.8870266606	-0.0732497137	-0.341952
C	-1.4345778566	-0.6754643507	-0.1003427338	-0.097994
O	-1.4937604693	-2.0724852897	-0.2782462605	-0.218764
C	-1.6416581939	-2.6241242962	 0.9999824802	 0.010954
O	-2.3648111332	-1.6542370474	 1.7808040207	-0.232578
C	-2.2057745577	-0.447140122	 1.1877268566	 0.403559
N	-2.5895946078	 0.6766611261	 1.6161700392	-0.551696
H	 0.9802499875	 1.5936488978	 0.4121261177	 0.263338
H	-0.7425714377	 1.6693721179	 0.5622968684	 0.280912
H	-1.9247792769	-0.186126038	-0.9454338496	 0.147357
H	-2.2335188762	-3.5396317427	 0.9379045395	 0.136788
H	-0.672284227	-2.8044942045	 1.4828760145	 0.132142
H	-3.0552976819	 0.5997033739	 2.520323077	 0.235631
65.8659	95.8275	188.2635	191.8049	298.8128	408.9009	434.7217	501.1013	553.7817	593.6847	633.6524	681.2799	721.88	757.3383	868.058	900.228	938.1595	975.3932	1028.0962	1080.353	1128.144	1148.2759	1187.7595	1215.4244	1240.5839	1306.1628	1310.2406	1362.4417	1439.9591	1540.659	1633.079	1782.6161	1824.0415	3023.599	3092.6348	3117.5234	3493.127	3534.7421	3678.2629
NC(=O)C1OCOC1=N	NC(=O)[C@H]1OCO[C]1[NH]	
InChI=1S/C4H6N2O3/c5-3(7)2-4(6)9-1-8-2/h2,6H,1H2,(H2,5,7)	InChI=1S/C4H6N2O3/c5-3(7)2-4(6)9-1-8-2/h2,6H,1H2,(H2,5,7)/t2-/m1/s1
