18
gdb 37728	3.11865	2.07714	1.66624	1.7461	72.54	-0.2154	0.0733	0.2887	854.0542	0.151985	-401.891183	-401.885162	-401.884218	-401.921564	25.574	
C	-0.0120235959	 1.576664123	-0.208759534	-0.26899
C	 1.3206666071	 2.2321863277	 0.2145749446	-0.147659
N	 2.3164704512	 1.3044034542	 0.7466439448	-0.104104
C	 2.4799561858	-0.0370060126	 0.2011474608	-0.055748
C	 1.9373318629	 0.1728008916	 1.5829776914	-0.05575
C	 0.5547325444	-0.4931653538	 1.384407709	 0.035952
O	 0.9191266382	-1.7204089336	 0.6571823066	-0.30182
C	 1.2596008409	-0.7656618673	-0.4106648267	 0.035926
C	 0.0436947928	 0.079864149	 0.0401609952	-0.008651
H	-0.8543777811	 2.004285888	 0.3468209962	 0.105026
H	-0.220571901	 1.7592708937	-1.2690634457	 0.105024
H	 1.7908066826	 2.7439573458	-0.631347402	 0.110155
H	 1.1556006158	 2.9903354481	 0.9868989317	 0.110152
H	 3.4885803903	-0.3684528529	-0.0218436383	 0.098619
H	 2.4994162564	 0.0140580417	 2.4971793448	 0.098626
H	-0.0780080158	-0.6642598221	 2.2548581019	 0.076427
H	 1.3559455376	-1.2186250423	-1.3970009156	 0.076428
H	-0.8763082822	-0.4325808381	-0.2433090947	 0.090387
95.4147	313.3794	464.5873	487.8367	523.6093	584.158	697.7835	698.5819	766.7027	770.1689	829.6493	862.2208	865.6181	870.2292	916.5289	923.7547	945.7661	977.6028	992.3924	1050.9612	1073.1978	1078.7082	1091.8627	1118.8452	1147.7994	1195.7807	1255.7606	1260.7396	1275.0194	1275.2587	1299.4637	1300.5136	1314.657	1323.6081	1361.9294	1395.258	1408.1847	1485.6528	1504.1544	3029.3958	3045.1564	3058.788	3086.1797	3106.1625	3124.6235	3127.959	3161.2041	3170.8841
C1CN2C3C2C2OC3C12	C1CN2[C@H]3[C@@H]2[C@@H]2O[C@H]3[C@H]12	
InChI=1S/C7H9NO/c1-2-8-4-5(8)7-3(1)6(4)9-7/h3-7H,1-2H2	InChI=1S/C7H9NO/c1-2-8-4-5(8)7-3(1)6(4)9-7/h3-7H,1-2H2/t3-,4-,5+,6-,7+,8?
