12
gdb 33387	1.51591	1.5158	1.48815	3.6287	75.67	-0.2888	-0.0012	0.2877	1077.0149	0.072521	-361.083522	-361.074193	-361.073249	-361.117434	33.453	
C	 0.0112764457	-1.2145445565	 0.0086911837	-0.418627
C	 0.0020355902	-0.016186017	 0.0022742806	 0.351688
C	-0.0081952597	 1.4612062307	-0.0068277114	-0.449634
C	 1.3744959503	 1.981787486	 2.6599*^-6	 0.351606
C	 2.4962929384	 2.4033793353	 0.0043860001	-0.418578
C	-0.7360543726	 1.9598483398	-1.1919268446	 0.35159
C	-1.3255216155	 2.3636467528	-2.1540379669	-0.418594
C	-0.7062010824	 1.9420817844	 1.2203018034	 0.326447
N	-1.2462567096	 2.3141458445	 2.1697453221	-0.331746
H	 0.0191704725	-2.2772481143	 0.0144649001	 0.218615
H	 3.4910753141	 2.7773116778	 0.0081951637	 0.218617
H	-1.8482176014	 2.7217795365	-3.0072464107	 0.218617
111.7691	111.841	140.0591	147.2605	147.3509	317.581	334.4569	334.4694	528.649	534.3787	534.4389	568.0903	568.1051	598.1794	665.0089	667.0866	667.2227	672.9335	672.956	673.9633	1051.832	1079.5513	1079.7073	2251.4438	2251.4832	2257.8268	2369.7961	3497.9723	3498.2999	3499.2137
C#CC(C#C)(C#C)C#N	C#CC(C#C)(C#C)C#N	
InChI=1S/C8H3N/c1-4-8(5-2,6-3)7-9/h1-3H	InChI=1S/C8H3N/c1-4-8(5-2,6-3)7-9/h1-3H
