18
gdb 9783	2.90367	1.85461	1.33087	3.3045	71.33	-0.2539	0.025	0.2789	966.2338	0.153213	-343.980459	-343.971753	-343.970809	-344.01357	31.94	
C	-0.2989092221	 1.6023764545	-0.2378628136	-0.395577
C	-0.0162934332	 0.0906671287	-0.0792317018	-0.205638
C	-1.2804632679	-0.6134929989	 0.16059317	 0.264021
N	-2.288249158	-1.1547289569	 0.3286045249	-0.332791
C	 0.747021199	-0.508357511	-1.2757968535	 0.331992
C	 2.1078098396	 0.1150311845	-1.5175681457	-0.45202
C	 0.539046205	-1.9338877083	-1.6393490591	-0.2844
N	 0.0117867878	-0.8553314561	-2.5014905953	-0.347212
H	 0.637674179	 2.1614708852	-0.280146531	 0.134081
H	-0.8609845975	 1.7961414286	-1.1554048448	 0.14286
H	-0.8815046425	 1.9745397335	 0.6079071065	 0.139729
H	 0.6024908133	-0.0528367969	 0.8169015084	 0.131811
H	 2.7438737606	 0.0317789389	-0.6288754097	 0.115434
H	 2.6037109187	-0.3964525436	-2.3450571582	 0.135893
H	 2.0292500978	 1.1727637509	-1.7858744938	 0.127211
H	 1.3646260783	-2.4975093989	-2.0652234797	 0.116482
H	-0.1683879037	-2.5248574326	-1.0657834925	 0.137404
H	-0.9930796942	-0.7747695016	-2.3546796012	 0.240722
55.2307	156.035	191.6852	206.186	217.4791	288.298	341.9434	367.9059	383.3384	459.7935	555.6191	580.2172	704.917	825.3122	840.0225	913.543	922.0794	975.4623	1007.0672	1037.7425	1059.7579	1088.2132	1104.8184	1130.683	1167.8681	1259.1747	1271.2062	1319.5633	1339.0853	1380.5306	1410.4357	1423.6634	1484.1006	1492.3625	1496.9482	1508.7852	1514.7471	2352.7113	3022.2995	3037.1861	3056.2026	3102.6837	3114.243	3129.053	3131.5973	3140.9394	3202.5251	3481.3889
CC(C#N)C1(C)CN1	C[C@@H](C#N)[C@@]1(C)CN1	
InChI=1S/C6H10N2/c1-5(3-7)6(2)4-8-6/h5,8H,4H2,1-2H3	InChI=1S/C6H10N2/c1-5(3-7)6(2)4-8-6/h5,8H,4H2,1-2H3/t5-,6+/m0/s1
