18
gdb 59915	4.38937	0.78954	0.72947	4.9841	72.02	-0.2616	-0.0162	0.2454	1578.202	0.1452	-476.295793	-476.285734	-476.28479	-476.331812	34.764	
C	-0.0257389792	 1.5416850896	 0.0144651822	-0.397651
C	 0.0436810431	 0.0193575495	 0.0571736022	 0.147725
C	 0.5639150573	-0.5306506696	 1.3762456451	-0.395104
O	-1.292659954	-0.5348004435	-0.1082927723	-0.293801
C	-1.7380845703	-0.6511586726	-1.377751294	 0.542659
O	-1.1393590083	-0.3504416153	-2.3722675487	-0.359797
N	-3.0259807794	-1.1924119204	-1.3199608451	-0.391144
C	-3.8675995766	-1.4787755769	-2.3867541777	 0.165593
O	-3.6339421478	-1.3110383648	-3.5509193851	-0.253999
H	 0.9737606905	 1.9644650069	 0.1555389579	 0.122687
H	-0.4065816634	 1.8814143489	-0.9510241889	 0.147153
H	-0.6751701904	 1.9213129815	 0.809835248	 0.12025
H	 0.6478316727	-0.3433329944	-0.7788352879	 0.117254
H	-0.0610280991	-0.1971907818	 2.2106053201	 0.124756
H	 0.5740885361	-1.6237692249	 1.3660288574	 0.125967
H	 1.5844787354	-0.1775973018	 1.5497500877	 0.125508
H	-3.3709534244	-1.3896446736	-0.392204773	 0.264942
H	-4.8214057322	-1.8988736469	-2.0076860579	 0.087003
46.744	66.0768	103.0998	134.4907	214.7514	232.3834	233.5459	264.4912	291.6807	402.8434	418.5439	479.0669	601.8316	626.3991	785.3257	811.7282	869.671	934.8165	949.5297	959.1991	969.8331	1030.7105	1134.9928	1162.9345	1172.8339	1204.5739	1220.9393	1361.8684	1385.9585	1402.3625	1418.7775	1447.1317	1481.2012	1485.9227	1494.8333	1508.2888	1514.4196	1817.7486	1885.3446	2928.5353	3041.0504	3045.4393	3078.7657	3111.07	3122.0668	3123.8639	3134.8904	3622.6383
CC(C)OC(=O)NC=O	CC(C)OC(=O)NC=O	
InChI=1S/C5H9NO3/c1-4(2)9-5(8)6-3-7/h3-4H,1-2H3,(H,6,7,8)	InChI=1S/C5H9NO3/c1-4(2)9-5(8)6-3-7/h3-4H,1-2H3,(H,6,7,8)
