20
gdb 119809	5.68373	0.75749	0.67958	3.7106	83.47	-0.2258	0.005	0.2307	1678.103	0.171427	-399.370201	-399.360735	-399.359791	-399.405638	34.243	
C	-0.0001076374	 1.5944870944	-0.0276989603	-0.387818
C	-0.0074897286	 0.0650481659	 0.016037475	-0.151076
C	 0.6863527857	-0.5560839703	-1.1990486013	-0.31016
C	 0.6976380442	-2.0550470081	-1.1914161919	 0.392032
N	 0.1917593387	-2.8057643829	-0.2884659343	-0.301972
C	 0.4436043492	-4.1897489646	-0.7063829066	-0.240064
C	 1.1964623928	-4.1168351571	-2.0325990803	 0.381103
N	 1.6008966409	-5.0995402523	-2.7281059045	-0.553625
N	 1.3050993943	-2.7435925496	-2.2463708791	-0.382638
H	 1.0218044699	 1.9902670983	-0.0475749612	 0.112561
H	-0.5175148176	 1.9727953161	-0.9168029775	 0.112584
H	-0.5003925125	 2.0145602194	 0.8498412932	 0.117878
H	 0.4841932368	-0.2923620476	 0.9262718055	 0.118631
H	-1.0345693791	-0.3096604047	 0.0677986693	 0.118809
H	 0.2027966557	-0.2180839457	-2.1273754317	 0.11692
H	 1.7255990432	-0.202143456	-1.2661553903	 0.116839
H	 1.0315884893	-4.7225115589	 0.0488692036	 0.142477
H	-0.4976223135	-4.738494771	-0.8200190078	 0.14248
H	 2.0803901371	-4.7944715096	-3.5768898274	 0.203746
H	 1.750736911	-2.3185704756	-3.0421034823	 0.251295
33.8176	67.4817	122.2621	128.7599	248.645	251.543	319.3029	337.1376	366.3649	485.7456	509.1534	628.6754	670.6631	729.9748	745.9962	849.4849	881.9517	895.1728	909.132	980.056	986.0777	1037.9209	1064.3937	1094.0601	1114.3531	1125.1229	1178.3997	1184.8534	1254.1372	1281.843	1314.7496	1322.7217	1327.8601	1392.6362	1415.4141	1447.9074	1456.0838	1471.4808	1487.7248	1501.9134	1508.7086	1710.2566	1762.7248	3002.1073	3026.937	3028.1427	3050.0637	3057.2126	3078.455	3080.9397	3104.6879	3106.2587	3452.0074	3658.4106
CCCC1=NCC(=N)N1	CCCC1=NC[C]([NH])N1	
InChI=1S/C6H11N3/c1-2-3-6-8-4-5(7)9-6/h2-4H2,1H3,(H2,7,8,9)	InChI=1S/C6H11N3/c1-2-3-6-8-4-5(7)9-6/h2-4H2,1H3,(H2,7,8,9)
