19
gdb 99221	4.02392	0.81623	0.8035	2.5268	72.99	-0.2528	-0.0173	0.2356	1548.9875	0.15516	-460.224794	-460.214143	-460.213199	-460.262464	35.994	
C	-0.4531933686	 1.1479380918	-0.2415899914	-0.373465
C	 0.4297846327	-0.0768075152	-0.0159826298	-0.305101
C	 0.9804548878	-0.6476695824	-1.3023566996	 0.468269
O	 0.6845231549	-0.3025482662	-2.4174254721	-0.363702
O	 1.8867579844	-1.6254834156	-1.0411702119	-0.230861
C	 2.3621567584	-2.3263923451	-2.176880649	-0.185636
C	 1.3399925595	-3.345691569	-2.6891059474	 0.383533
C	 1.7458685845	-4.0876307984	-3.9465266453	-0.484071
O	 0.2912837212	-3.5255228946	-2.1230910112	-0.283007
H	 0.1113775336	 1.9602841616	-0.707170824	 0.127834
H	-1.2881690046	 0.9078319649	-0.9038893845	 0.138413
H	-0.8552628287	 1.5090787715	 0.7088723734	 0.112593
H	 1.2732705906	 0.1428498378	 0.6480044795	 0.129187
H	-0.1267189185	-0.8850713345	 0.4741848258	 0.145561
H	 2.6206451886	-1.6354125632	-2.9864078399	 0.143605
H	 3.2691449495	-2.8507494797	-1.8590115798	 0.134869
H	 2.7729575221	-4.46175083	-3.877610147	 0.134782
H	 1.0572791937	-4.9139266239	-4.1255673058	 0.150746
H	 1.7095669989	-3.3994938297	-4.7993054101	 0.156449
39.6504	44.8013	69.8924	83.3742	107.7423	197.3752	209.0155	282.9046	328.2013	348.5902	457.1288	474.6083	572.1702	622.0464	669.3228	805.967	812.6833	824.2217	902.1758	956.3739	1004.7559	1065.0754	1102.8222	1106.9049	1117.3199	1175.9546	1216.2075	1278.5554	1293.5011	1374.1608	1383.6807	1396.1436	1416.9995	1446.7324	1457.9182	1464.9685	1476.3434	1493.8627	1501.068	1820.7519	1837.2502	3036.5651	3044.2825	3050.692	3052.4197	3076.2385	3095.9433	3103.3867	3122.1481	3131.7724	3154.8481
CCC(=O)OCC(C)=O	CCC(=O)OCC(=O)C	
InChI=1S/C6H10O3/c1-3-6(8)9-4-5(2)7/h3-4H2,1-2H3	InChI=1S/C6H10O3/c1-3-6(8)9-4-5(2)7/h3-4H2,1-2H3
