23
gdb 118084	2.70415	0.84889	0.7929	2.6076	81.83	-0.2585	0.0786	0.3371	1586.0888	0.202762	-425.407235	-425.396241	-425.395297	-425.443781	39.646	
C	-0.1931112454	 1.7321293454	-0.242170036	-0.407591
C	-0.0542435223	 0.2059451173	-0.1167049468	-0.041007
C	-1.403200783	-0.5084607237	 0.0882354348	-0.179421
C	-2.0480721853	-0.2403745573	 1.4431885908	-0.086566
O	-3.2459113191	-1.0014572434	 1.5037617422	-0.420902
C	 0.6990507527	-0.3866330359	-1.3069535754	 0.431681
C	 0.0652437966	-0.2857443051	-2.6786621449	-0.47235
C	 2.1592281418	-0.5370598131	-1.2062276391	-0.237172
O	 1.29701863	-1.6646809971	-1.0307666067	-0.286697
H	 0.7754403863	 2.199863982	-0.4476697617	 0.114038
H	-0.8777583063	 2.0080032168	-1.0514088289	 0.119516
H	-0.5824196469	 2.1732255763	 0.6796410336	 0.118368
H	 0.5701521979	-0.00983015	 0.7604154955	 0.075465
H	-2.1156615968	-0.2180002293	-0.6932529758	 0.102266
H	-1.2523012558	-1.5898856071	-0.0013348915	 0.123061
H	-1.3508485422	-0.5295234987	 2.2471377142	 0.085469
H	-2.2602212114	 0.8332066537	 1.566004869	 0.083743
H	-3.6638065531	-0.8365950012	 2.3538750633	 0.284515
H	-0.0761321855	 0.7578355768	-2.9772634428	 0.121854
H	 0.7001418108	-0.7738573003	-3.4218833855	 0.126107
H	-0.9123283395	-0.7770034435	-2.6961747782	 0.132418
H	 2.7672096065	-0.5501608807	-2.1104925327	 0.107456
H	 2.6791737202	-0.2026112419	-0.3085994173	 0.105748
55.6755	71.9682	100.2861	135.9872	179.286	223.813	237.355	262.2387	283.2092	307.4725	341.4596	382.9781	454.1661	501.7325	538.2796	722.1697	797.2759	831.0733	875.5721	921.7032	931.6359	971.6365	998.1628	1022.7972	1053.2622	1085.6416	1098.3557	1135.2345	1137.6172	1165.0934	1179.5821	1228.09	1240.9461	1291.379	1301.7629	1315.9812	1345.2736	1365.6771	1403.8951	1411.8425	1429.1536	1460.884	1479.6117	1492.4414	1498.6445	1502.8147	1504.3953	1528.6838	1531.0608	2960.6351	2990.4366	3016.0929	3033.4091	3036.1325	3043.2756	3073.8565	3083.9807	3099.3669	3107.0783	3110.2515	3124.8316	3157.4888	3830.0263
CC(CCO)C1(C)CO1	C[C@@H](CCO)[C@@]1(C)CO1	
InChI=1S/C7H14O2/c1-6(3-4-8)7(2)5-9-7/h6,8H,3-5H2,1-2H3	InChI=1S/C7H14O2/c1-6(3-4-8)7(2)5-9-7/h6,8H,3-5H2,1-2H3/t6-,7+/m0/s1
