15
gdb 69394	3.33367	1.33886	1.04522	3.7159	69.77	-0.2488	-0.0261	0.2227	1096.7757	0.111721	-453.926047	-453.917886	-453.916942	-453.959015	30.021	
O	 0.1863016386	 1.3600692471	-0.2881865732	-0.438852
C	 0.0458984947	 0.0300846762	-0.0156318429	 0.342291
C	-0.3292677464	-0.9365689931	-1.1115805189	-0.326599
C	-1.1900234985	-0.8933094009	 0.1244552372	-0.122784
N	-0.4990561148	-1.5737732676	 1.2234959564	-0.096985
C	-0.6479536027	-2.8023152038	 1.8029034057	 0.129292
O	 0.1229704759	-3.2628247758	 2.6162376037	-0.308697
C	 0.6301735741	-0.6960876794	 1.1723615059	 0.303982
N	 1.6501960566	-0.5128628546	 1.8805708808	-0.545711
H	 0.2774547993	 1.8318740855	 0.5486456304	 0.30531
H	-0.7524598165	-0.4307507845	-1.975148051	 0.142314
H	 0.2747108528	-1.8107257175	-1.3373076895	 0.134168
H	-2.2445537662	-0.6617857688	 0.1732660292	 0.134921
H	-1.5720625176	-3.3140643321	 1.4707744535	 0.091058
H	 1.6943582807	-1.1984133804	 2.6365472327	 0.256295
71.801	146.3284	163.0479	245.5003	247.7431	339.5518	359.2601	445.0299	484.9258	525.9003	653.3335	688.2287	761.7337	835.9225	871.9648	896.6201	925.6844	954.0037	974.9852	1028.6086	1045.6348	1098.7014	1137.0441	1180.4337	1235.1544	1245.9915	1366.5545	1394.1086	1423.0332	1435.0736	1495.7	1760.0614	1826.3137	2947.9619	3116.9452	3209.7357	3224.755	3485.8359	3790.7658
OC12CC1N(C=O)C2=N	O[C@]12C[C@H]1N(C=O)[C]2[NH]	
InChI=1S/C5H6N2O2/c6-4-5(9)1-3(5)7(4)2-8/h2-3,6,9H,1H2	InChI=1S/C5H6N2O2/c6-4-5(9)1-3(5)7(4)2-8/h2-3,6,9H,1H2/t3-,5-/m1/s1
