19
gdb 110781	2.47143	1.4762	1.25886	3.4932	75.02	-0.2347	-0.0065	0.2282	1094.3958	0.159043	-423.033785	-423.025377	-423.024433	-423.067124	31.661	
C	 0.3014474447	 1.2542223667	 0.1114930871	-0.237342
O	-0.3227188483	 0.0966424598	-0.4122230019	-0.235841
C	 0.4640750964	-0.5737574153	-1.3453612766	 0.122969
C	 1.4299777822	-1.6441811224	-0.8885467023	-0.112669
C	 1.3196088248	-2.1020033247	 0.5515854717	-0.32914
C	-0.1378776811	-2.553383504	 0.7465353083	 0.399163
O	-0.6571272206	-2.7885790047	 1.8044518837	-0.312886
C	-0.8132695227	-2.6773423919	-0.6285470548	-0.321322
C	 0.1231136753	-2.0062670081	-1.6125237341	-0.122158
H	 1.2566950278	 1.0173573755	 0.5997526308	 0.113721
H	 0.4909016857	 1.9960236796	-0.6786049781	 0.110054
H	-0.382798555	 1.6832705273	 0.8463524022	 0.135264
H	 0.7689979385	 0.0378824989	-2.1960441433	 0.085319
H	 2.3836427826	-1.7321291759	-1.3963883191	 0.08824
H	 1.9707119463	-2.9657448421	 0.7357518473	 0.128468
H	 1.5721418524	-1.3481913026	 1.3025692402	 0.130025
H	-0.932452082	-3.742674206	-0.860749384	 0.125156
H	-1.8127969632	-2.2376213718	-0.5831589601	 0.141151
H	 0.1367335062	-2.3514221683	-2.6396098471	 0.091828
67.4053	125.4627	156.0958	173.3651	235.586	314.7409	454.4251	462.4508	508.837	542.5408	634.9249	715.9521	764.3523	776.2208	794.0251	827.2461	917.3053	968.2601	1026.5052	1030.7653	1053.5079	1066.4549	1110.7459	1116.1244	1149.3216	1168.2204	1183.8632	1199.4932	1213.9138	1253.6242	1279.5292	1284.033	1340.6013	1358.6794	1425.5503	1446.196	1458.5334	1484.8937	1487.3025	1508.1809	1851.7836	2988.1146	3039.7123	3041.4287	3044.3782	3087.8929	3094.0616	3103.9529	3126.7312	3168.9654	3179.4549
COC1C2CC(=O)CC12	CO[C@H]1[C@H]2CC(=O)C[C@@H]12	
InChI=1S/C7H10O2/c1-9-7-5-2-4(8)3-6(5)7/h5-7H,2-3H2,1H3	InChI=1S/C7H10O2/c1-9-7-5-2-4(8)3-6(5)7/h5-7H,2-3H2,1H3/t5-,6+,7-
