17
gdb 98385	2.34195	1.36344	0.86643	2.3098	75.72	-0.247	-0.0209	0.2262	1295.9992	0.136384	-451.333838	-451.324419	-451.323475	-451.368839	32.87	
C	-0.1110488841	 1.2733397114	 0.1595265372	-0.226829
O	 0.0273238378	-0.14773377	 0.0951143834	-0.257644
C	 0.6002840658	-0.7195500388	 1.1774506469	 0.521973
N	 0.9846112778	-0.0492652379	 2.1710917277	-0.585005
N	 0.6793620989	-2.1334407785	 0.9873908878	-0.192686
C	 0.1966922078	-2.7275982932	-0.1976940887	 0.101967
N	 0.2562300215	-3.9808499321	-0.3904893578	-0.474998
C	 1.2302765909	-2.9870571279	 1.9504493572	 0.122523
N	 1.7027503597	-2.5916330304	 3.0628590328	-0.473576
H	 0.8658453444	 1.7509845806	 0.2657292182	 0.144711
H	-0.5832309607	 1.5610981583	-0.7806214605	 0.126523
H	-0.7327196836	 1.5615635829	 1.0105417831	 0.144658
H	 1.3892682594	-0.6560822548	 2.8837228519	 0.264996
H	-0.2117837351	-1.9930666924	-0.8843282285	 0.149339
H	-0.1402990427	-4.2124328587	-1.2982084237	 0.236512
H	 1.1908373292	-4.0186577479	 1.6035263992	 0.159703
H	 2.0459310831	-3.3883576204	 3.5953383037	 0.237832
52.3186	92.0069	131.5268	170.9396	183.7036	218.6008	274.6646	295.398	367.9823	429.9817	488.6282	620.2935	722.6562	723.4184	812.8884	831.8499	838.1708	930.9702	989.1278	1068.329	1091.9584	1121.6584	1150.9184	1163.8112	1183.8567	1215.3415	1304.9696	1321.2484	1413.3879	1421.9073	1432.0096	1473.6351	1477.1266	1502.2683	1696.3089	1712.9478	1774.0009	3052.6861	3130.0263	3147.8316	3153.8575	3186.9989	3468.4334	3506.2748	3518.6865
COC(=N)N(C=N)C=N	COC(=N)N(C=N)C=N	
InChI=1S/C4H8N4O/c1-9-4(7)8(2-5)3-6/h2-3,5-7H,1H3	InChI=1S/C4H8N4O/c1-9-4(7)8(2-5)3-6/h2-3,5-7H,1H3
