20
gdb 71730	2.52213	2.03713	1.46604	1.9803	81.15	-0.2151	0.0787	0.2938	976.7227	0.171714	-365.967843	-365.960088	-365.959144	-365.999462	31.388	
C	-0.1141128799	 1.4598243659	 0.1056909159	-0.498159
C	-0.0172314993	-0.0388804039	-0.0138925354	 0.260241
C	-0.434281443	-0.7628420417	-1.2830099622	-0.295488
C	-0.2103942471	-2.1826608856	-0.822913775	-0.048588
C	 0.9127851056	-2.2513624231	 0.1436960303	-0.107903
N	-0.499957884	-2.3432782881	 0.6391439261	-0.162555
C	-0.3521118541	-0.9322284466	 1.1605920172	-0.116232
C	 1.0839013331	-0.8262714425	 0.7074171131	 0.28469
C	 2.3199579697	-0.2807776533	 1.3542348579	-0.52138
H	 0.5555222749	 1.9646784954	-0.6000111386	 0.119662
H	-1.1344783056	 1.80151808	-0.10179532	 0.121769
H	 0.1466135747	 1.8032989561	 1.1113352767	 0.120269
H	-1.4809324219	-0.5665315097	-1.542852323	 0.104118
H	 0.191630013	-0.5075314346	-2.1461024384	 0.101934
H	-0.4799352594	-3.0375739765	-1.4330677238	 0.092892
H	 1.6108837553	-3.0743016543	 0.2550238389	 0.089299
H	-0.8633321121	-0.6285866983	 2.0658801445	 0.088712
H	 2.142085941	 0.7032630925	 1.7979308639	 0.122261
H	 2.6740161448	-0.9427124158	 2.152813828	 0.124726
H	 3.1352967743	-0.172956426	 0.6282050438	 0.119731
171.7875	181.7758	209.4748	231.6032	294.8299	330.9947	412.9666	543.8775	585.4897	618.8482	711.6142	737.8419	749.4833	811.3572	821.766	888.1162	913.2428	953.3494	956.6439	971.6681	983.5903	994.539	1033.8557	1047.7713	1106.1206	1116.9551	1160.6237	1163.5804	1187.7429	1209.5806	1219.4454	1244.8398	1288.8932	1358.0182	1368.1072	1412.7365	1422.7858	1442.565	1483.0711	1487.4284	1491.5286	1496.8753	1507.7064	3020.4047	3025.5745	3034.6711	3075.8464	3075.9379	3083.488	3097.3875	3104.5778	3162.8652	3181.9557	3185.91
CC12CC3C4N3C1C24C	C[C@]12C[C@H]3[C@@H]4N3[C@H]1[C@]24C	
InChI=1S/C8H11N/c1-7-3-4-5-8(7,2)6(7)9(4)5/h4-6H,3H2,1-2H3	InChI=1S/C8H11N/c1-7-3-4-5-8(7,2)6(7)9(4)5/h4-6H,3H2,1-2H3/t4-,5-,6+,7-,8+,9?/m0/s1
