21
gdb 54604	2.38452	1.4041	0.91451	2.7949	88.3	-0.2333	-0.0409	0.1924	1313.4826	0.181489	-387.143547	-387.133864	-387.13292	-387.178553	35.331	
C	 0.0662241686	 1.5620376742	-0.0724803315	-0.482031
C	 0.2709528113	 0.0560022607	 0.0113092957	 0.290356
O	 0.6209864349	-0.4524725479	 1.0626174455	-0.322818
C	 0.0269939741	-0.7197020397	-1.2304585905	 0.142692
C	 0.010730443	-2.0670050224	-1.3391423644	 0.234671
C	 0.2349011693	-3.1023610473	-0.2861976933	-0.507381
C	-0.3402669568	-2.4929307562	-2.7481822755	-0.282952
C	-0.1749397778	-1.2061111764	-3.5821337468	-0.21831
C	-0.3180538234	-0.0575190152	-2.5581797708	-0.318744
H	 0.7913014245	 2.0107487479	-0.761195277	 0.137429
H	-0.9295097158	 1.8058867654	-0.4587393902	 0.133149
H	 0.195830489	 1.9949936693	 0.9197821307	 0.135912
H	-0.6101278687	-3.8029752064	-0.2620466977	 0.122298
H	 1.1192996033	-3.703681554	-0.536462035	 0.128389
H	 0.378268542	-2.6585720798	 0.6961179047	 0.171295
H	 0.2855450773	-3.3214556269	-3.0999072087	 0.107373
H	-1.3750325216	-2.867449328	-2.7670387064	 0.112236
H	 0.8293878655	-1.1820830422	-4.017136951	 0.107913
H	-0.887424342	-1.1336378991	-4.4073719455	 0.099618
H	-1.3443093994	 0.337169636	-2.5400167363	 0.105735
H	 0.3296562627	 0.791570108	-2.7997200359	 0.103169
44.4227	118.6914	132.9218	154.0623	164.4485	223.2429	270.1038	317.4061	406.2938	445.4058	481.9153	593.31	624.3902	631.1324	686.277	845.1918	884.5466	908.4725	930.2519	969.2157	985.8745	1015.5614	1044.0039	1057.9281	1089.749	1117.5749	1159.5615	1211.3993	1232.9026	1239.8498	1280.1055	1327.9023	1335.2798	1359.9904	1380.9208	1400.4636	1461.5209	1464.8136	1475.6995	1476.6763	1489.0101	1497.5746	1506.5416	1661.8906	1759.614	2997.0773	3000.7184	3016.332	3034.4119	3044.3658	3055.1108	3057.5105	3066.1229	3094.6158	3102.5681	3152.0993	3179.4634
CC(=O)C1=C(C)CCC1	CC(=O)C1=C(C)CCC1	
InChI=1S/C8H12O/c1-6-4-3-5-8(6)7(2)9/h3-5H2,1-2H3	InChI=1S/C8H12O/c1-6-4-3-5-8(6)7(2)9/h3-5H2,1-2H3
