19
gdb 8546	3.90193	2.20861	1.81692	1.5887	74.16	-0.2026	0.0814	0.284	806.7524	0.167399	-327.869181	-327.86257	-327.861626	-327.899365	27.286	
C	-0.0164839155	 1.5596185447	-0.0223782495	-0.501687
C	-0.0456202414	 0.0494375073	 0.0085848939	 0.347765
C	 0.3642083453	-0.7310784553	-1.2757376799	-0.28055
C	-0.7248579812	-1.8007360342	-0.9989925799	-0.043176
C	-0.3483303532	-2.7397682038	 0.1622325894	-0.169688
N	-0.6831269466	-1.7025033566	 1.1973373791	-0.145426
C	 0.4237373001	-0.6904934886	 1.2831929521	-0.216038
C	-1.3220438309	-0.8603440046	 0.0960233378	-0.043808
H	 1.0153170811	 1.9291444507	-0.07738694	 0.117424
H	-0.5531369938	 1.9541213466	-0.8925223964	 0.113446
H	-0.473115201	 1.9870740661	 0.8774136376	 0.116422
H	 0.1147629853	-0.1478302186	-2.1682625838	 0.098212
H	 1.4032744072	-1.0686201796	-1.3590833149	 0.088732
H	-1.2704899558	-2.2080947553	-1.8509754866	 0.065488
H	-1.0368046367	-3.5857347706	 0.2613577198	 0.103695
H	 0.6792991861	-3.1198133459	 0.2056024291	 0.093545
H	 1.4359072057	-1.1125861442	 1.2917312144	 0.092303
H	 0.2932843926	-0.083794904	 2.1868318948	 0.099293
H	-2.3570309875	-0.533363824	 0.1986298429	 0.064049
205.7093	223.4162	261.7963	348.3949	379.8465	448.2765	556.6174	620.5436	733.4227	802.1117	813.1325	848.8911	880.4137	904.4966	928.6802	940.6654	966.7033	973.1993	988.5929	1031.2167	1049.6079	1119.1305	1152.9378	1166.6152	1184.7048	1199.8912	1208.6787	1222.1118	1241.2099	1254.9417	1268.1435	1308.4284	1321.6307	1357.6501	1412.7934	1480.8349	1490.139	1492.2267	1495.3331	1510.2301	3014.9171	3018.5303	3025.1933	3032.7316	3065.7234	3073.175	3079.0801	3082.6424	3089.957	3094.3001	3109.931
CC12CC3CN(C1)C23	C[C@@]12C[C@H]3CN(C1)[C@@H]23	
InChI=1S/C7H11N/c1-7-2-5-3-8(4-7)6(5)7/h5-6H,2-4H2,1H3	InChI=1S/C7H11N/c1-7-2-5-3-8(4-7)6(5)7/h5-6H,2-4H2,1H3/t5-,6+,7+/m0/s1
