16
gdb 25780	4.36849	1.03912	0.84383	3.4694	75.53	-0.2304	-0.0253	0.2051	1321.767	0.124004	-437.960412	-437.95138	-437.950435	-437.995242	31.771	
C	-0.0135852259	 1.5192331482	-0.0628964119	-0.499673
C	-0.005386035	 0.0235913984	 0.0059052974	 0.253322
C	-0.042190349	-0.8510498235	-1.0394735678	-0.109512
O	-0.0211232217	-2.1383555721	-0.6068869334	-0.199785
C	 0.0319741512	-2.0919125186	 0.7593687409	 0.31018
C	 0.0427740636	-0.7968318434	 1.1796393189	-0.359595
C	 0.0667814898	-3.3532197112	 1.5232429423	 0.309914
N	 0.0403623872	-4.4861625093	 0.7640931907	-0.542947
O	 0.1143240223	-3.356115201	 2.7413447434	-0.368574
H	 0.8857089014	 1.9446595868	 0.3957412053	 0.136949
H	-0.0573635109	 1.8678184558	-1.0982865341	 0.126421
H	-0.8752519836	 1.9382814829	 0.4680966181	 0.136947
H	-0.0838182922	-0.714710111	-2.1083615899	 0.13818
H	 0.0812005365	-0.4790655105	 2.2095079411	 0.136668
H	 0.0060228595	-4.4485182099	-0.2392568008	 0.268413
H	 0.0663646067	-5.3748005716	 1.2337203099	 0.263092
41.2703	83.337	119.4518	150.7729	161.0735	300.8343	312.6913	391.6574	508.1203	547.5916	621.6735	621.8196	645.4366	703.8806	759.4503	785.3939	873.0603	953.1163	984.8196	1017.7894	1066.2127	1082.4653	1113.0763	1164.0467	1227.1648	1282.5943	1371.2163	1394.3673	1422.1331	1482.883	1497.8207	1559.4839	1609.2706	1657.7057	1778.2334	3034.0598	3087.5386	3113.7654	3267.8634	3269.296	3613.6766	3753.5652
CC1=COC(=C1)C(N)=O	Cc1coc(c1)C(=O)N	
InChI=1S/C6H7NO2/c1-4-2-5(6(7)8)9-3-4/h2-3H,1H3,(H2,7,8)	InChI=1S/C6H7NO2/c1-4-2-5(6(7)8)9-3-4/h2-3H,1H3,(H2,7,8)
