21
gdb 122457	3.54902	0.67137	0.60519	1.6912	86.28	-0.259	0.0215	0.2805	1897.111	0.179592	-387.042573	-387.032228	-387.031284	-387.079025	37.15	
C	-0.3413764925	 1.5224954683	 0.2006958394	-0.381253
C	 0.1676923389	 0.0993589634	-0.0426810174	-0.165231
C	 0.733613234	-0.5588294049	 1.219760885	-0.156343
C	 1.2446102485	-1.9860293465	 0.9785600113	-0.239548
C	 1.7999824445	-2.6099496874	 2.2329458917	 0.075353
O	 0.8623640208	-3.0341964315	 3.2230602495	-0.246715
C	 1.6507506161	-4.0445110515	 2.5703728413	-0.158605
C	 0.9680335284	-4.9765448878	 1.7132125708	 0.341685
C	 0.4272400354	-5.7854976846	 1.0071270823	-0.433443
H	 0.4618449348	 2.1734514208	 0.5636446394	 0.113207
H	-0.7408034591	 1.9665490738	-0.7164297158	 0.1115
H	-1.139252401	 1.5338701163	 0.9514408822	 0.116476
H	-0.6478632852	-0.5204593036	-0.4377865232	 0.098235
H	 0.9413708223	 0.1137752735	-0.8221224445	 0.09318
H	 1.5495274165	 0.0603342626	 1.6183696559	 0.09068
H	-0.038043167	-0.5872249968	 1.9993861483	 0.113215
H	 0.4371239905	-2.616729356	 0.5929224744	 0.116919
H	 2.0355943239	-1.9759537942	 0.2162058623	 0.100544
H	 2.6777565857	-2.1118637566	 2.6527127424	 0.092835
H	 2.4090868718	-4.4920732159	 3.2129944123	 0.114335
H	-0.0582861672	-6.4960279316	 0.3846050524	 0.202974
45.2766	72.4336	90.8607	125.2882	157.2409	213.3385	245.9756	286.3045	311.2581	423.4653	460.6097	554.4892	604.8352	627.0007	668.8615	736.3708	779.2368	814.0348	829.0509	903.9868	929.0618	973.0764	1017.5882	1029.0048	1067.3129	1087.2706	1120.3252	1154.6998	1180.4165	1245.7901	1272.5208	1287.0662	1314.7056	1330.91	1354.5214	1386.0881	1399.7983	1412.69	1460.9178	1474.6295	1486.6584	1498.7003	1499.6213	1512.5343	2238.8967	3008.028	3015.3066	3021.8879	3029.6862	3038.5594	3059.5789	3073.3028	3091.3616	3096.952	3102.035	3108.5682	3501.969
CCCCC1OC1C#C	CCCC[C@H]1O[C@H]1C#C	
InChI=1S/C8H12O/c1-3-5-6-8-7(4-2)9-8/h2,7-8H,3,5-6H2,1H3	InChI=1S/C8H12O/c1-3-5-6-8-7(4-2)9-8/h2,7-8H,3,5-6H2,1H3/t7-,8+/m0/s1
