16
gdb 51692	3.80156	0.95871	0.92484	3.6043	67.36	-0.2573	-0.0349	0.2224	1288.1084	0.123489	-475.042598	-475.034238	-475.033294	-475.076871	29.678	
N	-0.2132998814	 1.0029701903	-0.8087611931	-0.433024
C	-0.1502186857	-0.1053186984	-0.2132909569	 0.127015
O	-1.2250216372	-0.9312384255	-0.2210445526	-0.199833
C	-1.026352855	-2.2180762568	 0.3527612083	 0.187535
C	-2.3770800809	-2.9210346612	 0.3529841719	-0.364011
C	-2.3635262918	-3.6666420527	-0.9846023413	 0.377596
O	-3.286537774	-4.2008636633	-1.533320361	-0.289109
C	-0.9205159003	-3.5989565612	-1.4931754043	-0.190298
O	-0.166392627	-3.0072278095	-0.4403213639	-0.251266
H	 0.6599072545	 1.5126521252	-0.6888306666	 0.233328
H	 0.7044134503	-0.5038485763	 0.347464418	 0.100159
H	-0.5460783069	-2.1210944266	 1.3312194283	 0.101465
H	-2.4328916104	-3.6534216368	 1.1648550254	 0.147264
H	-3.2246240586	-2.2405372715	 0.4306483823	 0.160856
H	-0.5202525151	-4.5936402314	-1.7061185756	 0.144885
H	-0.8825420404	-2.9982417944	-2.4117332689	 0.14744
54.7946	77.7539	98.0991	169.8185	225.4805	365.269	445.9536	465.3562	499.9455	609.9556	642.7882	758.9744	794.5498	827.6822	837.1701	939.4839	943.1486	1013.89	1042.5467	1054.5327	1068.1219	1118.4899	1163.7428	1180.3487	1221.171	1268.9381	1286.9122	1321.6506	1375.9312	1384.7192	1430.1062	1438.5443	1478.8566	1752.4024	1870.7487	3026.0258	3043.2113	3065.1667	3075.7617	3102.0543	3149.5283	3515.9094
N=COC1CC(=O)CO1	[NH][CH]O[C@H]1CC(=O)CO1	
InChI=1S/C5H7NO3/c6-3-9-5-1-4(7)2-8-5/h3,5-6H,1-2H2	InChI=1S/C5H7NO3/c6-3-9-5-1-4(7)2-8-5/h3,5-6H,1-2H2/t5-/m0/s1
