15
gdb 45029	2.46415	1.73338	1.14556	3.8617	66.25	-0.2593	-0.0355	0.2237	1022.1931	0.112885	-457.804979	-457.797706	-457.796762	-457.837115	27.736	
O	 0.0557277589	 0.0410349617	 0.4777864769	-0.304023
C	-0.0032653567	 1.1372319764	 0.0035936858	 0.40923
C	-1.3087925289	 1.9105444248	-0.1480493058	-0.473999
C	-1.3606981928	 2.8949572369	-1.3088482376	 0.40716
O	-2.3373272797	 3.0060695737	-2.0120677941	-0.314304
C	-0.1072140483	 3.6549034499	-1.5358354256	-0.172244
C	 0.6631117408	 4.2271234465	-0.3361465782	-0.32804
C	 1.16551234	 3.0113087295	-1.0243052662	 0.121425
O	 1.1452921377	 1.7513864406	-0.3956745722	-0.222275
H	-2.1284567375	 1.1972090961	-0.2300254538	 0.168377
H	-1.4547834908	 2.4635026148	 0.789891413	 0.163723
H	-0.0728836008	 4.2026210411	-2.4697113182	 0.12493
H	 1.1845957219	 5.1633382166	-0.4968090338	 0.144086
H	 0.2245027191	 4.1178527309	 0.6490412696	 0.139088
H	 2.0521453872	 3.0776742205	-1.6423260798	 0.136865
88.1052	108.6547	226.4271	365.488	408.6022	444.3489	485.8842	521.9549	539.5468	615.1182	696.7875	765.1796	811.3029	840.6808	876.1396	932.1274	986.1778	1014.6651	1029.188	1051.5367	1123.9069	1143.6616	1172.9533	1187.4323	1232.7809	1269.9339	1299.6496	1361.2821	1403.6397	1437.1073	1479.3053	1809.9269	1864.5711	3036.8402	3146.5196	3147.3752	3191.4917	3198.0307	3236.559
O=C1CC(=O)C2CC2O1	O=C1CC(=O)[C@H]2C[C@H]2O1	
InChI=1S/C6H6O3/c7-4-2-6(8)9-5-1-3(4)5/h3,5H,1-2H2	InChI=1S/C6H6O3/c7-4-2-6(8)9-5-1-3(4)5/h3,5H,1-2H2/t3-,5-/m1/s1
