19
gdb 96417	2.07749	1.63747	1.19422	4.2368	75.09	-0.2399	0.0324	0.2723	1104.7545	0.161944	-419.226982	-419.218615	-419.217671	-419.25974	32.283	
O	 0.0671331559	 1.4160677034	-0.040134039	-0.435806
C	 0.0304738527	 0.007548111	 0.0254847459	 0.124358
C	 0.836095669	-0.5652753508	 1.1956852793	-0.212584
C	 0.7470975947	-2.0957649153	 1.2240188259	-0.170714
N	-0.6553425261	-2.4960713695	 1.2894584736	-0.274851
C	-1.4116466449	-2.0805493521	 0.1213906277	-0.185327
C	-1.4274916397	-0.5386893947	 0.0401087426	-0.157047
C	-2.1704220517	 0.0643085221	 1.149631353	 0.278639
N	-2.7300739568	 0.5923085267	 2.0128931025	-0.338425
H	-0.3156553994	 1.7643292714	 0.7748218802	 0.293133
H	 0.4756515209	-0.3342903447	-0.9169063819	 0.095015
H	 1.8764937577	-0.2390120479	 1.1054773959	 0.108495
H	 0.4381600905	-0.1669843384	 2.1369897599	 0.120172
H	 1.2638042802	-2.5041482833	 0.3334048562	 0.080692
H	 1.2643984636	-2.4866416035	 2.1052747859	 0.109343
H	-0.7423009349	-3.494663357	 1.4326943913	 0.227434
H	-0.9872324646	-2.4481030154	-0.8329794998	 0.088416
H	-2.4331164562	-2.4638320622	 0.196504083	 0.121807
H	-1.9157923208	-0.2255780998	-0.8892328324	 0.127249
106.6944	134.6669	173.4261	260.2695	329.0496	356.4793	380.237	393.9407	423.1625	455.2715	538.2774	628.9304	659.9735	761.5899	814.9308	857.6331	891.2906	937.3888	977.9175	1018.7425	1061.3902	1095.8891	1097.3655	1128.4855	1176.4981	1184.2046	1226.6728	1270.0308	1280.4437	1292.5835	1333.8162	1339.99	1373.798	1393.8997	1418.1634	1437.6252	1479.8428	1484.6024	1495.838	1508.3045	2350.5149	2909.9764	2915.7772	3034.9432	3043.5309	3060.2982	3077.0931	3084.2901	3096.2877	3551.5722	3781.4161
OC1CCNCC1C#N	O[C@H]1CCNC[C@H]1C#N	
InChI=1S/C6H10N2O/c7-3-5-4-8-2-1-6(5)9/h5-6,8-9H,1-2,4H2	InChI=1S/C6H10N2O/c7-3-5-4-8-2-1-6(5)9/h5-6,8-9H,1-2,4H2/t5-,6+/m1/s1
