18
gdb 36221	3.55894	1.076	0.95699	1.1368	83.26	-0.2317	0.0131	0.2449	1269.6817	0.147959	-364.760057	-364.751906	-364.750962	-364.793162	31.532	
C	-0.0661712361	-1.1542243209	 0.4608834226	-0.46457
C	-0.0308571636	 0.0065985579	 0.151196622	 0.309659
C	 0.0358064414	 1.4220101512	-0.2123835929	-0.466846
C	 1.4372822517	 1.9751253214	-0.1664748076	 0.389393
C	 2.0790195262	 2.6295668435	-1.1383654915	-0.192983
C	 3.4699765459	 3.0688688609	-0.727570125	-0.253854
C	 3.5536855777	 2.6198261841	 0.7284419723	-0.03317
N	 2.5661477895	 3.2761802034	 1.6130488147	-0.33817
C	 2.2880557421	 1.9157718457	 1.063305786	-0.152533
H	-0.1079894991	-2.1813052216	 0.7265900935	 0.196332
H	-0.3857506883	 1.5663716876	-1.2140037944	 0.135127
H	-0.6038640098	 1.9925062298	 0.4770258899	 0.145183
H	 1.6584298973	 2.8633688885	-2.110778272	 0.090118
H	 4.2443338767	 2.5890171477	-1.3407241421	 0.106061
H	 3.6072898129	 4.1523134813	-0.8272229934	 0.119108
H	 4.5068982356	 2.3182028771	 1.1486918216	 0.087282
H	 2.8893475743	 3.1727852457	 2.5742013756	 0.226156
H	 2.2297148956	 1.0725776868	 1.7426191206	 0.097705
56.7981	101.2998	201.5922	281.1953	319.3756	344.9132	386.2757	445.572	591.4699	617.6233	639.8032	662.8501	751.6007	815.2853	817.0401	845.0416	862.5326	914.5064	926.8308	950.495	955.2823	990.6374	1009.202	1076.3742	1132.5072	1163.7704	1181.1766	1191.9269	1209.9184	1247.6377	1281.4519	1324.6244	1332.5189	1389.3419	1413.6056	1458.7234	1466.8544	1705.5163	2237.3335	3001.6341	3020.0639	3056.3326	3058.0916	3166.7156	3178.9241	3187.4267	3470.064	3506.5324
C#CCC1=CCC2NC12	C#CCC1=CC[C@H]2N[C@@H]12	
InChI=1S/C8H9N/c1-2-3-6-4-5-7-8(6)9-7/h1,4,7-9H,3,5H2	InChI=1S/C8H9N/c1-2-3-6-4-5-7-8(6)9-7/h1,4,7-9H,3,5H2/t7-,8+/m1/s1
