21
gdb 60847	3.02042	1.07049	0.95046	2.2463	79.73	-0.2555	-0.0363	0.2192	1331.6445	0.179535	-424.227602	-424.217441	-424.216497	-424.262757	37.443	
C	 0.0158511035	 1.3821906489	-0.3131714631	-0.42216
C	 0.236145396	-0.0865698167	-0.0227685959	-0.023161
C	 1.6226247211	-0.6743346938	 0.0898754372	-0.335057
C	 0.7326454375	-0.604316687	 1.3127754909	 0.293724
C	 1.0643561382	 0.3612501399	 2.4358252575	-0.47874
C	 0.1194286851	-1.9328558116	 1.803060375	-0.015247
O	-0.4693389555	-2.6786124173	 0.7733962453	-0.432511
C	 1.1878304891	-2.7790015266	 2.4754028196	 0.147883
O	 1.4482295135	-3.8925847407	 2.0840857852	-0.268355
H	 0.804625697	 2.0156121757	 0.1023116605	 0.112911
H	 0.0026278873	 1.5532500828	-1.3951843924	 0.121792
H	-0.941880586	 1.7331322554	 0.0874917421	 0.117651
H	-0.4830332157	-0.7450985495	-0.4975204092	 0.112522
H	 1.7967468104	-1.647526645	-0.3570214948	 0.115038
H	 2.4717300196	 0.0012400602	 0.047832704	 0.104108
H	 1.4659799286	 1.2998295001	 2.0491628182	 0.125929
H	 0.1725979494	 0.6019160402	 3.0276380677	 0.119755
H	 1.8158499902	-0.0437573991	 3.1227129503	 0.11626
H	-0.6351671746	-1.689438046	 2.5740225291	 0.088884
H	-0.0080063567	-3.5333826828	 0.7764303205	 0.295586
H	 1.7260971721	-2.329670797	 3.3312674323	 0.103187
50.2135	101.5905	153.9453	167.5458	183.4719	223.034	293.5892	300.7745	339.1893	348.6499	425.4293	450.5152	506.2554	554.2976	679.6205	776.6265	784.1793	841.9824	888.8537	912.369	928.5943	972.826	1008.6043	1049.188	1062.5139	1107.5076	1123.7734	1143.8863	1158.0764	1196.1132	1251.0608	1262.1268	1305.0954	1353.6336	1393.6738	1406.2297	1418.4611	1427.3858	1439.9195	1485.46	1486.6861	1492.4761	1502.3823	1515.1144	1805.1771	2933.1208	2959.2061	3026.4518	3031.4518	3080.0194	3088.3517	3103.3935	3122.3068	3127.4104	3174.8187	3210.3856	3671.5821
CC1CC1(C)C(O)C=O	C[C@H]1C[C@]1(C)[C@@H](O)C=O	
InChI=1S/C7H12O2/c1-5-3-7(5,2)6(9)4-8/h4-6,9H,3H2,1-2H3	InChI=1S/C7H12O2/c1-5-3-7(5,2)6(9)4-8/h4-6,9H,3H2,1-2H3/t5-,6-,7-/m0/s1
