20
gdb 89902	4.51734	1.00873	0.9697	2.5692	78.92	-0.2276	0.0786	0.3063	1269.2126	0.171562	-403.083644	-403.075561	-403.074617	-403.116266	32.28	
O	 0.1950301467	 1.3846766564	-0.1576559497	-0.435101
C	 0.0770521724	-0.0083857901	-0.0232131494	 0.175892
C	 0.3214154214	-0.6900747725	 1.3488903768	-0.331404
C	-0.808779189	-1.6879343628	 0.994547864	 0.413001
C	-0.4679731461	-3.1419658098	 0.4962235238	-0.301726
C	-1.4428864168	-3.6820670882	 1.5467293086	-0.032195
N	-0.9299602984	-3.2159993309	 2.8591473765	-0.337984
C	-1.7550717798	-2.3072878063	 2.0198625955	-0.153816
C	-1.3219686122	-0.6816598086	-0.0674116847	-0.354333
H	-0.3353949829	 1.7948481522	 0.5337563021	 0.27417
H	 0.7329484059	-0.4301187041	-0.7908128411	 0.094796
H	 1.3143517323	-1.0871274011	 1.5676052795	 0.107853
H	 0.0180877061	-0.0306553593	 2.1713883433	 0.08809
H	-0.798983441	-3.3143689134	-0.5310779702	 0.101754
H	 0.5682196469	-3.4710411503	 0.6123346497	 0.105247
H	-2.0760466866	-4.5581105489	 1.479738192	 0.091655
H	-1.5508370978	-3.5998638907	 3.5723150251	 0.225606
H	-2.6778518952	-1.8839444133	 2.4013203703	 0.082184
H	-2.0813599965	-0.0132415233	 0.3580341161	 0.086601
H	-1.6894158093	-1.0662749551	-1.0225350681	 0.099709
80.3334	116.2872	237.9766	291.3396	330.1635	359.4897	383.8127	441.4434	472.2698	555.5152	683.6838	762.4818	811.5427	824.9153	835.9436	849.4729	891.5344	927.1064	944.964	966.8792	1002.2464	1012.835	1045.0985	1072.5169	1081.9934	1093.0474	1114.7782	1140.3693	1182.0943	1199.3939	1210.9438	1224.6061	1237.8693	1273.6429	1278.6966	1308.2219	1334.5239	1336.0027	1383.6892	1438.4435	1466.3728	1471.9497	1493.7863	3025.9335	3036.4762	3055.3727	3067.6175	3095.8372	3112.7153	3115.1137	3169.6339	3191.7736	3461.4338	3804.623
OC1CC2(CC3NC23)C1	O[C@H]1C[C@]2(C[C@H]3N[C@@H]23)C1	
InChI=1S/C7H11NO/c9-4-1-7(2-4)3-5-6(7)8-5/h4-6,8-9H,1-3H2	InChI=1S/C7H11NO/c9-4-1-7(2-4)3-5-6(7)8-5/h4-6,8-9H,1-3H2/t4-,5-,6-,7+/m1/s1
