15
gdb 105168	2.8714	1.14081	0.96438	3.0359	69.96	-0.2654	-0.06	0.2054	1213.4564	0.108694	-457.702758	-457.693643	-457.692699	-457.736888	32.685	
O	 0.1517639912	 1.3912580379	-0.4151113204	-0.41879
C	 0.10397807	 0.0702796826	 0.0743870593	-0.141936
C	-1.3072807152	-0.4914315948	 0.0901947497	 0.254304
O	-1.7959585098	-1.1734526358	-1.0730372423	-0.257887
C	-1.5677405018	-1.962991274	 0.0925553705	-0.22832
C	-0.4866528567	-2.9100678804	 0.0824089074	 0.322238
C	 0.3945467732	-3.7268550829	 0.1001591675	-0.381305
C	-2.359991834	 0.3490331802	 0.7480230931	 0.130559
O	-2.1188812892	 1.3561960863	 1.3682530906	-0.266173
H	-0.3250679452	 1.9375812285	 0.2218188301	 0.300547
H	 0.7176536529	-0.5462603664	-0.585769741	 0.134222
H	 0.5172245837	-0.0088276564	 1.0917691829	 0.107922
H	-2.4808618708	-2.3151537887	 0.5741825795	 0.126953
H	 1.1772143457	-4.4455245373	 0.1071288549	 0.213095
H	-3.3963060042	-0.0259107289	 0.6075797182	 0.104571
82.0238	104.2126	119.422	184.1005	216.2098	276.9898	309.1538	359.6627	417.3753	499.6965	527.5315	563.4604	605.5108	643.8405	683.1989	796.3358	821.6664	898.8737	951.7089	1036.9854	1045.9536	1082.1009	1093.0629	1203.3595	1285.1995	1316.391	1380.9309	1394.7015	1426.9199	1447.7405	1480.8606	1809.6524	2242.2327	2913.2362	2991.7294	3100.982	3114.6231	3498.8927	3784.5064
OCC1(OC1C#C)C=O	OC[C@]1(O[C@H]1C#C)C=O	
InChI=1S/C6H6O3/c1-2-5-6(3-7,4-8)9-5/h1,3,5,8H,4H2	InChI=1S/C6H6O3/c1-2-5-6(3-7,4-8)9-5/h1,3,5,8H,4H2/t5-,6+/m0/s1
