20
gdb 48214	1.86063	1.64013	0.9783	3.7954	80.84	-0.2277	0.0268	0.2546	1249.8045	0.171085	-403.133725	-403.124802	-403.123857	-403.16901	33.248	
O	 0.0941741098	-0.1878430815	-0.4018491783	-0.343388
C	 0.0585953212	 1.0245425678	-0.4427392424	 0.145122
N	 1.0462154715	 1.8655176964	 0.0054702371	-0.072489
C	 0.9526260386	 3.2795438661	-0.2121199924	 0.024648
C	-0.341607322	 4.0053770154	 0.0575081961	-0.293074
C	 0.8423734223	 4.2334268714	 0.9570108024	-0.260767
C	 2.2882125624	 1.2622811992	 0.434161108	 0.066192
C	 3.6374543727	 1.7985589936	 0.0339639624	-0.287518
C	 3.1893509599	 1.8547700268	 1.4811738963	-0.292216
H	-0.8014279506	 1.5856723545	-0.8469977902	 0.081507
H	 1.5250105883	 3.6428566736	-1.0638546067	 0.104126
H	-0.6315628169	 4.7813448836	-0.6412498428	 0.125777
H	-1.1697538667	 3.4412543831	 0.4683527987	 0.132621
H	 0.7906800508	 3.7973124942	 1.9472573629	 0.13055
H	 1.3792374706	 5.1733168688	 0.8978271832	 0.120663
H	 2.1695706644	 0.1869263002	 0.4377888145	 0.139594
H	 4.3987283121	 1.0855257406	-0.2620754698	 0.120103
H	 3.6844866411	 2.742967183	-0.4961445005	 0.114981
H	 2.9584488269	 2.8339453427	 1.8801287389	 0.122833
H	 3.6348126837	 1.1739312303	 2.1982158727	 0.120734
13.8781	100.6679	150.3146	184.1394	236.6576	284.9832	345.2758	368.9309	480.7802	513.2942	632.9092	716.4095	773.8155	792.6966	819.3879	841.4488	897.6091	934.4904	949.7418	957.1896	1028.7982	1043.0896	1061.9033	1066.3101	1079.0427	1091.3259	1139.1748	1148.5965	1156.3162	1196.5245	1205.7859	1215.3617	1224.3961	1305.0439	1320.0948	1409.4461	1430.1835	1447.0357	1461.3413	1465.673	1499.5344	1508.1238	1785.3049	2984.1334	3109.1065	3139.9412	3143.6608	3146.7483	3150.2175	3209.1658	3221.2685	3228.1053	3239.9391	3242.3947
O=CN(C1CC1)C1CC1	O=CN(C1CC1)C1CC1	
InChI=1S/C7H11NO/c9-5-8(6-1-2-6)7-3-4-7/h5-7H,1-4H2	InChI=1S/C7H11NO/c9-5-8(6-1-2-6)7-3-4-7/h5-7H,1-4H2
