19
gdb 67644	3.3185	1.8061	1.61215	0.7365	77.77	-0.205	0.0737	0.2786	916.4082	0.162001	-381.99853	-381.991768	-381.990824	-382.029226	28.228	
C	-0.1143138441	 1.4975104906	-0.0297875561	-0.518677
C	 0.1022788976	 0.0168193408	-0.0289188239	 0.361154
C	 0.151802473	-0.9102692328	-1.1688126956	-0.085204
C	 1.3430292872	-1.8360271317	-1.0078400164	-0.198839
N	 1.4621016051	-2.044234174	 0.4467696625	-0.135955
C	 0.3171022725	-2.9381879261	 0.8600189969	-0.183929
C	-0.5485594053	-1.7080021241	 1.0665229171	 0.025525
C	 0.7245464221	-0.8484009998	 1.082948466	-0.094725
N	-1.004306961	-1.0116158005	-0.2135197498	-0.218641
H	 0.8324395921	 2.0314362184	-0.1728757067	 0.123925
H	-0.7933643917	 1.7816190462	-0.8388780369	 0.133318
H	-0.5531411026	 1.8394072487	 0.913929291	 0.124877
H	-0.1679608127	-0.5840589447	-2.154323639	 0.094513
H	 1.2405878435	-2.803202934	-1.5095220432	 0.108966
H	 2.2413368602	-1.3483836741	-1.4102237472	 0.103066
H	 0.0092951509	-3.67279004	 0.108622881	 0.10354
H	 0.5555849823	-3.4560951104	 1.7952459673	 0.105835
H	-1.3488566926	-1.6672490196	 1.8070464849	 0.076694
H	 1.2165971237	-0.4164959431	 1.952822008	 0.074557
183.079	208.88	249.8036	315.9292	467.3398	501.0754	548.8805	636.8729	661.8648	704.2451	772.6854	821.1846	846.1068	859.1968	901.4182	904.9943	939.4715	960.1743	978.3544	1007.0744	1044.2032	1067.5264	1091.9734	1101.6678	1121.2929	1178.1475	1187.8203	1205.5494	1240.2068	1250.7487	1265.3557	1281.51	1304.2521	1310.5379	1337.1193	1407.9021	1455.4131	1483.1315	1491.2254	1494.162	1513.2793	3012.7628	3027.5001	3032.4007	3076.4836	3085.4736	3087.9455	3093.0602	3111.5498	3124.8603	3156.5317
CC12C3CN4CC(C14)N23	C[C@@]12[C@H]3CN4C[C@@H]([C@H]14)N23	
InChI=1S/C7H10N2/c1-7-5-3-8-2-4(6(7)8)9(5)7/h4-6H,2-3H2,1H3	InChI=1S/C7H10N2/c1-7-5-3-8-2-4(6(7)8)9(5)7/h4-6H,2-3H2,1H3/t4-,5+,6+,7+,9?/m0/s1
