17
gdb 54358	1.95622	1.60106	1.20556	1.0033	69.52	-0.2626	-0.0652	0.1974	1100.4237	0.132451	-458.961236	-458.95172	-458.950776	-458.997076	32.362	
C	 0.0929163902	 1.4473660284	-0.1639020816	-0.489222
C	 0.1555883915	-0.0300870721	 0.1587493597	 0.304816
O	 1.1672423605	-0.593914812	 0.4993345072	-0.287966
C	-1.168099735	-0.8009780433	 0.0484166232	 0.09368
C	-1.9458012663	-0.7284638139	-1.2888980475	-0.122331
O	-1.8536472349	-2.1558944662	-1.4482892795	-0.265545
C	-1.0493046105	-2.3077641766	-0.2606276429	-0.125635
C	-1.9913713794	-0.4747547309	 1.2816815996	 0.08644
O	-2.8684431772	 0.3489331756	 1.3109365001	-0.241333
H	 0.9813617413	 1.9474633689	 0.2232197129	 0.151621
H	 0.0609737007	 1.5813453524	-1.2514581418	 0.155351
H	-0.8166664226	 1.9006939913	 0.2416349628	 0.159418
H	-2.9773742559	-0.3723084997	-1.2022425734	 0.130406
H	-1.4400426246	-0.1915874175	-2.1005639844	 0.104871
H	-0.0278751583	-2.6399668017	-0.4727719445	 0.129087
H	-1.5108143806	-2.9873914436	 0.4667012418	 0.108739
H	-1.706099719	-1.0578850392	 2.1844379183	 0.107602
39.8139	62.9542	89.6869	109.2845	198.7421	227.603	235.4413	319.3969	408.3228	434.1853	578.2509	606.683	685.0591	822.4357	860.345	940.5841	956.5714	990.6955	1002.0353	1037.0957	1039.4889	1120.65	1134.851	1149.3353	1157.8424	1211.1919	1238.4124	1300.5643	1364.0261	1387.5098	1409.3151	1464.6786	1472.3975	1516.7938	1538.6225	1794.7537	1825.226	2897.9023	3017.6268	3026.7907	3041.8513	3080.4285	3081.6707	3105.7389	3156.2596
CC(=O)C1(COC1)C=O	CC(=O)C1(COC1)C=O	
InChI=1S/C6H8O3/c1-5(8)6(2-7)3-9-4-6/h2H,3-4H2,1H3	InChI=1S/C6H8O3/c1-5(8)6(2-7)3-9-4-6/h2H,3-4H2,1H3
