21
gdb 120957	4.43262	0.88346	0.8596	1.0015	78.58	-0.2378	0.0834	0.3212	1424.2838	0.183744	-424.1986	-424.19016	-424.189216	-424.232166	32.525	
O	 0.0111658781	 1.382782192	-0.0187440693	-0.423758
C	 0.0055604051	-0.03171336	 0.1182570191	-0.073657
C	-1.4244555308	-0.5127314426	-0.0969632449	-0.204093
C	-1.543244404	-2.0282573468	-0.0234286115	 0.14098
O	-1.0915499808	-2.5386341868	 1.26266472	-0.301799
C	-2.2217010583	-3.3199773723	 1.687893457	 0.119625
C	-2.6300642885	-4.0887068121	 0.4069578128	-0.238889
C	-2.9594577653	-2.6316513362	-0.0540682636	-0.080056
C	-3.4269896136	-2.3888400853	 1.4179969568	-0.236693
H	 0.8947217811	 1.6987250826	 0.1906295204	 0.284353
H	 0.6726527022	-0.5052662579	-0.6216499058	 0.079521
H	 0.3460976242	-0.3439282951	 1.1152655733	 0.107015
H	-2.0700495977	-0.0348650747	 0.6464945107	 0.106518
H	-1.7637130411	-0.1778668812	-1.0854136989	 0.101233
H	-0.9173174141	-2.4743795425	-0.8105081475	 0.069057
H	-2.0044181107	-3.7870361416	 2.6472402086	 0.077709
H	-1.843626217	-4.6337679648	-0.1211118848	 0.097829
H	-3.5202523852	-4.7069320412	 0.5337953141	 0.100034
H	-3.581700708	-2.4097038945	-0.9203083197	 0.072246
H	-4.3897885575	-2.8574675876	 1.6277300679	 0.100342
H	-3.3880290984	-1.3798086115	 1.8319996254	 0.102481
77.2695	89.3267	129.3908	239.7098	261.4255	332.787	347.9082	488.1803	529.2607	563.6564	656.7895	789.1743	827.511	841.6096	861.8538	874.0491	878.8679	945.1591	968.71	986.4306	1023.9864	1033.523	1046.1877	1059.08	1077.3224	1101.1426	1117.1043	1134.7341	1153.9077	1208.3486	1223.2963	1232.2883	1245.7912	1255.6874	1286.0488	1296.7455	1310.5037	1317.4822	1358.363	1411.2766	1459.2088	1474.6248	1485.1891	1512.1845	1530.2357	2960.1927	2988.5697	3020.413	3037.4183	3065.6814	3077.3868	3093.1319	3125.3163	3133.2216	3136.929	3141.7311	3831.1217
OCCC1OC2CC1C2	OCC[C@H]1O[C@@H]2C[C@H]1C2	
InChI=1S/C7H12O2/c8-2-1-7-5-3-6(4-5)9-7/h5-8H,1-4H2	InChI=1S/C7H12O2/c8-2-1-7-5-3-6(4-5)9-7/h5-8H,1-4H2/t5-,6+,7-/m1/s1
