16
gdb 81902	2.38692	1.84656	1.1682	5.4683	69.1	-0.2317	-0.0825	0.1492	1030.5252	0.124197	-437.894357	-437.886428	-437.885484	-437.926956	29.717	
C	 0.1385004032	 1.6348973932	-0.0214299962	-0.399789
C	 0.0599441476	 0.1086133268	-0.0178139237	-0.103368
C	 0.7224368003	-0.5883231706	-1.1997434976	-0.060538
N	 2.1784781056	-0.4801609837	-1.1397555155	-0.326262
C	 1.5251531469	-1.7688231843	-0.7497213317	-0.180545
C	 1.4392504075	-1.8518761414	 0.7398314652	 0.372057
O	 1.763523642	-2.7522470909	 1.46472921	-0.293522
C	 0.7384096716	-0.5303166136	 1.2011262577	 0.29218
O	 0.7194723702	-0.1286966115	 2.3311198602	-0.286817
H	 1.1736468714	 1.956600609	-0.1631482823	 0.14202
H	-0.4721537243	 2.060265765	-0.8231958429	 0.113912
H	-0.2164782008	 2.0276136462	 0.9346186364	 0.142675
H	-0.9927646602	-0.2103553226	 0.0293730538	 0.113792
H	 0.2271452858	-0.6077842131	-2.1652433607	 0.104916
H	 2.5917951825	-0.5989928602	-2.0614802198	 0.25045
H	 1.6742520307	-2.6571683982	-1.3507987931	 0.118839
72.1368	178.2578	211.1376	228.9077	237.6581	316.231	435.8868	470.5456	527.3774	588.0225	655.5943	690.3239	815.121	821.7698	868.9843	885.1502	915.9862	982.3263	994.1749	1040.1091	1098.2046	1115.1017	1125.0691	1149.7697	1190.6462	1240.4327	1289.4649	1319.1597	1360.3658	1396.8566	1413.3332	1492.3426	1503.5865	1849.0139	1864.743	3001.1252	3046.8996	3119.8524	3131.9756	3164.0917	3198.7648	3509.4806
CC1C2NC2C(=O)C1=O	C[C@H]1[C@H]2N[C@H]2C(=O)C1=O	
InChI=1S/C6H7NO2/c1-2-3-4(7-3)6(9)5(2)8/h2-4,7H,1H3	InChI=1S/C6H7NO2/c1-2-3-4(7-3)6(9)5(2)8/h2-4,7H,1H3/t2-,3+,4+/m0/s1
