20
gdb 94063	4.33862	0.95856	0.82791	4.3132	80.61	-0.2159	0.0257	0.2416	1390.1561	0.173426	-399.338	-399.329259	-399.328315	-399.371245	33.487	
C	-0.0101351754	 1.5502211608	 0.0344798514	-0.408222
C	 0.0130171817	 0.0253339053	-0.0019822445	 0.051851
C	 0.6889588217	-0.5183134147	-1.2751463646	-0.164248
N	 0.8344039532	-1.9784630707	-1.2961367357	-0.298435
C	 1.4732443553	-2.4719554358	-0.0699466195	-0.115154
C	 0.7914171827	-1.9407492505	 1.2228735413	-0.171785
N	 0.650310659	-0.491835552	 1.2179462406	-0.290775
C	 1.5124417913	-3.9372956889	-0.0756215581	 0.26723
N	 1.5124623495	-5.092080692	-0.0333006322	-0.317048
H	 1.0083420002	 1.9568794657	 0.004461148	 0.112963
H	-0.553525406	 1.9557662746	-0.824175775	 0.120728
H	-0.4891885903	 1.9042754756	 0.9509118454	 0.131091
H	-1.0231208258	-0.3469799089	 0.0108080904	 0.078201
H	 0.1316520433	-0.2224987731	-2.1707184908	 0.107733
H	 1.6938125583	-0.078700992	-1.3618093959	 0.098808
H	-0.0794802373	-2.4140846875	-1.3905890585	 0.226341
H	 2.5122208023	-2.110734215	-0.0784855629	 0.12183
H	-0.2061411001	-2.3927119014	 1.297495641	 0.116573
H	 1.3576263921	-2.2488263013	 2.1076426574	 0.11944
H	 1.5613640044	-0.0543214681	 1.3335730023	 0.212879
81.6814	144.8755	202.0931	214.26	249.4242	304.8137	334.4361	385.4829	461.3552	465.069	538.1327	562.4103	596.4695	736.953	783.8374	822.7517	871.6726	921.2315	940.9651	987.776	1034.0506	1038.5892	1093.3918	1124.2513	1135.0788	1165.6022	1182.1653	1228.5807	1285.4714	1309.6917	1335.3304	1349.3514	1368.181	1387.6003	1389.4691	1410.3488	1469.9127	1472.7302	1477.3974	1489.2276	1499.3558	1503.5666	2358.7756	2985.1592	3002.1465	3005.1065	3027.3637	3030.2094	3070.0851	3084.895	3097.9289	3123.2526	3487.204	3498.1712
CC1CNC(CN1)C#N	C[C@H]1CN[C@@H](CN1)C#N	
InChI=1S/C6H11N3/c1-5-3-9-6(2-7)4-8-5/h5-6,8-9H,3-4H2,1H3	InChI=1S/C6H11N3/c1-5-3-9-6(2-7)4-8-5/h5-6,8-9H,3-4H2,1H3/t5-,6+/m0/s1
