12
gdb 9023	4.7123	0.92404	0.79808	4.659	72.39	-0.3067	-0.0624	0.2443	1318.3716	0.083137	-340.381936	-340.373819	-340.372875	-340.4151	27.554	
C	-0.008920149	 1.5560068419	 0.0063065314	-0.386129
C	-0.0209957278	 0.0055096365	 0.043340675	-0.33209
C	 0.7404799221	-0.4979120235	 1.1989140234	 0.297541
N	 1.3574828277	-0.8703819098	 2.1008570949	-0.301846
C	-1.3823838139	-0.5275080034	 0.0481537191	 0.16663
C	-2.5148830233	-0.9421558564	 0.0281823312	 0.018803
C	-3.7979188663	-1.4111490968	 0.0059516066	 0.220823
N	-4.8890721614	-1.807391442	-0.0162508564	-0.323899
H	 1.0221010235	 1.913710552	-0.0294602481	 0.153096
H	-0.5417102687	 1.9025777485	-0.8812870682	 0.149589
H	-0.495508376	 1.9621234832	 0.8947224673	 0.160381
H	 0.4841946131	-0.3667920702	-0.8588307462	 0.177101
72.6716	102.8934	179.5152	219.9234	240.309	242.9974	373.4618	459.9818	509.778	559.4219	576.4953	594.9884	722.7964	849.2129	991.7397	1069.6948	1088.3563	1188.8848	1288.5651	1326.6841	1410.2359	1489.0475	1496.0835	2273.6468	2369.2245	2410.4137	3021.9122	3062.7771	3148.2289	3152.9409
CC(C#N)C#CC#N	C[C@@H](C#N)C#CC#N	
InChI=1S/C6H4N2/c1-6(5-8)3-2-4-7/h6H,1H3	InChI=1S/C6H4N2/c1-6(5-8)3-2-4-7/h6H,1H3/t6-/m1/s1
