21
gdb 81374	2.39103	1.60905	1.28406	1.5404	77.25	-0.2352	0.0699	0.3051	1089.2164	0.183776	-424.209453	-424.201094	-424.20015	-424.24189	33.221	
C	-0.1638480797	 1.4686109936	-0.0296869584	-0.430848
C	 0.0157320498	-0.0450318217	-0.0404881346	 0.020504
C	 1.2373519646	-0.6026735965	-0.8248323583	 0.132406
C	 2.0750359022	-0.4445222073	 0.4731380415	-0.281015
C	 0.722479755	-0.648823936	 1.2188204804	-0.055083
C	 0.4326619571	-2.1573294902	 1.2842209588	 0.117653
O	-0.9313247224	-2.4395874535	 1.5600095464	-0.439758
C	 0.9596305399	-2.829214415	-0.0113074148	-0.118446
O	 0.9947749948	-1.9657430111	-1.1492891952	-0.282451
H	 0.7523292561	 1.9954695642	 0.2544388636	 0.11844
H	-0.4615188543	 1.8330285024	-1.0189652048	 0.119222
H	-0.9433970478	 1.7613734532	 0.6818910577	 0.120666
H	-0.9271283477	-0.5163147202	-0.3435925754	 0.049399
H	 1.5593806016	-0.1115430939	-1.7463218664	 0.072655
H	 2.8896726184	-1.1490174085	 0.655491173	 0.101957
H	 2.4595403082	 0.570840117	 0.5790327634	 0.107715
H	 0.557913426	-0.1658871507	 2.1850245306	 0.066726
H	 0.9728914554	-2.5968497793	 2.1306169704	 0.08774
H	-1.4661608291	-2.0414770843	 0.8649687238	 0.281408
H	 1.9676552609	-3.2269058232	 0.173716093	 0.096127
H	 0.314528801	-3.6734722892	-0.2695012948	 0.11498
130.7527	173.2994	196.2816	255.4782	258.4724	303.4298	388.128	413.3203	441.608	473.7491	522.1341	695.7614	779.9746	809.7064	836.7263	866.6259	902.8663	921.7308	933.8394	967.4037	1025.5075	1047.0031	1063.3545	1087.2527	1099.0299	1110.3613	1145.951	1153.1706	1183.7159	1227.9711	1252.6265	1265.0911	1277.0799	1285.8225	1309.4522	1335.3251	1344.1873	1379.8797	1399.9517	1414.2885	1436.4247	1489.6105	1497.3809	1500.7377	1515.7471	2994.1687	3019.8121	3031.0402	3045.9619	3072.4601	3079.4197	3086.157	3089.7588	3094.6407	3102.4678	3130.2559	3803.8875
CC1C2CC1C(O)CO2	C[C@H]1[C@H]2C[C@@H]1[C@@H](O)CO2	
InChI=1S/C7H12O2/c1-4-5-2-7(4)9-3-6(5)8/h4-8H,2-3H2,1H3	InChI=1S/C7H12O2/c1-4-5-2-7(4)9-3-6(5)8/h4-8H,2-3H2,1H3/t4-,5+,6+,7-/m1/s1
