20
gdb 98177	2.47999	1.07934	1.04368	3.5097	77.23	-0.2429	-0.0274	0.2154	1313.0835	0.167637	-440.333725	-440.322809	-440.321865	-440.370512	38.151	
C	-0.086967208	 1.547545432	-0.2226858112	-0.338023
N	-0.2046291631	 0.116074746	-0.4312140955	-0.329956
C	-0.9730408584	-0.6743206916	 0.364169314	 0.406002
O	-1.6224618689	-0.24370106	 1.3046654398	-0.393709
C	-1.0268206423	-2.1799893983	 0.0128929806	 0.047311
C	-0.1271116837	-2.6378762715	-1.1376441092	-0.455373
C	-0.7112354626	-2.9636381126	 1.3121786441	-0.413315
C	-2.4980295238	-2.4659012981	-0.3182875145	 0.157811
O	-2.8653874892	-3.0818333569	-1.2844611239	-0.259096
H	 0.9480851211	 1.8334187223	-0.0055610228	 0.128325
H	-0.4272687662	 2.1037505413	-1.1028149786	 0.130252
H	-0.7158387135	 1.8059818411	 0.6294472318	 0.17454
H	 0.3048765942	-0.3030755186	-1.1892023466	 0.251695
H	 0.9287150202	-2.4626379628	-0.9075549959	 0.114512
H	-0.2618695022	-3.7082952872	-1.3086466274	 0.139367
H	-0.3821177692	-2.1418730286	-2.0791487913	 0.128064
H	-1.3417846428	-2.6140418828	 2.1310891684	 0.15176
H	-0.8725390676	-4.0351344336	 1.1604464879	 0.124023
H	 0.3345285985	-2.8115568388	 1.5971788377	 0.12539
H	-3.2085225425	-2.0634704413	 0.4321124424	 0.110419
31.0086	71.844	93.6516	134.5352	209.4844	220.0834	247.8026	258.9173	299.175	310.7231	345.7921	354.8142	462.4168	486.2843	505.8442	687.4164	758.1056	798.0569	866.0528	918.0707	959.827	1015.1854	1036.0489	1067.9041	1151.8885	1167.3469	1182.4194	1202.3104	1247.4145	1273.8327	1388.3944	1396.6401	1421.2367	1437.9689	1485.3926	1488.1141	1493.8043	1500.6296	1501.0348	1512.301	1563.4686	1753.113	1827.401	2936.4211	3031.1076	3038.6696	3042.3858	3084.3845	3108.3302	3109.9346	3124.0656	3144.9681	3158.7996	3671.2926
CNC(=O)C(C)(C)C=O	CNC(=O)C(C)(C)C=O	
InChI=1S/C6H11NO2/c1-6(2,4-8)5(9)7-3/h4H,1-3H3,(H,7,9)	InChI=1S/C6H11NO2/c1-6(2,4-8)5(9)7-3/h4H,1-3H3,(H,7,9)
