18
gdb 122266	2.79676	1.0135	0.81806	2.5869	73.51	-0.2757	0.0121	0.2878	1402.8452	0.145935	-439.066313	-439.056824	-439.05588	-439.101658	34.045	
O	 0.0399025296	 1.3977796684	-0.4431933631	-0.419126
C	-0.0651964647	 0.0974636669	 0.1017200987	-0.066119
C	-1.5100987757	-0.3636766088	 0.1870079704	-0.099818
O	-2.007614081	-0.383841544	-1.1566438059	-0.294238
C	-3.3653396596	-0.6577787104	-1.2722591248	 0.30016
C	-4.3615326075	 0.4657763123	-1.034401057	-0.312574
C	-4.0695894341	-0.0048606469	-2.4338104421	-0.308767
C	-3.7487666668	-2.0048471896	-0.8964885031	 0.242005
N	-4.0374426847	-3.0792179261	-0.5799839286	-0.349053
H	-0.39818306	 1.3663254085	-1.3008086467	 0.288615
H	 0.5126735995	-0.6355716034	-0.4819880332	 0.10304
H	 0.3609596475	 0.1357300812	 1.1091681336	 0.117412
H	-1.5799712548	-1.3644342637	 0.6349718279	 0.118859
H	-2.1007999225	 0.3387387757	 0.790376356	 0.107249
H	-5.3169150849	 0.2193366495	-0.5870645277	 0.14459
H	-3.9273044942	 1.4073651074	-0.7184527185	 0.14146
H	-3.4376435685	 0.6163259856	-3.0574681069	 0.14046
H	-4.8197141076	-0.5819763326	-2.960385859	 0.145845
38.8457	72.3544	134.3153	163.6839	206.4045	229.5094	300.897	363.1513	395.3794	425.295	506.3751	576.1352	600.8244	701.8236	776.455	847.4537	900.7284	908.5898	936.7758	968.5594	1004.444	1059.543	1079.5061	1091.1887	1101.7632	1132.3644	1195.315	1234.6902	1266.9822	1279.7038	1302.4481	1391.3685	1407.5979	1434.5589	1453.3151	1485.2484	1496.2739	1505.1079	2348.383	2992.4785	3005.3505	3055.5189	3087.0614	3147.1229	3151.407	3236.5577	3249.9027	3809.3398
OCCOC1(CC1)C#N	OCCOC1(CC1)C#N	
InChI=1S/C6H9NO2/c7-5-6(1-2-6)9-4-3-8/h8H,1-4H2	InChI=1S/C6H9NO2/c7-5-6(1-2-6)9-4-3-8/h8H,1-4H2
