15
gdb 61009	2.31271	1.55391	1.23687	3.107	62.56	-0.2686	-0.0565	0.2121	1030.791	0.109016	-494.876357	-494.867572	-494.866628	-494.910961	30.677	
O	-1.33103594	 0.0459399148	-0.3828694871	-0.438506
C	-0.0366653353	-0.4197824152	-0.1187623835	 0.009823
C	 0.997617318	 0.6373194557	-0.5072615908	 0.151068
O	 0.6592837963	 1.560677577	-1.2073122814	-0.279091
C	 0.0304671288	-0.9754710231	 1.2957517792	 0.046816
O	 1.2431926526	-0.8593963999	 2.0195491164	-0.225913
C	 0.1085816888	-0.1551627329	 2.5290575968	-0.039077
C	 0.1378750774	 1.3387776801	 2.4827132331	 0.147214
O	 0.902262868	 1.9817534095	 1.8093660587	-0.239917
H	-1.1955561376	 0.8444724854	-0.9225959977	 0.300092
H	 0.216006097	-1.2731016575	-0.7832095024	 0.103251
H	 2.0420679141	 0.4594962157	-0.2071759055	 0.127779
H	-0.4743337367	-1.9358403257	 1.4093673986	 0.118945
H	-0.328772082	-0.5781757847	 3.433881566	 0.117945
H	-0.6201044195	 1.8260547808	 3.1320041497	 0.099571
28.6446	117.6494	131.7759	163.5129	239.0168	273.0971	306.0023	344.9789	457.7315	512.7735	615.6407	653.4231	755.1735	806.7113	819.8938	878.7044	956.2837	978.1063	1020.8489	1069.6433	1113.6338	1139.0456	1160.4899	1271.8581	1282.7685	1333.5261	1382.4201	1390.0264	1420.0195	1449.3209	1464.0063	1803.8262	1825.2857	2887.7816	2912.2599	3020.7286	3101.3466	3118.0134	3646.5227
OC(C=O)C1OC1C=O	O[C@@H](C=O)[C@H]1O[C@H]1C=O	
InChI=1S/C5H6O4/c6-1-3(8)5-4(2-7)9-5/h1-5,8H	InChI=1S/C5H6O4/c6-1-3(8)5-4(2-7)9-5/h1-5,8H/t3-,4-,5+/m0/s1
