16
gdb 46468	3.0287	1.52258	1.10153	6.8913	73.18	-0.2382	-0.0566	0.1816	1069.4317	0.125683	-434.058199	-434.050224	-434.049279	-434.09124	29.706	
N	-0.0986352549	 1.2960952654	 0.0882701947	-0.514977
C	-0.0073347957	 0.0275133417	 0.0317420576	 0.293329
N	 1.08599313	-0.8010284805	-0.1011334267	-0.361985
C	 0.8271640959	-2.2300682329	 0.0281393459	-0.272386
C	-0.6950320354	-2.3044973444	 0.0110976778	 0.211647
C	-1.4629979852	-3.3322778513	-0.7511079415	-0.263012
N	-1.4512055699	-3.3560140341	 0.7113535797	-0.324814
C	-1.2183335568	-0.8926769262	 0.0931077886	 0.322118
O	-2.3696985482	-0.5622168834	 0.1634071361	-0.287939
H	 0.819521522	 1.7449068619	 0.0444070285	 0.204957
H	 2.0235326824	-0.4390020138	-0.0385186572	 0.24794
H	 1.2865686886	-2.7915488369	-0.7940767326	 0.121159
H	 1.2276819901	-2.6281250292	 0.9726881571	 0.117804
H	-2.412321771	-3.0375463167	-1.1890971854	 0.148878
H	-0.8955773092	-4.0774020424	-1.3033207538	 0.120535
H	-0.8000479825	-4.0661445071	 1.0423626614	 0.236745
52.1341	99.7513	232.4142	257.1276	320.1533	330.3542	403.4971	467.5369	483.5626	573.2712	658.105	722.6421	771.4153	845.0123	872.9779	884.0455	944.7697	977.7626	1001.905	1023.3985	1061.4657	1110.507	1139.9154	1144.2383	1212.2948	1257.7917	1270.0558	1308.496	1381.3823	1392.5083	1449.4687	1496.2329	1527.7189	1741.1421	1861.7851	2983.8165	3038.5196	3106.2633	3202.8998	3439.7692	3479.8775	3640.622
N=C1NCC2(CN2)C1=O	[NH][C]1NC[C@]2(CN2)C1=O	
InChI=1S/C5H7N3O/c6-4-3(9)5(1-7-4)2-8-5/h8H,1-2H2,(H2,6,7)	InChI=1S/C5H7N3O/c6-4-3(9)5(1-7-4)2-8-5/h8H,1-2H2,(H2,6,7)/t5-/m0/s1
