21
gdb 111093	3.73766	1.02837	1.00067	1.8485	83.92	-0.2237	0.0115	0.2353	1336.326	0.182028	-387.053763	-387.044969	-387.044025	-387.087171	33.814	
C	-0.1478709968	 1.5467031701	 0.0608860601	-0.382171
C	 0.1855670096	 0.0545295486	-0.0551528092	-0.210244
C	 0.8168774093	-0.5087475519	 1.2109630538	 0.041348
C	-0.1480429439	-0.8496806856	 2.4038975826	 0.012381
O	-0.5284560452	-2.0660010777	 1.6726882262	-0.288709
C	 0.8947838028	-2.0702244049	 1.3251487388	-0.060526
C	 1.5608562393	-2.2525879476	 2.7072470012	 0.358876
C	 2.7049886109	-3.1492349767	 3.0233943983	-0.51778
C	 0.8333673443	-1.4060019514	 3.4445428136	-0.206196
H	 0.748188678	 2.1406202764	 0.2735415947	 0.112461
H	-0.5861020721	 1.926633348	-0.866985116	 0.114053
H	-0.8663454095	 1.7332615171	 0.8663828341	 0.11614
H	-0.7168167687	-0.5192681559	-0.2873489895	 0.115769
H	 0.8817952616	-0.0960638205	-0.8911778817	 0.091107
H	 1.7274813596	 0.0342191775	 1.4843225446	 0.064773
H	-0.9865585745	-0.2251719116	 2.7112627434	 0.07526
H	 1.1600534398	-2.728867166	 0.4967376916	 0.070582
H	 3.5870521251	-2.9011999122	 2.4189083467	 0.127956
H	 2.9889373728	-3.0796182257	 4.0771451373	 0.128677
H	 2.4624417255	-4.1969772588	 2.804665457	 0.133502
H	 0.8973972719	-1.1504415013	 4.4923298625	 0.102741
83.9951	149.3055	156.4267	173.7439	220.35	282.6144	316.7851	399.1092	490.0387	554.5132	591.3901	674.7318	744.1428	785.8849	816.39	857.2765	862.952	886.745	904.939	924.9118	961.1925	1006.3927	1044.1087	1060.0111	1072.8944	1086.5618	1134.6898	1153.512	1188.6441	1208.9817	1231.2676	1240.9222	1284.9852	1292.6843	1298.5553	1342.0615	1395.6571	1412.0106	1413.8581	1478.885	1485.6497	1489.5438	1500.5083	1506.4609	1686.0755	3015.3207	3019.0538	3030.6342	3055.2049	3060.6446	3079.2713	3101.6594	3104.2157	3107.9652	3112.5334	3126.1471	3236.1441
CCC1C2OC1C(C)=C2	CC[C@H]1[C@H]2O[C@@H]1C(=C2)C	
InChI=1S/C8H12O/c1-3-6-7-4-5(2)8(6)9-7/h4,6-8H,3H2,1-2H3	InChI=1S/C8H12O/c1-3-6-7-4-5(2)8(6)9-7/h4,6-8H,3H2,1-2H3/t6-,7-,8+/m0/s1
