24
gdb 101843	4.85659	0.59847	0.55919	1.0223	87.27	-0.2303	0.0719	0.3021	2061.1326	0.21564	-405.520144	-405.50933	-405.508386	-405.557021	39.173	
C	-0.0674332528	 1.5250221616	 0.0851540813	-0.380968
C	-0.1049596485	 0.0067404558	-0.1027007355	-0.185126
C	 0.7735987128	-0.481481324	-1.2618031948	 0.136376
O	 2.1339056138	-0.0762181169	-1.0916919364	-0.429857
C	 0.6640785995	-1.9950190847	-1.4768907535	-0.204858
C	 1.4904433554	-2.4942330575	-2.6620314871	-0.142581
N	 1.4241948491	-3.9480789807	-2.7667652446	-0.060053
C	 0.3405917182	-4.4894725992	-3.5804515081	-0.220252
C	 1.7468847034	-4.5160956632	-4.0692926985	-0.220554
H	 0.9604725383	 1.8699619283	 0.2237316867	 0.12713
H	-0.4729426363	 2.0396571983	-0.7930841348	 0.112968
H	-0.6567358807	 1.8327687736	 0.9541098891	 0.108107
H	 0.2256546046	-0.4939769726	 0.8193854786	 0.085005
H	-1.1354682488	-0.3281217538	-0.2756491319	 0.09538
H	 0.45906831	 0.032916891	-2.180545431	 0.082752
H	 2.4648420737	-0.5055865923	-0.2940637933	 0.276434
H	 0.9923574661	-2.5200500955	-0.5692016486	 0.09588
H	-0.3900327317	-2.2627039118	-1.6233201265	 0.095405
H	 1.1456029647	-1.9986780418	-3.5898684027	 0.073443
H	 2.5371071556	-2.2075020989	-2.5206259538	 0.112867
H	-0.133460168	-5.3921905354	-3.2055792098	 0.114223
H	-0.3371290072	-3.7852522417	-4.0622752827	 0.105411
H	 2.0039448756	-3.830303407	-4.8755607975	 0.108291
H	 2.3208465732	-5.4384380417	-4.0566201945	 0.114579
46.9694	60.1838	94.1127	122.428	146.2301	217.1267	237.6153	270.7853	311.5511	328.6206	392.0665	445.8725	483.9146	549.2765	766.5307	774.1911	791.3975	845.1726	869.4076	907.655	955.1992	1004.5237	1007.9961	1033.4179	1039.1043	1073.4075	1096.2416	1112.6835	1116.834	1122.4128	1144.1839	1163.3357	1180.8352	1233.699	1263.4143	1280.6972	1307.2533	1322.846	1343.8666	1359.9656	1389.1538	1402.9673	1406.6968	1422.97	1474.6064	1484.6403	1490.2934	1494.5877	1503.3436	1509.4792	1523.3543	2917.9205	2999.0602	3011.8224	3022.9458	3036.868	3046.4203	3059.3841	3082.031	3087.9782	3095.0249	3101.2111	3122.088	3172.476	3186.9709	3787.8447
CCC(O)CCN1CC1	CC[C@@H](O)CCN1CC1	
InChI=1S/C7H15NO/c1-2-7(9)3-4-8-5-6-8/h7,9H,2-6H2,1H3	InChI=1S/C7H15NO/c1-2-7(9)3-4-8-5-6-8/h7,9H,2-6H2,1H3/t7-/m1/s1
