17
gdb 10640	2.50145	1.86798	1.31185	5.1952	70.01	-0.2252	0.0314	0.2566	985.2412	0.142525	-360.022722	-360.014106	-360.013162	-360.055575	31.626	
C	-0.3975047613	 1.3287781315	 0.049596985	-0.327685
N	 0.3295233765	 0.0705719963	-0.0705176559	-0.340838
C	 0.8029453703	-0.4762578568	 1.1636407791	 0.182737
C	-0.1631560168	-1.0250927063	 2.2247374651	-0.325428
C	 0.6416554916	-1.9802216444	 1.3938939265	-0.063073
N	-0.0438193834	-2.7061908522	 0.3596881992	-0.513441
C	 2.0232775701	 0.1241979486	 1.658392997	 0.281643
N	 2.9907766744	 0.604790618	 2.0724127468	-0.352758
H	 0.2732643455	 2.1069042615	 0.4281119417	 0.140141
H	-0.7396185827	 1.6370213081	-0.9418727413	 0.122943
H	-1.2711765985	 1.2815197409	 0.7217545722	 0.096961
H	-0.222359348	-0.6452425392	-0.5328736363	 0.236207
H	 0.0853855235	-0.9147347389	 3.2736320331	 0.135881
H	-1.2149655115	-0.9228363564	 1.980318255	 0.128465
H	 1.4832094043	-2.4588852385	 1.8930232553	 0.107631
H	 0.6148186532	-3.187528338	-0.2436624811	 0.24652
H	-0.6627373369	-3.403944464	 0.7588680486	 0.244094
95.3935	151.4633	169.1024	198.2417	213.5694	273.4765	327.8092	382.2592	437.246	515.0914	580.2205	617.1273	662.3337	768.4114	814.1426	843.6691	919.3264	926.7318	973.7449	1055.1866	1089.4637	1098.8568	1158.8961	1167.258	1182.9759	1254.8544	1271.9147	1320.9383	1417.5557	1461.8917	1469.4632	1483.675	1496.8924	1519.0983	1654.9073	2349.0358	2961.8965	3069.8005	3106.9835	3115.1636	3140.6698	3235.5422	3505.4612	3519.4239	3584.2617
CNC1(CC1N)C#N	CN[C@]1(C[C@H]1N)C#N	
InChI=1S/C5H9N3/c1-8-5(3-6)2-4(5)7/h4,8H,2,7H2,1H3	InChI=1S/C5H9N3/c1-8-5(3-6)2-4(5)7/h4,8H,2,7H2,1H3/t4-,5-/m1/s1
