19
gdb 36229	3.64424	0.99065	0.86088	1.5027	83.95	-0.2439	0.0161	0.26	1372.4164	0.159088	-385.862579	-385.853869	-385.852924	-385.896384	32.924	
C	-0.1442889441	-1.1786379338	 0.4487647689	-0.465055
C	-0.0818250233	-0.011224864	 0.1697844101	 0.31683
C	 0.01166917	 1.4097459184	-0.1648164659	-0.443468
C	 1.4330903994	 1.9385567233	-0.1763891233	 0.295401
C	 1.9923853543	 2.47298089	-1.2609195888	-0.164389
C	 3.3775005375	 3.0622861104	-1.2368124171	-0.250782
C	 3.8182917786	 3.2933994293	 0.2101810881	-0.07896
O	 3.5696297127	 2.1459428734	 1.003450851	-0.243079
C	 2.1921730801	 1.860502135	 1.1270572493	-0.153533
H	-0.204113107	-2.2108320312	 0.6905340529	 0.198413
H	-0.447610387	 1.5880821065	-1.1440105316	 0.13583
H	-0.5871666119	 1.9804128957	 0.5610690134	 0.135424
H	 1.444089707	 2.498316124	-2.2002181646	 0.082411
H	 4.084845228	 2.3931330208	-1.7456666687	 0.11785
H	 3.3999837846	 4.0111560984	-1.7879936793	 0.102534
H	 4.8924245262	 3.4863463916	 0.2784122976	 0.106555
H	 3.2880079902	 4.1670842824	 0.6251206548	 0.086945
H	 1.7194053121	 2.5366145295	 1.8658608402	 0.090069
H	 2.1237808429	 0.8468917003	 1.5370345131	 0.131003
52.5566	93.7608	160.2947	251.8155	299.6308	324.4433	341.7248	390.0755	445.6036	521.7678	561.2132	618.944	640.9251	669.945	811.6744	855.3763	889.3365	920.8684	932.481	967.4221	999.0457	1036.2164	1060.6045	1091.2483	1140.3472	1165.5706	1215.5951	1231.6109	1261.9226	1314.8875	1321.7502	1354.0643	1364.7143	1401.9801	1421.2153	1458.8643	1470.9002	1485.7297	1500.8094	1743.8613	2236.838	2917.2524	2965.6008	2996.3238	3013.6029	3048.1251	3055.8872	3066.0978	3088.7406	3146.8074	3505.5071
C#CCC1=CCCOC1	C#CCC1=CCCOC1	
InChI=1S/C8H10O/c1-2-4-8-5-3-6-9-7-8/h1,5H,3-4,6-7H2	InChI=1S/C8H10O/c1-2-4-8-5-3-6-9-7-8/h1,5H,3-4,6-7H2
