23
gdb 68077	2.36217	1.75339	1.23338	1.4953	84.93	-0.2309	0.082	0.3129	1129.4575	0.206412	-388.310304	-388.301623	-388.300679	-388.342648	35.455	
C	-0.1112718231	 1.5259812898	 0.0116321172	-0.468084
C	 0.080131958	 0.0269439276	-0.0290722956	 0.41616
C	 0.7605270503	-0.6264729476	-1.2551998515	-0.339629
C	-0.3521928403	-1.6844035491	-1.0656820471	 0.416161
C	-1.0645947509	-2.2477350496	-2.2742128346	-0.468084
C	 0.0438775984	-2.7315909711	-0.0137523604	-0.222496
C	 0.9232780633	-2.0832483411	 1.0819250402	-0.230852
C	 0.5856589404	-0.5869685444	 1.2853035569	-0.222496
O	-1.1560468587	-0.6822838836	-0.3637415653	-0.359376
H	 0.8482248626	 2.0339720226	 0.1561325653	 0.114368
H	-0.5580990582	 1.8799790425	-0.9215786126	 0.117884
H	-0.7733019772	 1.8088108356	 0.8373373313	 0.122069
H	 0.604615135	-0.0377404196	-2.1621188846	 0.095584
H	 1.8060942832	-0.9338679427	-1.1837798718	 0.092718
H	-0.4009837306	-2.9110236713	-2.8392238446	 0.114368
H	-1.9440476992	-2.8256721308	-1.9698822544	 0.122068
H	-1.3969793347	-1.4406038347	-2.9329319175	 0.117885
H	-0.8865561977	-3.1258869643	 0.4101251241	 0.104401
H	 0.573834003	-3.5733410672	-0.4751271828	 0.088022
H	 0.8345787833	-2.6317323636	 2.0244147289	 0.096244
H	 1.9742542658	-2.1687825896	 0.7848167377	 0.100665
H	 1.4642849246	-0.0485249109	 1.6599481603	 0.088022
H	-0.2131967074	-0.4604219069	 2.0246708508	 0.104401
193.2555	197.7774	199.4517	218.0044	249.9759	292.3617	355.1148	413.0112	435.2524	462.8558	477.1677	584.8136	603.9117	718.5722	792.8672	844.2062	860.3722	872.2002	878.9321	913.7614	932.3938	962.2811	981.8289	1031.2636	1048.1605	1055.3072	1067.8647	1121.8842	1189.2924	1208.0052	1213.8149	1252.6109	1254.024	1278.8637	1284.0837	1306.9451	1362.9516	1372.8244	1382.8431	1407.3999	1412.2156	1469.9159	1473.9523	1481.2138	1483.541	1486.3636	1493.3977	1496.7838	1515.4862	3027.5338	3028.4328	3033.9876	3034.0521	3042.3085	3064.3474	3066.7739	3072.4616	3089.1367	3101.3308	3101.8222	3113.8421	3114.246	3122.5574
CC12CC(C)(CCC1)O2	C[C@@]12C[C@@](C)(CCC1)O2	
InChI=1S/C8H14O/c1-7-4-3-5-8(2,6-7)9-7/h3-6H2,1-2H3	InChI=1S/C8H14O/c1-7-4-3-5-8(2,6-7)9-7/h3-6H2,1-2H3/t7-,8+
