18
gdb 83989	2.58757	1.68165	1.38888	1.444	72.89	-0.232	0.0157	0.2477	998.4703	0.149108	-439.067685	-439.059783	-439.058839	-439.100259	29.923	
C	 0.2340747568	 1.5631351971	 0.1063376617	-0.40135
C	 0.0472041791	 0.0730961738	-0.067090172	-0.064416
C	 0.4807394808	-0.6175131173	-1.3358734608	 0.035745
O	 1.0852469495	 0.1713182211	-2.3257807813	-0.2284
C	 2.3695648458	-0.2344633785	-2.6604781518	 0.016732
O	 3.3766473822	 0.3508488602	-1.8382770691	-0.219974
C	 3.3841302968	 0.0970251499	-0.5029266948	 0.1226
N	 2.5387922322	-0.4200385741	 0.2773811403	-0.248269
C	 1.2324037875	-0.8862156551	-0.0461068154	-0.036232
H	 1.0977412355	 1.9287937816	-0.4506814347	 0.135888
H	-0.6466335246	 2.1017268472	-0.2583749286	 0.119214
H	 0.3741058547	 1.8155452051	 1.1618109536	 0.123587
H	-0.8587232221	-0.3228628651	 0.3835649017	 0.090603
H	-0.1405477293	-1.4117099688	-1.7473932803	 0.093053
H	 2.4674267651	-1.3279392377	-2.6205382013	 0.106025
H	 2.5867077069	 0.1373396808	-3.6634268396	 0.126134
H	 4.3281307968	 0.4562147295	-0.0946541073	 0.12621
H	 1.0303286264	-1.8455101695	 0.4231324097	 0.102849
80.1921	136.5828	175.5124	232.3215	291.97	352.2795	421.2467	472.2657	545.9641	625.1231	706.9262	746.8369	773.2228	819.2016	873.5762	934.8193	959.9066	978.9143	988.5979	1057.8402	1086.6358	1095.5124	1110.114	1151.9923	1174.081	1174.7585	1222.2777	1261.3986	1323.7418	1361.9491	1369.9911	1418.9582	1424.9528	1433.2874	1452.7081	1492.8697	1499.9751	1503.7834	1761.9532	3011.8988	3044.3453	3102.8504	3107.0099	3121.7412	3130.5459	3138.218	3147.8197	3152.2038
CC1C2OCOC=NC12	C[C@H]1[C@H]2OCOC=N[C@@H]12	
InChI=1S/C6H9NO2/c1-4-5-6(4)9-3-8-2-7-5/h2,4-6H,3H2,1H3	InChI=1S/C6H9NO2/c1-4-5-6(4)9-3-8-2-7-5/h2,4-6H,3H2,1H3/t4-,5+,6-/m1/s1
