22
gdb 106145	2.44514	1.52856	1.21776	1.6999	86.24	-0.2162	0.0884	0.3045	1163.8321	0.194359	-367.15147	-367.142577	-367.141633	-367.184876	34.346	
C	-0.289774896	 1.4573620327	-0.0453200477	-0.377274
C	 0.1078532661	-0.0231633708	 0.0339127455	-0.33296
C	 0.753957185	-0.5233951802	-1.2133308903	 0.363617
C	 0.3034237049	-0.8227305396	-2.6207486434	-0.181112
C	 1.3368677147	 0.1595252423	-3.1351973398	-0.182107
N	 2.081080189	 0.0228432353	-1.8209990719	-0.206844
C	 2.5413420416	-1.4190538095	-1.8955442312	-0.225103
C	 1.0941517812	-1.8702599736	-1.7929914963	 0.25149
C	 0.5425614762	-3.2243051719	-1.4589453898	-0.509685
H	 0.5866070064	 2.0761493397	-0.2591086293	 0.137191
H	-1.0244633524	 1.62502735	-0.8395413277	 0.115051
H	-0.7266599931	 1.7979559504	 0.8982781422	 0.108958
H	 0.7921454602	-0.1732807531	 0.8796873386	 0.106258
H	-0.7759205744	-0.6411433832	 0.2392339255	 0.102473
H	-0.6990048719	-1.0358112307	-2.9741726705	 0.082428
H	 1.9337101919	-0.0879883164	-4.0212381329	 0.09213
H	 0.9489637374	 1.1774336428	-3.2298512992	 0.105582
H	 3.1325470449	-1.6630033001	-2.7870643836	 0.089444
H	 3.119247894	-1.6636018031	-0.9987654915	 0.100179
H	 1.0292712431	-3.6439144128	-0.5709226137	 0.119497
H	-0.5328854681	-3.1788418865	-1.2556921395	 0.118821
H	 0.6904001194	-3.9306899718	-2.2842621435	 0.121965
77.7117	122.2581	182.1084	201.3	225.5184	272.3429	309.4356	367.1993	473.288	529.4041	589.2628	633.0022	708.4298	773.9343	818.2334	855.9608	881.6444	911.2953	929.154	941.378	971.9895	984.4708	999.3109	1044.6548	1078.7153	1107.6095	1130.4586	1148.9527	1159.241	1184.6244	1220.5668	1231.491	1249.7204	1287.886	1304.1965	1342.3521	1358.9992	1404.2163	1417.0751	1468.8955	1473.8476	1487.2494	1495.6739	1501.6651	1502.5748	1513.3687	1527.3229	3013.1533	3018.4784	3021.5353	3031.3988	3037.4717	3047.8907	3079.7606	3081.5315	3089.6001	3092.0932	3106.7556	3115.8928	3178.0345
CCC12C3CN1CC23C	CC[C@@]12[C@H]3CN1C[C@@]23C	
InChI=1S/C8H13N/c1-3-8-6-4-9(8)5-7(6,8)2/h6H,3-5H2,1-2H3	InChI=1S/C8H13N/c1-3-8-6-4-9(8)5-7(6,8)2/h6H,3-5H2,1-2H3/t6-,7+,8-/m0/s1
