17
gdb 18376	3.02128	2.55095	1.72258	1.3332	73.95	-0.2175	0.0128	0.2303	800.3019	0.145359	-326.70137	-326.694895	-326.69395	-326.73155	26.412	
C	-0.0390252639	 1.5022622459	 0.264517556	-0.306425
C	 1.3058258062	 2.1257270891	-0.0598801533	-0.090421
C	 2.4744869246	 1.7741367955	 0.4838299372	 0.000242
C	 2.6892785656	 0.7324803078	 1.5140402093	-0.077984
N	 1.6499675589	 0.5054456787	 2.5318054544	-0.333083
C	 1.8877893954	-0.5592706775	 1.5431807036	-0.077984
C	 0.8385727902	-0.8624480399	 0.5433082415	 0.000242
C	-0.0065201653	 0.0106334367	-0.0121662721	-0.090421
H	-0.3029867553	 1.6896066334	 1.3091313074	 0.147153
H	-0.8123264266	 1.9681651691	-0.3518698782	 0.092539
H	 1.313886777	 2.8910577582	-0.8319101169	 0.08896
H	 3.3800163634	 2.2585550703	 0.1263945569	 0.080223
H	 3.7212751192	 0.6324915553	 1.8428942962	 0.082044
H	 2.0817363188	 0.2575205792	 3.4170945629	 0.233687
H	 2.4424747523	-1.4285370341	 1.8893884841	 0.082044
H	 0.7997720292	-1.8999954861	 0.2202068245	 0.080223
H	-0.7040183798	-0.3611777815	-0.7585434734	 0.08896
170.6588	253.2893	298.0366	354.1995	365.1252	552.5641	582.4337	647.9226	709.9285	735.919	781.8761	819.377	830.5	876.5909	916.6853	949.7609	963.2747	985.3268	989.3278	1018.4943	1043.4863	1112.1284	1159.465	1192.7837	1224.755	1226.1019	1267.1353	1275.2243	1345.4652	1386.2714	1425.5427	1442.162	1460.7327	1478.9869	1712.4766	1714.7278	3058.104	3095.1346	3119.7299	3128.3956	3143.1892	3146.3086	3165.6196	3168.8007	3511.3461
C1C=CC2NC2C=C1	C1C=C[C@H]2N[C@H]2C=C1	
InChI=1S/C7H9N/c1-2-4-6-7(8-6)5-3-1/h2-8H,1H2	InChI=1S/C7H9N/c1-2-4-6-7(8-6)5-3-1/h2-8H,1H2/t6-,7+
