23
gdb 85949	2.40568	1.43496	1.16651	0.9951	87.44	-0.24	0.0247	0.2647	1213.0364	0.2046	-388.315795	-388.306268	-388.305323	-388.349217	37.545	
C	 0.0874671044	 1.5479220612	-0.0934939824	-0.393627
C	 0.0150278561	 0.0272355764	 0.0486963538	 0.095072
O	 0.5467089381	-0.5128797937	-1.1531135039	-0.309524
C	 0.8782256142	-1.9097033585	-1.1423081134	 0.366699
C	-0.3726279699	-2.7680277322	-0.8891655025	-0.423838
C	 1.4315493222	-2.180158048	-2.5411505095	-0.417684
C	 1.9551384899	-2.1650260891	-0.0669574752	-0.273815
C	 1.6337696255	-1.450652912	 1.2178525113	-0.087274
C	 0.7431426507	-0.4643702435	 1.2703693827	-0.055817
H	 1.1295373948	 1.871916693	-0.1655585661	 0.123551
H	-0.4386945824	 1.8634930701	-0.9983920908	 0.122071
H	-0.3750458144	 2.0378210782	 0.768845071	 0.109532
H	-1.0510962939	-0.2533062807	 0.1400281468	 0.0714
H	-1.1714018061	-2.4761549135	-1.577599362	 0.118045
H	-0.1484718631	-3.8265662127	-1.0540962117	 0.110359
H	-0.7383034371	-2.6612703338	 0.1355980413	 0.121088
H	 2.2576863983	-1.4968183835	-2.7564668791	 0.119218
H	 1.7976339498	-3.2085657358	-2.6204148667	 0.10866
H	 0.6555172643	-2.0276968927	-3.2967640454	 0.116174
H	 2.0501170159	-3.2434220611	 0.1132690076	 0.09966
H	 2.933542345	-1.8348655308	-0.4424196924	 0.106856
H	 2.1558708365	-1.7691385436	 2.1166319552	 0.08738
H	 0.5010101311	 0.0278928362	 2.2088991815	 0.085813
102.7876	153.0924	215.4128	235.0257	239.2515	262.8071	309.3682	313.0948	335.3752	430.0825	444.6742	483.2028	513.4612	565.2693	688.441	738.1287	828.709	836.4056	893.6292	896.8161	939.4397	974.1727	985.7238	996.4493	1004.359	1028.1734	1071.8252	1118.4974	1135.2665	1169.3244	1196.0256	1225.3325	1243.7708	1286.2735	1342.5661	1355.3228	1367.9162	1393.9136	1400.2708	1411.1145	1416.4596	1466.4431	1480.1201	1483.6086	1487.076	1496.8473	1498.4319	1510.1939	1726.7038	2919.3735	3009.1861	3037.1374	3041.4659	3041.9917	3044.8247	3107.7193	3115.2755	3117.4314	3118.0145	3119.7315	3123.8319	3146.3061	3170.115
CC1OC(C)(C)CC=C1	C[C@H]1OC(C)(C)CC=C1	
InChI=1S/C8H14O/c1-7-5-4-6-8(2,3)9-7/h4-5,7H,6H2,1-3H3	InChI=1S/C8H14O/c1-7-5-4-6-8(2,3)9-7/h4-5,7H,6H2,1-3H3/t7-/m1/s1
