17
gdb 106933	4.25614	1.11533	0.99459	4.8512	68.26	-0.261	-0.0118	0.2492	1204.095	0.135531	-458.987991	-458.979798	-458.978854	-459.021125	30.253	
C	 0.3011069279	 1.5059487545	 0.1879232011	-0.387924
C	-0.1390621024	 0.0589196694	-0.074874403	-0.289009
C	 0.4674157822	-0.5145230393	-1.3277206676	 0.412268
C	 0.1459132043	 0.0476504272	-2.7054385744	-0.137452
O	 0.4446159844	-0.9950669754	-3.6488363502	-0.23621
C	 0.7227729273	-2.1786978706	-3.0293767619	 0.49084
O	 0.8346217837	-3.2118709586	-3.6196167275	-0.33955
C	 0.8344179206	-1.9188092576	-1.5492013468	-0.240386
O	 1.8392863397	-0.9241108139	-1.2732126497	-0.283122
H	 1.3902917435	 1.5700112565	 0.2656353949	 0.141108
H	-0.0218412669	 2.1791889653	-0.6130426724	 0.123026
H	-0.1292627878	 1.8750794748	 1.1226176653	 0.125553
H	 0.15333269	-0.5771634579	 0.7666654638	 0.121192
H	-1.2317805695	 0.004127158	-0.1542010735	 0.112454
H	-0.9141599848	 0.3092530593	-2.7980298873	 0.123588
H	 0.7572090055	 0.9194428	-2.95348066	 0.137378
H	 0.7290226423	-2.7295511516	-0.8374940407	 0.126244
69.0717	119.6816	186.9476	203.8363	247.1211	327.2059	388.5607	416.5205	502.317	604.8037	676.3543	730.6245	775.9477	800.1184	856.904	889.2843	947.7237	963.4601	1027.7719	1042.1607	1060.6966	1088.0003	1123.5179	1167.718	1228.755	1242.1828	1257.5055	1322.1775	1356.7285	1387.8176	1412.8988	1459.7139	1474.3855	1500.1192	1502.2087	1507.7693	1888.9265	3035.2758	3041.8789	3045.759	3080.8583	3102.2472	3112.3843	3122.7078	3192.5994
CCC12COC(=O)C1O2	CC[C@]12COC(=O)[C@H]1O2	
InChI=1S/C6H8O3/c1-2-6-3-8-5(7)4(6)9-6/h4H,2-3H2,1H3	InChI=1S/C6H8O3/c1-2-6-3-8-5(7)4(6)9-6/h4H,2-3H2,1H3/t4-,6+/m1/s1
