22
gdb 58353	2.08634	1.17992	1.06775	2.8813	79.16	-0.2016	-0.0203	0.1813	1318.1202	0.190183	-441.467149	-441.455906	-441.454962	-441.503667	40.003	
C	 0.5020230153	-0.7062934016	 1.9457350846	-0.418431
C	 0.1715005742	-0.0149101783	 0.6226591931	 0.104834
O	 0.987714404	-0.5209878402	-0.435121746	-0.436248
C	-1.2813764964	-0.1771587315	 0.0997595531	-0.06041
C	-1.6384889007	-1.6408794033	-0.1536536691	 0.152913
O	-2.7473038865	-2.1029784646	-0.040015548	-0.264759
N	-2.2532568486	 0.6224933079	 0.8297147273	-0.069486
C	-3.2644861559	 1.2376383683	-0.0201768236	-0.327878
C	-2.8595048983	 0.0289607099	 2.0200228633	-0.332849
H	 1.5733361474	-0.6046271811	 2.1590822656	 0.107441
H	-0.032827881	-0.2474044759	 2.7803429054	 0.138285
H	 0.2655702141	-1.7748219287	 1.9174787121	 0.127489
H	 0.3272381495	 1.0669283677	 0.7423173954	 0.080766
H	 1.8980630719	-0.5511143465	-0.1249845229	 0.285236
H	-1.2139022328	 0.2417402209	-0.9155585772	 0.118952
H	-0.7837943972	-2.2646295395	-0.4924479904	 0.097149
H	-3.9715659086	 0.5123166192	-0.4560838828	 0.11677
H	-3.8425079468	 1.9563366776	 0.5712629176	 0.114643
H	-2.7852921523	 1.7886917139	-0.8357857925	 0.114054
H	-2.1078645011	-0.4853081524	 2.6207469017	 0.11267
H	-3.2823720969	 0.8314507755	 2.6355925601	 0.110776
H	-3.6553015232	-0.692863007	 1.7907782932	 0.128081
42.8887	77.3572	120.7445	181.2412	193.4199	223.2999	233.8288	242.7574	262.7208	286.1273	309.1889	351.8526	362.1935	441.3587	499.9881	585.7761	678.4165	749.726	865.6042	924.8302	962.7116	982.7398	1067.3793	1076.7123	1096.5271	1113.7321	1116.5814	1144.9107	1184.6457	1210.8229	1252.5146	1292.667	1323.1289	1364.1204	1383.0579	1406.2402	1409.7598	1421.3044	1443.0779	1476.2675	1478.4764	1489.6402	1495.5484	1498.2603	1512.06	1525.6505	1818.2437	2906.0246	2969.5299	2994.8235	3005.7482	3009.7925	3027.4526	3054.968	3062.8512	3090.7441	3093.8935	3125.5957	3137.1298	3821.8722
CC(O)C(C=O)N(C)C	C[C@@H](O)[C@@H](C=O)N(C)C	
InChI=1S/C6H13NO2/c1-5(9)6(4-8)7(2)3/h4-6,9H,1-3H3	InChI=1S/C6H13NO2/c1-5(9)6(4-8)7(2)3/h4-6,9H,1-3H3/t5-,6-/m1/s1
