20
gdb 38448	3.86144	1.26862	1.17912	2.9373	78.07	-0.228	0.0737	0.3018	1121.4807	0.172723	-403.106263	-403.098594	-403.09765	-403.139476	30.147	
C	 0.0302438428	 1.3355177661	 0.0408994415	-0.246761
C	 1.2523553263	 0.5056236402	 0.0582229196	-0.103476
N	-0.1219183792	-0.1284642861	-0.0220336216	-0.125575
C	 0.1892825085	-0.5026829539	-1.4480479402	-0.231201
C	 1.6341325555	 0.0611432715	-1.3599284988	 0.443136
C	 2.1781909466	 1.1163516502	-2.3498392519	-0.30894
C	 3.3462809322	 0.4032782927	-3.0523305758	-0.217714
C	 3.7830975533	-0.5855697058	-1.9713026413	-0.082376
O	 2.5707641023	-1.0141041966	-1.3637148951	-0.299334
H	-0.3060701882	 1.7589760395	 0.9826601474	 0.121701
H	-0.2142388509	 1.9346136512	-0.8347194908	 0.107801
H	 1.8886629534	 0.3916127896	 0.9306062177	 0.097197
H	 0.2024659331	-1.5881496829	-1.5569428765	 0.124696
H	-0.4913736951	-0.0587555193	-2.1835070115	 0.093865
H	 1.4119298777	 1.4644870659	-3.0459815783	 0.107556
H	 2.5343725964	 1.989801607	-1.7930251163	 0.10903
H	 2.9948667344	-0.1416632135	-3.9342029008	 0.109896
H	 4.1430829807	 1.0825046357	-3.3651323616	 0.102233
H	 4.2957163194	-1.4726188358	-2.352974557	 0.109676
H	 4.4422261008	-0.0971336157	-1.2348123387	 0.088589
22.4223	141.995	207.046	279.0718	402.8819	419.1052	433.9204	503.9207	602.0613	726.6412	757.6282	790.9519	843.3018	851.9516	887.3997	903.6211	931.0873	947.3846	975.4523	1005.1546	1029.903	1051.9671	1058.9676	1103.3414	1111.2219	1145.6211	1164.5822	1175.7185	1201.5566	1217.2617	1226.6541	1249.4986	1269.3562	1286.6313	1325.0541	1336.1583	1362.6301	1388.8117	1479.4929	1485.9587	1498.0814	1504.2159	1522.0731	2969.4512	3037.2127	3049.2733	3054.4244	3090.6963	3096.5811	3100.522	3113.1882	3127.0374	3159.7124	3190.6791
C1C2N1CC21CCCO1	C1[C@H]2N1C[C@]12CCCO1	
InChI=1S/C7H11NO/c1-2-7(9-3-1)5-8-4-6(7)8/h6H,1-5H2	InChI=1S/C7H11NO/c1-2-7(9-3-1)5-8-4-6(7)8/h6H,1-5H2/t6-,7+,8?/m1/s1
