16
gdb 12603	3.09002	2.21956	1.32354	0.4022	67.67	-0.2539	-0.0033	0.2506	896.5326	0.132003	-379.989304	-379.981616	-379.980671	-380.022046	27.606	
C	-0.0214141932	 1.4621108075	 0.0084650837	-0.369514
N	-0.0171130628	 0.0154385631	 0.0004117493	-0.11571
C	-1.1775421793	-0.7635711833	 0.0037140152	 0.377587
N	-2.3861174295	-0.3763779506	 0.0139438058	-0.540573
C	-0.7521840396	-2.2228322374	-0.0073066914	-0.290726
C	 0.7851614787	-2.1964011922	-0.0165692666	-0.346319
C	 1.1633661509	-0.7205515988	-0.0112435054	 0.408714
O	 2.2723009678	-0.241522257	-0.0155101735	-0.365484
H	 1.0185452201	 1.7902346667	 0.0017208316	 0.172329
H	-0.5347456594	 1.855099179	-0.8756740885	 0.140472
H	-0.5200371758	 1.8454316185	 0.9051929945	 0.140494
H	-2.4636158838	 0.6413011292	 0.0202758106	 0.215303
H	-1.1659831184	-2.7254327044	 0.8697551469	 0.142617
H	-1.1766527667	-2.7152628318	-0.8850470158	 0.142614
H	 1.2363136639	-2.6762001243	 0.8558212122	 0.14411
H	 1.225645977	-2.6671253043	-0.8992844686	 0.144086
43.1142	118.8775	161.4239	207.7695	301.2038	377.9288	546.8978	554.5405	576.7761	594.7908	672.6561	714.6418	823.1949	870.0637	936.2275	1008.1866	1028.962	1048.2221	1121.558	1151.3494	1164.7255	1238.4968	1243.417	1275.3252	1306.7044	1319.6603	1413.8148	1454.1845	1462.9588	1484.8135	1494.2286	1512.8899	1739.7968	1835.8841	3032.7227	3073.1706	3082.4925	3090.8347	3107.0042	3124.9311	3153.9853	3472.2023
CN1C(=N)CCC1=O	CN1[C]([NH])CCC1=O	
InChI=1S/C5H8N2O/c1-7-4(6)2-3-5(7)8/h6H,2-3H2,1H3	InChI=1S/C5H8N2O/c1-7-4(6)2-3-5(7)8/h6H,2-3H2,1H3
