18
gdb 42903	2.92222	1.54728	1.28264	3.8686	75.53	-0.2399	-0.0106	0.2294	1035.9316	0.148409	-401.916759	-401.909054	-401.90811	-401.949134	29.614	
O	 0.0483435382	 0.0453386628	-0.0721949973	-0.309051
C	 0.0131729298	 1.233687036	 0.0126142419	 0.356915
N	-1.1415623159	 2.122847461	-0.0345060577	-0.184098
C	-1.0496426215	 2.9366698428	 1.2180219485	-0.25388
C	-0.1489624653	 3.2910220743	 0.1142193341	-0.127168
C	 1.0551886273	 2.3604423101	 0.0539404958	 0.228179
C	 2.255823401	 2.2985455093	 1.0344991763	-0.285189
C	 3.1430493512	 1.8209935032	-0.1466695484	-0.206337
C	 2.0667475901	 2.3551810468	-1.1286613669	-0.283426
H	-1.9383507085	 3.5383907124	 1.3779562431	 0.140114
H	-0.654817902	 2.4661324067	 2.115209037	 0.132914
H	-0.2804945062	 4.1786561982	-0.4933805807	 0.112693
H	 2.5302495891	 3.299248968	 1.3815890225	 0.107885
H	 2.1590123408	 1.6367465481	 1.8979468249	 0.111479
H	 4.1475338253	 2.2407439462	-0.2248412714	 0.10229
H	 3.2081240386	 0.7314429896	-0.1820122178	 0.127623
H	 1.8150748693	 1.7450940075	-1.9985332067	 0.121575
H	 2.2805090888	 3.3764173071	-1.4585569373	 0.107481
101.371	111.1139	179.1383	234.6486	269.0863	410.89	486.5641	539.6261	674.6364	686.9173	747.3347	764.9231	802.8737	806.0017	875.7931	896.862	939.7704	959.5151	978.3511	1010.4597	1042.9331	1066.1779	1082.8805	1120.0089	1147.0117	1181.2325	1189.5091	1213.364	1245.1255	1254.6203	1268.5022	1280.2006	1295.1008	1361.1344	1469.801	1480.9108	1500.9871	1506.8314	1906.9155	3054.1636	3057.9215	3074.2706	3108.0955	3114.477	3115.6415	3133.9837	3187.9536	3208.312
O=C1N2CC2C11CCC1	O=C1N2C[C@H]2C21CCC2	
InChI=1S/C7H9NO/c9-6-7(2-1-3-7)5-4-8(5)6/h5H,1-4H2	InChI=1S/C7H9NO/c9-6-7(2-1-3-7)5-4-8(5)6/h5H,1-4H2/t5-,8?/m0/s1
