17
gdb 126815	2.84312	1.53814	1.08341	2.5743	78.83	-0.2321	-0.0597	0.1724	1112.5171	0.137726	-418.054183	-418.046253	-418.045309	-418.087018	29.724	
C	-0.0978666364	 1.5363048913	 0.0261851968	-0.384346
C	 0.0629522044	 0.0163733196	-0.0030869676	-0.126651
N	 0.7324334328	-0.4946129764	 1.199467612	-0.05542
N	 2.0490924275	-0.6964758079	 1.0862898564	-0.195632
C	 2.6921442396	-1.1380896947	 2.1326028301	-0.008429
C	 2.0525704872	-1.4105682287	 3.3738053334	-0.102024
C	 0.7174187074	-1.1999554974	 3.4837379901	-0.184335
C	-0.0471006315	-0.692130729	 2.3604120283	 0.425446
O	-1.2433767052	-0.441847161	 2.356506613	-0.409263
H	 0.876265924	 2.0285160696	 0.1014245612	 0.126372
H	-0.5844675348	 1.8753292194	-0.8932627337	 0.12132
H	-0.7173349008	 1.835962931	 0.8743238414	 0.1498
H	-0.9148375259	-0.4663823368	-0.0521628574	 0.142176
H	 0.6742731106	-0.3027132842	-0.8482939509	 0.124612
H	 3.7563728043	-1.2910531297	 1.9949307808	 0.127284
H	 2.637932496	-1.7821301492	 4.2088205871	 0.118709
H	 0.1618815307	-1.3841619359	 4.395388639	 0.130381
69.8687	112.756	180.5664	230.949	328.8426	361.3614	440.8915	496.8088	564.5855	573.2784	601.1348	722.2196	755.5594	793.0188	843.5055	878.751	915.6496	982.6621	1013.3054	1025.5321	1075.4435	1106.9575	1140.5713	1182.2263	1234.7587	1285.7713	1355.9609	1385.3511	1403.437	1415.6557	1426.428	1465.0092	1491.4667	1507.0095	1560.9068	1642.4984	1759.1907	3046.3615	3084.3306	3116.5085	3130.252	3150.5613	3180.1587	3201.2511	3215.2383
CCN1N=CC=CC1=O	CCn1ncccc1=O	
InChI=1S/C6H8N2O/c1-2-8-6(9)4-3-5-7-8/h3-5H,2H2,1H3	InChI=1S/C6H8N2O/c1-2-8-6(9)4-3-5-7-8/h3-5H,2H2,1H3
