20
gdb 77009	2.7308	0.98986	0.90756	4.5948	79.74	-0.258	0.0363	0.2943	1376.3383	0.168437	-403.153725	-403.143433	-403.142489	-403.189104	37.461	
C	-0.3286794869	 1.0410006778	-1.8288546279	-0.422762
C	-0.0821217382	-0.145308519	-0.9204406651	-0.07386
C	 1.2992439282	-0.5347138823	-0.4075237879	-0.056924
C	 2.5585422294	 0.2538266765	-0.735514369	-0.378639
C	 3.1039702961	-0.0981401457	-2.0488491234	 0.270588
N	 3.5238619393	-0.3841543881	-3.0867330163	-0.309676
C	 0.2538800519	-0.0355897383	 0.5544248452	 0.352364
C	 0.3598015661	 1.2938376695	 1.2690733271	-0.452591
O	-0.2322061914	-1.0648877036	 1.3839439931	-0.462386
H	 0.2912703277	 1.9061495102	-1.5796628696	 0.113612
H	-0.1194125287	 0.7797735801	-2.8714375779	 0.14
H	-1.3734377045	 1.3649684088	-1.7707041385	 0.121373
H	-0.7034613852	-1.0074015903	-1.149017746	 0.095372
H	 1.4712037994	-1.6042782037	-0.3419392934	 0.116322
H	 2.3785363369	 1.3326043089	-0.7237404002	 0.146646
H	 3.330786292	 0.0621755178	 0.0190970407	 0.156826
H	 0.7757008512	 2.0867731876	 0.6435929094	 0.117459
H	-0.6328240645	 1.6282741841	 1.5944439996	 0.114427
H	 0.9863112252	 1.1920611691	 2.1607005858	 0.131774
H	-1.1565487141	-0.8736826694	 1.5804149144	 0.280075
43.8447	104.2911	161.352	179.4387	207.4843	217.1228	252.1113	271.7199	319.4226	384.3267	401.7005	448.6476	465.8176	486.6206	597.0618	697.0568	790.0835	841.7491	923.7342	937.1871	969.9674	998.8228	1023.2491	1043.8694	1090.4642	1132.5714	1148.1548	1157.119	1218.1679	1253.2877	1293.633	1312.7658	1342.7661	1377.2812	1415.6472	1425.9354	1453.2894	1465.7273	1485.5495	1495.0356	1498.0941	1518.6248	2361.4029	3030.6446	3037.1774	3044.9692	3089.4486	3092.2138	3095.6826	3109.8674	3125.8336	3142.8528	3165.8712	3788.5831
CC1C(CC#N)C1(C)O	C[C@H]1[C@@H](CC#N)[C@]1(C)O	
InChI=1S/C7H11NO/c1-5-6(3-4-8)7(5,2)9/h5-6,9H,3H2,1-2H3	InChI=1S/C7H11NO/c1-5-6(3-4-8)7(5,2)9/h5-6,9H,3H2,1-2H3/t5-,6+,7+/m0/s1
