19
gdb 103265	2.53866	1.46873	1.20268	3.1738	76.43	-0.2369	-0.0077	0.2292	1113.8239	0.15699	-423.009691	-423.000642	-422.999698	-423.043405	33.775	
C	 0.1376165734	 1.0823077382	 0.4165753932	-0.259518
O	-0.0905214302	-0.1449197854	-0.2569477738	-0.282019
C	-1.372148268	-0.6796427079	-0.0957779237	 0.442622
C	-2.459333443	 0.050722095	-0.8621548426	-0.463054
C	-1.4785420809	-2.1524835837	 0.0052095735	-0.136099
C	-0.2470867537	-2.7444865153	 0.7078169445	-0.361776
C	-0.6205105104	-1.8863010706	 1.9408517991	 0.430023
O	-0.2225500273	-1.8609632906	 3.0713640206	-0.325415
C	-1.7990718227	-1.2576354475	 1.2570360583	-0.273331
H	 1.1942972287	 1.3209254929	 0.2793497789	 0.133136
H	-0.464026829	 1.901577728	 0.0008149216	 0.110899
H	-0.0742034425	 0.9946805665	 1.4903589515	 0.128322
H	-2.186119479	 0.1093444133	-1.9201173469	 0.133944
H	-3.4161847283	-0.4712316742	-0.7781457382	 0.125156
H	-2.6014477751	 1.0691105265	-0.4885847341	 0.128131
H	-2.19102894	-2.7214086841	-0.5786445927	 0.103546
H	-0.3524466038	-3.806799695	 0.9461257567	 0.127197
H	 0.7218055771	-2.5593197554	 0.2425649781	 0.135072
H	-2.7401369853	-0.9787814608	 1.7167291861	 0.103164
77.3035	107.8512	181.9764	185.1426	225.955	251.2516	290.6126	370.6389	455.0502	471.4877	534.2781	583.4842	634.9107	705.3964	823.4938	850.3087	874.3151	912.7049	949.9791	990.505	1014.7272	1023.5816	1054.4256	1091.3026	1118.1821	1132.7951	1176.066	1183.1508	1217.5412	1226.9547	1265.4168	1275.508	1396.1305	1411.5269	1448.3025	1476.1701	1481.914	1493.7428	1504.4393	1510.5435	1878.8335	3001.688	3043.0097	3059.5987	3071.3948	3111.399	3121.7746	3126.1302	3135.3844	3184.506	3197.9683
COC1(C)C2CC(=O)C12	CO[C@@]1(C)[C@H]2CC(=O)[C@@H]12	
InChI=1S/C7H10O2/c1-7(9-2)4-3-5(8)6(4)7/h4,6H,3H2,1-2H3	InChI=1S/C7H10O2/c1-7(9-2)4-3-5(8)6(4)7/h4,6H,3H2,1-2H3/t4-,6-,7-/m0/s1
