13
gdb 20747	7.55125	1.28242	1.10377	2.9023	71.82	-0.248	-0.0425	0.2054	1020.9248	0.094551	-361.434433	-361.427178	-361.426233	-361.465946	26.399	
C	 0.0005921565	 1.5165901783	-0.0412913743	-0.502942
C	-0.0002538306	 0.0234962636	 0.0314906438	 0.385088
N	-0.0795047841	-0.6935162896	-1.0678500344	-0.179661
O	-0.0571320804	-2.0217589354	-0.6741618171	-0.21226
C	 0.0361396724	-2.0773910022	 0.6759955064	 0.309458
C	 0.0760083943	-0.8106076352	 1.1812561882	-0.427085
C	 0.0733763554	-3.346977805	 1.2840048824	 0.242867
C	 0.1056726699	-4.4285661336	 1.810241016	-0.385044
H	 0.916348405	 1.9287390761	 0.3944398043	 0.141104
H	-0.0683141818	 1.8395146296	-1.0815533127	 0.153821
H	-0.8453005368	 1.9354822806	 0.5131102033	 0.141154
H	 0.1488295115	-0.5219079864	 2.2162020979	 0.127821
H	 0.1340495387	-5.3844668807	 2.2728261863	 0.205679
122.2782	130.762	147.3997	288.9351	326.3175	458.1843	534.8972	538.4319	606.6888	659.8729	686.623	710.5646	718.0293	833.3361	959.852	985.5214	1021.6414	1049.4691	1067.2404	1153.2728	1253.3665	1404.4287	1442.2819	1477.8047	1482.2075	1513.1955	1618.9761	2240.7395	3044.6766	3101.9045	3142.1544	3281.5288	3500.5512
CC1=NOC(=C1)C#C	Cc1noc(c1)C#C	
InChI=1S/C6H5NO/c1-3-6-4-5(2)7-8-6/h1,4H,2H3	InChI=1S/C6H5NO/c1-3-6-4-5(2)7-8-6/h1,4H,2H3
