14
gdb 128707	5.02479	1.10672	0.91218	4.5071	70.24	-0.2466	-0.0917	0.1549	1205.4912	0.100402	-469.966361	-469.958453	-469.957509	-469.999839	28.291	
C	-0.0123162938	 1.3837709045	 0.0087439447	-0.243905
O	 0.0329658801	-0.0479549345	-0.0519846856	-0.252716
C	 0.6391865018	-0.5828706285	-1.115431837	 0.421223
N	 1.1542690753	 0.1511272615	-2.0349677469	-0.176905
O	 1.7561674439	-0.5463135591	-3.0884498087	-0.283723
C	 1.798865785	-1.9394143677	-3.141788213	 0.462187
N	 2.3584897544	-2.5164195088	-4.1180113943	-0.499412
N	 1.2196042477	-2.6820999914	-2.1111832881	-0.230246
C	 0.6714716757	-2.0398830423	-1.1533002538	-0.030311
H	 0.9995476235	 1.7984516398	 0.020997249	 0.150994
H	-0.5482006279	 1.7866690104	-0.8552464535	 0.150995
H	-0.5375974055	 1.6201149277	 0.9333925807	 0.144247
H	 2.72584241	-1.8264976894	-4.7744524451	 0.235594
H	 0.2098043198	-2.587042452	-0.3324187186	 0.151978
31.4287	124.8792	187.3636	212.1797	312.4766	358.0586	405.5974	458.3797	565.7253	573.6564	630.8842	766.7044	776.0065	828.2655	873.7602	923.6972	978.4604	1022.572	1033.5621	1066.7766	1177.1914	1218.1564	1271.5249	1332.089	1431.3404	1478.2094	1490.9585	1497.2232	1631.327	1711.8312	1725.4401	3047.0697	3120.7149	3147.7765	3165.8737	3494.2967
COC1=NOC(=N)N=C1	COC1=NOC(=N[CH]1)[NH]	
InChI=1S/C4H5N3O2/c1-8-3-2-6-4(5)9-7-3/h2,5H,1H3	InChI=1S/C4H5N3O2/c1-8-3-2-6-4(5)9-7-3/h2,5H,1H3
