19
gdb 96686	4.13902	0.65511	0.57363	4.9756	80.23	-0.2574	0.0201	0.2775	1889.4062	0.156591	-419.231522	-419.220719	-419.219775	-419.269385	36.009	
C	-0.0002372999	 1.4937625371	-0.1242280227	-0.32825
N	 0.0177626596	 0.0470011867	-0.0899031912	-0.282231
C	-1.0534768452	-0.6089042817	 0.0466258479	 0.405176
C	-2.4755168816	-0.118836799	 0.1936695356	-0.488792
O	-1.0202451988	-1.9694121022	 0.0770796785	-0.256993
C	 0.2630067786	-2.5736565057	-0.0515524476	-0.049209
C	 0.0152705093	-4.0847933628	 0.0141753499	-0.346444
C	 1.2558980318	-4.8448203339	-0.1057642358	 0.249219
N	 2.2442975176	-5.4351032776	-0.2017000242	-0.299693
H	 0.6356987643	 1.8831519572	 0.6794147355	 0.130148
H	 0.4399647356	 1.839286707	-1.0669432936	 0.130149
H	-0.9926702653	 1.9538643128	-0.0245499401	 0.102965
H	-2.7735952998	 0.4736018717	-0.6760632698	 0.14823
H	-3.1539912019	-0.9660827499	 0.2910798768	 0.142837
H	-2.5770681854	 0.5178089756	 1.0772069417	 0.148229
H	 0.7280826433	-2.2842062754	-0.9985088612	 0.136216
H	 0.9244291508	-2.24019012	 0.7535088831	 0.136216
H	-0.4716875713	-4.3384281903	 0.9617467952	 0.161114
H	-0.6678249618	-4.3823981497	-0.7884219979	 0.161114
46.9211	61.1761	69.9182	78.0772	87.4403	179.1114	213.0093	277.0346	280.4961	341.1895	399.5888	447.8121	564.774	574.1807	640.078	787.5888	819.4407	953.1059	987.4874	1053.8424	1056.1638	1077.0524	1088.0918	1134.6445	1135.6769	1158.38	1229.386	1287.5136	1289.4982	1304.3118	1392.5079	1410.9623	1448.6727	1470.8684	1478.5165	1479.621	1498.8775	1506.5126	1516.7828	1764.4689	2367.7899	3002.2808	3051.0796	3053.8051	3061.1535	3066.6833	3073.1579	3087.2037	3110.9204	3115.1413	3155.4672
CN=C(C)OCCC#N	CN=C(C)OCCC#N	
InChI=1S/C6H10N2O/c1-6(8-2)9-5-3-4-7/h3,5H2,1-2H3	InChI=1S/C6H10N2O/c1-6(8-2)9-5-3-4-7/h3,5H2,1-2H3
