14
gdb 128356	5.03419	1.07672	0.89255	7.2256	68.93	-0.2454	-0.0961	0.1492	1225.7272	0.100492	-469.994586	-469.986459	-469.985515	-470.027969	28.903	
C	-0.0515215049	 1.4505028481	 0.0494460068	-0.322249
N	-0.0768810608	 0.0010741257	-0.0621552942	-0.358979
C	 0.5949651875	-0.6249858719	-1.0765406047	 0.407749
N	 1.1283048156	 0.0790230252	-2.0271507646	-0.166454
O	 1.7116999147	-0.6549951022	-3.0636608958	-0.247586
C	 1.7819401757	-2.0336089616	-3.0885351141	 0.476619
O	 2.3180003634	-2.5561217577	-4.0204132008	-0.323219
N	 1.2169382357	-2.7513366465	-2.0158806997	-0.284212
C	 0.6582927381	-2.0785906607	-1.083893689	-0.0093
H	 0.9640961689	 1.8413392115	 0.1940936677	 0.141105
H	-0.4485694386	 1.8916214918	-0.8681254524	 0.163773
H	-0.6799557032	 1.7479630146	 0.8902985623	 0.132555
H	-0.1434211526	-0.5176337445	 0.799301968	 0.255538
H	 0.2067694904	-2.626030742	-0.2521974597	 0.13466
48.0173	130.4093	154.7301	192.2201	314.27	358.7272	378.787	419.3438	496.5487	575.9893	582.1856	636.4165	771.1128	803.1678	836.7563	925.8965	985.2056	1050.8901	1084.0599	1109.1028	1149.9683	1199.3934	1321.0932	1429.5667	1456.7602	1475.4002	1506.4986	1552.8059	1605.1158	1710.3222	1857.9535	3022.1578	3095.3694	3100.097	3144.9077	3629.4289
CNC1=NOC(=O)N=C1	CNc1noc(=O)nc1	
InChI=1S/C4H5N3O2/c1-5-3-2-6-4(8)9-7-3/h2H,1H3,(H,5,7)	InChI=1S/C4H5N3O2/c1-5-3-2-6-4(8)9-7-3/h2H,1H3,(H,5,7)
