27
gdb 59979	2.79264	0.77874	0.72105	1.4514	92.39	-0.2591	0.0674	0.3265	1784.983	0.249079	-390.70719	-390.695083	-390.694138	-390.744568	44.678	
C	 0.9709670249	-0.3537377596	-1.0183898039	-0.38057
C	 0.0286475131	 0.0879330168	 0.1104049612	 0.022615
C	-0.1243352071	 1.6159448642	 0.1158480186	-0.385466
C	-1.3572366779	-0.576542703	 0.0180691316	-0.166685
C	-1.411214615	-2.1164293569	 0.0696582034	 0.012339
C	-0.759064772	-2.679091656	 1.342080729	-0.417672
C	-2.8824957354	-2.5778755242	-0.0848106055	 0.141754
C	-3.0456266938	-4.0764570633	-0.3456500858	-0.420878
O	-3.6901254057	-2.1599552469	 1.0163196691	-0.437081
H	 1.9356344785	 0.159989072	-0.947651804	 0.107524
H	 1.1697217478	-1.4297493449	-0.9948449624	 0.111329
H	 0.5413064999	-0.1167239323	-1.9995843896	 0.109008
H	 0.488910034	-0.1966411509	 1.0662349219	 0.07117
H	-0.569886597	 1.9682701345	-0.8223949947	 0.109959
H	-0.7709191778	 1.9487599551	 0.9345939967	 0.109895
H	 0.8452618682	 2.1125287248	 0.2288699064	 0.105338
H	-1.9939915094	-0.192963529	 0.8246894016	 0.104166
H	-1.8302026304	-0.2480136256	-0.919188246	 0.082235
H	-0.8709790484	-2.5178977252	-0.7985264422	 0.068257
H	-0.8249637097	-3.770625737	 1.3886764194	 0.109961
H	 0.3020664761	-2.422201341	 1.3931987686	 0.122472
H	-1.2341913746	-2.2694035184	 2.2412291026	 0.111973
H	-3.304048044	-2.0378585274	-0.9420219673	 0.082209
H	-2.6823169189	-4.6769184732	 0.4964685761	 0.109363
H	-4.1024727818	-4.3149785246	-0.4939340543	 0.123201
H	-2.4921050483	-4.3862913118	-1.2381012064	 0.115181
H	-3.4638837052	-2.7140397862	 1.7706935359	 0.278406
44.7429	70.8063	101.9835	140.0516	211.4516	222.781	234.8317	249.109	253.897	289.4295	297.4881	305.0127	342.1194	395.5039	423.4723	468.2069	519.9992	607.4271	775.0754	823.3157	855.3284	893.8018	927.8698	934.4375	963.4791	968.6323	997.5395	1025.5537	1045.4088	1076.5676	1111.7034	1125.3369	1175.0889	1192.3205	1198.1065	1264.9495	1284.1017	1308.8266	1339.4422	1354.3382	1363.8789	1386.416	1391.0377	1399.1916	1406.2351	1410.8277	1421.5396	1427.496	1482.0216	1487.549	1490.8454	1495.5091	1496.2087	1503.9825	1508.027	1508.4331	1512.044	2997.1903	3008.9226	3012.6638	3021.6494	3026.1833	3028.0181	3031.2401	3033.8647	3058.8116	3085.3263	3092.1055	3093.8148	3097.2054	3099.1659	3099.5671	3111.354	3115.5489	3809.6176
CC(C)CC(C)C(C)O	CC(C)C[C@@H](C)[C@@H](C)O	
InChI=1S/C8H18O/c1-6(2)5-7(3)8(4)9/h6-9H,5H2,1-4H3	InChI=1S/C8H18O/c1-6(2)5-7(3)8(4)9/h6-9H,5H2,1-4H3/t7-,8-/m1/s1
