18
gdb 67941	2.42708	1.76579	1.27663	3.8607	77.05	-0.2315	0.01	0.2415	1030.1443	0.148434	-401.991168	-401.983275	-401.98233	-402.0234	30.948	
C	-0.0083274866	 1.5099136015	-0.0355814055	-0.458521
C	-0.0204742137	-0.0092816432	 0.0384363334	 0.352187
C	-1.4304957452	-0.6502426579	-0.0280443982	-0.309643
C	-1.4041765034	-1.7106991448	 1.0462502761	-0.062738
C	-0.2684435934	-1.7171031453	 1.746674537	-0.07299
C	 0.7151211909	-0.7026313154	 1.2452074699	-0.284364
C	 1.7004340124	-1.2650679107	 0.1726326229	 0.439306
O	 2.6804074105	-1.9588215878	 0.1735204664	-0.368153
N	 0.9803716262	-0.6610203602	-0.8275492082	-0.364159
H	 1.0094850329	 1.8982764752	 0.0629726078	 0.12464
H	-0.4140052836	 1.8597518954	-0.9920116827	 0.118654
H	-0.6238602582	 1.9387288632	 0.7615151656	 0.126119
H	-2.2203128956	 0.0902893783	 0.1543985281	 0.108064
H	-1.6254860986	-1.0681419679	-1.0242254846	 0.107803
H	-2.2367266479	-2.3860617582	 1.2113723433	 0.09841
H	-0.0359683396	-2.3949486607	 2.5594326823	 0.107877
H	 1.1787004416	-0.0677369536	 2.0039253174	 0.09525
H	 1.0660274714	-0.7146825778	-1.8330433607	 0.242258
84.6008	162.2663	238.0984	281.3287	324.8066	366.2318	375.0954	431.9634	514.9087	596.9731	655.324	690.4515	736.5317	792.514	823.6169	890.995	935.4501	946.9188	960.4259	978.6186	979.4453	1030.3488	1090.8982	1112.0359	1149.5818	1172.4112	1179.4798	1211.3566	1263.7265	1284.2166	1324.9828	1359.8326	1385.849	1412.3152	1473.4688	1490.7625	1494.9786	1675.7776	1892.1779	3016.6337	3030.569	3045.903	3089.3579	3096.0409	3114.7551	3186.152	3213.4202	3591.2781
CC12CC=CC1C(=O)N2	C[C@]12CC=C[C@H]1C(=O)N2	
InChI=1S/C7H9NO/c1-7-4-2-3-5(7)6(9)8-7/h2-3,5H,4H2,1H3,(H,8,9)	InChI=1S/C7H9NO/c1-7-4-2-3-5(7)6(9)8-7/h2-3,5H,4H2,1H3,(H,8,9)/t5-,7-/m0/s1
