23
gdb 116199	2.17466	1.46017	1.12613	1.7566	81.6	-0.243	0.0777	0.3207	1230.8723	0.204355	-425.425456	-425.415349	-425.414404	-425.460298	37.438	
C	 0.2605183742	 1.2164103569	 0.4676247401	-0.240363
O	 0.0845939141	-0.1512353814	 0.1838696143	-0.251373
C	 0.4790160187	-0.5272120501	-1.1260637185	 0.083563
C	 2.0101601032	-0.7221716649	-1.2306291366	-0.091337
O	 2.2677539456	-2.1236365141	-1.1715583914	-0.265781
C	 1.062492997	-2.7910600182	-0.8188743402	-0.092138
C	-0.0690822514	-1.9458216216	-1.4303994373	 0.239325
C	-1.4372806727	-2.2273249099	-0.8073631641	-0.44359
C	-0.1140095361	-2.1585554372	-2.9541399897	-0.43153
H	 1.3168623503	 1.5231962549	 0.4322577625	 0.106466
H	-0.3033233456	 1.8503641414	-0.2349992035	 0.104951
H	-0.115667122	 1.3879977353	 1.4791435012	 0.128849
H	 0.1097046769	 0.2177640355	-1.8464589491	 0.059285
H	 2.4186437369	-0.3345001239	-2.1715220033	 0.099729
H	 2.5127409734	-0.2070787541	-0.4011326129	 0.098754
H	 1.1126815802	-3.8076817212	-1.2215294509	 0.099432
H	 0.9494061957	-2.8498409577	 0.2747055373	 0.092475
H	-1.427307226	-2.0586094939	 0.270257434	 0.132668
H	-2.2071676447	-1.580615414	-1.2416723819	 0.11016
H	-1.7332662136	-3.2650490124	-0.9975516758	 0.107317
H	-0.4522706981	-3.1740593189	-3.1855493405	 0.114188
H	-0.8098203409	-1.4594221751	-3.4301536477	 0.110209
H	 0.8720378045	-2.0264175154	-3.4083592259	 0.128741
59.4887	116.3389	166.0468	186.0184	200.2221	222.0908	233.7146	300.004	331.807	336.9485	371.2957	464.8399	496.6761	591.9051	715.2491	830.7864	846.74	936.8347	939.1836	948.4743	959.8996	986.5486	1002.4531	1047.6062	1076.8952	1109.1627	1148.7847	1183.9837	1193.5784	1210.848	1227.2032	1249.2063	1254.5417	1269.5034	1308.0682	1356.6151	1380.8798	1398.5627	1401.8244	1428.2947	1479.3288	1485.5017	1486.7886	1489.8545	1501.6594	1504.4941	1511.3973	1512.7468	1518.2236	2971.6086	2984.0183	2989.5766	3010.992	3020.5515	3030.7064	3035.8413	3050.9264	3075.0085	3091.0211	3097.686	3112.8393	3113.1591	3138.3057
COC1COCC1(C)C	CO[C@H]1COCC1(C)C	
InChI=1S/C7H14O2/c1-7(2)5-9-4-6(7)8-3/h6H,4-5H2,1-3H3	InChI=1S/C7H14O2/c1-7(2)5-9-4-6(7)8-3/h6H,4-5H2,1-3H3/t6-/m0/s1
