23
gdb 59530	3.9549	0.85836	0.77659	1.443	86.88	-0.2526	0.0723	0.325	1559.5564	0.204525	-388.268367	-388.258606	-388.257662	-388.303228	37.372	
C	 0.0835313174	 1.5033007873	-0.1022841731	-0.403617
C	 0.0107887314	-0.0168899959	 0.0478685818	 0.119304
O	 0.7364773761	-0.4615176223	 1.1937569218	-0.432669
C	-1.4211702611	-0.5370462537	 0.073073901	 0.041627
C	-2.2543034184	-0.4769609839	-1.2455374336	-0.327704
C	-2.6988739529	-1.9207260855	-0.9748088889	 0.385786
C	-4.1230097453	-2.3838406113	-0.8663219917	-0.316686
C	-3.2161838717	-2.9374795502	-1.9446797421	-0.329245
C	-1.6235546207	-2.0809476671	 0.1081357482	-0.319155
H	 1.1251843025	 1.8354514611	-0.1119143525	 0.122332
H	-0.3968672411	 1.8360989834	-1.0281127826	 0.120189
H	-0.4259719218	 1.9992560115	 0.7338057347	 0.10327
H	 0.5336022771	-0.48476859	-0.7970632419	 0.081542
H	 0.3193061914	-0.0713545623	 1.9700746196	 0.273629
H	-1.9649337635	-0.0531167452	 0.8947713461	 0.056614
H	-3.0367275302	 0.2845178336	-1.3068446772	 0.096427
H	-1.6145638754	-0.3900474936	-2.1319389405	 0.096223
H	-4.3889673649	-3.0350756516	-0.0391580882	 0.108826
H	-4.9108044899	-1.6986436062	-1.1646299102	 0.107633
H	-3.3928847595	-2.6258218723	-2.9696718907	 0.107768
H	-2.8707561851	-3.9620007682	-1.8454708014	 0.109735
H	-0.7343309405	-2.61532378	-0.2429657882	 0.103244
H	-1.9360099639	-2.5196117678	 1.0594001095	 0.094927
47.1065	82.1624	141.0887	234.5215	270.2435	277.2215	277.8214	302.6545	338.8984	383.0327	455.6629	486.3155	571.9955	724.5196	774.4545	819.5233	848.4212	881.8042	904.8045	912.4062	925.4072	971.722	995.5168	1014.6195	1040.0764	1050.787	1074.1933	1081.031	1091.496	1116.9401	1176.7016	1187.2461	1204.0152	1235.1871	1243.3757	1246.629	1277.8662	1293.2247	1332.259	1374.8827	1400.3232	1401.417	1419.129	1463.6901	1475.0552	1491.0703	1494.0957	1496.239	1504.5481	3011.6206	3020.6769	3028.0066	3031.4729	3044.4986	3087.4058	3092.025	3096.1992	3116.0579	3116.8344	3120.5896	3193.3849	3208.6304	3795.1333
CC(O)C1CC2(CC2)C1	C[C@@H](O)C1CC2(CC2)C1	
InChI=1S/C8H14O/c1-6(9)7-4-8(5-7)2-3-8/h6-7,9H,2-5H2,1H3	InChI=1S/C8H14O/c1-6(9)7-4-8(5-7)2-3-8/h6-7,9H,2-5H2,1H3/t6-/m1/s1
