22
gdb 102580	2.33847	1.1008	0.86114	1.4964	79.75	-0.224	0.0694	0.2933	1432.5272	0.191256	-441.425367	-441.414453	-441.413509	-441.462128	38.421	
C	-1.2745291713	-0.0590489879	-0.1811201698	-0.2373
O	 0.0149876289	-0.6360836009	-0.0949876557	-0.258381
C	 0.6495709342	-0.5301783812	 1.1704493485	 0.095077
C	 0.2567147873	-1.6808289689	 2.0986546103	-0.082649
O	-1.0893198884	-1.4993286172	 2.5151563969	-0.423188
C	 2.1421641835	-0.5580599052	 0.8926453994	 0.012057
C	 2.8644335364	 0.6811221232	 0.4981700423	-0.258658
N	 3.1576421866	 0.0298600678	 1.7695440979	-0.089436
C	 2.7775428994	 0.7279022088	 2.9891962363	-0.314236
H	-1.2546796808	 1.0075510771	 0.093213844	 0.097718
H	-1.585662664	-0.1431318452	-1.2259805266	 0.117961
H	-1.9989106721	-0.5694636995	 0.4614361525	 0.128599
H	 0.3608819839	 0.4143511425	 1.6535375615	 0.071985
H	 0.3864630478	-2.623708841	 1.5464147572	 0.097229
H	 0.9396454609	-1.6965153721	 2.9628690978	 0.092232
H	-1.3661201715	-2.2855525995	 2.9944008724	 0.289027
H	 2.4636107497	-1.4970012548	 0.4419747284	 0.093211
H	 3.6509222971	 0.6545300206	-0.2513986179	 0.114112
H	 2.2918729586	 1.6085311263	 0.5225002282	 0.104237
H	 1.8830865281	 1.3641288511	 2.9006760872	 0.104029
H	 2.6058108639	 0.0022276975	 3.7911156654	 0.121935
H	 3.6117433118	 1.3692751884	 3.2916076537	 0.124439
47.1027	61.5884	101.6798	139.3663	175.0355	211.1159	214.7462	243.9485	265.8709	328.9213	362.8351	392.5406	450.189	504.9565	553.3377	756.0154	856.3115	887.1553	920.6666	1024.5312	1028.8468	1053.2343	1089.1749	1098.8698	1117.4381	1130.5423	1140.2984	1162.4358	1176.5415	1182.5141	1203.853	1223.1813	1234.0713	1268.2539	1306.6819	1335.403	1371.2854	1436.9285	1449.4147	1454.0986	1478.3561	1483.5179	1489.3678	1502.6425	1506.0993	1513.6657	1518.7015	2974.2448	2974.3587	2981.789	3003.8605	3021.5862	3063.7441	3072.3936	3084.3304	3096.8681	3104.7075	3115.6827	3173.1107	3831.6887
COC(CO)C1CN1C	CO[C@@H](CO)[C@H]1CN1C	
InChI=1S/C6H13NO2/c1-7-3-5(7)6(4-8)9-2/h5-6,8H,3-4H2,1-2H3	InChI=1S/C6H13NO2/c1-7-3-5(7)6(4-8)9-2/h5-6,8H,3-4H2,1-2H3/t5-,6+,7?/m1/s1
