18
gdb 61773	3.637	0.79121	0.74004	0.9956	73.28	-0.2634	-0.0368	0.2266	1517.7149	0.144209	-439.102376	-439.092007	-439.091063	-439.138882	35.676	
C	-0.0276544204	 1.6491914292	-0.0694755395	-0.426978
C	-0.0055831431	 0.1176071481	 0.0243661908	-0.006969
C	 0.7541611889	-0.3689793057	 1.2752777305	-0.286451
C	 2.2274877377	-0.0284427128	 1.2071141659	 0.155125
O	 2.8319026382	 0.5958178983	 2.0387272581	-0.232874
C	-1.4322461148	-0.4879357798	 0.0208048093	-0.02323
O	-2.212730302	-0.1046723493	 1.1365527848	-0.412413
C	-2.1287023284	-0.1831467489	-1.2471639917	 0.260999
N	-2.6692209236	 0.0857508937	-2.2326014547	-0.316781
H	 0.988404012	 2.0506041306	-0.1129931561	 0.142366
H	-0.5601044156	 1.9862082209	-0.9634856488	 0.146886
H	-0.5053001298	 2.0924042671	 0.8113918784	 0.124578
H	 0.4975544062	-0.2816951322	-0.8671202855	 0.102619
H	 0.3275888182	 0.053225967	 2.1879827114	 0.137115
H	 0.6811669766	-1.464622165	 1.3400666351	 0.120174
H	 2.7415540471	-0.4139952245	 0.2941020175	 0.075052
H	-1.3471822746	-1.5782189657	 0.0931280965	 0.139144
H	-2.4484345224	 0.825314909	 1.0440073482	 0.301638
50.6476	56.9488	77.1998	132.7022	198.1129	223.6323	229.1456	288.0289	301.3773	346.995	376.8874	457.0871	537.5477	590.4536	670.2413	784.9897	827.8449	912.7699	952.4407	981.4933	1006.041	1044.2207	1105.2651	1135.0711	1153.7621	1222.7745	1254.8694	1280.7747	1311.4219	1364.1218	1369.3608	1418.3313	1421.7686	1430.182	1464.0845	1498.7206	1504.165	1838.7015	2353.3436	2846.7983	3011.6066	3019.1865	3038.7669	3056.1329	3106.1406	3116.3291	3121.1758	3810.9153
CC(CC=O)C(O)C#N	C[C@@H](CC=O)[C@@H](O)C#N	
InChI=1S/C6H9NO2/c1-5(2-3-8)6(9)4-7/h3,5-6,9H,2H2,1H3	InChI=1S/C6H9NO2/c1-5(2-3-8)6(9)4-7/h3,5-6,9H,2H2,1H3/t5-,6-/m0/s1
