17
gdb 130458	3.50437	1.16304	0.92103	3.1688	72.44	-0.2026	0.0154	0.2181	1242.8142	0.138165	-451.316956	-451.308742	-451.307798	-451.350304	30.184	
N	 0.5422254334	 1.63410908	 1.2565049401	-0.504411
H	 0.9178419524	 0.722530648	 1.4994908706	 0.240848
H	 0.9449217823	 3.1523136388	 2.4113813928	 0.280856
H	 0.9297793074	 1.8673723421	 0.3463449852	 0.239797
C	-0.9331966706	 1.572062389	 1.163024607	-0.159949
C	-1.570347307	 2.973931397	 1.0950433472	-0.147269
N	-1.8116555491	 3.6392737572	 2.3653946165	-0.362283
C	-0.8303070342	 4.0354907928	 3.0543912078	 0.476924
N	 0.5392680192	 3.9388288514	 2.9263680911	-0.317289
N	 1.1856711296	 4.4877035056	 4.0238585457	-0.208443
C	 0.2291724525	 4.9769532542	 4.7188450796	 0.086429
O	-1.0170805656	 4.7748090474	 4.2176851507	-0.198903
H	-1.261841909	 0.9916746097	 0.2874470159	 0.092193
H	-1.3094337897	 1.0583745317	 2.0532231832	 0.123338
H	-0.952297224	 3.59967284	 0.4267742716	 0.088949
H	-2.543239906	 2.8678019094	 0.6039001587	 0.107363
H	 0.3166505283	 5.5242642757	 5.6429791564	 0.161851
64.2811	125.9673	172.4918	193.1954	250.9207	300.8159	357.6763	450.9858	562.6959	623.0675	687.5102	729.7261	760.4924	838.0528	861.8165	876.124	950.6346	958.7056	981.1659	1001.1958	1051.9587	1078.6823	1124.1054	1163.663	1187.114	1231.6477	1317.834	1327.905	1336.8249	1378.4676	1404.7842	1433.188	1490.0568	1497.9087	1651.2661	1652.23	1794.5737	2949.3453	2983.1075	3060.6615	3083.2813	3290.7265	3352.2032	3490.7195	3567.6375
[NH3+]CCN=C1[N-]N=CO1	NCCN=c1[nH]nco1	
InChI=1S/C4H7N4O/c5-1-2-6-4-8-7-3-9-4/h3H,1-2,5H2/q-1/p+1	InChI=1S/C4H8N4O/c5-1-2-6-4-8-7-3-9-4/h3H,1-2,5H2,(H,6,8)
