21
gdb 106448	2.56757	1.19334	0.96848	3.0789	84.41	-0.2414	-0.024	0.2174	1306.6879	0.181981	-387.055278	-387.046336	-387.045392	-387.089477	33.698	
C	 0.4774955232	 1.8313528342	-0.343215062	-0.382221
C	 0.3948351563	 0.3050582853	-0.2284489433	-0.310636
C	 0.9399389927	-0.4124421209	-1.4396433619	 0.338974
C	 0.4438673426	-0.3127502553	-2.9189345491	-0.253781
C	 1.6060475295	-1.342583368	-2.9387499792	-0.070111
C	 2.3901130091	-0.3622293014	-2.0234474131	-0.274455
C	 0.9523558222	-1.9788580205	-1.6645452494	-0.095945
C	 1.7394883922	-2.8779980257	-0.7613371206	 0.119102
O	 1.2741617914	-3.8695307888	-0.2507986558	-0.259754
H	 1.5134344559	 2.164834457	-0.4640257069	 0.120111
H	-0.0926228391	 2.1960447538	-1.2039021744	 0.120816
H	 0.0740649356	 2.3124393305	 0.5524859181	 0.118021
H	 0.9423587366	-0.0295417023	 0.6621599188	 0.104784
H	-0.6485735826	-0.0004729563	-0.0777496867	 0.106267
H	-0.5590612288	-0.695796899	-3.1260012778	 0.095567
H	 0.6286486263	 0.6349858288	-3.4322400579	 0.093453
H	 1.9868007205	-1.8897920526	-3.8012573778	 0.083016
H	 2.6847320306	 0.5831259679	-2.4871297866	 0.095804
H	 3.2036388898	-0.7583179901	-1.414638928	 0.099092
H	-0.0357950199	-2.4233481223	-1.8164275575	 0.080602
H	 2.7983917959	-2.5995176344	-0.5710570188	 0.071294
58.4551	77.8868	158.7626	206.9821	236.1259	252.5518	330.8459	398.1028	449.7869	534.2377	578.9699	628.9452	753.3926	762.4456	821.9737	880.3849	931.1716	943.4673	949.3128	990.2203	1009.663	1026.075	1038.9238	1064.271	1097.8038	1110.156	1138.3999	1144.4894	1160.189	1187.2583	1217.9595	1221.7495	1234.4701	1297.6667	1305.669	1342.2522	1373.0796	1410.7375	1447.5722	1481.6154	1499.8302	1506.8307	1506.9978	1547.5957	1809.2257	2890.4434	3019.826	3036.4844	3048.0776	3051.8256	3063.809	3072.2885	3104.8453	3109.9424	3112.6395	3115.3834	3130.4989
CCC12CC(C1)C2C=O	CC[C@@]12C[C@@H](C1)[C@H]2C=O	
InChI=1S/C8H12O/c1-2-8-3-6(4-8)7(8)5-9/h5-7H,2-4H2,1H3	InChI=1S/C8H12O/c1-2-8-3-6(4-8)7(8)5-9/h5-7H,2-4H2,1H3/t6-,7-,8+/m1/s1
