19
gdb 34984	2.63724	1.59524	1.38053	0.917	84.	-0.2351	0.0437	0.2788	1025.2223	0.160622	-348.696625	-348.689063	-348.688119	-348.728337	31.091	
C	-0.3806077697	-1.2583570777	-0.1762141407	-0.444799
C	-0.1261907724	-0.0850976827	-0.081607917	 0.320425
C	 0.0430405038	 1.3358223039	 0.0118896915	-0.212716
C	 0.4813261531	 2.0715712768	 1.2729200192	-0.062515
C	 1.2761616983	 1.334308242	 2.3585900389	-0.261033
C	 2.6920096467	 1.1091067677	 1.8044696369	-0.027663
C	 2.9057076704	 0.1132877311	 0.6945156237	-0.308188
C	 2.708471319	 1.5730663389	 0.3592156511	-0.044093
C	 1.3438212886	 2.144995571	 0.0354664368	-0.066857
H	-0.5725952061	-2.2990069618	-0.2622130722	 0.193067
H	-0.7449587637	 1.8625286284	-0.5238024383	 0.113552
H	-0.1472777168	 2.8996920229	 1.5831488264	 0.088634
H	 1.3261520496	 1.9662315794	 3.2505088477	 0.103337
H	 0.7921338313	 0.3979135257	 2.6586192584	 0.115524
H	 3.5263750038	 1.3168030378	 2.4658132736	 0.080517
H	 3.9131248405	-0.2732534608	 0.5749346692	 0.102172
H	 2.1271597693	-0.597658863	 0.4583622653	 0.140876
H	 3.5529271674	 2.1195980317	-0.0452215971	 0.081451
H	 1.3355075869	 3.0256933288	-0.5972927735	 0.088311
106.1237	162.5046	231.2712	293.2418	364.3173	414.6607	563.7622	590.2163	627.4946	645.982	661.2179	694.2665	711.3566	751.1844	798.6351	818.6974	853.7045	890.7894	939.6018	965.7072	1003.5275	1014.399	1049.2662	1058.573	1078.7428	1083.6002	1106.4511	1114.6425	1121.1894	1202.6259	1224.0115	1233.2183	1301.5512	1314.7406	1358.6671	1366.6343	1381.2187	1415.5387	1484.7053	1496.3852	2224.7578	3042.2574	3081.9087	3113.9059	3138.7378	3154.832	3159.7673	3164.3713	3177.4089	3248.8951	3503.4747
C#CC1C2CC3CC3C12	C#C[C@H]1[C@H]2C[C@H]3C[C@H]3[C@@H]12	
InChI=1S/C9H10/c1-2-6-8-4-5-3-7(5)9(6)8/h1,5-9H,3-4H2	InChI=1S/C9H10/c1-2-6-8-4-5-3-7(5)9(6)8/h1,5-9H,3-4H2/t5-,6+,7-,8-,9-/m1/s1
