19
gdb 105828	2.12172	1.53311	1.21605	3.3832	76.38	-0.245	-0.0176	0.2274	1129.0565	0.158341	-423.016337	-423.007309	-423.006365	-423.050309	33.58	
C	-0.109020723	 1.5095679916	 0.0311291336	-0.422475
C	 0.079942547	 0.0063452646	 0.0691867791	-0.047196
C	 1.3607951365	-0.7272644092	-0.1606450887	-0.142253
C	 2.5622205516	 0.0376686608	 0.4223703236	-0.359122
C	 1.8576853122	-0.077054507	 1.7944553294	 0.363412
O	 2.2174025539	 0.0948123137	 2.9315202606	-0.339482
C	 0.6605600979	-0.7772034038	 1.2401510017	 0.19603
C	-0.0666256156	-1.8234522092	 2.0454785049	-0.183847
O	-0.6355545526	-1.2436713324	 3.2085420057	-0.417558
H	 0.7437187186	 2.0537188944	 0.4440414116	 0.128296
H	-0.2582532074	 1.8525115818	-0.9984499336	 0.122423
H	-0.9920187283	 1.7942682932	 0.6115711807	 0.135448
H	-0.7756411979	-0.5335432919	-0.3358770775	 0.10009
H	 1.4455419476	-1.5504077879	-0.8588994308	 0.106354
H	 3.488898929	-0.5438163189	 0.4348426079	 0.134786
H	 2.7758592863	 1.0331475006	 0.0250582675	 0.124734
H	-0.8898598696	-2.2634817968	 1.4729435461	 0.108305
H	 0.626180614	-2.6389143264	 2.3085910074	 0.094595
H	 0.0935784796	-0.8335827472	 3.6914806907	 0.297459
66.126	105.9747	133.7136	180.2737	239.0727	273.0871	325.4243	401.2592	464.4325	477.0806	515.4081	591.8373	658.3087	726.298	764.9318	837.0437	892.6915	942.7886	950.1331	991.3762	1020.5345	1035.6133	1050.9125	1072.7526	1113.5147	1115.3052	1147.1191	1209.4948	1222.34	1255.9183	1315.8319	1340.6583	1379.4474	1417.9257	1436.4434	1448.9631	1467.9109	1493.4447	1503.9003	1506.3332	1847.4411	2973.3646	3039.3771	3062.3119	3068.7369	3101.9781	3108.5475	3113.1678	3127.0687	3196.7667	3773.113
CC1C2CC(=O)C12CO	C[C@H]1[C@H]2CC(=O)[C@@]12CO	
InChI=1S/C7H10O2/c1-4-5-2-6(9)7(4,5)3-8/h4-5,8H,2-3H2,1H3	InChI=1S/C7H10O2/c1-4-5-2-6(9)7(4,5)3-8/h4-5,8H,2-3H2,1H3/t4-,5+,7-/m0/s1
