19
gdb 12065	3.96235	1.57717	1.42077	1.7939	70.57	-0.2292	0.0685	0.2977	949.27	0.165151	-365.008823	-365.000657	-364.999713	-365.040913	31.143	
C	-0.0725935835	 1.6115471417	 0.0599966355	-0.461274
C	 0.0107848523	 0.0876995852	 0.0350495496	 0.328235
C	-1.3654971511	-0.5313850126	-0.1985263904	-0.125359
O	-1.8248550394	-0.1178553615	-1.4775989869	-0.426967
C	 1.0794445362	-0.5889694226	-0.8765805267	-0.207892
N	 1.6464934747	-1.3927524799	 0.2671122972	-0.129666
C	 2.1735845441	-0.3933705674	 1.2120640315	-0.251133
C	 0.7172303725	-0.6236714868	 1.1965305981	-0.07792
H	 0.9110154536	 2.0696780126	 0.1951471389	 0.108321
H	-0.4985537846	 1.9819337786	-0.8764100022	 0.137313
H	-0.716627063	 1.9521933146	 0.8795095346	 0.109393
H	-1.2871948392	-1.6279156488	-0.1388848661	 0.095973
H	-2.0544904457	-0.2024372584	 0.5975619085	 0.082548
H	-2.6776222939	-0.5302396683	-1.6410950651	 0.289665
H	 0.6562478566	-1.2405437152	-1.6424494991	 0.11705
H	 1.8144582388	 0.0766325276	-1.3415836937	 0.097127
H	 2.7367227879	-0.8361616813	 2.0283380431	 0.119129
H	 2.5954010103	 0.530831379	 0.8228775029	 0.109662
H	 0.2061747532	-1.1169244363	 2.0199764202	 0.085795
115.9724	166.2303	203.4272	219.2808	243.8851	300.2319	361.3514	403.5946	468.6995	518.8519	658.824	747.3619	779.627	852.0407	878.6826	944.6679	961.7305	976.5971	1002.1129	1032.0418	1055.2441	1077.2698	1105.7537	1116.7031	1162.2053	1187.2182	1205.925	1229.4966	1237.4136	1275.5634	1279.4372	1321.6872	1380.2563	1408.9531	1456.2198	1489.3249	1493.0347	1499.3654	1511.8111	1523.3878	2958.4843	2998.9337	3031.7064	3044.8554	3098.0223	3103.8698	3119.359	3121.1917	3135.3714	3193.0694	3836.7768
CC1(CO)CN2CC12	C[C@@]1(CO)CN2C[C@@H]12	
InChI=1S/C6H11NO/c1-6(4-8)3-7-2-5(6)7/h5,8H,2-4H2,1H3	InChI=1S/C6H11NO/c1-6(4-8)3-7-2-5(6)7/h5,8H,2-4H2,1H3/t5-,6-,7?/m0/s1
