14
gdb 133172	3.08941	1.40666	0.97235	3.2019	70.37	-0.2426	-0.0764	0.1662	1118.7144	0.099526	-477.958279	-477.950509	-477.949565	-477.990793	28.795	
C	 0.0255835908	 1.4999568897	 0.1113258537	-0.496867
C	-0.0206382505	 0.0032882662	 0.0511747447	 0.169723
C	-1.1299575955	-0.7494162599	 0.1526878129	-0.220281
C	-1.0674466011	-2.197127793	 0.0815436677	 0.416853
N	-2.0937308297	-2.9378939753	 0.1735533112	-0.526633
O	 0.1919362892	-2.7648517848	-0.0961097528	-0.291065
N	 1.3538189133	-2.0086030534	-0.203869142	-0.139951
C	 1.2095777864	-0.7430355782	-0.1308630713	 0.312185
F	 2.3264138725	-0.0312797194	-0.2348638498	-0.05187
H	 0.663919776	 1.8374785499	 0.934606463	 0.155202
H	 0.4525967166	 1.9140460432	-0.8081151951	 0.155199
H	-0.9753732532	 1.9122284023	 0.2508190767	 0.141053
H	-2.115930178	-0.322485683	 0.2910467189	 0.143683
H	-1.8397334368	-3.9243034642	 0.0994583221	 0.232771
87.3545	146.7785	192.1734	272.1568	352.957	365.7305	366.4121	445.5025	521.6348	575.2436	626.371	710.5709	732.2714	779.7831	856.161	875.8783	931.1983	999.5534	1030.0284	1069.8567	1096.1557	1196.2997	1281.1234	1323.3443	1418.3744	1419.0171	1475.003	1485.4727	1640.2135	1697.7019	1740.3891	3042.5248	3098.6235	3137.9309	3214.7502	3482.3546
CC1=CC(=N)ON=C1F	C[C]1C=C([NH])ON=C1F	
InChI=1S/C5H5FN2O/c1-3-2-4(7)9-8-5(3)6/h2,7H,1H3	InChI=1S/C5H5FN2O/c1-3-2-4(7)9-8-5(3)6/h2,7H,1H3
