18
gdb 79754	2.51491	1.76878	1.39848	2.5443	70.21	-0.2189	0.0609	0.2798	972.6365	0.149048	-439.042375	-439.034935	-439.03399	-439.073767	30.669	
O	 0.3081368081	 1.3296712486	 0.0721987898	-0.430214
C	 0.0501280159	-0.0246339647	-0.0404474015	 0.049413
C	-1.3390860145	-0.6661040384	 0.0230078494	-0.162565
C	-2.5607685521	 0.1662887126	-0.2662808598	-0.038465
N	-2.2916386217	 1.6016960944	-0.5742576383	-0.36432
C	-2.5140389427	 0.6406775977	-1.6767696655	-0.033053
C	-1.2403402716	 0.1182232479	-2.3287893766	-0.307348
C	-0.5041988859	-0.7114460563	-1.2593286595	 0.306102
O	 0.0545289555	-1.924213456	-1.6763872307	-0.460485
H	-0.5370022673	 1.7828192826	-0.1225303689	 0.304544
H	 0.8151892602	-0.6121352591	 0.4644486858	 0.09769
H	-1.4626969328	-1.5510613437	 0.6362031425	 0.092614
H	-3.4930092872	-0.0733838433	 0.2320293699	 0.095197
H	-3.1273545865	 2.1567983307	-0.4159307397	 0.238165
H	-3.4099301903	 0.76457016	-2.2757624057	 0.095427
H	-1.4940171726	-0.5575698644	-3.150691978	 0.11695
H	-0.6247643959	 0.9305675387	-2.7305872816	 0.116157
H	 0.9738501613	-1.7615037974	-1.9142387817	 0.284191
152.8642	226.0901	267.3634	305.2008	330.3947	379.2677	417.302	525.4918	577.2354	666.6806	687.7027	701.9731	719.7857	785.1883	815.6759	858.7312	896.5558	906.0444	946.0857	959.9677	989.1712	1044.4403	1075.1803	1082.1743	1114.3989	1135.1104	1176.3456	1184.83	1220.0811	1247.4655	1264.8221	1298.4438	1337.9438	1340.4997	1367.4877	1390.1378	1440.9311	1472.8713	1514.3276	3047.6444	3098.7873	3124.6839	3166.3214	3175.14	3187.5423	3489.6793	3516.8925	3795.357
OC1C2C3NC3CC12O	O[C@H]1[C@H]2[C@H]3N[C@H]3C[C@@]12O	
InChI=1S/C6H9NO2/c8-5-3-4-2(7-4)1-6(3,5)9/h2-5,7-9H,1H2	InChI=1S/C6H9NO2/c8-5-3-4-2(7-4)1-6(3,5)9/h2-5,7-9H,1H2/t2-,3+,4-,5-,6-/m0/s1
