17
gdb 50993	2.03175	1.31882	0.92017	4.0175	74.77	-0.2707	0.0004	0.2711	1282.302	0.1326	-421.795351	-421.786073	-421.785129	-421.830034	33.631	
O	 2.3202670198	 0.7658452448	-1.9237182066	-0.270194
C	 2.0950531136	 1.8513150855	-1.4820593805	 0.157998
O	 1.4339431057	 2.0379258741	-0.3178415523	-0.22341
C	 1.1842278054	 3.3783760757	 0.0768098192	 0.421447
C	-0.0347318603	 3.9935434782	-0.5982044811	-0.42378
C	-1.27746914	 3.2911343881	-0.2959076777	 0.321259
C	-2.2980494103	 2.7115592583	-0.0416804776	-0.439003
C	 1.4696924153	 3.6565334415	 1.5163568225	-0.297373
C	 2.3695315614	 4.234851469	 0.44297461	-0.333834
H	 2.4056786234	 2.8003036716	-1.9574854791	 0.084444
H	-0.1120819294	 5.0399411162	-0.2793712606	 0.137318
H	 0.1219293837	 4.0183407246	-1.6848903824	 0.135475
H	-3.198477774	 2.1937437144	 0.1792525786	 0.202888
H	 0.7953273506	 4.3182015271	 2.0477124172	 0.128405
H	 1.8576117141	 2.8313782556	 2.1012557414	 0.140017
H	 3.3559251249	 3.7989832483	 0.3336838962	 0.133061
H	 2.3202542361	 5.2977510573	 0.2329291128	 0.125283
49.4174	102.4038	130.9069	162.2783	209.9188	300.8529	312.1532	344.3211	378.6003	458.4336	530.34	609.6922	629.4929	653.2858	772.403	798.0058	897.704	906.9379	945.8781	984.2185	1007.2933	1023.1963	1051.0784	1062.53	1086.0615	1170.2472	1187.7774	1196.3023	1285.8032	1329.4902	1369.5446	1422.8168	1457.0719	1463.7556	1499.9529	1868.505	2245.1972	2965.3961	3019.8299	3058.5874	3138.7672	3147.4968	3223.8559	3240.5713	3506.086
O=COC1(CC#C)CC1	O=COC1(CC#C)CC1	
InChI=1S/C7H8O2/c1-2-3-7(4-5-7)9-6-8/h1,6H,3-5H2	InChI=1S/C7H8O2/c1-2-3-7(4-5-7)9-6-8/h1,6H,3-5H2
