21
gdb 115392	3.24305	1.10002	0.97302	2.2008	75.13	-0.2492	0.08	0.3291	1297.4472	0.183062	-461.366859	-461.357827	-461.356883	-461.400582	34.285	
C	 0.0820347241	 1.3688951317	-0.0407923888	-0.243345
O	 0.0981819335	-0.0494706894	-0.0195215136	-0.234499
C	 0.7113367745	-0.5955506436	 1.0927207131	 0.231896
C	 0.5011828313	-2.1053917233	 1.0866814069	-0.237024
C	 1.3168758051	-2.7709860764	 2.2074393503	-0.233922
C	 2.7786386155	-2.2914733474	 2.1787065794	 0.143728
O	 3.4691170817	-2.7782044438	 1.0358145998	-0.446746
C	 2.8029120954	-0.7616803067	 2.1872158445	-0.111586
O	 2.1061187663	-0.2795971315	 1.0434166277	-0.279042
H	 1.0948221638	 1.7817021239	-0.092306391	 0.130995
H	-0.4785171167	 1.6641183393	-0.9299717001	 0.128655
H	-0.4216278899	 1.7724379278	 0.8504297073	 0.105265
H	 0.3034400018	-0.1480998717	 2.0235595649	 0.047888
H	-0.5658402247	-2.3242811746	 1.1884381313	 0.106316
H	 0.8180195824	-2.4796106352	 0.1073782106	 0.115928
H	 0.882553161	-2.5239152611	 3.1854754007	 0.092556
H	 1.2879331342	-3.8594562664	 2.1057960697	 0.110228
H	 3.3169813676	-2.6763244118	 3.0522967525	 0.079368
H	 3.2367280711	-2.1890017	 0.307499337	 0.287504
H	 2.3555369226	-0.3654464487	 3.1133513376	 0.090117
H	 3.8275891893	-0.389645971	 2.1048259202	 0.115716
86.3153	114.1693	167.7283	188.5118	226.3377	292.0465	372.6265	398.5914	413.4413	430.3632	514.0715	528.6749	543.9842	731.8858	821.2562	855.1422	868.399	921.442	982.088	1003.1711	1043.3457	1060.4272	1068.9577	1108.2559	1138.5309	1167.8061	1180.2919	1201.9159	1224.6041	1246.8056	1257.049	1309.4512	1332.3847	1348.7745	1373.0506	1386.4012	1408.3188	1413.8493	1429.6054	1477.258	1480.4778	1483.7722	1489.4935	1496.2259	1512.3557	2881.5613	2978.127	2995.1053	3022.9617	3051.7852	3053.263	3076.925	3089.4168	3095.6034	3100.1884	3130.3411	3780.1489
COC1CCC(O)CO1	CO[C@H]1CC[C@@H](O)CO1	
InChI=1S/C6H12O3/c1-8-6-3-2-5(7)4-9-6/h5-7H,2-4H2,1H3	InChI=1S/C6H12O3/c1-8-6-3-2-5(7)4-9-6/h5-7H,2-4H2,1H3/t5-,6-/m1/s1
