19
gdb 32071	2.68638	1.22922	0.86655	1.3457	86.58	-0.2358	-0.0018	0.234	1338.8963	0.160286	-385.961033	-385.952158	-385.951214	-385.995819	32.69	
C	 0.172526647	 1.4647032376	-0.1087359918	-0.490732
C	 0.0789207472	-0.0405395481	-0.0403417465	 0.326185
C	 0.1991848274	-0.8195314823	-1.1922944881	-0.281476
C	 0.0923757511	-2.2120957717	-1.1480056287	 0.256115
C	 0.2015877853	-3.028228399	-2.4205494881	-0.151007
O	 1.076021241	-2.4680374206	-3.3876006885	-0.406972
C	-0.131503778	-2.8348182848	 0.0798737222	-0.218802
C	-0.2565296445	-2.0721471367	 1.2383710249	-0.086578
C	-0.1504515564	-0.6866726397	 1.1790995049	-0.200574
H	 0.6548258496	 1.7932423449	-1.033305496	 0.124429
H	-0.8221965252	 1.9259730957	-0.0763109116	 0.133922
H	 0.7409553314	 1.8696212278	 0.7346102413	 0.125877
H	 0.3872121103	-0.343880343	-2.149905705	 0.100299
H	 0.485684595	-4.0623816718	-2.1703691756	 0.09235
H	-0.7743379026	-3.0818207289	-2.9186784297	 0.125403
H	 1.9379000408	-2.3635741337	-2.9702904896	 0.28227
H	-0.2017281715	-3.9177298077	 0.1310394463	 0.087592
H	-0.4250814825	-2.5612495992	 2.1925424386	 0.093969
H	-0.2398217754	-0.0986308987	 2.0880324206	 0.087731
34.3548	55.8807	155.7569	209.8178	226.2489	331.492	358.5209	425.4614	448.3141	516.2672	536.3249	611.4675	715.7108	737.3168	800.1201	903.2377	916.9423	935.0194	963.5555	991.8399	1012.756	1022.5466	1063.3438	1064.6901	1122.7723	1172.658	1193.2452	1206.613	1267.2763	1309.254	1343.2891	1378.0109	1412.955	1416.403	1461.2492	1487.8347	1497.4211	1500.5221	1520.6419	1628.9222	1646.6202	2981.2412	3028.5611	3046.5831	3084.6112	3114.993	3159.5527	3167.1278	3178.6995	3187.4387	3806.0557
CC1=CC(CO)=CC=C1	Cc1cc(CO)ccc1	
InChI=1S/C8H10O/c1-7-3-2-4-8(5-7)6-9/h2-5,9H,6H2,1H3	InChI=1S/C8H10O/c1-7-3-2-4-8(5-7)6-9/h2-5,9H,6H2,1H3
