20
gdb 85299	2.43251	1.72589	1.25526	3.9675	79.01	-0.2351	0.0359	0.271	1065.2782	0.173949	-403.190202	-403.182446	-403.181502	-403.222207	31.232	
C	-0.1583809446	 1.5573445003	 0.0091269898	-0.398747
C	 0.0351277476	 0.0380792611	 0.0295128456	 0.043788
N	 0.7541910258	-0.4212237614	-1.159079101	-0.307337
C	 1.8776221974	-1.2087858146	-1.1349053782	 0.395926
O	 2.4339022811	-1.5981191796	-2.1428311818	-0.387996
C	 2.3408575817	-1.5252324791	 0.2804401445	-0.112841
C	 1.1065575508	-1.970257865	 1.1192740367	-0.243156
C	 0.7966956437	-0.455413646	 1.2686661489	-0.009879
C	 2.3243180191	-0.2090429857	 1.1111935685	-0.236458
H	 0.8020285778	 2.0797996582	 0.0441670819	 0.127367
H	-0.6793624597	 1.8716902711	-0.901402925	 0.115568
H	-0.7613400829	 1.8775591402	 0.8649338061	 0.118906
H	-0.9613306468	-0.4314456186	 0.0463885413	 0.082371
H	 0.3978863103	-0.1906945884	-2.0750240484	 0.241247
H	 3.2353416087	-2.1444424621	 0.2440488358	 0.084876
H	 0.3585398405	-2.6065201345	 0.6380075971	 0.104354
H	 1.4105691183	-2.4167824121	 2.0692386181	 0.103514
H	 0.2986252647	-0.1086242151	 2.1765416777	 0.067478
H	 2.8470582066	-0.3327738328	 2.0627758801	 0.104384
H	 2.6648868897	 0.708488374	 0.6257066724	 0.106635
101.5954	171.5818	236.3319	272.3066	350.7903	406.7427	437.4272	475.6657	506.6845	543.1694	638.0814	745.8062	754.4161	815.6431	832.4856	904.1423	919.2491	923.3015	968.374	980.2809	1031.7219	1041.2726	1067.7673	1096.5237	1112.1007	1126.9044	1148.3404	1180.1241	1249.0649	1260.3867	1266.6282	1299.9605	1324.4772	1340.3728	1358.3203	1401.9553	1411.2877	1458.0742	1481.5105	1495.2368	1497.9233	1514.4215	1802.8642	2969.5239	3035.2416	3054.9152	3062.7081	3086.2253	3102.3651	3111.854	3115.3717	3119.398	3134.1284	3611.8228
CC1NC(=O)C2CC1C2	C[C@H]1NC(=O)[C@@H]2C[C@H]1C2	
InChI=1S/C7H11NO/c1-4-5-2-6(3-5)7(9)8-4/h4-6H,2-3H2,1H3,(H,8,9)	InChI=1S/C7H11NO/c1-4-5-2-6(3-5)7(9)8-4/h4-6H,2-3H2,1H3,(H,8,9)/t4-,5-,6+/m1/s1
