22
gdb 6842	2.98514	1.53181	1.34166	0.9447	78.7	-0.2429	0.086	0.3288	1078.8931	0.19844	-350.195464	-350.186016	-350.185072	-350.229117	35.132	
C	 0.2231506381	 1.550855305	-0.2865744887	-0.237418
O	-0.3058370424	 0.2993506558	-0.6592871632	-0.242239
C	 0.6621170306	-0.593663722	-1.1414494637	 0.145624
C	 1.633725665	-1.2828186642	-0.1453203211	-0.268442
C	 1.4093781971	-2.603222563	-0.9320283605	-0.257794
C	 0.1200717995	-1.9899754873	-1.5707452916	 0.284841
C	-1.143049652	-2.3827242401	-0.7987191891	-0.422659
C	-0.0706309604	-2.1994787526	-3.0698311876	-0.454608
H	 0.9522110414	 1.4641988064	 0.5331794581	 0.107323
H	 0.719016969	 2.0507232951	-1.1341615391	 0.102202
H	-0.6109040111	 2.1716037011	 0.0500573043	 0.124829
H	 1.2248566931	-0.1274691536	-1.96771259	 0.053962
H	 2.6540364576	-0.8994147954	-0.0749181853	 0.092548
H	 1.1998653836	-1.3224886265	 0.8575975334	 0.108284
H	 2.1918106679	-2.7792005284	-1.6758508317	 0.095384
H	 1.2774194996	-3.5157670426	-0.3454085561	 0.096528
H	-1.0198370717	-2.2580755808	 0.2806325806	 0.112994
H	-1.9939160731	-1.7668324006	-1.103515419	 0.122479
H	-1.3898808125	-3.4327151575	-0.9925038092	 0.103555
H	-0.2920503621	-3.2489683743	-3.2965619909	 0.110531
H	-0.9036978389	-1.5958391294	-3.4481853908	 0.117431
H	 0.8286677916	-1.9203917349	-3.6296221687	 0.104644
82.9404	115.4058	175.2159	203.7248	208.6333	238.7549	272.5851	316.1694	349.0681	371.5988	474.6114	517.5574	594.456	743.6077	786.8265	872.5977	911.5068	943.6152	960.0684	968.0979	1006.609	1016.2739	1046.1844	1121.4864	1162.4959	1179.8269	1184.4703	1196.0992	1220.8767	1241.0699	1258.109	1265.6786	1290.3947	1323.9355	1391.629	1401.6169	1419.8787	1475.5608	1480.1387	1482.8874	1486.4264	1488.7145	1498.8857	1502.0283	1505.9488	1509.8619	2954.1564	2972.3603	3019.0686	3019.6967	3033.7484	3053.6597	3062.4934	3086.4445	3090.1694	3100.6502	3102.1296	3111.6028	3114.4027	3120.4825
COC1CCC1(C)C	CO[C@H]1CCC1(C)C	
InChI=1S/C7H14O/c1-7(2)5-4-6(7)8-3/h6H,4-5H2,1-3H3	InChI=1S/C7H14O/c1-7(2)5-4-6(7)8-3/h6H,4-5H2,1-3H3/t6-/m0/s1
