18
gdb 102935	3.35988	0.8411	0.70742	5.9074	73.84	-0.2873	-0.0019	0.2854	1576.1374	0.145583	-439.124837	-439.114763	-439.113819	-439.161177	34.207	
C	-0.164363639	 1.5984618051	 0.1032736269	-0.397705
C	-0.0441942082	 0.0762397095	 0.0095398506	-0.189975
C	-1.4049831519	-0.6407868037	-0.1449257484	-0.140919
C	-1.2221054279	-2.1585715551	-0.3338643272	-0.099652
O	-2.447154972	-2.7784109502	-0.7050416428	-0.183819
C	-3.0872075057	-3.5428317485	 0.2141012025	 0.17845
O	-4.1158114312	-4.0933223889	-0.0232501828	-0.26183
C	-2.2772472416	-0.3835082486	 1.0052527162	 0.284396
N	-2.9447962776	-0.2008956348	 1.931049487	-0.324532
H	 0.8242037828	 2.0556157945	 0.1987077008	 0.127225
H	-0.6410283059	 2.0136611303	-0.7909061502	 0.125214
H	-0.7592718029	 1.8964974481	 0.9714780807	 0.149226
H	 0.5705915313	-0.1984024257	-0.8553959469	 0.113022
H	 0.4653569401	-0.3156672806	 0.8974295022	 0.121294
H	-1.9139191636	-0.2578926713	-1.0382103011	 0.144815
H	-0.5160397557	-2.3344239573	-1.1498947812	 0.134411
H	-0.8171755395	-2.6116420857	 0.5795446057	 0.127836
H	-2.5451011414	-3.596663357	 1.1769570681	 0.092542
51.7645	55.714	96.799	147.0006	158.1573	192.6004	221.5722	273.9216	335.5127	374.9556	405.5628	550.7303	601.8935	672.7582	759.0613	835.2563	919.5475	1001.2344	1022.5072	1034.4566	1050.5541	1085.2089	1122.8527	1143.7198	1165.2873	1264.9078	1291.8115	1309.8082	1368.5095	1379.6687	1400.824	1420.0375	1430.0264	1485.8632	1499.1254	1501.9136	1507.6237	1877.5393	2356.1146	2964.6529	3031.3584	3034.4841	3041.8927	3047.6188	3074.9826	3101.1462	3112.968	3122.2374
CCC(COC=O)C#N	CC[C@@H](COC=O)C#N	
InChI=1S/C6H9NO2/c1-2-6(3-7)4-9-5-8/h5-6H,2,4H2,1H3	InChI=1S/C6H9NO2/c1-2-6(3-7)4-9-5-8/h5-6H,2,4H2,1H3/t6-/m1/s1
