21
gdb 91011	3.99045	1.28404	1.13298	1.3258	82.16	-0.2569	0.0796	0.3364	1131.1306	0.185759	-387.055893	-387.048613	-387.047669	-387.087226	30.557	
O	-0.096739021	 1.4899003565	 0.0578303713	-0.440675
C	 0.0029440678	 0.0727539322	 0.0302935528	 0.134185
C	 0.7374933623	-0.5045609376	 1.2459359328	-0.28487
C	 0.4598600841	-2.0017114143	 1.3826072303	 0.02331
C	-0.0523451955	-2.7993865394	 0.1302790179	-0.069401
C	-0.6465566585	-3.8326832888	 1.1215621288	-0.23743
C	-0.9989726542	-2.4431648367	 1.7143213741	-0.04411
C	-1.3955387718	-1.9982310758	 0.2719980002	 0.01786
C	-1.4081550554	-0.503642714	-0.045564051	-0.248399
H	 0.7958560723	 1.8494075075	 0.0855253035	 0.277104
H	 0.5459017283	-0.2472543244	-0.8747476879	 0.064528
H	 1.8157610677	-0.3194604861	 1.1555253342	 0.083119
H	 0.4000484837	 0.023000901	 2.1478765048	 0.102556
H	 1.2305472487	-2.5161015897	 1.9658698565	 0.058794
H	 0.4974141299	-3.0139357785	-0.7887308744	 0.064137
H	-1.4825201636	-4.435702635	 0.755920285	 0.086695
H	 0.0694930074	-4.4383753956	 1.6843321432	 0.085911
H	-1.5485157293	-2.2324199083	 2.6350502463	 0.0624
H	-2.2746687901	-2.5120558129	-0.1299083425	 0.060056
H	-2.046792171	 0.0286042686	 0.6712446355	 0.105249
H	-1.8295247718	-0.3174054287	-1.0390474013	 0.09898
126.9701	241.4703	283.8947	332.4561	357.4714	412.2528	424.7776	460.7167	597.2515	731.1149	768.5574	780.6363	801.7315	829.0504	875.9273	904.6151	915.7878	972.3524	1005.6813	1023.8423	1037.9638	1053.3316	1059.6838	1061.41	1104.0058	1117.4271	1127.1142	1153.132	1174.2289	1178.584	1218.6696	1223.0781	1245.0734	1258.3159	1267.1845	1290.6167	1310.7466	1330.4804	1362.619	1397.8446	1418.0626	1447.3729	1487.8289	1501.0875	1515.0212	2953.8118	3011.4451	3027.32	3043.2522	3047.0432	3051.7631	3054.0689	3073.2651	3079.5001	3088.6487	3108.7463	3812.6238
OC1CC2C3CC2C3C1	O[C@H]1C[C@@H]2[C@H]3C[C@@H]2[C@H]3C1	
InChI=1S/C8H12O/c9-4-1-5-7-3-8(5)6(7)2-4/h4-9H,1-3H2	InChI=1S/C8H12O/c9-4-1-5-7-3-8(5)6(7)2-4/h4-9H,1-3H2/t4-,5-,6+,7-,8+
