18
gdb 10685	2.83433	1.82622	1.33919	1.6644	73.67	-0.2606	0.0267	0.2873	982.4492	0.150813	-347.752626	-347.743748	-347.742804	-347.785664	33.202	
C	 0.4524729659	 1.5560864135	-0.15214998	-0.390833
C	 0.0183372951	 0.0937743414	 0.0442677413	-0.048918
C	 0.2570695584	-0.7243230528	-1.2299086591	-0.416139
C	 0.7255389117	-0.486256176	 1.2748288556	 0.195339
C	 1.2791701788	-1.8571309557	 1.3245132842	-0.222908
O	 2.138076523	-0.7389409346	 1.1230643189	-0.267296
C	 0.3523988846	 0.1245856705	 2.5338942558	 0.29671
C	 0.008585603	 0.6378385861	 3.5652612399	-0.402179
H	 1.5227476552	 1.6085385883	-0.3765014217	 0.130457
H	-0.0938309824	 2.0092724739	-0.9845758712	 0.110599
H	 0.2643297176	 2.1514446635	 0.7452514758	 0.128378
H	-1.0549308831	 0.081280717	 0.2744495366	 0.086606
H	 1.3285539742	-0.8398555613	-1.4205019995	 0.136178
H	-0.1956769837	-1.7184750929	-1.1723046922	 0.113313
H	-0.1842811882	-0.2117685962	-2.0895973338	 0.113836
H	 1.3707332465	-2.3486795073	 2.2914863217	 0.12173
H	 1.1619017278	-2.5193663992	 0.470469294	 0.118421
H	-0.2825899844	 1.0883677819	 4.4818439539	 0.196706
63.6992	146.8145	198.1772	229.7408	241.7509	274.0142	299.902	368.402	415.005	492.117	541.8513	585.9823	621.7091	655.5294	662.0827	832.6491	857.2949	920.4999	930.2895	958.7742	985.0662	1106.7011	1121.926	1135.143	1171.1219	1178.1458	1222.684	1338.558	1351.149	1368.5684	1396.0164	1418.1387	1489.5229	1494.4159	1503.3217	1514.0157	1527.0052	2235.5668	3024.9521	3038.4188	3042.1168	3095.1817	3108.3059	3110.7338	3116.8881	3119.9909	3187.3659	3501.8719
CC(C)C1(CO1)C#C	CC(C)[C@]1(CO1)C#C	
InChI=1S/C7H10O/c1-4-7(5-8-7)6(2)3/h1,6H,5H2,2-3H3	InChI=1S/C7H10O/c1-4-7(5-8-7)6(2)3/h1,6H,5H2,2-3H3/t7-/m1/s1
