15
gdb 64525	3.81757	1.44121	1.29733	3.2773	65.67	-0.246	-0.0405	0.2055	959.3478	0.111581	-457.695146	-457.688146	-457.687202	-457.726476	27.723	
O	-0.0063996859	 1.4178466908	-0.0673691882	-0.481679
C	-0.0433429902	 0.0397535588	-0.0431194727	 0.370939
C	 0.8055195294	-0.503281038	 1.0758941281	 0.106817
O	 1.4370442622	 0.2311599241	 1.8004892882	-0.283643
C	-1.3955940406	-0.6790780834	-0.109578245	-0.1937
C	-1.6935775913	-0.8046700765	-1.6118355393	 0.073268
O	-0.655377237	-0.1453411741	-2.3279945689	-0.263023
C	 0.2617836113	-0.7440806703	-1.3924890997	-0.016072
C	-0.8077695298	-1.8088110416	-0.9634638966	-0.154256
H	 0.6097198691	 1.6790844675	 0.6373281921	 0.291439
H	 0.8272821485	-1.603607366	 1.1954805481	 0.10105
H	-2.1607410751	-0.736154578	 0.6538060556	 0.106744
H	-2.6868636458	-0.8550933719	-2.0352522618	 0.126192
H	 1.269307129	-0.8777811895	-1.7787467936	 0.102647
H	-0.8169535239	-2.8837360719	-0.8633344163	 0.113277
114.4816	187.9627	266.6653	319.1823	377.3888	439.176	517.8365	571.1364	621.481	764.3176	776.9357	787.6599	818.2478	847.4331	868.3211	899.4287	948.8753	974.9347	1015.3084	1021.4342	1029.9848	1061.3186	1089.3198	1113.907	1139.6193	1184.9885	1220.2591	1256.2868	1322.95	1362.5255	1381.7849	1442.3383	1797.8871	2951.2896	3156.0399	3204.8428	3220.2896	3235.0754	3669.6577
OC1(C=O)C2C3OC1C23	O[C@@]1(C=O)[C@H]2[C@H]3O[C@@H]1[C@@H]23	
InChI=1S/C6H6O3/c7-1-6(8)3-2-4(3)9-5(2)6/h1-5,8H	InChI=1S/C6H6O3/c7-1-6(8)3-2-4(3)9-5(2)6/h1-5,8H/t2-,3+,4-,5+,6-/m0/s1
