20
gdb 12506	3.17565	1.83393	1.28022	0.3402	82.02	-0.2252	0.0277	0.2529	1012.1788	0.178369	-311.885822	-311.877837	-311.876893	-311.91818	30.691	
C	 0.6290607447	 1.4320054339	 0.1153220656	-0.477299
C	-0.0216096095	 0.0900027033	-0.0888292049	 0.333015
C	-0.0804567025	-0.4920590668	-1.2874056114	-0.143331
C	-0.7087856834	-1.8324833881	-1.5930759523	-0.311148
C	-0.3586087658	-2.9997072873	-0.6953798297	-0.044781
C	 0.0155922111	-3.0117038149	 0.5843335409	-0.039247
C	 0.1497270464	-1.8600230092	 1.5468199284	-0.234402
C	-0.5957426404	-0.5766506259	 1.1442664736	-0.303315
H	 1.449050764	 1.3674091242	 0.8431984782	 0.120262
H	 1.034071986	 1.8357650893	-0.8164952527	 0.116938
H	-0.0854662726	 2.1598901888	 0.5221493006	 0.120372
H	 0.343349409	 0.0338284553	-2.140619813	 0.074582
H	-1.8075914005	-1.7292225777	-1.6278468356	 0.119399
H	-0.4349309501	-2.1144165992	-2.6162576108	 0.105382
H	-0.4332810388	-3.9656215502	-1.1927733735	 0.080962
H	 0.2442939643	-3.9839965363	 1.0189947003	 0.078113
H	-0.221705152	-2.1927950917	 2.5256801928	 0.097094
H	 1.2142897407	-1.6317776552	 1.7052915169	 0.107364
H	-0.5741323347	 0.1235474249	 1.9863961488	 0.091187
H	-1.6516963361	-0.8274652874	 0.9776064278	 0.108853
55.5564	174.7007	196.5683	242.2995	320.9267	354.5754	367.6482	418.3054	525.6356	626.4237	655.5142	742.196	783.1142	821.7269	862.0431	885.1416	958.3459	973.0493	997.2848	1013.3015	1019.3153	1063.2954	1081.6763	1103.151	1165.5183	1208.5942	1223.4599	1269.0532	1284.9326	1339.7651	1366.8559	1377.2784	1402.5071	1412.5807	1430.5281	1467.5701	1475.016	1479.7733	1487.2624	1495.7759	1736.2734	1748.0326	2955.3375	2996.4183	3008.5311	3014.1551	3029.9159	3046.3242	3052.5879	3066.8682	3108.9135	3118.2718	3140.6871	3144.5413
CC1=CCC=CCC1	CC1=CCC=CCC1	
InChI=1S/C8H12/c1-8-6-4-2-3-5-7-8/h2-3,6H,4-5,7H2,1H3	InChI=1S/C8H12/c1-8-6-4-2-3-5-7-8/h2-3,6H,4-5,7H2,1H3
