15
gdb 28147	5.1045	1.26916	1.02284	1.6964	74.76	-0.1765	0.	0.1765	1092.0875	0.115334	-416.853375	-416.84641	-416.845466	-416.88444	27.749	
O	 0.078438002	 1.2941397325	 0.1392560657	-0.426047
C	 0.0682612211	-0.044509709	 0.017790792	 0.411294
N	 0.0892481875	-0.728671867	-1.102241642	-0.450708
C	 0.0656627651	-2.03751475	-0.6683540631	 0.262065
C	 0.0309510534	-2.1234895446	 0.6946488373	 0.30437
N	 0.032506638	-0.8134973265	 1.1499760256	-0.446332
C	 0.0066336618	-3.5057023702	 1.1315453173	-0.1997
C	 0.0269191218	-4.274740092	 0.017975541	-0.091256
C	 0.0665725862	-3.4201731673	-1.2450403672	-0.406427
H	 0.1040758681	 1.6428825214	-0.7606920402	 0.31484
H	 0.0126812817	-0.4626718095	 2.0917147852	 0.270754
H	-0.0222337383	-3.8595855733	 2.1535950962	 0.096945
H	 0.0169684425	-5.3557581742	-0.0046972153	 0.09657
H	-0.7982424896	-3.6214902862	-1.8906976527	 0.131815
H	 0.9583760586	-3.638480384	-1.8469900799	 0.131816
137.3853	264.6943	290.9441	316.3204	399.5954	426.8687	449.5756	525.5874	568.526	653.188	711.4995	717.8005	732.6598	789.6488	889.6174	914.7577	924.9262	926.0558	1027.3452	1084.1574	1122.0365	1163.5214	1170.7906	1219.0321	1255.3263	1333.2384	1386.421	1431.5371	1492.5423	1510.5571	1547.9681	1604.5624	1611.5421	3031.2157	3059.5396	3212.3393	3236.7664	3679.9008	3805.9155
OC1=NC2=C(N1)C=CC2	Oc1nc2c([nH]1)C=CC2	
InChI=1S/C6H6N2O/c9-6-7-4-2-1-3-5(4)8-6/h1-2H,3H2,(H2,7,8,9)	InChI=1S/C6H6N2O/c9-6-7-4-2-1-3-5(4)8-6/h1-2H,3H2,(H2,7,8,9)
