21
gdb 112738	2.26906	1.33578	1.02782	2.7084	78.6	-0.2432	0.0658	0.309	1257.2019	0.181434	-424.194024	-424.184658	-424.183714	-424.228337	35.278	
C	 0.4284375645	 1.3710047533	-0.2595384998	-0.403697
C	 0.1141565482	-0.0730179232	 0.0776735382	 0.096656
O	 0.8783909274	-1.0150266868	-0.7273814214	-0.337237
C	 1.440321645	-1.6598985477	 0.4491020153	 0.046911
C	 2.9586799642	-1.6010885181	 0.3851440169	-0.067359
O	 3.4197183655	-2.2052665289	-0.8072834277	-0.422188
C	 0.6941862464	-0.685801839	 1.3554792191	 0.269865
C	 1.182614236	 0.0072639754	 2.593383957	-0.327513
C	 0.0119175226	-0.9479663796	 2.6593460544	-0.330773
H	 1.4899211436	 1.5880810302	-0.1106538246	 0.122412
H	 0.1738734605	 1.576814265	-1.3040344158	 0.128077
H	-0.1590154634	 2.0489385199	 0.3698376274	 0.115736
H	-0.9611637532	-0.2652082114	-0.0464316913	 0.078466
H	 1.1078169389	-2.7052972449	 0.5081625783	 0.081269
H	 3.2870342123	-0.5522785042	 0.4626074867	 0.08343
H	 3.4016617675	-2.1554435871	 1.2207094882	 0.102443
H	 2.9104752178	-1.796534076	-1.5185898661	 0.292974
H	 2.1276663787	-0.3091247069	 3.0227778782	 0.120126
H	 0.9841841338	 1.0692833502	 2.6967753992	 0.1175
H	-0.9799357801	-0.5318563346	 2.8075763582	 0.115381
H	 0.1636447538	-1.9140706557	 3.1306844496	 0.117522
61.5847	109.7614	150.2528	197.5437	214.8689	233.0237	284.2506	370.1902	443.3016	469.1806	475.0891	524.0558	586.1059	765.5085	787.114	842.063	879.5857	910.7338	918.4726	959.933	987.8376	1037.5671	1052.8391	1075.9816	1078.7764	1083.8301	1105.8181	1112.3398	1143.1826	1188.0546	1215.8541	1237.2077	1280.4228	1291.4919	1337.9795	1376.4697	1389.3238	1404.0752	1419.0785	1438.4494	1465.2617	1485.6219	1488.8489	1500.299	1509.4129	2976.0661	2997.6667	3013.8259	3034.3177	3064.004	3103.366	3119.315	3121.407	3128.0355	3199.6018	3214.899	3778.962
CC1OC(CO)C11CC1	C[C@H]1O[C@@H](CO)C21CC2	
InChI=1S/C7H12O2/c1-5-7(2-3-7)6(4-8)9-5/h5-6,8H,2-4H2,1H3	InChI=1S/C7H12O2/c1-5-7(2-3-7)6(4-8)9-5/h5-6,8H,2-4H2,1H3/t5-,6+/m1/s1
