14
gdb 18198	4.46408	1.77453	1.46042	2.378	63.06	-0.2575	0.0322	0.2896	843.1994	0.106493	-382.475902	-382.469094	-382.46815	-382.506989	25.599	
C	 0.0888728989	-1.2242529382	 0.0734959515	-0.427667
C	 0.0491177279	-0.0243895428	 0.0796310093	 0.317693
C	 0.0139048124	 1.4322711837	 0.033492499	-0.067119
O	-0.6273420393	 1.9438561383	 1.2066163329	-0.26458
C	-0.0677335213	 3.2072770202	 1.5518370385	-0.105482
C	 1.3202120612	 3.2186275987	 0.9513317415	 0.024177
O	 2.0645266903	 2.03292855	 1.2542232699	-0.236421
C	 1.3834332394	 2.1052525653	 0.0056426953	 0.006531
H	 0.1258297045	-2.285640686	 0.0839447568	 0.201316
H	-0.5317743251	 1.7509645162	-0.872081864	 0.101555
H	-0.6557646676	 4.0409279699	 1.1348698854	 0.09921
H	-0.0740664504	 3.2843180506	 2.6436287873	 0.126918
H	 1.8868810339	 4.1392610302	 0.8457598421	 0.108759
H	 1.9893334351	 2.0835146239	-0.8951244354	 0.115111
98.4361	148.7233	241.5164	322.4273	391.9519	513.0238	520.0747	623.3497	671.7142	695.3208	787.1967	843.6973	870.8199	886.4916	945.3917	964.8717	1018.4174	1060.1581	1070.4873	1100.8989	1118.7053	1226.5395	1257.5564	1297.9477	1308.4084	1354.3905	1371.1554	1443.5596	1503.9945	2247.3789	2948.5241	2980.0234	3079.3235	3157.8359	3171.1746	3503.6777
C#CC1OCC2OC12	C#C[C@H]1OC[C@H]2O[C@@H]12	
InChI=1S/C6H6O2/c1-2-4-6-5(8-6)3-7-4/h1,4-6H,3H2	InChI=1S/C6H6O2/c1-2-4-6-5(8-6)3-7-4/h1,4-6H,3H2/t4-,5-,6+/m1/s1
