18
gdb 106486	2.68564	1.66472	1.2747	3.2466	72.56	-0.2567	0.0194	0.2761	1016.9025	0.149782	-439.07709	-439.069651	-439.068707	-439.108878	29.796	
O	 0.0719694626	 1.3990690223	-0.0261452948	-0.423755
C	 0.059477416	-0.0119990772	-0.0152603646	-0.179955
C	-1.3499478412	-0.5624192009	-0.0332908982	 0.18668
C	-2.3402228229	-0.5105092765	-1.2593993514	-0.265802
C	-3.0969466497	-1.5228495744	-0.3743423026	 0.086367
C	-1.7274378148	-2.0877977454	 0.057442023	-0.286535
O	-3.4700775308	-0.7013936442	 0.784128902	-0.260487
C	-2.297639645	-0.0346429195	 1.0210272642	 0.460735
N	-2.0668081684	 0.8388755838	 1.9031351815	-0.614281
H	-0.426908895	 1.6712724766	 0.7597666856	 0.300954
H	 0.6061512561	-0.3458914534	-0.904215403	 0.103345
H	 0.5846093032	-0.4204286792	 0.8645138674	 0.094296
H	-2.8368171993	 0.4346717896	-1.484077985	 0.124204
H	-1.9075967946	-0.9547503802	-2.1576639063	 0.113363
H	-3.9548426662	-2.1155895417	-0.6808691869	 0.098284
H	-1.2404938239	-2.6833500093	-0.7170714343	 0.114988
H	-1.6700210706	-2.5803652947	 1.0304177104	 0.118066
H	-2.8882783154	 1.0241345343	 2.479575743	 0.229531
114.8235	167.8737	207.6309	273.8527	411.1258	453.4934	470.1937	509.6015	585.8949	626.7455	696.9989	714.1557	794.173	859.7272	872.4139	885.6383	906.3379	932.0112	977.2846	992.3106	1019.3436	1029.0294	1058.0488	1088.7213	1114.9864	1171.255	1177.6258	1226.353	1231.4457	1239.7132	1279.8624	1317.0332	1387.0411	1394.5217	1467.0557	1476.1997	1498.1948	1514.4421	1792.63	2966.1486	3062.6049	3072.3461	3080.5989	3140.1122	3148.3055	3161.164	3482.9615	3696.5792
OCC12CC(C1)OC2=N	OC[C@@]12C[C@@H](C1)O[C]2[NH]	
InChI=1S/C6H9NO2/c7-5-6(3-8)1-4(2-6)9-5/h4,7-8H,1-3H2	InChI=1S/C6H9NO2/c7-5-6(3-8)1-4(2-6)9-5/h4,7-8H,1-3H2/t4-,6+
