17
gdb 90015	3.0976	1.33431	1.1006	4.2106	68.17	-0.2545	-0.0091	0.2455	1125.3157	0.135354	-458.972522	-458.964336	-458.963392	-459.005982	30.096	
C	 0.6229640815	 1.4640617815	 0.119122956	-0.399942
C	-0.1009464973	 0.1513816572	-0.0956971713	 0.143797
C	 0.3525866731	-0.7148420631	-1.2947270424	-0.371321
C	 0.9130236239	-1.6545725823	-0.2139774203	 0.238589
C	 0.7685600752	-3.1860304784	-0.1922260754	-0.141744
O	 2.2264909552	-3.3306846969	-0.2314693262	-0.245882
C	 2.4244764094	-1.9724328614	-0.1718740785	 0.416357
O	 3.451170152	-1.3768462307	-0.1262605922	-0.327995
O	 0.3536221595	-0.8800453567	 0.8351590138	-0.311896
H	 1.704889216	 1.322801436	 0.0351694935	 0.14443
H	 0.3026156448	 2.2013054211	-0.6252072071	 0.119413
H	 0.4017480994	 1.862424474	 1.113811277	 0.132537
H	-1.1855669289	 0.2797858965	-0.0071531235	 0.085738
H	-0.4564330877	-1.1468577379	-1.8857230954	 0.12086
H	 1.0941222892	-0.2629653599	-1.9553235132	 0.133917
H	 0.3586477786	-3.5831754399	 0.7385074784	 0.138284
H	 0.3062199261	-3.6552275093	-1.063267723	 0.124856
44.1604	120.1211	177.9737	250.2039	260.3959	291.4223	380.0199	396.059	519.8878	601.442	723.4776	769.4649	800.5041	854.1531	883.259	918.7458	928.7154	943.4908	966.6312	1069.4324	1094.5718	1101.4913	1144.2982	1169.2172	1173.7506	1217.8823	1230.3879	1275.3717	1312.9364	1347.6415	1385.3474	1413.1462	1480.9486	1488.4027	1498.4604	1503.4625	1936.8976	3035.0863	3041.2361	3070.8392	3083.1284	3109.5356	3120.1764	3137.6376	3142.1656
CC1CC2(COC2=O)O1	C[C@H]1C[C@]2(COC2=O)O1	
InChI=1S/C6H8O3/c1-4-2-6(9-4)3-8-5(6)7/h4H,2-3H2,1H3	InChI=1S/C6H8O3/c1-4-2-6(9-4)3-8-5(6)7/h4H,2-3H2,1H3/t4-,6+/m0/s1
