14
gdb 28408	3.20877	1.43209	0.99017	3.3143	71.19	-0.1904	-0.0275	0.1629	1094.7945	0.102934	-470.048723	-470.041202	-470.040258	-470.080509	29.395	
O	-0.112723342	 1.3330375224	 0.0791299913	-0.421163
C	 0.0761216261	-0.0017193236	-0.0335271111	 0.449202
C	 1.2335536954	-0.6912261423	 0.1289129593	-0.227898
N	 1.2543099011	-2.063801553	-0.0230451659	-0.335231
C	 0.1685956415	-2.6823657872	-0.3195379423	 0.34996
O	 0.1570057141	-4.0252464065	-0.4748741561	-0.416063
C	-1.1466247729	-2.0496453209	-0.5213575857	 0.308772
N	-2.2652473273	-2.594888823	-0.8164323887	-0.557096
N	-1.0714042526	-0.6701487645	-0.3485275774	-0.374969
H	 0.7272369074	 1.7485400579	 0.3016043161	 0.314961
H	 2.1651903611	-0.2002899014	 0.3787484237	 0.100108
H	 1.0637505355	-4.3237382351	-0.3200986	 0.301477
H	-2.1389457414	-3.6006780862	-0.9046875101	 0.2344
H	-1.9297451659	-0.1504165567	-0.4680766732	 0.273539
121.4733	171.7926	325.4176	328.6619	350.6826	402.922	428.2897	488.3091	530.3796	535.1173	599.8785	614.9706	663.6654	714.8696	753.3503	772.5994	795.141	827.3117	1042.1963	1104.0133	1155.2368	1204.1634	1270.8541	1293.2565	1352.8151	1377.7143	1443.2034	1551.314	1631.1354	1671.8666	1707.8471	3203.4715	3526.6652	3614.9927	3775.6079	3831.5928
OC1=CN=C(O)C(=N)N1	Oc1cnc(O)c([NH])[nH]1	
InChI=1S/C4H5N3O2/c5-3-4(9)6-1-2(8)7-3/h1H,(H,6,9)(H3,5,7,8)	InChI=1S/C4H10N3O2/c5-3-4(9)6-1-2(8)7-3/h2-9H,1H2
