15
gdb 80286	2.55378	1.67315	1.36219	5.4368	60.95	-0.2731	0.0389	0.312	973.7349	0.111461	-494.923335	-494.915399	-494.914455	-494.955722	29.455	
C	-0.096544758	 1.4689356594	-0.0522356044	-0.474371
C	 0.0229083935	-0.0166498715	 0.0990088425	 0.315648
O	-1.1797879597	-0.7252707067	-0.143100181	-0.279429
C	-1.2701764273	-1.8057681175	 0.6922419784	 0.496833
O	-2.1591794753	-2.591078581	 0.6876390121	-0.363569
O	-0.1952040299	-1.8388148322	 1.5281276832	-0.233045
C	 0.6906721064	-0.7984244292	 1.2007351179	-0.017946
C	 1.2663470626	-0.8389566752	-0.2026376156	 0.00335
O	 1.1775651297	-2.0331596134	-0.8978011928	-0.406169
H	 0.860316063	 1.9476908992	 0.1730739824	 0.131856
H	-0.3782161384	 1.734780611	-1.0759052397	 0.141983
H	-0.8532138728	 1.8688377855	 0.6294070606	 0.14323
H	 1.2197128272	-0.3936826157	 2.0536229082	 0.130412
H	 2.1824287272	-0.2635839845	-0.3415219125	 0.106984
H	 0.7450149018	-1.8700214383	-1.7434733193	 0.304234
118.9227	172.3462	198.6216	217.0727	264.6742	270.1637	314.3762	509.8013	558.4185	622.0673	656.6509	735.5438	769.4634	786.562	840.3132	879.5755	944.4326	996.081	1018.9235	1071.3784	1103.4154	1131.5419	1147.9444	1185.9045	1251.3698	1297.6778	1322.0964	1353.3168	1418.2698	1467.2312	1478.3175	1500.8228	1938.2105	3042.0384	3100.2413	3112.0434	3123.09	3203.8356	3802.8666
CC12OC(=O)OC1C2O	C[C@]12OC(=O)O[C@H]1[C@H]2O	
InChI=1S/C5H6O4/c1-5-2(6)3(5)8-4(7)9-5/h2-3,6H,1H3	InChI=1S/C5H6O4/c1-5-2(6)3(5)8-4(7)9-5/h2-3,6H,1H3/t2-,3+,5-/m1/s1
