19
gdb 76370	1.94066	1.44113	1.39653	2.9326	72.14	-0.2308	-0.0098	0.221	1113.894	0.155517	-460.15314	-460.143042	-460.142097	-460.187975	37.057	
C	 0.174989326	 1.1788070691	-0.6922760313	-0.48457
C	 0.0448512861	-0.0244457411	 0.2164259142	 0.334209
O	 0.8854012762	-0.32798473	 1.0290958385	-0.307456
C	-1.2595803224	-0.8072343761	 0.1134878759	 0.137012
C	-2.2969446378	-0.3318234134	 1.1201396957	-0.463141
C	-1.7565052454	-1.334914292	-1.2239897072	 0.037638
O	-0.9851055913	-1.1938293464	-2.3781259271	-0.427631
C	-1.2206893993	-2.2866185793	-0.1700683852	-0.004793
O	 0.0367160744	-2.8380415863	-0.4705779393	-0.416096
H	 1.114003016	 1.6978413403	-0.4959591529	 0.132516
H	 0.1159966217	 0.8520650121	-1.7349616052	 0.16228
H	-0.6675293499	 1.8621348215	-0.5311764156	 0.132857
H	-2.5473123838	 0.7233677979	 0.9648253911	 0.125781
H	-3.2244139154	-0.9063757875	 1.0273974909	 0.118236
H	-1.9227359739	-0.4504877778	 2.1419048664	 0.142435
H	-2.8210535499	-1.286170328	-1.4369395007	 0.099954
H	-0.2068893722	-1.7569135713	-2.2443789113	 0.286551
H	-1.887507024	-2.9391478516	 0.3900713314	 0.09479
H	-0.1077720751	-3.7229233301	-0.8240146783	 0.299429
45.6943	133.5207	181.0913	192.7033	212.8444	241.0094	250.7619	268.8937	303.5262	316.5433	435.0801	473.4827	540.8689	598.9249	615.974	646.0459	681.3497	822.1574	851.4917	943.8564	981.2665	1023.7274	1039.4006	1078.249	1118.7278	1132.7093	1143.7009	1167.5627	1217.842	1252.2919	1318.2101	1332.6948	1382.1824	1407.25	1414.9283	1461.398	1470.2689	1475.4685	1491.6114	1500.2516	1807.2876	3028.1209	3036.3767	3094.5771	3103.3373	3105.5105	3119.1754	3144.898	3154.1105	3701.3473	3803.8018
CC(=O)C1(C)C(O)C1O	CC(=O)[C@@]1(C)[C@@H](O)[C@H]1O	
InChI=1S/C6H10O3/c1-3(7)6(2)4(8)5(6)9/h4-5,8-9H,1-2H3	InChI=1S/C6H10O3/c1-3(7)6(2)4(8)5(6)9/h4-5,8-9H,1-2H3/t4-,5+,6-
