12
gdb 132711	5.50542	1.0193	0.86006	1.9942	66.58	-0.2651	-0.0908	0.1743	1186.7883	0.077784	-476.822687	-476.815807	-476.814863	-476.854559	24.82	
F	-0.0221000407	 0.0470852498	 0.0037553042	-0.048592
C	-0.032641719	 1.3677815369	 0.010800575	 0.329018
N	-1.2006404358	 1.959482869	 0.0293153101	-0.289042
C	-1.1617037756	 3.297793778	 0.0357842276	-0.045736
C	 0.0361504702	 4.0083291191	 0.0236695593	 0.206449
C	 0.0137635364	 5.4983786832	 0.031742607	 0.106545
O	 0.9890175707	 6.202713972	 0.0224958771	-0.240667
N	 1.2228871766	 3.3723864363	 0.0046792006	-0.252841
C	 1.1938330887	 2.0536703446	-0.0018169276	-0.130915
H	-2.1187869214	 3.8132276504	 0.0511214588	 0.139153
H	-1.0145660663	 5.9247455323	 0.04749576	 0.080629
H	 2.1324069462	 1.5072507785	-0.0170644021	 0.145999
84.1888	171.7489	198.4834	345.4499	409.0876	431.2808	442.1005	554.0173	641.6009	652.5954	796.4514	816.3652	898.0352	932.3302	967.0152	1035.6624	1037.0004	1231.8753	1268.7765	1301.7067	1333.7388	1381.8226	1445.9023	1510.0459	1595.7283	1610.5905	1823.9577	2880.6527	3166.4194	3178.3943
FC1=NC=C(C=O)N=C1	Fc1ncc(C=O)nc1	
InChI=1S/C5H3FN2O/c6-5-2-7-4(3-9)1-8-5/h1-3H	InChI=1S/C5H3FN2O/c6-5-2-7-4(3-9)1-8-5/h1-3H
