22
gdb 110507	2.58336	1.40818	1.14573	1.9351	85.11	-0.2304	0.082	0.3124	1200.122	0.194279	-367.154888	-367.14615	-367.145205	-367.188138	34.135	
C	 0.0663775572	 1.5317841834	 0.1230776294	-0.379692
C	-0.0807283147	 0.0092546863	 0.0113385381	-0.218016
C	 0.6588722556	-0.5588284732	-1.1975822345	 0.000105
C	 2.185466853	-0.6555482187	-1.2394495097	-0.05334
C	 2.1463297802	-1.881841303	-2.0646619395	-0.107705
N	 2.645138613	-1.973825689	-0.6643725084	-0.15231
C	 1.3831080284	-2.6888432569	-0.2857874429	-0.186594
C	 0.6726212407	-2.0932549914	-1.5164040434	 0.260267
C	-0.4935856716	-2.7622393142	-2.1941663618	-0.51495
H	 1.1176170181	 1.8208903244	 0.2281122587	 0.120286
H	-0.3276116228	 2.0347667379	-0.7671715975	 0.113271
H	-0.4729030084	 1.9210657016	 0.9919411071	 0.112853
H	 0.2827771443	-0.4549301804	 0.9342432247	 0.102194
H	-1.1456154076	-0.2487017346	-0.0671627857	 0.093837
H	 0.332117363	-0.0319974524	-2.1039920983	 0.06923
H	 2.9220389576	 0.1375835392	-1.2356442876	 0.092626
H	 2.6946379876	-2.2127517029	-2.9373270185	 0.092387
H	 1.5616832225	-3.7636833772	-0.3868686237	 0.101945
H	 0.9933932858	-2.477469773	 0.7164453382	 0.093341
H	-1.3815191707	-2.7458025659	-1.5509209064	 0.122225
H	-0.754939296	-2.2595517842	-3.1317159526	 0.118901
H	-0.2729177655	-3.8102259259	-2.4254022957	 0.119138
71.6434	157.1407	182.9883	213.3345	241.1095	264.6076	301.0165	377.5984	508.5181	554.6354	612.1146	685.5489	760.4924	783.0445	810.3244	824.3629	857.4372	902.4846	935.6608	959.0963	970.3849	986.6495	1014.2535	1017.8448	1068.4649	1097.477	1128.0158	1148.7316	1153.6618	1174.6697	1182.2769	1212.1812	1248.7275	1267.2574	1288.441	1326.5789	1344.1253	1354.9063	1406.9716	1414.5894	1417.064	1484.4161	1489.8307	1494.0627	1500.6807	1506.3509	1516.3315	3017.1511	3018.8317	3022.7327	3031.1216	3035.4228	3067.595	3085.8445	3089.9547	3092.3935	3099.5324	3104.2573	3190.5977	3205.1014
CCC1C2C3N2CC13C	CC[C@H]1[C@@H]2[C@H]3N2C[C@@]13C	
InChI=1S/C8H13N/c1-3-5-6-7-8(5,2)4-9(6)7/h5-7H,3-4H2,1-2H3	InChI=1S/C8H13N/c1-3-5-6-7-8(5,2)4-9(6)7/h5-7H,3-4H2,1-2H3/t5-,6+,7+,8-,9?/m0/s1
