16
gdb 55981	3.43639	0.96399	0.88135	2.4485	68.09	-0.2728	0.0003	0.2731	1343.1256	0.122582	-475.049697	-475.04071	-475.039766	-475.085883	30.802	
C	 0.0464043745	 1.4636493193	-0.0278251071	-0.483043
C	-0.2048861831	-0.0173402888	 0.0803876376	 0.438127
O	-0.7550296314	-0.5796377979	 0.9884175971	-0.337331
O	 0.2937601518	-0.6554358287	-1.0185295483	-0.248081
C	 0.1987060468	-2.0668597	-1.0440324571	-0.017613
C	-0.5207098968	-2.675456576	-2.264745629	-0.105484
O	 0.7072370543	-3.3795275867	-2.6316989697	-0.253675
C	 1.4198948829	-2.768864785	-1.6178666969	 0.423771
N	 2.6333636976	-2.804761659	-1.3188046366	-0.534651
H	 1.1239426602	 1.6523254585	-0.0164838543	 0.163588
H	-0.3404176363	 1.8452684503	-0.976284766	 0.152277
H	-0.4282394249	 1.9746911836	 0.8085290997	 0.152851
H	-0.1336192921	-2.4374589627	-0.0741425745	 0.151867
H	-1.3347770551	-3.3745265523	-2.0640596803	 0.130945
H	-0.8030398808	-1.9472669762	-3.0283902725	 0.131724
H	 3.1654458224	-3.3916874483	-1.9634632321	 0.234727
16.4959	65.881	92.1245	116.8571	197.2658	256.6461	350.9584	398.9783	491.6169	599.0842	621.0698	653.8338	738.8351	855.4738	875.6318	912.9411	952.3008	975.7577	1008.2693	1017.7137	1064.6052	1096.3401	1139.9472	1163.3858	1222.9622	1243.5527	1253.1976	1340.2938	1385.2258	1402.7861	1467.8973	1474.4011	1508.2766	1834.6069	1840.8677	3059.5688	3070.8615	3122.803	3125.5808	3138.6114	3172.9331	3480.7632
CC(=O)OC1COC1=N	CC(=O)O[C@H]1CO[C]1[NH]	
InChI=1S/C5H7NO3/c1-3(7)9-4-2-8-5(4)6/h4,6H,2H2,1H3	InChI=1S/C5H7NO3/c1-3(7)9-4-2-8-5(4)6/h4,6H,2H2,1H3/t4-/m0/s1
