17
gdb 45624	5.11428	0.97121	0.87664	3.4195	75.46	-0.2419	-0.0116	0.2303	1310.7547	0.137471	-418.052588	-418.04465	-418.043706	-418.086123	29.68	
O	 0.0313232267	-0.009614361	 0.1373165788	-0.359388
C	-0.0219232145	 1.1926119047	 0.0670194648	 0.397534
C	-1.2262144631	 2.1384911204	-0.0337289678	-0.298931
N	-0.6897731675	 3.4963632372	-0.0883942261	-0.315805
C	 0.5872580547	 3.3875912581	-0.0321737667	 0.410838
N	 1.0547612267	 2.0743374363	 0.059019896	-0.388104
C	 1.5427625754	 4.5108119805	-0.0571568907	-0.121733
C	 1.1982081377	 5.7354136201	-0.8878336657	-0.247849
C	 1.1392040413	 5.8187952154	 0.6021421786	-0.247874
H	-1.8181404897	 1.9050715082	-0.9263305593	 0.146623
H	-1.8882849681	 2.003222549	 0.8293482062	 0.146616
H	 2.0168816462	 1.7822693695	 0.1158496145	 0.264491
H	 2.5884639082	 4.2290149683	-0.0000414666	 0.086392
H	 2.0123847539	 6.2260864939	-1.408833165	 0.119123
H	 0.2584771656	 5.6871386217	-1.4248529761	 0.144471
H	 0.1598394077	 5.8265350596	 1.0653912219	 0.144482
H	 1.911912659	 6.3680800582	 1.1277828431	 0.119114
29.2498	130.3669	178.5917	199.5165	340.585	342.7573	485.5158	499.7127	560.0636	646.3131	690.6017	732.2328	796.9966	825.8152	885.3889	896.8132	913.3743	978.927	981.9419	1032.2351	1070.48	1096.3894	1121.1082	1132.0078	1155.9836	1178.4043	1209.7962	1218.7824	1235.3062	1287.4271	1372.8283	1442.5937	1457.3942	1465.0208	1497.1924	1689.8113	1855.3288	3045.0523	3077.0553	3142.7283	3144.7196	3167.8937	3232.0025	3246.0852	3654.2375
O=C1CN=C(N1)C1CC1	O=C1CN=C(N1)C1CC1	
InChI=1S/C6H8N2O/c9-5-3-7-6(8-5)4-1-2-4/h4H,1-3H2,(H,7,8,9)	InChI=1S/C6H8N2O/c9-5-3-7-6(8-5)4-1-2-4/h4H,1-3H2,(H,7,8,9)
