23
gdb 114446	4.27388	1.09797	1.02106	0.1375	89.56	-0.2834	0.0935	0.3769	1290.6122	0.208368	-351.128904	-351.120991	-351.120047	-351.161294	32.169	
C	-0.0053295622	 1.6086535555	-0.0131559434	-0.382603
C	 0.0555073803	 0.0781784871	-0.0299933467	-0.186583
C	 0.7042270826	-0.5251723355	 1.2214107534	 0.019333
C	-0.129568013	-0.376447372	 2.5333249987	-0.263943
C	-0.2695392356	-1.8448990667	 2.9305070034	 0.008778
C	 1.0739254875	-2.5881356292	 2.6314272109	-0.066359
C	 0.2747265993	-3.865075793	 2.2835092177	-0.242288
C	-0.5214995672	-2.7018976147	 1.6471810975	-0.051954
C	 0.826272657	-2.0524118734	 1.18514698	-0.003332
H	 0.9988348903	 2.0417853308	 0.0580756322	 0.111924
H	-0.4722157867	 1.998953071	-0.9229863313	 0.109243
H	-0.5836124892	 1.977371874	 0.8407545398	 0.117024
H	-0.9581795868	-0.3294597039	-0.1428817972	 0.092507
H	 0.6149238534	-0.250990375	-0.9157610314	 0.089644
H	 1.6982249843	-0.0746152151	 1.345523103	 0.060137
H	 0.3814578523	 0.215420601	 3.2995379523	 0.09332
H	-1.1035934849	 0.0937562193	 2.3544516335	 0.092741
H	-0.8169618704	-2.0934921555	 3.8426746528	 0.055681
H	 2.0018039866	-2.5102485532	 3.2028991109	 0.060499
H	 0.7494830277	-4.5720923936	 1.5965977475	 0.085265
H	-0.2020944784	-4.3899161735	 3.1168805591	 0.085347
H	-1.4503697839	-2.7629621083	 1.0761368407	 0.062121
H	 1.3721044869	-2.5075261062	 0.3546941965	 0.053497
98.4575	121.821	189.1205	252.6358	326.328	372.102	437.2209	459.4038	675.6264	704.3593	763.836	788.0882	813.6783	839.4262	875.5777	888.1352	914.4627	937.3312	957.2541	970.7854	982.0943	1002.9588	1031.1146	1045.5681	1062.3562	1068.5357	1096.8748	1111.264	1134.9952	1140.5752	1166.9635	1196.205	1215.7684	1235.84	1251.2171	1255.6663	1271.3484	1288.7688	1291.7677	1312.4334	1333.5931	1381.1874	1391.3947	1412.9981	1484.0931	1499.587	1500.5882	1507.1283	1519.0788	3005.3137	3012.5723	3029.5053	3036.4851	3040.901	3043.6634	3076.5725	3077.8802	3081.645	3085.3289	3096.0794	3098.1297	3100.0823	3101.2019
CCC1CC2C3CC2C13	CC[C@H]1C[C@@H]2[C@H]3C[C@@H]2[C@@H]13	
InChI=1S/C9H14/c1-2-5-3-6-7-4-8(6)9(5)7/h5-9H,2-4H2,1H3	InChI=1S/C9H14/c1-2-5-3-6-7-4-8(6)9(5)7/h5-9H,2-4H2,1H3/t5-,6-,7-,8+,9+/m0/s1
