18
gdb 51204	3.55335	1.15825	1.05079	1.9738	77.	-0.2364	-0.028	0.2083	1173.5662	0.14691	-401.854892	-401.847064	-401.84612	-401.888419	29.411	
O	 0.0501463778	-0.1475528711	-0.2816368423	-0.234696
C	 0.0156869846	 1.0436693399	-0.1114900214	 0.160106
C	 1.2322937054	 1.9429061977	-0.0637564445	-0.416401
C	 1.2303877367	 2.9562604913	-1.1972681231	 0.297506
C	 0.2376625092	 4.0632192427	-1.5518148742	-0.234541
N	 1.2681314253	 4.254783259	-2.6567224916	-0.155053
C	 2.3973774957	 3.8928159061	-1.6556422277	-0.047108
C	 2.991008634	 2.8711618392	-2.6293345018	-0.260047
C	 1.4708112421	 2.7173514616	-2.7272012851	-0.032368
H	-0.9560595966	 1.5755940126	 0.0117191175	 0.077279
H	 1.2211464191	 2.4842824142	 0.8930173767	 0.120676
H	 2.1295379847	 1.3172316755	-0.0995289449	 0.124416
H	-0.7519577117	 3.7785494929	-1.9252773246	 0.104037
H	 0.1586378871	 4.9214664105	-0.8751993391	 0.10107
H	 2.8840469465	 4.675557889	-1.0700128428	 0.084148
H	 3.4866959258	 3.2851357828	-3.5107510933	 0.114196
H	 3.5529798515	 2.0376105585	-2.2023430685	 0.106087
H	 0.8669791427	 2.1142454376	-3.4076325295	 0.090694
47.6851	58.1665	170.9258	258.6958	321.4737	429.868	462.4455	472.7288	626.124	712.9313	774.445	838.3537	858.9057	873.4737	892.1794	908.729	924.0505	965.5267	1013.2482	1022.1113	1035.867	1068.5791	1097.8314	1129.2846	1137.9061	1142.6502	1184.8525	1199.276	1223.5706	1243.0395	1258.5706	1287.628	1294.5341	1339.6708	1429.7277	1453.5818	1489.3727	1520.7954	1833.4009	2863.9056	3014.2811	3031.1529	3063.7555	3089.2884	3092.1836	3095.2876	3104.2647	3129.8463
O=CCC12CN3C1CC23	O=CC[C@@]12CN3[C@@H]1C[C@@H]23	
InChI=1S/C7H9NO/c9-2-1-7-4-8-5(7)3-6(7)8/h2,5-6H,1,3-4H2	InChI=1S/C7H9NO/c9-2-1-7-4-8-5(7)3-6(7)8/h2,5-6H,1,3-4H2/t5-,6+,7-
