18
gdb 17945	3.22185	2.20217	2.05702	1.8233	70.2	-0.2197	0.0895	0.3092	790.9168	0.155444	-347.778944	-347.772233	-347.771289	-347.809421	26.896	
C	-0.0393201991	 1.5517416664	-0.0225518847	-0.519159
C	 0.0162714212	 0.0557497635	 0.0058638242	 0.27523
C	 0.6840225712	-0.8926391729	-0.9777737295	-0.135054
C	 1.651204303	-1.8419406394	-0.2671319555	-0.226348
C	 1.379005951	-1.5909463478	 1.2446048173	-0.209921
C	 0.0235465938	-0.8956337582	 1.231285105	 0.050205
O	-0.9364467993	-1.7947983674	 0.5781695939	-0.31402
C	-0.7876607187	-1.0374836699	-0.6241797341	 0.051973
H	 0.8802914963	 1.9956993425	 0.3778991122	 0.119454
H	-0.157510825	 1.9165764935	-1.0481117168	 0.122424
H	-0.8799284484	 1.9367425029	 0.5658363943	 0.122971
H	 0.9064950814	-0.5257888038	-1.9747650756	 0.081267
H	 1.4559430924	-2.8843929762	-0.534992837	 0.111136
H	 2.6885832325	-1.6236450103	-0.536002556	 0.09702
H	 1.3558669106	-2.5132495563	 1.8317824418	 0.106638
H	 2.1342941529	-0.927616516	 1.6837441544	 0.095166
H	-0.3582509899	-0.5314337631	 2.187718937	 0.074605
H	-1.6084248959	-1.0405738174	-1.3332228911	 0.096413
185.1966	202.4115	211.7974	282.1215	393.8747	499.3089	589.0534	659.086	730.3934	756.7954	824.038	850.0754	884.9571	891.5099	913.495	920.6615	987.8866	1008.3862	1019.1688	1051.9389	1065.2508	1075.5839	1135.437	1162.0706	1190.6447	1209.8121	1255.8323	1266.19	1286.0875	1293.4568	1331.9267	1344.8748	1416.1741	1470.3433	1476.3809	1487.7749	1498.0772	1501.0321	3020.2016	3033.9877	3055.6129	3078.0392	3085.8598	3091.6018	3095.663	3102.8502	3163.9154	3175.0969
CC12C3CCC1OC23	C[C@@]12[C@H]3CC[C@@H]1O[C@@H]23	
InChI=1S/C7H10O/c1-7-4-2-3-5(7)8-6(4)7/h4-6H,2-3H2,1H3	InChI=1S/C7H10O/c1-7-4-2-3-5(7)8-6(4)7/h4-6H,2-3H2,1H3/t4-,5-,6+,7+/m0/s1
