17
gdb 46327	3.06637	1.3117	1.19384	1.0319	68.73	-0.2522	-0.0375	0.2147	1085.1168	0.135764	-458.959851	-458.95195	-458.951006	-458.993112	29.102	
O	-0.2460317548	 0.062437833	-0.3545484608	-0.279872
C	-0.1461773047	 1.2204042554	-0.0855231369	 0.279276
C	-1.0726642874	 2.3421108607	 0.3912493685	-0.195926
O	 0.0473597862	 3.2498408489	 0.370770176	-0.319067
C	 0.9960199076	 2.2442617167	-0.0862231346	 0.300324
C	 2.1925584806	 2.0369680831	 0.8681219712	-0.306013
C	 3.4185676364	 2.1580556622	-0.0559000412	-0.080928
O	 2.9898539968	 2.9763774281	-1.1337566983	-0.237243
C	 1.672742357	 2.5582590201	-1.4358412607	-0.143393
H	-1.8677371971	 2.6197849778	-0.3124500836	 0.134851
H	-1.5023275196	 2.2100426478	 1.3921715869	 0.134821
H	 2.1604082368	 2.8468575244	 1.6012224095	 0.13742
H	 2.1504185402	 1.0827991206	 1.3987077254	 0.121977
H	 4.2777565282	 2.6405622995	 0.415157797	 0.118727
H	 3.7290865484	 1.1660886369	-0.4217651619	 0.099295
H	 1.681843853	 1.6456285541	-2.0553758253	 0.107403
H	 1.1573469424	 3.3586100807	-1.9700703314	 0.128348
49.9929	107.5897	152.8065	245.937	267.2658	376.0885	410.4449	535.6519	562.7911	641.8734	708.4137	767.0454	845.406	882.0304	914.606	957.816	970.1386	1008.5202	1013.2734	1046.5901	1094.8624	1128.9327	1141.3523	1145.0342	1175.7577	1232.5948	1251.6859	1279.7837	1293.2204	1313.0375	1353.7274	1396.021	1470.9836	1484.3362	1488.2923	1517.3231	1918.1211	2967.0561	2978.2389	3018.4694	3065.3386	3070.1138	3103.967	3116.5334	3124.5063
O=C1COC11CCOC1	O=C1CO[C@]21CCOC2	
InChI=1S/C6H8O3/c7-5-3-9-6(5)1-2-8-4-6/h1-4H2	InChI=1S/C6H8O3/c7-5-3-9-6(5)1-2-8-4-6/h1-4H2/t6-/m1/s1
