17
gdb 31687	6.39428	0.85117	0.75945	3.7921	82.63	-0.1903	-0.0275	0.1628	1454.89	0.136857	-418.052379	-418.043787	-418.042843	-418.08597	31.429	
C	 0.0105896972	 1.4310367599	 0.1740238913	-0.325411
N	-0.0115099985	 0.0377615982	-0.2408973464	-0.385652
C	-1.1916315962	-0.6872634588	-0.1152920954	 0.29074
C	-1.3224921125	-2.0483156548	-0.0115357573	-0.207386
N	-2.6897826091	-2.3467449309	 0.0197744316	-0.033673
C	-3.2363683932	-3.6149332484	 0.1191267146	 0.177947
O	-4.4184421305	-3.8480701378	 0.1525508984	-0.30364
C	-3.4105433437	-1.1678563521	-0.0559123413	-0.051419
C	-2.5263780238	-0.1342974047	-0.1387694591	-0.243472
H	 1.0249049483	 1.818202142	 0.0513985386	 0.125015
H	-0.6450668823	 2.0265765161	-0.4691833273	 0.135321
H	-0.3004678877	 1.59063973	 1.218552707	 0.113386
H	 0.8012062786	-0.4770595881	 0.0643740645	 0.234094
H	-0.5869036509	-2.8343543587	 0.0336926711	 0.121438
H	-2.4523687694	-4.3926885791	 0.1640529977	 0.091033
H	-4.4863603381	-1.2003513674	-0.0393323974	 0.15308
H	-2.7861892182	 0.9099906946	-0.2107834005	 0.1086
61.7199	108.4881	169.9615	192.9289	268.1995	270.7639	334.9685	389.7221	504.8525	598.5838	605.4199	624.8977	688.8553	705.3534	772.1008	808.935	847.9778	964.9855	1001.7737	1027.6796	1076.0012	1095.3324	1149.5793	1160.777	1230.6708	1281.5949	1323.1792	1397.4206	1413.3785	1447.5349	1468.507	1488.0903	1500.4023	1523.2773	1538.4595	1657.9547	1815.5008	2972.463	2978.6624	3071.5669	3118.6209	3258.6824	3265.1916	3296.0628	3596.3023
CNC1=CN(C=O)C=C1	CNc1cn(C=O)cc1	
InChI=1S/C6H8N2O/c1-7-6-2-3-8(4-6)5-9/h2-5,7H,1H3	InChI=1S/C6H8N2O/c1-7-6-2-3-8(4-6)5-9/h2-5,7H,1H3
