19
gdb 116285	1.83262	1.57912	0.91394	3.4579	71.39	-0.2493	-0.0335	0.2159	1260.639	0.158304	-460.164404	-460.155123	-460.154179	-460.199531	33.067	
O	-0.0028713618	 1.490770895	-0.0719451506	-0.421229
C	 0.0723405292	 0.0748577983	-0.0420111254	-0.098278
C	-1.3141035528	-0.5690029395	-0.1186648836	-0.040473
C	-2.030889257	-0.4073342132	-1.4726093563	-0.247383
C	-3.0207055712	-1.5695403973	-1.4494847525	-0.075831
O	-2.3222138287	-2.6390608163	-0.8178984348	-0.269523
C	-1.3653092997	-2.119309063	 0.096214959	 0.026874
C	-0.0447373779	-2.8421330815	-0.147281523	 0.129804
O	 0.8735967422	-2.8427158849	 0.6308256369	-0.244564
H	-0.2951636187	 1.7569154856	-0.949152088	 0.285199
H	 0.7159419331	-0.3091393273	-0.849102165	 0.092267
H	 0.5583535383	-0.1866098794	 0.9016138506	 0.137405
H	-1.926140577	-0.1027676786	 0.6608184393	 0.098483
H	-2.521481192	 0.5631540469	-1.5819425537	 0.110132
H	-1.3211875301	-0.5337241956	-2.300062595	 0.105685
H	-3.9223668352	-1.3057700477	-0.8754139169	 0.098556
H	-3.3326280196	-1.9122195714	-2.4398115294	 0.114906
H	-1.6604157312	-2.3384025784	 1.1315050754	 0.108557
H	-0.0087943499	-3.3870215818	-1.1172303271	 0.089414
42.034	85.2205	116.7335	162.048	205.2275	246.5993	301.4918	355.8153	384.3493	433.1079	514.2626	608.0203	717.1507	816.611	852.1636	921.1657	963.1974	981.1496	986.4207	1008.8702	1061.9099	1098.1829	1105.7026	1122.9886	1131.1576	1198.7672	1212.4554	1245.5351	1284.0212	1293.9179	1314.2684	1332.0324	1365.7311	1385.4265	1394.0694	1403.7692	1422.667	1489.535	1500.5008	1524.6103	1829.2359	2887.9951	2981.9132	2987.1808	3010.6988	3029.7831	3054.3079	3090.629	3100.546	3104.208	3821.9205
OCC1CCOC1C=O	OC[C@H]1CCO[C@H]1C=O	
InChI=1S/C6H10O3/c7-3-5-1-2-9-6(5)4-8/h4-7H,1-3H2	InChI=1S/C6H10O3/c7-3-5-1-2-9-6(5)4-8/h4-7H,1-3H2/t5-,6+/m1/s1
