19
gdb 67893	2.37453	1.81049	1.31714	3.0585	78.58	-0.2275	-0.0214	0.2061	1027.924	0.158589	-385.85946	-385.851624	-385.85068	-385.891447	31.555	
C	-0.0062101041	 1.5233703857	-0.0249848417	-0.490126
C	-0.0085622267	 0.0114684867	 0.006806725	 0.35268
C	-1.3881351388	-0.7198046921	 0.0058308846	-0.429473
C	-0.925597209	-1.5154584435	 1.2514713704	 0.405592
O	-1.44452758	-2.3489158022	 1.9353261328	-0.301314
C	 0.4288004897	-0.777432783	 1.2910267825	-0.203553
C	 1.5995173555	-1.4070376364	 0.4951745181	-0.045956
C	 1.1324668921	-2.1616540261	-0.717523565	-0.313862
C	 1.1602958652	-0.6597969752	-0.7678735795	-0.09458
H	 0.9917226244	 1.9194215894	 0.1939258337	 0.120714
H	-0.3007186436	 1.8977580464	-1.0129152916	 0.121029
H	-0.7026236271	 1.9392447053	 0.7112546551	 0.11591
H	-2.2247454413	-0.0564191449	 0.2533972834	 0.127467
H	-1.6676358584	-1.3114602476	-0.87008462	 0.127299
H	 0.702095818	-0.2741327383	 2.219763511	 0.087761
H	 2.5921267799	-1.5468173218	 0.9041687306	 0.094744
H	 1.9289756086	-2.6412918471	-1.2782582729	 0.117002
H	 0.2066901319	-2.729761347	-0.7208183042	 0.122753
H	 1.7705661237	-0.1319697485	-1.4922813824	 0.085914
93.6862	211.5881	240.4141	259.4236	307.586	343.6471	436.8398	461.3856	553.2239	581.1291	628.2092	730.6375	761.9047	818.5427	851.5799	882.2396	888.2226	930.007	956.1065	982.1677	994.035	1017.3678	1051.2107	1061.8002	1083.2391	1087.9653	1118.7299	1154.2348	1176.8513	1202.1258	1221.8519	1239.8764	1257.6921	1312.5057	1362.0912	1415.4394	1433.6007	1490.7945	1496.809	1501.7376	1884.4587	3020.57	3046.718	3083.6092	3093.8449	3104.2715	3106.0161	3119.5646	3167.9054	3186.8853	3200.2813
CC12CC(=O)C1C1CC21	C[C@]12CC(=O)[C@H]1[C@H]1C[C@@H]21	
InChI=1S/C8H10O/c1-8-3-6(9)7(8)4-2-5(4)8/h4-5,7H,2-3H2,1H3	InChI=1S/C8H10O/c1-8-3-6(9)7(8)4-2-5(4)8/h4-5,7H,2-3H2,1H3/t4-,5+,7+,8+/m0/s1
