18
gdb 39664	3.57875	1.26248	1.21643	2.9463	71.05	-0.2424	0.0263	0.2687	1089.2848	0.149523	-439.077218	-439.069401	-439.068457	-439.110681	28.377	
C	 0.0515753539	 1.1105328489	-0.42473695	-0.055841
C	 1.4923963928	 1.4273801866	 0.0209274657	-0.296027
C	 1.4033195846	 0.0733329676	 0.7626160301	 0.1267
O	 0.0520982834	-0.1389147117	 0.3029783233	-0.289662
C	 2.3330255897	-1.0437935123	 0.3246534977	 0.069552
C	 1.8198896103	-2.4692921439	 0.677710285	-0.19775
N	 1.6951197822	-3.1649077866	-0.614137135	-0.25837
C	 2.025700436	-2.3176824015	-1.4922251407	 0.125064
O	 2.4218225028	-1.0726866983	-1.1251089226	-0.236175
H	-0.7226940237	 1.7922527751	-0.0539051779	 0.104081
H	-0.0917727656	 0.9529178001	-1.4993017093	 0.110805
H	 2.2300223266	 1.4579920356	-0.7803612933	 0.127703
H	 1.6050875769	 2.3012717109	 0.6633159619	 0.111264
H	 1.445055914	 0.1429344506	 1.859588658	 0.078974
H	 3.3407391896	-0.8471839499	 0.7092206797	 0.090263
H	 2.5079827674	-3.0126592989	 1.3317127271	 0.114942
H	 0.8415096896	-2.4357556499	 1.1674282361	 0.135319
H	 2.0364131396	-2.4896124726	-2.5627858659	 0.139161
66.5558	83.1227	92.2729	203.6381	253.9188	391.6218	486.4516	633.419	703.1986	765.7122	800.7546	849.7588	883.0504	928.8377	936.3287	957.074	981.6811	981.9164	990.1277	1031.54	1061.8303	1113.1632	1122.7405	1129.9281	1166.8762	1213.9644	1220.877	1261.7496	1272.4687	1303.1042	1326.3382	1332.6142	1355.5803	1383.9728	1389.108	1484.0741	1492.4186	1528.4141	1717.3135	2995.2936	3026.3503	3038.7331	3052.4218	3070.0864	3090.666	3092.4138	3152.4627	3216.8484
C1CC(O1)C1CN=CO1	C1C[C@@H](O1)[C@H]1CN=CO1	
InChI=1S/C6H9NO2/c1-2-8-5(1)6-3-7-4-9-6/h4-6H,1-3H2	InChI=1S/C6H9NO2/c1-2-8-5(1)6-3-7-4-9-6/h4-6H,1-3H2/t5-,6-/m1/s1
