18
gdb 42772	2.49832	1.94446	1.6217	1.8674	76.4	-0.2048	-0.0094	0.1954	918.7221	0.149554	-401.900006	-401.893063	-401.892119	-401.931124	28.271	
O	-0.0917082577	-0.0123632494	 0.104749359	-0.329463
C	-0.0602164973	 1.1803973736	 0.0425379022	 0.417652
C	-1.0762264615	 2.3448755757	 0.0654623859	-0.163306
C	 0.0074041675	 3.0250032195	 1.0115528648	-0.323587
C	 0.9949669624	 2.3079864921	 0.0463443071	 0.206809
C	 2.4344810198	 2.0921130143	-0.4376943535	-0.353241
C	 1.8180530363	 2.288383318	-1.867350715	-0.183362
N	 0.7039410531	 3.0226658517	-1.2127063181	-0.085075
C	-0.7714409122	 2.9027999118	-1.3572174283	-0.194445
H	-2.1125206779	 2.2170975884	 0.3693946201	 0.091882
H	 0.0722036261	 4.1133850647	 0.9851696193	 0.120153
H	-0.0480559468	 2.6384471946	 2.0306200621	 0.118535
H	 3.1149767175	 2.9021985401	-0.1717527474	 0.122043
H	 2.8789337366	 1.1240154099	-0.2056985585	 0.121573
H	 2.3828194367	 2.8802991351	-2.591922128	 0.10803
H	 1.5282009821	 1.3287038337	-2.3211321876	 0.107025
H	-1.0925840136	 2.1919545467	-2.1316857448	 0.109471
H	-1.2273146609	 3.8752276795	-1.5690771992	 0.109306
128.7036	188.4096	249.1183	354.3291	411.0509	477.9087	501.0869	604.3397	653.3883	699.1856	764.8066	788.0966	836.5461	849.8393	897.6605	914.3426	941.9259	978.4708	990.0143	1025.0293	1062.6864	1082.0977	1098.9054	1141.8448	1159.8769	1172.6666	1184.4479	1212.8922	1217.7711	1239.7959	1243.1408	1271.5713	1320.4732	1327.214	1473.5681	1475.4072	1513.3647	1523.6679	1894.0286	2994.0004	3004.7624	3061.9453	3078.6618	3085.8461	3092.8209	3151.0342	3153.141	3154.679
O=C1C2CC11CCN1C2	O=C1[C@H]2C[C@]31CCN3C2	
InChI=1S/C7H9NO/c9-6-5-3-7(6)1-2-8(7)4-5/h5H,1-4H2	InChI=1S/C7H9NO/c9-6-5-3-7(6)1-2-8(7)4-5/h5H,1-4H2/t5-,7-/m0/s1
