17
gdb 102340	1.75666	1.37777	1.28527	3.5701	73.94	-0.2674	-0.0184	0.249	1160.4314	0.135468	-414.183886	-414.173844	-414.1729	-414.218709	35.438	
C	 0.0744192644	 1.4746387437	 0.0929824109	-0.348935
N	-0.0296032109	 0.0134371079	 0.030512709	-0.294972
C	-1.3845394353	-0.5319230833	 0.0073893814	-0.084506
C	-1.2816420928	-2.1114824053	-0.0056133478	-0.178096
N	-0.6226063577	-2.6893561301	 1.1356033365	-0.497415
C	-2.1013831164	-0.1281757235	 1.2323058211	 0.328898
N	-2.6593354985	 0.1330749453	 2.2089516466	-0.331218
C	-2.1623572959	-0.0933284709	-1.1792379399	 0.291705
N	-2.6920066113	 0.2195660519	-2.1579640691	-0.328661
H	 1.1328296324	 1.7436336312	 0.0705671389	 0.138053
H	-0.4392501418	 1.9904534548	-0.7314563104	 0.134715
H	-0.3446317158	 1.8275984365	 1.0390572978	 0.159007
H	 0.4543354796	-0.3326261588	-0.7928586581	 0.240869
H	-2.2916308904	-2.517561558	-0.1016264123	 0.145288
H	-0.7379967017	-2.3670052966	-0.9230490351	 0.129631
H	 0.2645404967	-2.2240482733	 1.3013040055	 0.24479
H	-1.1836371946	-2.5784465715	 1.974404955	 0.250847
102.7973	118.5825	129.7224	146.07	157.4141	197.2548	245.7247	281.7329	332.0034	369.1703	443.6035	496.4263	522.9629	574.3916	628.6851	672.3119	761.9999	867.5899	882.9666	980.1731	1012.1303	1058.0361	1132.9975	1149.9565	1166.2606	1181.5979	1275.8193	1366.8858	1396.8335	1461.4263	1469.0438	1490.7374	1497.4176	1520.8621	1675.179	2343.3325	2365.5722	3001.0877	3041.7109	3094.2673	3111.1576	3132.1539	3504.5768	3517.7662	3585.0515
CNC(CN)(C#N)C#N	CNC(CN)(C#N)C#N	
InChI=1S/C5H8N4/c1-9-5(2-6,3-7)4-8/h9H,2,6H2,1H3	InChI=1S/C5H8N4/c1-9-5(2-6,3-7)4-8/h9H,2,6H2,1H3
