19
gdb 37292	4.30693	1.46066	1.34909	1.644	77.58	-0.2125	0.061	0.2735	995.6416	0.161821	-381.957913	-381.95123	-381.950286	-381.988791	27.829	
C	 0.1200013705	 1.4876082724	 0.0559404854	-0.250391
C	 1.3193173856	 0.6425857219	-0.0382181953	-0.031456
C	 1.6711412267	-0.0187026762	 1.3042276121	-0.0054
C	 0.2499795722	-0.619595323	 1.2929431397	 0.00546
C	-0.0037454295	 0.1546836912	 2.5980414567	 0.00038
C	 0.3952464287	-0.6008837549	 3.8862345641	-0.257987
C	 1.7788889727	 0.0895176939	 3.7710858311	-0.161021
N	 1.3860274358	 0.8124240882	 2.5178113512	-0.14803
N	-0.0788552202	 0.0243123973	-0.0441164368	-0.166189
H	-0.090322363	 2.023560452	 0.9745786949	 0.139929
H	-0.2005415925	 1.9959006846	-0.8483518559	 0.119443
H	 1.9514464473	 0.611542868	-0.9204749921	 0.093163
H	 2.5964021511	-0.5963133138	 1.3317959673	 0.07047
H	 0.0099901349	-1.6834925898	 1.2688617812	 0.081847
H	-0.880901244	 0.8048449635	 2.6548267934	 0.082694
H	-0.1842686588	-0.3265085781	 4.7698659813	 0.110112
H	 0.3970108019	-1.6909783793	 3.7992481814	 0.106547
H	 2.0009302182	 0.7942298073	 4.5775385242	 0.109004
H	 2.6421292121	-0.5740813452	 3.650063826	 0.10142
121.4266	216.7288	284.6463	350.3036	382.5483	550.8611	655.5551	711.1146	737.5713	755.6391	806.408	816.8601	846.7225	888.6649	905.8667	927.3713	951.139	967.4971	981.9437	1008.5394	1034.6059	1059.3469	1069.5919	1096.8405	1101.4556	1143.3353	1180.2372	1190.1563	1201.4944	1221.766	1230.1334	1233.9647	1263.3019	1267.4841	1302.4036	1316.0978	1337.0507	1365.3428	1482.1379	1500.5059	1507.5645	3036.1565	3059.7223	3068.9179	3081.9035	3091.3185	3102.3659	3118.3747	3129.2632	3154.8197	3216.1637
C1C2C3C(C4CCN34)N12	C1[C@H]2[C@@H]3[C@@H]([C@H]4CCN34)N12	
InChI=1S/C7H10N2/c1-2-8-4(1)6-7(8)5-3-9(5)6/h4-7H,1-3H2	InChI=1S/C7H10N2/c1-2-8-4(1)6-7(8)5-3-9(5)6/h4-7H,1-3H2/t4-,5+,6-,7-,9?/m1/s1
