23
gdb 118524	3.18502	0.74393	0.63482	1.9067	88.81	-0.2531	0.0396	0.2927	1818.5778	0.203039	-388.261373	-388.2502	-388.249256	-388.298246	40.478	
C	 0.0509993563	 1.6193547746	 0.0065096098	-0.379737
C	 0.0431691221	 0.0884665039	 0.0464262627	-0.180544
C	 0.6006545481	-0.5403534711	-1.2369794995	-0.174996
C	 0.6146784483	-2.0810315059	-1.2445427462	-0.010364
C	-0.7984603457	-2.658506754	-1.4585565846	-0.062083
O	-0.9430915473	-4.000655099	-1.043574547	-0.427484
C	 1.6093414909	-2.5759992402	-2.3269254327	-0.373417
C	 1.7317982377	-4.0257386511	-2.4577111127	 0.277812
C	 1.8419901383	-5.218837209	-2.5752129262	-0.428126
H	 1.065875621	 2.0071581765	-0.1364590614	 0.113683
H	-0.5651818084	 1.9975420485	-0.8168274182	 0.114725
H	-0.3396439268	 2.0438988798	 0.936381833	 0.11396
H	 0.6375941224	-0.259596956	 0.9011089872	 0.099828
H	-0.9796486892	-0.2625311752	 0.227250025	 0.105557
H	 0.0255631865	-0.1806090412	-2.1031192882	 0.09367
H	 1.6239982835	-0.1706241158	-1.386757562	 0.090264
H	 0.963913793	-2.4421563581	-0.268926344	 0.090082
H	-1.5214012864	-2.088835599	-0.8665131177	 0.105123
H	-1.0822433538	-2.525344077	-2.5182073042	 0.079422
H	-0.3073438608	-4.5301487841	-1.5398334395	 0.285239
H	 1.30900077	-2.1577504905	-3.2979302635	 0.132158
H	 2.6025743709	-2.1613847065	-2.1135557622	 0.132855
H	 1.9532346793	-6.2700299795	-2.6794594778	 0.202374
54.6093	66.4301	97.9537	113.9227	154.255	207.3886	249.3983	261.9159	332.3185	334.155	354.0017	395.5996	429.2326	487.1344	585.1683	621.3285	640.9825	738.7199	834.6436	869.3459	874.4934	907.0575	967.7927	1006.3223	1034.3541	1064.1286	1084.5479	1096.7301	1129.8504	1156.002	1201.5358	1245.0187	1279.2539	1285.8698	1321.2751	1330.3192	1352.7173	1369.6194	1398.3661	1405.0645	1414.5838	1448.9153	1466.5509	1485.1233	1493.4915	1500.8528	1505.9971	1510.7267	2224.4686	2942.8116	2999.3333	3010.6202	3023.3265	3028.5139	3029.7671	3035.7307	3051.5828	3061.9566	3077.5127	3097.0242	3103.3568	3501.2427	3771.616
CCCC(CO)CC#C	CCC[C@@H](CO)CC#C	
InChI=1S/C8H14O/c1-3-5-8(7-9)6-4-2/h1,8-9H,4-7H2,2H3	InChI=1S/C8H14O/c1-3-5-8(7-9)6-4-2/h1,8-9H,4-7H2,2H3/t8-/m0/s1
