18
gdb 76870	2.4017	1.87585	1.45586	1.9517	70.11	-0.2491	0.0012	0.2503	958.5087	0.149146	-439.087112	-439.0793	-439.078356	-439.119557	30.025	
C	 0.4151670651	 1.5937671222	 0.1456793755	-0.396364
C	 0.1139303744	 0.1051301625	 0.0422703632	-0.061353
C	 0.9654491018	-0.7254309973	-0.9994509987	 0.126447
O	 1.8941541985	-0.0459320932	-1.7954378506	-0.429521
C	 1.5511882547	-1.5706763219	 0.1733336951	-0.062822
N	 2.9075638857	-1.1365692183	 0.5545783788	-0.287712
C	 2.7664078618	-0.4348694079	 1.6066618787	 0.118281
O	 1.5389874303	-0.217356154	 2.1219868838	-0.209715
C	 0.6234281624	-0.8305087039	 1.1768722136	 0.06057
H	 1.4812609227	 1.7885651621	 0.283497456	 0.117464
H	 0.1101964237	 2.0988021206	-0.7750046224	 0.128618
H	-0.1227860111	 2.0469880859	 0.9836882683	 0.117969
H	-0.9589947516	-0.0409630758	-0.1189366441	 0.076969
H	 0.3250040474	-1.3118541138	-1.6659850533	 0.083902
H	 2.7236557857	-0.0242021964	-1.2985789303	 0.292822
H	 1.5130583997	-2.6578716131	 0.0749923871	 0.083517
H	 3.5767040249	 0.0241191962	 2.1632849415	 0.148816
H	-0.1257485661	-1.3752300139	 1.7502607277	 0.092115
65.5436	174.0838	219.2934	223.0412	251.3584	403.3527	439.2309	506.6244	530.9892	610.9685	681.5172	776.2395	809.296	849.5184	878.7289	897.0148	918.9836	954.9953	978.6029	1017.1491	1055.6798	1100.2078	1128.0112	1146.5265	1153.6264	1189.6614	1249.283	1258.9276	1282.3333	1297.9101	1315.2732	1333.9741	1346.7995	1366.1652	1414.5552	1438.87	1490.3819	1493.5071	1673.9333	3044.1229	3047.7853	3059.4444	3081.692	3116.1782	3120.5121	3124.9724	3212.7836	3737.8652
CC1C(O)C2N=COC12	C[C@H]1[C@@H](O)[C@H]2N=CO[C@@H]12	
InChI=1S/C6H9NO2/c1-3-5(8)4-6(3)9-2-7-4/h2-6,8H,1H3	InChI=1S/C6H9NO2/c1-3-5(8)4-6(3)9-2-7-4/h2-6,8H,1H3/t3-,4+,5+,6-/m0/s1
