20
gdb 58320	2.43128	1.04433	0.87608	2.3225	75.37	-0.2697	0.0043	0.274	1393.9107	0.168109	-440.290593	-440.280025	-440.279081	-440.327044	37.63	
C	-0.0110930748	 1.6109148774	 0.6014001624	-0.409843
C	-0.1014296131	 0.1591262122	 0.1307458728	 0.137272
O	 0.757724152	-0.6917456869	 0.8776339297	-0.437438
C	-1.5423517961	-0.3827552626	 0.1623937443	 0.103865
C	-1.6593028256	-1.7579803168	-0.4880049056	-0.408039
O	-1.8830880366	-0.4412433318	 1.563412054	-0.263659
C	-3.2508229409	-0.4781623884	 1.8653821611	-0.194631
C	-3.9449162357	 0.7881418785	 1.5509725903	 0.253307
N	-4.4793271743	 1.779872235	 1.2946252176	-0.302444
H	 1.0321382606	 1.9360893146	 0.5983571356	 0.124393
H	-0.5859537282	 2.2751991235	-0.0523749482	 0.118919
H	-0.4061243997	 1.7118670944	 1.6166307138	 0.123782
H	 0.2526298966	 0.0903946305	-0.9045127694	 0.088384
H	 0.3918931426	-0.7302203076	 1.7695569655	 0.287315
H	-2.2046393737	 0.3392614147	-0.335895719	 0.092898
H	-1.4505830431	-1.6825308455	-1.5597952839	 0.125184
H	-0.9338729472	-2.4406934478	-0.0399131316	 0.142752
H	-2.6628800856	-2.1805163733	-0.3806167271	 0.111785
H	-3.7765043411	-1.2929608743	 1.3473850772	 0.144441
H	-3.3358570562	-0.6643281759	 2.9405688606	 0.161757
29.7034	70.6853	100.7596	195.0187	209.9102	230.0698	244.4435	265.7053	327.6988	347.3535	372.1757	390.6898	454.8259	518.6232	578.4926	675.0165	778.745	860.7368	899.8447	936.957	987.8485	1017.3096	1040.166	1074.9403	1093.7981	1124.8162	1144.8953	1174.1996	1278.7306	1312.862	1330.0707	1371.8576	1381.4502	1396.3524	1404.9506	1406.7986	1429.4141	1473.5515	1487.8883	1492.6469	1497.7871	1501.1123	2357.5282	3009.8141	3015.1101	3041.4855	3043.8128	3048.818	3086.4403	3107.7204	3112.6996	3127.7947	3137.1293	3792.055
CC(O)C(C)OCC#N	C[C@@H](O)[C@@H](C)OCC#N	
InChI=1S/C6H11NO2/c1-5(8)6(2)9-4-3-7/h5-6,8H,4H2,1-2H3	InChI=1S/C6H11NO2/c1-5(8)6(2)9-4-3-7/h5-6,8H,4H2,1-2H3/t5-,6-/m1/s1
