20
gdb 16951	3.29726	2.13997	1.96452	0.211	77.83	-0.2317	0.0231	0.2547	823.7618	0.180513	-311.884921	-311.878272	-311.877328	-311.915179	27.974	
C	-0.167244246	 1.5543619736	 0.0011164007	-0.412868
C	 0.0428472656	 0.0414738161	 0.004126621	 0.064456
C	 0.897207011	-0.5045310869	-1.1868290016	-0.22346
C	 2.001662942	-1.3569900011	-0.4736051907	-0.049146
C	 1.1944058617	-1.9284709198	 0.7163512754	-0.21266
C	 0.8126742195	-0.529048664	 1.2519981555	-0.06071
C	 2.184912754	 0.1283567945	 1.2846502529	-0.072475
C	 2.890697451	-0.3641630229	 0.2612469533	-0.076568
H	 0.7894993418	 2.0863814309	 0.0064241685	 0.116169
H	-0.7183796084	 1.8716674863	-0.8908524064	 0.109648
H	-0.740286913	 1.8795626504	 0.8770914909	 0.105646
H	-0.9413114859	-0.4414612409	-0.0145195206	 0.066396
H	 0.2956155863	-1.1265220541	-1.8570343727	 0.091368
H	 1.3337286872	 0.2993669094	-1.7862744594	 0.093317
H	 2.5108015849	-2.0699918736	-1.1231791584	 0.05459
H	 0.3306113806	-2.5292132084	 0.410586543	 0.083949
H	 1.812648026	-2.4987328411	 1.4141762484	 0.091816
H	 0.2367952692	-0.4866976951	 2.1780346446	 0.051518
H	 2.4755223002	 0.9231651541	 1.960224746	 0.090139
H	 3.871892142	-0.0509304175	-0.0743398006	 0.088875
159.6144	241.6132	279.6453	377.9102	463.4583	473.6303	484.9822	655.4036	741.4239	747.9578	789.3694	831.078	832.3982	906.7569	909.5566	922.7535	947.3549	953.947	969.1209	975.6946	1025.5492	1048.9733	1083.5493	1117.0858	1128.4918	1150.3643	1175.2227	1193.7176	1227.9346	1274.4618	1284.9489	1294.368	1304.467	1333.6003	1363.3991	1378.2103	1408.7468	1488.9761	1496.37	1502.3609	1504.3452	1642.1782	3022.8502	3026.7556	3042.7886	3049.1355	3087.4821	3091.9194	3097.3452	3102.6738	3104.9537	3107.8117	3192.6553	3218.7947
CC1CC2CC1C=C2	C[C@H]1C[C@@H]2C[C@H]1C=C2	
InChI=1S/C8H12/c1-6-4-7-2-3-8(6)5-7/h2-3,6-8H,4-5H2,1H3	InChI=1S/C8H12/c1-6-4-7-2-3-8(6)5-7/h2-3,6-8H,4-5H2,1H3/t6-,7+,8+/m0/s1
