18
gdb 18241	4.16556	1.50797	1.27964	1.8274	73.3	-0.2344	0.0092	0.2435	1010.5399	0.154189	-347.799384	-347.791873	-347.790929	-347.831383	28.515	
C	-0.2159447397	 1.542036873	-0.0354905754	-0.374974
C	 0.0893945918	 0.0341474702	 0.0165729113	-0.299287
C	 0.7878289474	-0.472557111	-1.2099569704	 0.348341
C	 2.0194116691	-0.9898539049	-1.2995451237	-0.189651
C	 2.3970524169	-1.3859081447	-2.7124250239	-0.286306
C	 1.1251691273	-1.0893610177	-3.4982809762	 0.047645
O	-0.0120761658	-1.8485639686	-3.0842410592	-0.258702
C	 0.1460569821	-0.5047904812	-2.5676047452	-0.066795
H	 0.7060975784	 2.1237649739	-0.1307864786	 0.120806
H	-0.8580565557	 1.793251528	-0.8859864917	 0.119009
H	-0.7311569952	 1.8651017924	 0.8741862376	 0.115898
H	 0.7050189307	-0.1823708809	 0.8966180143	 0.10333
H	-0.8529311844	-0.5142080778	 0.1516967226	 0.111782
H	 2.6797088637	-1.1584589674	-0.4550227256	 0.092035
H	 3.2424521337	-0.7978082826	-3.0935001865	 0.109191
H	 2.6836141818	-2.441907027	-2.7896976637	 0.122996
H	 1.1645406151	-0.8477305461	-4.5571536277	 0.092878
H	-0.6339696272	 0.1908988923	-2.863340328	 0.091806
69.6315	143.4386	203.3611	274.5135	309.8668	360.4124	419.0342	575.4011	642.0233	749.1835	790.5896	821.6711	823.6602	865.5844	876.6536	924.6698	954.5364	964.5307	1013.9651	1036.0086	1067.0375	1092.6023	1108.2482	1183.9738	1193.2851	1254.3146	1263.0387	1294.4254	1311.5842	1355.2569	1372.1093	1407.9922	1410.4828	1461.8925	1481.1124	1498.8743	1506.9999	1698.1863	3014.5657	3022.684	3036.1566	3058.6696	3063.1343	3105.6599	3111.1687	3145.0449	3159.401	3184.594
CCC1=CCC2OC12	CCC1=CC[C@H]2O[C@@H]12	
InChI=1S/C7H10O/c1-2-5-3-4-6-7(5)8-6/h3,6-7H,2,4H2,1H3	InChI=1S/C7H10O/c1-2-5-3-4-6-7(5)8-6/h3,6-7H,2,4H2,1H3/t6-,7+/m1/s1
