18
gdb 105317	2.39364	1.55535	1.16822	4.0504	75.64	-0.2635	0.0088	0.2723	1111.1022	0.146493	-401.919165	-401.910572	-401.909628	-401.952372	32.326	
C	 0.0390726923	 1.4929453296	-0.2476667082	-0.395526
C	 0.0206500443	 0.028669114	 0.2020731908	-0.239111
C	-1.3618464423	-0.6108738768	 0.0927938971	 0.246774
O	-1.9101672964	-0.5859536718	-1.2617969685	-0.316972
C	-2.1866045616	-1.9940166398	-1.1977356401	 0.111953
C	-0.9167444601	-2.7679303015	-1.0942181326	-0.319306
C	-1.5210014667	-2.142513759	 0.1478688269	-0.166271
C	-2.3175977577	 0.0413266587	 1.0073768791	 0.290024
N	-3.0513074494	 0.5428113374	 1.7459512035	-0.342799
H	 1.052280784	 1.8986243974	-0.1837546719	 0.119499
H	-0.3017605608	 1.5803155127	-1.2827654965	 0.141413
H	-0.6121973503	 2.1098451338	 0.37870941	 0.142025
H	 0.7102061323	-0.5628473112	-0.4071497115	 0.110514
H	 0.352013884	-0.0606971167	 1.2435700862	 0.119197
H	-3.1319181144	-2.3407861159	-1.5949924673	 0.120803
H	-1.0227387722	-3.8480318582	-1.1261167012	 0.127836
H	-0.0098946814	-2.3818306499	-1.5482888129	 0.126372
H	-1.8090268034	-2.7021584625	 1.025904777	 0.123577
87.8922	140.6449	168.3321	182.9866	207.1915	282.8846	376.486	430.8957	494.1743	508.2292	573.8565	644.8332	762.8712	774.4887	816.3084	879.7534	918.0345	958.8544	959.892	982.3823	1022.2881	1038.7793	1050.6737	1068.5318	1085.3133	1125.3976	1142.0726	1197.6175	1218.6324	1274.1891	1305.4485	1348.3759	1365.7134	1410.845	1467.0376	1478.8001	1498.5131	1508.6792	2354.0715	3042.8006	3047.2969	3089.8465	3119.7302	3126.5482	3127.4197	3199.0965	3214.0732	3224.1125
CCC1(OC2CC12)C#N	CC[C@]1(O[C@H]2C[C@@H]12)C#N	
InChI=1S/C7H9NO/c1-2-7(4-8)5-3-6(5)9-7/h5-6H,2-3H2,1H3	InChI=1S/C7H9NO/c1-2-7(4-8)5-3-6(5)9-7/h5-6H,2-3H2,1H3/t5-,6+,7+/m1/s1
