15
gdb 56479	2.32811	1.21794	0.87921	1.3814	68.38	-0.2647	-0.0582	0.2065	1268.1292	0.107719	-457.740942	-457.731237	-457.730293	-457.777113	33.48	
O	 0.1882907705	 1.5139089121	-0.3424458177	-0.408285
C	 0.028074364	 0.1475105997	-0.0930327073	-0.110718
C	 0.8639083436	-0.7049488896	-0.9493456425	 0.303018
C	 1.5670674953	-1.4179989814	-1.6137650066	-0.453531
C	 0.3887156349	-0.1712668271	 1.3751176031	 0.351583
O	 0.8624102369	 0.7021039543	 2.0651808649	-0.320758
C	 0.1838559537	-1.5811476784	 1.8821137259	-0.375485
C	 1.5083928668	-2.1980050344	 2.3388623857	 0.170405
O	 1.8121386892	-3.3394144775	 2.1331340543	-0.221336
H	 0.6657878529	 1.8609329277	 0.4293642471	 0.299034
H	-1.028123696	-0.1300722135	-0.2421094092	 0.127796
H	 2.1815366455	-2.0412033345	-2.2164662192	 0.214229
H	-0.4477828896	-1.5087690678	 2.7778985476	 0.165135
H	-0.2919404182	-2.2390432212	 1.1540071957	 0.145988
H	 2.1629071105	-1.4957175483	 2.8955674382	 0.112926
28.3963	55.2864	104.2277	133.744	187.0438	243.6476	292.7135	371.0035	405.6197	414.4786	478.8592	561.8221	611.9407	640.4115	674.298	687.7732	808.3426	871.4588	964.7328	1010.5632	1036.3141	1092.1085	1140.4879	1184.5683	1246.6626	1299.1316	1333.4825	1406.5706	1430.2112	1439.9071	1794.2983	1848.0018	2230.0553	2925.9989	2978.5175	3035.6002	3139.0438	3499.3302	3676.5613
OC(C#C)C(=O)CC=O	O[C@@H](C#C)C(=O)CC=O	
InChI=1S/C6H6O3/c1-2-5(8)6(9)3-4-7/h1,4-5,8H,3H2	InChI=1S/C6H6O3/c1-2-5(8)6(9)3-4-7/h1,4-5,8H,3H2/t5-/m0/s1
