19
gdb 81749	3.09061	1.25044	1.05628	3.5597	81.69	-0.2506	0.0122	0.2628	1191.5114	0.159311	-382.050299	-382.041411	-382.040467	-382.083585	33.519	
C	-0.4219559429	 1.5435922442	 0.3263563739	-0.40917
C	-0.1316116875	 0.0529913561	 0.2289175288	 0.008247
C	 0.2785185326	-0.5014763581	-1.1428235542	-0.124709
N	 1.5684893567	 0.1133771022	-1.4935306879	-0.359876
C	 1.5504419705	-1.0651907295	-0.5814002163	 0.243018
C	 2.2289003115	-2.2719183996	-0.9162808782	 0.166277
N	 2.7841151685	-3.2566355461	-1.1682860312	-0.34746
C	 1.2200108112	-0.5325198324	 0.8277625472	-0.065263
C	 2.2368540505	 0.3921287786	 1.4786282762	-0.415001
H	 0.3726665463	 2.1296827126	-0.1405408015	 0.141284
H	-1.3640197037	 1.7861117253	-0.1773811402	 0.116232
H	-0.5162156638	 1.8583792911	 1.3706715413	 0.118641
H	-0.9720335003	-0.5241005164	 0.6250323545	 0.085144
H	-0.3597796677	-0.9264724282	-1.9082009651	 0.11513
H	 1.8347352952	-0.2175924025	-2.4206235598	 0.248349
H	 0.9864451841	-1.3705236569	 1.4896060448	 0.093661
H	 2.5462286841	 1.1831754291	 0.7920882604	 0.141498
H	 1.820062045	 0.856732907	 2.3780756675	 0.118641
H	 3.1288009796	-0.1682597365	 1.7780876598	 0.125356
100.9759	135.5125	184.8487	208.8313	219.6674	241.2538	287.2106	364.4836	466.8916	523.2622	558.9592	600.8492	634.8557	671.4162	753.3852	847.1618	874.4767	880.8337	978.8647	1012.5	1019.0809	1039.02	1072.3859	1093.8974	1133.0867	1151.7148	1166.8781	1217.5575	1239.0155	1296.0031	1309.7697	1357.4946	1374.7138	1404.0866	1404.7289	1418.2067	1483.9217	1496.1598	1498.3617	1511.9634	2340.9584	3037.02	3040.558	3061.0664	3079.4897	3097.0513	3101.6887	3128.4149	3134.6294	3191.7554	3482.5751
CC1C2NC2(C#N)C1C	C[C@H]1[C@H]2N[C@@]2(C#N)[C@H]1C	
InChI=1S/C7H10N2/c1-4-5(2)7(3-8)6(4)9-7/h4-6,9H,1-2H3	InChI=1S/C7H10N2/c1-4-5(2)7(3-8)6(4)9-7/h4-6,9H,1-2H3/t4-,5+,6-,7+/m1/s1
