16
gdb 54377	3.35865	1.34084	1.25521	2.8643	69.27	-0.2365	0.0166	0.2531	1034.7999	0.124875	-437.847849	-437.840257	-437.839313	-437.880323	29.071	
N	 0.1526249792	 1.2225771492	 0.460794623	-0.542942
C	 0.0408426435	-0.0090416938	-0.127034741	 0.235605
O	 0.9524299959	-0.5397655025	-0.7357366742	-0.370927
C	-1.2645877225	-0.6764854635	 0.0466237251	 0.249318
C	-1.5788875944	-2.171294822	 0.2343307926	-0.15243
C	-2.5518912073	-1.8546625268	 1.3727093402	-0.230379
C	-2.6895348312	-0.4661157998	 0.7003618864	-0.030914
O	-3.3370577546	-0.7633997815	-0.5688944997	-0.287412
C	-2.1221585143	-1.4004871047	-0.9564396545	 0.055466
H	 0.9795099296	 1.7574892176	 0.2464892076	 0.261936
H	-0.6619023521	 1.7211386775	 0.7756459593	 0.258366
H	-0.8720484739	-2.9834462555	 0.1335138107	 0.118251
H	-3.4723904018	-2.4395753032	 1.4596217194	 0.107916
H	-2.0348036384	-1.794480704	 2.3329806603	 0.112733
H	-3.1007037148	 0.4083666056	 1.2014557189	 0.086559
H	-1.9421412229	-1.6282700325	-1.997679454	 0.128854
63.9425	146.3306	153.309	293.017	352.0723	439.1477	476.3786	533.8891	569.6267	651.2474	730.0426	768.9948	781.346	837.1678	886.4761	904.1225	922.1513	962.1062	980.426	1010.8098	1036.1111	1071.7477	1080.8326	1120.8707	1127.2061	1172.5391	1187.919	1223.1597	1267.3734	1310.1751	1341.2255	1445.8389	1486.7279	1615.1511	1778.1719	3055.8617	3122.3093	3138.5758	3219.6072	3229.9489	3593.0119	3726.9034
NC(=O)C12C3CC1OC23	NC(=O)[C@@]12[C@H]3C[C@@H]1O[C@@H]23	
InChI=1S/C6H7NO2/c7-5(8)6-2-1-3(6)9-4(2)6/h2-4H,1H2,(H2,7,8)	InChI=1S/C6H7NO2/c7-5(8)6-2-1-3(6)9-4(2)6/h2-4H,1H2,(H2,7,8)/t2-,3-,4+,6-/m0/s1
