21
gdb 104284	2.02751	1.39224	1.10771	1.6556	78.85	-0.2467	-0.028	0.2187	1230.4681	0.179878	-424.23041	-424.220435	-424.219491	-424.26551	36.647	
C	-0.0777219612	 1.5042860064	 0.091859793	-0.387359
C	-0.1381951119	-0.0108556992	-0.1236529962	-0.243214
C	 0.7298748845	-0.4902578973	-1.2935552087	 0.40497
O	 0.387993212	 0.1653959696	-2.4959551569	-0.475939
C	 2.2564407078	-0.437397342	-1.0194342944	-0.253806
C	 2.2477644414	-1.9530677083	-0.6830646257	-0.262974
C	 0.8752754146	-2.0560095531	-1.396299348	-0.125074
C	-0.1998614669	-2.9603673777	-0.8644134945	 0.125824
O	-1.3825835748	-2.7657489982	-1.0137880661	-0.258478
H	 0.9337320182	 1.8367607654	 0.347118693	 0.116969
H	-0.3794873305	 2.0379030445	-0.8130327656	 0.124525
H	-0.7421348722	 1.8058051301	 0.9068196499	 0.112265
H	 0.1725504291	-0.5329256363	 0.7907671129	 0.092907
H	-1.1720514475	-0.3258666099	-0.3079928234	 0.118229
H	-0.5619276458	 0.0625303653	-2.6277338761	 0.282489
H	 2.7898966646	-0.2307150801	-1.9498409008	 0.118023
H	 2.6029017305	 0.2514952458	-0.246488705	 0.102972
H	 3.0648883175	-2.5573331009	-1.0802992812	 0.107918
H	 2.1686496856	-2.1423397435	 0.3919304386	 0.107362
H	 1.0160842651	-2.2991423927	-2.456643183	 0.117203
H	 0.1622520298	-3.855856178	-0.3056233918	 0.075189
55.6108	104.1667	125.1221	147.2685	189.8152	214.815	284.022	328.0073	362.7273	376.3268	438.4809	480.3071	571.6068	653.4903	707.1876	797.0165	808.9834	871.3955	913.4194	940.7206	960.0766	1005.6078	1009.64	1042.9858	1090.4557	1112.064	1122.7962	1146.1585	1170.3459	1224.7451	1246.4913	1257.6982	1270.5706	1296.3838	1330.1811	1370.0408	1392.8143	1411.069	1421.9411	1480.9122	1487.1646	1495.9793	1502.3256	1510.426	1808.0937	2849.8547	3024.5123	3042.1488	3042.6887	3057.9789	3064.0317	3072.2049	3107.1013	3113.7796	3122.8514	3132.0888	3790.446
CCC1(O)CCC1C=O	CC[C@@]1(O)CC[C@H]1C=O	
InChI=1S/C7H12O2/c1-2-7(9)4-3-6(7)5-8/h5-6,9H,2-4H2,1H3	InChI=1S/C7H12O2/c1-2-7(9)4-3-6(7)5-8/h5-6,9H,2-4H2,1H3/t6-,7+/m0/s1
