17
gdb 23363	2.78997	1.22819	0.88323	3.055	75.06	-0.249	-0.0474	0.2016	1284.7976	0.133879	-455.102023	-455.092624	-455.09168	-455.136925	33.256	
C	 0.0695195679	 1.4053985454	-0.049242524	-0.479778
C	 0.2975812934	-0.0752087413	 0.021002549	 0.259737
N	 0.4592047543	-0.7434337761	 1.1027549625	-0.163363
O	 0.3967026134	 0.0732073492	 2.2245173995	-0.373709
C	 0.3318605016	-0.8509529377	-1.2690669504	 0.331643
O	 0.1520479691	-0.293436982	-2.3342314864	-0.341881
N	 0.6593430692	-2.1943883658	-1.1800936967	-0.074369
C	-0.1163715683	-3.2353692478	-0.5408621538	-0.212359
C	 0.0678795813	-3.2009580337	-2.0300035271	-0.228666
H	 0.90299986	 1.9369649522	 0.4207665487	 0.145858
H	-0.030363081	 1.7131504717	-1.0887187144	 0.15642
H	-0.8317706244	 1.6783177918	 0.5090893865	 0.143112
H	 0.5444524202	-0.5489529208	 2.9460700401	 0.312641
H	 0.4454746485	-3.9381325736	 0.0673671267	 0.12832
H	-1.0914926776	-2.9656338332	-0.1450080296	 0.131656
H	-0.7723495407	-2.8922398671	-2.6462249242	 0.137031
H	 0.7630440433	-3.8870444812	-2.5050238962	 0.127708
52.2609	99.0379	113.146	161.6188	183.465	270.652	272.7851	323.7315	422.7085	431.2016	473.9297	556.6185	660.3873	748.8693	769.7556	809.7054	887.6656	979.5859	986.4307	1042.264	1052.8254	1055.3459	1102.0576	1132.5835	1136.7218	1171.8829	1173.1712	1278.7174	1393.4374	1394.4861	1415.2083	1478.5757	1486.392	1497.8651	1525.0194	1704.3944	1756.1395	3048.651	3101.9343	3114.0062	3117.195	3171.7201	3196.3204	3209.669	3805.8269
CC(=NO)C(=O)N1CC1	CC(=NO)C(=O)N1CC1	
InChI=1S/C5H8N2O2/c1-4(6-9)5(8)7-2-3-7/h9H,2-3H2,1H3	InChI=1S/C5H8N2O2/c1-4(6-9)5(8)7-2-3-7/h9H,2-3H2,1H3
