21
gdb 41977	2.39714	2.02664	1.59149	1.4451	79.94	-0.2275	0.0801	0.3075	956.5267	0.187375	-387.095083	-387.088238	-387.087294	-387.125946	29.029	
C	 0.0283764155	 1.566137372	 0.0297515255	-0.087001
O	 1.3901824652	 1.9650333868	-0.1666529854	-0.260132
C	 2.0026213234	 0.9868700601	-0.9725987207	 0.082205
C	 2.5878039668	-0.2420395019	-0.3188263179	-0.05343
C	 2.8027823685	-0.4423267674	 1.1721235525	-0.212385
C	 1.5969536912	-0.0717716698	 2.0533430817	-0.203188
C	 0.2743436286	-0.5590566861	 1.4453885687	-0.206547
C	 0.0366667093	 0.0221982246	 0.0396569217	-0.029859
C	 1.194113088	-0.2802098464	-0.9288025885	-0.122179
H	-0.3204154825	 2.0135807449	 0.966063497	 0.103949
H	-0.5961292088	 1.948247252	-0.7920118345	 0.090355
H	 2.4448151402	 1.3778774685	-1.8846964659	 0.08794
H	 3.3522065135	-0.7176309419	-0.9307375445	 0.079798
H	 3.0325942573	-1.5058613752	 1.3239313509	 0.094971
H	 3.6907328894	 0.1112894971	 1.50021914	 0.099463
H	 1.7318461347	-0.5078463553	 3.0492995456	 0.086097
H	 1.5611378718	 1.0130026622	 2.1877615363	 0.118162
H	 0.2797612826	-1.6553217932	 1.3803396808	 0.090537
H	-0.5620450084	-0.2877805522	 2.1009302276	 0.088862
H	-0.9036514327	-0.3674104946	-0.3617272019	 0.069801
H	 0.9991486164	-0.8763561745	-1.8123139391	 0.082582
157.4631	220.8736	271.4825	354.462	424.1553	464.445	513.7615	672.6448	698.5019	724.4578	754.818	784.5778	806.5297	854.4897	886.6049	898.5433	953.453	961.9175	991.0387	1010.0474	1041.0928	1049.3504	1082.9439	1089.9833	1107.2011	1115.5661	1133.906	1190.6394	1201.1996	1215.1679	1242.6989	1273.761	1307.6595	1315.5926	1340.612	1343.384	1374.9097	1377.7585	1387.3117	1399.0762	1437.9069	1484.9858	1488.6581	1501.518	1517.7593	2986.4873	3009.8593	3013.8966	3041.2551	3049.531	3053.7188	3062.1788	3076.8057	3095.14	3118.3175	3142.1519	3173.8925
C1OC2C3CCCC1C23	C1O[C@H]2[C@H]3CCC[C@@H]1[C@@H]23	
InChI=1S/C8H12O/c1-2-5-4-9-8-6(3-1)7(5)8/h5-8H,1-4H2	InChI=1S/C8H12O/c1-2-5-4-9-8-6(3-1)7(5)8/h5-8H,1-4H2/t5-,6-,7+,8-/m0/s1
