15
gdb 34184	4.47856	1.49001	1.33637	4.6819	72.4	-0.2431	0.0209	0.2639	929.2272	0.115304	-379.621111	-379.614914	-379.613969	-379.651565	25.622	
N	 0.0959406429	-1.0584410196	-0.0346475452	-0.340491
C	 0.0238035305	 0.0960016583	-0.0190571038	 0.188651
C	-0.0370423301	 1.5257212597	-0.0094474166	 0.233906
N	-1.1042301565	 2.185503135	-0.7287298163	-0.350495
C	-0.7447086768	 3.5653968643	-0.4957894023	-0.044388
C	-0.1750036487	 3.7377082722	 0.8875102397	-0.097689
C	 0.7632927419	 3.7741993718	-0.3141046891	-0.11687
C	 1.2686303508	 2.3664860666	 0.0435893235	-0.136594
C	 0.3396931836	 2.3236697349	 1.2331921879	-0.116326
H	-1.0465141584	 1.9615525714	-1.7204552795	 0.235147
H	-1.3644428898	 4.3314722199	-0.9432692124	 0.109229
H	-0.4625366585	 4.5091172902	 1.5869942273	 0.104955
H	 1.3359985281	 4.5871111213	-0.7364910486	 0.101904
H	 2.2540527261	 1.9464572747	-0.0963075693	 0.11336
H	 0.4591831749	 1.8779439292	 2.2100038345	 0.115701
153.2322	164.2854	465.8648	496.4927	532.2555	544.0957	608.9479	722.6582	733.9713	738.1556	773.0446	805.5049	823.6733	865.6498	895.5404	919.2153	954.2835	964.6622	982.7019	1006.8077	1038.5116	1042.1348	1084.7631	1122.3337	1141.9596	1197.7155	1213.7506	1257.8164	1312.1366	1331.9824	1357.2572	1418.8931	2356.1678	3208.9223	3212.7438	3222.8945	3224.141	3233.2427	3484.0981
N#CC12NC3C4C3C1C24	N#C[C@]12N[C@H]3[C@@H]4[C@H]3[C@H]1[C@H]24	
InChI=1S/C7H6N2/c8-1-7-4-2-3(5(4)7)6(2)9-7/h2-6,9H	InChI=1S/C7H6N2/c8-1-7-4-2-3(5(4)7)6(2)9-7/h2-6,9H/t2-,3+,4-,5+,6+,7-
