18
gdb 36724	4.52115	0.80318	0.76181	4.8589	79.31	-0.2645	-0.0076	0.2569	1503.4163	0.147814	-401.957818	-401.949129	-401.948185	-401.992619	31.059	
N	 0.3244933685	-1.1301728029	-0.005547437	-0.296146
C	 0.2492995443	 0.0173169003	-0.108051192	 0.267167
C	 0.1168621915	 1.4708396552	-0.2539760408	-0.192953
O	 1.3052081632	 2.0841794089	 0.1722123229	-0.256221
C	 1.2185860332	 3.5198707081	 0.2440014937	 0.099521
C	 2.5605163262	 4.0413149989	 0.7945032095	-0.237986
C	 3.3512446876	 4.5603071211	-0.4313123024	-0.253972
C	 2.2853980727	 4.7073117745	-1.4872674355	-0.049375
C	 1.1228892385	 4.1693318938	-1.1206062531	-0.091048
H	-0.1132691905	 1.6911900679	-1.3080655106	 0.139351
H	-0.749412392	 1.8019598975	 0.3438046101	 0.13359
H	 0.3687243467	 3.7699074359	 0.8978526327	 0.070012
H	 2.3669975553	 4.8641763385	 1.4880745376	 0.110506
H	 3.0747003058	 3.2525502237	 1.3465485724	 0.123364
H	 3.8650715313	 5.5051872453	-0.2233935661	 0.110404
H	 4.1258123027	 3.8548875085	-0.7590367321	 0.123447
H	 2.4739103798	 5.1904431746	-2.4403625996	 0.103663
H	 0.2213708552	 4.1552363802	-1.7224482895	 0.096675
42.7551	68.2765	100.6536	151.4138	249.7373	304.5744	376.236	385.9236	500.2097	569.1726	721.9468	740.5385	804.0358	814.2038	897.2195	922.6152	955.35	957.4057	983.2824	985.6387	1037.9394	1057.2446	1083.4732	1118.7513	1138.7603	1186.5919	1230.6142	1253.8709	1292.629	1317.3147	1333.5943	1353.7883	1386.0269	1421.7113	1471.9984	1490.7679	1498.7764	1681.8495	2372.4993	2966.128	2979.6317	3000.4268	3028.724	3060.1424	3074.185	3125.5273	3181.4005	3207.3519
N#CCOC1CCC=C1	N#CCO[C@H]1CCC=C1	
InChI=1S/C7H9NO/c8-5-6-9-7-3-1-2-4-7/h1,3,7H,2,4,6H2	InChI=1S/C7H9NO/c8-5-6-9-7-3-1-2-4-7/h1,3,7H,2,4,6H2/t7-/m1/s1
