13
gdb 128459	4.79332	1.16463	0.94257	1.9117	62.19	-0.2986	-0.07	0.2286	1158.5496	0.089633	-486.06551	-486.05773	-486.056786	-486.098986	26.12	
C	-0.044194391	 1.3286714226	 0.0605930308	-0.241306
O	 0.0398232174	-0.1036933864	-0.0592893117	-0.21886
C	 0.6574814847	-0.5304744113	-1.14901518	 0.59266
O	 1.1442073423	 0.1161853799	-2.0264400245	-0.342481
N	 0.6756263197	-1.9668410228	-1.150880099	-0.025778
N	 1.2427736613	-2.6608027758	-2.1406377356	-0.202964
C	 1.0313865911	-3.8970784794	-1.7409412369	 0.090704
N	 0.361117749	-3.9638887304	-0.5530919228	-0.19381
N	 0.1403451749	-2.7409594914	-0.1869343767	-0.086259
H	 0.9565964654	 1.7647221808	 0.0887912938	 0.155975
H	-0.597381712	 1.7465045871	-0.7831711702	 0.155937
H	-0.5713349884	 1.5070727404	 0.9962400757	 0.154717
H	 1.3543233456	-4.7633820934	-2.2948668229	 0.161467
58.6488	103.6307	124.8453	178.1831	217.4575	317.9953	420.591	503.8192	684.5697	722.4581	777.4073	834.3572	912.4584	980.6233	1010.9078	1033.6482	1128.8973	1170.2849	1180.7429	1205.2342	1252.6212	1292.9355	1322.1157	1391.6058	1477.1658	1483.7236	1494.7457	1510.7548	1876.2019	3062.1648	3143.0395	3179.0849	3291.6228
COC(=O)N1N=CN=N1	COC(=O)n1ncnn1	
InChI=1S/C3H4N4O2/c1-9-3(8)7-5-2-4-6-7/h2H,1H3	InChI=1S/C3H4N4O2/c1-9-3(8)7-5-2-4-6-7/h2H,1H3
