19
gdb 105727	2.39121	1.37378	1.15058	1.5683	82.74	-0.2449	0.0124	0.2573	1163.1513	0.158589	-385.863165	-385.854154	-385.853209	-385.896863	34.329	
O	 0.1110203486	 1.4031504571	-0.0476233863	-0.423426
C	 0.0291092553	-0.0034996547	 0.0120165412	-0.097691
C	-1.4325922833	-0.5218530779	 0.0229032052	 0.057861
C	-1.4880132767	-2.0827683783	 0.1075217105	-0.269326
C	-2.6225764096	-2.4168054554	 1.1070222253	-0.257556
C	-2.808780839	-1.1220870345	 1.8601615274	-0.072453
C	-2.1818963966	-0.1020534082	 1.2819604867	-0.086762
C	-2.1043706458	 0.0014030461	-1.1721390101	 0.321507
C	-2.6122075378	 0.4722535929	-2.1571460147	-0.506649
H	-0.3566847532	 1.6786274886	-0.8459644961	 0.28572
H	 0.5702924015	-0.4806887073	-0.8205194782	 0.091399
H	 0.5106253783	-0.3031216014	 0.9482239142	 0.109871
H	-1.6264777814	-2.5413223052	-0.8727865626	 0.110937
H	-0.5304844962	-2.4371102341	 0.5047298123	 0.106149
H	-3.5501275127	-2.7026409305	 0.5928342902	 0.115342
H	-2.362738039	-3.2567725505	 1.7606855783	 0.106912
H	-3.4153616578	-1.04965985	 2.7564543488	 0.097665
H	-2.1845127169	 0.9311210625	 1.6052680405	 0.111355
H	-3.0896122077	 0.8642365207	-3.0212411726	 0.199143
72.7713	116.6064	150.2494	169.6199	240.9187	282.4663	394.7789	423.0441	465.7932	476.0707	542.6375	620.181	644.1067	668.5188	695.2591	779.2822	784.7467	845.5054	912.0359	937.7628	964.8349	983.7823	1005.3795	1068.0763	1093.877	1105.8415	1132.2667	1153.7427	1195.1302	1228.4135	1277.91	1317.8624	1319.4227	1363.2764	1386.9687	1425.2757	1480.3072	1495.527	1500.1555	1688.0614	2216.5331	2977.0595	3018.2719	3045.2412	3063.2599	3080.2677	3118.3145	3188.6064	3224.8845	3498.5991	3773.2279
OCC1(CCC=C1)C#C	OC[C@]1(CCC=C1)C#C	
InChI=1S/C8H10O/c1-2-8(7-9)5-3-4-6-8/h1,3,5,9H,4,6-7H2	InChI=1S/C8H10O/c1-2-8(7-9)5-3-4-6-8/h1,3,5,9H,4,6-7H2/t8-/m1/s1
