21
gdb 83999	2.18548	1.62769	1.4416	2.4026	77.68	-0.2265	0.078	0.3045	1065.7631	0.184183	-424.218866	-424.210523	-424.209578	-424.251156	33.41	
C	-0.030954726	 1.5196216038	-0.0216823616	-0.470798
C	 0.0463945268	 0.008329436	 0.0024949971	 0.234636
C	-1.1943759005	-0.6849971521	-0.535714638	-0.162434
O	-1.2109830541	-2.0858142936	-0.2691695975	-0.261003
C	-1.1487306896	-2.3469450561	 1.1327616278	-0.078887
C	 0.2366042469	-2.0178318725	 1.6935764145	-0.246679
C	 0.7636290478	-0.6875481621	 1.1634331201	-0.135341
C	 1.3723604099	-0.6683962559	-0.2290587134	 0.0981
O	 1.5007694014	-1.8355012864	-0.9814504081	-0.437258
H	 0.9001716798	 1.9677625037	 0.3381022857	 0.119474
H	-0.2055041305	 1.8942473303	-1.0378152942	 0.119068
H	-0.8440034189	 1.8887406283	 0.6156297245	 0.114088
H	-2.097366727	-0.221327795	-0.104641371	 0.096659
H	-1.2541275793	-0.5875260394	-1.625622247	 0.116503
H	-1.9252460045	-1.7545365281	 1.6413482692	 0.094158
H	-1.3915872638	-3.4057323762	 1.2571776687	 0.110301
H	 0.1840615596	-1.9964535714	 2.7865227389	 0.101847
H	 0.9349931909	-2.819097967	 1.4218300959	 0.118187
H	 1.2241453185	-0.0367121359	 1.9011109865	 0.080554
H	 2.238596666	-0.0321904569	-0.3846683423	 0.094006
H	 0.6435409167	-2.2863892834	-0.9702965058	 0.294821
147.6022	187.3255	203.9457	235.0334	273.2005	303.5699	373.4299	439.7063	467.6053	520.2133	576.1815	592.6897	606.6879	749.433	783.8604	826.8803	870.7656	936.8863	945.319	983.7479	1012.5226	1034.091	1069.9625	1094.8238	1120.0511	1122.9271	1150.0711	1160.838	1204.5502	1254.9888	1269.3478	1315.2807	1323.1055	1334.6079	1362.4362	1371.6901	1405.2011	1416.6636	1433.0631	1477.2506	1485.2303	1490.2361	1494.953	1501.4797	1508.1627	2965.3672	2987.0335	3016.8189	3029.9845	3061.5128	3074.5099	3080.0466	3092.3639	3098.6785	3140.8874	3156.2845	3705.9082
CC12COCCC1C2O	C[C@]12COCC[C@H]1[C@H]2O	
InChI=1S/C7H12O2/c1-7-4-9-3-2-5(7)6(7)8/h5-6,8H,2-4H2,1H3	InChI=1S/C7H12O2/c1-7-4-9-3-2-5(7)6(7)8/h5-6,8H,2-4H2,1H3/t5-,6+,7-/m0/s1
