19
gdb 94455	2.86168	1.45572	1.27543	2.2462	77.55	-0.2303	0.0081	0.2384	1070.5723	0.15974	-423.018893	-423.010895	-423.009951	-423.051482	31.366	
O	 0.1902803458	 0.8547881584	-0.7968817741	-0.435964
C	 0.1079380528	-0.2350785634	 0.0685557255	 0.118975
C	 0.090352249	-0.014450003	 1.6095161708	-0.265401
C	-1.0270821601	-1.0883356674	 1.7113517622	-0.274393
C	-1.3023532961	-0.9204858083	 0.189274008	 0.368152
O	-2.3052791928	 0.08358676	-0.0528738308	-0.333443
C	-3.2665961974	-0.3897410198	-0.9990586502	-0.137148
C	-2.8065423506	-1.772877735	-1.3593084744	-0.098688
C	-1.702104313	-2.0642061405	-0.6807905899	-0.165648
H	-0.6803276842	 1.2750171222	-0.7517500229	 0.284296
H	 0.8770166461	-0.9572811985	-0.2249932014	 0.082158
H	 1.0204825194	-0.1853716896	 2.1553663665	 0.096855
H	-0.2855192236	 0.9839206016	 1.8481241091	 0.109253
H	-0.6392516331	-2.0848011483	 1.9414745043	 0.100988
H	-1.8789801062	-0.8763896322	 2.359571347	 0.110184
H	-4.2686084833	-0.3819193916	-0.5433632992	 0.111214
H	-3.2979846383	 0.2854477205	-1.8670775155	 0.112038
H	-3.3259841836	-2.4034085962	-2.0694156371	 0.110419
H	-1.1354678907	-2.985594619	-0.7236130078	 0.106154
85.4746	112.7428	194.0603	244.4648	342.1263	370.054	454.7388	484.9903	494.0001	595.4353	680.8793	714.0969	779.6381	786.3435	827.9029	875.8111	928.2515	948.9465	956.1716	958.4155	1017.8279	1043.6927	1049.168	1090.0745	1110.1407	1141.1082	1157.2013	1182.7755	1200.4992	1220.8577	1231.7921	1257.5929	1286.667	1341.238	1370.6603	1380.5378	1441.227	1466.8342	1487.242	1517.0233	1684.2075	2984.0787	3005.633	3055.8108	3063.7736	3067.1966	3117.8666	3131.6353	3207.8952	3231.8751	3739.1525
OC1CCC11OCC=C1	O[C@H]1CC[C@]21OCC=C2	
InChI=1S/C7H10O2/c8-6-2-4-7(6)3-1-5-9-7/h1,3,6,8H,2,4-5H2	InChI=1S/C7H10O2/c8-6-2-4-7(6)3-1-5-9-7/h1,3,6,8H,2,4-5H2/t6-,7+/m0/s1
