17
gdb 71704	3.56796	1.49699	1.38895	2.199	70.21	-0.2176	0.0714	0.289	959.9694	0.135999	-421.766477	-421.759324	-421.75838	-421.797365	30.054	
O	-0.0048804972	 1.2889671943	 0.1024008159	-0.477003
C	 0.0168337039	-0.0954921974	-0.0064554605	 0.382793
C	-0.4317841795	-0.8049482187	-1.2774886829	-0.297878
C	-0.2908398605	-2.2321807724	-0.7982299682	-0.158487
C	-0.5872984046	-2.3319794358	 0.7066120828	-0.146256
C	-0.3776124462	-0.8898279935	 1.2181927149	-0.103711
C	 1.0660728431	-0.9189007465	 0.7322253241	-0.253882
C	 0.8346504783	-2.3688381316	 0.2174280338	 0.392112
O	 1.7265977104	-3.416029899	 0.2876821321	-0.466004
H	 0.7104977831	 1.6431114319	-0.437218281	 0.283772
H	-1.4599403158	-0.5363554453	-1.5433828054	 0.106887
H	 0.2204544783	-0.5778680378	-2.1306366969	 0.084813
H	-0.5244908216	-3.0886303515	-1.4190863235	 0.089358
H	-1.1959591046	-3.1069983788	 1.1507247805	 0.094416
H	-0.7833741535	-0.4356332961	 2.1111072647	 0.09493
H	 1.9510805266	-0.5123592521	 1.2024269217	 0.090568
H	 2.2949308099	-3.3848065196	-0.4906543021	 0.283571
223.095	247.1408	297.3392	324.8447	337.4432	400.9138	444.6626	521.9314	566.1624	623.1558	702.1751	743.6976	766.6406	802.1176	836.5002	878.5607	888.7349	932.3961	939.4048	968.3215	976.651	1013.3045	1037.3226	1062.5246	1111.0503	1140.0227	1169.461	1184.6654	1207.039	1257.4234	1271.1972	1297.5578	1308.4199	1328.1079	1419.2421	1466.9314	1492.6762	3023.3494	3073.9936	3194.1397	3206.3121	3213.5809	3221.1752	3779.4202	3795.6745
OC12CC3C4C1C2C34O	O[C@]12C[C@@H]3[C@@H]4[C@H]1[C@H]2[C@]34O	
InChI=1S/C7H8O2/c8-6-1-2-3-4(6)5(6)7(2,3)9/h2-5,8-9H,1H2	InChI=1S/C7H8O2/c8-6-1-2-3-4(6)5(6)7(2,3)9/h2-5,8-9H,1H2/t2-,3-,4+,5-,6-,7+/m1/s1
