15
gdb 24447	3.53789	1.69297	1.18622	2.6819	66.33	-0.193	0.0155	0.2085	972.4975	0.116577	-453.960093	-453.953594	-453.95265	-453.990986	25.681	
C	-0.0014519067	 1.4142401616	 0.0662117853	-0.192427
C	 1.4560159638	 1.9260838191	 0.0032681824	-0.095716
O	 2.2397407524	 1.4429364326	 1.1153986292	-0.264732
C	 1.9545232208	 0.1464667242	 1.2955331912	 0.379576
C	 0.9372300556	-0.5971694926	 0.8001300533	 0.155744
N	-0.1193288412	-0.0482393302	 0.0538304136	-0.393164
N	 1.0767842832	-1.8980011851	 1.2602672289	-0.313817
C	 2.1428870349	-1.8595010314	 1.9910088924	 0.038347
O	 2.7413061297	-0.6292997702	 2.0778872938	-0.189606
H	-0.4556876567	 1.7906159767	 0.990712884	 0.132495
H	-0.5622263072	 1.8329699122	-0.7735018865	 0.11709
H	 1.934332245	 1.5975431167	-0.928371465	 0.114326
H	 1.4946952516	 3.0152928898	 0.0641443992	 0.12656
H	-0.1813676419	-0.4308299938	-0.8833361355	 0.236294
H	 2.6159523766	-2.6567537196	 2.5395732637	 0.14903
122.6431	238.6504	343.3148	354.5894	433.0889	473.1676	534.1413	648.273	664.9101	708.8606	727.0353	763.2659	780.8065	868.7228	928.728	944.4495	1033.2106	1051.996	1097.0307	1125.3859	1173.5421	1263.2419	1281.8576	1296.0844	1315.8772	1368.5753	1388.326	1439.0954	1456.4554	1479.6935	1504.5142	1544.621	1713.9513	3025.4431	3041.154	3105.1529	3120.9534	3290.2548	3520.1203
C1COC2=C(N1)N=CO2	C1COc2c(N1)nco2	
InChI=1S/C5H6N2O2/c1-2-8-5-4(6-1)7-3-9-5/h3,6H,1-2H2	InChI=1S/C5H6N2O2/c1-2-8-5-4(6-1)7-3-9-5/h3,6H,1-2H2
