19
gdb 36923	4.90635	0.8369	0.78211	2.6571	77.65	-0.2366	0.0119	0.2486	1474.1376	0.159086	-423.001572	-422.993133	-422.992189	-423.035806	30.863	
C	-0.1333357473	 1.5847643057	-0.5025714459	-0.240068
C	-0.1726386168	 0.0813593913	-0.6395270655	 0.102438
C	-0.7191044236	-0.784757122	 0.4135804331	-0.176741
O	-1.4647230966	-0.5156933492	-0.7749711597	-0.241652
C	 1.2168046868	 2.08342691	 0.0334890092	 0.086387
O	 2.2742121721	 1.6732691499	-0.8434350352	-0.280106
C	 3.0340844312	 2.7997675439	-1.274978113	-0.114836
C	 2.3610211809	 3.9878770764	-0.6482710008	-0.096175
C	 1.3411112133	 3.5826939352	 0.0980156395	-0.091657
H	-0.3168030081	 2.0482468213	-1.4791796796	 0.109009
H	-0.9364260273	 1.9058990919	 0.1713166003	 0.100232
H	 0.5852839587	-0.3394161994	-1.298998546	 0.108754
H	-0.358749278	-1.8070254935	 0.5202415303	 0.114534
H	-1.1175222886	-0.3384349634	 1.3247202828	 0.10722
H	 1.3870741157	 1.6280764974	 1.0245339307	 0.081766
H	 4.0816212104	 2.6938372547	-0.9498255887	 0.106355
H	 3.0414808146	 2.846487374	-2.3748880952	 0.108434
H	 2.6947998734	 5.0064174423	-0.8003360132	 0.108887
H	 0.6704419393	 4.2019889434	 0.679973157	 0.107218
62.6218	72.9908	105.6018	140.4805	269.1084	338.7263	393.9091	429.9437	534.9085	710.3875	752.2729	800.5398	830.296	847.4321	867.742	916.1564	939.9408	959.7032	993.975	1022.4346	1031.4217	1046.7894	1103.8302	1108.5048	1131.1708	1137.6888	1155.1762	1182.4728	1196.7741	1233.8731	1270.5675	1292.8715	1324.8604	1359.1782	1385.5084	1387.2218	1440.2397	1475.1673	1521.9023	1530.6115	1692.3258	2948.0676	2973.54	2993.5351	3032.5604	3077.3285	3078.8408	3126.4325	3163.9823	3207.2629	3231.74
C(C1CO1)C1OCC=C1	C([C@H]1CO1)[C@H]1OCC=C1	
InChI=1S/C7H10O2/c1-2-6(8-3-1)4-7-5-9-7/h1-2,6-7H,3-5H2	InChI=1S/C7H10O2/c1-2-6(8-3-1)4-7-5-9-7/h1-2,6-7H,3-5H2/t6-,7-/m0/s1
