23
gdb 59596	2.49728	1.30812	0.96112	1.3351	86.25	-0.2365	0.0277	0.2642	1306.0505	0.205526	-388.307159	-388.297491	-388.296546	-388.341166	37.387	
C	-0.0461262799	 1.6153165186	 0.0596804207	-0.40489
C	 0.012627453	 0.0862396101	 0.0625391876	 0.116338
O	 0.7057280722	-0.3864402376	 1.2206026537	-0.432576
C	-1.3695583265	-0.5625523613	-0.0555860006	 0.002458
C	-2.1728641322	-0.1753667434	-1.3271497493	-0.279364
C	-3.0416127982	-1.3888079414	-1.5579673379	-0.075079
C	-2.6404347593	-2.4309176623	-0.8329036432	-0.064072
C	-1.4021725865	-2.1280875318	-0.0164280213	-0.036598
C	-0.1654725424	-2.8349337197	-0.6024228423	-0.398229
H	 0.9568208469	 2.0274505667	 0.1997691139	 0.121813
H	-0.4526464676	 2.0031614838	-0.8791795939	 0.120299
H	-0.6830662242	 1.9808515552	 0.8754707562	 0.103344
H	 0.6375025076	-0.2432423263	-0.77601865	 0.089938
H	 0.1892109512	-0.1290586232	 1.9925516108	 0.274172
H	-1.9598630687	-0.2180413188	 0.807027751	 0.061023
H	-2.7491288197	 0.7462182168	-1.1893141092	 0.102266
H	-1.5133946286	 0.0038675312	-2.1903442558	 0.102808
H	-3.8681858969	-1.3909939	-2.260303724	 0.089113
H	-3.0865963059	-3.4199698277	-0.8579488155	 0.086682
H	-1.5127928523	-2.4701316945	 1.0196171688	 0.069025
H	 0.0180308931	-2.526778575	-1.6373705123	 0.109941
H	 0.7239922523	-2.6167534477	-0.0068299439	 0.138071
H	-0.3172547574	-3.9195830117	-0.6090956835	 0.103518
94.2558	106.6347	172.1036	222.1442	250.9607	275.6234	280.965	294.0849	336.8585	389.309	452.797	491.6933	518.2179	675.9698	733.7967	770.0459	781.3541	875.4619	900.9387	958.0264	970.0378	976.2029	979.5343	1001.2268	1047.989	1066.4624	1085.2725	1104.7783	1132.0987	1148.6815	1156.6487	1188.3152	1248.4552	1289.5025	1311.916	1319.5746	1332.7112	1358.9849	1366.2219	1391.5196	1401.8809	1402.3887	1417.6967	1488.1657	1491.5611	1495.8929	1498.8898	1511.0274	1688.3217	2980.0466	2992.0045	3023.6258	3026.453	3032.9401	3044.1552	3055.8373	3094.6958	3096.9041	3119.8251	3126.1055	3173.6222	3200.1914	3795.97
CC(O)C1CC=CC1C	C[C@@H](O)[C@H]1CC=C[C@H]1C	
InChI=1S/C8H14O/c1-6-4-3-5-8(6)7(2)9/h3-4,6-9H,5H2,1-2H3	InChI=1S/C8H14O/c1-6-4-3-5-8(6)7(2)9/h3-4,6-9H,5H2,1-2H3/t6-,7-,8+/m1/s1
