12
gdb 15212	2.56328	2.03967	1.5641	5.4209	59.52	-0.2934	-0.0175	0.2759	828.939	0.083031	-377.521828	-377.514091	-377.513147	-377.554365	26.679	
O	 0.1261138165	 1.3572157572	-0.0702262891	-0.393501
C	-0.0075110588	-0.0052073775	 0.0108445004	 0.143325
C	-0.4647108612	-0.7094793304	 1.2784025094	-0.250384
C	-0.8288042295	 0.0941661764	 2.4074313333	 0.300727
N	-1.1020242364	 0.7767338109	 3.3002934141	-0.314903
C	-1.3615870911	-0.6967329318	 0.0143663768	-0.250386
C	-2.5398198713	 0.1184639485	-0.0040166561	 0.300733
N	-3.4663049714	 0.8102753944	-0.0317952879	-0.314902
H	-0.5715781939	 1.8012636721	 0.4294726538	 0.317567
H	 0.7778785466	-0.497593342	-0.5513869249	 0.148172
H	-0.0116912971	-1.6648615678	 1.5195577757	 0.156777
H	-1.4486292223	-1.6444430499	-0.5056409256	 0.156775
80.6577	101.3435	148.0542	205.6757	257.2001	380.1503	401.9634	471.8705	636.3604	656.9356	677.8053	741.3128	756.7868	865.8905	987.3007	993.6866	1072.9206	1123.1162	1125.7433	1222.22	1338.1829	1349.1589	1364.6658	1446.8166	2357.1991	2358.1745	3174.5854	3178.8891	3191.7063	3779.9307
OC1C(C#N)C1C#N	O[C@H]1[C@@H](C#N)[C@H]1C#N	
InChI=1S/C5H4N2O/c6-1-3-4(2-7)5(3)8/h3-5,8H	InChI=1S/C5H4N2O/c6-1-3-4(2-7)5(3)8/h3-5,8H/t3-,4+,5-
