18
gdb 70846	3.07764	1.78495	1.43087	2.7339	73.76	-0.2279	0.0651	0.293	948.9438	0.14751	-401.863603	-401.856203	-401.855259	-401.894819	30.246	
C	-0.043596354	 1.4767874022	-0.0056139198	-0.508501
C	-0.0025853553	-0.0269154652	-0.073834424	 0.320695
C	 0.5511398598	-0.8159593709	-1.2926887425	-0.357555
C	-0.30480667	-1.9832018053	-0.729977769	 0.400562
O	-0.7992332962	-3.0245587871	-1.4989067878	-0.481017
C	 0.182941648	-2.2362815045	 0.7217512888	-0.134492
C	 0.3974528556	-0.8413288294	 1.1829170781	-0.08555
N	-0.9448501935	-1.4921309691	 1.3807317556	-0.176651
C	-1.2566375204	-0.9720917298	-0.0286885245	-0.08496
H	 0.9680511431	 1.8959569252	 0.0527954602	 0.119063
H	-0.52849501	 1.9018446595	-0.8905203759	 0.119241
H	-0.5959006312	 1.8149697653	 0.8780333375	 0.128034
H	 0.1327594917	-0.4459355868	-2.2348151177	 0.102972
H	 1.6346070943	-0.9470014336	-1.3815387465	 0.088285
H	-0.0660862938	-3.5983010791	-1.7486880262	 0.282421
H	 0.6194272671	-3.1271682991	 1.1588701718	 0.092911
H	 1.0187202841	-0.5427081256	 2.0202366627	 0.090679
H	-2.272344739	-0.7261273567	-0.3308414109	 0.083865
202.1694	221.2312	225.161	256.0481	324.119	367.4345	424.7265	567.4987	579.2329	606.3947	744.0791	774.0615	786.8676	832.7434	846.5512	871.6375	914.4415	927.3129	978.1306	993.4664	1006.6968	1021.3883	1037.8543	1068.8923	1131.8328	1144.815	1156.3969	1186.5907	1204.2138	1221.0441	1240.4895	1281.1141	1321.8169	1363.1154	1399.112	1416.3221	1486.0926	1492.3924	1492.6964	3023.5302	3037.0008	3086.3304	3097.5733	3100.1401	3143.9935	3167.6114	3181.7314	3795.314
CC12CC3(O)C4C1N4C23	C[C@@]12C[C@@]3(O)[C@H]4[C@@H]1N4[C@@H]23	
InChI=1S/C7H9NO/c1-6-2-7(9)4-3(6)8(4)5(6)7/h3-5,9H,2H2,1H3	InChI=1S/C7H9NO/c1-6-2-7(9)4-3(6)8(4)5(6)7/h3-5,9H,2H2,1H3/t3-,4+,5-,6+,7+,8?/m0/s1
