21
gdb 41403	2.42907	1.9374	1.30798	1.5958	81.08	-0.2363	0.07	0.3063	1037.8718	0.185178	-387.077988	-387.070488	-387.069544	-387.110216	30.202	
C	-0.0132113477	 1.5374511979	 0.0098762412	-0.238854
C	 1.5432562504	 1.5489573943	-0.0336546117	-0.318428
C	 1.5364471534	 0.0249954737	 0.1772063064	 0.485359
O	 2.4361465985	-0.7935133849	-0.5900993179	-0.32857
C	 2.9716733273	-1.40043534	 0.606978732	-0.099889
C	 1.8945968535	-0.7283614862	 1.4796057551	-0.132301
C	 0.6416857414	-1.5730999422	 1.7955234839	-0.224292
C	-0.5591862357	-0.7785458922	 1.2201594025	-0.230402
C	-0.0028819897	-0.0254905476	-0.0087237753	-0.063361
H	-0.4316528979	 1.9479464702	 0.9325678685	 0.097542
H	-0.5079477713	 2.0207645571	-0.8347025316	 0.103461
H	 1.9336664186	 1.7908452306	-1.025988319	 0.114924
H	 2.0720914795	 2.1568559671	 0.7060220665	 0.095198
H	 2.9523222793	-2.4960054861	 0.5625006308	 0.098066
H	 3.9993074186	-1.066320454	 0.7980079527	 0.097198
H	 2.249387044	-0.1421147329	 2.329625465	 0.072042
H	 0.7174761625	-2.539643614	 1.284011293	 0.104138
H	 0.5282204002	-1.7866611352	 2.8622068129	 0.096767
H	-1.4030819896	-1.4324906389	 0.9822675729	 0.099786
H	-0.9198324908	-0.0583430367	 1.9640183108	 0.0963
H	-0.3247225047	-0.4546606398	-0.9600733484	 0.075315
64.553	123.9102	234.5169	297.7192	373.0686	425.4694	511.4971	557.4219	600.8257	719.0614	800.8284	805.6235	816.0957	833.1722	877.8535	922.4037	940.1565	955.7739	966.6668	1005.8206	1022.9562	1037.4506	1058.6753	1084.9673	1103.1585	1152.9996	1160.9002	1168.5412	1198.4886	1217.8338	1221.9625	1243.5179	1245.679	1263.472	1283.7665	1307.7903	1323.519	1335.3068	1348.0177	1358.6236	1471.0674	1487.5448	1494.9776	1505.3077	1524.9809	3011.5608	3034.2533	3036.8403	3052.9218	3056.8038	3065.2068	3075.6789	3080.6021	3092.4982	3098.5907	3102.7915	3122.2742
C1CC23OCC2CCC13	C1C[C@@]23OC[C@@H]2CC[C@@H]13	
InChI=1S/C8H12O/c1-2-7-5-9-8(7)4-3-6(1)8/h6-7H,1-5H2	InChI=1S/C8H12O/c1-2-7-5-9-8(7)4-3-6(1)8/h6-7H,1-5H2/t6-,7-,8-/m0/s1
