14
gdb 51512	4.33502	0.96701	0.83959	3.4292	68.76	-0.2755	-0.0568	0.2187	1295.5443	0.1007	-473.862604	-473.854875	-473.853931	-473.895957	27.522	
N	-0.1374381135	 1.3492359109	 0.0407560051	-0.529
C	-0.078206214	 0.0898041842	 0.0431884097	 0.399852
O	 1.090347597	-0.6541966962	 0.0518285189	-0.242884
C	 0.7749486305	-2.0353100152	 0.064238281	 0.149714
O	 1.247055617	-2.6393500621	 1.2584268727	-0.187163
C	 2.5452328134	-3.0401146913	 1.271561323	 0.185869
O	 3.0580406276	-3.501954429	 2.2410285551	-0.257703
C	-0.7271807872	-2.0970568383	 0.0270604337	-0.119029
C	-1.2047336003	-0.8552645575	 0.0190419955	-0.1301
H	 0.7959698235	 1.7617782215	 0.0720315735	 0.235229
H	 1.2661126398	-2.5069292321	-0.7977951281	 0.112386
H	 3.0471767378	-2.8996599543	 0.2956472051	 0.092807
H	-1.2673963679	-3.0327793772	 0.0321831408	 0.14248
H	-2.2321425437	-0.5241505133	 0.0073697239	 0.147543
53.8917	107.1992	143.4375	200.1816	314.9952	393.7834	422.2456	490.0805	646.5197	694.8676	736.8639	808.2243	839.3895	892.3721	894.7095	977.7002	980.9716	1027.0283	1040.8248	1066.3433	1087.691	1115.1551	1154.5123	1256.9166	1354.5348	1367.4486	1385.8967	1439.1	1668.5706	1777.3264	1883.2503	2962.7339	3019.1323	3242.6164	3268.8751	3486.6976
N=C1OC(OC=O)C=C1	[NH]C1=C[CH][C@@H](O1)OC=O	
InChI=1S/C5H5NO3/c6-4-1-2-5(9-4)8-3-7/h1-3,5-6H	InChI=1S/C5H5NO3/c6-4-1-2-5(9-4)8-3-7/h1-3,5-6H/t5-/m1/s1
