16
gdb 123793	5.48995	0.93315	0.82727	4.4066	71.44	-0.2208	-0.031	0.1898	1337.6888	0.124889	-434.017406	-434.009695	-434.008751	-434.05058	28.677	
C	-0.3704082232	 1.0871254933	-0.2410776562	-0.25478
C	 1.0488688678	 1.141284405	 0.2655658334	-0.283566
C	 0.3813557313	-0.1884965877	 0.0600322979	 0.024633
N	 0.0069058462	-0.925935175	 1.2298819757	-0.388014
C	-1.0257567826	-1.8357995011	 1.1281433517	 0.322062
C	-2.0472805448	-1.9716167932	 0.2364135173	-0.055187
O	-2.8077561791	-3.0074024692	 0.6397375628	-0.157459
N	-2.2242371845	-3.515996755	 1.8021490443	-0.002917
N	-1.1958560267	-2.8272086557	 2.0695095993	-0.208504
H	-1.1557584629	 1.3681336323	 0.4504001682	 0.130401
H	-0.5604945945	 1.3330353853	-1.2796237578	 0.118921
H	 1.8375635119	 1.4236659662	-0.4218286985	 0.121981
H	 1.1985459912	 1.4626940251	 1.2897424951	 0.12687
H	 0.7020122522	-0.7795183931	-0.7997751643	 0.09365
H	 0.7753155096	-1.2749292077	 1.7869002581	 0.252194
H	-2.3467972617	-1.4519031694	-0.6552405271	 0.159715
68.294	74.8431	123.8041	305.2648	343.7101	379.7287	476.3455	571.3836	641.3508	716.7782	756.1502	762.1544	766.4793	778.8798	844.4648	849.3638	963.8775	1004.9415	1020.3317	1057.3944	1064.6807	1083.8389	1118.5006	1133.5107	1193.036	1197.2491	1242.8012	1283.6478	1314.531	1403.7776	1417.1959	1458.4648	1495.6302	1512.6952	1667.5463	3078.4583	3142.126	3146.6644	3227.0346	3240.4721	3311.3531	3581.0904
C1CC1NC1=CON=N1	C1CC1Nc1conn1	
InChI=1S/C5H7N3O/c1-2-4(1)6-5-3-9-8-7-5/h3-4,6H,1-2H2	InChI=1S/C5H7N3O/c1-2-4(1)6-5-3-9-8-7-5/h3-4,6H,1-2H2
