18
gdb 58015	2.67661	0.97306	0.85737	3.35	71.62	-0.2512	-0.0042	0.247	1406.9505	0.145119	-476.262019	-476.251567	-476.250623	-476.299353	34.579	
C	-0.0438157688	 1.2079904222	-0.2777298061	-0.344415
N	-0.0063775566	-0.2467770597	-0.2867203724	-0.078005
C	-0.9318594422	-0.9005162715	 0.6229175284	-0.347732
C	 0.9157321242	-0.8738346871	-1.0712234051	 0.393709
O	 1.7241005767	-0.2788334433	-1.767565139	-0.373891
C	 0.9448685518	-2.4118885836	-1.0710993304	-0.223565
O	-0.303441314	-3.0136142781	-1.4410721011	-0.178439
C	-0.5406948799	-3.1747462539	-2.763876086	 0.172178
O	-1.5690487323	-3.6162187051	-3.1751040355	-0.266918
H	 0.205572685	 1.5936786612	 0.7187625997	 0.125638
H	 0.6810942362	 1.5770631942	-1.0006625555	 0.172077
H	-1.0470214135	 1.5627143682	-0.5415792164	 0.128033
H	-0.9306268736	-1.978776337	 0.4887092291	 0.16827
H	-0.6825134999	-0.6633494931	 1.6657870866	 0.125259
H	-1.9520214348	-0.546274868	 0.4327500413	 0.136888
H	 1.7358779901	-2.6934508512	-1.7700067343	 0.150119
H	 1.1891754748	-2.8104845699	-0.0832719827	 0.140204
H	 0.3139788567	-2.8642383247	-3.3934647207	 0.10059
38.4148	48.6234	95.1353	98.1235	138.5607	145.8502	237.7997	251.1723	327.7665	364.5972	402.3675	459.5601	559.5899	635.6339	726.5076	764.7048	973.4356	1005.6849	1042.349	1059.0414	1085.3337	1124.4008	1130.381	1180.7085	1211.1138	1282.2237	1302.167	1374.6892	1424.5243	1431.2611	1442.9491	1476.3575	1481.7766	1497.3536	1501.1218	1508.1218	1547.442	1754.3802	1870.8516	2971.583	3012.8429	3021.3355	3063.4194	3069.5849	3070.157	3126.3039	3174.3139	3188.1791
CN(C)C(=O)COC=O	CN(C)C(=O)COC=O	
InChI=1S/C5H9NO3/c1-6(2)5(8)3-9-4-7/h4H,3H2,1-2H3	InChI=1S/C5H9NO3/c1-6(2)5(8)3-9-4-7/h4H,3H2,1-2H3
