18
gdb 92795	3.15096	1.19408	0.94337	0.5616	76.03	-0.2137	-0.0119	0.2018	1251.2585	0.149653	-435.320901	-435.312421	-435.311477	-435.354297	31.473	
C	 0.8624121292	 1.4741609364	-0.4084716632	-0.393657
C	 0.251326232	 0.2072914539	 0.1952557682	 0.022402
C	-0.1349627044	-0.865464076	-0.8721114292	-0.170432
N	 0.9509351468	-1.8595088219	-0.8712185021	-0.355293
C	 1.633026868	-1.597070715	 0.1804911348	 0.490989
N	 2.740649726	-2.3703410947	 0.5340237087	-0.38767
C	 3.6734456854	-2.0871637357	 1.4924667783	 0.162007
O	 3.6755563532	-1.1139776134	 2.2166315785	-0.317446
N	 1.2217031259	-0.5638186443	 0.9887268701	-0.346149
H	 1.6962444508	 1.2230072465	-1.0725039643	 0.127392
H	 0.1120616335	 2.0180231891	-0.9919402496	 0.119544
H	 1.2342853869	 2.1476990171	 0.3710262819	 0.117244
H	-0.6068781435	 0.4756430095	 0.8191571426	 0.083827
H	-1.0826424349	-1.3563241174	-0.6146255526	 0.106318
H	-0.2571508143	-0.425353023	-1.8674428227	 0.104944
H	 2.8813168735	-3.1754640412	-0.0586954286	 0.272769
H	 4.4530082127	-2.8691082988	 1.5384891876	 0.099345
H	 1.9134954631	-0.118712741	 1.5773607416	 0.263865
81.4368	100.171	190.8508	207.6605	255.0977	298.2117	350.2121	390.6534	441.7042	594.3252	622.7587	641.868	723.8266	753.2401	829.8769	853.8141	932.5123	960.0935	987.6872	1027.9755	1031.2477	1065.4796	1127.5138	1134.0256	1153.706	1230.9588	1285.0727	1312.5632	1328.1283	1383.6872	1405.6287	1437.4482	1482.3747	1490.1785	1494.7601	1502.869	1511.8679	1716.2968	1799.3903	2973.3937	3014.6048	3029.8167	3051.6131	3064.382	3101.2678	3108.5791	3585.0419	3624.1505
CC1CN=C(NC=O)N1	C[C@H]1C[N][C](NC=O)N1	
InChI=1S/C5H9N3O/c1-4-2-6-5(8-4)7-3-9/h3-4H,2H2,1H3,(H2,6,7,8,9)	InChI=1S/C5H9N3O/c1-4-2-6-5(8-4)7-3-9/h3-4H,2H2,1H3,(H2,6,7,8,9)/t4-/m0/s1
