23
gdb 103542	2.39749	1.3334	1.16243	1.359	86.33	-0.2441	0.0188	0.263	1227.3387	0.205218	-388.305922	-388.296228	-388.295284	-388.33987	37.787	
C	 0.1429555016	 1.5619962269	 0.0693465905	-0.401736
C	 0.0321326718	 0.0329628621	 0.0337132488	-0.195757
C	-1.4054002268	-0.527203677	-0.0168307147	 0.224754
C	-2.2291386996	-0.028936932	 1.1920932724	-0.425633
C	-2.150001447	-0.2130178982	-1.3071301902	-0.097268
C	-2.8535923916	-1.2528870257	-1.7554122239	-0.094933
C	-2.6911360089	-2.4586243717	-0.858715502	-0.290186
C	-1.4274761859	-2.0985575424	-0.0377939176	 0.0925
O	-0.2683616611	-2.6686200147	-0.6301362424	-0.434773
H	 1.1945308676	 1.8655400846	 0.0618008869	 0.113285
H	-0.3356979002	 2.0286237801	-0.7984003711	 0.113149
H	-0.3125684051	 1.9885158313	 0.9680391096	 0.117441
H	 0.5925310887	-0.3454935436	-0.8264022028	 0.087213
H	 0.5330377765	-0.3853654531	 0.9159501347	 0.097382
H	-2.4274469306	 1.0446754129	 1.1283714605	 0.116355
H	-3.1980732467	-0.5351567878	 1.2433739774	 0.113831
H	-1.6960659237	-0.2181797949	 2.1311166958	 0.111834
H	-2.1371506654	 0.7711227688	-1.7633508868	 0.090637
H	-3.4969301343	-1.2465737976	-2.6287001326	 0.091546
H	-3.5741804869	-2.5990909896	-0.2207595841	 0.109234
H	-2.5390785911	-3.4023578504	-1.3935165948	 0.106019
H	-1.4502446679	-2.5056251609	 0.9770446706	 0.07671
H	-0.2605532634	-2.402902717	-1.5571313841	 0.278397
83.7424	104.9694	189.9692	214.197	247.7764	265.8876	300.2874	341.5846	359.9874	379.3573	431.593	479.1814	526.5206	630.0432	742.6445	765.2178	781.6097	813.6969	864.1091	916.3976	932.2626	956.8267	976.5721	999.063	1001.6384	1020.2681	1062.4984	1082.0465	1120.5465	1162.6475	1176.0709	1206.3106	1210.4676	1257.8831	1295.1703	1307.6968	1321.206	1367.4556	1382.3012	1408.1403	1415.1811	1432.3284	1474.0805	1478.3212	1495.285	1496.5229	1504.8463	1513.1811	1673.7197	3017.3552	3027.7212	3031.2661	3035.9175	3067.0837	3073.1858	3075.2424	3097.3564	3099.3263	3105.0171	3112.0468	3177.0981	3202.3375	3789.9348
CCC1(C)C=CCC1O	CC[C@@]1(C)C=CC[C@H]1O	
InChI=1S/C8H14O/c1-3-8(2)6-4-5-7(8)9/h4,6-7,9H,3,5H2,1-2H3	InChI=1S/C8H14O/c1-3-8(2)6-4-5-7(8)9/h4,6-7,9H,3,5H2,1-2H3/t7-,8+/m1/s1
