16
gdb 47078	3.07828	1.597	1.10466	4.3908	75.07	-0.2147	-0.0386	0.1761	1043.7423	0.126656	-437.901166	-437.89394	-437.892996	-437.933096	27.514	
O	 0.0195864571	-0.0432016192	 0.0158461837	-0.341845
C	 0.0244896808	 1.1670873655	-0.0400598649	 0.273404
C	-1.2119217876	 2.0801109419	 0.1957838007	-0.190477
O	-0.7315458374	 3.4139765734	 0.3806685821	-0.272895
C	 0.4971632734	 3.5030833351	-0.3402698164	 0.05727
C	 1.5830522122	 4.4074832416	 0.2844319161	-0.201991
N	 2.7875977613	 3.5399923759	 0.2354618617	-0.283814
C	 2.3903635972	 2.2307090084	 0.1166884887	-0.09777
C	 1.0958850138	 2.1232128388	-0.253063968	 0.08112
H	-1.8823647224	 2.0163166816	-0.6767955747	 0.114797
H	-1.7690522098	 1.7689767961	 1.083109547	 0.133291
H	 0.2855372101	 3.8138189543	-1.3769662546	 0.079589
H	 1.7485242565	 5.3294100622	-0.2755929918	 0.12308
H	 1.3178475481	 4.6570867516	 1.3201630265	 0.126376
H	 3.5698727894	 3.7571740314	 0.833942159	 0.252882
H	 3.0892122273	 1.4344583314	 0.3426309649	 0.146983
100.6402	156.7611	166.5095	303.7951	385.5774	461.1824	506.6938	552.1693	583.8004	659.3886	688.0915	719.4636	880.5838	924.2361	938.5188	961.4405	1002.2636	1014.5066	1047.2217	1059.1228	1099.8569	1149.7116	1199.7559	1213.2376	1234.2393	1279.1158	1294.2127	1327.1195	1365.9992	1389.1961	1462.2377	1483.2817	1506.6003	1665.3335	1805.2262	2953.1819	2979.0197	3027.4006	3099.8349	3113.4549	3217.0744	3618.3359
O=C1COC2CNC=C12	O=C1CO[C@H]2CN[CH][C]12	
InChI=1S/C6H7NO2/c8-5-3-9-6-2-7-1-4(5)6/h1,6-7H,2-3H2	InChI=1S/C6H7NO2/c8-5-3-9-6-2-7-1-4(5)6/h1,6-7H,2-3H2/t6-/m0/s1
