14
gdb 24914	4.9276	1.34627	1.06433	1.8983	69.03	-0.2077	0.0021	0.2098	1043.8604	0.103066	-436.710857	-436.704279	-436.703335	-436.741934	25.719	
N	 0.0138760742	 1.2212747453	 0.0069003238	-0.511186
C	-0.0219356288	-0.031069425	 0.000744011	 0.399235
C	-1.2832613739	-0.9191470756	 0.0032268721	-0.450764
C	-0.6689507439	-2.2878860589	-0.0071990081	 0.146616
C	 0.6630461686	-2.1052301415	-0.0137061376	 0.435735
O	 1.3863741638	-3.2192705008	-0.0235030724	-0.202279
C	 0.4289227129	-4.2312866142	-0.0234812059	-0.024097
C	-0.8323108732	-3.714011966	-0.0135987441	-0.344436
O	 1.1442222691	-0.8384018614	-0.0099010062	-0.258803
H	 0.972528019	 1.5713716927	 0.003335187	 0.239145
H	-1.886439491	-0.6878909273	 0.8877690628	 0.152542
H	-1.8962833009	-0.6788834503	-0.8720983475	 0.152545
H	 0.8287695011	-5.2295888583	-0.0309489944	 0.143537
H	-1.7439915969	-4.2907646487	-0.0114379206	 0.12221
104.0717	200.0376	300.1281	340.8406	533.803	535.0144	551.6058	600.8261	646.8346	714.9058	724.1096	785.2622	824.9556	833.8713	894.7817	924.5068	972.3759	978.1245	1020.4761	1114.463	1157.425	1159.4494	1223.5403	1257.8622	1286.4165	1399.706	1469.1256	1494.9434	1525.453	1681.6812	1806.6976	3046.6354	3076.5414	3257.6149	3305.8284	3490.7753
N=C1CC2=C(OC=C2)O1	[NH][C]1Cc2c(occ2)O1	
InChI=1S/C6H5NO2/c7-5-3-4-1-2-8-6(4)9-5/h1-2,7H,3H2	InChI=1S/C6H5NO2/c7-5-3-4-1-2-8-6(4)9-5/h1-2,7H,3H2
