18
gdb 79375	2.38299	1.8849	1.21007	0.5813	84.47	-0.2107	0.0312	0.2419	1045.9385	0.146492	-364.678012	-364.670128	-364.669184	-364.709955	31.503	
C	 0.055721801	 1.4704546109	-0.3662968687	-0.341368
N	 0.0437740818	 0.0346291054	-0.0976196027	-0.107687
C	-1.0213342725	-0.4791618781	 0.8059748175	-0.060222
C	-0.139043013	-1.6902531379	 1.2320328424	-0.077886
C	-0.3946428828	-1.4710300254	 2.7297018548	-0.312464
C	-0.3353136166	-0.0258360346	 2.1765928008	 0.25913
C	-0.4882849708	 1.1827214982	 2.9249362008	 0.084593
C	-0.622864921	 2.1763348023	 3.592816999	-0.394022
C	 0.7788166076	-0.4378000106	 1.1071420694	-0.060225
H	 1.0199909258	 1.739568915	-0.8101215907	 0.118637
H	-0.7228471458	 1.6995356872	-1.10153208	 0.118637
H	-0.1069853863	 2.1001879323	 0.5202753712	 0.121485
H	-2.0852347432	-0.4604130828	 0.5627505829	 0.087291
H	-0.0227149902	-2.6100678865	 0.6630466378	 0.087596
H	-1.3640487644	-1.7942504481	 3.1189533738	 0.104576
H	 0.408812721	-1.7535152726	 3.4155567461	 0.104576
H	-0.7394688547	 3.0611197033	 4.1680726679	 0.180059
H	 1.862008694	-0.3697188279	 1.2231288977	 0.087292
141.3167	155.3925	206.3702	249.0687	280.4951	425.4895	442.4921	498.3739	525.859	621.1335	625.6721	626.355	726.5825	732.6616	826.413	842.2531	872.7736	896.1153	925.0924	1002.9353	1010.8483	1059.2796	1076.895	1095.9623	1118.8107	1130.9612	1156.0515	1172.9194	1176.3527	1208.0946	1234.0368	1274.3577	1279.7526	1319.2054	1449.3949	1491.464	1502.8451	1514.3926	2218.9833	3000.783	3052.0759	3072.3402	3097.5863	3100.8278	3105.2123	3110.3919	3148.3829	3501.5715
CN1C2C3CC2(C#C)C13	CN1[C@H]2[C@@H]3C[C@@]2(C#C)[C@H]13	
InChI=1S/C8H9N/c1-3-8-4-5-6(8)9(2)7(5)8/h1,5-7H,4H2,2H3	InChI=1S/C8H9N/c1-3-8-4-5-6(8)9(2)7(5)8/h1,5-7H,4H2,2H3/t5-,6-,7+,8+
