25
gdb 113935	3.35641	0.7463	0.67084	1.0815	90.67	-0.2419	0.0846	0.3265	1823.9748	0.226662	-389.47444	-389.463388	-389.462444	-389.511201	40.346	
C	 0.194588784	 0.9488357945	-0.8864292514	-0.229247
O	-0.0241158241	 0.195760551	 0.2883486464	-0.234144
C	-1.3082723478	-0.3381591661	 0.3600890497	 0.111767
C	-1.6165821074	-1.6227103034	-0.37266881	-0.325444
C	-1.4873180496	-1.604453859	 1.1425571368	-0.051218
C	-0.3073177394	-2.2748971285	 1.8176202821	-0.196099
C	-0.4157688305	-3.8081529687	 1.9275388093	 0.052416
C	 0.8864637643	-4.3961572346	 2.4872721012	-0.387492
C	-1.6166831616	-4.2506836848	 2.7750400922	-0.381759
H	 1.2206158725	 1.3221835912	-0.8445282808	 0.125276
H	 0.0686276149	 0.3370902749	-1.7914450579	 0.107854
H	-0.4931102913	 1.8059548425	-0.951715533	 0.104467
H	-2.0957643954	 0.4160492521	 0.4166438775	 0.07994
H	-2.5924373121	-1.7568328449	-0.8267971557	 0.106698
H	-0.7939942644	-2.0685200489	-0.9233651809	 0.114809
H	-2.4237086329	-1.6633421479	 1.6905058972	 0.085953
H	 0.6029150281	-2.0145965055	 1.2681687278	 0.103905
H	-0.1821691989	-1.8535227383	 2.8254975597	 0.090205
H	-0.5568328179	-4.2032350574	 0.9113611837	 0.070543
H	 1.0766517917	-4.0302402569	 3.5036554995	 0.110115
H	 0.8417365077	-5.489550266	 2.5331432345	 0.10591
H	 1.7477053616	-4.120134216	 1.8696307427	 0.108175
H	-1.5405226042	-3.8563631797	 3.7960784831	 0.108362
H	-2.565113231	-3.905048425	 2.3531557477	 0.111979
H	-1.6659593765	-5.3424164346	 2.8459278884	 0.107031
44.6763	72.2792	112.916	117.6828	188.917	201.2878	230.4671	248.4672	283.3853	313.5516	387.3238	406.0634	441.9214	486.3875	593.0728	767.6194	822.2185	830.4731	870.3558	886.6816	929.6806	956.311	966.8086	987.6673	1021.0389	1045.6393	1058.8666	1113.5433	1134.5794	1156.0885	1171.1642	1183.7201	1190.3352	1195.8321	1224.7326	1261.9279	1272.0225	1306.296	1360.2184	1372.8821	1392.2028	1399.8483	1416.5928	1423.5949	1472.5026	1481.8013	1485.17	1489.3285	1492.1899	1497.6313	1505.6488	1508.7205	1511.0554	2980.8526	2998.6704	3012.4538	3021.0865	3026.7523	3031.329	3076.0389	3076.7549	3084.9365	3091.7061	3096.0385	3103.2194	3116.0796	3126.4375	3145.0393	3214.4293
COC1CC1CC(C)C	CO[C@H]1C[C@H]1CC(C)C	
InChI=1S/C8H16O/c1-6(2)4-7-5-8(7)9-3/h6-8H,4-5H2,1-3H3	InChI=1S/C8H16O/c1-6(2)4-7-5-8(7)9-3/h6-8H,4-5H2,1-3H3/t7-,8+/m1/s1
