18
gdb 51049	2.33585	1.45608	1.16138	4.2306	73.	-0.2457	-0.0273	0.2184	1123.2617	0.146371	-439.105891	-439.09685	-439.095905	-439.14021	32.554	
O	-0.1972048821	 0.0668772232	-0.6410012405	-0.327295
C	-0.1577231578	 1.0592466473	 0.052826074	 0.157368
N	 0.9717054105	 1.7830953843	 0.3142606007	-0.338063
C	 2.28224206	 1.2679079586	-0.0091989954	 0.235134
C	 2.5560602995	 0.880707448	-1.4968232613	-0.238177
C	 3.9086314017	 1.6362648013	-1.4322654072	-0.224438
C	 3.4217204491	 2.3362790647	-0.1362552791	-0.282911
C	 2.7065482597	 0.1659626572	 0.950752901	 0.15688
O	 2.1037500385	-0.1425229467	 1.9437707177	-0.265221
H	-1.0555775222	 1.5128026121	 0.5166810602	 0.082987
H	 0.9171402726	 2.4414636506	 1.0779491648	 0.248286
H	 2.5659792195	-0.1850526915	-1.7277468879	 0.12434
H	 1.8301159582	 1.3687313759	-2.147436083	 0.130607
H	 4.7556250768	 0.969617565	-1.2503982146	 0.113499
H	 4.158051613	 2.2830207721	-2.2750616011	 0.111907
H	 2.9836636881	 3.3175728617	-0.3336717829	 0.119803
H	 4.1218691659	 2.4213740561	 0.6987947602	 0.113572
H	 3.662705829	-0.3341046599	 0.6732424845	 0.081724
58.6138	109.1983	121.933	151.7505	194.4642	277.1467	313.9762	394.4926	405.3026	505.4209	513.1794	669.6293	742.0273	776.4929	838.4514	853.6283	902.3608	944.1729	953.9651	975.2812	1029.2037	1070.5148	1103.3024	1126.1458	1182.5397	1212.7249	1233.8658	1252.1724	1270.58	1277.2586	1320.6309	1420.0537	1429.8514	1468.2834	1481.5089	1499.7513	1503.5639	1802.3722	1837.4683	2871.6383	2942.6654	3060.3353	3067.968	3092.7708	3109.7229	3125.0097	3150.2196	3605.743
O=CNC1(CCC1)C=O	O=CNC1(CCC1)C=O	
InChI=1S/C6H9NO2/c8-4-6(7-5-9)2-1-3-6/h4-5H,1-3H2,(H,7,9)	InChI=1S/C6H9NO2/c8-4-6(7-5-9)2-1-3-6/h4-5H,1-3H2,(H,7,9)
