19
gdb 112517	3.20249	0.99842	0.8877	4.671	76.76	-0.2578	0.0118	0.2697	1367.2878	0.158985	-419.196593	-419.187098	-419.186154	-419.231547	34.431	
C	 0.0059452204	 1.4511875942	-0.2701329128	-0.389185
C	 0.0333098573	-0.0439596722	 0.061687581	-0.17372
C	-1.3593324366	-0.6495163852	 0.1176688089	 0.007847
N	-2.1048312717	-0.6686631856	-1.1698845166	-0.321206
C	-2.6691590295	-2.0007925331	-0.8711348252	-0.193428
C	-2.707272167	-2.9242488726	-2.0030559359	 0.303745
N	-2.7113826444	-3.6598342662	-2.8945094193	-0.323054
C	-1.5216812525	-2.2019867017	 0.187857743	 0.122702
O	-0.4369279156	-2.9791636137	-0.218877897	-0.410173
H	 1.0179033243	 1.8638688976	-0.3126349152	 0.12103
H	-0.4650608175	 1.624555312	-1.2431909078	 0.12603
H	-0.5538019314	 2.0177490541	 0.4827200637	 0.112751
H	 0.628350814	-0.5775363879	-0.6870298838	 0.09403
H	 0.5231698456	-0.2103689552	 1.0289863025	 0.105174
H	-1.934701624	-0.1835848633	 0.9338062331	 0.067064
H	-2.784977705	 0.0676626158	-1.3216628367	 0.230156
H	-3.6548903619	-1.9912674167	-0.385721191	 0.112779
H	-1.8471866633	-2.6062829156	 1.1465964668	 0.107002
H	-0.1911556712	-2.7340686147	-1.1188327977	 0.300455
46.6966	83.4044	132.7218	172.0536	219.714	239.8491	289.7395	349.4094	375.021	429.6315	478.667	566.861	638.0892	704.8732	760.8516	787.2215	837.6077	919.4557	969.3146	977.9945	997.8087	1055.5858	1065.3716	1112.0671	1153.9341	1161.8689	1178.921	1241.7222	1253.1569	1284.7663	1319.4135	1337.2443	1362.6961	1382.428	1407.9056	1420.7843	1445.3459	1474.6373	1500.6086	1509.2372	2356.1649	2970.0154	3007.679	3032.2367	3036.194	3073.9957	3102.7303	3110.6544	3116.4251	3537.942	3797.433
CCC1NC(C#N)C1O	CC[C@H]1N[C@@H](C#N)[C@H]1O	
InChI=1S/C6H10N2O/c1-2-4-6(9)5(3-7)8-4/h4-6,8-9H,2H2,1H3	InChI=1S/C6H10N2O/c1-2-4-6(9)5(3-7)8-4/h4-6,8-9H,2H2,1H3/t4-,5+,6+/m1/s1
