18
gdb 37312	2.89041	1.81628	1.51603	1.4441	75.55	-0.2372	0.0041	0.2413	926.5183	0.150466	-401.895777	-401.888961	-401.888017	-401.926809	27.761	
C	-0.0580918081	 1.2823517316	-0.215943441	-0.249878
C	 1.281607073	 0.6664369954	-0.136325492	-0.069344
C	 1.6765109124	 0.1657489132	 1.2523662083	 0.116855
O	 2.0872400463	 1.0264482112	 2.2859858525	-0.270373
C	 1.0843166078	 1.7992198616	 2.9242508442	-0.117854
C	-0.2432877131	 1.1118617153	 3.0875171544	-0.076019
C	-0.6117131873	 0.04862614	 2.3716524408	-0.067649
C	 0.2955120971	-0.5259849654	 1.3394883752	-0.07085
N	 0.0056227743	-0.18301657	-0.130243473	-0.145232
H	-0.4810556634	 1.8496824131	 0.6058991733	 0.120738
H	-0.3671200106	 1.6223238401	-1.2001882734	 0.121982
H	 1.9509728934	 0.6603909547	-0.9911139959	 0.093836
H	 2.4813048888	-0.5674863222	 1.1617867637	 0.09796
H	 1.4933377168	 2.0574197391	 3.9085226316	 0.119148
H	 0.9375272228	 2.7553587886	 2.3918418335	 0.108194
H	-0.9109242531	 1.5463110877	 3.8276479996	 0.100713
H	-1.5854710527	-0.4118772272	 2.5164156879	 0.098113
H	 0.3508193356	-1.6143371867	 1.4135369902	 0.089659
144.6703	160.5771	263.3909	375.1582	446.7361	472.3059	542.0528	604.6829	695.1707	709.0287	742.5132	785.236	830.8086	883.1854	923.3254	947.786	971.5261	999.9973	1013.766	1029.0441	1050.9008	1076.6402	1098.4231	1121.4832	1138.9298	1153.9677	1203.2373	1229.6421	1254.3014	1269.006	1276.4102	1348.2929	1376.2703	1385.8161	1416.1906	1419.7787	1494.9463	1504.8356	1712.9348	2950.3399	3046.6534	3073.4989	3087.5843	3126.0924	3150.193	3158.5869	3171.9539	3209.1365
C1C2C3OCC=CC3N12	C1[C@H]2[C@H]3OCC=C[C@H]3N12	
InChI=1S/C7H9NO/c1-2-5-7(9-3-1)6-4-8(5)6/h1-2,5-7H,3-4H2	InChI=1S/C7H9NO/c1-2-5-7(9-3-1)6-4-8(5)6/h1-2,5-7H,3-4H2/t5-,6+,7+,8?/m1/s1
