17
gdb 16347	3.13318	1.82694	1.44417	2.9771	64.03	-0.2444	0.0587	0.3031	906.6891	0.142311	-400.943023	-400.9351	-400.934156	-400.975527	29.602	
O	 0.0849340983	 1.3951533735	 0.2238316962	-0.407631
C	 0.0470422805	-0.0069745244	 0.0111136095	-0.184975
C	-1.3420072125	-0.5308241397	-0.165259928	 0.28424
N	-2.2273342498	-0.8300931883	 1.000402666	-0.400356
C	-1.92930747	-1.8889668092	-0.0024146721	-0.108596
C	-2.9152985939	-1.6729809072	-1.148907708	-0.260201
C	-2.3546500763	-0.2026107933	-1.2851996206	 0.106185
O	-3.2286601307	 0.8608012523	-1.0394689782	-0.436076
H	-0.60537111	 1.6172819149	 0.8571273887	 0.288703
H	 0.6343905449	-0.1838895233	-0.8972295862	 0.116476
H	 0.5438632805	-0.5584345227	 0.8295328209	 0.079798
H	-1.6254149955	-0.996720523	 1.8070537208	 0.22896
H	-1.4474659575	-2.8083772313	 0.307603341	 0.099249
H	-2.7024932393	-2.2859228099	-2.027795945	 0.106502
H	-3.973574607	-1.7518888196	-0.8880754029	 0.10679
H	-1.8810747805	-0.0194061434	-2.2521154048	 0.095003
H	-3.5383457812	 0.7305346547	-0.1324535773	 0.285927
64.6597	117.8167	185.8081	240.6013	309.8134	348.497	403.0447	484.2085	529.4017	569.0911	679.0442	725.459	820.916	882.3059	911.6317	925.8233	958.8976	1015.6694	1029.7675	1056.8864	1067.658	1111.1447	1133.3283	1163.5725	1192.5219	1201.9425	1245.4807	1280.6732	1302.3975	1349.35	1367.05	1407.2902	1445.2758	1451.2914	1479.2139	1502.0564	2943.4011	3058.2388	3064.2196	3094.4854	3125.0704	3189.8894	3465.6393	3749.9755	3816.9624
OCC12NC1CC2O	OC[C@]12N[C@H]1C[C@H]2O	
InChI=1S/C5H9NO2/c7-2-5-3(6-5)1-4(5)8/h3-4,6-8H,1-2H2	InChI=1S/C5H9NO2/c7-2-5-3(6-5)1-4(5)8/h3-4,6-8H,1-2H2/t3-,4+,5-/m0/s1
