12
gdb 132708	5.46889	1.02232	0.86131	3.6035	65.86	-0.2641	-0.0845	0.1796	1186.0415	0.077684	-476.819461	-476.812538	-476.811594	-476.85137	24.958	
F	-0.0304627389	 0.0220820509	 0.0035199601	-0.054534
C	-0.0260159013	 1.3483526139	 0.0106811217	 0.236297
C	-1.2162789628	 2.0621568678	 0.0302185398	-0.101793
N	-1.2066492014	 3.3928859973	 0.0373212383	-0.256589
C	-0.0088390319	 3.9895101851	 0.0248157905	 0.246244
C	-0.0525677046	 5.4919677876	 0.0335506331	 0.118025
O	 0.9170920412	 6.2019032329	 0.0247879679	-0.23464
N	 1.1824449824	 3.3825072661	 0.0058534918	-0.242778
C	 1.172692979	 2.0545947248	-0.0012390043	-0.097966
H	-2.1739844786	 1.5480328535	 0.0400235036	 0.143606
H	-1.0906379642	 5.8827839868	 0.0494185299	 0.099217
H	 2.124521321	 1.5290655634	-0.0166086723	 0.144911
82.8536	167.6179	201.8242	363.5511	385.1197	436.0946	438.3269	521.6409	612.5809	652.2516	791.8159	811.0588	882.3527	955.3612	982.4442	1042.8954	1046.9032	1253.4865	1260.7412	1296.1642	1304.2815	1397.2345	1424.4532	1470.2663	1593.82	1620.6916	1831.007	2933.7887	3167.9418	3170.6547
FC1=CN=C(C=O)N=C1	Fc1cnc(C=O)nc1	
InChI=1S/C5H3FN2O/c6-4-1-7-5(3-9)8-2-4/h1-3H	InChI=1S/C5H3FN2O/c6-4-1-7-5(3-9)8-2-4/h1-3H
