17
gdb 11942	3.21069	1.78056	1.47128	3.2641	70.62	-0.245	-0.0268	0.2183	915.589	0.14151	-363.842716	-363.834943	-363.833999	-363.874654	29.042	
C	 0.0360860859	 1.5312381408	 0.047885906	-0.476412
C	-0.032785933	 0.0336941431	 0.0760854294	 0.281736
C	-1.3177049048	-0.8090128464	-0.0283177593	-0.280249
C	-0.7138409462	-1.8432761237	 0.974877693	-0.301015
C	 0.5589148686	-0.9974794852	 1.0561397946	 0.19331
N	 1.1359348775	-0.7426394576	-0.2687983121	-0.388126
C	 1.3870139111	-0.7617678679	 2.2490604593	 0.082922
O	 1.1256210344	-1.1979560663	 3.3460947587	-0.270255
H	 1.0423533797	 1.8794049446	 0.2909443344	 0.138017
H	-0.2142147558	 1.9006397962	-0.9541865299	 0.128461
H	-0.6742820851	 1.9734954411	 0.7533000435	 0.126804
H	-2.196535286	-0.3006084786	 0.3745832965	 0.115698
H	-1.5534588179	-1.1664836569	-1.0364436621	 0.101558
H	-1.2476915164	-1.8762966719	 1.92550938	 0.133573
H	-0.5725628944	-2.8667865581	 0.6136776778	 0.103069
H	 0.9481352268	-1.5086864677	-0.9141928339	 0.231916
H	 2.2797453557	-0.1263952756	 2.0621940039	 0.078994
101.8899	176.4189	197.3589	213.5048	249.062	335.9032	428.9233	475.7879	510.0501	604.9827	729.0061	772.993	781.2726	803.3093	939.5022	948.2842	987.1503	1034.6893	1077.5882	1079.6368	1096.6549	1131.0839	1161.6979	1207.4014	1227.8501	1250.6133	1262.0057	1357.0547	1391.2663	1410.6079	1459.3076	1478.5847	1484.0521	1492.7916	1502.5381	1800.4902	2900.7255	3031.025	3045.4634	3057.6889	3092.924	3106.7032	3130.6499	3132.5386	3456.6236
CC12CCC1(N2)C=O	C[C@]12CC[C@]1(N2)C=O	
InChI=1S/C6H9NO/c1-5-2-3-6(5,4-8)7-5/h4,7H,2-3H2,1H3	InChI=1S/C6H9NO/c1-5-2-3-6(5,4-8)7-5/h4,7H,2-3H2,1H3/t5-,6-/m0/s1
