18
gdb 93253	2.89862	1.343	0.95747	4.2456	69.24	-0.2427	0.0481	0.2908	1198.1014	0.148234	-476.261799	-476.252855	-476.251911	-476.295754	32.239	
C	-0.0800564356	 1.4187205118	-0.1014442607	-0.336902
N	 0.0046790584	-0.0276453923	 0.0097265457	-0.162026
C	-1.2668823786	-0.7340469623	 0.0673432619	-0.145321
C	-1.080719278	-2.191696573	 0.4636764535	 0.059125
O	-2.2609873065	-2.8761738096	 0.0877632503	-0.422125
C	 0.1512218456	-2.7090210792	-0.2675129984	-0.103615
O	 1.2983736582	-1.9655561266	 0.1327808361	-0.2457
C	 1.2497607309	-0.6011150646	 0.1094020195	 0.477746
O	 2.2809368926	 0.0218058212	 0.1875339711	-0.395352
H	 0.929443667	 1.8185650719	-0.17170864	 0.173723
H	-0.6528076905	 1.7002299573	-0.9938993149	 0.121367
H	-0.5792286787	 1.849548278	 0.7761248649	 0.121921
H	-1.9292231672	-0.2273857035	 0.7801581339	 0.117247
H	-1.7683283949	-0.710050617	-0.9114757426	 0.12189
H	-0.8985510405	-2.2629260232	 1.5460614003	 0.092094
H	-2.2464626042	-3.7506731144	 0.4889954456	 0.293462
H	 0.3675885761	-3.7517823207	-0.0182204754	 0.113708
H	-0.0020608342	-2.6365156038	-1.3527010408	 0.118758
82.1829	98.9844	131.1894	211.3754	237.0218	268.3175	291.6591	374.1956	412.0446	442.0136	482.9207	599.9594	647.4868	759.3211	800.8858	920.4472	934.5214	1016.1392	1095.9265	1112.9519	1119.4136	1122.49	1156.7825	1175.673	1225.9027	1240.3217	1258.6513	1305.2403	1327.7996	1353.8267	1407.1479	1432.5022	1448.0302	1460.4767	1497.8532	1504.7718	1516.5245	1541.6029	1821.0237	2993.8012	3001.0967	3013.5413	3023.7156	3044.6455	3059.9351	3092.4529	3175.8053	3826.5074
CN1CC(O)COC1=O	CN1C[C@@H](O)COC1=O	
InChI=1S/C5H9NO3/c1-6-2-4(7)3-9-5(6)8/h4,7H,2-3H2,1H3	InChI=1S/C5H9NO3/c1-6-2-4(7)3-9-5(6)8/h4,7H,2-3H2,1H3/t4-/m1/s1
