23
gdb 119606	3.93911	0.89162	0.82258	1.6026	85.73	-0.2467	0.0858	0.3325	1516.1523	0.206485	-388.29271	-388.283507	-388.282562	-388.327029	34.967	
C	-0.051406574	 1.5927745144	-0.1089370218	-0.380575
C	-0.0332276183	 0.0643114604	-0.1899160639	-0.161121
C	-1.370076697	-0.5722855457	 0.2207362829	-0.29395
C	-1.3842543525	-2.0802149798	 0.1174614742	 0.356242
C	-1.6734852927	-2.7755204307	-1.1923545496	-0.327215
C	-2.6475566025	-2.8975393588	-0.0460152241	-0.12334
C	-2.4746242775	-4.1165139019	 0.8389487743	-0.091775
O	-1.0728643132	-4.2141915461	 1.0791567901	-0.257357
C	-0.531236015	-2.8975321251	 1.0811043147	-0.139309
H	 0.911173438	 2.0204310774	-0.4060029061	 0.112033
H	-0.8202710884	 2.0145900095	-0.7661489411	 0.113209
H	-0.2668905528	 1.9336725196	 0.909975148	 0.113863
H	 0.2135765292	-0.2507706055	-1.2115249062	 0.100385
H	 0.7692251247	-0.3250889349	 0.4496781172	 0.099385
H	-1.6096492749	-0.2747948325	 1.2519586242	 0.092604
H	-2.17041127	-0.1611238118	-0.4083054522	 0.092268
H	-1.9681402693	-2.1503847034	-2.0287599646	 0.105878
H	-1.0871563991	-3.6492307365	-1.4607257745	 0.118713
H	-3.6215095967	-2.425450794	-0.1093648903	 0.08522
H	-3.0340742652	-3.9863152734	 1.7803625951	 0.088371
H	-2.789104297	-5.0603468102	 0.3804580397	 0.106714
H	 0.5224992752	-2.9844239145	 0.7955481825	 0.105945
H	-0.5794763911	-2.4460678165	 2.0876440814	 0.083814
74.441	79.941	117.0165	232.033	245.3128	263.742	304.2574	331.7346	389.2838	418.6881	634.5162	689.1568	738.0002	746.2001	845.6928	868.8918	889.009	914.7152	934.0036	941.9307	950.1794	1022.9968	1041.1728	1051.0115	1062.477	1080.3796	1104.7098	1108.2662	1127.5338	1142.713	1217.7776	1243.687	1252.3525	1263.7383	1303.3194	1321.211	1338.5317	1361.6726	1371.2348	1392.4107	1411.747	1419.4796	1477.1367	1485.6926	1491.7959	1500.0085	1508.3759	1510.7999	1522.409	2950.5753	2966.8136	3000.3557	3021.3198	3028.5752	3035.3628	3058.7356	3062.2299	3064.9918	3095.2355	3101.9972	3122.2103	3174.2835	3210.1941
CCCC12CC1COC2	CCC[C@]12C[C@H]1COC2	
InChI=1S/C8H14O/c1-2-3-8-4-7(8)5-9-6-8/h7H,2-6H2,1H3	InChI=1S/C8H14O/c1-2-3-8-4-7(8)5-9-6-8/h7H,2-6H2,1H3/t7-,8+/m0/s1
