19
gdb 53334	4.50185	0.89813	0.8762	1.4425	84.44	-0.2318	0.0564	0.2882	1420.1855	0.159743	-385.846053	-385.837532	-385.836588	-385.881531	31.408	
C	 0.0124004485	 1.4828768137	-0.0480760925	-0.499528
C	 0.0052121758	 0.0271976929	-0.0158385719	 0.10239
C	-0.0025749151	-1.1768823559	 0.0145168604	 0.044902
C	-0.0201728049	-2.6290618455	 0.0440683551	-0.176468
C	 0.4678920596	-3.2758964562	 1.39635279	-0.238993
C	-0.823266924	-4.0528379846	 1.7216747177	 0.088554
C	-1.2017339209	-4.7312893726	 0.3865105026	-0.239163
C	-1.4551797934	-3.2428763682	 0.067773993	 0.079852
O	-1.8563132787	-3.0521289559	 1.4544695606	-0.290981
H	 1.0349177589	 1.8769433922	-0.0604402137	 0.14478
H	-0.4988050878	 1.8653403989	-0.9387488947	 0.145079
H	-0.4931566617	 1.9027221954	 0.8286831926	 0.148467
H	 0.5456144581	-3.022601384	-0.8080163566	 0.096246
H	 1.3425375439	-3.918881538	 1.2700556996	 0.10017
H	 0.6837435999	-2.5196198939	 2.151619714	 0.122284
H	-0.9143521007	-4.538695446	 2.692856021	 0.080287
H	-0.441027552	-5.2818605713	-0.1738843372	 0.093037
H	-2.132371788	-5.2936720761	 0.4625907714	 0.112366
H	-2.1757468776	-2.8837808348	-0.6656525713	 0.086719
9.9269	81.3149	98.907	218.4459	286.8953	338.868	408.9811	436.56	506.7666	575.2815	715.6352	758.7565	826.52	845.7837	862.9653	880.7731	913.7543	949.0697	966.3375	987.0014	1034.8862	1053.2957	1053.8233	1074.8546	1096.2238	1140.026	1190.3772	1194.8447	1221.0355	1232.5262	1258.8364	1280.9392	1307.6506	1322.7586	1360.9417	1414.842	1478.4776	1478.678	1479.5359	1493.6406	2370.8669	3024.5731	3037.4258	3062.5032	3074.7378	3083.3853	3085.6229	3124.6967	3135.533	3136.5411	3146.2917
CC#CC1CC2CC1O2	CC#C[C@H]1C[C@@H]2C[C@H]1O2	
InChI=1S/C8H10O/c1-2-3-6-4-7-5-8(6)9-7/h6-8H,4-5H2,1H3	InChI=1S/C8H10O/c1-2-3-6-4-7-5-8(6)9-7/h6-8H,4-5H2,1H3/t6-,7+,8+/m0/s1
