18
gdb 82463	3.28895	1.62965	1.40868	2.7108	70.18	-0.2289	0.0558	0.2847	962.9533	0.149214	-439.025379	-439.018263	-439.017319	-439.05644	29.491	
C	-0.0646123214	 1.5098569177	 0.0848066201	-0.523327
C	-0.0224499629	 0.010254524	 0.0748622188	 0.318284
N	-1.2718977645	-0.7961323235	 0.2060067194	-0.366003
C	-0.32930104	-1.9344288164	 0.5001274255	-0.136519
C	 0.7938709809	-0.9171281436	 0.9981893432	 0.037641
O	 1.9123756961	-0.9663904687	 0.0881221271	-0.315743
C	 0.8977598044	-0.7700655935	-0.9535435994	-0.025651
C	 0.2217046	-2.1625415399	-0.9291127781	 0.21428
O	 1.1262109455	-3.2179493004	-1.095076265	-0.454562
H	 0.9494774181	 1.918862759	 0.0435021652	 0.138718
H	-0.6255886043	 1.8874786392	-0.7764278721	 0.135598
H	-0.5468229855	 1.885796345	 0.9938647364	 0.119186
H	-1.7226029095	-0.5069485289	 1.0749047311	 0.215329
H	-0.6934071046	-2.7889026656	 1.0660671761	 0.07948
H	 1.0444032661	-0.7839695839	 2.0506759856	 0.088817
H	 1.2946369699	-0.3540978637	-1.8780613182	 0.086742
H	-0.5932533045	-2.2775777747	-1.6440475238	 0.101556
H	 1.9290396262	-2.9414076922	-0.6301224019	 0.286176
186.8208	217.3349	244.8053	300.7777	353.3244	476.7301	506.4512	543.7412	559.8991	686.3374	719.5282	772.6272	817.5664	836.4514	853.6922	886.9191	919.4997	928.317	946.8858	961.1996	1002.2831	1040.2408	1099.6006	1112.42	1132.4452	1148.9349	1167.6395	1210.9602	1223.6363	1257.0816	1274.2604	1279.5281	1298.5912	1350.8094	1380.6231	1416.5729	1438.8846	1486.7086	1491.7193	3032.2662	3097.7438	3112.5559	3121.3006	3121.6973	3142.3933	3152.4229	3449.1126	3736.0305
CC12NC3C1OC2C3O	C[C@]12N[C@@H]3[C@H]1O[C@H]2[C@H]3O	
InChI=1S/C6H9NO2/c1-6-4-2(7-6)3(8)5(6)9-4/h2-5,7-8H,1H3	InChI=1S/C6H9NO2/c1-6-4-2(7-6)3(8)5(6)9-4/h2-5,7-8H,1H3/t2-,3-,4+,5-,6-/m0/s1
