21
gdb 96166	2.5173	1.40169	0.98341	2.9943	77.42	-0.2581	0.0726	0.3306	1220.639	0.184297	-424.220465	-424.212202	-424.211257	-424.252946	33.01	
O	-0.0990436308	 1.4659087412	 0.0641590431	-0.43844
C	 0.0075384693	 0.0474472855	-0.0205492045	 0.137605
C	 0.7789158471	-0.4980355264	 1.1930387989	-0.207787
C	 1.0432202698	-2.0128565816	 1.2415547472	-0.206567
C	-0.2253084412	-2.8821524474	 1.3257400825	-0.23643
C	-0.9119033746	-3.0270348835	-0.0196089867	 0.067085
O	-2.3294960875	-2.8415431722	-0.0857384734	-0.261241
C	-1.4883368903	-1.8686270721	-0.7169744676	 0.046536
C	-1.431408552	-0.4757946103	-0.1246651095	-0.236473
H	 0.7845393787	 1.8240284095	 0.1974743106	 0.278187
H	 0.5497919157	-0.2329319685	-0.9414176108	 0.059514
H	 1.7492808859	 0.0178667998	 1.2290909599	 0.080529
H	 0.2343697445	-0.191504554	 2.0960053363	 0.105816
H	 1.6369685213	-2.3167399027	 0.3685671127	 0.096593
H	 1.6717599895	-2.2141479221	 2.1164663482	 0.099577
H	 0.0324574051	-3.8771226296	 1.7050507313	 0.099638
H	-0.9322441209	-2.4488819579	 2.0408839969	 0.113514
H	-0.5495514167	-3.8512437811	-0.637060343	 0.086665
H	-1.5203824895	-1.907736054	-1.807056707	 0.089711
H	-1.9027787145	-0.475262771	 0.8627563519	 0.113507
H	-1.9977351587	 0.2208879984	-0.750216847	 0.11246
129.4822	149.5715	263.0567	281.422	295.5834	309.6332	356.9123	413.3632	436.1584	487.0499	521.9487	582.7174	762.2713	822.3599	836.1856	857.1342	905.7614	923.3663	981.1847	998.0323	1029.7866	1048.6826	1064.0556	1098.0284	1107.0138	1137.4924	1151.3231	1188.7705	1224.0375	1235.8053	1258.7716	1289.638	1307.6057	1324.0791	1348.7124	1359.9448	1379.0045	1400.4959	1402.7037	1440.1168	1480.6416	1483.5547	1488.1616	1495.2986	1504.1237	2936.0623	2999.7551	3016.6986	3038.8782	3047.7656	3054.6889	3063.7865	3075.9761	3087.3388	3094.3746	3107.5769	3813.2344
OC1CCCC2OC2C1	O[C@H]1CCC[C@H]2O[C@H]2C1	
InChI=1S/C7H12O2/c8-5-2-1-3-6-7(4-5)9-6/h5-8H,1-4H2	InChI=1S/C7H12O2/c8-5-2-1-3-6-7(4-5)9-6/h5-8H,1-4H2/t5-,6+,7-/m0/s1
