18
gdb 126938	6.31779	0.79826	0.71835	3.6036	76.31	-0.1899	0.0525	0.2424	1570.6213	0.149822	-431.478551	-431.469294	-431.46835	-431.5129	33.663	
C	-0.0383959736	 1.4978364362	-0.0135817875	-0.400163
C	-0.0816057747	-0.0131052758	-0.2142773579	-0.12965
N	-1.3614201948	-0.5504816839	 0.224815187	-0.399215
C	-1.6415728498	-1.8863739581	 0.1010513358	 0.483663
N	-2.8581384287	-2.4107122013	 0.0916285331	-0.410202
C	-2.5999990439	-3.7516134654	 0.0110464172	 0.399292
N	-3.6269288612	-4.6776238187	 0.0413247156	-0.584756
N	-1.3261365499	-4.0982900364	-0.0460690591	-0.316196
N	-0.7117220816	-2.8580866614	 0.0114625281	-0.275053
H	 0.9326269962	 1.8959329018	-0.3189635161	 0.128515
H	-0.8067687781	 1.9952808247	-0.615747022	 0.125178
H	-0.2063100527	 1.7550249026	 1.0359986983	 0.137023
H	 0.1255843541	-0.2608677857	-1.2682068104	 0.105793
H	 0.7127484817	-0.4779058075	 0.3846585499	 0.110588
H	-2.1686896781	 0.0218884165	 0.0227650749	 0.251985
H	-4.4896249605	-4.313897233	-0.3362870492	 0.252613
H	-3.3716422467	-5.5685138771	-0.3597574061	 0.252313
H	 0.2899773725	-2.7987261775	 0.0273684984	 0.268272
61.091	84.0807	127.2995	225.2434	265.7335	276.0796	302.2808	338.29	355.6727	417.2718	495.885	553.8707	633.9794	720.3893	739.6171	783.6833	810.8599	824.2703	936.1671	1018.8776	1060.7407	1074.5101	1099.4659	1157.5092	1167.751	1196.1605	1296.1164	1328.2115	1344.9887	1410.1708	1425.8293	1463.6814	1493.1354	1501.5245	1520.5271	1532.3691	1602.0695	1636.0264	1660.5008	2969.0033	3024.6705	3041.2847	3109.7697	3127.8696	3569.612	3606.1166	3674.9877	3698.8746
CCNC1=NC(N)=NN1	CCNc1nc(N)n[nH]1	
InChI=1S/C4H9N5/c1-2-6-4-7-3(5)8-9-4/h2H2,1H3,(H4,5,6,7,8,9)	InChI=1S/C4H9N5/c1-2-6-4-7-3(5)8-9-4/h2H2,1H3,(H4,5,6,7,8,9)
