19
gdb 73196	2.44762	1.50785	1.39547	3.3022	75.08	-0.2432	-0.0173	0.2259	1050.6563	0.157865	-423.008615	-423.000017	-422.999073	-423.042177	32.004	
C	 0.1572892927	 1.6948265942	 0.3312897607	-0.482319
C	 0.097991879	 0.2038684837	 0.13909623	 0.444037
O	-1.2455765526	-0.322934947	 0.2168089784	-0.320087
C	-0.8297762278	-1.3767613094	 1.1245362371	-0.091787
C	 0.6349416753	-0.8995615481	 1.0998595996	-0.126098
C	 1.4924377389	-1.5013129599	-0.0407475009	-0.255652
C	 0.9129858076	-0.4615650596	-1.0380725739	-0.163475
C	 0.0350901979	-0.9894015205	-2.1427385058	 0.166797
O	-0.1440012789	-2.1579342539	-2.376248196	-0.251326
H	 1.1934168955	 2.0478047616	 0.3368116229	 0.120312
H	-0.3732455163	 2.205196996	-0.480726864	 0.131724
H	-0.3167610772	 1.9795153217	 1.2752689288	 0.12861
H	-1.3383128187	-1.282938791	 2.0911269155	 0.105491
H	-1.0168545992	-2.3740935078	 0.7101528392	 0.117217
H	 1.1132130631	-0.6882260616	 2.0557671421	 0.07749
H	 2.5658325427	-1.3857511739	 0.1216550493	 0.105142
H	 1.281193255	-2.5400528314	-0.3028758657	 0.126157
H	 1.649697965	 0.2228155189	-1.4742789368	 0.089447
H	-0.4673022719	-0.202136852	-2.7483433904	 0.078319
56.9194	104.7592	194.0187	207.5781	217.9879	279.9149	322.2223	382.0823	476.0226	593.1038	653.5436	675.4931	800.0292	826.9568	864.6037	887.2361	909.6538	939.1016	969.1509	1000.9214	1031.9743	1047.3786	1098.568	1120.0529	1148.6441	1160.1252	1164.8489	1181.3504	1193.6508	1267.8574	1301.0605	1321.9188	1334.8888	1354.8318	1407.8181	1422.9341	1478.6302	1481.4965	1487.628	1523.04	1822.4063	2880.2501	3022.264	3031.4968	3047.1801	3070.2302	3073.7928	3100.331	3113.3852	3114.0154	3129.5038
CC12OCC1CC2C=O	C[C@]12OC[C@H]1C[C@H]2C=O	
InChI=1S/C7H10O2/c1-7-5(3-8)2-6(7)4-9-7/h3,5-6H,2,4H2,1H3	InChI=1S/C7H10O2/c1-7-5(3-8)2-6(7)4-9-7/h3,5-6H,2,4H2,1H3/t5-,6+,7+/m0/s1
