15
gdb 27323	3.39273	1.36676	0.97502	6.6651	78.17	-0.1655	-0.0269	0.1386	1130.293	0.113509	-453.980211	-453.972244	-453.971299	-454.012188	31.254	
N	 0.0797046189	 1.3937475885	 0.1751266956	-0.570949
C	-0.0274681175	 0.025955322	 0.066101095	 0.463989
C	-1.2196413514	-0.675877828	 0.0501743124	-0.356193
C	-1.1677948285	-2.0672469714	 0.0019731567	 0.29913
N	-2.2029901589	-2.9020474645	-0.0221096513	-0.550237
H	-3.1652134283	-2.6187758746	 0.0050575757	 0.260487
H	-1.9056877858	-3.8786560153	-0.0498924247	 0.27855
C	 0.1281772294	-2.8002315418	-0.0277627879	 0.26484
O	 0.0964611432	-4.0547349526	-0.067465394	-0.502949
C	 1.2328265554	-1.9628776917	-0.0062197543	-0.151815
O	 1.1333222963	-0.5847481789	 0.0327519564	-0.184618
H	 0.974847291	 1.767071093	-0.1055615665	 0.267229
H	-0.7065903104	 1.9229731794	-0.1682774497	 0.266186
H	-2.1575604515	-0.132952891	 0.0856038933	 0.090566
H	 2.2628218982	-2.2808664033	-0.0193557267	 0.125782
134.7212	195.122	283.352	303.8995	320.5566	347.3848	362.6829	445.6365	457.123	514.0518	549.6614	597.1712	677.4422	696.3544	744.768	745.4524	788.2887	790.9684	818.4873	944.9013	1049.0526	1107.2385	1195.6566	1275.0437	1277.7206	1376.7192	1395.0995	1472.6786	1539.0284	1593.2357	1633.4863	1648.104	1685.1596	3181.4054	3264.2116	3426.9216	3578.513	3689.5893	3717.8297
NC1=CC(=[NH2+])C([O-])=CO1	NC1=C[C](N)C(=O)[CH]O1	
InChI=1S/C5H6N2O2/c6-3-1-5(7)9-2-4(3)8/h1-2,6,8H,7H2	InChI=1S/C5H6N2O2/c6-3-1-5(7)9-2-4(3)8/h1-2H,6-7H2
