19
gdb 115609	3.41573	0.99822	0.91401	4.0915	67.48	-0.2461	0.046	0.2921	1316.248	0.157572	-497.263505	-497.253842	-497.252898	-497.298244	35.339	
O	-0.0325489743	 1.3576601346	-0.4964959174	-0.426857
C	 0.1083812778	-0.0177356577	-0.1917690196	-0.067187
C	-1.2196102152	-0.559655941	 0.3178864559	 0.046562
O	-2.2608973205	-0.337059897	-0.6729264276	-0.308405
C	-2.3461563636	-1.7524461169	-0.9670291142	-0.130451
C	-1.4434529017	-2.0858983663	 0.2498781331	 0.358067
O	-0.2831622891	-2.8361695291	 0.0024449959	-0.481421
C	-2.1873358412	-2.6511616805	 1.4506068272	-0.148286
O	-2.4152338988	-4.0277418226	 1.1619992222	-0.436982
H	-0.8082066796	 1.4166761696	-1.0687173189	 0.290234
H	 0.4405846421	-0.5982866286	-1.0636008916	 0.100101
H	 0.878792804	-0.1066868924	 0.5804507215	 0.111544
H	-1.4830635257	-0.0724561431	 1.2659250049	 0.076437
H	-3.3791597352	-2.1145804777	-0.9469974419	 0.108686
H	-1.8783387857	-2.0085199474	-1.9243729278	 0.108075
H	-0.5202547158	-3.7565247653	 0.1783074621	 0.290801
H	-1.5612419109	-2.5318039729	 2.3471981239	 0.101777
H	-3.1289251146	-2.1063179912	 1.6066598193	 0.107957
H	-2.7099238423	-4.4705924245	 1.9624916629	 0.299348
67.9017	105.7904	120.0489	146.2791	232.9019	261.3062	296.2726	339.8259	355.3168	427.1301	463.2882	476.5787	509.7888	605.9303	705.7841	849.5735	878.5377	916.9112	961.2116	1003.2694	1032.7548	1048.3306	1077.7061	1087.2114	1111.2379	1145.259	1160.4553	1211.0283	1214.5232	1240.2068	1268.0946	1303.5529	1318.3491	1346.9534	1392.2249	1422.0786	1436.7721	1455.3014	1500.0431	1509.0482	1518.6863	2989.5015	3009.1078	3024.1093	3030.4051	3034.4883	3085.5749	3087.3115	3762.4559	3776.2624	3843.4119
OCC1OCC1(O)CO	OC[C@H]1OC[C@]1(O)CO	
InChI=1S/C5H10O4/c6-1-4-5(8,2-7)3-9-4/h4,6-8H,1-3H2	InChI=1S/C5H10O4/c6-1-4-5(8,2-7)3-9-4/h4,6-8H,1-3H2/t4-,5-/m1/s1
