16
gdb 16944	3.97741	2.06722	1.8936	1.8788	67.9	-0.2121	-0.0109	0.2012	778.2996	0.131458	-346.579502	-346.573113	-346.572169	-346.609675	25.843	
C	-0.0219783628	 1.4914348399	 0.043997075	-0.507115
C	-0.0529077137	 0.0064073649	-0.0419449966	 0.367774
C	-0.0727728457	-0.8247487338	-1.0814004528	-0.209266
C	 0.0068865068	-2.2444419756	-0.4680533103	-0.035108
O	-0.7587629055	-2.0427201738	 0.7319583793	-0.230395
C	 0.0312314523	-0.9384966416	 1.1946672011	-0.0933
C	 1.4413913085	-1.5831679361	 1.184055899	-0.081659
C	 1.4255795345	-2.4058932694	 0.1404519778	-0.072282
H	 0.9006660055	 1.8380300222	 0.5296644974	 0.127136
H	-0.0753169044	 1.9545729549	-0.9450304823	 0.128693
H	-0.8541160076	 1.876748044	 0.6468636719	 0.130226
H	-0.0675516569	-0.5980424008	-2.1381544863	 0.102801
H	-0.3845057952	-3.0719105324	-1.0576490546	 0.079187
H	-0.3377461856	-0.5490525714	 2.1432070083	 0.076442
H	 2.2466791183	-1.3398609233	 1.8618796591	 0.108283
H	 2.2157872414	-3.0176408775	-0.2701888261	 0.108583
164.2131	185.9507	284.7644	439.9434	466.1122	569.9548	581.4521	655.906	705.8149	769.3639	784.2822	832.5657	864.6821	882.039	894.0911	902.4852	908.8565	970.1081	999.8225	1050.3211	1062.8372	1099.633	1180.624	1207.1429	1227.7321	1250.4167	1276.1421	1297.7005	1323.5219	1413.2949	1477.8695	1485.5401	1632.8351	1709.2082	3010.2261	3055.7199	3108.5983	3125.1592	3136.1832	3225.7837	3231.6909	3252.9482
CC1=CC2OC1C=C2	CC1=C[C@@H]2O[C@H]1C=C2	
InChI=1S/C7H8O/c1-5-4-6-2-3-7(5)8-6/h2-4,6-7H,1H3	InChI=1S/C7H8O/c1-5-4-6-2-3-7(5)8-6/h2-4,6-7H,1H3/t6-,7+/m1/s1
