17
gdb 76708	3.30037	0.87675	0.83895	5.9925	69.4	-0.2228	0.0191	0.2419	1398.1993	0.135034	-455.104312	-455.094941	-455.093997	-455.139168	33.766	
O	-0.0871879342	 1.4467331149	 0.3783664474	-0.425725
C	 0.0941697185	 0.0753374863	 0.1189423129	-0.003692
C	-0.6684582488	-0.853701984	 1.0388424202	 0.067115
O	-1.3972635835	-0.2582617729	 2.0689133198	-0.425137
C	-1.125281093	-0.6347589168	-0.4093712251	-0.052377
N	-2.2897362374	 0.1366100108	-0.7320371827	-0.309742
C	-3.5349344288	-0.4641070645	-0.2497960718	-0.261025
C	-4.6869873046	 0.3615074962	-0.6210803507	 0.253036
N	-5.5949894925	 1.0223229812	-0.8912866364	-0.302585
H	 0.6733497514	 1.7640077397	 0.8768604722	 0.305804
H	 1.0716217581	-0.1935939683	-0.2727962844	 0.106162
H	-0.2395796552	-1.8097028669	 1.3247181099	 0.105174
H	-1.2209901745	 0.6914592531	 2.0143343086	 0.285462
H	-0.9281454332	-1.4515439428	-1.1020945978	 0.101102
H	-2.1960974815	 1.089374589	-0.4019478094	 0.246898
H	-3.6546770903	-1.4480059728	-0.7202238588	 0.150123
H	-3.5512552805	-0.6214408323	 0.8386338562	 0.159407
51.3763	87.1809	126.7746	190.1017	225.189	254.8487	294.8951	305.1008	391.527	465.3795	515.8928	580.5514	657.3111	690.1486	721.2808	736.9911	804.3424	935.7222	963.7256	1007.1273	1043.2283	1060.8514	1109.564	1123.3786	1152.0121	1174.0495	1232.7467	1240.6221	1280.8463	1322.562	1331.7922	1383.9613	1406.9046	1460.9007	1495.223	1509.6503	2367.2164	3006.8115	3051.6364	3111.1519	3135.7462	3153.5631	3562.0839	3736.0299	3815.0088
OC1C(O)C1NCC#N	O[C@H]1[C@@H](O)[C@H]1NCC#N	
InChI=1S/C5H8N2O2/c6-1-2-7-3-4(8)5(3)9/h3-5,7-9H,2H2	InChI=1S/C5H8N2O2/c6-1-2-7-3-4(8)5(3)9/h3-5,7-9H,2H2/t3-,4+,5-
