17
gdb 126712	5.29345	0.88664	0.80994	2.5076	86.53	-0.2207	0.0044	0.2251	1425.975	0.136324	-380.869028	-380.860389	-380.859445	-380.90294	31.812	
C	-0.0605706402	 1.5446960797	-0.2406530843	-0.373999
C	-0.0578076573	 0.0587647809	 0.1178697629	-0.142163
N	-1.3866361615	-0.5312654434	 0.0538938859	 0.060907
C	-1.8866077521	-1.3541954334	-0.8927913149	-0.153766
C	-3.2103821772	-1.609934035	-0.5551148077	 0.062003
C	-3.399076048	-0.8667925264	 0.6401702106	-0.101516
N	-2.2993311511	-0.2196246814	 0.9997916216	-0.25639
C	-4.140878448	-2.4229392961	-1.2384216873	 0.255058
C	-4.9454147199	-3.1125048807	-1.8113191601	-0.458599
H	 0.9503185623	 1.9534793928	-0.1516250389	 0.122053
H	-0.4078206556	 1.6998329719	-1.2663563652	 0.127479
H	-0.7203451523	 2.0932259375	 0.43541375	 0.151659
H	 0.5804645972	-0.5106233965	-0.5633525665	 0.122167
H	 0.318521788	-0.0895980198	 1.1339299325	 0.136645
H	-1.2911535488	-1.7024125147	-1.7213843003	 0.141436
H	-4.2951865204	-0.7974691446	 1.2382209458	 0.12141
H	-5.6533261153	-3.7206211807	-2.316958834	 0.185616
43.1909	110.9472	142.2799	186.0372	227.2278	355.1589	382.9136	476.0541	536.7238	542.1407	552.4602	651.298	655.6285	685.1446	709.484	795.1606	799.7484	885.0482	964.432	1008.1487	1026.2679	1096.3243	1118.6685	1180.2726	1214.5198	1269.8631	1351.6372	1369.9494	1388.908	1409.7676	1414.1543	1478.3582	1489.1092	1491.5944	1507.9292	1585.5076	2234.6549	3046.8993	3062.857	3105.3185	3121.2664	3139.103	3254.8693	3266.5816	3505.7668
CCN1C=C(C=N1)C#C	CCn1cc(cn1)C#C	
InChI=1S/C7H8N2/c1-3-7-5-8-9(4-2)6-7/h1,5-6H,4H2,2H3	InChI=1S/C7H8N2/c1-3-7-5-8-9(4-2)6-7/h1,5-6H,4H2,2H3
