17
gdb 116859	4.88013	0.50628	0.46266	5.6248	77.08	-0.2556	-0.0458	0.2098	2243.3077	0.132001	-458.930175	-458.919284	-458.91834	-458.969871	35.773	
O	-0.0626280605	 1.4145132355	 0.0102685447	-0.411527
C	 0.0632649823	 0.0052375539	 0.0015538376	-0.064607
C	-1.3618352366	-0.5604806886	 0.0118482784	-0.333333
C	-1.3991682019	-2.0135361539	 0.0045139528	 0.056735
C	-1.4237648406	-3.220786595	-0.0016499614	 0.034078
C	-1.4705021984	-4.6711849122	-0.0087976295	 0.226406
O	-2.50509087	-5.2947596197	-0.0020772156	-0.263228
C	-0.0944983523	-5.3289129813	-0.0256349207	-0.174186
O	-0.2385371217	-6.72221911	-0.0319843007	-0.394784
H	 0.8183290989	 1.7996281105	 0.0038019529	 0.292769
H	 0.5928837344	-0.3543484875	-0.8933343655	 0.101372
H	 0.6094805887	-0.3638470979	 0.8824921338	 0.101368
H	-1.8862752906	-0.1783031046	 0.896260529	 0.153111
H	-1.9026418642	-0.1689912106	-0.8585257859	 0.153109
H	 0.4391205192	-4.943955739	-0.9122793927	 0.11427
H	 0.4560271944	-4.9537301542	 0.8548249522	 0.114286
H	 0.6399918789	-7.1128490854	-0.0406409593	 0.294159
6.0288	52.2006	64.7097	92.9572	158.2828	169.0041	211.5489	242.7461	271.1062	323.7321	399.1909	402.9489	565.9167	580.6463	582.3032	782.7834	787.8312	963.38	1007.3623	1013.3508	1082.5319	1086.2452	1129.7111	1184.9365	1218.8207	1237.1665	1243.1685	1245.5064	1300.8675	1328.2169	1440.3521	1455.7059	1465.5378	1489.2708	1528.4383	1787.1485	2333.7725	2952.9795	2975.9474	2983.0619	3014.339	3033.9434	3071.7115	3836.5106	3837.9023
OCCC#CC(=O)CO	OCCC#CC(=O)CO	
InChI=1S/C6H8O3/c7-4-2-1-3-6(9)5-8/h7-8H,2,4-5H2	InChI=1S/C6H8O3/c7-4-2-1-3-6(9)5-8/h7-8H,2,4-5H2
