21
gdb 83541	3.12054	1.46701	1.27535	1.5956	82.74	-0.2328	0.0921	0.3249	1091.0079	0.183724	-387.052262	-387.044342	-387.043398	-387.0842	32.115	
C	-0.086182878	 1.6240554432	 0.0504422644	-0.4431
C	 0.0165170853	 0.1094602079	-0.0068987421	 0.040774
C	 0.8519024396	-0.6274814435	-1.1197582278	-0.186777
C	 2.2395391567	-0.0066007377	-0.901568259	-0.083634
O	 2.3014611567	-0.010984584	 0.5459865979	-0.278961
C	 1.0483947643	-0.6354749527	 0.8900441456	-0.008954
C	 0.9481122509	-1.78978373	-0.1091535051	 0.462221
C	 0.1293603677	-3.0327984915	-0.0272882764	-0.364074
C	 1.6446058694	-3.1039353203	-0.1653505491	-0.367872
H	 0.8960888293	 2.0889767595	 0.1636542332	 0.13488
H	-0.5576263254	 2.0248940183	-0.853849476	 0.112318
H	-0.6978352721	 1.9345681543	 0.9045273571	 0.114591
H	-0.9662747092	-0.3614566827	 0.0726350412	 0.07843
H	 0.4968773277	-0.7523660453	-2.1426875026	 0.066648
H	 3.0500323859	-0.6189638763	-1.3131108527	 0.100271
H	 2.3361437145	 1.0171780165	-1.2794718159	 0.096027
H	 0.9720122114	-0.739821852	 1.9718045561	 0.073503
H	-0.3074760805	-3.3079598012	 0.927977322	 0.113183
H	-0.4713534541	-3.3171224507	-0.8860239067	 0.111598
H	 2.0493650843	-3.4360910387	-1.1167663326	 0.111087
H	 2.2225267956	-3.4199940531	 0.6971979886	 0.11784
155.4945	177.5626	208.9418	242.915	266.3127	301.1479	423.6771	460.1989	572.9667	654.9383	703.2894	753.193	774.6121	801.4249	882.8713	911.6802	928.7689	943.702	946.8265	964.0822	985.8845	1032.3985	1045.7497	1055.1465	1064.2964	1079.2767	1080.9854	1126.0011	1132.5946	1180.164	1191.073	1192.969	1225.9536	1237.5154	1266.5606	1283.7904	1355.834	1384.0272	1408.0762	1420.6384	1465.223	1490.0869	1502.7392	1513.909	1528.4687	3027.8457	3033.9666	3067.9165	3081.2649	3091.3929	3117.7521	3119.3908	3122.8767	3124.0328	3131.2465	3194.4614	3209.3189
CC1C2COC1C21CC1	C[C@H]1[C@H]2CO[C@@H]1C12CC1	
InChI=1S/C8H12O/c1-5-6-4-9-7(5)8(6)2-3-8/h5-7H,2-4H2,1H3	InChI=1S/C8H12O/c1-5-6-4-9-7(5)8(6)2-3-8/h5-7H,2-4H2,1H3/t5-,6+,7-/m0/s1
