14
gdb 21010	5.63867	1.65115	1.2876	5.4332	72.05	-0.2191	-0.0531	0.166	903.0969	0.108371	-374.874846	-374.867753	-374.866809	-374.906598	25.605	
C	-0.0047719789	 1.4506258751	 0.0093470454	-0.329256
N	-0.0390187489	-0.0015362862	 0.001190717	-0.021261
C	-1.2141141317	-0.7138868408	 0.0045930759	 0.058662
C	-1.1873540749	-2.0573400364	-0.0025643893	-0.19755
C	 0.0987861793	-2.7240105647	-0.0137354725	 0.376647
N	 0.2266156771	-3.9964688745	-0.0213472111	-0.522911
N	 1.2547371566	-1.8719763456	-0.0161836258	-0.263492
N	 1.1750458652	-0.6154130651	-0.0091269181	-0.052209
H	 1.0429386387	 1.7492039389	 0.0021526594	 0.170497
H	-0.5046945779	 1.8572308196	-0.8758896833	 0.145391
H	-0.4894840535	 1.8471106111	 0.9075724188	 0.145411
H	-2.1221610637	-0.1223037666	 0.0131117705	 0.14056
H	-2.0946152659	-2.6462464197	-0.0002312719	 0.129491
H	 1.2235880285	-4.2253125851	-0.0285533149	 0.220019
70.9152	102.0903	196.0797	333.7431	404.8132	456.6607	472.4647	488.3507	670.8429	739.3201	773.1309	805.8631	836.8503	907.6174	963.8346	973.4419	1021.588	1110.9733	1152.5707	1172.1349	1262.769	1311.115	1352.5923	1435.3322	1459.958	1485.637	1506.9281	1534.2378	1668.4045	1720.5864	3035.3545	3095.2723	3165.4434	3198.5228	3232.1886	3451.8181
CN1C=CC(=N)N=N1	Cn1ccc([NH])nn1	
InChI=1S/C4H6N4/c1-8-3-2-4(5)6-7-8/h2-3,5H,1H3	InChI=1S/C4H11N4/c1-8-3-2-4(5)6-7-8/h4-7H,2-3H2,1H3
