19
gdb 77622	2.09338	1.45045	1.29776	4.0753	82.22	-0.2307	0.0071	0.2378	1131.8025	0.15908	-382.048348	-382.039229	-382.038285	-382.08186	34.009	
C	 0.0194336903	 1.5627439696	-0.000235257	-0.424506
C	 0.0709404511	 0.0538067565	-0.0868616776	-0.096135
C	 0.6625368093	-0.7549748644	-1.2174237452	 0.228538
C	-0.0827861101	-1.8390894546	-1.9385240565	-0.491112
C	 1.950850515	-0.0951703366	-1.7325234118	-0.226298
N	 2.49698767	 0.0326299176	-0.3385844173	-0.368147
C	 1.337665385	-0.7382035126	 0.1722508388	 0.191622
C	 1.4638571086	-1.7593817097	 1.1554642245	 0.182481
N	 1.5781058853	-2.6001156357	 1.9446089818	-0.353453
H	 0.9855832286	 2.0064913553	-0.2474492403	 0.148376
H	-0.739549715	 1.9643514634	-0.6798305701	 0.119412
H	-0.2402055966	 1.8760070221	 1.0157589467	 0.128282
H	-0.8008171259	-0.4507532039	 0.3257495991	 0.105893
H	-0.667009988	-1.423852948	-2.768771842	 0.129805
H	 0.5995458995	-2.5894964117	-2.3518173817	 0.127053
H	-0.7799855343	-2.3509388937	-1.2682854503	 0.135484
H	 2.5320732469	-0.7845640132	-2.3528162438	 0.113918
H	 1.8523226907	 0.8615515146	-2.2561541957	 0.112056
H	 3.3541639997	-0.5006699649	-0.2370778214	 0.236729
109.905	140.4168	165.6245	176.3515	218.7558	233.471	288.3367	322.1904	413.9784	499.4027	547.7141	566.0421	601.7901	699.6384	745.8195	778.5768	812.3116	934.2801	962.5795	991.7296	1023.6168	1031.6762	1092.3696	1113.4123	1123.0402	1156.9319	1191.4049	1222.1797	1266.5001	1287.3843	1326.788	1368.9518	1409.2675	1416.338	1475.9656	1483.2426	1489.8934	1495.1838	1507.7632	1514.6347	2333.7636	3024.5698	3038.417	3042.0725	3084.7674	3087.3774	3101.7316	3106.3297	3127.9093	3142.9145	3532.6596
CC1C2(C)CNC12C#N	C[C@H]1[C@@]2(C)CN[C@@]12C#N	
InChI=1S/C7H10N2/c1-5-6(2)4-9-7(5,6)3-8/h5,9H,4H2,1-2H3	InChI=1S/C7H10N2/c1-5-6(2)4-9-7(5,6)3-8/h5,9H,4H2,1-2H3/t5-,6+,7-/m0/s1
