21
gdb 121638	4.21753	0.64482	0.57997	2.2962	76.86	-0.2607	-0.0274	0.2333	1933.3664	0.1787	-461.372549	-461.361502	-461.360558	-461.410163	38.106	
C	-0.0424063016	 1.324556372	 0.0385225627	-0.229918
O	-0.1522943576	-0.0635394604	-0.1715581677	-0.235808
C	 0.7096974679	-0.5322441327	-1.1843514135	-0.052406
C	 0.4889977942	-2.0333499565	-1.3135639533	-0.321629
C	 1.3378496537	-2.6719346297	-2.3889774317	 0.352532
O	 1.9700601558	-2.0163012152	-3.1937010843	-0.331473
C	 1.4184674344	-4.2011528168	-2.4561202613	 0.067184
C	 0.0377427916	-4.8567923383	-2.5960024519	-0.404167
O	 2.2480836829	-4.5839188209	-3.519028762	-0.438738
H	 0.9743820991	 1.6114206439	 0.3500181425	 0.106453
H	-0.2961950506	 1.8961510542	-0.8680556347	 0.106992
H	-0.7436786897	 1.5913749892	 0.8327385308	 0.128241
H	 0.503153126	-0.0337777892	-2.1434128782	 0.107041
H	 1.761989662	-0.3194225436	-0.9357652074	 0.09903
H	 0.676115699	-2.5306259552	-0.3540917782	 0.134127
H	-0.567098224	-2.2277515377	-1.5419977199	 0.146821
H	 1.8594453831	-4.5261174463	-1.4957127797	 0.089246
H	 0.1700772481	-5.9358847648	-2.7046261695	 0.138543
H	-0.5899789278	-4.6728601147	-1.7193599827	 0.118324
H	-0.4750959644	-4.4856791224	-3.4885978796	 0.127598
H	 2.5742922278	-3.7519356948	-3.8994684506	 0.292006
41.4143	55.4262	85.668	106.0503	118.8267	210.7605	227.9614	241.6693	294.8981	317.077	375.0572	415.4984	455.6857	503.2808	577.6837	690.7404	791.2702	821.1773	930.6071	992.0593	996.9967	1029.7332	1070.6457	1109.5285	1122.554	1164.8362	1179.65	1192.9404	1222.3023	1233.6713	1275.1408	1300.8649	1341.3633	1358.886	1400.7854	1422.0532	1436.7217	1455.3959	1482.7183	1484.9567	1489.8885	1499.9127	1504.7825	1527.5785	1782.2215	2937.0828	2968.0956	2980.0763	3009.4972	3017.3235	3035.7666	3043.9183	3071.9882	3115.7604	3119.7643	3128.4708	3673.464
COCCC(=O)C(C)O	COCCC(=O)[C@@H](C)O	
InChI=1S/C6H12O3/c1-5(7)6(8)3-4-9-2/h5,7H,3-4H2,1-2H3	InChI=1S/C6H12O3/c1-5(7)6(8)3-4-9-2/h5,7H,3-4H2,1-2H3/t5-/m1/s1
