20
gdb 92065	2.93307	1.45754	1.05206	3.6739	79.16	-0.2275	0.036	0.2635	1163.2784	0.172961	-403.179522	-403.171144	-403.170199	-403.212555	31.987	
C	-0.043213369	 1.4586055439	-0.0039322745	-0.34437
N	 0.0278546321	 0.0144066356	 0.1194592622	-0.078597
C	-1.2211434444	-0.7492147191	 0.0964991197	-0.198777
C	-1.1607151928	-1.9443403423	 1.035252925	-0.020232
C	-1.1288026456	-3.3480851571	 0.4851231497	-0.304677
C	 0.140022953	-2.7064339321	 0.9823270177	-0.008478
C	 1.1714731342	-2.1437766261	 0.0134641873	-0.352315
C	 1.243026359	-0.615078679	 0.0234732924	 0.40433
O	 2.3021972351	-0.0164344183	-0.0659729398	-0.390724
H	 0.9714809877	 1.8505565779	 0.0558205294	 0.168176
H	-0.4850345567	 1.7611335243	-0.9630635034	 0.118151
H	-0.6515670279	 1.8830739819	 0.8032250656	 0.117731
H	-2.0251788714	-0.0706764253	 0.3950659123	 0.114606
H	-1.4557891895	-1.0738674537	-0.9286306761	 0.10812
H	-1.6192117013	-1.7967144996	 2.0070210524	 0.092448
H	-1.5726524216	-4.1382951637	 1.0802157663	 0.115995
H	-1.2484875672	-3.4773827921	-0.586922694	 0.111376
H	 0.5390115702	-3.0668013056	 1.9243733538	 0.095678
H	 2.1777242875	-2.5060467313	 0.2280673924	 0.131013
H	 0.9393826488	-2.4512171381	-1.0149921084	 0.120547
89.561	124.5918	145.5296	219.6263	262.1881	349.7064	413.7332	426.9503	441.8812	520.9435	598.6793	728.3868	741.4413	827.0041	834.4038	880.4992	897.9269	934.0971	988.8267	1009.0565	1049.8618	1072.4126	1091.5426	1127.1855	1143.0588	1158.7626	1169.7093	1228.5001	1231.1558	1257.6656	1291.0325	1310.8215	1327.0323	1376.7857	1408.5072	1427.3002	1456.2908	1465.8506	1488.7136	1500.6484	1503.1031	1530.8358	1767.8166	2983.6601	3008.6568	3025.5401	3061.2543	3077.5356	3121.6328	3123.1973	3158.6529	3161.6044	3167.3351	3212.2851
CN1CC2CC2CC1=O	CN1C[C@H]2C[C@H]2CC1=O	
InChI=1S/C7H11NO/c1-8-4-6-2-5(6)3-7(8)9/h5-6H,2-4H2,1H3	InChI=1S/C7H11NO/c1-8-4-6-2-5(6)3-7(8)9/h5-6H,2-4H2,1H3/t5-,6+/m0/s1
