20
gdb 55363	3.13856	1.22125	1.13678	3.4046	78.4	-0.2372	0.0353	0.2725	1169.7887	0.173068	-403.189947	-403.18142	-403.180476	-403.223425	32.833	
N	 0.3585136444	 0.7680350456	 0.8392991045	-0.526652
C	 0.0018150322	 0.0992408327	-0.2975977183	 0.416791
O	 0.7171900988	 0.0724145884	-1.2820647462	-0.368745
C	-1.3429133988	-0.6273831973	-0.2235694744	-0.104616
C	-2.0558706995	-0.6820671085	-1.5958813139	-0.245813
C	-2.8511280155	-2.0064273266	-1.6087192458	-0.222308
C	-2.0796600139	-2.9383252561	-0.686397164	-0.029266
C	-0.5828863273	-3.0231105173	-0.8544516188	-0.284149
C	-1.1698291415	-2.0964377727	 0.1817840985	-0.037051
H	 1.2850046723	 1.1600257319	 0.8878624257	 0.257703
H	-0.1821831985	 0.707479417	 1.6838786753	 0.255109
H	-1.9818564517	-0.1375456793	 0.5221662146	 0.064999
H	-2.6931514504	 0.1906334719	-1.7602824849	 0.096932
H	-1.2904970515	-0.6706624836	-2.3750337617	 0.137915
H	-3.8592472913	-1.8563794379	-1.203331686	 0.094371
H	-2.9693505374	-2.401246456	-2.6237333751	 0.099755
H	-2.5952187132	-3.797413701	-0.2707225341	 0.078072
H	-0.0962760639	-3.9207020206	-0.4888005323	 0.106138
H	-0.1103254682	-2.5878109644	-1.7276981054	 0.135398
H	-1.0167995751	-2.3230585462	 1.2314088022	 0.075418
52.6307	113.1948	181.4227	194.0405	273.5311	328.377	371.4349	407.1426	565.0083	609.8052	626.4905	633.8324	736.6547	791.9144	820.5053	835.2087	866.217	908.2232	949.6046	979.6919	987.4473	997.4053	1044.4853	1061.9955	1086.8159	1087.0735	1106.2307	1136.2466	1191.7416	1207.6813	1227.0678	1266.3712	1297.3927	1310.9023	1328.4728	1359.8534	1391.8154	1399.0353	1489.1393	1495.2382	1517.2138	1616.0395	1788.749	3018.7326	3028.919	3066.1442	3073.1193	3118.9006	3138.5239	3157.8122	3168.158	3223.284	3599.1019	3736.1752
NC(=O)C1CCC2CC12	NC(=O)[C@H]1CC[C@H]2C[C@@H]12	
InChI=1S/C7H11NO/c8-7(9)5-2-1-4-3-6(4)5/h4-6H,1-3H2,(H2,8,9)	InChI=1S/C7H11NO/c8-7(9)5-2-1-4-3-6(4)5/h4-6H,1-3H2,(H2,8,9)/t4-,5-,6+/m0/s1
