22
gdb 13460	3.27722	1.19025	1.0639	0.94	79.43	-0.2469	0.0801	0.327	1252.7941	0.198524	-350.183655	-350.173663	-350.172718	-350.218775	35.454	
C	-0.8821172779	 0.1575693784	 3.4065163789	-0.223496
O	-0.8189870696	-1.0378264447	 2.6697792095	-0.23129
C	-1.6471217874	-1.0156061278	 1.520278924	-0.074023
C	-1.4565930496	-2.3072355725	 0.7707262903	-0.045072
C	-2.1130153756	-3.597790412	 1.2181009439	-0.00755
C	-2.9868513913	-3.6800906169	 2.4519815054	-0.403214
C	-2.5501945033	-2.936804256	-0.0734189712	-0.035864
C	-3.9193737882	-2.318889395	-0.2741293974	-0.406941
H	-0.2147407415	 0.0508243	 4.2654987503	 0.124211
H	-0.5569456738	 1.0261484706	 2.8107448738	 0.099891
H	-1.901382426	 0.3620315836	 3.7737905662	 0.098923
H	-2.69570071	-0.8614236969	 1.8176427543	 0.07948
H	-1.3741822321	-0.1601898699	 0.8773848999	 0.082755
H	-0.4465686969	-2.4078575259	 0.3821556096	 0.084067
H	-1.4920402705	-4.4806597062	 1.0861668485	 0.079521
H	-3.6478188789	-2.8172912876	 2.5628287015	 0.111299
H	-3.6205240742	-4.5734569272	 2.4216202641	 0.110475
H	-2.3695440201	-3.7331608669	 3.354433128	 0.127156
H	-2.1821148037	-3.4221148424	-0.9745177628	 0.080742
H	-4.3215303124	-1.8642411872	 0.6339708629	 0.116673
H	-3.8898670975	-1.5406609467	-1.0451820447	 0.115791
H	-4.6381285796	-3.0784408009	-0.6016542552	 0.116464
55.9304	93.7147	111.4065	157.6956	178.1949	215.027	236.0556	265.8209	288.2138	384.49	457.7465	519.6518	557.3227	747.634	777.4345	860.6281	927.1624	943.1208	997.316	1021.8569	1038.0429	1054.2829	1107.2659	1136.8584	1151.7823	1160.6974	1175.2768	1189.2368	1194.9275	1227.0299	1266.0556	1281.6185	1365.379	1379.4313	1416.9786	1422.5174	1430.4097	1459.4057	1481.0879	1484.7538	1489.0145	1492.3498	1501.4682	1505.0766	1515.4671	1528.2015	2947.2824	2963.4829	2993.7454	3002.7787	3031.194	3036.6266	3084.2673	3094.4297	3107.3812	3109.6052	3117.2939	3126.33	3130.8021	3145.6296
COCC1C(C)C1C	COC[C@H]1[C@@H](C)[C@H]1C	
InChI=1S/C7H14O/c1-5-6(2)7(5)4-8-3/h5-7H,4H2,1-3H3	InChI=1S/C7H14O/c1-5-6(2)7(5)4-8-3/h5-7H,4H2,1-3H3/t5-,6+,7-
