21
gdb 96240	2.31639	1.56959	1.12235	2.1173	80.28	-0.2445	0.0084	0.2529	1166.4155	0.183257	-424.227925	-424.218978	-424.218034	-424.261402	34.54	
C	 0.061436282	 1.5309275655	-0.114600656	-0.396609
C	 0.0802643834	 0.0103573034	-0.0035876597	 0.088944
O	 0.9471162765	-0.4754637939	-1.0290370068	-0.270062
C	 0.6424197708	-1.771494303	-1.5115211807	-0.070585
C	 1.209312612	-2.907658974	-0.6610127912	-0.265041
C	 0.7678564825	-2.9607371454	 0.7816145215	-0.053273
C	 0.4943659386	-1.9563498065	 1.6168590194	-0.087129
C	 0.5769343329	-0.4601301124	 1.3739792411	 0.091987
O	 1.9054616611	 0.012754801	 1.6028332886	-0.434609
H	 1.0541064992	 1.9365947607	 0.0930537699	 0.134866
H	-0.242075454	 1.8295768311	-1.1208975443	 0.115745
H	-0.6420689461	 1.959362365	 0.6058604922	 0.112132
H	-0.9334942829	-0.3869065343	-0.1656829944	 0.068059
H	-0.4482212589	-1.8869052063	-1.6063950887	 0.094291
H	 1.0720028576	-1.8286204921	-2.5178867101	 0.10368
H	 0.9423426151	-3.8515889268	-1.1532768295	 0.104794
H	 2.308310213	-2.861613856	-0.694879075	 0.118419
H	 0.7242616091	-3.9661843353	 1.197351836	 0.09099
H	 0.2535298986	-2.2232758604	 2.6436613267	 0.089718
H	-0.0356906126	 0.0396840817	 2.1332456028	 0.082122
H	 2.4146501221	-0.271531522	 0.8329311181	 0.28156
68.1964	120.7912	205.1417	242.0278	265.1843	285.209	338.5246	380.0842	389.7155	432.5857	500.8878	589.1134	645.6476	725.4701	764.5038	796.6475	844.1556	869.3895	944.0664	982.2755	1003.6111	1011.7018	1048.3589	1060.2144	1080.6857	1123.1077	1148.1631	1163.1015	1247.2486	1261.1928	1265.7563	1315.9213	1325.075	1372.257	1383.341	1391.7586	1402.3996	1418.85	1422.5813	1444.9296	1467.3259	1485.1785	1492.4937	1499.3428	1723.479	2982.5453	2989.2783	2999.93	3042.8433	3046.5889	3050.3088	3064.9256	3120.5852	3128.0034	3137.151	3154.5411	3776.1021
CC1OCCC=CC1O	C[C@H]1OCCC=C[C@H]1O	
InChI=1S/C7H12O2/c1-6-7(8)4-2-3-5-9-6/h2,4,6-8H,3,5H2,1H3	InChI=1S/C7H12O2/c1-6-7(8)4-2-3-5-9-6/h2,4,6-8H,3,5H2,1H3/t6-,7-/m1/s1
