17
gdb 52489	7.78629	0.5068	0.49952	1.9414	98.98	-0.2312	-0.0184	0.2128	2215.284	0.134282	-384.625419	-384.615676	-384.614731	-384.662831	32.729	
C	 0.1422958901	 1.6062489924	-0.1208530481	-0.518275
C	 0.0735941442	 0.1570703172	-0.0780017881	 0.238199
C	 0.0149524975	-1.0514963973	-0.042164071	-0.189943
C	-0.0505681216	-2.4082499051	-0.0025777941	-0.226508
C	-0.1115972829	-3.6176674111	 0.0376931682	 0.367948
C	-0.1647177752	-5.0652716578	 0.0817023559	-0.092753
C	 0.3174722666	-5.7664177285	 1.3848498795	-0.284051
C	-1.1097690115	-6.342382744	 1.4341702688	-0.059019
O	-1.5044293665	-5.5992177506	 0.2601822161	-0.275052
H	 1.0898907152	 1.9689260907	 0.2933736858	 0.157291
H	 0.063699134	 1.977858608	-1.1487647891	 0.157638
H	-0.6693452161	 2.0578808389	 0.4606965699	 0.158178
H	 0.2913951656	-5.4783112577	-0.8287445853	 0.10646
H	 1.126866416	-6.4843065762	 1.2499713875	 0.117419
H	 0.5669225183	-5.0771326458	 2.1910019339	 0.126742
H	-1.1859166703	-7.4247632702	 1.2737866169	 0.104294
H	-1.7099348832	-6.068960823	 2.3092648229	 0.111432
20.3957	46.0971	64.4494	85.3202	166.0721	189.7166	319.6509	333.3758	412.2283	480.5692	538.3206	572.8157	635.4293	763.1962	809.5518	881.2509	939.9033	979.4459	1015.8336	1047.1894	1048.2356	1058.3501	1083.4055	1162.6001	1214.1898	1250.2079	1255.1467	1289.503	1351.687	1367.8681	1413.0919	1470.813	1472.2753	1487.127	1531.1796	2274.1153	2380.2368	3001.8479	3021.9813	3024.3528	3063.8174	3086.6484	3087.0868	3092.8281	3153.5108
CC#CC#CC1CCO1	CC#CC#C[C@H]1CCO1	
InChI=1S/C8H8O/c1-2-3-4-5-8-6-7-9-8/h8H,6-7H2,1H3	InChI=1S/C8H8O/c1-2-3-4-5-8-6-7-9-8/h8H,6-7H2,1H3/t8-/m0/s1
