16
gdb 83148	2.14867	1.81255	1.45781	2.3226	64.72	-0.2386	0.0199	0.2585	962.0926	0.124763	-475.041055	-475.032917	-475.031972	-475.073394	31.13	
O	-0.0764158363	 1.402979106	 0.1243039051	-0.411671
C	-0.0329011779	 0.0135338669	-0.000906208	 0.018182
C	-1.3370416027	-0.7393668791	 0.0121053457	-0.174317
C	-2.5817909956	 0.0873380013	-0.3150191767	-0.178569
N	-2.3661385956	 0.522136122	-1.6899249144	-0.311485
C	-1.2377681506	 0.0467268734	-2.2738964084	 0.350143
O	-0.8808499087	 0.1585761766	-3.4329233559	-0.412303
C	-0.4739049031	-0.7351874812	-1.23742865	 0.273061
O	 0.2535791578	-1.8042355593	-1.7278564212	-0.470393
H	 0.6000322545	 1.7816848198	-0.4473208161	 0.297183
H	 0.784507149	-0.4814038356	 0.525027764	 0.104464
H	-1.4397200507	-1.6063209403	 0.6522907682	 0.112457
H	-3.4897002134	-0.5217795837	-0.2347077326	 0.116417
H	-2.676938999	 0.9468760042	 0.3571895378	 0.133095
H	-2.9921547267	 1.1379226196	-2.1831769105	 0.25699
H	 0.3783473791	-1.6063363305	-2.6690318569	 0.296748
105.6752	193.9678	221.2455	241.8225	282.3466	301.3632	380.673	417.5086	490.1978	502.0744	569.3817	606.962	711.2937	720.5481	801.8011	838.7047	913.1032	922.8691	1005.9705	1050.4639	1059.709	1091.1144	1119.2288	1205.6859	1230.1324	1232.8475	1275.1925	1311.9052	1334.545	1367.4035	1416.0374	1450.2535	1488.2297	1519.2383	1812.3853	3030.3793	3070.7587	3102.7707	3197.3744	3649.0897	3714.8729	3807.689
OC1C2CNC(=O)C12O	O[C@H]1[C@H]2CNC(=O)[C@@]12O	
InChI=1S/C5H7NO3/c7-3-2-1-6-4(8)5(2,3)9/h2-3,7,9H,1H2,(H,6,8)	InChI=1S/C5H7NO3/c7-3-2-1-6-4(8)5(2,3)9/h2-3,7,9H,1H2,(H,6,8)/t2-,3+,5+/m1/s1
