19
gdb 102453	1.80772	1.35716	0.92463	0.8114	73.55	-0.2428	-0.0995	0.1432	1337.7967	0.154839	-460.169504	-460.158832	-460.157888	-460.206089	36.21	
C	 0.9114449498	 0.6458391071	-0.4337624088	-0.386181
C	 0.1614254565	-0.6529803097	-0.1302219331	-0.206394
C	-1.3428822766	-0.4152165457	 0.0990200218	 0.027284
O	-1.8815713633	 0.1208561154	-1.0797860749	-0.228832
C	-3.1797014476	 0.667000322	-0.9458224293	-0.245761
C	-2.0222866935	-1.7262896733	 0.4939858154	 0.268807
O	-2.7626057734	-2.3576685684	-0.2218113041	-0.276695
C	-1.7632080783	-2.2700882457	 1.9086302872	 0.088206
O	-1.1233328182	-1.6919311139	 2.7477468052	-0.221338
H	 1.9681391066	 0.4430226486	-0.6309671828	 0.11614
H	 0.4848190244	 1.1407840612	-1.3086993492	 0.138831
H	 0.8551888654	 1.3391114533	 0.4124953345	 0.117279
H	 0.2660208418	-1.3554263558	-0.9652341815	 0.118218
H	 0.5785523134	-1.1322179655	 0.7604170978	 0.121502
H	-1.4625523337	 0.2839913482	 0.9453953334	 0.091469
H	-3.9271831138	-0.1014624303	-0.7148390533	 0.125986
H	-3.2083867873	 1.4426077207	-0.1651495681	 0.105265
H	-3.4297914931	 1.1240967332	-1.9056786325	 0.133
H	-2.2555108993	-3.2513412013	 2.0799223023	 0.113213
51.6443	86.4245	108.1895	120.4759	161.595	167.5103	189.7722	224.9492	268.7051	324.6593	357.2811	463.865	524.0079	577.2857	647.9616	764.218	833.276	924.2958	963.8325	995.9044	1046.8682	1104.2366	1125.8592	1159.5327	1175.102	1186.8407	1238.2803	1277.7313	1319.7353	1363.4336	1370.7601	1380.1079	1407.4432	1475.9997	1480.5968	1488.7459	1494.6247	1508.3378	1510.6129	1804.889	1819.4785	2918.1689	2957.2478	2987.8679	3040.7686	3045.5143	3061.153	3093.8121	3108.27	3123.5518	3135.2396
CCC(OC)C(=O)C=O	CC[C@@H](OC)C(=O)C=O	
InChI=1S/C6H10O3/c1-3-6(9-2)5(8)4-7/h4,6H,3H2,1-2H3	InChI=1S/C6H10O3/c1-3-6(9-2)5(8)4-7/h4,6H,3H2,1-2H3/t6-/m1/s1
