19
gdb 90807	3.14988	1.80724	1.46811	1.4391	77.02	-0.2113	0.0772	0.2886	949.8646	0.160929	-385.828044	-385.821057	-385.820113	-385.859447	28.995	
C	 0.185724158	 1.5423417976	-0.0707783106	-0.388435
C	-0.0463810657	 0.0352959154	 0.015487993	 0.12688
O	 0.3353633736	-0.5433876771	-1.2370769745	-0.295322
C	 1.2479202992	-1.5948483648	-1.1822042015	 0.132098
C	 2.4447917348	-1.6505230051	-0.2809242393	-0.135957
C	 1.2910360175	-2.6599798061	-0.1251599594	-0.139374
C	 0.9773584888	-2.0684471582	 1.2730003088	-0.10341
C	 2.1095738358	-1.0687747511	 1.1176164374	-0.088993
C	 0.6788620507	-0.5947468423	 1.1863753063	-0.06708
H	 1.2554162816	 1.76100795	-0.1445697176	 0.120861
H	-0.3123206543	 1.947125637	-0.9560716475	 0.121721
H	-0.2146830346	 2.0488772156	 0.8142111848	 0.105565
H	-1.1253666144	-0.1502944033	 0.1390442227	 0.074986
H	 1.4246889032	-1.9538524773	-2.1917540059	 0.102872
H	 3.4551352145	-1.8099507485	-0.6368197433	 0.085094
H	 1.2690348437	-3.7199030931	-0.346405375	 0.085825
H	 0.7159465782	-2.66926205	 2.1341162766	 0.086988
H	 2.8598324601	-0.7772842398	 1.8406457043	 0.087248
H	 0.4122660693	-0.1477128491	 2.1411011807	 0.088432
65.3899	229.3495	259.8584	384.2444	434.1089	491.7138	566.6026	622.9835	677.3196	720.7634	733.0042	744.2799	794.8098	851.2418	886.7782	899.2726	930.5783	942.7252	968.8774	1001.2631	1009.2332	1038.2493	1053.1213	1072.8674	1087.5825	1095.7983	1110.7986	1127.8253	1164.8347	1219.0327	1242.973	1287.1198	1309.1866	1323.2004	1367.0513	1374.2741	1403.8019	1426.1318	1455.8931	1487.0009	1495.2063	2966.383	3034.9715	3107.386	3119.8538	3140.2211	3158.5909	3175.855	3186.6436	3191.2183	3202.1584
CC1OC2C3C2C2C3C12	C[C@H]1O[C@H]2[C@@H]3[C@H]2[C@H]2[C@@H]3[C@@H]12	
InChI=1S/C8H10O/c1-2-3-4-5(3)7-6(4)8(7)9-2/h2-8H,1H3	InChI=1S/C8H10O/c1-2-3-4-5(3)7-6(4)8(7)9-2/h2-8H,1H3/t2-,3-,4+,5-,6+,7-,8+/m1/s1
