13
gdb 28985	3.11452	1.59133	1.05336	3.8719	76.62	-0.2425	-0.0754	0.1671	1033.9538	0.091667	-411.85872	-411.851282	-411.850338	-411.890695	27.468	
N	-0.0379118083	 1.3544646884	 0.0800656484	-0.581213
C	 0.0018577635	 0.0023453656	 0.0267096581	 0.387729
N	-1.1664303289	-0.655993694	 0.0198324247	-0.31304
C	-1.108791749	-1.9832300706	-0.0011436626	-0.001662
C	 0.0954732921	-2.6887397343	-0.0194409219	-0.055218
N	 1.263365732	-2.0516074156	-0.0223177865	-0.292772
C	 1.2286987643	-0.7206497327	-0.0003123247	 0.147083
C	 2.4602085701	 0.010062993	-0.0093647775	 0.246946
N	 3.3976078396	 0.6909992113	-0.0191957012	-0.343709
H	 0.7978843501	 1.8988929284	-0.0490814495	 0.28389
H	-0.9334858418	 1.8008842315	-0.022644522	 0.272322
H	-2.0598913358	-2.5100394285	-0.0062167528	 0.127048
H	 0.1176612321	-3.7731096225	-0.0360917026	 0.122595
112.0223	144.2676	214.302	229.6523	388.922	419.3088	488.8581	490.2547	552.4081	576.6652	614.3398	614.9187	739.5318	831.3361	874.8186	917.8047	986.0721	1026.6626	1104.7673	1191.7786	1266.4098	1283.9993	1360.0404	1461.1756	1501.0283	1577.0166	1595.241	1645.8663	2330.832	3160.4329	3190.6984	3608.119	3737.7631
NC1=NC=CN=C1C#N	Nc1nccnc1C#N	
InChI=1S/C5H4N4/c6-3-4-5(7)9-2-1-8-4/h1-2H,(H2,7,9)	InChI=1S/C5H4N4/c6-3-4-5(7)9-2-1-8-4/h1-2H,(H2,7,9)
