25
gdb 116448	2.46535	1.19474	0.93933	1.3317	88.48	-0.2423	0.0817	0.3239	1389.5944	0.230194	-389.511014	-389.501326	-389.500382	-389.545204	37.419	
C	-0.1514363391	 1.6010579919	 0.0042728373	-0.391665
C	 0.0486008035	 0.0818387899	 0.0489380939	-0.194054
C	 0.7853641418	-0.4919465947	-1.1726446578	 0.045275
C	 2.2613060134	-0.0580859977	-1.251361695	-0.211777
C	 2.9460909949	-0.6814263402	-2.4702280786	-0.076864
O	 2.8098647882	-2.091570713	-2.496963785	-0.244578
C	 1.4480021389	-2.4853031775	-2.5362260309	-0.08577
C	 0.6805108722	-2.0360527885	-1.2826104953	-0.004179
C	 1.1708218978	-2.8016075944	-0.0439945873	-0.394229
H	 0.8018340034	 2.1386450884	 0.0025116822	 0.11851
H	-0.7032418595	 1.9016827327	-0.8936509259	 0.112739
H	-0.7191456693	 1.9469298736	 0.8737177907	 0.111985
H	 0.5897811248	-0.1835641558	 0.9656691612	 0.097823
H	-0.9334275436	-0.4041231738	 0.124658934	 0.089891
H	 0.2851292818	-0.0903308448	-2.0687257495	 0.061198
H	 2.3441040724	 1.0326459334	-1.3165426842	 0.093141
H	 2.7928097965	-0.3640906751	-0.3418522285	 0.102064
H	 2.5219637656	-0.2483660676	-3.3941067669	 0.080248
H	 4.0211709525	-0.4776336465	-2.4694883214	 0.102229
H	 0.9645688982	-2.0704959599	-3.4384371882	 0.077428
H	 1.4494363143	-3.5764275607	-2.6261061967	 0.0985
H	-0.3778558259	-2.2869661439	-1.441134282	 0.063316
H	 2.2413005437	-2.6524260164	 0.1205424012	 0.127557
H	 0.6382854738	-2.4989873672	 0.8615667249	 0.111974
H	 1.0088986095	-3.876836822	-0.1762826622	 0.109236
84.7948	122.697	171.2771	204.4043	207.1642	235.0784	297.8611	321.3356	343.6742	409.7614	430.5412	510.7233	557.1027	664.1227	753.1219	787.5362	860.2062	871.8326	900.6039	929.2337	973.208	980.3262	1016.7125	1033.7263	1045.8431	1055.5834	1089.8649	1119.6037	1151.1991	1184.917	1189.8077	1231.9501	1263.3589	1289.9659	1306.9847	1319.2181	1333.7923	1349.227	1363.7907	1382.0645	1392.0514	1395.1272	1411.4582	1412.8946	1429.4367	1480.854	1486.0588	1489.3681	1497.409	1501.0498	1503.5942	1506.1908	1508.7981	2943.1875	2949.6225	2969.5343	3005.9621	3012.7903	3029.8007	3032.8067	3040.3956	3049.161	3071.5672	3072.9553	3079.7233	3098.2142	3102.2474	3105.2522	3121.9542
CCC1CCOCC1C	CC[C@H]1CCOC[C@H]1C	
InChI=1S/C8H16O/c1-3-8-4-5-9-6-7(8)2/h7-8H,3-6H2,1-2H3	InChI=1S/C8H16O/c1-3-8-4-5-9-6-7(8)2/h7-8H,3-6H2,1-2H3/t7-,8+/m1/s1
