17
gdb 97691	2.72381	0.83781	0.69169	1.8684	74.63	-0.2562	0.0172	0.2734	1613.1937	0.133243	-458.890747	-458.880726	-458.879782	-458.927889	34.593	
O	 0.1646634657	 1.3716614754	 0.3695639413	-0.400157
C	 0.0232752721	 0.1183936449	-0.2808414922	-0.195268
C	-1.3402732152	-0.4082698926	-0.2335149408	 0.132301
C	-2.4638212276	-0.8303042023	-0.1266187125	 0.03218
C	-3.8282552381	-1.2819450725	-0.0186036342	 0.126669
C	-4.8316906669	-0.2766154041	 0.5237280303	-0.126498
O	-4.555581482	 0.0553290427	 1.8676142006	-0.409353
C	-4.2999487946	-2.4187371584	-0.834338906	-0.20468
O	-4.0149262222	-2.604769906	 0.5477042926	-0.269726
H	-0.2303748047	 1.2901488789	 1.2442295862	 0.292616
H	 0.3299566019	 0.2836734743	-1.3198101578	 0.141718
H	 0.7110088234	-0.6351709952	 0.1361235667	 0.123521
H	-4.7774553267	 0.6552923058	-0.0468646085	 0.123308
H	-5.8412297579	-0.6980916848	 0.405680739	 0.093726
H	-4.5648393138	-0.7699800104	 2.3662108386	 0.295209
H	-5.3519788313	-2.4728226495	-1.11280066	 0.118379
H	-3.6054795422	-2.8935536763	-1.5244012834	 0.126056
17.6463	57.288	94.2233	121.2165	177.5713	246.6749	283.8205	325.4977	343.6481	417.7494	437.6088	525.7363	545.735	583.6451	685.0094	786.3994	896.8859	952.4677	984.7671	987.7993	1025.0942	1073.1724	1085.0156	1130.8053	1172.1718	1209.7308	1216.3393	1288.8626	1347.4834	1355.5311	1407.7641	1419.7243	1426.3288	1489.214	1490.4329	1520.4438	2359.088	2974.6156	2994.2492	3061.0296	3084.8271	3091.8297	3178.5391	3798.4042	3814.744
OCC#CC1(CO)CO1	OCC#C[C@@]1(CO)CO1	
InChI=1S/C6H8O3/c7-3-1-2-6(4-8)5-9-6/h7-8H,3-5H2	InChI=1S/C6H8O3/c7-3-1-2-6(4-8)5-9-6/h7-8H,3-5H2/t6-/m1/s1
