19
gdb 29506	3.04072	1.51316	1.03667	1.3966	83.23	-0.1676	0.0587	0.2264	1158.0693	0.162452	-382.102538	-382.09436	-382.093415	-382.135082	31.5	
C	 0.0085526105	 1.5263090923	-0.0136904086	-0.504271
C	 0.0061478527	 0.0282033844	 0.0255368285	 0.092124
C	 0.0036749616	-0.8129824908	-1.069525401	-0.169729
N	-0.0052098157	-2.1345755367	-0.6320027349	-0.38019
C	-0.0090047393	-2.1135525176	 0.7287944148	 0.331521
C	 0.0010036561	-0.8228516575	 1.1734519359	 0.208896
C	-0.0527129721	-0.8349982702	 2.6783313872	-0.366015
C	 0.2570509017	-2.3483547116	 2.9623169236	-0.159432
N	 0.024478647	-3.1322987199	 1.7036377336	-0.413164
H	 0.8792838976	 1.9450736327	 0.5055102745	 0.119642
H	 0.0302030727	 1.894180299	-1.0439494515	 0.115548
H	-0.8809039657	 1.9499322805	 0.468790027	 0.118799
H	 0.0138124643	-0.584512424	-2.1234816974	 0.108323
H	 0.060119447	-2.9469586785	-1.2188418658	 0.257034
H	 0.6909901733	-0.1989507776	 3.1696466347	 0.10369
H	-1.0351478862	-0.5320988434	 3.0697622673	 0.095781
H	 1.3135290204	-2.4563359852	 3.2287394893	 0.116798
H	-0.3369474866	-2.7663176075	 3.7787677284	 0.10018
H	-0.860134999	-3.6324980385	 1.7560416245	 0.224465
123.6585	135.6781	184.0841	220.7582	233.0098	312.3616	406.3335	492.2379	577.6467	612.6137	622.9211	658.2718	669.4487	745.4248	761.2546	813.4704	910.6701	924.4733	982.693	1001.2821	1045.2128	1062.8289	1080.4943	1097.6837	1178.6897	1193.828	1248.293	1260.8178	1295.6347	1341.2184	1359.2555	1401.1696	1417.0788	1437.2494	1482.1778	1492.093	1495.5474	1509.4197	1543.0062	1560.5657	1635.3508	2989.5449	3018.185	3042.9516	3062.6235	3063.0449	3099.9253	3102.3401	3256.4847	3459.1282	3687.8467
CC1=CNC2=C1CCN2	Cc1c[nH]c2c1CCN2	
InChI=1S/C7H10N2/c1-5-4-9-7-6(5)2-3-8-7/h4,8-9H,2-3H2,1H3	InChI=1S/C7H10N2/c1-5-4-9-7-6(5)2-3-8-7/h4,8-9H,2-3H2,1H3
