19
gdb 83438	3.2219	1.19841	1.07134	1.849	75.07	-0.2333	0.0581	0.2913	1189.0919	0.159095	-422.955162	-422.946932	-422.945988	-422.988291	31.864	
O	 0.2182336099	 1.3158492815	 0.1350855916	-0.437448
C	 0.0161363664	-0.0606189436	 0.0806881765	 0.059588
C	-0.5836289106	-0.801395767	 1.2278459714	-0.032909
O	-1.5044974003	 0.0776336923	 1.8914737024	-0.307859
C	-2.3452584628	 0.1234604792	 0.7003714273	-0.161334
C	-1.3497438676	-0.7137970744	-0.0991122821	 0.257411
C	-1.6703131334	-1.7079089472	-1.1550725873	-0.112058
C	-2.9020874147	-2.5811072957	-1.0887305001	-0.275765
C	-2.8208530432	-1.4745508759	-2.1091437565	-0.268407
H	-0.1413514334	 1.6010753183	 0.9864832709	 0.29586
H	 0.8149225668	-0.5739809492	-0.4494714068	 0.104335
H	-0.1542319856	-1.6114746731	 1.8076680223	 0.104375
H	-3.2993071764	-0.3749061227	 0.9006529252	 0.115531
H	-2.5215581117	 1.1484719631	 0.355834301	 0.114536
H	-0.7916980837	-2.1757871935	-1.5909200786	 0.082976
H	-2.816427004	-3.6065498849	-1.4308666956	 0.114253
H	-3.57864986	-2.4514110485	-0.2507815654	 0.114211
H	-3.4369276386	-0.5952928061	-1.9519268005	 0.116204
H	-2.6845309371	-1.7357788626	-3.1524769058	 0.116501
56.0545	144.4404	173.9649	240.49	260.5163	354.3246	375.7575	451.2211	537.6303	592.3169	662.8268	780.8367	795.9798	808.009	839.9747	868.0024	921.7053	938.923	959.7414	990.4568	1019.0516	1045.2755	1055.8342	1061.4629	1077.2101	1083.5688	1131.7618	1133.9385	1169.4369	1197.0096	1206.1396	1224.1223	1267.7995	1315.0871	1315.314	1379.3715	1418.4154	1469.4763	1475.5122	1504.3008	1512.9871	3032.1085	3083.5935	3131.3381	3134.4737	3138.5796	3145.9557	3170.1378	3208.8358	3224.0076	3749.1467
OC1C2OCC12C1CC1	O[C@H]1[C@H]2OC[C@@]12C1CC1	
InChI=1S/C7H10O2/c8-5-6-7(5,3-9-6)4-1-2-4/h4-6,8H,1-3H2	InChI=1S/C7H10O2/c8-5-6-7(5,3-9-6)4-1-2-4/h4-6,8H,1-3H2/t5-,6+,7+/m0/s1
