16
gdb 44259	3.08338	1.48471	1.11928	2.4135	69.41	-0.2559	-0.0411	0.2148	1052.7643	0.125551	-437.923684	-437.916343	-437.915399	-437.955931	27.716	
O	-0.0336564348	 0.1055022402	-0.7999593245	-0.268726
C	-0.033588609	 1.1924661676	-0.3132051706	 0.378736
C	-1.1271629557	 2.2002399861	 0.1271934591	-0.30758
N	-0.0352106952	 3.0474831973	 0.662901244	-0.094974
C	 1.0617299602	 2.1773454303	 0.1739901569	-0.104968
C	 1.9509872645	 1.8675064716	 1.402641457	-0.256033
C	 1.5621623551	 2.9947785458	 2.3848588082	-0.320173
C	 0.097292949	 3.2919230823	 2.0266285653	 0.369007
O	-0.7983674643	 3.6182145846	 2.7659256409	-0.343723
H	-1.6783237726	 2.6485620953	-0.7051021501	 0.147697
H	-1.8349820062	 1.8618950743	 0.8911087571	 0.158275
H	 1.6267206956	 2.6154762227	-0.6570144589	 0.115816
H	 1.6948356274	 0.8889874899	 1.8212058562	 0.12896
H	 3.0128988366	 1.8519911545	 1.1540263098	 0.123018
H	 1.638224384	 2.7232518043	 3.4380326325	 0.138701
H	 2.1680282253	 3.8930380031	 2.221606667	 0.135969
75.341	146.7188	196.0589	225.3822	401.1608	440.3452	543.0021	551.6385	608.8242	655.6308	689.5773	761.4159	807.4109	851.0966	944.0235	964.1302	986.7071	1032.9073	1043.8803	1073.0735	1105.1231	1149.031	1153.6214	1211.247	1235.1256	1265.5096	1276.0054	1293.865	1321.2413	1338.9205	1469.3355	1471.4341	1503.7548	1831.9004	1917.7755	3038.8719	3051.4167	3054.6452	3061.6059	3102.8676	3122.1502	3136.7935
O=C1CN2C1CCC2=O	O=C1CN2[C@H]1CCC2=O	
InChI=1S/C6H7NO2/c8-5-3-7-4(5)1-2-6(7)9/h4H,1-3H2	InChI=1S/C6H7NO2/c8-5-3-7-4(5)1-2-6(7)9/h4H,1-3H2/t4-/m0/s1
