18
gdb 67688	2.28055	1.92507	1.48558	4.5221	75.04	-0.2342	0.0013	0.2355	973.5422	0.148841	-401.953545	-401.945969	-401.945025	-401.985396	29.668	
C	-0.1684706763	 1.4968703533	-0.037768945	-0.51081
C	 0.1122906317	 0.0309086436	 0.0327517472	 0.341598
C	 0.7711819956	-0.8466279117	-0.9354484756	-0.064335
C	 1.6809107925	-1.8715207154	-0.2650794319	-0.248158
C	 1.4369591622	-1.6516497659	 1.2511611564	-0.218252
C	 0.1006649114	-0.8858143715	 1.2877421303	-0.240789
C	-0.9449592546	-1.6807079654	 0.5008345963	 0.419694
O	-1.7757963827	-2.494393886	 0.7670512776	-0.320796
N	-0.7309514429	-1.0004762288	-0.7600013022	-0.239421
H	 0.6550864052	 2.0708875659	 0.4016181452	 0.128782
H	-0.2911180423	 1.8151657006	-1.07656805	 0.139818
H	-1.0843329926	 1.7503118442	 0.5058837717	 0.136055
H	 0.9999549024	-0.4974525808	-1.937130854	 0.109027
H	 1.4256599966	-2.8876224637	-0.5826583633	 0.128442
H	 2.7235534394	-1.6964264145	-0.5454417415	 0.111756
H	 1.3859420416	-2.5871735065	 1.8139751583	 0.122334
H	 2.2292999597	-1.0369225727	 1.6907676601	 0.109309
H	-0.197099507	-0.4863974247	 2.2566273303	 0.095744
115.2523	183.4337	210.1947	220.8206	287.7373	400.6679	498.3915	541.7385	590.8751	628.3885	695.5714	712.1451	804.7185	835.0556	854.3224	897.3303	926.5657	959.2836	1006.1969	1020.6011	1039.3146	1070.7901	1090.9857	1114.0159	1161.9588	1188.6511	1232.0709	1239.224	1271.9959	1288.3805	1321.7083	1337.8146	1413.1186	1458.9649	1482.2828	1486.3989	1492.2439	1500.1825	1904.3386	3033.8785	3048.6759	3055.4218	3091.3987	3096.9876	3109.0086	3117.6547	3128.1393	3168.8493
CC12C3CCC1C(=O)N23	C[C@@]12[C@H]3CC[C@@H]1C(=O)N23	
InChI=1S/C7H9NO/c1-7-4-2-3-5(7)8(7)6(4)9/h4-5H,2-3H2,1H3	InChI=1S/C7H9NO/c1-7-4-2-3-5(7)8(7)6(4)9/h4-5H,2-3H2,1H3/t4-,5-,7+,8?/m1/s1
