21
gdb 97650	2.73237	0.69862	0.58548	1.0057	85.33	-0.2577	0.0292	0.2869	1937.4691	0.179157	-424.1824	-424.170935	-424.169991	-424.220868	39.055	
C	-0.1026820154	 1.1104279938	 0.8269815997	-0.389734
C	-0.0676641487	-0.3119091047	 0.2651749595	-0.178288
C	 0.5456894992	-0.3790734257	-1.1420892336	-0.070542
O	 1.8862333217	 0.0804315881	-1.0403864153	-0.227594
C	 2.5180410436	 0.2919360977	-2.2834803967	-0.233366
C	 0.4622729129	-1.7347747717	-1.7025111829	 0.058105
C	 0.382373763	-2.8551460055	-2.1409702082	 0.080437
C	 0.3096904047	-4.1981730729	-2.7148468819	-0.197003
O	-0.0239519718	-4.2127756388	-4.0960885591	-0.40127
H	 0.9035515647	 1.5328627287	 0.8729130807	 0.136092
H	-0.7174669504	 1.7681237733	 0.2019424559	 0.110813
H	-0.5269147484	 1.1180393106	 1.83531163	 0.11152
H	 0.5191539475	-0.9681135893	 0.9169213108	 0.115358
H	-1.0772441039	-0.7325990851	 0.2129941301	 0.108086
H	-0.0181537159	 0.3015389194	-1.8056849988	 0.087957
H	 2.5944933784	-0.6369388252	-2.8656941394	 0.109628
H	 1.9808594396	 1.0390245452	-2.8889421596	 0.10294
H	 3.5230448021	 0.6643302061	-2.0719971193	 0.127852
H	 1.2597256682	-4.723226973	-2.5253696486	 0.120323
H	-0.4740390992	-4.7776051511	-2.2141970632	 0.142118
H	 0.5861935282	-3.6187967999	-4.5454506903	 0.286567
22.1137	72.4044	82.6105	109.07	131.35	172.1949	207.3932	222.7018	260.7936	296.6007	308.1061	349.6518	450.1303	520.5445	535.921	591.0778	755.3144	814.2181	902.1334	942.3386	986.0529	1041.0756	1051.3075	1102.4407	1121.4663	1147.953	1157.3616	1184.8859	1215.1371	1225.6597	1290.8563	1315.0989	1357.7157	1364.1283	1381.572	1407.4036	1417.6884	1475.5033	1479.0093	1484.0986	1490.2949	1495.4458	1508.6677	1510.6369	2349.01	2936.688	2976.6002	2978.809	3036.1606	3037.2194	3048.0714	3062.8807	3085.9904	3104.3271	3118.3007	3131.2555	3817.5744
CCC(OC)C#CCO	CC[C@@H](OC)C#CCO	
InChI=1S/C7H12O2/c1-3-7(9-2)5-4-6-8/h7-8H,3,6H2,1-2H3	InChI=1S/C7H12O2/c1-3-7(9-2)5-4-6-8/h7-8H,3,6H2,1-2H3/t7-/m1/s1
