16
gdb 32124	3.78344	1.19719	0.91493	1.6498	77.01	-0.2132	-0.0112	0.2021	1229.4082	0.126707	-434.147038	-434.138843	-434.137898	-434.180349	29.949	
C	-0.0679434409	 1.4046179364	-0.0129757117	-0.309826
N	 0.0631645434	-0.0348762661	 0.0529149415	-0.346303
C	 0.6542445666	-0.6880787091	 1.0850794192	 0.466242
N	 1.2531077798	 0.0493492925	 2.0319058313	-0.343083
C	 1.8404316302	-0.6469842718	 3.0103102508	 0.019587
C	 1.8481200129	-2.0279372441	 3.0829722828	-0.239651
C	 1.1805528775	-2.6779734163	 2.0378604219	 0.434789
O	 1.1294410891	-4.0208536338	 2.0263148312	-0.412381
N	 0.5864290143	-2.0367839698	 1.0458386444	-0.432344
H	 0.9019258727	 1.8813985026	 0.1465273171	 0.150224
H	-0.4382052739	 1.6756494299	-1.0041693532	 0.120014
H	-0.7603052841	 1.7979728098	 0.7425700521	 0.127646
H	-0.4599191171	-0.6134438615	-0.581528235	 0.250751
H	 2.3312018467	-0.0571632243	 3.781907299	 0.111027
H	 2.324307019	-2.577388929	 3.8822387269	 0.106819
H	 0.6319796538	-4.2631517853	 1.2320957318	 0.29649
62.9847	98.8264	190.7396	210.5005	234.9037	377.7078	433.4651	459.4983	510.5774	555.8422	562.3822	651.5405	730.8746	798.0732	810.6958	825.527	973.218	999.6799	1004.3644	1089.6901	1120.3323	1159.1614	1182.2001	1232.4326	1301.4237	1343.1366	1397.3592	1412.8212	1450.4197	1477.9795	1509.3193	1517.2256	1593.2855	1620.3058	1656.9124	3019.863	3093.3839	3134.0385	3151.5911	3235.6085	3669.7705	3758.0671
CNC1=NC=CC(O)=N1	CNc1nccc(O)n1	
InChI=1S/C5H7N3O/c1-6-5-7-3-2-4(9)8-5/h2-3H,1H3,(H2,6,7,8,9)	InChI=1S/C5H7N3O/c1-6-5-7-3-2-4(9)8-5/h2-3H,1H3,(H2,6,7,8,9)
