12
gdb 129322	2.82439	1.5502	1.00086	0.3242	66.91	-0.2753	-0.1344	0.1408	1056.5565	0.076021	-468.761525	-468.753918	-468.752974	-468.794384	26.755	
N	 0.1457265411	 1.4229784797	-0.135608938	-0.520775
C	 0.0778897867	 0.1616825325	-0.2368693858	 0.388428
O	 1.1407325792	-0.5976121892	-0.6784829402	-0.287577
N	 1.0708022848	-2.0483487342	-0.7977571043	 0.072921
N	 0.0265539467	-2.6190676038	-0.4939909023	-0.110854
C	-1.1026612418	-1.9312187011	-0.0365218984	-0.022056
C	-1.122366213	-0.5950155489	 0.1023443546	 0.059511
C	-2.3513252807	 0.1048953392	 0.5954179631	 0.107278
O	-3.3578934529	-0.4961390844	 0.8836819415	-0.24659
H	 1.0621014213	 1.7726452323	-0.417125368	 0.241614
H	-1.9590293583	-2.5500772294	 0.197705585	 0.176691
H	-2.2630388331	 1.2007713374	 0.6736726528	 0.141409
71.1041	102.4343	198.245	204.6474	320.1725	339.6953	469.5553	518.8781	580.4313	595.0127	698.9598	753.8137	840.9092	869.0693	912.8018	962.2313	1010.2091	1051.6164	1086.2313	1160.5943	1279.4794	1374.4856	1431.4145	1595.0202	1660.9117	1738.8745	1799.1892	3015.3372	3233.5125	3494.4248
N=C1ON=NC=C1C=O	[NH]C1=C(C=N[N]O1)C=O	
InChI=1S/C4H3N3O2/c5-4-3(2-8)1-6-7-9-4/h1-2,5H	InChI=1S/C4H3N3O2/c5-4-3(2-8)1-6-7-9-4/h1-2,5H
