14
gdb 17902	3.1367	2.57647	2.33429	2.4327	66.04	-0.2472	-0.0037	0.2435	682.0412	0.109085	-345.415584	-345.409913	-345.408969	-345.445026	23.383	
O	 0.0004337534	 0.0915857174	 0.0044285688	-0.307036
C	-0.0153448936	 1.275772708	 0.0108169944	 0.429004
C	-1.1851688197	 2.3442686202	 0.0327753178	-0.206464
C	-0.6923203001	 3.0671436009	 1.2763769961	-0.081038
C	 0.6484280269	 3.0850226218	 1.2577340615	-0.081037
C	 1.125592019	 2.375232248	 0.0005619557	-0.206464
C	 0.6134802117	 3.0980971194	-1.2352379846	-0.081039
C	-0.7272664262	 3.0800457857	-1.2165960496	-0.081038
H	-2.2074072166	 1.9730764034	 0.0451767668	 0.083866
H	-1.3483999264	 3.4576992038	 2.0418786349	 0.111846
H	 1.3148977987	 3.4932341501	 2.0048275034	 0.111844
H	 2.1573554952	 2.031562925	-0.0156995477	 0.083866
H	 1.2588124051	 3.5142279996	-1.9963874302	 0.111846
H	-1.4044847036	 3.4783892667	-1.9593376572	 0.111844
167.87	390.1262	408.6955	459.6185	575.3424	579.233	689.8735	728.416	742.8691	779.5108	805.2948	817.8189	887.8606	927.293	934.3598	948.8742	959.423	985.7972	1018.039	1085.6815	1135.0401	1165.6561	1176.2589	1236.9278	1274.3684	1308.3119	1345.9858	1589.5483	1630.1485	1913.1149	3147.7635	3149.2123	3217.278	3218.6671	3240.2323	3242.409
O=C1C2C=CC1C=C2	O=C1[C@H]2C=C[C@@H]1C=C2	
InChI=1S/C7H6O/c8-7-5-1-2-6(7)4-3-5/h1-6H	InChI=1S/C7H6O/c8-7-5-1-2-6(7)4-3-5/h1-6H/t5-,6+
