19
gdb 110895	2.97005	1.4302	1.16807	3.9371	74.86	-0.2438	-0.0188	0.225	1094.1055	0.161419	-423.03044	-423.022835	-423.02189	-423.062493	30.252	
O	-0.0510519261	 1.4551896275	-0.1188082532	-0.426409
C	 0.0659197273	 0.0489907672	-0.0714914305	-0.088027
C	-1.3150212347	-0.6141546476	 0.014494054	-0.109699
C	-1.4120826624	-2.150315484	 0.1572393874	-0.050007
C	-2.9094391162	-2.3227090052	 0.5475995716	-0.240341
C	-2.456628791	-1.6126565179	 1.8681852382	-0.121845
C	-1.1043616309	-2.3865912572	 1.6670507332	-0.239651
C	-2.0343957354	-0.259311111	 1.3313027026	 0.444526
O	-2.1449141376	 0.8356194037	 1.8308819315	-0.366761
H	-0.6327215664	 1.7101197344	 0.6116218822	 0.296008
H	 0.5735091285	-0.2606065228	-0.9921216773	 0.106058
H	 0.698358508	-0.2768385697	 0.7708406774	 0.085552
H	-1.9083225213	-0.2519835299	-0.8342400421	 0.105061
H	-0.9515877818	-2.7560431079	-0.6226098425	 0.075582
H	-3.6672104631	-1.8322083515	-0.0697871148	 0.106459
H	-3.1827230499	-3.3643758804	 0.7285141378	 0.111352
H	-3.0251185187	-1.6318564761	 2.7952063233	 0.086335
H	-1.2033239087	-3.4351149081	 1.955655945	 0.113405
H	-0.1948136896	-1.9634705635	 2.0996001161	 0.112402
114.9947	151.1774	189.4816	248.854	372.2928	432.7648	478.5281	512.3234	532.9127	616.0279	706.7246	768.0849	814.0213	832.1131	862.7604	887.1225	932.5734	987.8146	1003.6757	1015.2874	1027.8823	1053.788	1084.8457	1087.7267	1099.2958	1126.1634	1173.2393	1198.932	1224.8968	1230.2324	1239.8476	1262.1111	1294.5428	1300.3263	1345.5912	1385.9491	1458.5249	1489.8998	1514.8903	1523.7136	1835.4459	2965.515	3038.3937	3057.5253	3058.9034	3067.3301	3118.7066	3122.6526	3127.0777	3149.8181	3731.6529
OCC1C2CC(C2)C1=O	OC[C@H]1[C@@H]2C[C@@H](C2)C1=O	
InChI=1S/C7H10O2/c8-3-6-4-1-5(2-4)7(6)9/h4-6,8H,1-3H2	InChI=1S/C7H10O2/c8-3-6-4-1-5(2-4)7(6)9/h4-6,8H,1-3H2/t4-,5+,6-/m0/s1
