23
gdb 104884	2.34433	1.32434	1.11603	1.8454	81.18	-0.2388	0.076	0.3148	1247.9389	0.204871	-425.423536	-425.413457	-425.412512	-425.459057	36.875	
C	 0.8325744629	-0.7506441917	-1.0234703575	-0.38532
C	 0.0025650124	-0.0567342636	 0.0611209927	-0.259369
C	-1.4908608468	-0.4120126055	 0.0263344653	 0.372798
C	-1.8029222363	-1.8958273437	 0.2938892044	-0.256757
C	-3.2506367544	-1.8316047462	 0.7771868257	-0.073613
O	-3.3462980811	-0.6279840015	 1.5371579884	-0.265753
C	-2.3028303702	 0.2617453918	 1.1571648082	-0.096936
O	-2.0825065967	-0.1598325776	-1.2577304606	-0.291049
C	-2.0047827665	 1.1503522174	-1.772836238	-0.250103
H	 1.8731649139	-0.4144289969	-0.9909857304	 0.111393
H	 0.8306451287	-1.8371066944	-0.8910505267	 0.119545
H	 0.436316092	-0.5415376912	-2.0206826591	 0.13002
H	 0.3880782058	-0.3224089318	 1.0522064419	 0.101099
H	 0.1206802313	 1.0311962242	-0.0206353868	 0.098498
H	-1.6717198167	-2.5025961488	-0.6032424058	 0.113009
H	-1.147836608	-2.2767075372	 1.0841376588	 0.100362
H	-3.9410756148	-1.7999034175	-0.076968399	 0.101907
H	-3.5343162617	-2.6677989076	 1.4240242203	 0.099303
H	-1.6635703589	 0.4628819705	 2.0282870457	 0.089237
H	-2.7337669262	 1.2169440526	 0.8352726022	 0.097945
H	-2.4117144277	 1.9062640563	-1.0867817302	 0.107884
H	-0.9781546106	 1.4418544001	-2.0353154732	 0.10742
H	-2.6078198504	 1.1588754325	-2.6845961864	 0.128479
34.9676	107.2759	125.2682	167.0139	187.2333	207.9491	234.7311	299.0827	341.9143	387.4531	403.1525	497.3981	617.622	660.8473	775.8098	781.1467	857.2363	886.8634	927.2947	971.301	972.3427	998.9496	1042.5882	1054.1804	1098.5436	1118.7203	1148.1939	1179.4916	1181.9048	1189.5605	1205.7884	1240.4993	1246.5108	1264.4821	1323.3274	1327.4749	1366.5492	1376.5614	1407.345	1410.4051	1471.6325	1473.9257	1483.9552	1495.1551	1498.9333	1501.4214	1510.8832	1518.3888	1525.9594	2991.357	3001.6071	3009.4981	3027.812	3039.2866	3043.2844	3050.7209	3054.131	3062.7634	3076.2698	3107.3212	3108.1873	3121.6223	3128.7203
CCC1(CCOC1)OC	CC[C@]1(CCOC1)OC	
InChI=1S/C7H14O2/c1-3-7(8-2)4-5-9-6-7/h3-6H2,1-2H3	InChI=1S/C7H14O2/c1-3-7(8-2)4-5-9-6-7/h3-6H2,1-2H3/t7-/m1/s1
