15
gdb 46453	3.79115	1.19434	1.0828	3.1855	70.72	-0.2604	-0.0057	0.2547	1096.2639	0.114805	-416.854356	-416.846868	-416.845924	-416.88646	28.264	
O	-0.0003835529	-0.0236772395	-0.0862839723	-0.3703
C	 0.0171764719	 1.1811410932	 0.0037319718	 0.436185
N	-1.0715399029	 2.000175314	 0.1942073901	-0.33104
C	-0.8357593398	 3.4201344644	 0.012516841	-0.234202
C	 0.6971057633	 3.5121475532	-0.0259088545	 0.182356
C	 1.438263961	 2.9474576888	 1.1660100926	-0.313665
C	 1.2303578739	 2.0809918919	-0.0474253233	-0.203594
C	 1.291362988	 4.562035421	-0.7992408239	 0.206454
N	 1.7610752147	 5.416077541	-1.4222927191	-0.335372
H	-1.9969401366	 1.6035632094	 0.2302708861	 0.262012
H	-1.2586031755	 3.790982472	-0.9294299039	 0.136493
H	-1.2563136856	 4.0132223629	 0.8326868365	 0.131772
H	 2.4402861348	 3.322699653	 1.3358521736	 0.15113
H	 0.8625486313	 2.7373846143	 2.0612438987	 0.142263
H	 2.0718151143	 1.7763331905	-0.6538836834	 0.139509
105.5664	151.7842	162.7752	282.4894	350.7901	433.6658	475.76	503.7817	563.4475	584.9249	654.1951	722.6155	768.0645	823.9634	885.0878	941.9668	991.1457	1005.5568	1048.8969	1073.8773	1089.5241	1098.4554	1210.4244	1222.0977	1245.3014	1281.5799	1343.7251	1382.2915	1446.5965	1485.0938	1529.4813	1840.4245	2355.6621	3022.6975	3060.3601	3139.7624	3223.8033	3237.1976	3648.5694
O=C1NCC2(CC12)C#N	O=C1NC[C@]2(C[C@@H]12)C#N	
InChI=1S/C6H6N2O/c7-2-6-1-4(6)5(9)8-3-6/h4H,1,3H2,(H,8,9)	InChI=1S/C6H6N2O/c7-2-6-1-4(6)5(9)8-3-6/h4H,1,3H2,(H,8,9)/t4-,6-/m0/s1
