21
gdb 116517	2.88451	1.12145	0.8811	3.5308	74.85	-0.2514	0.0699	0.3214	1340.2528	0.183701	-461.350278	-461.341202	-461.340257	-461.384375	33.773	
O	-0.0303267736	 1.4392328012	 0.0882389675	-0.421053
C	 0.0188874847	 0.0239071028	-0.0065426068	-0.091471
C	-1.4129331857	-0.5163835192	-0.02965689	 0.015604
C	-1.3949156505	-2.0440766885	-0.2124109675	-0.254972
C	-2.705001482	-2.6456839224	-0.7443034122	-0.074077
O	-3.9030933226	-2.0339832621	-0.2844046444	-0.234902
C	-3.9604248932	-1.6379420446	 1.0586727796	 0.015186
O	-3.5397639924	-0.3187665567	 1.2600159464	-0.230862
C	-2.139096631	-0.1106376015	 1.2664588597	-0.079576
H	 0.8682889203	 1.769713139	 0.1742632568	 0.289092
H	 0.5385006235	-0.2933327547	-0.9244020703	 0.088206
H	 0.5663530019	-0.4140402869	 0.8457747751	 0.08445
H	-1.9341257065	-0.0444919265	-0.8715179968	 0.100961
H	-0.6031505766	-2.3347917222	-0.9151997991	 0.097482
H	-1.1260045784	-2.5081942502	 0.7448967942	 0.101677
H	-2.7452562605	-2.5383837335	-1.833318369	 0.112672
H	-2.7229352173	-3.7243687542	-0.5233227052	 0.091976
H	-5.0173992442	-1.6552926564	 1.3368625893	 0.112933
H	-3.3957146056	-2.3334363167	 1.7051301828	 0.071299
H	-1.6810364458	-0.6541807794	 2.1128577511	 0.076064
H	-2.0010838345	 0.9578470325	 1.4388449089	 0.12931
69.4382	108.5497	177.8234	191.6642	217.489	253.8049	318.2591	365.2106	418.5508	435.9761	471.9834	576.6922	620.5348	818.9042	842.5034	894.189	944.736	966.2219	982.0438	1022.9925	1053.4252	1081.2946	1104.0527	1124.7111	1140.8356	1163.4074	1207.2703	1227.5688	1253.3841	1265.7544	1285.3135	1293.511	1332.7901	1345.8333	1355.2206	1390.9043	1411.649	1422.1349	1444.8455	1455.6193	1489.1558	1496.609	1507.624	1516.4932	1520.9445	2938.3719	2945.1569	2955.3856	2981.7589	2987.8938	3020.1676	3040.7575	3052.5007	3073.2951	3094.48	3121.9688	3835.5678
OCC1CCOCOC1	OC[C@H]1CCOCOC1	
InChI=1S/C6H12O3/c7-3-6-1-2-8-5-9-4-6/h6-7H,1-5H2	InChI=1S/C6H12O3/c7-3-6-1-2-8-5-9-4-6/h6-7H,1-5H2/t6-/m1/s1
