23
gdb 89718	3.29449	1.03276	0.95389	1.9799	87.78	-0.2086	0.074	0.2826	1389.739	0.204073	-384.427014	-384.417021	-384.416076	-384.461428	37.775	
C	 0.0068468068	 1.5033049196	 0.0343268366	-0.318575
N	 0.0767512414	 0.0606610556	 0.0354613668	-0.070514
C	 1.0364051597	-0.5969079939	-0.8808934693	-0.234002
C	 1.4210087352	-1.5388677273	 0.2621700587	 0.307408
C	 0.6639688602	-0.6077567465	 1.2156174347	-0.252795
N	 1.304708814	-2.9934889808	 0.1774795189	-0.416781
C	 2.6179183406	-2.3762632327	 0.495142024	 0.250575
C	 3.6561325032	-2.5264450383	-0.5981193049	-0.43882
C	 3.1526041439	-2.5018328562	 1.9077399301	-0.462973
H	 0.9864394083	 1.9898570081	 0.2119541745	 0.085672
H	-0.3750949565	 1.8556332767	-0.9296635034	 0.121319
H	-0.6853919883	 1.843985098	 0.8118177702	 0.119057
H	 0.5828751097	-1.0546329109	-1.7661194686	 0.110766
H	 1.866650338	 0.0579423894	-1.194935557	 0.08138
H	 1.3351578046	 0.0395119953	 1.8063619375	 0.084116
H	-0.0709130669	-1.06032608	 1.8935913992	 0.099098
H	 0.8703449263	-3.3579157869	 1.0238721645	 0.220839
H	 3.1910570466	-2.4729307509	-1.584937077	 0.128781
H	 4.4168922341	-1.7406494186	-0.5272779118	 0.11107
H	 4.1644905447	-3.4940845257	-0.5180428465	 0.116411
H	 3.5874883128	-3.4950399658	 2.0704393748	 0.121505
H	 3.9403743816	-1.7639174671	 2.0979907237	 0.12143
H	 2.3661672101	-2.3504674812	 2.6536973442	 0.115032
71.3967	143.951	173.7405	185.9267	199.8486	232.8628	264.4001	317.9144	319.394	360.2229	432.5309	454.2966	473.9641	537.0092	692.3495	734.0325	848.4095	927.2917	939.5993	959.0443	975.9331	979.6558	995.7362	1027.6874	1068.644	1091.3122	1127.8281	1132.853	1151.1817	1170.6842	1185.3686	1220.244	1245.3543	1255.2432	1300.2174	1318.9303	1335.0118	1409.4619	1420.8007	1451.8539	1467.3793	1477.1754	1486.317	1488.006	1494.4399	1497.9136	1498.1539	1519.6768	1525.2975	2911.1771	2948.2872	2962.502	3023.2539	3027.9015	3030.1024	3054.4224	3063.3834	3083.5175	3089.3538	3097.0665	3102.1603	3125.2422	3472.9195
CN1CC2(C1)NC2(C)C	CN1CC2(C1)NC2(C)C	
InChI=1S/C7H14N2/c1-6(2)7(8-6)4-9(3)5-7/h8H,4-5H2,1-3H3	InChI=1S/C7H14N2/c1-6(2)7(8-6)4-9(3)5-7/h8H,4-5H2,1-3H3
