14
gdb 133640	4.26963	0.69679	0.67513	2.7091	57.89	-0.2726	0.0173	0.2899	1580.8729	0.09435	-568.139842	-568.130595	-568.129651	-568.175567	31.639	
F	-0.029466961	 0.0898013796	-0.0534223493	-0.068841
C	-0.0582112904	 1.4226357931	 0.022839042	 0.274947
F	 1.1981337811	 1.868369835	-0.0552342969	-0.068897
F	-0.7291920594	 1.8847010662	-1.0455533616	-0.081349
C	-0.7503803535	 1.901794139	 1.2890969184	-0.188291
O	-0.035882559	 1.4085738887	 2.3873592386	-0.241503
C	-0.6044167537	 1.8078416469	 3.6249130511	-0.204073
C	 0.1777495144	 1.2668243977	 4.7258457817	 0.28003
C	 0.8033247562	 0.8346604104	 5.6545763853	-0.402069
H	-0.7732973619	 3.0022566419	 1.265704082	 0.119799
H	-1.788011853	 1.5344746381	 1.2666577361	 0.11984
H	-0.6351297565	 2.9083154082	 3.6922312467	 0.126823
H	-1.6467106013	 1.4543238043	 3.6966959809	 0.126774
H	 1.3631853581	 0.448999961	 6.470580885	 0.20681
42.2275	67.6624	88.7525	131.0558	201.1135	306.6975	330.4716	357.1181	368.4679	522.5622	536.9736	590.7061	615.6987	670.7064	685.7028	857.4909	986.0141	987.0918	1033.9903	1039.4134	1169.114	1194.7462	1198.0155	1256.08	1293.4059	1312.81	1392.4157	1462.3152	1492.4671	1512.9428	2251.8896	2960.0493	2982.0517	2986.0797	3025.5215	3505.2115
FC(F)(F)COCC#C	FC(F)(F)COCC#C	
InChI=1S/C5H5F3O/c1-2-3-9-4-5(6,7)8/h1H,3-4H2	InChI=1S/C5H5F3O/c1-2-3-9-4-5(6,7)8/h1H,3-4H2
