25
gdb 123256	11.10534	0.37806	0.37156	1.8239	88.95	-0.2482	0.0871	0.3354	3002.6403	0.225968	-426.613418	-426.60138	-426.600436	-426.652527	40.577	
C	 0.0830902941	 1.4635244955	 0.0084267026	-0.382242
C	-0.0155815096	-0.0637838811	 0.0011961463	-0.181828
C	-1.4565830054	-0.5547839414	 0.0127107485	-0.030731
O	-1.4582120553	-1.9658953285	 0.0050804753	-0.246312
C	-2.7525713176	-2.5245701963	 0.0148929924	-0.052689
C	-2.6233363204	-4.0416719195	 0.0049251114	-0.21243
C	-3.9753303831	-4.7411057961	 0.0144145214	-0.049916
O	-3.7574127367	-6.1346893546	 0.0045390851	-0.228784
C	-4.9525663745	-6.8749652175	 0.0118653825	-0.22766
H	 1.1270406268	 1.7897393726	-0.0000542442	 0.117073
H	-0.4077440617	 1.9003754254	-0.8683972294	 0.115566
H	-0.3904111447	 1.8908849407	 0.8993470186	 0.115566
H	 0.4839004556	-0.4732870849	-0.8843036081	 0.106634
H	 0.5011647294	-0.4827097243	 0.8722633308	 0.106633
H	-1.9837911348	-0.1751413029	 0.906289623	 0.080192
H	-2.001232195	-0.1655453708	-0.8661574626	 0.080195
H	-3.3084128651	-2.1890156605	 0.908639718	 0.082194
H	-3.3262216026	-2.1788919281	-0.8636119212	 0.082187
H	-2.0625885274	-4.3510956792	-0.8831554299	 0.115982
H	-2.045041924	-4.3612004534	 0.8780497923	 0.11599
H	-4.55637358	-4.4510291293	 0.9082177346	 0.082587
H	-4.5739003029	-4.441207311	-0.8644525709	 0.082586
H	-5.5572964	-6.6700691877	 0.9102722243	 0.101365
H	-5.5743522298	-6.6601553938	-0.8724712065	 0.101367
H	-4.6828178254	-7.9339089634	 0.0034060757	 0.126475
36.9095	61.6801	67.8571	89.4817	119.1237	140.1438	162.4078	171.615	235.791	239.789	255.6799	312.5261	417.0458	484.3909	540.5674	765.1925	780.7495	890.2185	904.4666	910.2961	975.9358	1012.4144	1054.4707	1066.2584	1092.8174	1155.3356	1158.2181	1167.8589	1174.5851	1186.4638	1202.4511	1229.3503	1239.1447	1271.1021	1298.0362	1303.3206	1305.7622	1315.2889	1334.8465	1405.172	1413.6192	1430.6968	1459.2147	1482.7354	1485.6758	1491.7053	1498.0124	1500.7281	1504.8481	1507.6186	1518.3596	1533.103	1540.8942	2931.2286	2937.4405	2947.0733	2957.1957	2962.2692	2965.2621	2965.8392	3006.2657	3031.4003	3039.0408	3053.0913	3071.3595	3099.1241	3099.4362	3108.0046	3112.5799
CCCOCCCOC	CCCOCCCOC	
InChI=1S/C7H16O2/c1-3-5-9-7-4-6-8-2/h3-7H2,1-2H3	InChI=1S/C7H16O2/c1-3-5-9-7-4-6-8-2/h3-7H2,1-2H3
