25
gdb 113704	2.90006	0.94217	0.88799	1.6288	89.55	-0.2535	0.0791	0.3326	1525.2244	0.226002	-389.484983	-389.47388	-389.472936	-389.521183	41.433	
C	-0.9344135874	 0.8741888269	-2.4772792463	-0.377521
C	-0.4212893365	-0.0450527299	-1.3602305948	-0.222919
C	-1.5502802359	-0.8360379608	-0.742277655	 0.070851
O	-2.0370302353	-1.9917826192	-1.4454278565	-0.278099
C	-1.5307600437	-2.1729943926	-0.1186488424	 0.062486
C	-0.3910614362	-3.1622446342	 0.1303254517	 0.22285
C	 0.727343827	-3.1236752953	-0.9234217091	-0.424847
C	 0.1864207121	-2.8741502319	 1.5290243709	-0.405825
C	-1.0295501702	-4.5691124859	 0.1163788019	-0.401868
H	-0.1168541303	 1.452472151	-2.9176864799	 0.112242
H	-1.4036257582	 0.2876082445	-3.2730306536	 0.133106
H	-1.6801230644	 1.582214221	-2.0993906981	 0.114372
H	 0.3424996301	-0.7120420977	-1.7592150554	 0.110796
H	 0.0528567049	 0.5562899099	-0.5731306237	 0.097977
H	-2.363035697	-0.1889067116	-0.3942203159	 0.079496
H	-2.3311943672	-2.3270051784	 0.6138807407	 0.076699
H	 1.3633336173	-2.2416361378	-0.8141299334	 0.113476
H	 1.3708473689	-4.0025596544	-0.8115418578	 0.105526
H	 0.3111904727	-3.1319319931	-1.9341463497	 0.130417
H	-0.5908488542	-2.9197021611	 2.3000594927	 0.110598
H	 0.9531580503	-3.6119152255	 1.7882526445	 0.112974
H	 0.6458423323	-1.8810867272	 1.5724844542	 0.113414
H	-1.4596811251	-4.7911958283	-0.8652291805	 0.128162
H	-0.2804217677	-5.3350017576	 0.3428670549	 0.107519
H	-1.8291246664	-4.6510926709	 0.8606542105	 0.108118
44.0914	63.0044	147.6706	183.6772	220.4895	234.571	252.7509	266.0585	279.127	312.9827	337.5034	382.3123	401.0446	446.6509	522.6208	608.748	709.8509	757.7506	826.854	841.4926	924.5859	935.3514	951.1788	961.0971	963.0796	1027.593	1038.444	1047.0402	1081.2137	1115.6682	1166.1773	1194.6397	1226.2242	1242.4643	1274.8174	1296.2856	1334.2707	1349.4338	1392.3707	1396.3654	1408.7377	1413.6484	1436.4418	1474.0766	1482.394	1485.9438	1490.3614	1492.9658	1499.4824	1504.6635	1508.0796	1509.6082	1525.8442	3024.7257	3026.0135	3027.3823	3032.1034	3035.4162	3040.7425	3048.5818	3092.4756	3097.4365	3097.6201	3098.9264	3103.9129	3107.6244	3113.6397	3124.7715	3142.2734
CCC1OC1C(C)(C)C	CC[C@H]1O[C@H]1C(C)(C)C	
InChI=1S/C8H16O/c1-5-6-7(9-6)8(2,3)4/h6-7H,5H2,1-4H3	InChI=1S/C8H16O/c1-5-6-7(9-6)8(2,3)4/h6-7H,5H2,1-4H3/t6-,7-/m1/s1
