15
gdb 49581	2.05344	1.69584	1.10953	6.2312	69.79	-0.2473	-0.0391	0.2081	1076.7515	0.112504	-416.7724	-416.764437	-416.763493	-416.80578	28.722	
O	 0.024690302	-0.1089496643	 0.0192178274	-0.247286
C	 0.0031118967	 1.0850259798	-0.1415920802	 0.1539
C	 1.2374658952	 1.9523689563	-0.0184536014	-0.112574
C	 1.5177356338	 2.9172888408	-1.1875357673	-0.065833
N	 0.3656349444	 3.845160559	-1.2436602823	-0.319078
C	 1.4673647428	 4.1096690029	-0.3029590553	-0.053672
C	 1.1975011225	 3.2314475228	 0.9330737074	-0.188162
C	-0.0072957742	 3.5093930828	 1.7021386632	 0.302597
N	-0.9560859991	 3.7325577928	 2.323178731	-0.325982
H	-0.9238258295	 1.625346651	-0.4143040595	 0.119912
H	 2.0901345011	 1.3198803507	 0.230290009	 0.110155
H	 2.1263684687	 2.7159178441	-2.0589270317	 0.119809
H	 0.4916646969	 4.4537407082	-2.0508208397	 0.246069
H	 2.0249135541	 5.0363721666	-0.3232187756	 0.120325
H	 2.0558088445	 3.2016266266	 1.6075622051	 0.139818
55.9178	110.9077	131.392	195.6396	291.0922	372.0718	430.3532	485.6676	533.4171	625.7085	719.7756	815.5074	818.8509	849.2283	907.2319	938.9372	972.2645	1022.1483	1041.9153	1074.9062	1087.2443	1103.4409	1120.16	1172.782	1234.2155	1249.6721	1306.3856	1306.6103	1344.9702	1378.174	1421.3465	1822.2038	2358.8044	2956.5318	3094.7975	3118.4765	3203.4143	3216.3155	3494.9374
O=CC1C2NC2C1C#N	O=C[C@H]1[C@H]2N[C@H]2[C@H]1C#N	
InChI=1S/C6H6N2O/c7-1-3-4(2-9)6-5(3)8-6/h2-6,8H	InChI=1S/C6H6N2O/c7-1-3-4(2-9)6-5(3)8-6/h2-6,8H/t3-,4+,5-,6+/m0/s1
