21
gdb 106959	3.46336	1.04946	0.98057	1.8582	78.63	-0.2546	0.072	0.3266	1316.3337	0.180319	-424.194238	-424.184683	-424.183739	-424.228346	36.427	
C	 0.0651640343	 1.5409544745	 0.0300804673	-0.447556
C	 0.0055938926	 0.0180363378	-0.0179515048	 0.314525
C	-1.4270552035	-0.5043727285	-0.1090004191	-0.447584
C	 0.9643844208	-0.6837030056	-1.0627171674	-0.351277
C	 1.6594036042	-1.3906301791	 0.1086833146	 0.405962
C	 2.3953149406	-2.6914378127	 0.1458751016	-0.180831
O	 3.6460393296	-2.6081640794	-0.5204401639	-0.41376
O	 2.180181231	-0.3426564033	 0.9594138858	-0.303459
C	 0.8033006544	-0.7084422869	 1.0931280149	-0.084248
H	 1.0956523971	 1.8795115927	 0.1631235009	 0.131489
H	-0.3233866862	 1.9757763867	-0.8977110321	 0.112101
H	-0.5361638651	 1.9341582209	 0.8580802225	 0.109434
H	-1.9115461802	-0.1529837169	-1.0263485017	 0.120002
H	-1.4557737119	-1.5997196419	-0.1129652433	 0.11169
H	-2.0269390132	-0.1566411815	 0.7399207951	 0.114751
H	 0.4309483413	-1.3649411713	-1.7306051678	 0.104548
H	 1.6121903289	-0.0292325916	-1.6500920376	 0.108376
H	 2.5121902165	-3.0058925654	 1.1940882246	 0.09668
H	 1.823436883	-3.4645978956	-0.377972576	 0.11251
H	 4.1452889998	-1.9072684576	-0.0862723472	 0.293279
H	 0.4652171662	-1.0142422155	 2.0790802337	 0.093368
66.9077	103.6704	184.8906	233.4127	248.3699	260.0833	306.4895	316.5983	385.8991	403.601	424.3152	450.8237	548.6725	644.8138	716.3426	782.9709	843.6327	895.7767	918.8882	939.5092	956.3635	968.1881	977.8948	1008.3783	1046.941	1074.4985	1113.9896	1168.4869	1191.4563	1204.7075	1219.8782	1273.7297	1280.8182	1312.3324	1367.6834	1398.2053	1412.1248	1421.2731	1458.422	1481.5772	1485.6317	1488.0783	1489.0324	1501.5278	1511.6685	2992.4199	3021.5295	3028.0704	3064.9145	3076.9134	3086.0351	3089.9943	3095.5038	3119.9655	3123.1291	3159.9217	3803.7236
CC1(C)CC2(CO)OC12	CC1(C)C[C@@]2(CO)O[C@@H]12	
InChI=1S/C7H12O2/c1-6(2)3-7(4-8)5(6)9-7/h5,8H,3-4H2,1-2H3	InChI=1S/C7H12O2/c1-6(2)3-7(4-8)5(6)9-7/h5,8H,3-4H2,1-2H3/t5-,7-/m0/s1
