16
gdb 50886	4.74227	0.67986	0.64086	2.3733	77.33	-0.2534	0.0023	0.2557	1710.6654	0.123382	-434.072041	-434.062303	-434.061359	-434.108083	33.928	
N	 0.927503977	-0.0848434383	-0.0393687914	-0.476598
C	-0.214138813	 0.3909258517	 0.2522648937	 0.107582
N	-1.3573282332	-0.1605986006	-0.2968963197	-0.355537
C	-2.6323089983	 0.3315217504	-0.0372772425	 0.537187
O	-2.8322397367	 1.2847087031	 0.6917031812	-0.393328
N	-3.6268505231	-0.3414648062	-0.7063835272	-0.374338
C	-5.0263488574	-0.0717995946	-0.399486324	-0.291548
C	-5.7000639024	-1.2108263456	 0.2200439432	 0.290239
C	-6.2464392698	-2.1659444281	 0.7024852222	-0.449323
H	 1.6575168787	 0.4305338424	 0.4479660977	 0.231035
H	-0.4434877023	 1.2256268373	 0.9169829977	 0.141715
H	-1.2101094143	-0.9267168094	-0.9382437655	 0.254513
H	-3.4191700315	-1.2325714563	-1.1286892419	 0.248163
H	-5.0260541678	 0.7930984956	 0.2706050184	 0.183407
H	-5.5609866929	 0.2211759315	-1.3118852329	 0.140234
H	-6.734817113	-2.9987392029	 1.1452251411	 0.206597
30.9956	57.7947	116.8253	166.838	171.4023	228.8249	299.6505	329.8088	387.9901	411.8588	494.4611	580.6963	595.2429	622.6826	673.2666	762.4758	765.0937	825.9593	947.1074	971.6432	1066.1086	1068.8487	1085.7619	1158.3018	1209.3417	1271.053	1310.699	1373.1007	1393.645	1477.6252	1484.207	1543.3036	1730.3731	1797.7722	2241.0171	3025.8239	3095.6262	3127.6983	3504.4711	3512.192	3609.4492	3631.2041
N=CNC(=O)NCC#C	N=CNC(=O)NCC#C	
InChI=1S/C5H7N3O/c1-2-3-7-5(9)8-4-6/h1,4H,3H2,(H3,6,7,8,9)	InChI=1S/C5H7N3O/c1-2-3-7-5(9)8-4-6/h1,4H,3H2,(H3,6,7,8,9)
