19
gdb 72325	3.0864	1.72729	1.35585	1.6928	80.7	-0.2234	-0.0028	0.2206	982.6658	0.161238	-385.850965	-385.84386	-385.842916	-385.881835	30.04	
O	-0.1429440617	 1.4268128055	-0.0911573769	-0.474461
C	-0.0759239015	 0.0336211436	-0.1129104443	 0.391976
C	 0.7578800841	-0.6251197999	-1.2208154829	-0.332733
C	 0.2000607712	-2.0331759351	-1.1987903897	-0.115198
C	-0.9005057828	-2.1063027562	-0.433628257	 0.125412
C	-1.0068475722	-3.0365866827	 0.748623358	-0.261831
C	-0.2059419827	-2.1050997314	 1.7415808698	-0.226958
C	-0.4712338574	-0.6565521358	 1.2497636463	-0.098679
C	-1.343304196	-0.7294508996	 0.0245460473	-0.16374
H	 0.6988477412	 1.7609121545	 0.2366091907	 0.282955
H	 0.6264983473	-0.0595097189	-2.1537844737	 0.112588
H	 1.837151654	-0.6508608388	-1.015051551	 0.098405
H	 0.8105533324	-2.8931941984	-1.4574517124	 0.089226
H	-2.0296496586	-3.1945828594	 1.1050813253	 0.100971
H	-0.5263508143	-4.006307656	 0.6008320218	 0.100249
H	-0.5562239309	-2.2088962045	 2.7749697544	 0.097701
H	 0.8539271773	-2.3792033833	 1.7241359826	 0.100821
H	-0.6790060712	 0.0966124844	 2.0042920629	 0.084223
H	-2.3483875081	-0.3383102783	-0.085411931	 0.089072
215.8308	249.8756	279.5545	310.7405	360.1957	395.9936	457.8206	557.6258	615.7545	645.2948	664.4843	771.2254	828.0624	841.7659	848.8426	870.386	904.8325	928.2528	938.6467	981.1197	996.5293	1031.0416	1055.4951	1071.2131	1109.3855	1138.9187	1165.6524	1171.4208	1193.6385	1229.6109	1267.2336	1273.0205	1299.6489	1302.3777	1314.3163	1332.2685	1427.1322	1479.1882	1485.4632	1497.2127	1658.4969	3003.25	3032.1803	3033.5398	3051.0517	3076.7662	3114.4259	3152.4913	3171.8011	3173.2731	3801.0551
OC12CC=C3CCC1C23	O[C@@]12C[CH][C]3CC[C@@H]1[C@@H]23	
InChI=1S/C8H10O/c9-8-4-3-5-1-2-6(8)7(5)8/h3,6-7,9H,1-2,4H2	InChI=1S/C8H10O/c9-8-4-3-5-1-2-6(8)7(5)8/h3,6-7,9H,1-2,4H2/t6-,7+,8+/m1/s1
