16
gdb 32352	4.95187	1.0667	0.88251	1.8286	81.14	-0.1841	-0.0564	0.1277	1267.4581	0.125785	-434.086738	-434.078621	-434.077677	-434.120073	29.973	
C	 0.0075213128	 1.415726208	 0.0088231938	-0.231003
O	 0.0150696907	-0.0068284724	 0.0040886252	-0.27835
C	-1.1917388538	-0.6292391319	 0.0117154523	 0.397345
C	-1.2369189254	-1.9908657105	 0.0084794405	-0.096323
N	-2.454719108	-2.6105615867	 0.0160400083	-0.311391
C	-3.6748147258	-1.9402780372	 0.0270482909	 0.342998
N	-4.7662936275	-2.622094636	 0.0334641487	-0.572313
C	-3.4834881568	-0.4911048282	 0.0294919003	-0.085149
N	-2.3343284376	 0.1119937343	 0.0223770712	-0.295399
H	 1.0579841049	 1.7111591172	 0.0014744547	 0.127547
H	-0.4995935532	 1.8190874208	-0.8736956195	 0.129059
H	-0.4855056744	 1.8132355028	 0.9019308257	 0.129019
H	-0.3543988362	-2.6149885859	 0.0001681746	 0.143509
H	-2.5132059604	-3.6187468475	 0.0138156435	 0.269828
H	-5.5699794961	-1.9971655347	 0.0412072855	 0.210533
H	-4.3807733131	 0.1257506679	 0.0379787542	 0.12009
46.4947	100.8872	188.1738	221.2501	325.7613	396.7114	399.4097	433.5193	504.0819	575.6247	640.8149	674.7241	754.1439	765.6972	779.352	845.2774	848.4179	927.6419	988.0688	1070.388	1095.8488	1178.1829	1197.2013	1210.7471	1301.2023	1331.8017	1364.9384	1416.5398	1467.9231	1481.1137	1493.5101	1503.1706	1554.6702	1665.7694	1703.2128	3031.0865	3096.1713	3139.2574	3141.835	3232.564	3504.1193	3615.9611
COC1=CNC(=N)C=N1	COC1=NC=C(NC1)[NH]	
InChI=1S/C5H7N3O/c1-9-5-3-7-4(6)2-8-5/h2-3H,1H3,(H2,6,7)	InChI=1S/C5H8N3O/c1-9-5-3-7-4(6)2-8-5/h2,6-7H,3H2,1H3
