15
gdb 25953	4.90522	1.01284	0.9731	3.6421	68.16	-0.2349	0.0051	0.24	1229.8615	0.112663	-453.97462	-453.966554	-453.96561	-454.008363	28.621	
C	-0.3027995974	 1.4018357959	 0.045108722	-0.465067
C	 0.239403294	 0.0024653576	 0.002322486	 0.370751
N	 1.2319045815	-0.5143246009	 0.5793832248	-0.483929
O	-0.5535160762	-0.7612048943	-0.8369424217	-0.275695
C	-0.2550732966	-2.067352245	-0.9856394844	 0.440773
C	 0.2627844109	-2.790746214	-2.0023756014	-0.209256
N	 0.2381360031	-4.1348799494	-1.6424077689	-0.257548
C	-0.2815705983	-4.1395976451	-0.4605632628	 0.085578
O	-0.6209644144	-2.9153425567	 0.0158258952	-0.168002
H	-1.3270553554	 1.3945999654	 0.4302161461	 0.157362
H	 0.3156380017	 2.0377670906	 0.6794709531	 0.135002
H	-0.3393198787	 1.8225638635	-0.9642150365	 0.155422
H	 1.7168802909	 0.1704494713	 1.1544704154	 0.233015
H	 0.6478734445	-2.448788537	-2.9481498875	 0.130074
H	-0.4790301097	-4.9796257418	 0.1859370407	 0.15152
62.6294	75.0666	119.6258	136.6714	332.2377	351.2727	427.491	559.0376	561.8595	659.8007	670.4607	779.4008	820.8666	843.6965	861.1936	908.2196	936.0916	990.8211	1027.9294	1059.9308	1070.6104	1119.864	1129.8955	1245.7529	1272.3993	1332.7717	1359.0844	1411.0929	1470.1977	1480.7579	1554.3113	1658.1734	1762.2501	3051.5443	3115.2171	3150.9489	3278.0883	3281.6868	3524.5859
CC(=N)OC1=CN=CO1	C[C]([NH])Oc1cnco1	
InChI=1S/C5H6N2O2/c1-4(6)9-5-2-7-3-8-5/h2-3,6H,1H3	InChI=1S/C5H6N2O2/c1-4(6)9-5-2-7-3-8-5/h2-3,6H,1H3
