18
gdb 26948	3.06236	1.28933	0.98325	1.6369	79.94	-0.2164	0.0106	0.227	1220.3072	0.148581	-401.980148	-401.971911	-401.970966	-402.013503	30.536	
C	 0.1792494213	 1.5155900371	-0.243155611	-0.49776
C	-0.038708235	 0.0553718112	-0.0938581438	 0.237224
C	-1.1171670447	-0.7461997894	 0.119655407	 0.207433
N	-0.6864901521	-2.0753887446	 0.1707682565	-0.322424
C	 0.5888408651	-2.0075780634	-0.0089632147	 0.059903
O	 1.0707573572	-0.7592835841	-0.1778426464	-0.178368
C	-2.5368311383	-0.3923731002	 0.283736431	-0.111206
C	-3.6117356237	-1.3160040383	-0.2545377774	-0.261235
C	-3.4102325058	-1.1946752717	 1.2280027698	-0.261255
H	 0.8548987888	 1.9037168757	 0.527720206	 0.140891
H	 0.6168348932	 1.7611538414	-1.2176256865	 0.140867
H	-0.7721029277	 2.0450937137	-0.1566862902	 0.140175
H	 1.3045038955	-2.8144520706	-0.0399779706	 0.145489
H	-2.7431223993	 0.6711409906	 0.2247112482	 0.077527
H	-4.4896108381	-0.8623742629	-0.7011646934	 0.10895
H	-3.2709575391	-2.2276168136	-0.7312805801	 0.132405
H	-2.9355527665	-2.0256870385	 1.736476091	 0.132443
H	-4.1478769209	-0.6566175425	 1.8130606347	 0.108941
65.388	124.9291	165.2162	169.0717	240.8482	276.5235	424.4374	464.0979	605.137	641.7479	711.5298	737.8753	796.9171	824.5713	833.0219	915.2738	915.3519	953.5587	970.5046	1058.4672	1065.3843	1069.2463	1087.3198	1096.8224	1125.6773	1161.0575	1204.4306	1218.9138	1229.4022	1299.4344	1362.8326	1406.7824	1429.1482	1458.13	1471.9005	1489.447	1494.4347	1568.739	1679.2856	3029.5275	3079.1428	3128.2688	3136.8801	3139.5668	3161.625	3223.1545	3237.2401	3271.3362
CC1=C(N=CO1)C1CC1	Cc1c(nco1)C1CC1	
InChI=1S/C7H9NO/c1-5-7(6-2-3-6)8-4-9-5/h4,6H,2-3H2,1H3	InChI=1S/C7H9NO/c1-5-7(6-2-3-6)8-4-9-5/h4,6H,2-3H2,1H3
