19
gdb 23237	2.81393	1.39565	1.09093	1.1698	78.8	-0.2166	-0.0009	0.2157	1148.9681	0.158999	-419.116823	-419.10819	-419.107246	-419.150401	32.658	
C	 0.3028176337	 1.6718460645	 0.0022117375	-0.411418
C	 0.1709282163	 0.1587736126	 0.0989600587	-0.046197
N	 0.6356381489	-0.7201378962	-1.0480119421	-0.152307
C	 1.8649613513	-0.2406376367	-1.7667359062	-0.167073
C	 2.7986823785	-1.0890250582	-0.8639866821	-0.248843
C	 1.5240885073	-1.5119084099	-0.0911350108	-0.069489
C	 1.0815760505	-0.6169895775	 1.0383633891	 0.386567
N	 1.3907640857	-0.6165694265	 2.2650773943	-0.240786
O	 0.7179813623	 0.4119557826	 2.9553412818	-0.395338
H	 1.3430539508	 2.0031205497	-0.0500452693	 0.121598
H	-0.2270129163	 2.0438485222	-0.8811060992	 0.125183
H	-0.1407110465	 2.1256454574	 0.8916657598	 0.142405
H	-0.8806832704	-0.0862482283	 0.2977256581	 0.109204
H	 1.8443139753	-0.5488693107	-2.8159644111	 0.109959
H	 2.0251524015	 0.8399938145	-1.7381979036	 0.105693
H	 3.293553653	-1.9158409253	-1.377070774	 0.112407
H	 3.5407063604	-0.5457060366	-0.2759714066	 0.115297
H	 1.3330217381	-2.5822641393	 0.0237070324	 0.095229
H	 1.0383433795	 0.2950040717	 3.8560470433	 0.307908
49.148	137.6032	160.9916	212.0249	263.177	314.9099	339.5982	403.1355	450.8809	522.4329	595.1238	680.001	735.7976	747.5698	784.9667	850.1504	893.8464	944.7658	968.4657	978.4284	981.7665	1040.4422	1093.5642	1113.847	1131.4975	1175.8699	1188.933	1197.1725	1222.469	1258.0615	1264.3843	1303.8776	1313.8541	1355.8658	1398.6623	1407.5731	1482.3583	1485.0999	1496.1508	1520.645	1784.3205	3014.5718	3042.0929	3053.8374	3067.8754	3076.1303	3095.4265	3115.224	3128.3796	3130.407	3819.0528
CC1N2CCC2C1=NO	C[C@H]1N2CC[C@H]2C1=NO	
InChI=1S/C6H10N2O/c1-4-6(7-9)5-2-3-8(4)5/h4-5,9H,2-3H2,1H3	InChI=1S/C6H10N2O/c1-4-6(7-9)5-2-3-8(4)5/h4-5,9H,2-3H2,1H3/t4-,5+/m1/s1
