23
gdb 78240	2.20868	1.50391	1.24635	1.7901	84.41	-0.2312	0.0623	0.2935	1173.1941	0.205983	-388.291376	-388.281774	-388.28083	-388.326409	36.611	
C	-0.0088870026	 1.6003782753	 0.0073439421	-0.402994
C	 0.0432823726	 0.0686133526	 0.0294910738	 0.024133
C	 0.7312916107	-0.5665862717	-1.2051072603	-0.275498
C	 1.3253214211	-1.9177178976	-0.7332591153	 0.024137
C	 2.5581573933	-2.3768589865	-1.5199107084	-0.402993
C	 1.557052313	-1.7490397243	 0.7688017859	-0.116108
C	 2.2726760211	-0.5282056116	 1.2857084145	 0.122543
O	 3.1318139294	 0.3071667858	 0.5542786151	-0.425399
C	 0.766838848	-0.5247107911	 1.2389418799	-0.116108
H	 0.9992163534	 2.0269500246	 0.0222442488	 0.120882
H	-0.5248175361	 1.9681296999	-0.8864046195	 0.108765
H	-0.5419007907	 1.9878970215	 0.8817725057	 0.11413
H	-0.9883404769	-0.3068983089	 0.0637597272	 0.076449
H	 0.0346329165	-0.6959971375	-2.0390487632	 0.101259
H	 1.5193457063	 0.0928181476	-1.5977450075	 0.083781
H	 0.5441825415	-2.6813152706	-0.8480204364	 0.076448
H	 3.3860258199	-1.6710450909	-1.3977727339	 0.120886
H	 2.9060499053	-3.3541705505	-1.1695783401	 0.114129
H	 2.3373345815	-2.4663186195	-2.5892312	 0.108763
H	 1.6134596056	-2.6570000194	 1.3624460328	 0.076938
H	 2.6934360076	-0.6386767651	 2.2806093591	 0.10295
H	 2.7858835087	 0.4247934641	-0.3332438309	 0.285968
H	 0.2319679609	-0.5165635962	 2.1843698308	 0.076938
20.8612	126.4755	153.1032	192.7426	237.1467	241.0703	299.8552	312.4465	398.9357	404.6862	517.855	559.6845	654.6025	690.6415	749.2431	750.421	820.7428	889.0875	892.1157	921.2374	977.3772	1003.2229	1013.8793	1040.5521	1049.763	1067.5178	1083.1369	1117.4164	1138.0301	1159.635	1169.827	1206.733	1215.6493	1275.9327	1292.5021	1328.6268	1333.3719	1339.5612	1362.349	1370.8704	1389.7777	1410.4346	1411.5228	1464.794	1494.7937	1496.4397	1503.8933	1504.2416	1518.2972	2990.9969	3004.6849	3010.676	3029.3828	3030.0596	3073.2348	3095.4624	3095.8017	3104.852	3105.5356	3138.0468	3143.0111	3160.6068	3860.8165
CC1CC(C)C2C(O)C12	C[C@H]1C[C@@H](C)[C@H]2[C@@H](O)[C@@H]12	
InChI=1S/C8H14O/c1-4-3-5(2)7-6(4)8(7)9/h4-9H,3H2,1-2H3	InChI=1S/C8H14O/c1-4-3-5(2)7-6(4)8(7)9/h4-9H,3H2,1-2H3/t4-,5+,6-,7+,8-
