18
gdb 121444	1.98253	1.14264	0.74931	2.8859	73.48	-0.2482	-0.0812	0.167	1478.9237	0.144716	-476.216968	-476.206818	-476.205874	-476.253175	34.917	
C	 0.3780147701	 1.5229379259	-0.1824342798	-0.237006
O	 0.1013844861	 0.1261549983	-0.1009906438	-0.241776
C	 0.7295278455	-0.5598120464	 0.8779479997	 0.337319
C	 0.2993467238	-2.0060216028	 0.7921511396	 0.100535
O	 0.632649481	-2.8551717016	 1.5770980405	-0.23431
N	 1.5268977346	-0.0105775506	 1.6912279972	-0.339326
C	 2.2248121529	-0.7381000601	 2.7451727102	-0.150213
C	 3.3235695541	 0.1738227034	 3.2918193961	-0.053119
O	 2.7981181133	 1.4081980608	 3.7337606613	-0.422144
H	 1.4479441558	 1.6970752586	-0.3292401489	 0.13967
H	-0.192270089	 1.889685199	-1.0361072996	 0.137283
H	 0.065026805	 2.0327988491	 0.7337608115	 0.137015
H	-0.3652817009	-2.2168060909	-0.0701363471	 0.112226
H	 1.5188597226	-0.9761683207	 3.5511077369	 0.124665
H	 2.6427768616	-1.6879883523	 2.3945995063	 0.119924
H	 3.8068230992	-0.3011064282	 4.1519987261	 0.104965
H	 4.0916757719	 0.3198966007	 2.5140623466	 0.081582
H	 2.2308744023	 1.7108524777	 3.0130557271	 0.282711
39.0326	100.0494	107.4037	145.6079	183.2073	184.335	216.849	262.7731	332.3365	381.2545	461.1914	473.7194	520.1077	550.4551	680.0419	819.3398	900.1672	953.7666	1024.7691	1033.9617	1080.0541	1096.1543	1106.483	1180.0201	1212.2268	1223.1577	1249.5244	1274.3055	1368.937	1385.8449	1417.2863	1440.2351	1451.951	1475.0605	1478.3966	1497.9674	1507.626	1725.8526	1827.4107	2935.1426	2966.5995	3024.2846	3041.6919	3073.7465	3077.0463	3111.48	3155.3322	3768.844
COC(C=O)=NCCO	COC(=NCCO)C=O	
InChI=1S/C5H9NO3/c1-9-5(4-8)6-2-3-7/h4,7H,2-3H2,1H3	InChI=1S/C5H9NO3/c1-9-5(4-8)6-2-3-7/h4,7H,2-3H2,1H3
