16
gdb 44005	3.67409	1.44447	1.36553	2.677	67.99	-0.245	0.0164	0.2614	961.095	0.125888	-437.867057	-437.86022	-437.859276	-437.898169	27.697	
O	 0.0038433518	-0.0364169604	 0.1814278737	-0.345691
C	-0.0177633284	 1.1600370171	 0.0486454935	 0.384547
C	-1.2843031222	 2.0700897545	-0.0343461696	-0.426495
C	-0.7213092444	 3.4612103792	 0.0208318155	 0.37045
C	 0.0832612643	 4.0049985026	 1.1563587501	-0.358667
C	 0.7933948769	 3.3691323674	-0.0340005573	 0.139963
C	 0.643364491	 4.2420515529	-1.2874426182	-0.124735
O	-0.7939737177	 4.3754270958	-1.0821710162	-0.318753
N	 1.1002830364	 1.9882955274	-0.0258975598	-0.357373
H	-1.7954223494	 1.8932080271	-0.9846933086	 0.151579
H	-1.9687170896	 1.7995626225	 0.7727088983	 0.141503
H	 0.1241133705	 5.0812151999	 1.2885814375	 0.129163
H	 0.1092917211	 3.4188315485	 2.0681288641	 0.131399
H	 1.1498973843	 5.2131955921	-1.29818616	 0.111974
H	 0.8597928592	 3.69131562	-2.2087160686	 0.118012
H	 2.0059979763	 1.5994603235	 0.1892352655	 0.253126
101.0113	236.8779	347.1709	371.6387	423.6223	458.8605	504.4144	575.3828	602.7026	611.363	676.4982	765.9642	810.3962	838.7622	864.2788	926.6786	945.9998	952.8643	991.6825	1032.8663	1060.7088	1106.846	1151.9598	1180.5859	1221.6381	1223.3009	1282.3182	1293.2981	1339.2707	1372.4668	1407.5234	1456.0397	1464.8047	1512.2892	1843.561	3032.9685	3075.1308	3089.7578	3121.9439	3132.5911	3230.2622	3619.9428
O=C1CC23CC2(CO3)N1	O=C1C[C@@]23C[C@@]2(CO3)N1	
InChI=1S/C6H7NO2/c8-4-1-6-2-5(6,7-4)3-9-6/h1-3H2,(H,7,8)	InChI=1S/C6H7NO2/c8-4-1-6-2-5(6,7-4)3-9-6/h1-3H2,(H,7,8)/t5-,6+/m0/s1
