12
gdb 21453	6.13458	1.5458	1.23468	4.246	60.27	-0.2479	-0.0263	0.2215	894.7681	0.085999	-410.838563	-410.83198	-410.831036	-410.869964	23.166	
N	 0.202106449	 1.3437447287	 0.0055994914	-0.410093
C	 0.0396073747	 0.0885620486	 0.0020784421	 0.078208
N	-1.2081831596	-0.5225787386	 0.0121045736	-0.397572
C	-2.4526370508	 0.0399299421	 0.0269814245	 0.574565
N	-3.5637782675	-0.6524079218	 0.0353968222	-0.371596
C	-4.4913858475	 0.3527909426	 0.0487321857	 0.053374
N	-4.0209745125	 1.5687980921	 0.0491978977	-0.122967
O	-2.6173222789	 1.3583458645	 0.0340183674	-0.178333
H	 1.193741519	 1.5720680667	-0.0034484263	 0.237736
H	 0.8306338826	-0.6695811474	-0.0090120151	 0.108157
H	-1.2359930898	-1.5300830275	 0.0082755493	 0.281048
H	-5.5569594687	 0.17288102	 0.0588102674	 0.147473
64.5951	173.9384	174.1282	335.3055	367.0393	544.7766	625.7636	640.9701	769.8363	810.0967	813.7648	892.3165	935.347	979.2673	1009.9811	1055.3463	1102.097	1204.7873	1219.2521	1282.6722	1397.8633	1416.7475	1488.5297	1564.0928	1653.5738	1743.2641	3059.2066	3257.3141	3518.9838	3648.2887
N=CNC1=NC=NO1	N=CNc1ncno1	
InChI=1S/C3H4N4O/c4-1-5-3-6-2-7-8-3/h1-2H,(H2,4,5,6,7)	InChI=1S/C3H4N4O/c4-1-5-3-6-2-7-8-3/h1-2H,(H2,4,5,6,7)
