25
gdb 112611	3.40719	0.84722	0.80334	1.0744	89.91	-0.242	0.0802	0.3222	1611.3317	0.227092	-389.482053	-389.471408	-389.470464	-389.51757	39.881	
C	-0.1012639995	 1.5913297333	-0.0129952984	-0.392568
C	-0.1081359342	 0.0631037194	-0.1294203655	-0.220355
C	 0.7587656606	-0.5160842894	-1.2626589279	 0.34989
C	 0.3199772518	-0.0155102835	-2.636719103	-0.457
C	 2.292238776	-0.4156701273	-0.9620438863	-0.304568
C	 2.2724396205	-1.8666978976	-0.450169022	 0.16818
C	 0.8877769769	-2.0700712209	-1.1293837823	-0.307874
O	 3.357375597	-2.6366584393	-0.900115275	-0.239781
C	 3.3147921332	-3.971365369	-0.4513175942	-0.239866
H	 0.9162269106	 1.9817758701	 0.097780887	 0.117236
H	-0.545824257	 2.0691708262	-0.8909813026	 0.118642
H	-0.6747994281	 1.9144436009	 0.8613869371	 0.111864
H	 0.2228204012	-0.3667938599	 0.8247336161	 0.092503
H	-1.1405271684	-0.28497423	-0.2722529377	 0.091207
H	 0.4532865644	 1.0667917446	-2.7383880961	 0.115309
H	 0.9046587534	-0.4935886221	-3.4292907904	 0.110328
H	-0.737990446	-0.2397963462	-2.8203336263	 0.108652
H	 2.8841803527	-0.3543796426	-1.8793007568	 0.106005
H	 2.6299546336	 0.3594655391	-0.2697099779	 0.094187
H	 2.1996319092	-1.9275847816	 0.6468518564	 0.059696
H	 0.1067481767	-2.587875886	-0.5652086985	 0.088204
H	 1.0091149874	-2.5539232808	-2.1033055699	 0.097836
H	 3.3244179962	-4.0316495299	 0.648952961	 0.10129
H	 2.4212942944	-4.5014101472	-0.8148574581	 0.106564
H	 4.2034196373	-4.4754745203	-0.8392533487	 0.12442
62.9605	103.4527	115.582	172.128	206.7755	222.1621	252.6757	270.0237	316.4505	330.6767	363.578	442.2368	463.4872	479.639	602.336	723.7811	783.9326	835.8444	861.8866	896.7151	923.1212	991.2567	994.0596	1009.1423	1022.6052	1052.3825	1069.2338	1095.6577	1148.4403	1171.2511	1178.426	1186.0543	1215.0681	1231.7347	1248.6817	1278.0684	1295.9232	1301.79	1340.3997	1368.8271	1393.7965	1410.0652	1414.7055	1467.1725	1480.306	1480.8286	1486.7622	1491.1941	1496.4072	1499.841	1504.7382	1510.4341	1512.3293	2967.6255	2976.4749	3008.9498	3017.4847	3022.2589	3036.9541	3042.9156	3046.3332	3060.8099	3087.0774	3095.3814	3100.6882	3104.1277	3110.0177	3111.927	3115.8415
CCC1(C)CC(C1)OC	CC[C@@]1(C)C[C@@H](C1)OC	
InChI=1S/C8H16O/c1-4-8(2)5-7(6-8)9-3/h7H,4-6H2,1-3H3	InChI=1S/C8H16O/c1-4-8(2)5-7(6-8)9-3/h7H,4-6H2,1-3H3/t7-,8-
