18
gdb 64957	3.11714	1.18393	0.98312	3.4232	73.47	-0.2424	-0.0341	0.2083	1237.1529	0.146107	-439.047497	-439.038498	-439.037553	-439.081933	32.705	
C	 0.0588049577	 1.0835073299	-1.3103489792	-0.466432
C	-0.0665160186	 0.123494518	-0.1486923453	 0.194403
C	 0.7656457065	-1.1240807063	-0.1441025485	-0.269156
N	 1.0604601302	-0.0480514435	 0.799599182	-0.341061
C	-1.4336088015	 0.0624423991	 0.4804300125	 0.354735
O	-2.3997943503	 0.5271565932	-0.0829083473	-0.320976
C	-1.5650081497	-0.5941651376	 1.8356296314	-0.043161
C	-2.6447058208	-0.1233431646	 2.7262120907	-0.161604
O	-2.770641993	-1.345277322	 2.0230812469	-0.217199
H	 1.053752491	 1.0170103	-1.7612957862	 0.107706
H	-0.68941997	 0.8601050348	-2.0741690296	 0.150859
H	-0.1080210216	 2.1146340128	-0.9832308098	 0.133737
H	 0.3864523339	-2.0401934393	 0.300185608	 0.134959
H	 1.4144864622	-1.2721291324	-1.0032870918	 0.126637
H	 1.8528207962	 0.5024812339	 0.4778911442	 0.239614
H	-0.6725974884	-1.0257281529	 2.2764735638	 0.122385
H	-2.5065648069	-0.2041066959	 3.8034913549	 0.119169
H	-3.2852615369	 0.6812061629	 2.3714937733	 0.135385
45.8126	74.3999	174.9175	189.6643	243.9525	286.1661	319.1943	328.3727	376.4035	453.3749	528.4506	731.6272	756.6994	820.8095	831.7979	874.59	905.3949	940.822	974.3386	1001.726	1021.5927	1046.3702	1084.3535	1101.2632	1125.2825	1146.1755	1164.6201	1172.7045	1259.43	1275.4737	1344.1091	1362.6078	1416.411	1425.0563	1478.128	1498.7479	1503.592	1511.8146	1793.353	3041.7373	3088.6165	3108.3244	3110.6723	3129.3499	3175.3973	3190.6611	3196.6377	3502.7109
CC1(CN1)C(=O)C1CO1	C[C@]1(CN1)C(=O)[C@H]1CO1	
InChI=1S/C6H9NO2/c1-6(3-7-6)5(8)4-2-9-4/h4,7H,2-3H2,1H3	InChI=1S/C6H9NO2/c1-6(3-7-6)5(8)4-2-9-4/h4,7H,2-3H2,1H3/t4-,6+/m1/s1
