18
gdb 28512	3.13368	1.31537	0.93052	1.1286	86.42	-0.1673	0.0236	0.1909	1228.6023	0.150829	-398.194817	-398.186296	-398.185352	-398.227171	34.12	
N	-0.0012063212	 1.4251729816	 0.1234978179	-0.595718
C	-0.0011704342	 0.0208725803	 0.0425889314	 0.311923
C	-1.1955858437	-0.7016966781	 0.0906780559	-0.209486
C	-1.1688166454	-2.0946434297	 0.0590201496	-0.164673
C	 0.0271715365	-2.7996493943	-0.0012634675	 0.203824
N	 0.1037860445	-4.2184991742	 0.0138872338	-0.612832
C	 1.2358924474	-2.0756144973	-0.0230887209	 0.293316
N	 2.4357169872	-2.7990359735	-0.1072808483	-0.606588
C	 1.2077890421	-0.6828216276	-0.0121172598	-0.273028
H	 0.7925271745	 1.8562126734	-0.3305707934	 0.238389
H	-0.8587610988	 1.8442537267	-0.2094820265	 0.239235
H	-2.1447787205	-0.1778078375	 0.1423987316	 0.071469
H	-2.1054151603	-2.6462512084	 0.0765525865	 0.073866
H	-0.8152259657	-4.6430422644	-0.0092075817	 0.235303
H	 0.639990002	-4.5710967893	-0.7740185777	 0.243376
H	 2.3915933876	-3.6614669049	 0.424499405	 0.249856
H	 3.2495802739	-2.259734739	 0.1555418937	 0.238716
H	 2.1465966141	-0.1341211637	-0.0267495897	 0.063052
147.8519	189.2269	226.3058	249.3597	307.3767	320.6654	359.1194	441.8466	448.4088	455.2708	506.9047	581.9707	615.0515	679.8446	720.249	737.5729	775.1949	784.9042	804.5602	843.1044	855.0904	894.768	978.7817	1078.7662	1133.4795	1135.7456	1177.6728	1217.9346	1275.7776	1340.4853	1344.3871	1389.1127	1499.4056	1555.1505	1619.5194	1641.1608	1651.6194	1656.4502	1674.5321	3148.3037	3152.484	3176.9923	3489.4785	3516.758	3546.5026	3596.6921	3624.2894	3640.337
NC1=CC=C(N)C(N)=C1	Nc1ccc(N)c(N)c1	
InChI=1S/C6H9N3/c7-4-1-2-5(8)6(9)3-4/h1-3H,7-9H2	InChI=1S/C6H9N3/c7-4-1-2-5(8)6(9)3-4/h1-3H,7-9H2
