15
gdb 128194	3.98566	1.14583	0.89719	9.2167	74.26	-0.221	-0.0493	0.1717	1229.3748	0.112978	-450.11416	-450.105716	-450.104772	-450.147706	30.337	
C	 0.0427838755	 1.4885649327	-0.0637697462	-0.351404
N	-0.1237951903	 0.0546974287	 0.0878055862	-0.363963
C	 0.5383239048	-0.6972251034	 1.0186888988	 0.557759
C	 0.6275829301	-2.0612050234	 1.0050551086	-0.400037
C	 1.3127063685	-2.7488986436	 2.0634136128	 0.428645
O	 1.4612655133	-3.9491142823	 2.1612063978	-0.366504
N	 1.8825705782	-1.907013878	 3.1134454072	-0.228823
N	 1.7909625944	-0.6596956471	 3.0963762456	-0.035912
N	 1.1339875423	-0.0418431929	 2.0605568477	-0.324406
H	 1.0869518084	 1.7868884412	-0.233170765	 0.140755
H	-0.5470904157	 1.8146165103	-0.9213790237	 0.153569
H	-0.3411867441	 2.0274647077	 0.810643696	 0.144402
H	-0.4058300587	-0.4568116165	-0.7324803821	 0.262797
H	 0.183644665	-2.6401823676	 0.2049899018	 0.106401
H	 1.1105587985	 0.9585955242	 2.1615635945	 0.276722
66.6595	108.9074	147.1433	200.1237	213.9836	366.1861	401.0224	428.5763	491.1236	530.4167	564.1094	598.637	689.0901	717.0655	770.0559	836.1265	901.8266	995.2393	1045.0469	1080.2195	1149.4547	1177.1282	1215.0938	1294.5436	1365.6758	1442.7362	1475.4628	1490.7508	1506.6977	1525.2951	1613.9629	1670.8742	1790.265	3002.6543	3060.2712	3138.9649	3208.0122	3641.5987	3670.7612
CNC1=CC(=O)N=NN1	CNc1cc(=O)nn[nH]1	
InChI=1S/C4H6N4O/c1-5-3-2-4(9)7-8-6-3/h2H,1H3,(H2,5,6,7,9)	InChI=1S/C4H6N4O/c1-5-3-2-4(9)7-8-6-3/h2H,1H3,(H2,5,6,7,9)
