20
gdb 104233	2.12447	1.43066	1.08893	2.1896	78.03	-0.2552	0.0236	0.2787	1221.0782	0.169689	-440.281375	-440.271488	-440.270544	-440.316289	35.461	
C	-0.2903438814	 1.2752974521	-0.1281407795	-0.345323
N	-0.2762540785	-0.1758530509	-0.2705557582	-0.350423
C	 0.6128038561	-0.7229970672	-0.9658402628	 0.465249
O	 1.647666828	-0.1919176383	-1.708130234	-0.271937
C	 1.9876843671	-1.5180748458	-2.2312973451	-0.135262
C	 0.8630372465	-2.1599775064	-1.3790878158	 0.099991
C	 1.3151553925	-3.1001315311	-0.2641192315	-0.446781
C	-0.354678883	-2.7099973416	-2.1408965742	-0.102049
O	-1.4735619048	-2.8124416158	-1.2886307965	-0.421746
H	 0.4876092315	 1.7843097606	-0.7081331351	 0.13029
H	-1.2685962584	 1.6562582079	-0.439571716	 0.129909
H	-0.1667634357	 1.5343043262	 0.9289844408	 0.131885
H	 1.8555678038	-1.5478727841	-3.3163500583	 0.120914
H	 3.0101193327	-1.7930039245	-1.9618781804	 0.120981
H	 2.100019387	-2.6494075531	 0.3503206591	 0.119509
H	 0.4661847914	-3.3450734807	 0.3774062991	 0.1506
H	 1.7032044435	-4.032810626	-0.6884568128	 0.117582
H	-0.5626884151	-2.0648617011	-3.0109691264	 0.085547
H	-0.1460868438	-3.717878273	-2.518793653	 0.105335
H	-1.5687661493	-1.9531402872	-0.8487227593	 0.295729
82.3095	100.6889	120.3087	146.6337	193.7742	215.0832	250.7726	291.2418	316.2605	369.9878	430.0252	553.6492	561.5602	705.7494	730.2739	774.9589	896.3992	916.6114	963.434	983.657	992.5449	1044.3588	1086.0477	1110.0593	1132.5462	1154.0657	1159.1026	1197.8767	1201.7622	1250.115	1290.4657	1365.3882	1383.8139	1410.5713	1439.2186	1460.0217	1486.984	1494.1013	1497.9376	1500.2232	1510.3243	1513.9608	1830.8352	2961.2043	3021.8081	3036.9923	3055.2387	3058.3781	3087.7986	3094.1007	3103.9245	3118.9003	3136.4576	3694.1624
CN=C1OCC1(C)CO	CN=C1OC[C@]1(C)CO	
InChI=1S/C6H11NO2/c1-6(3-8)4-9-5(6)7-2/h8H,3-4H2,1-2H3	InChI=1S/C6H11NO2/c1-6(3-8)4-9-5(6)7-2/h8H,3-4H2,1-2H3/t6-/m0/s1
