14
gdb 105152	2.54986	1.22657	0.96094	4.5782	70.2	-0.2854	-0.0245	0.2609	1197.9012	0.097883	-436.624226	-436.615168	-436.614223	-436.658491	32.105	
O	 0.0815438741	 1.3621877693	-0.3791821507	-0.401459
C	 0.0245663344	 0.1450462898	 0.3284698644	-0.137435
C	-1.3543983214	-0.4842442092	 0.2202275939	 0.183415
O	-1.6611456992	-1.0471508616	-1.060925372	-0.257556
C	-1.5499520449	-1.9528399518	 0.0468923802	-0.209416
C	-0.4543886297	-2.8819330322	 0.0595184566	 0.322881
C	 0.4286823144	-3.696420537	 0.0838810255	-0.379372
C	-2.4389581053	 0.2702999154	 0.826599704	 0.279847
N	-3.2890040448	 0.8620373877	 1.3383769907	-0.322184
H	-0.0677105964	 1.1663158048	-1.3113178475	 0.300582
H	 0.7625741828	-0.5853268859	-0.0256349828	 0.12044
H	 0.2417004126	 0.3782548599	 1.3751134831	 0.137069
H	-2.5056388128	-2.3563654571	 0.3781414482	 0.146207
H	 1.2140911263	-4.4122614721	 0.1030612765	 0.216981
66.0811	108.7856	122.1849	155.0249	227.7326	261.8129	333.7632	407.5302	416.0284	472.8045	541.154	596.0209	632.4668	656.224	686.5573	717.7974	844.2827	936.8753	947.8709	1027.0356	1074.0608	1097.829	1186.0279	1259.0244	1312.0746	1381.7214	1417.2232	1425.7303	1487.6695	2243.3727	2361.828	3033.1446	3099.3288	3128.4329	3497.5817	3802.6054
OCC1(OC1C#C)C#N	OC[C@]1(O[C@H]1C#C)C#N	
InChI=1S/C6H5NO2/c1-2-5-6(3-7,4-8)9-5/h1,5,8H,4H2	InChI=1S/C6H5NO2/c1-2-5-6(3-7,4-8)9-5/h1,5,8H,4H2/t5-,6+/m0/s1
