15
gdb 124981	3.02448	1.24392	0.95115	1.8855	68.69	-0.2581	-0.0446	0.2135	1178.5796	0.110379	-453.941696	-453.933051	-453.932107	-453.976367	29.638	
C	-0.1728166865	 1.5045377083	-0.1495395413	-0.502341
C	-0.0720896308	 0.0249424585	-0.0506424234	 0.339445
C	-1.0058061512	-0.9680325341	 0.0638415633	 0.143318
C	-2.5022227546	-0.895314961	 0.108528821	-0.382301
C	-3.0332144565	-0.4288902467	-1.2402818957	 0.150936
O	-3.4713168231	 0.6739779529	-1.4430519549	-0.235565
N	-0.3099539543	-2.1558074847	 0.1154405864	-0.165668
N	 0.9286679442	-1.9574560196	 0.0520754567	-0.014995
O	 1.1338111846	-0.541672295	-0.0568265331	-0.207034
H	 0.2238732081	 1.9819173729	 0.7528226391	 0.158748
H	 0.4070979699	 1.8732762001	-1.0007064148	 0.162063
H	-1.214357717	 1.8034996927	-0.2799942723	 0.168458
H	-2.8863432055	-1.8960827912	 0.3292769327	 0.148191
H	-2.8514244499	-0.1992006675	 0.8761421504	 0.137056
H	-2.9478921575	-1.1787311757	-2.0568200841	 0.099689
54.5898	56.7486	111.0786	160.5748	233.3654	249.4739	369.125	386.6619	485.2658	644.2859	655.9801	672.6045	707.8668	738.3097	873.6138	983.8538	1012.6575	1031.5326	1053.8096	1069.9866	1157.3615	1230.9466	1258.0686	1298.4005	1391.9696	1418.5678	1425.3376	1454.0577	1465.2315	1481.1492	1484.8663	1634.8581	1826.7789	2899.8239	3045.7566	3057.3962	3107.0928	3116.1851	3145.6568
CC1=C(CC=O)N=NO1	Cc1c(CC=O)nno1	
InChI=1S/C5H6N2O2/c1-4-5(2-3-8)6-7-9-4/h3H,2H2,1H3	InChI=1S/C5H6N2O2/c1-4-5(2-3-8)6-7-9-4/h3H,2H2,1H3
