22
gdb 101026	2.7352	1.05383	0.8468	3.0512	78.03	-0.244	0.0498	0.2937	1431.166	0.193038	-441.453809	-441.443336	-441.442392	-441.489615	38.396	
C	-0.0197552051	 1.57504384	-0.1882235936	-0.385729
C	-0.0041511127	 0.0424577024	-0.1714818616	-0.219835
C	-1.3778033498	-0.5751971845	 0.1234582039	 0.042311
O	-2.3474916151	-0.1438401947	-0.8349012192	-0.436434
C	-1.3691409111	-2.1061126418	 0.2162380133	 0.289699
C	-0.3853575626	-2.7371675908	 1.2012901934	-0.125319
O	-0.4308110522	-4.1455360054	 1.1541149259	-0.423103
C	-2.6353259227	-2.8259748837	-0.0535117592	-0.273238
N	-1.5073852467	-2.9057226895	-1.0137306756	-0.378288
H	 0.9734248513	 1.9721163249	-0.4165470405	 0.118597
H	-0.7183472188	 1.9693566258	-0.9320344488	 0.116646
H	-0.3250830242	 1.9719430218	 0.7857431572	 0.12429
H	 0.358924179	-0.3480225149	-1.1339625652	 0.097557
H	 0.7134158407	-0.3005258409	 0.5798833606	 0.117276
H	-1.7287849257	-0.1913000767	 1.0925331356	 0.091252
H	-1.88558892	 0.0962722244	-1.643909617	 0.286053
H	 0.6340275569	-2.3767538503	 0.9903211528	 0.084778
H	-0.634213979	-2.434935683	 2.2261937591	 0.106063
H	-0.4611617296	-4.3616215259	 0.2098936841	 0.293062
H	-2.8383656963	-3.7510200969	 0.4748306828	 0.12707
H	-3.494690603	-2.2339216108	-0.346231325	 0.12853
H	-1.7095518333	-2.2937613695	-1.800584693	 0.218762
48.3675	87.5243	125.0698	156.6767	174.0311	207.1928	256.5012	308.1673	330.8941	349.5146	383.2612	437.9554	506.294	563.8814	638.8348	735.2009	787.8852	843.0331	858.4792	930.0599	967.0208	986.755	995.4791	1048.0911	1049.8562	1080.2399	1092.497	1102.6294	1136.7008	1156.5507	1228.4769	1251.1162	1266.6885	1286.3557	1330.1624	1337.6844	1351.0855	1386.2312	1401.9385	1412.5467	1416.3712	1451.2696	1482.6836	1492.6564	1495.9147	1504.7963	1510.3211	2972.7856	2996.9593	3012.1207	3039.5304	3048.3217	3081.001	3107.9297	3114.3154	3136.0776	3233.2204	3500.5161	3717.1574	3823.2001
CCC(O)C1(CO)CN1	CC[C@@H](O)[C@@]1(CO)CN1	
InChI=1S/C6H13NO2/c1-2-5(9)6(4-8)3-7-6/h5,7-9H,2-4H2,1H3	InChI=1S/C6H13NO2/c1-2-5(9)6(4-8)3-7-6/h5,7-9H,2-4H2,1H3/t5-,6+/m1/s1
