19
gdb 71398	3.35878	1.42424	1.33054	2.297	74.42	-0.2327	0.0827	0.3154	1051.3653	0.157694	-422.974659	-422.966431	-422.965487	-423.006718	33.041	
C	-0.0226576135	 1.3782316563	-0.128100132	-0.505859
C	 0.0441435375	-0.1057339191	-0.0182546852	 0.447886
O	-0.4393948862	-0.906939103	-1.1208333486	-0.344098
C	-0.3974145588	-2.0408069559	-0.20147174	-0.018966
C	-0.3552965155	-1.0850599616	 1.0330107195	-0.195258
C	 1.1300791133	-0.9275579409	 0.6887731714	-0.234578
C	 1.1403921395	-2.2775754812	-0.0546597003	 0.456672
C	 1.5180873421	-3.4699984562	 0.805323779	-0.434511
O	 1.846638064	-2.3571123096	-1.2621567169	-0.489714
H	 0.6205860518	 1.736183188	-0.9391661998	 0.134249
H	-1.0461926199	 1.7097685093	-0.3277485384	 0.134477
H	 0.3166356087	 1.8408967051	 0.8032398554	 0.130219
H	-1.107533215	-2.8291332665	-0.4449104054	 0.083404
H	-0.9076019223	-1.0138155477	 1.9586118859	 0.100665
H	 1.9155172575	-0.4739891593	 1.2812734772	 0.086742
H	 0.9751814744	-3.4656545271	 1.7539667192	 0.117181
H	 1.2959155915	-4.3989561907	 0.2715162273	 0.123151
H	 2.5907691476	-3.4550432781	 1.0197905303	 0.126831
H	 1.4134336932	-1.7191472319	-1.8470318487	 0.281509
161.1598	189.9492	212.86	218.2626	268.1916	325.604	352.7446	418.0392	544.4031	565.5913	612.9668	625.598	670.3278	777.2837	799.5598	813.4795	882.783	895.3231	905.5019	923.2846	946.3174	959.1078	1038.1362	1047.386	1092.1449	1102.3668	1126.0519	1140.1824	1156.4088	1208.5556	1221.823	1244.1109	1303.3553	1394.0722	1402.7661	1432.9131	1458.8873	1473.8648	1480.2522	1500.1424	1500.9114	3036.8035	3043.2994	3103.0167	3111.6066	3117.4181	3124.4099	3139.4199	3191.1445	3220.7056	3739.0081
CC12OC3C1C2C3(C)O	C[C@]12O[C@@H]3[C@H]1[C@H]2[C@]3(C)O	
InChI=1S/C7H10O2/c1-6(8)4-3-5(6)9-7(3,4)2/h3-5,8H,1-2H3	InChI=1S/C7H10O2/c1-6(8)4-3-5(6)9-7(3,4)2/h3-5,8H,1-2H3/t3-,4+,5-,6+,7+/m1/s1
