17
gdb 109028	3.25332	1.31315	1.03566	3.104	74.44	-0.2439	-0.0688	0.1751	1162.8433	0.135529	-421.83255	-421.824367	-421.823422	-421.8657	30.379	
C	-0.2519403875	 1.4988864104	-0.0138532456	-0.381612
C	 0.0969681191	-0.000563817	 0.0273435973	-0.289306
C	 0.8231094278	-0.4597991373	-1.1985854511	 0.199164
C	 2.0954806768	-0.8685994281	-1.33300125	-0.19808
C	 2.3806118193	-1.3275586979	-2.7335985649	 0.002719
O	 1.5778518365	-2.4641420899	-3.1174306205	-0.246697
C	 1.1513309959	-1.1453646833	-3.5060003161	-0.08424
C	 0.1360651098	-0.5506927283	-2.5333657488	 0.356096
O	-0.9897852172	-0.1993699371	-2.7926647897	-0.319794
H	 0.6532813083	 2.1105896359	-0.0804697011	 0.115499
H	-0.8830226535	 1.7215559139	-0.8772469828	 0.147844
H	-0.7926235481	 1.7895711288	 0.8915421598	 0.117085
H	 0.6985163411	-0.2239634975	 0.9148521717	 0.104985
H	-0.8335144546	-0.5749130041	 0.1150561183	 0.125839
H	 2.826175205	-0.9286302484	-0.5344109891	 0.12039
H	 3.3739673174	-1.2845143891	-3.1674585488	 0.112168
H	 1.0925937339	-0.9418775011	-4.5701441186	 0.11794
65.3009	120.5336	181.8742	201.3292	259.4278	294.2454	411.5789	475.9819	522.8444	613.7886	660.3746	740.5962	793.2657	818.4399	824.5736	868.0279	899.2563	932.0975	978.805	994.8253	1064.2117	1086.2941	1091.2909	1125.6438	1220.9493	1234.8424	1272.6856	1300.1181	1347.8461	1353.9814	1398.5197	1405.0831	1476.6514	1497.1371	1511.4889	1676.4004	1820.5524	3031.6112	3043.2979	3074.1174	3111.4536	3134.2624	3171.9566	3182.0484	3200.7325
CCC1=CC2OC2C1=O	CCC1=C[C@H]2O[C@H]2C1=O	
InChI=1S/C7H8O2/c1-2-4-3-5-7(9-5)6(4)8/h3,5,7H,2H2,1H3	InChI=1S/C7H8O2/c1-2-4-3-5-7(9-5)6(4)8/h3,5,7H,2H2,1H3/t5-,7-/m1/s1
