20
gdb 84746	2.04806	1.83884	1.16664	2.8924	80.84	-0.2162	-0.0029	0.2133	1117.6547	0.171976	-403.208727	-403.199862	-403.198918	-403.24199	34.069	
C	-0.118105188	 1.6153036656	-0.1034756727	-0.389186
C	 0.0083184108	 0.0805641967	-0.0149037756	-0.053851
C	 0.6871657663	-0.4671255322	-1.2489443575	-0.13274
C	 2.0043468677	-0.6768149977	-1.2548292386	 0.017658
N	 2.7916095695	-0.4530238156	-0.1201981863	-0.340886
C	 2.2787849376	-0.2069746307	 1.1367656935	 0.416629
O	 2.9985031902	 0.090336338	 2.0689449655	-0.369219
C	 0.7656191246	-0.4188802263	 1.2439614675	-0.119567
C	 0.2309771196	 0.116014115	 2.572537832	-0.4014
H	 0.8671440701	 2.0935208509	-0.11007669	 0.126011
H	-0.6296263563	 1.899632492	-1.0281082324	 0.114366
H	-0.6904543643	 2.0229020624	 0.7347526696	 0.118962
H	-1.0067927087	-0.331286037	 0.0458432068	 0.081359
H	 0.1115593791	-0.6390045875	-2.1505405657	 0.093615
H	 2.5493278123	-1.0281960247	-2.1233398174	 0.113793
H	 3.7960476886	-0.4035868701	-0.1984768807	 0.252191
H	 0.6515591526	-1.5145547502	 1.2396329263	 0.105208
H	 0.3968416284	 1.1919851091	 2.6678621134	 0.128763
H	-0.842806591	-0.0783417771	 2.6592533156	 0.104121
H	 0.7424983407	-0.3630176605	 3.4093038267	 0.134173
84.6385	122.0468	197.9483	210.687	263.0875	284.6996	303.281	432.1438	465.9914	497.1613	532.4317	562.7096	604.2683	672.125	745.086	770.0191	828.8882	855.2237	938.1676	948.0567	982.1243	1016.0958	1067.5429	1092.2646	1111.6899	1134.4997	1165.1296	1188.842	1273.7368	1303.7707	1305.9568	1349.9776	1389.8658	1402.6046	1410.9554	1426.3233	1461.9614	1487.6245	1491.1233	1494.3451	1507.6703	1721.883	1795.1937	2984.7457	3022.6635	3035.7253	3047.9244	3105.0578	3110.5176	3118.6977	3135.9192	3189.7879	3210.732	3626.9974
CC1C=CNC(=O)C1C	C[C@H]1C=CNC(=O)[C@H]1C	
InChI=1S/C7H11NO/c1-5-3-4-8-7(9)6(5)2/h3-6H,1-2H3,(H,8,9)	InChI=1S/C7H11NO/c1-5-3-4-8-7(9)6(5)2/h3-6H,1-2H3,(H,8,9)/t5-,6-/m0/s1
