19
gdb 41621	3.40642	1.56476	1.33287	1.3798	80.78	-0.2352	0.0054	0.2405	1006.1798	0.16188	-385.842037	-385.83513	-385.834185	-385.873235	28.222	
C	 0.0396220243	 1.5727600413	-0.2022909554	-0.216607
C	 1.5494590604	 1.5346749029	 0.1604391016	-0.223322
C	 1.3913282357	 0.0844915457	 0.6970432482	-0.060887
C	-0.0294570734	 0.0264839883	-0.011415311	-0.0551
C	 0.2598565943	-0.7251880452	-1.3014774551	-0.210909
C	 1.4488754097	-1.3142747054	-1.2275642882	 0.176825
C	 2.7713269607	-1.4695090912	-1.9355093947	-0.150751
O	 3.3966698004	-0.7883495803	-0.8018781279	-0.308181
C	 2.2010620432	-1.0317910722	 0.032433531	 0.1028
H	-0.5590043241	 2.1000665526	 0.5458173094	 0.099562
H	-0.2256843978	 1.9584490798	-1.1908552304	 0.095065
H	 2.2051695857	 1.5659111035	-0.7118192246	 0.118119
H	 1.8981886187	 2.2756627337	 0.8821804443	 0.099523
H	 1.3693649375	 0.0249384156	 1.7865760497	 0.062339
H	-0.8866613811	-0.3459211348	 0.55832882	 0.073049
H	-0.3596784049	-0.6137365775	-2.1852382211	 0.097984
H	 3.153090348	-2.4943696493	-2.034447853	 0.106851
H	 2.9061038996	-0.9317963666	-2.8796639747	 0.118538
H	 2.411768863	-1.873551831	 0.7054205418	 0.075102
126.8794	177.407	233.5127	338.8335	398.1329	461.2081	600.0968	681.7168	731.019	751.2865	800.964	819.0962	847.9501	873.2426	890.4857	908.2592	941.0639	951.7287	975.4748	983.7917	1022.0983	1064.8357	1082.91	1099.8061	1124.8193	1140.3676	1179.0707	1210.6998	1236.3191	1245.6391	1261.351	1268.5505	1284.6162	1312.7458	1319.5152	1334.4303	1371.5285	1480.7102	1497.2846	1510.3034	1735.4941	3006.5024	3013.6412	3046.0905	3054.5372	3075.4736	3076.1663	3092.7197	3098.1522	3131.5533	3186.8352
C1CC2C1C=C1COC21	C1C[C@H]2[C@@H]1[CH][C]1CO[C@@H]21	
InChI=1S/C8H10O/c1-2-7-5(1)3-6-4-9-8(6)7/h3,5,7-8H,1-2,4H2	InChI=1S/C8H10O/c1-2-7-5(1)3-6-4-9-8(6)7/h3,5,7-8H,1-2,4H2/t5-,7-,8+/m0/s1
