22
gdb 7580	2.92905	1.5799	1.50181	1.3454	77.38	-0.2525	0.066	0.3185	1023.9739	0.198855	-350.204281	-350.195016	-350.194072	-350.237403	35.577	
C	 0.1838863136	 1.4061448629	 0.19926043	-0.398521
C	 0.0411611585	-0.0970611486	-0.0845467033	 0.025129
C	-1.4306995076	-0.5234527182	 0.0266608188	-0.398519
C	 0.6372061636	-0.4733259637	-1.4537223945	 0.436482
O	-0.1073494524	 0.236500644	-2.4246127933	-0.489581
C	 2.1944588224	-0.3498474021	-1.5241482004	-0.28318
C	 2.3021660656	-1.880284875	-1.2989403058	-0.212326
C	 0.8031001975	-2.0127076551	-1.6728712662	-0.283179
H	 1.2279180562	 1.732530227	 0.1747688056	 0.107383
H	-0.3663114333	 1.9883009406	-0.544776475	 0.131906
H	-0.2160282476	 1.6493456491	 1.1888547377	 0.104221
H	 0.6183926802	-0.6476438053	 0.6710316637	 0.066723
H	-2.0350335205	-0.0058432106	-0.7230556198	 0.131904
H	-1.5601733909	-1.5994810288	-0.1234352174	 0.107384
H	-1.8277197682	-0.2769886329	 1.0166128735	 0.104221
H	 0.24592672	 0.0185405551	-3.2923895476	 0.272584
H	 2.5113892905	-0.0627642268	-2.5326902825	 0.087309
H	 2.6894349377	 0.3118468826	-0.8095990416	 0.099515
H	 3.018838283	-2.4246663667	-1.9169815494	 0.097403
H	 2.4922406077	-2.1328877388	-0.2528222749	 0.106318
H	 0.1814417016	-2.6855417889	-1.077676708	 0.099515
H	 0.6673379027	-2.2666504796	-2.7298007495	 0.08731
93.6803	131.4631	202.6644	223.5781	225.2721	278.5347	278.7452	327.7678	348.0719	423.8086	484.475	487.6036	659.899	698.424	781.0855	817.4969	881.9686	929.643	930.1112	939.0793	962.0728	979.9838	1019.3828	1042.3241	1055.0231	1099.9132	1151.8092	1196.2084	1197.7216	1207.0198	1223.338	1244.0935	1273.5304	1283.9388	1342.3751	1349.1678	1396.563	1403.8335	1421.5245	1468.3078	1484.2258	1487.688	1494.0086	1502.4158	1505.8113	1516.6977	3010.3583	3037.0645	3041.4135	3042.0175	3047.7419	3066.2128	3098.0885	3098.4011	3104.3118	3105.5885	3118.9205	3120.094	3123.9736	3820.9181
CC(C)C1(O)CCC1	CC(C)C1(O)CCC1	
InChI=1S/C7H14O/c1-6(2)7(8)4-3-5-7/h6,8H,3-5H2,1-2H3	InChI=1S/C7H14O/c1-6(2)7(8)4-3-5-7/h6,8H,3-5H2,1-2H3
