17
gdb 17334	3.54693	2.17273	1.78785	3.2674	67.03	-0.2336	0.0735	0.3072	800.5444	0.143229	-363.824082	-363.817376	-363.816431	-363.854488	26.913	
C	-0.010795454	 1.5517940528	 0.0274289403	-0.506118
C	 0.1111424312	 0.0509915274	 0.0121224516	 0.309318
N	-0.80830787	-0.7983590751	 0.7995981971	-0.347793
C	 0.6280560264	-0.7711930207	 1.1448228432	-0.090265
C	 1.4454945003	-1.945977318	 0.6067025083	-0.249059
C	 1.3801920297	-1.8154928799	-0.9138191213	 0.035118
O	 0.0744149985	-1.9494749317	-1.4782025121	-0.232397
C	 0.5773430116	-0.631338368	-1.2688608815	-0.004482
H	 0.8934105411	 2.0280879583	-0.368435003	 0.125415
H	-0.8567276509	 1.8876826369	-0.5836173953	 0.130568
H	-0.1620837301	 1.9231097709	 1.0461783835	 0.116703
H	-1.312003794	-0.2048475209	 1.4570830986	 0.223245
H	 0.923205423	-0.314665933	 2.0856969126	 0.08335
H	 2.4875173065	-1.8575297118	 0.9349977032	 0.101309
H	 1.0636147315	-2.9128795141	 0.9486812753	 0.124507
H	 2.1917288285	-2.1993544555	-1.5291150707	 0.091952
H	 0.7381780106	-0.0359847074	-2.1646598498	 0.088629
194.1238	213.9096	260.2301	312.7483	360.5339	440.2619	541.4956	591.0842	704.6573	743.6952	809.2414	847.0074	857.7233	888.6925	906.4373	943.5843	970.9529	1005.5646	1029.04	1071.5342	1080.518	1113.6594	1124.9641	1158.099	1209.3933	1257.5619	1282.4933	1303.0983	1315.4194	1359.693	1416.7192	1424.1638	1447.447	1463.8474	1485.6892	1500.6159	3023.8801	3045.2761	3085.2133	3092.9208	3098.591	3127.3213	3141.6941	3144.8071	3474.6744
CC12NC1CC1OC21	C[C@]12N[C@H]1C[C@H]1O[C@@H]21	
InChI=1S/C6H9NO/c1-6-4(7-6)2-3-5(6)8-3/h3-5,7H,2H2,1H3	InChI=1S/C6H9NO/c1-6-4(7-6)2-3-5(6)8-3/h3-5,7H,2H2,1H3/t3-,4+,5-,6+/m1/s1
