13
gdb 48227	2.76174	1.37746	0.9428	4.5273	70.14	-0.2874	-0.0869	0.2005	1147.0006	0.088855	-448.946737	-448.938088	-448.937144	-448.980854	29.517	
N	 0.1674910457	 1.2300176003	-0.3972293841	-0.413295
C	 0.0970653325	 0.0409843585	 0.0184072207	 0.092695
N	-1.1288697135	-0.6656225481	-0.0265208355	-0.159062
C	-1.1027050626	-2.0772607679	 0.0020262212	 0.106052
N	-0.0017898951	-2.7013687098	 0.0034413053	-0.459283
C	-2.384185716	-0.0550948617	-0.091204295	 0.384273
O	-3.4023833729	-0.6697381763	-0.3088599147	-0.313428
C	-2.4634922279	 1.3783408503	 0.2027404829	 0.259188
N	-2.737830575	 2.4655317477	 0.4826307615	-0.321912
H	 1.1016736027	 1.6112763101	-0.2586196819	 0.251982
H	 0.8981126982	-0.5816167541	 0.4150711943	 0.161533
H	-2.1072945888	-2.4969201267	 0.0236064104	 0.161986
H	-0.1624563973	-3.7053552223	 0.0544847148	 0.249269
49.8564	108.497	148.5063	186.2467	227.6096	270.5821	288.9302	337.252	454.7267	476.1871	610.7032	697.1515	762.3888	768.5202	823.82	854.54	1025.8629	1078.514	1085.1531	1137.4494	1200.3291	1311.4699	1362.8967	1412.7856	1414.4126	1720.7468	1741.499	1771.1293	2349.0306	3145.2458	3151.2008	3512.4747	3516.9319
N=CN(C=N)C(=O)C#N	N=CN(C=N)C(=O)C#N	
InChI=1S/C4H4N4O/c5-1-4(9)8(2-6)3-7/h2-3,6-7H	InChI=1S/C4H4N4O/c5-1-4(9)8(2-6)3-7/h2-3,6-7H
