20
gdb 6130	3.0582	1.69048	1.41935	1.1737	70.46	-0.2466	0.0585	0.3051	979.6012	0.175315	-386.132719	-386.123649	-386.122704	-386.16568	34.553	
C	-0.6109742641	 1.5619336146	 0.0088124591	-0.441672
C	-0.0544107766	 0.1418991403	 0.0100340719	 0.318658
C	-1.1579939109	-0.8820656717	-0.2738262574	-0.441772
C	 1.2155547607	-0.1039147441	-0.8697731358	-0.315331
C	 1.8601489395	-0.883563284	 0.3089592374	 0.147499
O	 3.1953350545	-0.6226627158	 0.6506676383	-0.445549
C	 0.7794030072	-0.2762402048	 1.2626555831	 0.033341
O	 1.2942647552	 0.8639634529	 1.9389928477	-0.439527
H	 0.1600259386	 2.2909295144	 0.2665061427	 0.125678
H	-1.0061929491	 1.8117534413	-0.9824364287	 0.107684
H	-1.4276207012	 1.6704132494	 0.7313930457	 0.110412
H	-1.6076924251	-0.7010551906	-1.2563287685	 0.115839
H	-0.7776135059	-1.9094326081	-0.2698381257	 0.113303
H	-1.9540725122	-0.8187627702	 0.4767894095	 0.113753
H	 1.0764249217	-0.6395611139	-1.8126078772	 0.094892
H	 1.7610564177	 0.8230787126	-1.0708030481	 0.096066
H	 1.7676358541	-1.9670399707	 0.2005083077	 0.08661
H	 3.215659129	 0.3066476285	 0.9145139309	 0.274102
H	 0.2840080789	-0.9542904353	 1.9696864191	 0.055135
H	 1.7759906082	 0.5468362652	 2.7100447284	 0.290881
78.2735	172.8963	211.09	230.366	246.9193	268.1258	300.5499	324.6655	357.2828	424.3802	498.6186	538.4076	559.1411	678.3564	753.1284	840.4665	860.1556	936.014	941.5256	959.0296	984.4619	1026.0618	1073.5027	1115.9199	1125.4874	1158.0351	1210.7414	1223.7508	1244.3214	1266.1777	1285.7906	1318.9647	1329.1477	1397.8188	1407.5939	1426.5297	1443.2151	1478.9492	1483.593	1487.7389	1501.0927	1508.1047	3011.3491	3022.0646	3029.8322	3051.6577	3078.8214	3087.5994	3091.3916	3093.8385	3108.3122	3126.0218	3761.412	3815.8741
CC1(C)CC(O)C1O	CC1(C)C[C@@H](O)[C@H]1O	
InChI=1S/C6H12O2/c1-6(2)3-4(7)5(6)8/h4-5,7-8H,3H2,1-2H3	InChI=1S/C6H12O2/c1-6(2)3-4(7)5(6)8/h4-5,7-8H,3H2,1-2H3/t4-,5-/m1/s1
