16
gdb 55011	2.69485	1.65016	1.35938	2.3494	64.51	-0.2584	-0.0009	0.2575	971.659	0.12539	-471.216675	-471.208748	-471.207804	-471.248863	30.858	
N	-0.6918934785	 1.1329785276	-0.4088979041	-0.516617
C	-0.4886084131	-0.288379309	-0.4735112615	 0.363147
N	 0.8907224148	-0.6535788411	-0.3973724964	-0.52443
H	 1.3658329674	-0.4290150079	-1.2655208179	 0.238375
H	 0.9970575375	-1.6439932368	-0.2046940799	 0.241558
N	-1.1824334969	-1.0277498595	 0.6033381445	-0.112705
C	-2.6141920745	-0.770851441	 0.6282653448	-0.222072
C	-2.0842441564	-1.9734660063	-0.0788917222	-0.192336
C	-1.9135458828	-1.7893017381	-1.5537852059	 0.426549
O	-1.1072132142	-0.706229397	-1.7401785647	-0.259476
O	-2.3612268901	-2.4408425043	-2.4516999577	-0.344894
H	 0.086654438	 1.5641051398	 0.0750491571	 0.248466
H	-0.7645185051	 1.516819782	-1.3429273645	 0.250027
H	-3.0793691478	-0.9050034527	 1.5992838831	 0.131955
H	-2.9903771167	 0.057422947	 0.0365739977	 0.14637
H	-2.2064242117	-2.9782397729	 0.3074491575	 0.126085
106.0751	153.3008	209.0988	276.587	319.1876	378.4613	410.8883	439.6522	510.5204	578.3356	625.8309	662.6274	739.1765	768.5651	809.1668	822.4219	832.877	881.2699	906.041	964.4007	1011.4907	1078.9213	1080.3465	1111.1569	1160.9556	1183.1779	1248.7881	1263.2034	1291.7355	1345.4418	1378.5148	1509.1671	1636.1972	1642.6311	1885.0337	3128.8409	3191.4633	3222.2354	3508.9492	3536.8404	3601.5218	3628.8617
NC(=[NH2+])N1CC1C([O-])=O	NC1(N)N2C[C@H]2C(=O)O1	
InChI=1S/C4H7N3O2/c5-4(6)7-1-2(7)3(8)9/h2H,1H2,(H3,5,6)(H,8,9)	InChI=1S/C4H7N3O2/c5-4(6)7-1-2(7)3(8)9-4/h2H,1,5-6H2/t2-,7?/m0/s1
