23
gdb 89723	2.58378	1.33434	0.99094	0.2055	93.45	-0.2125	0.0322	0.2447	1308.5745	0.205709	-351.170137	-351.160845	-351.159901	-351.20384	36.351	
C	-0.0430326805	 1.5880659645	-0.0265639248	-0.394028
C	 0.019936421	 0.0572582276	 0.0170366483	-0.014945
C	 0.7608443087	-0.5747630602	-1.1928720512	-0.309324
C	 1.5376970746	-1.7633825176	-0.615711799	 0.292796
C	 1.3391321817	-3.1712636432	-1.1492711059	-0.312242
C	 2.6343217115	-2.4429832722	-1.3985757027	-0.320281
C	 1.616678389	-1.4991101155	 0.8572118122	 0.266455
C	 2.4924012344	-2.2848111741	 1.7829772908	-0.507165
C	 0.7896369674	-0.504247401	 1.1924091546	-0.185094
H	 0.9641830946	 2.01846439	-0.0555980869	 0.112668
H	-0.5852491734	 1.9366037753	-0.9124499518	 0.109592
H	-0.5538366625	 1.9900060558	 0.8552401434	 0.10888
H	-1.0149842672	-0.3177891814	 0.0551881403	 0.074143
H	 0.0854338963	-0.8594854324	-2.0051725579	 0.09231
H	 1.4672959068	 0.1596040194	-1.6006159389	 0.096932
H	 1.344579134	-3.9984540754	-0.4470036014	 0.109039
H	 0.6513807544	-3.2989273768	-1.9790228424	 0.110263
H	 2.8323017469	-2.0769077432	-2.4012868664	 0.108574
H	 3.5193351261	-2.7814776181	-0.8698143462	 0.108155
H	 3.5524209146	-2.1747466116	 1.5225571356	 0.127116
H	 2.3648020776	-1.9585535734	 2.8183663076	 0.123781
H	 2.2686137104	-3.3583135466	 1.7401458743	 0.124626
H	 0.6415090036	-0.1434300501	 2.2059227483	 0.077749
69.7594	137.9454	188.5135	231.6223	242.2426	244.4242	281.0055	334.555	420.6938	440.837	505.2492	582.6195	625.1955	686.2145	780.2859	832.0189	841.0574	862.5462	908.6588	929.2718	939.1108	954.1523	991.853	1009.0097	1051.3326	1057.2658	1066.4028	1074.8808	1110.0045	1139.0815	1145.4255	1190.8653	1220.3957	1257.8067	1289.8047	1315.4422	1323.9824	1355.2047	1389.0416	1408.9488	1414.3373	1460.382	1482.7962	1489.0136	1491.1284	1497.0061	1498.2126	1500.1044	1709.2688	2971.098	3019.3465	3021.2994	3025.5325	3064.8949	3079.1586	3093.1638	3095.6467	3112.1716	3122.0651	3126.4565	3173.3362	3199.2977	3215.1723
CC1CC2(CC2)C(C)=C1	C[C@H]1CC2(CC2)C(=C1)C	
InChI=1S/C9H14/c1-7-5-8(2)9(6-7)3-4-9/h5,7H,3-4,6H2,1-2H3	InChI=1S/C9H14/c1-7-5-8(2)9(6-7)3-4-9/h5,7H,3-4,6H2,1-2H3/t7-/m1/s1
