20
gdb 60641	2.55128	1.32483	1.05208	6.0603	74.65	-0.2467	0.0288	0.2755	1206.1259	0.171767	-440.310822	-440.301929	-440.300985	-440.344844	33.046	
C	-0.0916772526	 1.6239348295	 0.1569593293	-0.389844
C	-0.0360331765	 0.0981614058	 0.042883154	-0.168427
C	 0.7328685333	-0.5206191637	 1.2172195702	 0.043409
C	 0.0930089516	-0.5937221019	 2.6316847909	-0.244472
C	 0.6276671454	-2.0444394422	 2.695016647	-0.161663
N	 0.8145940085	-2.0158146163	 1.216326229	-0.349926
H	-0.6797907101	-2.1664645322	 0.3405293567	 0.310706
H	 1.6806971193	-2.4134770771	 0.8677509611	 0.230437
C	-1.446989362	-0.4931204499	-0.1626364588	 0.408573
O	-1.5433586059	-1.8199149281	-0.0168420203	-0.386223
O	-2.3947561696	 0.1824837142	-0.4723408868	-0.337236
H	 0.9163243531	 2.050871568	 0.1616607138	 0.103332
H	-0.6536431818	 2.0447622597	-0.677195551	 0.146125
H	-0.5987957966	 1.9292124464	 1.0776084023	 0.126688
H	 0.5213364649	-0.1673300787	-0.8693348635	 0.103413
H	 1.7271348307	-0.0575577451	 1.2676628944	 0.079951
H	 0.4643644528	 0.106864931	 3.3787907383	 0.114758
H	-0.9976371104	-0.5479062921	 2.6031901849	 0.138013
H	 1.5721285064	-2.1210653657	 3.2462843739	 0.10931
H	-0.0527940703	-2.8262380415	 3.0417846445	 0.123076
68.516	99.3068	137.6084	189.1749	203.8229	295.9151	301.325	393.2345	467.2202	538.2243	572.3433	655.8343	760.7058	777.2608	801.8885	846.2289	932.5851	956.5059	960.7231	996.4328	1005.3173	1010.3594	1055.7456	1100.8556	1118.8571	1143.4972	1169.1387	1216.9389	1240.8413	1259.2837	1273.8983	1298.4129	1314.7187	1356.7071	1372.5019	1394.7896	1413.0201	1488.332	1488.98	1498.8471	1509.4495	1525.0554	1846.9588	2989.2204	3012.071	3033.3808	3044.1807	3083.984	3095.9577	3107.4775	3146.6778	3147.8754	3156.947	3521.8429
CC(C1CC[NH2+]1)C([O-])=O	C[C@@H]([C@H]1CCN1)C(=O)O	
InChI=1S/C6H11NO2/c1-4(6(8)9)5-2-3-7-5/h4-5,7H,2-3H2,1H3,(H,8,9)	InChI=1S/C6H11NO2/c1-4(6(8)9)5-2-3-7-5/h4-5,7H,2-3H2,1H3,(H,8,9)/t4-,5+/m0/s1
