16
gdb 106951	4.27522	1.111	0.98461	2.8115	64.85	-0.2465	0.0047	0.2512	1170.4463	0.124775	-475.034458	-475.026338	-475.025393	-475.067523	30.112	
O	 0.0202476883	 1.3854495112	-0.3109789483	-0.412366
C	 0.0652164235	 0.0264632665	 0.0928364552	-0.165296
C	-1.3167038114	-0.5449073292	 0.2447345429	 0.395446
C	-2.3034904427	 0.0591199667	 1.2412776467	-0.218093
N	-3.2271113397	-1.0368593184	 1.4865466096	-0.342531
C	-2.9261382246	-2.2259835831	 0.8754662004	 0.460406
O	-3.5113266889	-3.2777957716	 0.9984733653	-0.378774
C	-1.7015563434	-1.9445160543	 0.0196447484	-0.2005
O	-1.97092708	-0.9352038096	-0.9727326613	-0.293046
H	-0.3834673345	 1.41020611	-1.1858257849	 0.296437
H	 0.6339830952	-0.5950739554	-0.6127799898	 0.10738
H	 0.5869473863	 0.0133347804	 1.0555271114	 0.120837
H	-1.7851528764	 0.3690570598	 2.1576866807	 0.120038
H	-2.8031140432	 0.9366159828	 0.8170251367	 0.131974
H	-4.0775507834	-0.9366247426	 2.0167112038	 0.258181
H	-1.0357876552	-2.7503549631	-0.2695635068	 0.119908
67.5334	116.2639	164.5657	238.9609	314.2478	379.5482	402.141	419.5807	482.8186	501.1702	638.0896	698.3371	737.8618	793.5116	850.4159	898.5606	943.2448	972.7709	1030.9375	1058.6002	1070.1569	1099.0028	1175.0859	1219.3695	1238.16	1240.5627	1312.4085	1341.0538	1374.7944	1417.3613	1446.405	1462.393	1487.2471	1511.2285	1839.1045	3011.0451	3023.8061	3069.8299	3081.9723	3185.7547	3649.0116	3805.1909
OCC12CNC(=O)C1O2	OC[C@]12CNC(=O)[C@H]1O2	
InChI=1S/C5H7NO3/c7-2-5-1-6-4(8)3(5)9-5/h3,7H,1-2H2,(H,6,8)	InChI=1S/C5H7NO3/c7-2-5-1-6-4(8)3(5)9-5/h3,7H,1-2H2,(H,6,8)/t3-,5-/m1/s1
