14
gdb 48868	2.67498	1.71267	1.33353	3.7793	66.42	-0.2571	-0.0461	0.211	944.752	0.100164	-436.643632	-436.636426	-436.635482	-436.675789	26.609	
O	-0.8860141399	 1.0028574177	-0.4500939944	-0.246492
C	 0.1474233017	 0.8611804933	 0.1564058757	 0.040286
C	 1.3056785339	 1.7805941574	 0.0348205849	 0.068331
C	 1.8189931013	 2.6651789764	 1.2269756667	-0.294111
C	 2.3879453877	 3.5745625742	 0.1313439381	-0.031979
C	 1.4955339726	 3.0299503543	-0.8958812758	-0.083722
N	 2.9933092595	 2.7260564394	-0.9640436731	-0.20346
C	 2.6677472622	 1.3654732657	-0.5653042756	 0.417016
O	 3.2291963386	 0.3471788737	-0.800022947	-0.301133
H	 0.3039106149	 0.0103509853	 0.8548948693	 0.095066
H	 0.9950088459	 3.1554203418	 1.7503132794	 0.137282
H	 2.5027805473	 2.1971994549	 1.9413113942	 0.128993
H	 2.8116984657	 4.5647164095	 0.2317905966	 0.1294
H	 0.9538312586	 3.4155829365	-1.7451583791	 0.144524
74.5282	145.1479	177.696	228.509	390.2512	407.9588	588.0621	617.3689	681.7396	698.7419	760.3543	820.984	853.9869	889.2723	896.6888	951.6573	977.1211	1003.2043	1024.6986	1055.0335	1095.3385	1146.9838	1169.5166	1212.7411	1240.7098	1326.9467	1332.0428	1422.715	1495.5861	1808.4355	1924.2382	2896.409	3058.6753	3124.1961	3213.4961	3255.7956
O=CC12CC3C1N3C2=O	O=C[C@]12C[C@@H]3[C@H]1N3C2=O	
InChI=1S/C6H5NO2/c8-2-6-1-3-4(6)7(3)5(6)9/h2-4H,1H2	InChI=1S/C6H5NO2/c8-2-6-1-3-4(6)7(3)5(6)9/h2-4H,1H2/t3-,4-,6-,7?/m1/s1
