17
gdb 67663	3.02853	1.89105	1.65907	1.3112	69.61	-0.229	0.0728	0.3018	865.9265	0.137867	-421.776093	-421.76973	-421.768785	-421.806379	27.127	
O	-0.048966401	 1.3850838057	 0.0419189183	-0.467598
C	 0.0238165698	 0.0061422583	 0.0395548383	 0.378343
C	-0.1342076806	-0.8152576394	-1.2324662263	-0.144585
C	 0.7025054546	-2.0772740922	-1.4067578595	-0.23143
C	 0.856397692	-2.557691092	 0.0344670309	 0.082042
O	 1.7897613118	-1.6684060422	 0.7184472931	-0.315495
C	 0.674577133	-0.8633707619	 1.1440810167	 0.028879
C	-0.3661402575	-1.9530574192	 0.8240046389	-0.099517
C	-1.1288541333	-0.9813624328	-0.1043366849	-0.152501
H	 0.72332419	 1.7314717068	-0.4194005706	 0.288161
H	-0.4492621982	-0.2353608773	-2.0939876764	 0.089097
H	 0.1641107999	-2.8098964673	-2.0212460935	 0.096406
H	 1.6852982393	-1.9028878632	-1.8545071907	 0.109854
H	 1.1316369557	-3.6061295459	 0.1644541104	 0.076403
H	 0.8059902038	-0.3834725	 2.1161579288	 0.084345
H	-0.8704279168	-2.5414000372	 1.585090661	 0.080694
H	-2.1958073625	-0.8214206102	-0.1749255245	 0.096904
224.0552	278.2325	314.8951	369.133	421.4449	529.092	600.6754	659.5696	687.3142	750.1012	821.6819	825.7561	853.6948	870.7091	902.0071	911.6024	925.752	969.241	984.112	996.3825	1008.6216	1040.9908	1059.9448	1124.9213	1165.761	1184.3052	1199.9217	1222.1074	1226.9496	1248.5376	1271.7061	1299.0062	1317.2831	1339.9027	1343.009	1453.5463	1475.806	3028.6768	3090.5043	3092.9493	3097.1975	3157.3736	3171.2103	3212.3958	3788.505
OC12C3CC4OC1C4C23	O[C@@]12[C@H]3C[C@H]4O[C@@H]1[C@H]4[C@@H]23	
InChI=1S/C7H8O2/c8-7-2-1-3-4(5(2)7)6(7)9-3/h2-6,8H,1H2	InChI=1S/C7H8O2/c8-7-2-1-3-4(5(2)7)6(7)9-3/h2-6,8H,1H2/t2-,3+,4+,5-,6+,7+/m0/s1
