19
gdb 80523	2.18151	1.47206	1.21467	2.52	77.84	-0.2472	-0.0253	0.2219	1136.2957	0.157105	-423.002615	-422.993531	-422.992587	-423.036212	33.652	
C	 0.1453345807	 1.6337844097	-0.4014899909	-0.427658
C	 0.2390025946	 0.1326617907	-0.2274190762	-0.09332
C	 1.4905483237	-0.6421673797	-0.3657721552	 0.047143
O	 2.6240937724	 0.042726396	 0.1379333913	-0.298376
C	 2.105566822	-0.0356848418	 1.5094760924	 0.098864
C	 2.2040464517	 1.2441383063	 2.3101675019	-0.424807
C	 0.7751181148	-0.6008627058	 1.0116415223	 0.136701
C	 0.0297985202	-1.659456496	 1.692961999	 0.056929
O	 0.2916754311	-2.0661236708	 2.8028638424	-0.2762
H	 1.1257156651	 2.0985504057	-0.2880606673	 0.145126
H	-0.2197944856	 1.8644114337	-1.4076812939	 0.123031
H	-0.5460092754	 2.0843682242	 0.3170375124	 0.125078
H	-0.6155569791	-0.4196880708	-0.6197329961	 0.100489
H	 1.6576962424	-1.4796612154	-1.0349752687	 0.117473
H	 2.646439783	-0.8365109908	 2.0267432084	 0.108682
H	 1.62861823	 2.0615738251	 1.8743360299	 0.124197
H	 1.8316239917	 1.0567465258	 3.3225145885	 0.138914
H	 3.2507156173	 1.5555403741	 2.3866013714	 0.131127
H	-0.8192570105	-2.0838249402	 1.1085331884	 0.066608
96.8749	148.9523	165.7625	193.1745	226.4572	242.5005	258.5067	301.5772	375.7925	472.4206	550.6447	601.3394	691.2218	717.4591	746.9413	851.316	899.7975	954.2041	963.503	983.7729	1048.1139	1078.7547	1088.0559	1098.5473	1103.636	1138.0255	1159.2425	1235.9387	1245.7116	1326.9078	1338.9128	1396.1277	1406.9399	1411.5256	1426.9879	1464.1919	1483.7981	1492.4095	1500.4307	1507.0935	1789.0986	2860.2313	3042.696	3043.0044	3047.9227	3101.0966	3110.3422	3111.6667	3140.4694	3148.4807	3172.4511
CC1C2OC(C)C12C=O	C[C@H]1[C@H]2O[C@@H](C)[C@@]12C=O	
InChI=1S/C7H10O2/c1-4-6-7(4,3-8)5(2)9-6/h3-6H,1-2H3	InChI=1S/C7H10O2/c1-4-6-7(4,3-8)5(2)9-6/h3-6H,1-2H3/t4-,5-,6+,7+/m0/s1
