18
gdb 27880	1.96993	1.80681	0.95394	2.8885	83.91	-0.2287	-0.0093	0.2194	1232.779	0.148198	-398.218419	-398.209313	-398.208369	-398.252825	33.354	
C	-0.0873576938	 1.502771171	 0.0330279081	-0.468331
C	-0.0083975159	 0.0018285007	-0.0230088262	 0.332898
C	 0.1385646848	-0.6796607308	-1.2168263038	-0.252873
C	 0.198626524	-2.0827165322	-1.1482986574	 0.38935
N	 0.3853743094	-2.8543084778	-2.2641901052	-0.5672
N	 0.1142914395	-2.7286072405	 0.0186132058	-0.356219
C	-0.0210094917	-1.9735058467	 1.1162917099	 0.3407
C	-0.1065665075	-2.7120733136	 2.4250443431	-0.458439
N	-0.0885460205	-0.6430745229	 1.1580855308	-0.354879
H	-0.0216985419	 1.9534555368	-0.9601319218	 0.114876
H	-1.0267985128	 1.8115862388	 0.5024082883	 0.141522
H	 0.721761193	 1.8973498101	 0.655891071	 0.142476
H	 0.2083972836	-0.1572146951	-2.1643237509	 0.084031
H	 0.152677423	-2.4654234143	-3.1625396578	 0.254664
H	 0.2028403873	-3.8381741423	-2.1426039662	 0.258412
H	 0.8094044332	-3.2875776667	 2.5946347221	 0.134597
H	-0.2518784031	-2.0105335902	 3.2465570263	 0.131766
H	-0.9323639005	-3.4300638143	 2.4025293639	 0.132648
42.834	83.5999	179.5605	193.7853	218.1803	282.9938	305.4141	391.1596	476.8268	499.1304	545.3667	564.1577	581.2065	622.2997	664.2999	795.1682	852.0684	956.2934	962.6713	999.2355	1051.312	1056.3096	1060.4469	1066.5241	1119.1452	1206.7638	1288.43	1378.6852	1401.5235	1426.1645	1444.2538	1458.285	1473.133	1480.0371	1485.429	1500.7108	1600.756	1621.3475	1647.9076	3041.8493	3045.4319	3101.9066	3103.6073	3126.8907	3155.0182	3184.6747	3592.7239	3715.7639
CC1=CC(N)=NC(C)=N1	Cc1cc(N)nc(C)n1	
InChI=1S/C6H9N3/c1-4-3-6(7)9-5(2)8-4/h3H,1-2H3,(H2,7,8,9)	InChI=1S/C6H9N3/c1-4-3-6(7)9-5(2)8-4/h3H,1-2H3,(H2,7,8,9)
