14
gdb 29386	4.9561	0.91997	0.85746	3.6514	69.02	-0.2158	-0.011	0.2049	1306.3436	0.102132	-432.909773	-432.901683	-432.900739	-432.943469	29.096	
N	-0.0988604136	 1.3902309247	-0.3537537188	-0.597647
C	-0.0604129296	 0.029640242	-0.0903815085	 0.267779
C	-1.0476353849	-0.8494405632	 0.2341466709	-0.119379
O	-0.4742624622	-2.1039116478	 0.3062845043	-0.168157
C	 0.8205966011	-1.8992066285	 0.0253748064	 0.404898
C	 1.7392404776	-3.0809917759	 0.0057861889	-0.434318
C	 1.8314963502	-3.7616361143	 1.3005486178	 0.266437
N	 1.9067023496	-4.3031801003	 2.3175657876	-0.298401
N	 1.1354889533	-0.6655288526	-0.2179418769	-0.339128
H	 0.8037370334	 1.8260480137	-0.2224930753	 0.25974
H	-0.8257626942	 1.8922206188	 0.1356325484	 0.252911
H	-2.1022786024	-0.7875061485	 0.430271408	 0.140954
H	 1.408623579	-3.8086671024	-0.7452751648	 0.1765
H	 2.7293625226	-2.7254785857	-0.290017088	 0.187812
31.6126	98.4567	222.5416	257.2207	269.5341	352.9494	375.6771	423.0635	485.6445	636.4959	641.291	659.4592	730.1954	745.5977	801.4884	916.565	939.1133	999.6962	1028.9985	1104.0816	1123.191	1213.1043	1256.1402	1324.985	1368.3229	1402.4972	1446.2006	1602.4861	1637.4484	1676.0419	2370.6813	3045.2191	3116.2388	3308.6445	3560.37	3659.5957
NC1=COC(CC#N)=N1	Nc1coc(CC#N)n1	
InChI=1S/C5H5N3O/c6-2-1-5-8-4(7)3-9-5/h3H,1,7H2	InChI=1S/C5H5N3O/c6-2-1-5-8-4(7)3-9-5/h3H,1,7H2
