18
gdb 81553	4.25621	1.18582	1.05001	1.0699	71.42	-0.2519	0.0593	0.3112	1137.3808	0.148651	-438.979138	-438.971645	-438.9707	-439.01136	29.314	
O	 0.1080915824	 1.4467672525	-0.1557176993	-0.455085
C	 0.0690041889	 0.0663056372	-0.0541357581	 0.223181
C	-0.0035822296	-0.5901206252	 1.3612978046	-0.17222
N	-1.4082870334	 0.0058819125	 1.4405475125	-0.369531
C	-1.3147979567	-0.6485319136	 0.0629771014	-0.172219
C	-0.5795796147	-1.8529149382	 0.6872352854	 0.361598
C	 0.1977943584	-2.9595106079	-0.0480821263	-0.17175
O	-0.4969273315	-3.9783681103	 0.699395288	-0.273506
C	-1.2691217958	-3.0075483308	 1.435571014	-0.173819
H	-0.543820866	 1.7630118094	 0.4884425821	 0.292131
H	 0.7856261361	-0.3578416481	-0.7587922766	 0.093233
H	 0.7001415217	-0.5154651462	 2.1923606062	 0.087581
H	-1.9971893299	-0.5563560733	 2.060594641	 0.218875
H	-2.1545877503	-0.6426358884	-0.6342921385	 0.087581
H	 0.0120911547	-3.0417121822	-1.1269663985	 0.107047
H	 1.2808919667	-2.9851931253	 0.1293230889	 0.107048
H	-1.0778151312	-3.0664542621	 2.5153969745	 0.104929
H	-2.3468618098	-3.1229878897	 1.2588140588	 0.104929
73.3301	156.7851	215.2389	279.4373	333.3437	421.4513	421.6245	559.6902	590.5821	709.7915	741.7623	804.723	856.3796	866.785	880.7838	906.6839	962.8072	978.9576	1037.2122	1049.9186	1063.0571	1093.069	1125.9993	1134.0206	1139.996	1158.5116	1176.6665	1183.9378	1194.662	1200.6563	1259.6094	1268.0387	1305.8407	1320.7538	1344.8195	1392.021	1465.6472	1506.0929	1531.7479	2995.9425	3008.4134	3039.3336	3045.6193	3100.42	3103.0499	3117.039	3408.7024	3719.1842
OC1C2NC1C21COC1	O[C@H]1[C@H]2N[C@@H]1C12COC1	
InChI=1S/C6H9NO2/c8-3-4-6(1-9-2-6)5(3)7-4/h3-5,7-8H,1-2H2	InChI=1S/C6H9NO2/c8-3-4-6(1-9-2-6)5(3)7-4/h3-5,7-8H,1-2H2/t3-,4+,5-
