19
gdb 68672	2.25858	1.86213	1.43448	3.1045	75.22	-0.2214	-0.0169	0.2045	1004.1262	0.159698	-423.032981	-423.024901	-423.023957	-423.065225	31.488	
C	 0.0344356455	 1.5601396629	 0.078347413	-0.469215
C	 0.0224342912	 0.0614023031	-0.0704290035	 0.308048
C	 0.6770156281	-0.6657338018	-1.2910940474	-0.306381
C	-0.3755078431	-1.8038450626	-1.0908147324	-0.151079
C	 0.0678444064	-2.7139713073	 0.0809811411	-0.237364
C	 0.8900887327	-1.8772715265	 1.0824003759	-0.07089
O	 0.4530678946	-0.5218866086	 1.1728777554	-0.311612
C	-1.264019569	-0.7048445765	-0.4806186627	 0.408039
O	-2.4381724385	-0.4803249555	-0.4437221819	-0.322379
H	 1.0509437227	 1.9211342063	 0.261155489	 0.124704
H	-0.3560467902	 2.0390317023	-0.8237825383	 0.122157
H	-0.593125948	 1.8540273412	 0.9242493231	 0.142127
H	 0.5047057644	-0.104396974	-2.2123893062	 0.114949
H	 1.7336139994	-0.92660147	-1.2147154565	 0.111409
H	-0.7504212715	-2.3638934323	-1.9486932981	 0.088525
H	-0.8166203077	-3.1481341421	 0.5586911478	 0.124477
H	 0.6801359062	-3.5450952703	-0.2869389793	 0.10815
H	 0.8184950937	-2.2841418493	 2.0947463326	 0.116237
H	 1.9511293731	-1.9026501688	 0.7981012584	 0.100096
125.589	176.2524	189.0346	226.567	266.663	310.7805	415.7169	426.1272	494.1662	561.317	665.7775	696.7647	782.3529	811.2724	829.9804	855.867	881.8764	923.6093	955.6086	1008.3777	1035.9891	1055.3813	1086.6825	1113.7435	1127.105	1176.5879	1199.1394	1214.136	1246.3628	1268.7717	1293.1642	1330.0412	1357.5149	1403.9257	1410.4897	1476.9929	1483.8595	1488.57	1493.7115	1527.5501	1893.158	3002.4624	3037.7891	3044.4901	3074.9106	3077.4003	3092.2523	3105.6166	3118.6057	3124.7466	3134.3771
CC12CC(CCO1)C2=O	C[C@@]12C[C@@H](CCO1)C2=O	
InChI=1S/C7H10O2/c1-7-4-5(6(7)8)2-3-9-7/h5H,2-4H2,1H3	InChI=1S/C7H10O2/c1-7-4-5(6(7)8)2-3-9-7/h5H,2-4H2,1H3/t5-,7+/m1/s1
