17
gdb 98454	3.28943	1.16539	0.99962	3.7699	65.18	-0.2519	-0.0069	0.2449	1210.5083	0.133535	-496.098829	-496.089318	-496.088373	-496.134484	32.818	
C	-0.089142919	 1.3547407757	 0.0127202191	-0.247525
O	 0.0381220582	-0.0757966584	-0.0073793026	-0.26219
C	 0.5627353618	-0.600335114	-1.1360696333	 0.394083
O	 0.9086782218	 0.0560651155	-2.082928429	-0.352805
C	 0.6088806471	-2.1193029805	-1.0690651134	 0.213009
O	 0.470140297	-2.6311525705	 0.2251326477	-0.472789
C	-0.2704969152	-2.7889813533	-2.1756621326	-0.102441
O	 0.8888264866	-3.2635165578	-2.8751924486	-0.265765
C	 1.7760684645	-2.7504427617	-1.8647077559	-0.094284
H	 0.8927025126	 1.8233280376	-0.0842359899	 0.150864
H	-0.7251309359	 1.6901264203	-0.809462925	 0.15027
H	-0.5391373445	 1.59973576	 0.9742113166	 0.140918
H	 0.0308447493	-1.9612759988	 0.761288428	 0.29443
H	-0.8826509897	-3.6008267004	-1.7646122759	 0.110237
H	-0.8824081402	-2.1224800117	-2.7935865389	 0.109976
H	 2.5071319217	-2.0480959161	-2.2757864313	 0.121162
H	 2.2744483639	-3.5444575758	-1.2970065447	 0.11285
29.386	85.168	95.0733	139.4944	211.2806	242.2669	287.6942	319.4871	363.2716	404.9499	451.3208	557.9986	744.9765	776.0736	837.2258	898.4486	952.0541	994.3883	1009.4487	1044.9187	1051.9598	1118.3679	1163.2532	1164.3877	1179.6592	1207.7604	1224.8456	1293.7389	1305.5518	1365.2289	1414.085	1472.2531	1480.2761	1489.16	1496.6229	1515.9522	1830.5082	3018.0421	3035.7251	3058.8781	3077.89	3097.1788	3137.9147	3167.7958	3803.0257
COC(=O)C1(O)COC1	COC(=O)C1(O)COC1	
InChI=1S/C5H8O4/c1-8-4(6)5(7)2-9-3-5/h7H,2-3H2,1H3	InChI=1S/C5H8O4/c1-8-4(6)5(7)2-9-3-5/h7H,2-3H2,1H3
