20
gdb 120591	3.79396	0.76718	0.72342	4.6836	82.05	-0.266	0.0348	0.3007	1629.5733	0.169039	-403.142065	-403.131865	-403.130921	-403.177792	36.02	
C	-0.1895993149	 1.3324663265	-0.0230970749	-0.227828
O	-0.1981514491	-0.0680503294	-0.1715970054	-0.229619
C	 0.833365213	-0.534644001	-1.0138069537	-0.086896
C	 0.7574881819	-2.0401742435	-1.0338729654	-0.040982
C	-0.1532815181	-2.7722711718	-1.9728712846	-0.302772
C	 1.3549380983	-2.865153355	-2.1741522203	 0.134362
C	 2.0041158123	-2.2258654662	-3.3948424305	-0.461321
C	 1.9797753769	-4.1033962823	-1.772263225	 0.243488
N	 2.4928373269	-5.0925040359	-1.4601047264	-0.346954
H	 0.75460982	 1.6915337953	 0.4160663842	 0.107183
H	-0.3366711397	 1.8471537369	-0.9861154203	 0.104264
H	-1.012666776	 1.5939515897	 0.6457824478	 0.132236
H	 0.7199934067	-0.1133206693	-2.0257312138	 0.085336
H	 1.8164716148	-0.2056833828	-0.635124365	 0.096146
H	 0.8704866426	-2.4812451535	-0.0485623974	 0.120366
H	-0.679657044	-3.6478132803	-1.613011784	 0.13906
H	-0.6910122845	-2.1902823198	-2.714159528	 0.125886
H	 1.4600498757	-1.33249772	-3.7070534289	 0.126953
H	 3.0416417371	-1.944941906	-3.1909381464	 0.139023
H	 2.0035158801	-2.9285072817	-4.2331498019	 0.142069
57.4216	89.7192	109.0942	149.4395	180.0874	208.0714	235.3997	264.4782	307.805	374.8828	406.5423	467.6747	575.9629	599.3606	676.3671	851.8101	880.3739	903.7725	947.1944	983.7309	987.4595	1064.6484	1089.2735	1111.1939	1124.8198	1154.0297	1176.1948	1194.4577	1226.8616	1261.0243	1286.858	1296.2828	1387.5265	1419.3661	1444.3873	1482.0345	1486.0871	1487.4171	1488.6199	1501.9297	1506.0388	1527.0926	2348.4585	2953.5273	2971.7228	2986.5564	3014.6834	3047.6357	3112.8905	3118.9508	3133.4253	3140.4167	3165.3447	3232.9731
COCC1CC1(C)C#N	COC[C@H]1C[C@]1(C)C#N	
InChI=1S/C7H11NO/c1-7(5-8)3-6(7)4-9-2/h6H,3-4H2,1-2H3	InChI=1S/C7H11NO/c1-7(5-8)3-6(7)4-9-2/h6H,3-4H2,1-2H3/t6-,7-/m1/s1
