23
gdb 39282	2.21479	2.18357	1.45285	0.1958	86.61	-0.2744	0.0709	0.3454	1012.8147	0.211095	-351.176799	-351.169765	-351.168821	-351.207997	30.169	
C	 0.2244680005	 1.296271082	-0.7234377504	-0.254942
C	 1.5490568807	 1.5286942276	 0.0601491036	 0.006373
C	 1.4617352371	 2.4458242617	 1.3034913609	-0.231754
C	 1.8886783738	 1.5642260272	 2.4972704275	-0.205708
C	 1.4477475277	 0.1184238116	 2.1580361141	-0.016927
C	-0.002256873	-0.2575594787	 2.5540642527	-0.205652
C	-0.90493525	 0.159002667	 1.3722527816	-0.231998
C	-0.02802656	 0.0038375995	 0.1061362693	 0.0062
C	 1.4500182701	 0.0688593989	 0.6105619404	-0.020271
H	-0.534677143	 2.0832708019	-0.6625100028	 0.087149
H	 0.4061724485	 1.0761965118	-1.7792021251	 0.092878
H	 2.4225853031	 1.7632082187	-0.5528015727	 0.058788
H	 2.0898483499	 3.336442727	 1.206417131	 0.091428
H	 0.4369342618	 2.8071563674	 1.442237821	 0.097574
H	 2.981267212	 1.5849340064	 2.5888935053	 0.092964
H	 1.4861491893	 1.9185912153	 3.4523002518	 0.089332
H	 2.1469617417	-0.5937960699	 2.6054383495	 0.059684
H	-0.0586367066	-1.3446658121	 2.6860123273	 0.093033
H	-0.3127001989	 0.1908890699	 3.503950767	 0.089397
H	-1.8165818183	-0.4438729981	 1.3211649504	 0.091481
H	-1.2312543157	 1.1982922806	 1.487980023	 0.09759
H	-0.3102537905	-0.8784616498	-0.4732004526	 0.05881
H	 2.1368015098	-0.6547899457	 0.1690525875	 0.054569
113.8124	172.9956	304.6524	351.4396	399.8713	519.0356	578.4704	603.2747	690.9062	753.8887	775.9572	809.6492	818.8973	843.9287	862.5822	908.3693	917.3482	941.4277	951.8933	966.8653	971.7444	1023.371	1024.5565	1041.2673	1079.932	1110.8214	1134.0637	1139.0119	1170.6831	1201.2502	1216.2067	1217.6385	1232.7731	1252.8589	1269.8135	1280.8439	1304.0661	1308.0862	1315.2159	1329.7753	1338.1037	1343.0613	1359.938	1364.8491	1481.5313	1482.9891	1495.0029	1496.0073	1516.4166	3026.3498	3028.973	3037.1015	3037.9628	3045.3342	3058.6935	3061.6344	3061.9157	3070.647	3074.5609	3086.2549	3087.9718	3092.9131	3102.3279
C1C2CCC3CCC1C23	C1[C@H]2CC[C@H]3CC[C@@H]1[C@@H]23	
InChI=1S/C9H14/c1-3-7-5-8-4-2-6(1)9(7)8/h6-9H,1-5H2	InChI=1S/C9H14/c1-3-7-5-8-4-2-6(1)9(7)8/h6-9H,1-5H2/t6-,7+,8-,9+
