15
gdb 56469	2.72243	1.06424	0.82733	3.6806	69.13	-0.2931	-0.0467	0.2463	1357.3161	0.110556	-453.987935	-453.978462	-453.977518	-454.023728	31.896	
C	 0.2131213957	 1.6350577196	 0.8289558795	-0.390595
C	-0.2107736535	 0.4400203453	-0.0384549594	-0.254728
C	 0.4728099261	-0.7936413088	 0.363177508	 0.278459
N	 1.0247970627	-1.7490394122	 0.7051086396	-0.307405
C	-1.7298527914	 0.2242664499	 0.0064230595	 0.477148
O	-2.4842676475	 0.8081384418	 0.72993967	-0.324097
O	-2.0876676584	-0.7072298298	-0.9181498041	-0.200082
C	-3.4165247387	-1.082138322	-0.9858218148	 0.120112
N	-3.7477349559	-1.8702298438	-1.9034774731	-0.405369
H	 1.2932395946	 1.779176806	 0.7647247294	 0.142554
H	-0.2902481363	 2.539357237	 0.4814236038	 0.142419
H	-0.062209165	 1.4687332747	 1.8715370458	 0.157646
H	 0.0446084184	 0.6197057862	-1.0903562258	 0.164638
H	-4.0229617604	-0.6296004341	-0.2017959806	 0.151086
H	-4.7428635305	-2.0810020397	-1.8412700076	 0.248213
30.5633	92.1261	104.6867	141.2511	194.493	201.2376	242.3225	303.2017	387.5784	454.6615	527.7373	575.0888	634.1095	781.6152	850.3859	858.2309	929.9145	986.7804	1038.0074	1068.5927	1109.757	1124.5363	1192.709	1251.2131	1308.6909	1316.2617	1390.0314	1416.5501	1488.7621	1492.5908	1752.1439	1849.9206	2363.3735	3045.2126	3066.6135	3145.7163	3147.0306	3153.688	3511.2235
CC(C#N)C(=O)OC=N	C[C@@H](C#N)C(=O)O[CH][NH]	
InChI=1S/C5H6N2O2/c1-4(2-6)5(8)9-3-7/h3-4,7H,1H3	InChI=1S/C5H6N2O2/c1-4(2-6)5(8)9-3-7/h3-4,7H,1H3/t4-/m0/s1
