17
gdb 123787	5.26947	0.99033	0.86643	3.8594	76.7	-0.2075	0.017	0.2245	1314.099	0.137099	-417.981535	-417.973633	-417.972689	-418.014947	29.587	
C	-0.3732659307	 1.0527095824	-0.3173014936	-0.235949
C	 1.0440070041	 1.132551568	 0.1902041023	-0.291266
C	 0.3621560473	-0.2029876175	 0.0651180745	 0.035139
N	-0.0077017745	-0.8632920752	 1.2861127463	-0.399068
C	-1.0642196652	-1.7327545269	 1.3320935838	 0.528432
C	-1.443721417	-2.6814525961	 2.2486467087	-0.387359
C	-2.6580730561	-3.1668397483	 1.7100101427	 0.051741
N	-2.9977270879	-2.5915685056	 0.5831289851	-0.16728
O	-1.9578004933	-1.6608102248	 0.3381341428	-0.211817
H	-1.1645124671	 1.377867691	 0.3466797119	 0.130934
H	-0.5625749627	 1.221390492	-1.3707071664	 0.123897
H	 1.8401205133	 1.3606488173	-0.508919209	 0.120558
H	 1.1944270019	 1.5188493095	 1.1920821431	 0.119718
H	 0.6788504561	-0.8533411685	-0.7489560528	 0.101392
H	 0.7558805706	-1.11550679	 1.8955940113	 0.251884
H	-0.9391923627	-2.9743555201	 3.1531086348	 0.1038
H	-3.3083381661	-3.9316682371	 2.1132256447	 0.125244
56.6252	68.6099	131.2533	278.8906	334.8971	363.3565	459.7682	541.9271	627.7511	715.2695	734.9016	739.3981	769.012	841.9602	848.2128	891.3812	919.3958	932.2621	967.9518	1006.1387	1037.1449	1061.8377	1065.5152	1080.5254	1129.3178	1189.6288	1193.7777	1222.7987	1250.0609	1337.9856	1350.9326	1398.7336	1459.1439	1473.96	1498.7443	1554.2117	1652.9167	3107.5283	3140.6353	3152.3752	3225.3708	3233.7693	3244.1089	3281.3672	3608.2138
C1CC1NC1=CC=NO1	C1CC1Nc1ccno1	
InChI=1S/C6H8N2O/c1-2-5(1)8-6-3-4-7-9-6/h3-5,8H,1-2H2	InChI=1S/C6H8N2O/c1-2-5(1)8-6-3-4-7-9-6/h3-5,8H,1-2H2
