17
gdb 20790	3.10329	1.80993	1.25003	4.6457	70.49	-0.2375	0.0059	0.2434	994.0792	0.142841	-360.060772	-360.052448	-360.051504	-360.094791	29.14	
C	-0.3507978411	 1.5128920703	 0.0171444043	-0.368334
C	 0.0157726251	 0.0175354321	 0.0469552366	-0.305953
C	 0.7779447015	-0.4354918585	-1.1567231181	 0.262722
C	 2.1181375285	-0.676006362	-1.38973292	 0.225084
C	 3.2864426483	-0.568746975	-0.4642682762	-0.497597
N	 2.2694816874	-1.0554208864	-2.6945597535	-0.247502
N	 1.1105566381	-1.0634101686	-3.285361	-0.126949
N	 0.2052944404	-0.6864184746	-2.3635755649	-0.228082
H	 0.5475840897	 2.1332882275	-0.0475693445	 0.13194
H	-0.9804640779	 1.7502393175	-0.8461683574	 0.118719
H	-0.8982317011	 1.7941886147	 0.921629139	 0.121119
H	 0.6224090025	-0.1909793556	 0.9340686423	 0.123848
H	-0.8975098174	-0.5812025539	 0.1552392247	 0.113248
H	 3.012144251	-0.8229874238	 0.5642072427	 0.122286
H	 4.0765841475	-1.2500272673	-0.7884837195	 0.148039
H	 3.7082629141	 0.4431050767	-0.4524223068	 0.133469
H	-0.7684479066	-0.6457290729	-2.6200381888	 0.273944
32.5761	62.5323	152.5055	192.5312	263.4157	267.5583	378.4178	429.774	569.8529	633.3162	695.8125	729.2317	739.8265	785.8929	969.5796	984.6219	1032.732	1057.8742	1063.5148	1080.8826	1094.504	1204.4643	1236.1121	1302.0795	1319.5495	1352.06	1380.9061	1412.0164	1416.717	1478.9507	1481.0443	1493.5414	1496.2915	1503.9182	1506.3549	1624.8733	3028.1048	3033.3888	3040.0414	3075.6521	3088.9016	3111.747	3119.2862	3126.5624	3650.6401
CCC1=C(C)N=NN1	CCc1c(C)nn[nH]1	
InChI=1S/C5H9N3/c1-3-5-4(2)6-8-7-5/h3H2,1-2H3,(H,6,7,8)	InChI=1S/C5H9N3/c1-3-5-4(2)6-8-7-5/h3H2,1-2H3,(H,6,7,8)
