18
gdb 92392	2.29999	1.60567	1.27296	1.9488	78.95	-0.2308	0.0197	0.2506	1073.668	0.146476	-401.869455	-401.860946	-401.860002	-401.902336	32.722	
C	 0.2229324609	 1.5377305031	-0.0694552799	-0.412914
C	 0.0596418248	 0.0443873306	 0.0722433928	 0.131203
O	 0.8843595266	-0.7237814013	-0.8520478993	-0.318353
C	 1.3810315019	-1.575687577	 0.1868900347	 0.046425
C	 2.7377107063	-1.1308753586	 0.75952978	-0.184699
N	 2.048183792	-0.1268722949	 1.6237729232	-0.360609
C	 0.7066625351	-0.6916140894	 1.28484626	 0.134787
C	-0.1153501322	-1.1369498916	 2.3743462786	 0.195569
C	-0.7983100318	-1.4952694657	 3.2982078566	-0.423947
H	 1.2463047629	 1.8317298143	 0.1711874492	 0.141214
H	-0.011255623	 1.8406878551	-1.094727384	 0.125177
H	-0.4650799301	 2.0578171742	 0.6057195318	 0.118416
H	-0.9906590795	-0.2565058623	-0.041015329	 0.077
H	 1.1889735997	-2.6355420473	 0.0090698195	 0.090381
H	 3.2392061661	-1.9322289527	 1.3163528409	 0.1024
H	 3.4340522278	-0.6940349635	 0.037780311	 0.115249
H	 2.2663272691	-0.2146475989	 2.6089807585	 0.227463
H	-1.4049323066	-1.8157121042	 4.1090206255	 0.195238
108.0325	125.071	168.1036	201.9515	257.3864	337.2306	369.0642	466.5325	516.5074	522.0634	601.0827	624.1647	644.4857	649.5427	719.983	839.1447	868.5427	897.76	960.6447	972.4245	1001.4774	1042.346	1086.0834	1103.3655	1127.4034	1138.7793	1161.1737	1195.7152	1216.6655	1287.7018	1316.1199	1338.6841	1371.0876	1393.0906	1411.5386	1477.3769	1493.5215	1496.1478	2229.1147	3012.2302	3022.1054	3041.5528	3087.7999	3093.4319	3107.846	3140.3662	3499.489	3553.6625
CC1OC2CNC12C#C	C[C@H]1O[C@H]2CN[C@@]12C#C	
InChI=1S/C7H9NO/c1-3-7-5(2)9-6(7)4-8-7/h1,5-6,8H,4H2,2H3	InChI=1S/C7H9NO/c1-3-7-5(2)9-6(7)4-8-7/h1,5-6,8H,4H2,2H3/t5-,6+,7+/m1/s1
