16
gdb 51972	2.64619	0.86928	0.68532	3.3622	73.28	-0.2543	-0.0341	0.2202	1565.2426	0.120798	-437.88982	-437.879956	-437.879012	-437.926536	33.814	
O	 0.6184241431	-0.1593272741	-0.6961659951	-0.228495
C	 0.713055503	 1.0280387367	-0.8544961083	 0.153442
C	 1.7265846131	 1.9055426116	-0.1331084452	-0.247513
N	 2.1864494069	 3.0051739881	-0.9507316744	-0.332443
C	 1.8660361413	 4.296916232	-0.6673625949	 0.434203
O	 1.166103966	 4.6335942366	 0.2673446049	-0.368577
C	 2.4525363413	 5.3597094669	-1.6180122555	-0.482716
C	 3.2806617497	 4.8730571856	-2.7107309251	 0.281116
C	 3.9618092467	 4.4431566335	-3.6039826472	-0.421741
H	 0.0473040639	 1.5888814711	-1.5498619297	 0.086443
H	 1.2271607072	 2.3531963564	 0.7356887222	 0.176087
H	 2.5526768659	 1.2820923582	 0.2228127755	 0.136131
H	 2.791761299	 2.8287780838	-1.7385440856	 0.262779
H	 1.5995112336	 5.9297900053	-2.0029954412	 0.170707
H	 3.0157685628	 6.0556120474	-0.9859961192	 0.171186
H	 4.5663880464	 4.0846277909	-4.4006026711	 0.209392
39.4757	54.8679	67.956	103.7461	141.7945	270.6463	324.918	333.2558	370.7594	491.4241	501.6244	527.9038	628.9501	632.694	646.7445	669.1802	775.7504	889.2163	948.5201	990.7502	1051.486	1097.1125	1123.7759	1216.9575	1243.5065	1267.9433	1304.5325	1336.9925	1411.8795	1444.0355	1445.6524	1546.9491	1788.0417	1841.6414	2234.1679	2877.7974	3040.0637	3048.6407	3082.1722	3096.9226	3501.0076	3612.657
O=CCNC(=O)CC#C	O=CCNC(=O)CC#C	
InChI=1S/C6H7NO2/c1-2-3-6(9)7-4-5-8/h1,5H,3-4H2,(H,7,9)	InChI=1S/C6H7NO2/c1-2-3-6(9)7-4-5-8/h1,5H,3-4H2,(H,7,9)
