18
gdb 14344	4.57546	1.67222	1.44808	1.3458	75.06	-0.2261	0.0101	0.2362	923.4183	0.154437	-347.781524	-347.774376	-347.773432	-347.812743	27.962	
C	 0.0736180319	 1.5282295124	-0.0400558517	-0.387155
C	-0.0315329863	 0.0114601473	 0.0736292253	 0.109021
O	 0.5344115086	-0.5917489489	-1.1182306624	-0.293061
C	 1.2895748193	-1.7138510379	-0.7182900409	 0.09609
C	 2.862299843	-1.7887224333	-0.7844859168	-0.253029
C	 2.8492547551	-2.2245311993	 0.7322948125	-0.313033
C	 1.4687154773	-1.6052237286	 0.7598116779	 0.230972
C	 0.7797091718	-0.5731217846	 1.2284834787	-0.251087
H	 1.1220608789	 1.8401043207	-0.0614651556	 0.117589
H	-0.4080393412	 1.8673863387	-0.9614963738	 0.126806
H	-0.4220309675	 2.0142147913	 0.8068475652	 0.11105
H	-1.0971186776	-0.2681925976	 0.1293179053	 0.079182
H	 0.8400883866	-2.6433634419	-1.0968401825	 0.075695
H	 3.3030529361	-2.4864535195	-1.5003426229	 0.101544
H	 3.2899304583	-0.7923043679	-0.9082198835	 0.117747
H	 2.847121688	-3.3140733826	 0.8334139649	 0.116151
H	 3.6047673906	-1.8055998036	 1.3989173853	 0.115786
H	 0.8536799572	-0.0856389648	 2.1927444152	 0.099733
92.3826	195.2809	229.3769	311.4357	327.0656	387.5564	480.3319	650.7067	686.4173	700.7475	783.9002	815.4374	831.4081	844.6943	897.6432	918.1198	952.1441	1005.5628	1034.6676	1073.501	1095.4653	1113.7038	1124.7862	1143.2619	1172.2976	1211.5522	1238.7997	1246.7754	1298.0748	1312.5773	1361.259	1378.2717	1399.0715	1469.2732	1483.9168	1484.8678	1494.7594	1730.0474	2953.1974	2994.7169	3037.4353	3058.4606	3068.3006	3111.5227	3118.3387	3119.9308	3141.584	3209.2638
CC1OC2CCC2=C1	C[C@H]1O[C@H]2CC[C]2[CH]1	
InChI=1S/C7H10O/c1-5-4-6-2-3-7(6)8-5/h4-5,7H,2-3H2,1H3	InChI=1S/C7H10O/c1-5-4-6-2-3-7(6)8-5/h4-5,7H,2-3H2,1H3/t5-,7+/m1/s1
