23
gdb 101188	2.91869	1.02293	0.92519	1.4147	85.3	-0.2487	0.0787	0.3274	1395.0125	0.205623	-388.256706	-388.247081	-388.246137	-388.291366	36.447	
C	-0.3118908118	 1.3456539964	 0.0682533487	-0.3938
C	 0.0390622718	-0.1326188633	-0.1496044034	 0.002078
C	 0.9028539662	-0.3245800112	-1.3976879604	-0.072846
O	 0.1703620668	 0.1294198634	-2.5279952483	-0.425916
C	 0.7473671456	-0.7119151696	 1.0625915684	 0.013311
C	 0.0806093413	-1.1817844281	 2.3284620665	-0.084339
C	-1.2398637121	-1.9123819218	 2.0460590158	-0.22928
C	-0.4715476207	-2.9204589461	 1.1316369559	-0.230204
C	 0.8364826336	-2.1716998172	 1.4276350737	-0.085385
H	 0.5919350129	 1.9337904591	 0.2708879346	 0.102682
H	-0.7934691704	 1.7629921929	-0.8188113987	 0.129411
H	-0.9839157035	 1.4658700884	 0.9234999634	 0.110873
H	-0.8920550079	-0.6817353281	-0.3302334131	 0.083571
H	 1.8441646611	 0.2397555342	-1.2826935343	 0.077111
H	 1.1682353559	-1.388598721	-1.4981699079	 0.087193
H	 0.7319234124	 0.0471686901	-3.3038096492	 0.284905
H	 1.6811535533	-0.1927139817	 1.282862101	 0.076656
H	 0.3713767744	-0.7877631044	 3.2954996725	 0.078732
H	-1.6463663391	-2.3981246721	 2.9357674975	 0.100535
H	-2.0380963134	-1.322538574	 1.5840462365	 0.098435
H	-0.4761711345	-3.9306153649	 1.5468670091	 0.100341
H	-0.7776470582	-2.9815315628	 0.0821815564	 0.098206
H	 1.7932708362	-2.6509310985	 1.6015291053	 0.07773
58.2809	101.6875	140.3413	185.4039	229.8299	244.5592	257.2157	282.9476	404.62	412.1278	472.2662	570.472	738.7925	767.2757	789.6727	798.3493	865.2748	911.4528	930.344	946.2262	955.2755	968.234	1013.3187	1023.8563	1055.4784	1072.9751	1080.4046	1111.2924	1125.1191	1142.5883	1169.9865	1211.6464	1223.8736	1242.7388	1251.5744	1264.0357	1264.6016	1306.4357	1314.3086	1352.0106	1360.9175	1398.3046	1453.4315	1457.3783	1484.3536	1492.693	1503.4081	1507.1186	1520.6142	2954.4842	2992.4955	3027.7302	3043.4837	3047.2944	3053.7964	3093.2533	3093.8004	3101.3	3112.0407	3127.5014	3165.2984	3177.4039	3833.2792
CC(CO)C1C2CCC12	C[C@@H](CO)[C@H]1[C@H]2CC[C@@H]12	
InChI=1S/C8H14O/c1-5(4-9)8-6-2-3-7(6)8/h5-9H,2-4H2,1H3	InChI=1S/C8H14O/c1-5(4-9)8-6-2-3-7(6)8/h5-9H,2-4H2,1H3/t5-,6-,7+,8-/m0/s1
