19
gdb 56276	3.92788	0.81174	0.70636	3.3195	73.1	-0.2358	0.0577	0.2936	1583.9988	0.158718	-456.353023	-456.343397	-456.342452	-456.389221	34.286	
N	 0.6171277092	-0.7031618836	 1.2770523959	-0.563627
C	 0.1057562232	-0.3919972659	 0.0471726188	 0.500239
O	 0.6678762398	 0.2640459471	-0.7976138136	-0.39706
O	-1.1187966559	-0.9556970137	-0.0997204646	-0.261544
C	-1.7266571869	-0.7593692064	-1.3870778999	-0.050377
C	-3.0932213385	-1.4193061763	-1.3702773856	-0.164037
N	-2.9901144945	-2.8719162571	-1.3577741024	-0.059443
C	-2.9514528702	-3.5140012364	-0.0481130518	-0.205649
C	-4.1687960547	-3.6000736856	-0.8997365231	-0.224185
H	 1.412401818	-0.1642979609	 1.5734158999	 0.268
H	-0.003153114	-1.0570684088	 1.9850376664	 0.261906
H	-1.8139906119	 0.3132222021	-1.586061644	 0.116546
H	-1.0926854714	-1.2019568474	-2.1603507001	 0.131186
H	-3.6764815681	-1.0270023783	-0.5173011747	 0.086203
H	-3.6177193122	-1.1250027505	-2.2874156716	 0.110182
H	-2.2768780038	-4.3604857442	 0.0413627955	 0.11718
H	-3.0009131662	-2.8752829601	 0.8309088436	 0.11004
H	-5.0368246341	-3.021888444	-0.5854620589	 0.107061
H	-4.4028126378	-4.5095031699	-1.4456507797	 0.117378
25.3979	67.4494	78.5754	161.2716	195.8487	259.2138	300.855	340.1514	385.0079	464.2388	513.7615	523.0812	670.0699	734.7712	784.218	819.8967	850.2346	892.3107	954.236	999.5166	1040.7492	1068.6807	1091.3144	1108.5616	1117.385	1125.0838	1129.696	1173.4916	1194.0473	1266.9437	1298.2671	1330.8079	1341.8528	1398.2825	1423.03	1478.2318	1493.3124	1504.5027	1523.268	1611.7865	1835.3524	2940.6429	3049.328	3062.2828	3093.3156	3106.6643	3108.271	3178.3912	3195.1283	3615.4828	3744.8445
NC(=O)OCCN1CC1	NC(=O)OCCN1CC1	
InChI=1S/C5H10N2O2/c6-5(8)9-4-3-7-1-2-7/h1-4H2,(H2,6,8)	InChI=1S/C5H10N2O2/c6-5(8)9-4-3-7-1-2-7/h1-4H2,(H2,6,8)
