17
gdb 53244	8.04296	0.65078	0.63565	2.0113	86.38	-0.2465	0.0074	0.2538	1759.143	0.133022	-384.607793	-384.598024	-384.59708	-384.644663	33.765	
C	 0.4055668762	 1.5379937913	-0.4390157214	-0.498167
C	 0.105356931	 0.1337429208	-0.2049566155	 0.052639
C	-0.1505395618	-1.0276329966	-0.0130883539	 0.100993
C	-0.4527461536	-2.4275111764	 0.2187942484	-0.034626
C	 0.1715314677	-3.0967903226	 1.4724218583	-0.308105
C	-1.2963061043	-3.3134685476	 1.9247581572	-0.026542
O	-1.7974302759	-2.6564988363	 0.7317048832	-0.288093
C	-1.7483621649	-4.6883049675	 2.0602228711	 0.333363
C	-2.1116232351	-5.8280903984	 2.1790123201	-0.461734
H	 1.246594447	 1.8742615822	 0.17726488	 0.149896
H	 0.6642615907	 1.7220317299	-1.4873843179	 0.151468
H	-0.4569514122	 2.1674730638	-0.1940672436	 0.155759
H	-0.3022541306	-3.0032862129	-0.7030988494	 0.108404
H	 0.7336084822	-4.0090172762	 1.2773144811	 0.126024
H	 0.7482816155	-2.4256752017	 2.107330129	 0.12481
H	-1.5746100129	-2.7430073687	 2.8197141717	 0.110977
H	-2.4398344892	-6.8327812931	 2.2835155518	 0.202936
24.7392	28.9165	77.7518	132.2205	180.0438	221.2617	303.8606	322.6995	434.1588	485.4342	528.9072	584.1423	620.2838	669.5113	702.6504	765.3417	869.1288	949.0466	960.7147	992.243	1019.9154	1050.2916	1054.3243	1079.0412	1145.1632	1188.4836	1248.7121	1253.6489	1285.2632	1352.5443	1381.6904	1413.4909	1475.6936	1477.796	1485.5999	2234.1242	2366.9683	3020.1995	3024.1366	3028.741	3090.2282	3091.8608	3100.695	3165.248	3502.7828
CC#CC1CC(O1)C#C	CC#C[C@H]1C[C@@H](O1)C#C	
InChI=1S/C8H8O/c1-3-5-8-6-7(4-2)9-8/h2,7-8H,6H2,1H3	InChI=1S/C8H8O/c1-3-5-8-6-7(4-2)9-8/h2,7-8H,6H2,1H3/t7-,8-/m0/s1
