16
gdb 133550	2.96012	1.28939	1.28926	2.2785	61.51	-0.3151	0.0958	0.4109	1029.557	0.121904	-532.213625	-532.206178	-532.205234	-532.246369	28.465	
F	-0.004570445	 0.0737038813	 0.0167032277	-0.081144
C	-0.0461885151	 1.4155200354	 0.0622531439	 0.183339
F	 1.2203291783	 1.8603185293	 0.015062059	-0.08111
F	-0.6641729377	 1.8385382636	-1.0528278667	-0.081205
C	-0.7498007338	 1.8993880243	 1.2944160396	 0.183051
C	-2.2178601091	 1.5986076952	 1.7069115198	-0.259669
C	-1.6263747969	 2.5028122415	 2.8305527024	-0.060545
C	-0.3413068863	 1.6228992683	 2.7680897089	-0.259455
C	-1.0004896272	 3.3779297991	 1.7024792291	-0.259489
H	-2.9972881274	 2.0366127579	 1.0792827223	 0.105176
H	-2.4432386763	 0.5637691362	 1.9740486041	 0.105172
H	-2.1370911827	 2.8545197621	 3.7257328535	 0.085213
H	-0.4331348378	 0.5897162419	 3.1104702432	 0.105161
H	 0.5892115153	 2.0833711214	 3.1073984004	 0.105156
H	-0.1172395048	 3.9644832322	 1.9651760984	 0.105151
H	-1.6929789837	 3.9425257705	 1.0741268245	 0.105198
46.779	157.062	159.1603	352.1154	386.6029	387.2741	532.5478	534.5713	582.2209	583.2225	734.5435	804.269	804.985	892.5799	933.3755	963.5143	967.4003	967.9939	997.5025	1098.0449	1099.1529	1138.0894	1140.3287	1141.3089	1161.2764	1161.5569	1197.5922	1197.988	1237.2341	1237.6678	1251.9744	1395.2265	1497.8323	1499.9586	1556.6699	3060.2419	3061.1853	3067.0024	3126.6138	3128.5185	3132.9932	3133.4976
FC(F)(F)C12CC(C1)C2	FC(F)(F)[C@@]12C[C@@H](C1)C2	
InChI=1S/C6H7F3/c7-6(8,9)5-1-4(2-5)3-5/h4H,1-3H2	InChI=1S/C6H7F3/c7-6(8,9)5-1-4(2-5)3-5/h4H,1-3H2/t4-,5-
