16
gdb 25981	5.024	1.02315	0.85072	3.4212	75.35	-0.1793	0.0298	0.2091	1291.3808	0.126789	-434.145885	-434.137715	-434.136771	-434.178891	31.176	
N	 0.0685940074	 1.342867702	 0.0807219605	-0.57354
C	-0.389209971	 0.1059696648	-0.3515485937	 0.46816
O	-0.8162169258	-0.0717874163	-1.484246851	-0.407961
N	-0.2744334612	-0.8905691045	 0.5857017442	-0.460217
C	-0.6226675749	-2.2332627294	 0.3890034936	 0.434221
C	-0.5444879506	-3.2912187666	 1.2688013607	-0.287988
C	-1.0271257153	-4.4343546555	 0.5660085138	-0.133117
C	-1.3781346969	-4.0311334708	-0.6988206096	-0.102085
N	-1.1259414669	-2.6813196431	-0.7970392034	-0.281145
H	-0.2019927386	 2.0873809402	-0.543950891	 0.266418
H	-0.0332452619	 1.5733748117	 1.0577817816	 0.251521
H	 0.2086616523	-0.6921648766	 1.4461333406	 0.257216
H	-0.1891829763	-3.2498615912	 2.2870240171	 0.080271
H	-1.1053688078	-5.4372549754	 0.9560979422	 0.090012
H	-1.7831136357	-4.5765177029	-1.5350296549	 0.113131
H	-1.2542313968	-2.0589803865	-1.5812164308	 0.285104
72.8612	88.0572	189.7188	296.7753	335.2939	370.3881	394.2341	463.0304	543.6354	586.2474	622.5556	644.3961	664.7643	704.8777	753.4922	759.7788	804.2921	829.9743	900.0874	967.0911	1039.3982	1050.1335	1099.8505	1107.934	1151.7658	1265.4014	1300.2092	1327.6974	1418.6717	1469.7399	1513.2939	1559.5366	1629.0973	1646.7217	1776.0041	3240.151	3254.2693	3277.9059	3575.8944	3618.8817	3650.9397	3689.1066
NC(=O)NC1=CC=CN1	NC(=O)Nc1ccc[nH]1	
InChI=1S/C5H7N3O/c6-5(9)8-4-2-1-3-7-4/h1-3,7H,(H3,6,8,9)	InChI=1S/C5H7N3O/c6-5(9)8-4-2-1-3-7-4/h1-3,7H,(H3,6,8,9)
