18
gdb 19526	3.8057	1.6318	1.52251	1.064	67.08	-0.2456	0.0889	0.3345	925.9872	0.154315	-384.915856	-384.908292	-384.907348	-384.948245	28.063	
C	 0.3125977581	 1.0949954927	-0.4501680555	-0.374512
C	-0.5694591854	 0.4008608063	 0.5935647769	-0.196866
C	 0.2376583354	-0.3052170681	 1.660803061	-0.066488
C	-0.2367158758	-1.5708728085	 2.3522793374	 0.020833
O	-1.284238108	-2.2762661566	 1.7195735176	-0.252426
C	-0.6521460348	-3.0812646362	 0.740045218	 0.024465
O	 0.4852374745	-2.3669098368	 0.2902870489	-0.252568
C	 0.9293360548	-1.6336370036	 1.4136296374	 0.035567
H	 0.930719904	 0.3632362572	-0.9791183339	 0.129337
H	-0.2963983641	 1.6235010471	-1.1903699295	 0.109901
H	 0.9822682784	 1.827640443	 0.0140329294	 0.108436
H	-1.2242676365	 1.1347406891	 1.0794582527	 0.096989
H	-1.2288494294	-0.3194199093	 0.1034105284	 0.114743
H	 0.8066185679	 0.3540726041	 2.3154157494	 0.08653
H	-0.1795539117	-1.7039461204	 3.4273825441	 0.102643
H	-0.3499452372	-4.0492616195	 1.1760076388	 0.091546
H	-1.3373769761	-3.2323683237	-0.0985732847	 0.12111
H	 1.9560943958	-1.8231462867	 1.7081197837	 0.100759
50.4631	149.1795	171.3088	237.5845	285.9514	302.1101	542.8806	603.8553	718.5006	752.1942	764.9199	776.2744	801.7875	899.884	956.4421	973.0918	1008.8884	1043.9085	1065.719	1077.6252	1098.0429	1107.5202	1126.8845	1156.5521	1180.1786	1215.5531	1225.8203	1287.5475	1302.757	1329.5048	1373.8531	1408.2238	1424.1118	1427.6203	1486.3973	1499.1669	1507.4874	1536.8065	2953.2017	3031.8239	3033.7167	3087.2985	3094.314	3104.4243	3111.5833	3120.1318	3156.4614	3166.9503
CCC1C2OCOC12	CC[C@H]1[C@H]2OCO[C@@H]12	
InChI=1S/C6H10O2/c1-2-4-5-6(4)8-3-7-5/h4-6H,2-3H2,1H3	InChI=1S/C6H10O2/c1-2-4-5-6(4)8-3-7-5/h4-6H,2-3H2,1H3/t4-,5+,6-
