18
gdb 109969	2.15241	1.46031	1.04247	3.5972	71.82	-0.2713	-0.0074	0.2639	1183.4232	0.14658	-439.073243	-439.063916	-439.062972	-439.107944	33.498	
C	-0.7125961115	 1.3861482503	-0.0550420019	-0.408637
C	 0.0201137403	 0.0606449492	-0.0472582587	 0.13861
O	 1.2947198501	 0.127307528	-0.7536990136	-0.297844
C	 1.9747901709	-0.5542638534	 0.3091900732	 0.001642
C	 3.1828031207	 0.1409809299	 0.7668400367	 0.277363
N	 4.1161800303	 0.6807149862	 1.1851323394	-0.332863
C	 0.7258715936	-0.4665253663	 1.2346174854	-0.101212
C	 0.836219381	 0.4643054347	 2.4411659613	-0.094333
O	 1.6525132739	-0.0999636857	 3.4520003755	-0.425779
H	-0.112046925	 2.1880697431	 0.380262602	 0.132819
H	-0.9517278581	 1.6630022836	-1.086325056	 0.137411
H	-1.6536113085	 1.3060460497	 0.4993037629	 0.126487
H	-0.6107431899	-0.7120150902	-0.5069681737	 0.088052
H	 2.2525506777	-1.5780761027	 0.0274117466	 0.126526
H	 0.3819299814	-1.4434153129	 1.5784710793	 0.100652
H	 1.2029671914	 1.4539189454	 2.1397079339	 0.113923
H	-0.1592573216	 0.6035257716	 2.8770453727	 0.116028
H	 2.5700747934	 0.1027488896	 3.2392976152	 0.301154
38.9911	113.9824	161.2719	177.2358	209.9355	233.7915	283.497	363.0414	368.2202	426.1075	467.5334	557.8433	587.8138	762.5125	810.0367	850.771	895.549	968.3902	996.5476	1033.4823	1048.6483	1076.5015	1096.2024	1147.8754	1158.7966	1191.4357	1250.3717	1260.4192	1315.0325	1348.3293	1351.4483	1395.3094	1411.0069	1414.131	1419.7226	1481.8917	1495.2923	1502.6505	2346.6381	3009.9409	3019.1298	3024.7162	3043.7169	3070.6353	3102.8293	3111.5736	3130.792	3809.3899
CC1OC(C#N)C1CO	C[C@H]1O[C@@H](C#N)[C@H]1CO	
InChI=1S/C6H9NO2/c1-4-5(3-8)6(2-7)9-4/h4-6,8H,3H2,1H3	InChI=1S/C6H9NO2/c1-4-5(3-8)6(2-7)9-4/h4-6,8H,3H2,1H3/t4-,5+,6+/m1/s1
