17
gdb 39805	3.01841	1.69201	1.63593	2.1666	71.54	-0.2417	0.0128	0.2545	905.2273	0.139106	-417.964869	-417.958204	-417.957259	-417.995672	27.145	
C	-0.002465261	 1.4557002582	-0.011859281	-0.335833
N	 1.2616632636	 0.6808657217	 0.0470457341	-0.383172
C	-0.003860352	-0.0165918324	 0.0074194859	 0.416288
C	-0.553691763	-0.9724182352	 1.0667340857	 0.026277
C	-1.6659490846	-1.3077823629	 0.0384350288	-0.247804
C	-0.5857109073	-0.9796014811	-1.0403758396	-0.110293
N	 0.3284275207	-2.1293859608	-1.1637386398	-0.267574
C	 0.7062359125	-2.5811720915	-0.0390918558	 0.123768
O	 0.3432487058	-2.1031631186	 1.1751250135	-0.235134
H	-0.2283721001	 2.0243715244	 0.8867032731	 0.122605
H	-0.2695409739	 1.9524460271	-0.9418881671	 0.117824
H	 1.709812167	 0.653002179	-0.8665526027	 0.239828
H	-0.7764509897	-0.6503636951	 2.0822734915	 0.094786
H	-2.0670180546	-2.3222418735	 0.0457398248	 0.114788
H	-2.4673110164	-0.5677320057	 0.0664183799	 0.115062
H	-0.881946487	-0.6152738575	-2.0242413632	 0.076457
H	 1.3810711	-3.4281826363	 0.0520087022	 0.132129
151.0099	234.8264	255.8761	367.2105	406.334	509.2328	521.0516	549.0802	683.2558	777.461	839.0655	852.2553	861.163	912.1739	929.9985	945.6069	955.0028	968.7993	981.2628	1020.7097	1054.1598	1118.8537	1129.9023	1144.4241	1149.1444	1154.4532	1224.6753	1235.199	1256.8946	1289.335	1305.9616	1336.1417	1381.8108	1438.7639	1477.9364	1521.4411	1694.0349	3079.1926	3100.2745	3107.1784	3136.8342	3146.1937	3180.3046	3184.5221	3491.3986
C1NC11C2CC1N=CO2	C1N[C@]21[C@H]1C[C@@H]2[N][CH]O1	
InChI=1S/C6H8N2O/c1-4-6(2-8-6)5(1)9-3-7-4/h3-5,8H,1-2H2	InChI=1S/C6H8N2O/c1-4-6(2-8-6)5(1)9-3-7-4/h3-5,8H,1-2H2/t4-,5+,6-/m0/s1
