21
gdb 36608	4.98104	0.75105	0.71832	0.7238	89.46	-0.2446	0.0598	0.3043	1625.4114	0.181733	-349.897018	-349.887846	-349.886902	-349.931476	34.91	
C	 0.0082372855	-1.2598720027	-0.0742739402	-0.440255
C	-0.00406764	-0.0583438262	-0.114186345	 0.297285
C	 0.0191369809	 1.3981826578	-0.1539306433	-0.353088
C	 1.4120121509	 1.9910902835	 0.1670830693	-0.321526
C	 1.4113889358	 3.4936278507	 0.1412845589	 0.414168
C	 1.5569852303	 4.2919697661	-1.1285458669	-0.319057
C	 2.5694098943	 4.4833960854	-0.0308624955	-0.126361
C	 1.9905865998	 5.3912022063	 1.0594464161	-0.218229
C	 0.7991584576	 4.3922814553	 1.2317143983	-0.288767
H	 0.0050019914	-2.3209413397	-0.0425259622	 0.191442
H	-0.2995993533	 1.7465833881	-1.1443877586	 0.132441
H	-0.7166765874	 1.7945240396	 0.5578136004	 0.132121
H	 1.7302850343	 1.628122767	 1.1520681487	 0.106853
H	 2.1372757683	 1.6040874549	-0.5577724365	 0.107898
H	 1.9079818077	 3.7306150425	-1.9895306303	 0.107955
H	 0.8554261316	 5.0876130324	-1.3732992349	 0.100546
H	 3.6217614692	 4.2767862168	-0.1895044535	 0.083953
H	 2.6148160604	 5.4454168745	 1.9540017919	 0.10311
H	 1.7396524376	 6.4111093189	 0.7490576107	 0.095279
H	-0.2060627524	 4.7792738543	 1.0332672862	 0.092722
H	 0.7991791676	 3.9191195644	 2.2174819162	 0.101512
58.8954	85.7962	97.3004	189.1551	242.9315	320.5178	359.968	367.3345	428.7948	491.3564	615.2039	634.591	676.0225	730.9631	766.8577	786.8148	840.2623	884.7269	930.1642	951.3035	967.9333	976.0254	983.5297	1011.6065	1037.6482	1040.9012	1084.8228	1109.1451	1147.4109	1171.7521	1222.3003	1241.1443	1253.6958	1264.1674	1293.5886	1298.6274	1331.5635	1369.7603	1406.1736	1471.3579	1481.1288	1485.9965	1489.7071	1512.3965	2237.5877	3018.99	3030.2027	3037.805	3047.1128	3048.2604	3075.442	3087.9828	3096.2858	3109.4245	3172.7056	3190.239	3508.0649
C#CCCC12CC1CC2	C#CCC[C@]12C[C@H]1CC2	
InChI=1S/C9H12/c1-2-3-5-9-6-4-8(9)7-9/h1,8H,3-7H2	InChI=1S/C9H12/c1-2-3-5-9-6-4-8(9)7-9/h1,8H,3-7H2/t8-,9+/m1/s1
