22
gdb 113833	2.18302	1.29738	1.02927	2.4604	82.89	-0.2134	0.0674	0.2808	1282.3121	0.193875	-404.289118	-404.279521	-404.278576	-404.323735	36.234	
C	 3.125409343	-1.1515025541	 1.2609274337	-0.321377
N	 1.8538870802	-1.1770697619	 0.5462784019	-0.092469
C	 0.7657466596	-1.8907054672	 1.2041576307	-0.264881
C	 0.7383451135	-0.3979722876	 1.1034897157	-0.028936
C	 0.9247363625	 0.5404798558	 2.2666045581	-0.016495
C	-0.2634420911	 1.2509200105	 2.870572799	-0.329801
C	 0.5374289305	 0.2930329813	 3.7141310679	 0.015901
C	-0.1047399458	-0.9741962281	 4.2051531108	-0.114103
O	 0.9212749217	-1.9219127635	 4.4949089385	-0.408299
H	 3.0278903073	-1.1566718157	 2.3564718585	 0.124015
H	 3.7057172938	-2.0317004374	 0.9659011277	 0.11723
H	 3.6929656605	-0.2629116335	 0.9636351803	 0.114105
H	 0.1310190212	-2.4894052437	 0.5542628099	 0.100887
H	 0.9704792492	-2.3187051712	 2.1821613295	 0.132893
H	 0.1158913143	 0.0262920222	 0.3155125799	 0.088265
H	 1.8060366931	 1.1696509662	 2.1599325374	 0.093371
H	-0.1987163403	 2.3146315597	 3.0702992187	 0.111752
H	-1.2473147932	 0.9196806466	 2.5498817283	 0.111952
H	 1.2074175272	 0.7366620489	 4.4459798981	 0.089986
H	-0.6889101834	-0.7535320182	 5.1119267589	 0.09433
H	-0.8030917482	-1.3629846721	 3.4497033636	 0.094277
H	 0.5149132843	-2.684759387	 4.9178462528	 0.287396
40.7365	139.6501	165.5975	206.3585	211.5789	255.0451	280.7837	305.1663	346.0456	398.2562	457.9359	507.2495	611.2097	725.0933	781.7393	795.7362	851.1286	886.0928	941.1793	976.9834	1015.9855	1047.9582	1052.7736	1058.9654	1074.0054	1092.2926	1138.4706	1139.7608	1146.444	1168.1698	1179.6689	1189.3524	1220.2808	1237.236	1255.3474	1288.9122	1333.3507	1369.3124	1399.1441	1417.0595	1450.6293	1470.1541	1493.3362	1497.1759	1505.7732	1512.0119	1517.182	2979.9631	2994.1458	3013.1357	3068.9456	3091.8852	3094.1178	3095.9715	3121.0887	3123.7751	3144.0555	3188.4254	3209.1419	3822.2619
CN1CC1C1CC1CO	CN1C[C@H]1[C@H]1C[C@H]1CO	
InChI=1S/C7H13NO/c1-8-3-7(8)6-2-5(6)4-9/h5-7,9H,2-4H2,1H3	InChI=1S/C7H13NO/c1-8-3-7(8)6-2-5(6)4-9/h5-7,9H,2-4H2,1H3/t5-,6-,7-,8?/m0/s1
