27
gdb 123252	9.09889	0.37478	0.36649	0.8884	95.57	-0.2472	0.0899	0.3371	3115.6818	0.249818	-390.701215	-390.688975	-390.68803	-390.740388	42.333	
C	-0.0020219618	 1.5800356126	 0.0459947979	-0.378867
C	 0.0191394203	 0.0491896504	 0.0279078786	-0.16461
C	 0.7390947358	-0.5514942452	 1.2392837138	-0.177739
C	 0.7601676871	-2.0736538354	 1.2212333601	-0.049463
O	 1.4397012969	-2.5344572817	 2.3686448958	-0.249031
C	 1.5157388621	-3.9410498766	 2.4484866121	-0.049463
C	 2.2649459739	-4.3226271286	 3.7176702166	-0.177739
C	 2.4009389789	-5.8378638746	 3.8969787504	-0.16461
C	 3.1546449275	-6.2216540319	 5.1732610185	-0.378867
H	 1.0142952353	 1.9891935252	 0.0487730294	 0.114982
H	-0.5214002985	 1.9829753282	-0.8290480439	 0.110499
H	-0.5111309648	 1.9575827114	 0.9396299067	 0.114983
H	-1.0107564783	-0.3300964608	-0.0098508812	 0.095339
H	 0.5034668928	-0.2987166816	-0.8942415804	 0.095338
H	 1.7733434917	-0.1879451568	 1.2805614924	 0.102335
H	 0.2561138796	-0.2194893923	 2.1666698123	 0.10234
H	-0.2702321558	-2.4714520623	 1.2000542205	 0.079688
H	 1.2599997616	-2.4396829587	 0.3065745937	 0.079689
H	 0.5020908882	-4.3802509344	 2.4545266189	 0.079687
H	 2.0322216707	-4.3482518475	 1.5608821515	 0.07969
H	 3.2576356146	-3.8563495156	 3.6913032901	 0.102333
H	 1.7404233021	-3.8876582251	 4.5774494035	 0.102342
H	 1.4025441375	-6.2950146259	 3.9107143576	 0.095341
H	 2.9165699989	-6.2638423241	 3.025979117	 0.095336
H	 3.2375144793	-7.308001324	 5.2771675934	 0.110499
H	 4.1691266215	-5.8079606701	 5.1725249385	 0.114982
H	 2.6439602928	-5.8390564745	 6.0638452762	 0.114983
38.6002	60.0468	65.4192	100.081	116.1335	152.4201	158.0572	164.1647	249.7954	250.2942	258.3391	294.0827	396.2717	487.2776	510.9011	744.8778	745.0189	811.6533	818.0681	903.0915	910.6033	949.6955	957.7928	1017.148	1018.73	1042.9007	1068.1693	1076.6139	1129.4591	1161.2704	1163.5977	1185.1144	1206.0329	1248.7174	1258.1007	1287.7008	1298.9507	1309.8674	1312.3073	1323.4844	1324.0374	1381.42	1389.2301	1407.765	1414.7917	1415.8895	1457.156	1487.5573	1488.1861	1495.2245	1496.8338	1500.6416	1500.6467	1508.1527	1511.2416	1520.1522	1538.6769	2932.4975	2945.958	2961.0786	2962.791	3012.565	3012.7479	3027.7871	3028.1043	3031.9482	3032.3549	3038.1772	3038.2148	3071.9642	3072.2657	3097.8048	3097.9128	3102.2583	3102.3329
CCCCOCCCC	CCCCOCCCC	
InChI=1S/C8H18O/c1-3-5-7-9-8-6-4-2/h3-8H2,1-2H3	InChI=1S/C8H18O/c1-3-5-7-9-8-6-4-2/h3-8H2,1-2H3
