22
gdb 87204	3.87809	0.87728	0.83688	2.1169	83.24	-0.2312	0.0776	0.3088	1473.5906	0.192494	-404.295903	-404.286048	-404.285104	-404.330716	36.999	
C	-0.0372931922	 1.6728446963	 0.1559971995	-0.446182
C	-0.1022337435	 0.1617288888	 0.0502113263	 0.325771
C	-1.4565249978	-0.3920230927	-0.3569426051	-0.218686
N	-1.8782806062	 0.1106469968	-1.6616121541	-0.054738
C	-1.5490594407	-0.7060856424	-2.8234596428	-0.213473
C	-2.9495479862	-0.6206911887	-2.3238766609	-0.220835
C	 1.1434498899	-0.5791170016	-0.4156296545	-0.363619
C	 0.6956740165	-0.6627714964	 1.0237582935	 0.060883
O	 1.4033756914	 0.0177186601	 2.0203713622	-0.422334
H	 0.9431468093	 2.0007509658	 0.5050699763	 0.120002
H	-0.2495714962	 2.1297560602	-0.8139614786	 0.127483
H	-0.7836604871	 2.0418640484	 0.8691981769	 0.111432
H	-1.4336886832	-1.497780932	-0.3336173506	 0.069095
H	-2.2108402115	-0.0717940943	 0.3740523732	 0.104365
H	-1.2426498494	-0.166266789	-3.7148683798	 0.115611
H	-1.0232901636	-1.645254063	-2.6575106944	 0.105343
H	-3.3509905158	-1.502562303	-1.8255608102	 0.105721
H	-3.6888229215	-0.0156062998	-2.8412699647	 0.115639
H	 1.0401768413	-1.4578481496	-1.0436508944	 0.103389
H	 2.0224254386	 0.0233956222	-0.6204066417	 0.110305
H	 0.2540181791	-1.6048735055	 1.3528455999	 0.077806
H	 2.2498414989	-0.4258317304	 2.1359720742	 0.287021
64.598	90.5164	132.5298	173.5329	228.4353	253.0863	284.8466	312.2393	356.956	379.2566	418.3678	471.7754	580.2383	719.1534	768.0488	820.6035	839.7659	892.7596	906.898	930.6727	975.641	991.3561	1017.873	1035.1462	1039.0915	1070.9939	1109.8037	1113.5541	1117.6519	1122.8455	1167.0912	1174.1517	1192.3277	1264.8924	1276.1927	1308.5397	1323.804	1354.5063	1388.9909	1415.9261	1425.7172	1480.211	1484.5833	1489.8416	1496.3719	1508.1635	1522.4082	2920.6662	3031.3708	3037.7543	3079.9463	3088.8632	3094.982	3102.96	3125.8267	3139.5301	3172.4662	3187.0775	3213.5292	3808.0727
CC1(CN2CC2)CC1O	C[C@@]1(CN2CC2)C[C@H]1O	
InChI=1S/C7H13NO/c1-7(4-6(7)9)5-8-2-3-8/h6,9H,2-5H2,1H3	InChI=1S/C7H13NO/c1-7(4-6(7)9)5-8-2-3-8/h6,9H,2-5H2,1H3/t6-,7+/m1/s1
