20
gdb 88006	2.79646	1.33291	1.11004	2.3257	79.78	-0.2388	0.059	0.2978	1184.9054	0.170161	-403.094183	-403.085417	-403.084473	-403.127794	33.332	
C	 0.0180658847	 1.4337829929	-0.2861614483	-0.393214
C	 0.108379461	-0.0511443424	-0.0318410181	-0.081712
N	 1.4646833332	-0.6209504627	 0.0964778444	-0.378099
C	 0.5747650124	-0.6067988357	 1.2583092249	 0.28273
C	 0.9451335942	 0.0385958867	 2.6036423202	-0.317624
C	 0.6530208043	-1.3286569265	 3.3096364004	-0.327828
C	 0.1301642979	-1.8690526051	 1.9724694438	 0.390423
C	-0.9705043432	-2.7891208922	 1.680727669	-0.269087
O	 0.3994813578	-3.1662073941	 1.4631871623	-0.275108
H	 0.7845253499	 1.9674940846	 0.2816713792	 0.127846
H	 0.1687188634	 1.6568906646	-1.3477276721	 0.122349
H	-0.9644871249	 1.8211872694	 0.0050300594	 0.113772
H	-0.6265832774	-0.6525887654	-0.5678252685	 0.079171
H	 1.4893138367	-1.5699960515	-0.2751740061	 0.23808
H	 1.9759961458	 0.3904744817	 2.6676375409	 0.118196
H	 0.2716519473	 0.8432888024	 2.9095715453	 0.106614
H	 1.555613829	-1.8496683009	 3.6375495527	 0.123795
H	-0.0644529917	-1.3076202753	 4.1328318824	 0.10802
H	-1.4705116859	-3.308678674	 2.4975753869	 0.117379
H	-1.5682518645	-2.6608704163	 0.7792370913	 0.114296
58.7414	137.6065	155.2017	181.5415	249.2873	284.9273	343.9831	422.8965	468.5611	510.6422	567.4585	620.178	753.4942	791.7201	844.3317	863.3129	883.0181	914.0898	943.1304	952.2346	1014.7239	1042.9043	1073.7583	1101.3991	1107.4238	1120.3744	1137.5028	1161.9878	1163.6749	1214.1477	1225.7339	1246.6218	1254.6335	1281.723	1352.4602	1411.5569	1422.3554	1466.1288	1470.8536	1486.9498	1493.112	1505.5674	1538.0261	3033.8165	3065.5745	3070.7061	3078.7522	3096.1245	3096.2604	3115.9999	3124.0448	3132.2189	3165.3151	3473.0493
CC1NC11CCC11CO1	C[C@H]1N[C@]21CC[C@]12CO1	
InChI=1S/C7H11NO/c1-5-7(8-5)3-2-6(7)4-9-6/h5,8H,2-4H2,1H3	InChI=1S/C7H11NO/c1-5-7(8-5)3-2-6(7)4-9-6/h5,8H,2-4H2,1H3/t5-,6-,7+/m1/s1
