18
gdb 90967	2.67707	1.78162	1.45782	2.9339	71.01	-0.2481	0.0579	0.306	950.0071	0.149179	-439.022543	-439.015184	-439.01424	-439.053994	30.019	
O	 0.0690433547	 1.4243980719	-0.0004946228	-0.447388
C	 0.0376155723	 0.007973001	 0.0038824009	 0.121324
C	 0.5659070327	-0.6556876793	 1.3087020484	-0.278267
C	-0.7293100747	-1.2746106989	 1.8043679634	-0.047894
N	-1.3823563449	-1.9669900813	 0.5870402309	-0.161999
C	-2.7446436439	-1.6549253869	 1.21626649	-0.234585
C	-1.947662146	-0.366161598	 1.4627193907	 0.320301
O	-2.3112083779	 0.8677209951	 2.0001223801	-0.476482
C	-1.3927715031	-0.5221532868	 0.0349331378	-0.040346
H	-0.5298139968	 1.7290505338	 0.6934834545	 0.289844
H	 0.5919609155	-0.3084255443	-0.882532844	 0.092637
H	 1.3294639574	-1.415836638	 1.1214403854	 0.113773
H	 0.9796902202	 0.0919607799	 1.9910052063	 0.106285
H	-0.7300791685	-1.873000827	 2.7177617309	 0.070447
H	-3.5642793625	-1.6279726279	 0.4938891988	 0.108101
H	-2.9838168814	-2.2967309038	 2.0693966752	 0.097693
H	-2.4826562304	 0.7665431932	 2.9433231578	 0.285721
H	-2.0359368128	-0.3565127828	-0.8298584443	 0.080835
116.6978	201.6786	279.859	319.2759	391.5883	416.4489	458.8671	474.0835	491.2282	633.6164	697.8362	767.6109	779.5294	833.1966	859.227	904.8949	908.3536	968.8247	992.9668	1024.5126	1043.9745	1055.482	1077.314	1092.441	1122.4505	1130.5744	1166.422	1199.1292	1239.6163	1250.4908	1263.6258	1290.9905	1309.0617	1321.4362	1330.1751	1395.417	1448.3636	1477.1283	1528.9838	3051.2563	3060.1174	3088.4158	3098.7147	3110.6689	3118.1755	3122.6276	3769.1927	3799.325
OC1CC2N3CC2(O)C13	O[C@H]1C[C@@H]2N3C[C@]2(O)[C@@H]13	
InChI=1S/C6H9NO2/c8-3-1-4-6(9)2-7(4)5(3)6/h3-5,8-9H,1-2H2	InChI=1S/C6H9NO2/c8-3-1-4-6(9)2-7(4)5(3)6/h3-5,8-9H,1-2H2/t3-,4-,5+,6+/m0/s1
