20
gdb 86003	2.14878	1.33722	1.16855	2.2595	76.56	-0.2277	-0.0337	0.194	1199.6945	0.167631	-440.269635	-440.259635	-440.258691	-440.304479	36.41	
C	-0.1476881525	 1.4381015758	 0.0075488355	-0.401664
C	 0.0563234652	-0.0595793305	 0.1192315852	 0.010598
N	 1.0723006609	-0.6620195013	-0.7751734704	-0.103642
C	 0.6397974037	-1.2019719028	-2.0468372569	-0.32919
C	 1.4749439927	-1.6068414265	 0.2830981789	-0.225341
C	 0.8614074702	-0.641072034	 1.3362545523	 0.281927
O	 1.7740272345	 0.2426482145	 1.9424112298	-0.491677
C	 0.0462385315	-1.2621568063	 2.4458223196	 0.129593
O	-0.8236708017	-2.074510583	 2.2595213441	-0.260746
H	 0.7851411	 1.9825578073	 0.1762842939	 0.110948
H	-0.5161261772	 1.6981048525	-0.9903092702	 0.122255
H	-0.8854548571	 1.7840052886	 0.7385937849	 0.124826
H	-0.9070920448	-0.5921579317	 0.0576641146	 0.081509
H	 0.2760523061	-0.3942566547	-2.6903417552	 0.122677
H	 1.485312675	-1.6770594012	-2.5554950145	 0.122604
H	-0.1664013634	-1.9518251906	-1.9442839997	 0.101526
H	 0.9296897914	-2.5626817864	 0.2558871276	 0.110018
H	 2.5514040246	-1.792755052	 0.3676462751	 0.103976
H	 2.3431225335	 0.5980246323	 1.2510428599	 0.293121
H	 0.3171396276	-0.9009926	 3.4611745254	 0.096683
68.7577	82.029	175.0655	195.3164	215.5475	225.7892	257.2487	282.3676	316.9787	365.9952	373.8374	470.7558	533.9346	571.6543	677.4977	744.6253	793.3594	862.3792	952.2308	975.1266	1018.7494	1062.7682	1076.1665	1105.7458	1118.8867	1139.9709	1189.0942	1206.2214	1221.7346	1244.989	1289.5359	1313.9992	1368.1717	1388.4317	1405.1311	1425.7531	1452.5206	1482.9444	1487.9357	1488.8209	1498.9955	1510.9365	1829.9628	2910.1399	2939.6831	2970.7209	2990.109	3039.1695	3060.2744	3063.6227	3099.6108	3105.8305	3119.4793	3815.0832
CC1N(C)CC1(O)C=O	C[C@H]1N(C)C[C@]1(O)C=O	
InChI=1S/C6H11NO2/c1-5-6(9,4-8)3-7(5)2/h4-5,9H,3H2,1-2H3	InChI=1S/C6H11NO2/c1-5-6(9,4-8)3-7(5)2/h4-5,9H,3H2,1-2H3/t5-,6+/m1/s1
