21
gdb 83021	1.98714	1.6973	1.42176	1.732	83.84	-0.2168	0.019	0.2358	1092.5022	0.18194	-387.096808	-387.087748	-387.086803	-387.129765	35.434	
C	 0.0243554722	 1.4543678429	 0.0231407394	-0.503251
C	 0.022290801	-0.0439707498	 0.0005169125	 0.260926
C	 0.0878282054	-0.8323589943	-1.0823577759	-0.207981
C	 0.0436413412	-2.3054780899	-0.7391859974	-0.279622
C	 0.0384481823	-2.3175802589	 0.7884443358	-0.147633
C	 1.2303326359	-1.7009902591	 1.4736050484	 0.090887
O	 2.4426080718	-1.4726113549	 0.8254147833	-0.430219
C	-0.01644033	-0.8546116297	 1.2660726264	 0.198132
C	-0.8329739875	-0.3835507308	 2.4471787901	-0.493308
H	 0.8720361541	 1.8427711386	 0.6013229362	 0.132259
H	 0.0792345905	 1.869224688	-0.9867277584	 0.123729
H	-0.8822280723	 1.8454810669	 0.5004758756	 0.131142
H	 0.1720114763	-0.4719972204	-2.1027154951	 0.088549
H	-0.8486396558	-2.790286113	-1.1553426957	 0.108481
H	 0.9093756125	-2.8474144398	-1.1443395471	 0.115685
H	-0.5145031211	-3.0928530552	 1.3081590162	 0.080067
H	 1.4183597405	-2.016905388	 2.4956226332	 0.098464
H	 2.2502167057	-0.9650690491	 0.0253978664	 0.280187
H	-0.471262883	 0.5771442043	 2.8315667418	 0.119387
H	-1.8905400967	-0.2619470343	 2.1835959096	 0.116585
H	-0.7792748833	-1.1045181435	 3.2688770349	 0.117531
129.0069	178.9881	203.8888	210.8479	240.7162	246.7907	267.26	349.6158	389.2614	447.0268	541.3751	585.0725	624.3671	662.0214	728.8935	793.9639	822.2448	839.1506	912.1997	944.228	957.1038	1016.1616	1023.9311	1055.1977	1062.4234	1074.4418	1120.8219	1133.9413	1162.9406	1186.8178	1228.0164	1249.783	1309.9995	1325.7226	1347.9677	1379.8484	1410.689	1417.2195	1455.2387	1477.9904	1479.509	1485.6807	1493.987	1501.6922	1694.1397	3013.1703	3019.7631	3022.793	3039.7126	3070.2448	3079.0217	3097.8966	3113.4518	3152.2636	3164.826	3182.5937	3738.6604
CC1=CCC2C(O)C12C	CC1=CC[C@H]2[C@@H](O)[C@@]12C	
InChI=1S/C8H12O/c1-5-3-4-6-7(9)8(5,6)2/h3,6-7,9H,4H2,1-2H3	InChI=1S/C8H12O/c1-5-3-4-6-7(9)8(5,6)2/h3,6-7,9H,4H2,1-2H3/t6-,7+,8-/m0/s1
