20
gdb 94039	4.92605	0.80996	0.7313	4.2166	79.68	-0.2526	0.0304	0.283	1543.0878	0.171277	-403.179206	-403.169909	-403.168965	-403.214507	33.415	
C	 0.1869542314	 1.5904796129	 0.1102245941	-0.398639
C	 0.1664576825	 0.0722293138	 0.0456559224	 0.152813
C	 0.7772655246	-0.5488873297	-1.2153870236	-0.257733
C	 1.1839975402	-1.9421793642	-0.7156251175	-0.007243
C	 2.2659418948	-2.6229377745	-1.570182008	-0.370167
C	 2.6403036959	-3.9434952905	-1.0642518973	 0.263654
N	 2.9214111327	-4.9850617831	-0.6501191663	-0.306116
C	 1.6175023002	-1.6406155165	 0.733865862	-0.069577
O	 0.9425417725	-0.4516940754	 1.1292181463	-0.275223
H	 1.2086185454	 1.9658828386	-0.0044411382	 0.119248
H	-0.436503232	 2.0178975098	-0.681631162	 0.114206
H	-0.1984755011	 1.9351762155	 1.0735771831	 0.130639
H	-0.8742053263	-0.2792669601	 0.1503048011	 0.069577
H	 0.0810933993	-0.5763542903	-2.0577381655	 0.108159
H	 1.663252668	 0.0227143219	-1.5212625838	 0.101504
H	 0.2994395598	-2.5885547711	-0.6991878799	 0.101099
H	 1.9174363026	-2.736827007	-2.6029429821	 0.154368
H	 3.1650161393	-1.9956888866	-1.6053760777	 0.152351
H	 1.3685083547	-2.457804896	 1.4202168282	 0.11906
H	 2.7041118654	-1.4756170776	 0.7926248246	 0.098019
41.9984	64.5527	88.2226	156.1544	228.0342	264.1747	352.4081	394.0203	398.8156	445.4607	485.0584	605.0921	662.576	835.0689	852.659	904.7418	907.941	918.5924	948.0403	996.4607	1045.1926	1070.0391	1098.7957	1135.2845	1146.35	1155.5107	1204.0218	1218.9523	1266.3079	1274.3268	1323.7669	1345.2579	1364.6609	1371.1882	1396.7456	1408.4484	1415.4107	1464.5334	1483.9777	1488.1766	1498.9869	1530.7706	2361.7615	2952.0577	2989.5813	3026.9079	3035.8832	3039.5704	3044.735	3059.9595	3080.3021	3101.3698	3112.9636	3120.1535
CC1CC(CC#N)CO1	C[C@H]1C[C@@H](CC#N)CO1	
InChI=1S/C7H11NO/c1-6-4-7(2-3-8)5-9-6/h6-7H,2,4-5H2,1H3	InChI=1S/C7H11NO/c1-6-4-7(2-3-8)5-9-6/h6-7H,2,4-5H2,1H3/t6-,7+/m0/s1
