23
gdb 110861	2.17616	1.27704	1.08319	1.6443	86.47	-0.2264	0.0828	0.3092	1315.8355	0.204071	-388.261378	-388.251398	-388.250454	-388.295882	37.541	
C	-0.0296628233	 1.7201297315	-0.4669420994	-0.380405
C	 0.0950127633	 0.222145381	-0.160739098	-0.214585
C	-1.2561170841	-0.4677532134	-0.1693946218	-0.060334
C	-1.8215273248	-1.1819054338	-1.3589341569	 0.037242
O	-0.7948343088	-1.8865867805	-2.0671548944	-0.309969
C	-0.632575133	-2.7992039395	-0.9401189382	 0.119672
C	 0.802309173	-3.1008091269	-0.5545364776	-0.419856
C	-1.5801346347	-1.9578335737	-0.0759919028	 0.19773
C	-2.5187025946	-2.5342363328	 0.9449493732	-0.497877
H	 0.9511598434	 2.2056303065	-0.4699917912	 0.110034
H	-0.4871326708	 1.8824663405	-1.4485100951	 0.121125
H	-0.6512955304	 2.2300997563	 0.2778307097	 0.109795
H	 0.7385128987	-0.2448434156	-0.9106368712	 0.118775
H	 0.5819397918	 0.086123979	 0.8134364747	 0.091079
H	-2.0296771566	 0.0943580613	 0.3566459071	 0.078446
H	-2.7222561151	-0.9244569113	-1.9064070086	 0.09492
H	-1.1400897759	-3.7416425281	-1.1970259433	 0.075746
H	 1.3357716194	-3.533290671	-1.4075744377	 0.126626
H	 1.3428534919	-2.2140653772	-0.2216617895	 0.126112
H	 0.8160550749	-3.8383145752	 0.2557745534	 0.116635
H	-1.9995943461	-2.7637644006	 1.8837499588	 0.121083
H	-3.3251933662	-1.8333964573	 1.1832945098	 0.120483
H	-2.9792502419	-3.461630309	 0.5845433292	 0.117522
78.1317	149.3574	167.7122	184.2435	197.8302	203.8834	245.1834	262.9188	288.5678	376.6541	412.1045	556.7324	580.5163	644.0007	733.5128	754.1873	830.6667	858.3525	899.7536	905.3723	941.2639	992.8078	1010.1595	1028.8212	1068.6167	1078.0926	1102.9169	1118.6053	1141.8284	1142.8166	1168.4703	1248.6869	1258.5137	1290.2503	1307.151	1330.3298	1370.4357	1395.4603	1407.4322	1410.8421	1418.3029	1474.9885	1484.1045	1488.1729	1494.9043	1497.2983	1499.451	1499.8615	1506.0697	2981.3658	3018.3563	3024.2865	3029.755	3040.6869	3074.857	3083.0868	3093.6554	3097.7561	3100.34	3104.8371	3109.2819	3147.3684	3164.8174
CCC1C2OC(C)C12C	CC[C@H]1[C@H]2O[C@@H](C)[C@@]12C	
InChI=1S/C8H14O/c1-4-6-7-8(6,3)5(2)9-7/h5-7H,4H2,1-3H3	InChI=1S/C8H14O/c1-4-6-7-8(6,3)5(2)9-7/h5-7H,4H2,1-3H3/t5-,6-,7+,8-/m0/s1
