21
gdb 72495	2.535	1.79236	1.47788	1.5679	76.62	-0.2455	0.0808	0.3263	1005.6128	0.185071	-424.25817	-424.250494	-424.24955	-424.289716	31.502	
C	-0.0661907059	 1.4985857035	 0.0376347294	-0.461927
C	 0.0577703899	-0.0127784947	-0.0252464741	 0.344926
C	 0.6342444588	-0.5481343215	-1.3551698805	-0.114113
O	-0.0459406983	-1.7853195034	-1.5619355802	-0.280051
C	-1.0205871967	-1.9004769962	-0.5242635087	 0.197711
C	-0.4787971251	-2.749241696	 0.6296215805	-0.216372
C	 0.8520554369	-2.1488393417	 1.1163904771	-0.221666
C	 0.7791851377	-0.6109972424	 1.199322587	-0.226762
O	-1.263699943	-0.5858906394	-0.0763438558	-0.280659
H	 0.9211317852	 1.9674954421	-0.0229988384	 0.11839
H	-0.6790699788	 1.8650254414	-0.7903349704	 0.126849
H	-0.5335594554	 1.8089106194	 0.9765257351	 0.126079
H	 0.4165445993	 0.1358999548	-2.185206782	 0.096968
H	 1.716139484	-0.7184487281	-1.3121511925	 0.101069
H	-1.9460052729	-2.2997839195	-0.9508146187	 0.082408
H	-1.2320589876	-2.7493621951	 1.4262129235	 0.101674
H	-0.3414369469	-3.784827986	 0.3022603688	 0.101607
H	 1.1325282241	-2.5666580816	 2.0883649624	 0.095282
H	 1.6416586869	-2.438793138	 0.4147721113	 0.11312
H	 1.7849320894	-0.184697363	 1.2929980946	 0.092988
H	 0.2146718687	-0.3057683346	 2.0882591318	 0.102477
169.3842	208.1314	249.698	268.1714	304.2136	382.5851	391.1314	464.3925	502.5493	596.2974	624.6969	752.8843	808.5494	841.7632	865.4784	873.7804	900.4107	937.5306	950.2884	959.2053	1000.0997	1033.4583	1062.6339	1063.0609	1120.1839	1142.2465	1171.8164	1201.2687	1225.4689	1252.3998	1265.0564	1288.0499	1331.4541	1355.2636	1366.7484	1372.4571	1394.7714	1399.8165	1412.7304	1470.8569	1476.9044	1486.7115	1497.3474	1498.2398	1524.8137	3014.5856	3028.663	3037.3205	3042.3181	3043.8215	3059.1813	3067.2942	3069.9806	3080.9356	3092.2832	3113.9559	3121.5644
CC12COC(CCC1)O2	C[C@@]12CO[C@@H](CCC1)O2	
InChI=1S/C7H12O2/c1-7-4-2-3-6(9-7)8-5-7/h6H,2-5H2,1H3	InChI=1S/C7H12O2/c1-7-4-2-3-6(9-7)8-5-7/h6H,2-5H2,1H3/t6-,7+/m1/s1
