12
gdb 12312	3.0736	2.46244	1.46665	5.8405	51.62	-0.2799	-0.0689	0.211	786.6615	0.084514	-455.663971	-455.657446	-455.656502	-455.695114	23.323	
O	-0.064087306	 0.1913451296	 0.6950674597	-0.279868
C	-0.0464587572	 1.2305336644	 0.1104088964	 0.307485
O	-1.1786312911	 1.7728298826	-0.3932644703	-0.218582
C	-1.0661667993	 3.021746771	-1.0902877685	-0.096643
C	-0.107017262	 3.9302709514	-0.3619841533	-0.09664
O	 1.1998212111	 3.3388380048	-0.3361927888	-0.218582
C	 1.2827837521	 2.0087868762	-0.1045268112	 0.307486
O	 2.3363539256	 1.4517977445	-0.0620772098	-0.279871
H	-0.7281624427	 2.8426571505	-2.1180132149	 0.140835
H	-2.0725841128	 3.4447125442	-1.1181798323	 0.146771
H	 0.0037780945	 4.8873311875	-0.8760987925	 0.14677
H	-0.4493058021	 4.1159492532	 0.6631508756	 0.140837
89.3242	133.0866	319.0469	351.3218	403.2508	464.5525	500.3314	588.7119	667.8	715.5622	819.0082	921.6836	973.342	1033.7641	1115.1014	1127.2775	1141.7171	1242.8125	1258.4816	1322.709	1403.2167	1425.0542	1502.0007	1503.9506	1866.3617	1875.9424	3040.6716	3048.837	3120.1234	3122.2321
O=C1OCCOC1=O	O=C1OCCOC1=O	
InChI=1S/C4H4O4/c5-3-4(6)8-2-1-7-3/h1-2H2	InChI=1S/C4H4O4/c5-3-4(6)8-2-1-7-3/h1-2H2
