16
gdb 23540	2.26006	1.62705	1.06574	2.1283	73.38	-0.2435	-0.0262	0.2174	1103.4271	0.122645	-437.815634	-437.807344	-437.8064	-437.848864	30.636	
O	 0.0429088446	 1.2121713326	 0.0726219679	-0.400187
N	 0.1307010861	-0.1964602091	 0.0276195763	-0.258146
C	-1.0221802783	-0.7146040106	 0.0839595698	 0.422238
C	-1.4717458877	-2.1248695932	-0.0109025266	-0.148171
C	-2.4659898745	-2.4193675792	 1.0970035094	-0.276229
C	-2.9384895136	-1.6225051314	-0.0720765535	-0.053393
C	-2.462181202	-0.1644513924	 0.0367285935	-0.20038
C	-2.9516128396	 0.7095470152	 1.1699021642	 0.140838
O	-3.7847799089	 0.3764122334	 1.9739293045	-0.244348
H	 0.9673833374	 1.4762435697	 0.0163146569	 0.310285
H	-0.9788613774	-2.9076845065	-0.5713886965	 0.111589
H	-2.802662556	-3.4508184752	 1.1195588926	 0.125012
H	-2.3620789181	-1.9620415198	 2.0744124736	 0.137708
H	-3.7202585079	-1.9627627102	-0.7371097895	 0.107914
H	-2.5660587815	 0.4026752454	-0.8978054849	 0.12463
H	-2.4675842327	 1.7082521013	 1.2093083522	 0.10064
80.8469	108.8089	162.6987	206.1313	261.7624	309.9882	377.7527	414.0787	514.1878	584.1711	675.7312	709.0619	748.0916	801.2044	860.2189	905.6807	940.373	973.8641	982.3818	1008.5292	1039.3633	1055.7826	1074.7001	1087.8428	1154.1431	1176.424	1191.3464	1291.8857	1321.3484	1338.1713	1409.992	1415.2551	1497.0177	1781.121	1822.9686	2914.7277	3036.1172	3136.4686	3206.3627	3212.5419	3224.2706	3821.7087
ON=C1C2CC2C1C=O	ON=C1[C@H]2C[C@H]2[C@H]1C=O	
InChI=1S/C6H7NO2/c8-2-5-3-1-4(3)6(5)7-9/h2-5,9H,1H2	InChI=1S/C6H7NO2/c8-2-5-3-1-4(3)6(5)7-9/h2-5,9H,1H2/t3-,4+,5-/m1/s1
