22
gdb 109564	2.27701	1.33801	0.91799	3.6022	84.5	-0.2366	0.0396	0.2762	1356.5617	0.193026	-404.387076	-404.376653	-404.375709	-404.422622	37.199	
C	-0.0743585081	 1.6613685001	-0.0932420862	-0.387459
C	 0.0419569611	 0.1427104754	 0.0864228068	-0.193965
C	 0.6760568503	-0.520770905	-1.1345555074	-0.161921
C	 0.7560366829	-2.0869946727	-1.2385534162	 0.019624
C	 0.1986695558	-2.9385199902	-0.1058478189	-0.404075
N	-0.1024037455	-1.9754770068	-2.4276543516	-0.075925
C	-0.5628574536	-2.942813962	-3.3890353382	-0.349831
C	-0.2027193051	-0.6080855318	-2.4036395823	 0.420258
O	-0.7788329473	 0.1702677119	-3.1243773068	-0.391438
H	 0.9144254162	 2.1225173906	-0.1941877795	 0.111922
H	-0.6459681657	 1.8981218911	-0.9947430364	 0.152946
H	-0.5717100254	 2.1215487665	 0.7658330494	 0.108441
H	 0.6386931681	-0.0861193158	 0.9786363496	 0.095851
H	-0.954585291	-0.2786378242	 0.2628153176	 0.102532
H	 1.6410604731	-0.0513955111	-1.3547418078	 0.093716
H	 1.7664898454	-2.4345636633	-1.495286228	 0.076345
H	-0.8160671991	-2.6348245893	 0.1651533607	 0.12504
H	 0.1706917162	-3.9949214961	-0.3935054237	 0.119038
H	 0.833901748	-2.8566023594	 0.7819665357	 0.125126
H	-1.2057271527	-3.7017323306	-2.9276727919	 0.127619
H	-1.1418998564	-2.4059135031	-4.1444543813	 0.16149
H	 0.274802853	-3.4523765843	-3.8828099236	 0.124666
75.4879	103.6911	114.6621	147.6681	153.7902	207.8535	237.6244	245.5236	265.0294	338.7592	366.2198	464.7877	549.579	654.4814	731.9522	740.4034	821.9626	829.8168	896.0401	964.9679	1016.0722	1031.0818	1068.2304	1071.6401	1103.6353	1138.1441	1152.6178	1181.2466	1202.2543	1255.2958	1282.8586	1300.8295	1334.4398	1377.9603	1389.0797	1409.4457	1414.3657	1419.0062	1449.1322	1482.9891	1485.7203	1494.3211	1498.7918	1502.4564	1512.4669	1518.756	1860.6768	3000.7935	3011.6174	3022.0126	3035.6984	3038.3657	3049.9447	3063.3897	3065.8875	3101.3752	3102.07	3122.3057	3124.4043	3127.0687
CCC1C(C)N(C)C1=O	CC[C@H]1[C@@H](C)N(C)C1=O	
InChI=1S/C7H13NO/c1-4-6-5(2)8(3)7(6)9/h5-6H,4H2,1-3H3	InChI=1S/C7H13NO/c1-4-6-5(2)8(3)7(6)9/h5-6H,4H2,1-3H3/t5-,6+/m1/s1
