15
gdb 27832	2.02311	1.88196	0.97558	3.7009	74.98	-0.1899	0.	0.1899	1129.8586	0.115655	-450.192282	-450.184605	-450.183661	-450.224145	30.436	
N	 0.040259725	 1.3592848525	 0.161411908	-0.567152
C	-0.0260212487	-0.0103068306	 0.0627596992	 0.379331
C	-1.2015890101	-0.7086820126	 0.0395446851	-0.228692
C	-1.2084623117	-2.1442531626	-0.0013070676	 0.374977
N	-2.2670930153	-2.8688357171	-0.0216983279	-0.572085
N	 0.1109985828	-2.6820269989	-0.0192847522	-0.411348
C	 1.2124620984	-1.9031364815	-0.0058268782	 0.51182
O	 2.3606884767	-2.5955887283	-0.0390523863	-0.407407
N	 1.2215975567	-0.6126206304	 0.0329641474	-0.450045
H	 0.9158067469	 1.7623747134	-0.1330221214	 0.255439
H	-0.7809367545	 1.8795643651	-0.1016112042	 0.256889
H	-2.1615628482	-0.2112690859	 0.0600092554	 0.093581
H	-2.0453980787	-3.8642254407	-0.052061346	 0.189149
H	 0.232551597	-3.6835395284	-0.0496100484	 0.2618
H	 3.0686537437	-1.9369656942	-0.0170260128	 0.313742
155.6297	183.7616	213.8439	330.304	351.8451	419.0388	476.1399	510.8021	523.6087	547.4893	568.0216	575.1026	646.4569	675.658	699.7	758.6704	778.8853	824.8181	957.5912	989.5774	1055.6814	1130.9205	1141.1809	1219.764	1281.7627	1326.6597	1341.7471	1461.7378	1547.7111	1612.5318	1652.9681	1678.2189	1738.0643	3223.3279	3466.9454	3591.1407	3621.4647	3707.9428	3780.1441
NC1=CC(=N)NC(O)=N1	N[C@@H]1C=C([NH])NC(=N1)O	
InChI=1S/C4H6N4O/c5-2-1-3(6)8-4(9)7-2/h1H,(H5,5,6,7,8,9)	InChI=1S/C4H7N4O/c5-2-1-3(6)8-4(9)7-2/h1-2,6H,5H2,(H2,7,8,9)/t2-/m0/s1
