14
gdb 48264	1.7412	1.39186	0.87719	2.2613	68.05	-0.2965	-0.0211	0.2754	1267.7957	0.100178	-432.901427	-432.892416	-432.891472	-432.93678	30.221	
O	-0.2740142581	-0.1325576687	 0.1160227547	-0.310749
C	-0.2034750532	 1.0693970782	 0.0389823537	 0.1729
N	 0.9735499744	 1.7799264176	-0.0264730198	-0.047057
C	 0.9858588036	 3.2276069288	-0.0955389282	-0.321977
C	 1.4948845374	 3.8469613952	 1.1402666065	 0.274266
N	 1.9117538094	 4.3091209248	 2.1130188319	-0.286177
C	 2.2376131015	 1.0603366898	 0.0286630856	-0.309871
C	 3.0348696445	 1.2638851388	-1.1875687674	 0.26981
N	 3.6535545769	 1.4614092167	-2.1427112083	-0.295061
H	-1.0860962346	 1.7346846604	 0.0084412798	 0.101631
H	 1.6010883197	 3.5665969835	-0.9381958543	 0.188951
H	-0.0342910039	 3.5793489193	-0.2775850313	 0.176809
H	 2.826999001	 1.3748903649	 0.8986006302	 0.181437
H	 1.9880711213	 0.0017256306	 0.1434095971	 0.205087
44.6178	55.9407	96.2091	156.7286	263.394	288.5037	337.4922	354.467	377.4014	380.8984	499.2311	605.5198	714.4235	861.7483	921.8807	947.9777	973.0499	1002.2241	1029.862	1200.2319	1230.722	1294.311	1367.5538	1385.5487	1423.1003	1437.4501	1463.8456	1465.0539	1810.4895	2365.2736	2365.4311	2967.0962	3039.6141	3042.5552	3094.1689	3108.9809
O=CN(CC#N)CC#N	O=CN(CC#N)CC#N	
InChI=1S/C5H5N3O/c6-1-3-8(5-9)4-2-7/h5H,3-4H2	InChI=1S/C5H5N3O/c6-1-3-8(5-9)4-2-7/h5H,3-4H2
