15
gdb 130385	5.60663	0.85266	0.74357	15.8611	72.82	-0.2162	-0.0684	0.1478	1423.5109	0.113242	-446.256136	-446.248026	-446.247081	-446.289919	28.51	
N	 0.1879377574	 1.3265397719	-0.1914397408	-0.48505
C	 0.0796994313	 0.0068162213	-0.022347195	 0.209546
N	 1.0723934	-0.8078836876	-0.0237161773	-0.21496
H	 2.1237330605	-0.5808926831	-0.1553214096	 0.296341
C	 1.0266327654	-2.2760609662	 0.1565393223	-0.289003
C	 2.4767527293	-2.6463218879	 0.0573412508	 0.384412
N	 3.3476097249	-1.6503048117	-0.1481844525	-0.326926
N	 4.5479055609	-2.2539343398	-0.194524656	-0.165379
N	 4.3747696388	-3.5423780266	-0.0229736105	-0.148424
N	 3.0593795862	-3.8286917089	 0.1414859754	-0.336489
H	 1.0851959919	 1.764813298	-0.3327757628	 0.305821
H	-0.6283094393	 1.9120878457	-0.1788015868	 0.300555
H	-0.9282385141	-0.3771169729	 0.1239986823	 0.172373
H	 0.5855629583	-2.52230513	 1.1291205776	 0.148588
H	 0.4116915285	-2.732440972	-0.6274716072	 0.148595
39.0005	132.0389	143.1218	208.5092	260.8782	308.4857	335.9066	398.8722	600.1891	602.4213	715.1613	740.7582	758.672	961.1189	974.646	1022.9999	1026.746	1066.0428	1090.0696	1099.3505	1123.9185	1167.1565	1197.7784	1232.9871	1289.5533	1325.1828	1348.2435	1431.9816	1456.833	1500.9398	1535.9633	1653.9647	1786.5333	2563.2986	3030.9787	3068.4896	3167.4455	3604.598	3736.6072
NC=[NH+]CC1=N[N-]N=N1	[NH2]=CNCc1nnnn1	
InChI=1S/C3H5N6/c4-2-5-1-3-6-8-9-7-3/h2H,1H2,(H2-,4,5,6,7,8,9)/q-1/p+1	InChI=1S/C3H7N6/c4-2-5-1-3-6-8-9-7-3/h2,5H,1,4H2,(H,6,7,8,9)
