23
gdb 86211	2.39751	1.28654	0.98954	1.7437	87.17	-0.2421	0.0159	0.258	1307.0057	0.206321	-388.312327	-388.302895	-388.301951	-388.345941	37.055	
C	-0.0219901058	 1.5614539557	-0.0789074282	-0.415362
C	 0.0633710365	 0.0327231034	-0.0285045367	 0.013411
C	 0.6752163941	-0.5547374804	-1.3100751541	-0.223087
C	 0.5290789277	-2.0803759139	-1.3464653438	 0.089536
O	 1.2781315562	-2.6707801386	-2.4086896868	-0.439024
C	 0.8887724243	-2.6933667203	-0.0166420328	-0.102391
C	 1.0153136071	-1.9974107534	 1.1127229936	-0.065838
C	 0.8006604839	-0.5063280721	 1.2254646401	-0.023256
C	 2.1377582455	 0.1975141133	 1.5383159879	-0.392211
H	 0.9585191535	 2.0184718668	-0.2480568072	 0.116985
H	-0.6782968848	 1.8828385326	-0.8942703493	 0.112242
H	-0.425024932	 1.970119116	 0.8545646746	 0.109221
H	-0.9653158089	-0.3502107245	 0.0391504261	 0.075643
H	 0.2093866561	-0.1200110675	-2.2007440033	 0.097009
H	 1.7440669709	-0.3038761191	-1.3625997589	 0.084634
H	-0.5118566188	-2.3347801775	-1.5909291558	 0.094557
H	 2.2111152666	-2.5437132887	-2.2025410206	 0.272893
H	 1.0512851324	-3.7688614864	-0.0290663095	 0.089802
H	 1.3028669946	-2.5107903859	 2.0290142929	 0.085514
H	 0.1458413019	-0.3298819811	 2.0916987965	 0.074875
H	 2.8304362715	 0.13953425	 0.6924414732	 0.115529
H	 1.9901482585	 1.2518651723	 1.788111514	 0.116433
H	 2.6279014489	-0.2796463707	 2.3932526881	 0.112885
82.3264	157.11	212.965	229.2636	259.6463	274.5602	300.8954	316.197	376.427	414.3675	442.5978	458.5937	557.9332	595.9888	697.3594	769.834	779.6799	875.2702	900.0977	937.0598	968.3531	1003.6134	1013.1656	1026.6909	1050.1418	1076.3598	1102.1204	1112.1768	1124.7191	1180.9857	1190.2384	1236.5971	1261.1556	1308.3336	1321.5679	1341.3366	1361.4264	1369.331	1393.1734	1396.7543	1406.9227	1413.3358	1427.0619	1484.12	1494.443	1496.8622	1502.0731	1512.0095	1717.0854	2983.6503	2998.7645	3004.3036	3016.8435	3028.6951	3035.6053	3071.6608	3094.527	3098.5233	3101.998	3111.7916	3131.3837	3161.0957	3795.2703
CC1CC(O)C=CC1C	C[C@H]1C[C@@H](O)C=C[C@H]1C	
InChI=1S/C8H14O/c1-6-3-4-8(9)5-7(6)2/h3-4,6-9H,5H2,1-2H3	InChI=1S/C8H14O/c1-6-3-4-8(9)5-7(6)2/h3-4,6-9H,5H2,1-2H3/t6-,7+,8+/m1/s1
