16
gdb 12864	2.95545	2.39665	1.73676	1.0093	59.45	-0.2527	0.0587	0.3114	785.0191	0.131343	-420.848851	-420.841982	-420.841038	-420.879828	26.324	
O	 0.1442641599	 1.3838795134	-0.1466363834	-0.475113
C	 0.063631044	-0.0061633652	-0.0211840068	 0.34268
C	 0.2493519001	-0.7852522747	-1.3291345908	-0.118143
O	-0.8817744312	-1.6282022094	-1.0105276422	-0.294505
C	-1.3079022644	-0.7327971486	 0.0467838669	 0.040896
C	-1.380644855	-1.3651926711	 1.4402361547	-0.103631
O	-0.2720356975	-0.8240723678	 2.1638439756	-0.25504
C	 0.7651424499	-0.5969010932	 1.2186983563	-0.162921
H	-0.0118748542	 1.7759702486	 0.7199466707	 0.287677
H	 0.0624829773	-0.1642517502	-2.2133128511	 0.112055
H	 1.1729908799	-1.3585049504	-1.4624513135	 0.107144
H	-2.1885376779	-0.1510578735	-0.2443143647	 0.085763
H	-2.2879085974	-1.1125507278	 1.9949694491	 0.111291
H	-1.3035284504	-2.4584871106	 1.3479896877	 0.108209
H	 1.2781483448	-1.5381443334	 0.9663271896	 0.100844
H	 1.4897669622	 0.0934497339	 1.6587934719	 0.112795
114.2467	176.8291	276.5481	325.3853	367.6193	388.3292	450.279	605.3115	675.9875	694.1989	828.5834	870.301	928.7511	941.0194	988.2268	1007.4581	1029.074	1060.5908	1077.5939	1094.8944	1148.8246	1170.1214	1187.698	1209.6944	1264.5589	1292.4226	1317.0735	1340.9261	1349.657	1393.6391	1410.8784	1494.5523	1507.2485	1519.5132	2981.9771	3003.544	3026.5748	3056.9723	3080.7951	3094.8428	3098.9893	3801.36
OC12COC1COC2	O[C@]12CO[C@H]1COC2	
InChI=1S/C5H8O3/c6-5-2-7-1-4(5)8-3-5/h4,6H,1-3H2	InChI=1S/C5H8O3/c6-5-2-7-1-4(5)8-3-5/h4,6H,1-3H2/t4-,5+/m0/s1
