17
gdb 125765	2.20571	1.60463	0.96995	2.6546	72.15	-0.2102	0.0168	0.227	1186.3147	0.135995	-455.147022	-455.138054	-455.13711	-455.1806	33.139	
C	-0.1593819716	 1.5477371092	-0.1401918558	-0.499398
C	-0.0715238852	 0.0599479562	-0.0091161655	 0.320739
N	-0.0865635174	-0.6806220787	-1.0934429087	-0.234713
O	 0.0109739047	-2.0190900132	-0.627476644	-0.221749
C	 0.0701471054	-2.0020147607	 0.7048457803	 0.423802
N	 0.1254237706	-3.199170379	 1.3634426681	-0.595524
C	 0.0261796427	-0.7149138197	 1.1823190004	-0.03578
C	 0.0848305419	-0.3183910981	 2.6216258602	-0.205605
O	 1.0673370197	-1.0716034606	 3.3486166254	-0.416063
H	 0.6958317627	 2.0375506807	 0.3379963401	 0.130136
H	-0.1755481798	 1.8271154975	-1.1952587709	 0.151156
H	-1.0664151882	 1.933824764	 0.3366663505	 0.13652
H	 0.4723097988	-3.9767140427	 0.8211570971	 0.263995
H	 0.5239174654	-3.1164907377	 2.2897179983	 0.270849
H	 0.2666931997	 0.7616832035	 2.7153311655	 0.103311
H	-0.8551137195	-0.5299102933	 3.1451055054	 0.12505
H	 1.91739852	-0.9017196775	 2.9271181033	 0.283273
99.5858	129.1812	160.354	183.3343	224.7899	268.8785	368.6191	382.9146	390.8064	450.7994	501.227	590.3172	625.7858	656.8423	719.8883	769.647	787.425	899.3078	959.0716	1012.1193	1026.4609	1064.6613	1072.5854	1117.5972	1213.3525	1280.67	1363.0328	1379.9036	1409.583	1416.1758	1474.0524	1481.5175	1506.5221	1507.8614	1554.1635	1622.1827	1681.9112	3003.9522	3038.7291	3050.8259	3093.0481	3138.6223	3550.7969	3667.1333	3798.5774
CC1=NOC(N)=C1CO	Cc1noc(N)c1CO	
InChI=1S/C5H8N2O2/c1-3-4(2-8)5(6)9-7-3/h8H,2,6H2,1H3	InChI=1S/C5H8N2O2/c1-3-4(2-8)5(6)9-7-3/h8H,2,6H2,1H3
