16
gdb 44734	3.02688	1.75919	1.55704	2.6135	68.88	-0.2576	-0.0138	0.2438	894.9069	0.127105	-437.900171	-437.893651	-437.892707	-437.931106	26.504	
N	-0.0676631928	 1.2993824077	-0.2902973485	-0.510962
C	-0.0110027183	 0.0707141531	-0.0001712484	 0.387944
C	-1.291195862	-0.7546282091	 0.1074193517	-0.274882
C	-1.053698815	-2.0294787301	 0.936494591	 0.003027
O	 0.1163866738	-2.6361308713	 0.3586962365	-0.226497
C	 1.1450492705	-1.8419810464	 0.8657102219	 0.126812
O	 1.1900398767	-0.5789571798	 0.1541358216	-0.26564
C	 0.7336791866	-1.5772375779	 2.3063775146	-0.089147
C	-0.5917070074	-1.674969667	 2.3402391114	-0.08997
H	 0.8754827331	 1.6892078634	-0.3516262704	 0.219524
H	-2.0760841039	-0.1150165785	 0.5161235533	 0.134463
H	-1.5942374731	-1.0490256493	-0.9033376374	 0.140317
H	-1.8841222405	-2.7348963616	 0.8764706773	 0.096753
H	 2.1114642973	-2.3096071445	 0.6831927053	 0.10401
H	 1.4129835743	-1.2573817742	 3.0836062365	 0.122932
H	-1.2596916594	-1.4514214744	 3.1610218734	 0.121315
90.0919	247.3031	368.8699	417.32	448.536	454.2752	557.8111	642.4241	689.7218	736.5092	779.4743	839.6654	863.6888	879.0856	912.9988	922.581	944.5676	955.9656	969.9046	1003.7467	1016.6067	1058.6476	1122.9148	1149.9387	1192.0811	1265.6417	1281.5067	1299.5349	1336.5194	1355.152	1368.2442	1393.7348	1461.4316	1662.2519	1754.3381	3054.6932	3104.4001	3119.9654	3137.0331	3222.4296	3248.9184	3462.1421
N=C1CC2OC(O1)C=C2	[NH][C]1C[C@H]2O[C@@H](O1)C=C2	
InChI=1S/C6H7NO2/c7-5-3-4-1-2-6(8-4)9-5/h1-2,4,6-7H,3H2	InChI=1S/C6H7NO2/c7-5-3-4-1-2-6(8-4)9-5/h1-2,4,6-7H,3H2/t4-,6-/m0/s1
