15
gdb 19652	5.56955	1.78039	1.68058	2.6906	63.06	-0.2223	0.0576	0.2799	787.5945	0.11927	-362.528566	-362.522267	-362.521323	-362.55892	24.803	
O	-0.0389125767	 1.3889932505	 0.0264001971	-0.416396
C	 0.0513219402	-0.019111738	-0.0439424699	-0.2008
C	-1.3236244256	-0.6061212899	-0.1331063431	 0.343547
C	-1.9483209943	-2.0133613519	 0.0737733735	-0.193131
C	-3.2077788228	-1.5279168153	-0.6586492553	-0.106975
C	-3.0626305074	-1.337362404	 0.8278662923	-0.003508
N	-2.4377509228	 0.0464426211	 0.6566626916	-0.239577
C	-2.5449996552	-0.1395249867	-0.8402954436	-0.098645
H	-0.7369022005	 1.5736636181	 0.6710203857	 0.29707
H	 0.645905112	-0.2643811811	-0.9316089451	 0.113827
H	 0.5733040299	-0.4438330917	 0.8310447773	 0.092552
H	-1.5368084608	-3.0097609997	 0.1448505205	 0.101235
H	-3.9228767225	-2.0956163864	-1.2357888387	 0.101466
H	-3.6699366495	-1.6421162973	 1.6706692739	 0.104232
H	-2.7157963839	 0.6921595023	-1.5126840463	 0.105102
115.8548	180.3598	265.8629	413.3018	499.3758	646.9907	660.9394	742.4837	759.4873	788.5682	815.8532	841.0893	866.958	923.6883	941.8683	994.9865	1000.5841	1003.2927	1035.215	1038.2821	1058.6407	1078.7693	1125.0026	1184.1365	1213.3948	1239.9227	1252.7385	1340.9821	1371.3222	1409.0215	1455.1558	1509.0602	2955.4836	3056.2369	3190.0816	3191.6923	3217.8297	3229.7727	3739.236
OCC12C3C4C3N1C24	OC[C@@]12[C@@H]3[C@H]4[C@@H]3N1[C@@H]24	
InChI=1S/C6H7NO/c8-1-6-3-2-4(3)7(6)5(2)6/h2-5,8H,1H2	InChI=1S/C6H7NO/c8-1-6-3-2-4(3)7(6)5(2)6/h2-5,8H,1H2/t2-,3+,4-,5+,6-,7?/m0/s1
