17
gdb 49639	3.41923	1.38247	1.29677	3.5373	71.53	-0.2371	-0.0291	0.2081	1012.6484	0.136685	-421.777954	-421.770931	-421.769987	-421.809982	27.283	
O	 0.1987567959	-0.171437028	 0.2658451599	-0.257686
C	 0.0912182575	 1.0309766286	 0.2508335526	 0.142429
C	 1.2465539238	 1.9796073143	 0.0842851304	-0.08793
C	 1.3607229169	 2.8527913212	-1.2145773639	-0.084831
C	 0.0644050803	 3.6304331896	-1.5785390755	-0.250115
C	 0.3343311685	 4.5940649283	-0.4037198668	 0.111361
O	 0.0059722107	 3.9867012853	 0.8700070001	-0.303003
C	 1.2719903251	 3.2949732732	 0.9168547003	 0.074038
C	 1.7990669232	 4.073929002	-0.3161534183	-0.097026
H	-0.8991718419	 1.5196541941	 0.3649092067	 0.091363
H	 2.1814593708	 1.428348286	 0.2250956555	 0.095407
H	 1.9491510834	 2.4306289607	-2.0274556156	 0.085745
H	 0.205251834	 4.1530564811	-2.5307087666	 0.110808
H	-0.8951081367	 3.1081594264	-1.5968238756	 0.111801
H	 0.000815945	 5.6316478879	-0.4572331823	 0.084398
H	 1.6956667603	 3.2767518572	 1.9224255935	 0.08958
H	 2.7163461132	 4.6505644922	-0.3905871744	 0.083661
57.5086	142.2315	225.2706	384.0851	394.3198	421.1889	520.0052	680.5835	724.3543	777.3676	827.7362	842.6051	845.1614	867.6316	941.4052	946.5835	981.5625	995.2826	1018.4044	1046.6095	1080.9903	1111.2388	1132.1553	1142.4697	1159.7987	1185.9895	1188.417	1222.3757	1269.0866	1279.3415	1283.5653	1301.8112	1319.7476	1346.1424	1425.2271	1474.2402	1814.9307	2912.5343	3049.817	3070.5903	3094.8122	3098.642	3110.3815	3122.5363	3161.0102
O=CC1C2CC3OC1C23	O=C[C@H]1[C@H]2C[C@H]3O[C@@H]1[C@@H]23	
InChI=1S/C7H8O2/c8-2-4-3-1-5-6(3)7(4)9-5/h2-7H,1H2	InChI=1S/C7H8O2/c8-2-4-3-1-5-6(3)7(4)9-5/h2-7H,1H2/t3-,4+,5-,6+,7+/m1/s1
