15
gdb 34947	3.72235	1.55792	1.35018	0.4407	69.47	-0.2422	0.0401	0.2823	934.0728	0.112881	-420.527287	-420.520736	-420.519792	-420.55818	26.621	
C	-0.0180434829	-1.1946302934	-0.027950435	-0.442207
C	 0.0069739006	 0.0052440636	 0.0348854694	 0.3215
C	 0.0401769617	 1.452766072	 0.0650817483	-0.185068
C	-0.3150231779	 2.0899306156	 1.4376541589	 0.019273
O	 0.6636733097	 1.479314444	 2.3185001485	-0.275353
C	 1.6228377761	 2.2926370569	 1.6496729305	 0.063663
C	 0.6122189219	 3.3919042546	 1.3215242763	 0.043759
O	 1.0578032156	 3.5345852735	-0.0263009486	-0.281711
C	 1.4399401338	 2.134630923	 0.066543984	 0.014047
H	-0.0413470948	-2.2553006419	-0.07067534	 0.195104
H	-0.5437396536	 1.8834659562	-0.7536690411	 0.11779
H	-1.3359571778	 2.0596809202	 1.8103167658	 0.098933
H	 2.6049325595	 2.3720638508	 2.1097531706	 0.105142
H	 0.387048309	 4.3075798584	 1.8637466479	 0.104253
H	 2.203032079	 1.8216257266	-0.6413265856	 0.100876
134.1108	147.7909	361.1763	442.5256	481.2426	518.5088	598.4883	632.9282	640.226	727.2794	758.4628	783.954	845.8029	849.0858	879.161	916.0907	946.4376	957.776	993.2591	1027.4362	1039.9307	1090.203	1119.1535	1137.6205	1160.7145	1195.1816	1220.4431	1234.4049	1273.0516	1302.1388	1332.9048	1349.2596	2241.0008	3074.1223	3147.2075	3155.8001	3161.459	3168.2469	3504.5897
C#CC1C2OC3C2OC13	C#C[C@H]1[C@H]2O[C@@H]3[C@H]2O[C@H]13	
InChI=1S/C7H6O2/c1-2-3-4-6-7(8-4)5(3)9-6/h1,3-7H	InChI=1S/C7H6O2/c1-2-3-4-6-7(8-4)5(3)9-6/h1,3-7H/t4-,5-,6+,7+/m1/s1
