15
gdb 19686	4.91002	1.85931	1.66876	3.9493	65.49	-0.2318	0.0182	0.25	785.8698	0.12017	-362.61579	-362.609658	-362.608714	-362.646129	23.905	
O	 0.2632102689	 0.0774119967	 0.7143607999	-0.32359
C	 0.2076060982	 1.2428960721	 0.3852263225	 0.1349
N	 1.1866698647	 1.9026487768	-0.3009859783	-0.046755
C	 1.5615578124	 3.3104941639	-0.2582684893	-0.0308
C	 2.8162000563	 3.4156232837	 0.6435977089	-0.090844
C	 3.13344117	 1.9860968321	 1.0909568723	-0.233443
C	 2.63019155	 1.5569149358	-0.3200289965	-0.031181
C	 2.920361075	 3.0301442236	-0.8193610571	-0.103133
H	-0.6854321743	 1.8823465755	 0.5464187899	 0.070195
H	 0.8752465694	 4.1242524697	-0.4482628614	 0.115479
H	 3.099698992	 4.3505760708	 1.1096493687	 0.096915
H	 4.2116468363	 1.8383037336	 1.1866867591	 0.111625
H	 2.6116527801	 1.5551856451	 1.9503328369	 0.118173
H	 2.9101588373	 0.6178907786	-0.7873320167	 0.106271
H	 3.4527485236	 3.436106832	-1.666173099	 0.106188
104.6623	194.2874	285.7904	442.821	546.6405	564.1059	744.1751	761.1539	786.3598	795.6345	816.9628	872.9683	902.9562	956.4553	1008.3868	1014.4535	1023.1967	1033.2089	1062.0887	1074.9696	1130.0662	1143.4147	1162.0247	1180.8408	1224.2088	1264.6281	1289.5224	1340.8526	1387.8369	1428.3613	1496.1087	1790.8906	2916.854	3058.9097	3120.2497	3173.4403	3199.8509	3214.554	3234.5921
O=CN1C2C3CC1C23	O=CN1[C@H]2[C@H]3C[C@@H]1[C@@H]23	
InChI=1S/C6H7NO/c8-2-7-4-1-3-5(4)6(3)7/h2-6H,1H2	InChI=1S/C6H7NO/c8-2-7-4-1-3-5(4)6(3)7/h2-6H,1H2/t3-,4+,5-,6-/m0/s1
