20
gdb 76234	2.80772	1.48201	1.08708	2.7363	80.89	-0.2368	0.0254	0.2622	1155.6672	0.171526	-403.140856	-403.132296	-403.131352	-403.173766	33.471	
C	-0.0679249706	 1.4969541198	 0.0768134006	-0.493119
C	-0.0339675979	 0.0066745946	-0.0047543711	 0.306331
C	-0.0248495592	-0.7684642358	-1.0912460421	-0.181248
C	 0.0022945774	-2.2446918959	-0.7617298292	-0.349049
C	 0.3206039433	-2.2323112047	 0.7316713048	 0.287935
C	 0.3935742518	-3.4312372901	 1.5896586683	-0.29097
N	 1.6276496446	-2.704741158	 1.2232107648	-0.361383
C	-0.0485476188	-0.8345573887	 1.2657211373	-0.002093
O	 0.8138896384	-0.3897648148	 2.2878197958	-0.442931
H	 0.7466250118	 1.8559757859	 0.7149346909	 0.142389
H	 0.0182934873	 1.9628527863	-0.9084715061	 0.116158
H	-1.0000443244	 1.8449856818	 0.5411282887	 0.12492
H	-0.0632842624	-0.4058055478	-2.1133480426	 0.087184
H	-0.9669166029	-2.7230880341	-0.9636427518	 0.114023
H	 0.7483622803	-2.8062609029	-1.340127441	 0.098398
H	 0.1269974858	-3.3616757796	 2.6410161259	 0.126795
H	 0.2167103847	-4.4039937887	 1.1374084953	 0.113189
H	 2.1330351213	-3.1943801295	 0.4903238092	 0.233084
H	-1.0664995485	-0.8392776104	 1.6877568155	 0.080277
H	 1.6144339981	-0.9328746774	 2.1904061167	 0.290109
75.3944	168.2292	218.9427	236.8474	253.4292	292.1053	347.6173	411.9717	481.1828	508.9643	525.8959	615.5428	659.4381	764.4962	824.1379	864.7903	877.5719	900.3597	955.0849	967.522	975.173	1011.8393	1037.2939	1062.1431	1067.8917	1116.215	1139.0313	1170.9626	1201.7566	1250.2741	1254.1174	1286.3398	1304.7862	1319.2374	1351.3333	1399.8647	1410.2513	1451.0423	1473.967	1486.43	1490.0339	1507.8006	1723.2474	2971.3632	3000.0664	3021.3459	3027.5674	3077.8	3104.4249	3115.8202	3181.7604	3190.394	3511.5326	3648.5864
CC1=CCC2(CN2)C1O	CC1=CC[C@]2(CN2)[C@H]1O	
InChI=1S/C7H11NO/c1-5-2-3-7(4-8-7)6(5)9/h2,6,8-9H,3-4H2,1H3	InChI=1S/C7H11NO/c1-5-2-3-7(4-8-7)6(5)9/h2,6,8-9H,3-4H2,1H3/t6-,7-/m0/s1
