15
gdb 29518	3.22625	1.60564	1.09058	1.0792	67.48	-0.1825	0.0246	0.2071	1052.0123	0.113111	-457.750593	-457.743045	-457.742101	-457.782707	27.945	
C	 0.0071811039	 1.5469334819	-0.0113269379	-0.503291
C	-0.0028728064	 0.0528198645	 0.0431418314	 0.081029
C	 0.0146660806	-0.8116825543	-1.0244566342	-0.106189
O	 0.0028154847	-2.1489081904	-0.625453031	-0.198254
C	-0.0381957642	-2.0720594284	 0.7019377706	 0.354332
C	-0.0461867366	-0.8202884345	 1.1736572324	 0.139561
O	 0.1003633734	-0.8495495231	 2.5552611915	-0.287648
C	-0.1498797124	-2.2343684038	 2.8430884039	 0.00641
O	 0.1163494431	-3.0304152105	 1.650673428	-0.282677
H	 0.8817871091	 1.9585060592	 0.5042225368	 0.138487
H	 0.0302256993	 1.8995090171	-1.0456791523	 0.129033
H	-0.8802155481	 1.9699020236	 0.4719430938	 0.136696
H	-0.0382045617	-0.6568690561	-2.0880729442	 0.138426
H	 0.5113881265	-2.569541724	 3.6424489176	 0.139801
H	-1.2114000313	-2.3656563212	 3.1016267036	 0.114282
127.2462	146.3587	200.9266	229.442	238.5854	358.7953	504.8808	589.758	593.5142	626.3748	645.9849	669.4257	761.6617	789.3753	877.3362	1006.319	1039.2779	1063.6196	1067.4733	1102.47	1134.1478	1181.5247	1233.5578	1248.5269	1403.2053	1421.9586	1431.5841	1480.5116	1487.9768	1516.0045	1524.8742	1578.1287	1717.6058	2987.9539	3033.8448	3086.4024	3117.1056	3134.1001	3292.0202
CC1=COC2=C1OCO2	Cc1coc2c1OCO2	
InChI=1S/C6H6O3/c1-4-2-7-6-5(4)8-3-9-6/h2H,3H2,1H3	InChI=1S/C6H6O3/c1-4-2-7-6-5(4)8-3-9-6/h2H,3H2,1H3
