17
gdb 81507	3.64709	1.28225	1.06895	4.2941	73.91	-0.2592	0.0209	0.2801	1131.9089	0.135264	-417.941141	-417.932696	-417.931752	-417.973759	32.181	
C	-0.0725458297	 1.6067037825	-0.0108852146	-0.437395
C	-0.0334265796	 0.091309809	 0.0056777449	 0.017125
C	 1.2040291026	-0.6282973791	-0.6001573309	 0.016455
O	 2.0264049071	-0.1530605388	 0.5309208202	-0.29602
C	 0.7624295898	-0.620744088	 1.1351729514	 0.01646
C	 0.8793738363	-1.9048046991	 0.2466422414	 0.14575
N	-0.3148076065	-2.665674448	-0.0539595286	-0.57115
C	 2.0516529236	-2.7389207457	 0.5485983543	 0.239736
N	 2.8948888367	-3.4999752626	 0.766511497	-0.337953
H	 0.9041905015	 2.0271966756	 0.2359631405	 0.141264
H	-0.3714917678	 1.9720497149	-0.9989398969	 0.121639
H	-0.8068353323	 1.9795031587	 0.7108727212	 0.121639
H	-0.990096183	-0.3721394757	-0.2357481658	 0.107974
H	 1.6411694211	-0.5816104725	-1.5979510471	 0.108876
H	 0.6695597802	-0.5650001483	 2.2201288427	 0.108877
H	-0.1464611863	-3.2775832702	-0.8478160163	 0.24836
H	-0.5474479136	-3.2710470127	 0.7285887869	 0.248363
131.2164	150.6036	196.3414	222.0717	253.1071	292.0354	342.9653	352.6419	475.1186	507.7042	569.9542	666.4264	716.9943	763.7753	788.7468	805.8895	867.9669	902.0689	904.5188	1039.4517	1043.1182	1060.2744	1116.1567	1125.5411	1148.7855	1175.7237	1200.2701	1219.9743	1270.2107	1279.4354	1290.2355	1389.7217	1408.404	1493.3668	1505.6729	1659.9381	2344.1482	3040.3521	3098.3605	3114.6594	3119.1921	3125.2687	3139.4352	3491.2999	3564.977
CC1C2OC1C2(N)C#N	C[C@H]1[C@H]2O[C@@H]1[C@]2(N)C#N	
InChI=1S/C6H8N2O/c1-3-4-6(8,2-7)5(3)9-4/h3-5H,8H2,1H3	InChI=1S/C6H8N2O/c1-3-4-6(8,2-7)5(3)9-4/h3-5H,8H2,1H3/t3-,4+,5-,6-
