19
gdb 120206	3.83238	0.83882	0.76942	3.0534	72.24	-0.2401	0.0612	0.3013	1495.2366	0.157783	-460.074969	-460.065934	-460.06499	-460.109293	33.454	
O	-0.0807747165	 1.4779864447	-0.0061433247	-0.418673
C	 0.0007332338	 0.0684118931	 0.1386533665	-0.069367
C	-1.3768387881	-0.5122252125	-0.161845379	-0.221988
C	-1.3960148681	-2.0288695473	-0.0968766297	 0.011055
C	-1.4869039846	-2.7385207748	 1.2865606663	-0.013287
O	-2.8881806135	-2.2885224775	 1.4199766347	-0.310838
C	-2.7647488545	-2.757823283	 0.0198238225	-0.001512
C	-2.0582600727	-4.0109531471	 0.579803981	 0.12162
O	-1.2907148937	-4.766441433	-0.3127204955	-0.426563
H	 0.7821474423	 1.8516776444	 0.1943418702	 0.284379
H	 0.7465139636	-0.3599637045	-0.5519528952	 0.081336
H	 0.3082476318	-0.2095597504	 1.1602762314	 0.083445
H	-2.1038078956	-0.100627822	 0.5432193328	 0.124207
H	-1.6724724812	-0.1837276632	-1.1658917556	 0.103918
H	-0.6977472678	-2.4970006732	-0.7956783112	 0.090509
H	-0.8483954477	-2.6508227139	 2.1671439796	 0.087276
H	-3.6486539573	-2.6859399814	-0.6149707717	 0.094242
H	-2.6975815557	-4.6129334836	 1.2337449236	 0.087942
H	-0.8565614745	-5.4694941645	 0.1799546939	 0.2923
76.5047	85.0933	115.3032	231.8315	256.5674	263.6496	293.2237	345.2472	385.0476	441.916	598.5916	672.9222	753.8559	780.0213	840.1709	864.1743	897.4329	903.809	907.3161	1016.0592	1064.9159	1078.6206	1086.8276	1115.1313	1126.0927	1141.8018	1158.2891	1190.0893	1197.4844	1223.1986	1250.4457	1254.123	1264.9545	1298.2893	1313.2477	1332.6745	1410.814	1430.4586	1462.4919	1495.9236	1528.0928	2954.6894	2979.6753	3039.1516	3063.6257	3082.1344	3104.616	3107.4946	3117.1265	3826.7562	3830.6337
OCCC1C2OC1C2O	OCC[C@H]1[C@H]2O[C@@H]1[C@H]2O	
InChI=1S/C6H10O3/c7-2-1-3-5-4(8)6(3)9-5/h3-8H,1-2H2	InChI=1S/C6H10O3/c7-2-1-3-5-4(8)6(3)9-5/h3-8H,1-2H2/t3-,4-,5+,6-
