17
gdb 54706	3.93601	1.35886	1.14996	3.4512	72.63	-0.2221	0.0517	0.2737	1062.5881	0.137652	-417.97257	-417.965252	-417.964308	-418.004478	29.111	
N	-0.1241848147	 1.3251060806	-0.1346593966	-0.558497
C	-0.0527072595	-0.0588430606	-0.009173864	 0.404617
O	 0.943848195	-0.6975173448	-0.2919015958	-0.392986
N	-1.2090898079	-0.6352565093	 0.4850261644	-0.120032
C	-1.5072101231	-2.0321035544	 0.1585725073	 0.004479
C	-2.9497238466	-2.2716375215	 0.624824574	-0.104699
C	-3.4677047019	-0.92364597	 1.1315552503	-0.220519
C	-2.5937538964	-0.306791637	 0.008237102	-0.055972
C	-2.6535717408	-1.6981869172	-0.7512596269	-0.095059
H	 0.7877604236	 1.7448607019	-0.2383705199	 0.258602
H	-0.7244994604	 1.8103829234	 0.5155640736	 0.250383
H	-0.7386300256	-2.7863748452	 0.0906073758	 0.129527
H	-3.3067678809	-3.263854371	 0.8689804686	 0.096955
H	-4.5345418477	-0.8097548828	 0.9233859446	 0.106328
H	-3.2380993372	-0.6103869368	 2.1548074543	 0.100652
H	-2.7546222746	 0.6864989828	-0.4018400462	 0.09389
H	-2.9204211012	-2.0012854082	-1.7538499857	 0.102332
94.0585	122.121	194.5995	374.742	422.376	449.9268	521.9327	558.6478	624.2489	696.7122	756.5	773.9753	779.8936	786.244	809.3427	863.7446	910.9153	957.8494	1001.2981	1007.7257	1017.3093	1031.4166	1063.7351	1078.6727	1133.1175	1149.9596	1157.6173	1166.9148	1181.4248	1216.2369	1274.614	1314.2393	1366.8629	1421.2001	1490.8826	1620.0194	1788.8749	3049.2108	3112.0886	3161.7248	3199.0393	3214.2626	3251.8023	3570.376	3683.7454
NC(=O)N1C2C3CC1C23	NC(=O)N1[C@H]2[C@H]3C[C@@H]1[C@@H]23	
InChI=1S/C6H8N2O/c7-6(9)8-3-1-2-4(3)5(2)8/h2-5H,1H2,(H2,7,9)	InChI=1S/C6H8N2O/c7-6(9)8-3-1-2-4(3)5(2)8/h2-5H,1H2,(H2,7,9)/t2-,3+,4-,5-/m0/s1
