17
gdb 28771	3.16439	1.72335	1.12636	2.0005	85.91	-0.163	-0.0006	0.1624	1040.3132	0.139207	-380.913579	-380.906208	-380.905264	-380.945114	29.273	
N	 0.1788366451	 1.3747020725	 0.1313776048	-0.607858
C	 0.022031162	-0.0141290263	 0.0185232394	 0.268181
C	-1.1051710544	-0.8233875393	 0.0084337356	-0.213393
C	-0.672854878	-2.1830211908	-0.02060754	-0.303576
C	 0.7046949741	-2.163391748	-0.0405746758	 0.349368
C	 1.9076631308	-2.9622150302	-0.0407226656	-0.206963
C	 2.9870118228	-2.155637033	-0.0007463901	-0.116556
C	 2.5559395084	-0.7012007033	 0.0320061586	-0.245475
N	 1.1098542778	-0.8344409002	-0.012077326	-0.05008
H	 0.7489035675	 1.7680151758	-0.6117974013	 0.24226
H	-0.718732894	 1.8421437747	 0.1273467672	 0.249164
H	-2.1253987439	-0.4694553769	 0.0132158207	 0.079868
H	-1.3045816037	-3.057621934	-0.0325316427	 0.092086
H	 1.9199426271	-4.0432170381	-0.0659729068	 0.107182
H	 4.0256465552	-2.4529335233	 0.002076951	 0.102019
H	 2.8792700342	-0.1764462264	 0.9415575116	 0.134731
H	 2.941923329	-0.1326074734	-0.8264544304	 0.119043
143.8021	187.748	197.4278	262.5536	313.4848	453.1097	529.32	623.7917	633.2776	648.4676	677.7939	723.9334	729.859	780.0204	783.2947	811.9486	869.4157	934.3134	947.2092	995.4155	1034.8383	1048.2763	1095.7811	1146.8831	1180.0656	1220.1617	1255.4042	1285.0411	1335.9156	1355.2223	1378.7458	1484.5887	1513.6505	1565.133	1588.3698	1626.8234	1651.2539	2998.4302	3026.1977	3225.5011	3236.2506	3247.9968	3255.0605	3493.344	3609.4842
NC1=CC=C2C=CCN12	Nc1ccc2C=CCn12	
InChI=1S/C7H8N2/c8-7-4-3-6-2-1-5-9(6)7/h1-4H,5,8H2	InChI=1S/C7H8N2/c8-7-4-3-6-2-1-5-9(6)7/h1-4H,5,8H2
