23
gdb 100677	2.34272	1.15377	0.95572	3.4621	77.8	-0.2451	0.0495	0.2947	1363.7638	0.202459	-462.558907	-462.547592	-462.546648	-462.594828	42.176	
C	 0.0834654928	 1.4346309904	-0.3294692203	-0.401257
C	-0.0007676804	-0.0049313411	 0.1867439028	-0.15855
C	-1.3998981488	-0.6422430515	 0.083212883	 0.331735
C	-2.4377433188	 0.106292743	 0.9388026501	-0.441103
O	-1.7631324244	-0.5685592454	-1.2929326385	-0.477463
C	-1.2923822506	-2.1428951694	 0.4906920533	 0.073581
O	-0.6682479	-2.3403138629	 1.755100851	-0.427559
C	-2.6197687944	-2.9150571227	 0.5052644178	-0.121636
O	-3.274709542	-2.7879742713	-0.7559535171	-0.420229
H	 1.1250344618	 1.7702735891	-0.3479178933	 0.105495
H	-0.3173787056	 1.5042361252	-1.3434962119	 0.137543
H	-0.4705374223	 2.1348932106	 0.3039312291	 0.106642
H	 0.6811930938	-0.6326291238	-0.3991417593	 0.096921
H	 0.3403670348	-0.0641146356	 1.2244507581	 0.092455
H	-2.4742206864	 1.1583161761	 0.6497402524	 0.131572
H	-3.4393206422	-0.3079133429	 0.7892216194	 0.111643
H	-2.2039812899	 0.065272889	 2.0104011974	 0.0931
H	-2.5209093364	-1.1555960193	-1.4200983478	 0.287352
H	-0.6266782353	-2.6127306669	-0.2410234813	 0.104621
H	-1.2050156406	-1.9014713838	 2.4244212285	 0.282196
H	-2.3971960084	-3.9663902658	 0.7304796754	 0.109401
H	-3.2561352798	-2.5285966454	 1.3163274784	 0.085625
H	-4.1375887868	-3.2086044455	-0.7059194974	 0.297912
58.2153	85.8662	148.166	183.2239	219.7179	234.7313	246.9102	261.3975	296.7643	313.0971	338.063	353.3761	408.3324	426.4783	464.0592	524.5591	551.5074	583.6859	713.3721	783.8733	873.1264	922.407	991.7469	1006.4172	1020.0004	1052.1715	1069.0692	1070.9211	1093.2367	1146.3751	1188.881	1209.9354	1223.8384	1260.0208	1291.0877	1318.2591	1351.5619	1371.4886	1402.261	1406.1142	1410.5644	1428.6711	1454.9727	1475.0021	1491.3192	1496.9032	1507.2591	1512.7792	1522.3906	2983.5584	3024.8547	3032.7194	3037.307	3041.7823	3066.7136	3085.2238	3095.2172	3101.4146	3128.4852	3131.2073	3738.7387	3801.4072	3836.4345
CCC(C)(O)C(O)CO	CC[C@@](C)(O)[C@@H](O)CO	
InChI=1S/C6H14O3/c1-3-6(2,9)5(8)4-7/h5,7-9H,3-4H2,1-2H3	InChI=1S/C6H14O3/c1-3-6(2,9)5(8)4-7/h5,7-9H,3-4H2,1-2H3/t5-,6+/m0/s1
