12
gdb 131223	5.3966	1.29576	1.04488	5.7936	64.74	-0.2145	-0.0296	0.1849	1015.1479	0.07848	-468.785342	-468.778421	-468.777476	-468.816432	26.291	
O	 0.0807350343	 1.30360756	 0.2002699509	-0.41686
C	 0.068337906	-0.026657804	 0.0039038797	 0.436352
C	 0.0857125326	-0.7837157536	-1.1626601689	-0.488672
C	 0.0578300719	-2.1227212999	-0.6976766041	 0.410166
C	 0.0259745234	-2.1182443265	 0.6823947536	 0.302814
N	 0.0321469873	-0.8115494484	 1.1293268791	-0.428644
N	-0.0005941921	-3.38250198	 1.1362281223	-0.216968
N	 0.0115887699	-4.1898834684	 0.1646548529	-0.062925
O	 0.051242206	-3.3765721504	-1.1115754313	-0.26266
H	 0.1065096548	 1.7478467978	-0.6535441967	 0.319875
H	 0.1139022335	-0.4044010612	-2.1703933135	 0.12097
H	 0.0145496524	-0.4649371054	 2.072404606	 0.286552
158.8184	218.0701	296.1322	326.727	334.0127	408.7058	425.945	550.7952	570.7467	633.009	670.2945	712.446	759.5945	774.4475	854.3166	979.2316	1017.6735	1158.5346	1196.1253	1230.1304	1285.0225	1386.9716	1481.3486	1497.9055	1545.201	1571.2433	1607.1605	3267.5388	3690.4961	3840.176
OC1=CC2=C(N1)N=NO2	Oc1cc2c([nH]1)nno2	
InChI=1S/C4H3N3O2/c8-3-1-2-4(5-3)6-7-9-2/h1,5,8H	InChI=1S/C4H3N3O2/c8-3-1-2-4(5-3)6-7-9-2/h1,5,8H
