19
gdb 62605	3.40326	1.70744	1.50824	1.3282	76.97	-0.2348	0.0732	0.308	935.8255	0.159476	-385.814652	-385.80741	-385.806466	-385.845638	30.54	
C	-0.0527581792	 1.6050908997	 0.0043878802	-0.465317
C	 0.0224460701	 0.0880049296	 0.0064742996	 0.42883
O	-1.2675115279	-0.4953877126	-0.1507891405	-0.487211
C	 1.0788458163	-0.6435737615	-0.875453416	-0.1266
C	 2.4730651937	-0.2495033953	-0.3444729223	-0.081592
C	 2.6570718435	-1.5160797519	 0.4592204832	-0.118068
C	 2.1983584981	-0.2630521866	 1.1695094165	-0.082429
C	 0.7092209143	-0.6643430399	 1.1749897616	-0.086595
C	 1.1489173121	-1.8085129302	 0.1845875172	-0.046489
H	 0.9297673959	 2.053567666	 0.1747540733	 0.12245
H	-0.4260365242	 1.9750137084	-0.9593427935	 0.100708
H	-0.7378458037	 1.9534842629	 0.7838984468	 0.121811
H	-1.6072313533	-0.2291141428	-1.0118994221	 0.274015
H	 0.9322906333	-0.7942624777	-1.9458366672	 0.05315
H	 3.2222426482	 0.3897281454	-0.7925348257	 0.083511
H	 3.5264223193	-2.1410838565	 0.6110330562	 0.085777
H	 2.7405768275	 0.3650098663	 1.8638042569	 0.083961
H	 0.1928090822	-0.8340114661	 2.1185722138	 0.065449
H	 0.656142224	-2.7700684472	 0.0881258321	 0.074639
195.5608	219.1219	229.9633	292.1333	363.6348	376.9201	531.2283	564.1932	611.3812	736.1685	763.043	797.227	803.1537	825.2175	863.0996	865.6158	894.748	916.6627	922.2824	949.4155	983.9637	991.1998	1012.8622	1035.5055	1061.3694	1065.7136	1114.1962	1151.112	1162.3564	1165.8187	1185.4874	1195.0768	1204.8502	1256.2137	1261.6174	1287.4304	1349.0059	1380.9308	1402.2627	1488.119	1492.894	3021.9147	3087.4042	3103.6315	3117.9893	3128.0724	3172.3478	3193.5616	3195.9963	3212.1687	3799.9765
CC1(O)C2C3C4C3C1C24	C[C@@]1(O)[C@H]2[C@@H]3[C@H]4[C@@H]3[C@@H]1[C@@H]24	
InChI=1S/C8H10O/c1-8(9)6-3-2-4(3)7(8)5(2)6/h2-7,9H,1H3	InChI=1S/C8H10O/c1-8(9)6-3-2-4(3)7(8)5(2)6/h2-7,9H,1H3/t2-,3+,4-,5+,6-,7+,8+
