15
gdb 46223	2.8456	1.35189	1.0752	3.5327	74.17	-0.254	0.0009	0.2549	1113.8891	0.111668	-416.728489	-416.720413	-416.719468	-416.761359	30.194	
N	 0.0362614288	 1.2237131193	-0.1631187506	-0.538858
C	 0.0161469608	-0.0079185774	 0.0452997874	 0.410613
O	 1.020491972	-0.8832754798	 0.4466297948	-0.265406
C	 0.1109289955	-2.0234177277	 0.4645908341	-0.154508
C	-1.0059932956	-1.1041912857	-0.0306252636	 0.201359
N	-2.3999264341	-1.0208856982	 0.3463191879	-0.346135
C	-2.0632872498	-1.3853086932	-1.0509579714	-0.34968
C	-2.4064523212	-0.4609862386	-2.0929809697	 0.406174
C	-2.6909666528	 0.278513834	-2.9956203916	-0.418341
H	 0.9627069869	 1.6198265252	 0.0019939412	 0.233778
H	 0.444402664	-2.8108466003	-0.216227992	 0.128611
H	-0.0098430619	-2.4154103565	 1.4793444494	 0.125671
H	-2.6807996706	-1.8499321953	 0.8663331752	 0.243723
H	-2.1583353115	-2.435676403	-1.3237967956	 0.118863
H	-2.9339894405	 0.9540050771	-3.7782344657	 0.204139
93.0266	101.0709	179.2413	246.02	256.4565	323.5055	460.1382	473.1918	545.5397	624.2247	644.5694	670.6257	711.4918	762.9523	819.0429	863.1735	902.6455	931.6377	963.9074	978.4686	993.9019	1067.4755	1098.2451	1146.7221	1186.4931	1202.2435	1261.1894	1311.4778	1375.9067	1472.539	1510.8276	1837.8259	2248.3847	3049.0396	3108.5655	3113.2913	3485.6707	3492.1179	3503.9537
N=C1OCC11NC1C#C	[NH][C]1OC[C@]21N[C@H]2C#C	
InChI=1S/C6H6N2O/c1-2-4-6(8-4)3-9-5(6)7/h1,4,7-8H,3H2	InChI=1S/C6H6N2O/c1-2-4-6(8-4)3-9-5(6)7/h1,4,7-8H,3H2/t4-,6-/m0/s1
