21
gdb 105058	2.66596	1.26966	1.10515	1.5318	77.76	-0.2539	0.0707	0.3245	1222.6237	0.180134	-424.191818	-424.182112	-424.181168	-424.226275	36.812	
C	-0.3448894239	 1.5165450685	-0.1157680183	-0.402799
C	-0.3800648845	 0.0051648996	-0.3515678583	-0.266504
C	 0.7114443682	-0.5441833509	-1.2586573895	 0.361389
C	 1.3449030157	 0.2691087317	-2.3059223856	-0.225422
O	 2.0230583486	 0.0008591609	-1.0688326184	-0.27467
C	 0.6828832475	-2.0480758184	-1.4283453298	 0.326452
O	-0.5008096128	-2.5234770353	-2.0218350017	-0.464684
C	 1.9269518256	-2.7882309542	-1.8036246056	-0.305851
C	 1.361717638	-2.9196592059	-0.4021048836	-0.327077
H	 0.652456403	 1.8325931189	 0.2010680739	 0.139052
H	-0.6107376928	 2.0755993187	-1.018077207	 0.117926
H	-1.0582282144	 1.7972339543	 0.6642283337	 0.113237
H	-0.2943030441	-0.515951539	 0.6115834727	 0.105567
H	-1.3489653054	-0.2861314251	-0.7753979532	 0.102746
H	 1.7624377423	-0.2280438794	-3.1794421763	 0.116882
H	 1.0542320905	 1.3064495849	-2.4528586083	 0.114927
H	-1.1736085704	-2.5884297652	-1.3359618089	 0.284234
H	 1.7964868379	-3.6270954574	-2.476849745	 0.119075
H	 2.840664889	-2.2186865304	-1.9207359171	 0.130755
H	 1.8999351969	-2.4348893108	 0.4050450974	 0.124597
H	 0.872730445	-3.8521304254	-0.1415782712	 0.110169
64.7109	76.0016	180.1146	200.7412	245.905	274.4555	294.1726	316.4809	356.4207	366.0728	472.6277	493.49	545.1083	624.2467	777.0179	784.0955	809.7601	873.7382	903.495	919.3747	939.8682	954.6851	991.094	1015.5966	1051.846	1077.9865	1088.8061	1120.7552	1145.1513	1150.194	1170.6892	1197.3772	1260.7182	1299.5588	1321.8987	1358.378	1377.696	1400.967	1421.0163	1441.1619	1485.9303	1490.7267	1498.6625	1512.0452	1530.0824	3017.1058	3045.0304	3054.8619	3097.3523	3110.1827	3125.8087	3132.0684	3147.9257	3186.2772	3221.417	3244.9366	3805.7559
CCC1(CO1)C1(O)CC1	CC[C@]1(CO1)C1(O)CC1	
InChI=1S/C7H12O2/c1-2-7(5-9-7)6(8)3-4-6/h8H,2-5H2,1H3	InChI=1S/C7H12O2/c1-2-7(5-9-7)6(8)3-4-6/h8H,2-5H2,1H3/t7-/m0/s1
