19
gdb 108058	2.70238	1.55556	1.15549	2.2888	75.04	-0.2327	0.0758	0.3085	1100.9077	0.158414	-422.959235	-422.950851	-422.949907	-422.992058	32.416	
C	-0.1449415239	 1.5061918211	-0.0965956335	-0.508445
C	-0.0037279799	 0.0159899859	-0.0066493243	 0.22927
C	 0.8532661945	-0.8972363466	-0.8935323063	-0.282795
C	 0.0698235049	-2.0606249137	-0.2411452296	 0.065247
O	 0.5332127351	-2.0378060095	 1.1418852766	-0.345156
C	-0.2109184474	-0.8138735997	 1.2775522203	 0.410398
C	-0.4573080914	-0.3517773359	 2.6734510108	-0.181977
O	-1.1443767742	-1.3292777363	 3.4350745355	-0.416114
C	-1.0929445523	-1.0617591156	 0.0960777234	-0.23974
H	 0.7923621962	 2.0105606656	 0.1651809814	 0.126844
H	-0.4170676158	 1.8152784791	-1.1121458769	 0.123175
H	-0.9221345323	 1.8793537514	 0.578507499	 0.123668
H	 0.592327212	-0.7705026153	-1.9482060853	 0.102633
H	 1.9404897194	-0.9070081251	-0.7627758867	 0.098816
H	 0.008539424	-3.0606931902	-0.6642452433	 0.087998
H	 0.5080235387	-0.091471174	 3.1386453444	 0.099379
H	-1.0760095926	 0.5510926346	 2.6703531812	 0.112567
H	-0.7190803302	-2.1712088062	 3.2337244812	 0.291939
H	-2.1645087648	-1.0537629294	-0.0477709278	 0.102292
92.1269	135.9162	199.8146	211.9805	263.6358	311.7036	384.4356	402.1531	479.0284	539.1394	613.0293	701.9358	772.5569	802.9095	814.1832	866.9086	910.5595	916.8276	933.6202	950.5908	982.6698	1025.3791	1055.167	1084.6531	1104.1097	1123.3564	1151.6626	1177.5883	1226.4981	1235.2562	1241.5449	1291.0607	1353.5994	1365.7601	1410.1687	1418.1938	1465.6899	1484.1792	1488.5906	1490.4907	1502.7015	2969.6507	3024.0608	3042.3519	3079.5135	3084.2515	3095.0949	3104.5848	3147.7442	3211.1397	3795.7274
CC12CC3OC1(CO)C23	C[C@@]12C[C@H]3O[C@]1(CO)[C@@H]23	
InChI=1S/C7H10O2/c1-6-2-4-5(6)7(6,3-8)9-4/h4-5,8H,2-3H2,1H3	InChI=1S/C7H10O2/c1-6-2-4-5(6)7(6,3-8)9-4/h4-5,8H,2-3H2,1H3/t4-,5-,6+,7-/m1/s1
