17
gdb 74184	2.50238	1.66455	1.09034	5.3331	76.29	-0.2541	-0.0404	0.2137	1100.1108	0.136495	-421.864874	-421.857118	-421.856174	-421.897158	29.831	
C	 0.0465520675	 1.4688809813	 0.0540858886	-0.484406
C	 0.0197875414	-0.0298643039	 0.0005954843	 0.323635
C	 0.0879649511	-0.7223860076	-1.1473193448	-0.318156
C	-0.0339803998	-2.1853184178	-1.2376078358	 0.418468
O	 0.0116128046	-2.7980049853	-2.2729056567	-0.340246
O	-0.2597245043	-2.8813786705	-0.0781704969	-0.243308
C	-0.1965446273	-2.260818344	 1.1779018893	 0.122699
C	 1.0770042431	-1.6741914202	 1.6919197044	-0.321996
C	-0.08223005	-0.7598596925	 1.2814814041	-0.173192
H	 0.8806852968	 1.8196300679	 0.6738560357	 0.140552
H	 0.140053803	 1.9079039949	-0.9414836552	 0.136002
H	-0.8703871754	 1.8534474912	 0.5178930591	 0.139263
H	 0.1910391375	-0.2299498352	-2.1071183241	 0.114974
H	-0.8419307026	-2.7859546906	 1.8722747693	 0.119857
H	 1.2933978076	-1.7762434052	 2.7494006929	 0.12738
H	 1.9403280031	-1.6850149422	 1.0361319739	 0.137652
H	-0.6193253461	-0.2570163603	 2.0796980618	 0.100821
105.549	153.2356	195.734	229.6211	297.6744	391.2778	465.8961	492.905	531.9716	582.1017	691.1437	737.3259	771.0393	808.5455	849.0468	889.7032	905.8209	979.6256	1010.1741	1038.57	1047.6623	1063.3804	1099.0228	1119.8303	1153.6053	1175.3458	1232.6665	1247.3595	1316.3514	1404.3146	1409.6966	1429.5554	1471.0703	1476.4021	1483.8287	1697.1088	1822.0298	3024.8029	3075.1269	3127.7881	3137.4621	3154.6304	3180.5682	3204.6615	3233.3374
CC1=CC(=O)OC2CC12	CC1=CC(=O)O[C@H]2C[C@@H]12	
InChI=1S/C7H8O2/c1-4-2-7(8)9-6-3-5(4)6/h2,5-6H,3H2,1H3	InChI=1S/C7H8O2/c1-4-2-7(8)9-6-3-5(4)6/h2,5-6H,3H2,1H3/t5-,6-/m0/s1
