23
gdb 93741	2.56879	1.22307	0.86793	1.4187	89.39	-0.2216	0.0331	0.2547	1393.97	0.205445	-388.322038	-388.312115	-388.311171	-388.356415	37.69	
C	 0.0144762159	 1.5568375676	 0.1871811041	-0.481309
C	 0.0236586381	 0.0623755205	-0.0144106987	 0.223678
C	-0.1373782443	-0.558041779	-1.1938105025	 0.205615
C	-0.3117016437	 0.1313185768	-2.5236301342	-0.482023
C	-0.1461244197	-2.071969803	-1.3026665292	-0.306684
C	-0.3521846238	-2.7940695519	 0.0301065916	 0.125409
O	-0.0548054803	-4.1821133847	-0.0631249878	-0.44086
C	 0.5620466443	-2.1876665173	 1.0825432981	-0.206864
C	 0.2245438004	-0.7075239531	 1.277803093	-0.292019
H	-0.7023878995	 1.8291423037	 0.9730324407	 0.120153
H	 0.9951288473	 1.9100472876	 0.5330899515	 0.121559
H	-0.2485918241	 2.1224384401	-0.7069467359	 0.118877
H	-0.1867619254	 1.2134644158	-2.4792619549	 0.120088
H	 0.4151652406	-0.255933968	-3.2497953004	 0.120898
H	-1.3046720713	-0.0761450371	-2.9446768337	 0.119634
H	-0.9277182543	-2.3757860725	-2.0153382062	 0.083253
H	 0.8019955698	-2.4225882607	-1.7378405877	 0.109861
H	-1.3983136577	-2.6525724553	 0.3523956067	 0.060764
H	-0.610016755	-4.5585561031	-0.7535347622	 0.277183
H	 0.4663167901	-2.7390561637	 2.023147365	 0.098626
H	 1.5998849413	-2.301309549	 0.746040119	 0.10162
H	 1.0163979805	-0.2213070083	 1.8630988905	 0.099274
H	-0.6835139193	-0.6073745453	 1.8927205731	 0.103268
99.0274	127.7625	134.333	149.0419	224.6546	276.0995	297.7559	329.4707	350.0314	379.1946	411.9625	471.7208	494.3214	534.4462	623.4172	704.5253	828.2952	882.4045	897.5879	923.2933	995.7061	1026.847	1031.5853	1042.7691	1068.6922	1097.8256	1105.9947	1146.2562	1155.0128	1165.4068	1218.5453	1240.2422	1261.7724	1294.9536	1336.1682	1347.7899	1376.8277	1391.6802	1405.7144	1420.5692	1445.6675	1476.8065	1477.3941	1480.0981	1487.2119	1488.4291	1500.6487	1502.7762	1741.7683	2947.28	2987.0549	2987.8099	3012.7186	3015.3025	3016.2191	3024.4283	3040.3552	3053.5088	3054.2441	3084.2328	3128.3889	3144.0682	3813.7857
CC1=C(C)CC(O)CC1	CC1=C(C)C[C@@H](O)CC1	
InChI=1S/C8H14O/c1-6-3-4-8(9)5-7(6)2/h8-9H,3-5H2,1-2H3	InChI=1S/C8H14O/c1-6-3-4-8(9)5-7(6)2/h8-9H,3-5H2,1-2H3/t8-/m0/s1
