20
gdb 55700	2.84304	1.14787	1.00119	6.28	74.78	-0.2455	0.028	0.2735	1255.5231	0.171781	-440.315969	-440.307201	-440.306257	-440.349627	33.736	
N	 0.005620656	 1.0698606658	-0.2436472922	-0.574519
H	 0.0728432591	 0.0747768595	-0.4332800335	 0.23946
H	 0.947806609	 1.4506811672	-0.2958052239	 0.240185
H	-1.1446268681	 2.1819643599	-1.030606308	 0.314172
C	-0.5789314213	 1.3119373656	 1.0823453639	 0.284273
C	-0.8350671393	 2.8198378892	 1.2250114515	-0.374052
C	-1.8457480591	 3.4177589932	 0.2343659756	 0.401092
O	-1.8135244148	 2.9134787204	-1.0059327377	-0.37448
O	-2.6034241671	 4.2990544743	 0.5465720414	-0.334813
C	-1.8359166271	 0.4497195507	 1.4046538166	-0.246922
C	-1.2886960405	 0.2406954561	 2.842135124	-0.212535
C	 0.1081759536	 0.7008994279	 2.3462123228	-0.262666
H	-1.1985397969	 3.0597823195	 2.2259022869	 0.134872
H	 0.1151215189	 3.3589878216	 1.0997501963	 0.119476
H	-2.8109020146	 0.9276635907	 1.2867196466	 0.127357
H	-1.8360971969	-0.4814679722	 0.8290861236	 0.09872
H	-1.7273951105	 0.9401989644	 3.5572214335	 0.118305
H	-1.3606474229	-0.7656299684	 3.2577380073	 0.10615
H	 0.7435304581	-0.1478579835	 2.0733646389	 0.093614
H	 0.6842229144	 1.3790200778	 2.9816810764	 0.102309
74.7144	98.0995	145.0067	215.3403	309.651	346.5529	349.6091	406.4028	413.9613	489.0337	574.6056	628.9796	687.6003	758.4785	787.3628	858.812	878.395	891.7846	927.9995	939.1508	949.278	978.2727	983.8863	1033.5042	1064.3733	1095.9185	1145.2246	1201.8204	1215.9293	1252.6337	1260.2203	1272.6678	1282.0118	1318.291	1324.5731	1362.2162	1461.7299	1473.6436	1485.5887	1492.8976	1506.524	1643.5333	1856.2086	3016.7271	3045.8907	3053.8904	3074.7556	3099.5448	3111.0461	3118.8991	3130.3498	3262.2071	3480.7058	3566.668
[NH3+]C1(CC([O-])=O)CCC1	NC1(CC(=O)O)CCC1	
InChI=1S/C6H11NO2/c7-6(2-1-3-6)4-5(8)9/h1-4,7H2,(H,8,9)	InChI=1S/C6H11NO2/c7-6(2-1-3-6)4-5(8)9/h1-4,7H2,(H,8,9)
