13
gdb 7731	3.46307	1.99509	1.30844	1.7614	55.9	-0.2692	-0.0359	0.2333	856.2898	0.096947	-435.800529	-435.793889	-435.792945	-435.831692	24.287	
O	-0.0211497361	-0.0583122224	-0.0638246776	-0.326519
C	-0.0477917547	 1.1450165347	 0.0194713683	 0.397244
C	-1.333163062	 1.9645641021	 0.0536061879	-0.196537
O	-1.1705534135	 3.221467967	 0.6713651353	-0.232751
C	-0.162544264	 3.9981499712	 0.064277976	-0.196547
C	 1.1918579048	 3.2985234826	 0.0309242278	 0.397238
O	 2.2461475864	 3.8804419639	-0.0431848178	-0.326513
N	 1.1134083651	 1.9099225512	 0.0646278002	-0.357568
H	-1.6998483441	 2.0646841717	-0.9828042504	 0.128223
H	-2.0768564117	 1.4061297375	 0.623852572	 0.157773
H	-0.4285326147	 4.2730574853	-0.9712447571	 0.128232
H	-0.0557955796	 4.9172139534	 0.64223445	 0.157768
H	 1.9920128941	 1.4043141318	 0.0357911554	 0.269958
108.5674	130.8442	273.1332	368.3337	456.4847	457.4705	525.1755	542.2877	615.1451	659.5335	744.8732	871.5299	909.1383	983.734	1008.804	1060.9263	1158.7003	1222.6548	1287.3576	1303.7134	1350.357	1358.5872	1388.9057	1404.1793	1465.0245	1474.9221	1822.8093	1837.1235	2966.0842	2968.1823	3129.4674	3131.5536	3569.3891
O=C1COCC(=O)N1	O=C1COCC(=O)N1	
InChI=1S/C4H5NO3/c6-3-1-8-2-4(7)5-3/h1-2H2,(H,5,6,7)	InChI=1S/C4H5NO3/c6-3-1-8-2-4(7)5-3/h1-2H2,(H,5,6,7)
