19
gdb 111623	2.59701	1.68451	1.38362	3.4473	73.22	-0.2446	0.0683	0.3129	1001.1979	0.161258	-422.990415	-422.982924	-422.98198	-423.022187	30.18	
O	 0.7970207349	-0.339512075	 1.2084387092	-0.426821
C	 0.0297902882	 0.1263715271	 0.1163510732	-0.087946
C	-1.3405679223	-0.5342410225	-0.0149809205	-0.035541
C	-1.8735737318	-1.1903935751	-1.2675814769	-0.08652
C	-0.9176916893	-1.7020294214	-2.3566598678	-0.270599
C	-0.1286093291	-2.8493539346	-1.7359859209	 0.042211
O	 0.7315962209	-2.4975863705	-0.6371264105	-0.266867
C	-0.571940636	-3.0381214246	-0.3450243032	 0.021126
C	-1.6386388453	-2.0256979355	-0.0144734562	-0.074591
H	 1.1323923417	-1.1994970177	 0.9293706135	 0.293883
H	-0.13314796	 1.1951497819	 0.2947384551	 0.097269
H	 0.5901449925	 0.0398113547	-0.8215886305	 0.090229
H	-2.1128210963	 0.0084651588	 0.5257950018	 0.091707
H	-2.877741808	-0.9305877532	-1.5854927184	 0.087852
H	-1.501969801	-2.098837196	-3.1942661389	 0.111564
H	-0.2589392732	-0.9288082882	-2.7668073067	 0.121464
H	 0.2586454001	-3.6486187916	-2.3636300572	 0.101472
H	-0.5633400559	-3.9990719837	 0.1610350922	 0.102895
H	-2.4600602302	-2.3736658828	 0.6012100726	 0.087215
130.7872	145.4939	225.7842	253.1871	353.6876	436.3868	483.7374	518.2121	621.549	683.2751	709.0646	754.3801	789.3936	832.6496	857.3482	863.6609	915.5362	945.7573	965.1514	1003.3813	1019.0792	1052.8746	1079.7957	1080.913	1087.6361	1121.4321	1127.7403	1204.9645	1213.2989	1254.6336	1265.9329	1299.4976	1315.0343	1358.7712	1369.5845	1398.8355	1421.8916	1428.533	1444.5546	1474.2323	1500.3772	3025.7009	3045.1806	3064.4317	3081.1816	3126.077	3140.601	3157.7918	3159.5575	3179.7149	3795.6319
OCC1C2CC3OC3C12	OC[C@H]1[C@H]2C[C@H]3O[C@H]3[C@@H]12	
InChI=1S/C7H10O2/c8-2-4-3-1-5-7(9-5)6(3)4/h3-8H,1-2H2	InChI=1S/C7H10O2/c8-2-4-3-1-5-7(9-5)6(3)4/h3-8H,1-2H2/t3-,4+,5-,6-,7-/m1/s1
