19
gdb 70930	3.49126	1.50518	1.294	1.1458	75.47	-0.2449	0.079	0.3239	1031.2852	0.159822	-422.948129	-422.940547	-422.939603	-422.980099	30.159	
C	 0.0442679542	 1.5153218226	-0.0123229126	-0.509958
C	 0.0153880784	 0.0123552799	 0.0155213497	 0.256117
C	 0.5923083059	-0.9698591579	-1.1108224811	-0.340637
C	-0.0334352405	-1.8530936245	-0.0054313089	 0.412606
C	 0.6534865987	-0.9370581151	 1.0580392524	-0.327893
O	-0.4884620397	-3.1443957874	 0.2493705154	-0.33277
C	-1.6675668709	-2.8943177661	 1.0542713541	 0.001291
O	-1.970103047	-1.4829053104	 1.0782558511	-0.299023
C	-1.232808857	-0.9533992028	-0.0121285789	 0.061803
H	 1.072341268	 1.8885389155	-0.0715913563	 0.122641
H	-0.5072181574	 1.9066879817	-0.873728767	 0.121981
H	-0.4108737996	 1.9267734026	 0.8945085981	 0.130188
H	 0.0921721559	-0.9534607495	-2.0823939929	 0.10356
H	 1.6795480171	-0.9750599932	-1.2080427878	 0.105489
H	 1.7450821303	-0.9592658643	 1.0908313343	 0.088324
H	 0.2092989624	-0.9309292514	 2.0532733325	 0.107811
H	-2.4952488667	-3.4615526658	 0.6098808901	 0.113086
H	-1.4933045032	-3.211959817	 2.0884042169	 0.117447
H	-1.844539389	-0.9037165769	-0.9209323593	 0.067936
80.2716	204.3763	212.4238	244.085	341.5538	407.1136	489.3677	511.0043	562.3676	617.4433	722.0683	736.8098	757.5296	834.9953	872.5219	930.1764	959.4009	990.7781	996.0138	1018.5523	1055.0447	1070.5625	1073.2463	1108.9649	1119.6713	1131.4596	1158.9113	1172.562	1193.8983	1201.3184	1248.7897	1277.3759	1322.8384	1395.3163	1413.2096	1418.9034	1487.3714	1489.5264	1490.8117	1530.9372	1540.7566	3015.6522	3029.717	3031.8422	3063.0976	3068.784	3072.6759	3097.2632	3101.4477	3134.9724	3147.8197
CC12CC3(C1)OCOC23	C[C@@]12C[C@]3(C1)OCO[C@@H]23	
InChI=1S/C7H10O2/c1-6-2-7(3-6)5(6)8-4-9-7/h5H,2-4H2,1H3	InChI=1S/C7H10O2/c1-6-2-7(3-6)5(6)8-4-9-7/h5H,2-4H2,1H3/t5-,6-,7-/m0/s1
