17
gdb 29339	1.92948	1.89298	0.967	6.0673	83.19	-0.2199	-0.0005	0.2194	1190.5971	0.136553	-380.947666	-380.938561	-380.937617	-380.98176	32.624	
C	-0.037114087	 1.5063548765	 0.0496840048	-0.509529
C	-0.0060239184	 0.0107739287	 0.0212512808	 0.177798
C	 0.0015294615	-0.8049130698	-1.0784974671	-0.165933
N	 0.0326882447	-2.1173655253	-0.6498467477	-0.305517
C	 0.0458736205	-2.179051204	 0.7113498025	 0.233337
C	 0.0802537312	-3.4625222775	 1.4691123527	-0.515827
C	 0.0218387048	-0.8653495594	 1.1631374238	 0.030179
C	 0.0249513144	-0.4734750118	 2.5221889835	 0.189915
N	 0.0277619053	-0.146934055	 3.6351683678	-0.371348
H	 0.8386153368	 1.9166770436	 0.5645538312	 0.139986
H	-0.0543015778	 1.9162815805	-0.9637015034	 0.121643
H	-0.9204074291	 1.8798091643	 0.5794759877	 0.139987
H	-0.0127266619	-0.5633828701	-2.1290917525	 0.128568
H	 0.0443580746	-2.9205167222	-1.2550172573	 0.266294
H	 0.9790486984	-4.0473180747	 1.2399797015	 0.137356
H	 0.0786044889	-3.2567143654	 2.5412950212	 0.16603
H	-0.7897251167	-4.0912880584	 1.2454559105	 0.137059
93.7874	97.5592	125.7262	138.5765	206.8248	245.2535	305.6062	378.7484	506.7736	528.7028	535.9252	576.9188	632.6565	649.6881	713.0568	732.494	760.9264	983.6997	1005.6325	1054.1384	1058.9699	1067.5507	1109.6356	1216.6603	1266.9178	1340.1865	1401.7265	1422.4526	1422.6509	1462.1732	1480.6549	1482.6227	1493.5963	1510.8534	1566.9628	1626.9208	2332.3895	3025.7306	3032.5911	3074.7032	3084.4671	3113.9003	3134.4645	3265.1994	3673.3261
CC1=CNC(C)=C1C#N	Cc1c[nH]c(C)c1C#N	
InChI=1S/C7H8N2/c1-5-4-9-6(2)7(5)3-8/h4,9H,1-2H3	InChI=1S/C7H8N2/c1-5-4-9-6(2)7(5)3-8/h4,9H,1-2H3
