21
gdb 100543	3.71067	0.84875	0.77844	1.2178	80.17	-0.2407	-0.0115	0.2292	1538.1876	0.180559	-424.232921	-424.222589	-424.221645	-424.269137	36.935	
C	-0.1724688117	 1.4371608827	 0.1360294274	-0.398305
C	 0.0448936651	-0.0814453082	-0.0264727941	-0.084685
C	 0.7974132009	-0.4078473951	-1.3146596125	-0.083274
O	-0.0060516425	 0.0332782426	-2.4021154697	-0.429014
C	 0.7757513276	-0.6425916443	 1.1876051599	 0.376163
O	 1.9366151721	-1.0014598961	 1.1279043483	-0.348332
C	 0.0032013593	-0.7187887982	 2.4622687628	-0.096777
C	 0.3484640675	-1.8562105102	 3.4143708372	-0.251252
C	 0.762620212	-0.4686440778	 3.7586274245	-0.249388
H	 0.7878251064	 1.9535919177	 0.2404973886	 0.123794
H	-0.6770854997	 1.8261925576	-0.7502679195	 0.144008
H	-0.7793514094	 1.6696237916	 1.015488316	 0.116226
H	-0.942906816	-0.5602530343	-0.0774613586	 0.09554
H	 1.7765311906	 0.090861755	-1.3030657827	 0.101797
H	 0.9857658037	-1.4895661671	-1.3678852291	 0.095152
H	 0.4885785971	-0.1073935401	-3.2141356958	 0.288001
H	-1.0322363237	-0.4010738073	 2.4221721197	 0.089269
H	-0.4718712839	-2.3114772273	 3.9571029319	 0.11756
H	 1.1189516566	-2.5347817803	 3.0669115732	 0.138381
H	 1.8108063358	-0.2178234263	 3.6432340002	 0.137478
H	 0.2357291222	 0.0593054655	 4.5450146122	 0.117658
41.9925	58.1015	107.8918	151.3456	208.2684	236.8391	253.3915	263.925	284.5714	319.8826	355.2244	469.1022	659.0463	737.9263	781.7381	814.1395	830.2359	857.9061	892.9545	925.3389	933.3351	1027.2546	1052.2016	1068.0362	1090.3138	1095.7675	1113.0092	1118.1103	1130.5528	1168.1676	1210.2467	1223.0731	1250.6807	1264.2578	1320.3144	1349.6994	1395.8742	1412.4444	1451.8704	1457.849	1483.0151	1492.7369	1506.7279	1518.015	1772.8595	2996.3415	3014.1208	3034.7427	3042.003	3108.8542	3137.9052	3140.2407	3141.8908	3176.1715	3227.9165	3242.5811	3837.0682
CC(CO)C(=O)C1CC1	C[C@@H](CO)C(=O)C1CC1	
InChI=1S/C7H12O2/c1-5(4-8)7(9)6-2-3-6/h5-6,8H,2-4H2,1H3	InChI=1S/C7H12O2/c1-5(4-8)7(9)6-2-3-6/h5-6,8H,2-4H2,1H3/t5-/m0/s1
