19
gdb 40055	3.23239	1.58002	1.48702	1.5973	73.71	-0.2325	0.0873	0.3198	975.1869	0.161525	-423.021161	-423.014179	-423.013235	-423.052373	28.87	
C	 0.0380039221	 1.5302470725	 0.0347808262	-0.342719
C	 1.3251391989	 0.7107849278	 0.0295155625	-0.345639
C	-0.0069069123	 0.0395893057	-0.0371698333	 0.489923
O	-0.4524832423	-0.7014111699	 1.0960077639	-0.315915
C	-1.1008839937	-1.8405607931	 0.5223853602	 0.181096
C	-2.4865425442	-1.4107884774	 0.0041575112	-0.233792
C	-2.0647468474	-0.6346643153	-1.281662168	-0.224677
C	-0.5281657915	-0.7854955834	-1.2082503093	-0.051091
O	-0.3749488167	-2.1107989558	-0.661382943	-0.249635
H	-0.2568502133	 1.9893849403	 0.9716798443	 0.125406
H	-0.2132710234	 2.1060352631	-0.8508585072	 0.112377
H	 1.9489594291	 0.7289326855	-0.8582433064	 0.113385
H	 1.8649634378	 0.6301774616	 0.9663992584	 0.125753
H	-1.0503691182	-2.6776574175	 1.2174547968	 0.092039
H	-3.1046136669	-2.2820288249	-0.2263817844	 0.106235
H	-3.0089281605	-0.7923243289	 0.7358659047	 0.11235
H	-2.4528395072	-1.1088721081	-2.1854832819	 0.105874
H	-2.3790161201	 0.4108719402	-1.2757040205	 0.110043
H	 0.0241877699	-0.6903849823	-2.1415316843	 0.088987
110.6801	216.2635	264.6332	306.9702	410.1344	460.0543	542.8714	610.421	698.386	760.2007	816.4112	823.514	834.6391	855.0206	886.9964	900.0587	930.3891	941.969	979.3675	982.4292	998.5418	1020.0823	1042.1876	1051.5932	1071.7784	1094.1943	1146.7828	1186.1284	1221.1295	1231.3119	1246.6582	1260.9093	1285.2379	1316.835	1340.4028	1356.6837	1398.4627	1451.077	1476.86	1497.6047	1505.4993	3068.4546	3077.9983	3116.4756	3125.7964	3130.258	3133.8486	3137.0357	3142.0104	3211.8101	3226.2868
C1CC11OC2CCC1O2	C1CC21O[C@H]1CC[C@@H]2O1	
InChI=1S/C7H10O2/c1-2-6-8-5(1)7(9-6)3-4-7/h5-6H,1-4H2	InChI=1S/C7H10O2/c1-2-6-8-5(1)7(9-6)3-4-7/h5-6H,1-4H2/t5-,6-/m0/s1
