18
gdb 81294	2.31847	1.7496	1.60002	3.479	72.43	-0.2524	0.0137	0.266	963.5407	0.149349	-439.079409	-439.071799	-439.070855	-439.111345	29.643	
C	-0.1783453557	 1.6203960621	-0.0103371413	-0.440212
C	 0.0346549561	 0.1160243248	-0.0138654358	 0.004639
C	 0.8397897245	-0.6159900188	-1.1155253755	 0.046143
C	 2.0968331197	 0.1395145483	-1.5088938355	-0.083978
O	 2.8184366994	 0.5980058042	-0.3469458315	-0.270828
C	 2.3721049035	 0.2240597111	 0.8896206166	 0.44345
N	 2.9611147356	 0.5480098101	 1.959658399	-0.53459
C	 1.0986003463	-0.5800204545	 0.8753971716	-0.02178
O	 1.2449132599	-1.6163654549	-0.1408007618	-0.29391
H	 0.7562604807	 2.1742130658	-0.1328630229	 0.138279
H	-0.8563636904	 1.9150134275	-0.8184321099	 0.121443
H	-0.6328170913	 1.9404317639	 0.9325760301	 0.133418
H	-0.9116306442	-0.4136872158	 0.1233297061	 0.098366
H	 0.326360241	-1.0383033132	-1.9840423904	 0.088391
H	 2.7654326647	-0.5180908012	-2.0747224352	 0.127684
H	 1.8656461296	 1.0195897237	-2.1197135901	 0.1164
H	 3.7943887947	 1.1045262835	 1.754082696	 0.220688
H	 0.8519121759	-0.9600314066	 1.8655934304	 0.106398
115.3513	179.6855	198.2683	227.8443	312.3129	416.1551	418.8935	495.7633	553.9247	639.7549	718.4266	752.8423	821.1135	864.2703	888.4075	894.3551	926.0403	966.7248	990.3354	1024.487	1051.6745	1075.9447	1097.8258	1154.7503	1169.6459	1193.1276	1235.0795	1245.8261	1295.3944	1312.3406	1342.8721	1352.154	1378.6141	1419.5543	1431.3284	1495.8595	1497.1827	1506.3799	1765.9875	3036.5822	3039.4997	3072.2704	3081.0558	3083.6229	3102.369	3120.1406	3138.7512	3455.9006
CC1C2COC(=N)C1O2	C[C@H]1[C@H]2CO[C]([NH])[C@@H]1O2	
InChI=1S/C6H9NO2/c1-3-4-2-8-6(7)5(3)9-4/h3-5,7H,2H2,1H3	InChI=1S/C6H9NO2/c1-3-4-2-8-6(7)5(3)9-4/h3-5,7H,2H2,1H3/t3-,4+,5+/m0/s1
