18
gdb 97155	3.58088	1.34509	1.15833	2.917	75.13	-0.2408	0.017	0.2578	1105.1842	0.148788	-439.070983	-439.063069	-439.062124	-439.104057	29.573	
C	-0.1379806268	 1.428526669	-0.0358083962	-0.330444
N	-0.1695115898	-0.0234659355	-0.1189006674	-0.324713
C	 0.5940208064	-0.62169068	-0.9241790369	 0.472949
O	 1.4597277123	 0.0210861925	-1.7733688407	-0.2824
C	 2.4019665276	-0.7720027425	-2.5194180233	-0.076336
C	 2.0803664461	-2.2531064259	-2.4130440305	 0.071507
C	 0.5670302083	-2.5050615335	-2.556801137	-0.256902
C	 0.6019147545	-2.1203328807	-1.0614116516	-0.025253
O	 1.9950819187	-2.561548669	-0.9931981	-0.292766
H	 0.7806497891	 1.8791511208	-0.4267743322	 0.122759
H	-0.9870650886	 1.8451317479	-0.5921763352	 0.124997
H	-0.2672129278	 1.7225245356	 1.0103050436	 0.123623
H	 2.3651021179	-0.4249583116	-3.5582519981	 0.115284
H	 3.4024709773	-0.5796848294	-2.1153934656	 0.124506
H	 2.8019606889	-2.8750398268	-2.9493944378	 0.089912
H	-0.0104127623	-1.884486336	-3.2447994764	 0.116143
H	 0.3402039746	-3.5620025173	-2.6975366174	 0.121136
H	-0.0488632964	-2.5977537476	-0.3312729274	 0.106
54.465	98.6416	179.4078	234.4458	312.5673	375.861	414.4135	433.6393	582.096	655.9619	720.509	773.8975	849.0486	879.3252	898.7163	935.6489	958.2621	983.7658	1029.973	1031.3513	1077.1343	1101.9633	1116.4788	1128.5024	1175.4486	1205.0309	1230.611	1245.7536	1258.1805	1321.7731	1325.0274	1351.8803	1410.4891	1436.8169	1487.42	1489.4943	1497.5487	1500.6756	1787.8919	3017.8243	3033.0252	3075.8748	3077.1197	3080.1721	3085.7705	3098.1927	3143.1202	3149.0598
CN=C1OCC2CC1O2	CN=C1OC[C@@H]2C[C@H]1O2	
InChI=1S/C6H9NO2/c1-7-6-5-2-4(9-5)3-8-6/h4-5H,2-3H2,1H3	InChI=1S/C6H9NO2/c1-7-6-5-2-4(9-5)3-8-6/h4-5H,2-3H2,1H3/t4-,5+/m0/s1
