18
gdb 74117	2.4866	1.75194	1.12197	4.7745	79.17	-0.2368	-0.0281	0.2087	1091.792	0.149272	-401.982538	-401.974712	-401.973768	-402.014903	29.759	
C	-0.1312092514	 1.5380043099	 0.03784185	-0.496985
C	-0.030366158	 0.0505174861	-0.0350394208	 0.311454
C	-0.1157829078	-0.7511060199	-1.1078473329	-0.306277
C	 0.1178204466	-2.1696432092	-0.7185196418	 0.368979
O	 0.3811887713	-3.1137576214	-1.4294436173	-0.370515
N	 0.0717679516	-2.1989382091	 0.6879616185	-0.118378
C	 1.2982122423	-2.5989200668	 1.438025229	-0.175253
C	 1.5373015036	-1.1136731181	 1.820284405	-0.256441
C	 0.1338997685	-0.8115508469	 1.1870223237	-0.067448
H	 0.7668114216	 1.9695805027	 0.4974203484	 0.137756
H	-0.2591186189	 1.9842075005	-0.9508891497	 0.137873
H	-0.9784403635	 1.8416339676	 0.6650514069	 0.139624
H	-0.2530059513	-0.4535054805	-2.1390244395	 0.117728
H	 1.0686150428	-3.2563279735	 2.2804152821	 0.117262
H	 2.0443933197	-3.0780465721	 0.7999280298	 0.134555
H	 1.635538373	-0.8899080786	 2.8834007299	 0.113585
H	 2.3602559617	-0.6496967538	 1.2732323658	 0.118677
H	-0.6308760218	-0.5884256768	 1.9419600529	 0.093804
125.4618	144.1589	173.2097	221.8557	246.2394	301.5002	453.6892	560.4559	580.815	647.3596	710.5474	758.9965	776.8672	809.0979	882.6199	894.582	940.3349	992.5521	1014.6743	1036.571	1070.0803	1078.871	1110.1579	1163.1186	1173.9241	1205.7407	1232.8338	1251.2688	1261.5316	1307.0034	1318.7159	1352.9894	1413.0379	1478.8362	1481.9421	1483.3857	1516.1607	1676.8156	1810.3754	3021.8948	3026.0282	3062.3689	3071.9092	3078.0262	3113.2379	3124.1561	3139.925	3227.1124
CC1=CC(=O)N2CCC12	CC1=CC(=O)N2CC[C@@H]12	
InChI=1S/C7H9NO/c1-5-4-7(9)8-3-2-6(5)8/h4,6H,2-3H2,1H3	InChI=1S/C7H9NO/c1-5-4-7(9)8-3-2-6(5)8/h4,6H,2-3H2,1H3/t6-/m0/s1
