14
gdb 15286	2.65125	2.08908	1.44552	3.0188	67.14	-0.2611	0.0054	0.2665	872.586	0.105896	-341.521078	-341.513208	-341.512264	-341.553504	28.265	
C	-0.7614764525	 0.1108832477	-0.9002895706	-0.439337
C	-0.1130845029	 0.5774799992	-0.0020653854	 0.295848
C	 0.7172280244	 1.1188753192	 1.0731989306	-0.289849
N	 1.6626697337	 2.1972913782	 0.7291880421	-0.09005
C	 2.0024550781	 2.458048662	-0.6552602826	-0.240001
C	 1.1862827943	 3.4469836047	 0.1245791078	-0.135656
C	-0.2017964463	 3.6704869209	-0.2015966813	 0.289677
N	-1.3117025928	 3.9130083171	-0.4189881922	-0.33364
H	-1.3636370502	-0.2843240451	-1.6812857868	 0.210404
H	 0.0841209557	 1.4882628759	 1.8873282794	 0.156219
H	 1.326364371	 0.309598653	 1.4924347083	 0.151822
H	 3.0465658814	 2.6813035757	-0.8545641997	 0.133408
H	 1.4784402032	 1.8989712661	-1.4261227563	 0.149737
H	 1.6718433529	 4.3347205855	 0.5220244868	 0.141417
72.642	117.8497	161.5921	220.3941	324.529	337.6791	362.1526	535.8062	554.798	626.1555	628.367	685.0847	744.1966	812.2773	897.2457	944.2749	990.4871	1038.5677	1051.9728	1125.5341	1131.3042	1159.5578	1284.2104	1314.6329	1360.1962	1376.8591	1468.7432	1496.5653	2231.8925	2351.5557	3038.9281	3075.8255	3111.5963	3142.232	3205.4632	3501.951
C#CCN1CC1C#N	C#CCN1C[C@H]1C#N	
InChI=1S/C6H6N2/c1-2-3-8-5-6(8)4-7/h1,6H,3,5H2	InChI=1S/C6H6N2/c1-2-3-8-5-6(8)4-7/h1,6H,3,5H2/t6-,8?/m1/s1
