15
gdb 51382	2.90335	1.31772	1.07796	3.9153	67.46	-0.2598	-0.0095	0.2503	1109.9947	0.112547	-453.920871	-453.913	-453.912056	-453.954312	28.545	
N	-0.3535597022	 1.1168133412	 0.0148881423	-0.429518
C	-0.5787714334	-0.0854246596	-0.2802443087	 0.127519
O	-0.9777030461	-0.9448523034	 0.6960880764	-0.193039
C	-1.002661911	-2.302847095	 0.3657799765	 0.094823
C	-2.1226838574	-3.1458507443	 0.8598537245	-0.047261
N	-3.3964503435	-2.4266587762	 0.8541620922	-0.335309
C	-3.2894071033	-2.1193244427	-0.5166531617	 0.439962
O	-3.9794605329	-1.475242322	-1.2496742701	-0.331585
C	-1.9823334233	-2.8966250913	-0.6475773148	-0.301975
H	-0.0944961648	 1.6384429591	-0.8200600863	 0.236938
H	-0.5096038637	-0.5559531697	-1.2680531811	 0.105316
H	-0.0194013	-2.7722591747	 0.3578539198	 0.122646
H	-2.0065059096	-4.0677762865	 1.41362145	 0.125916
H	-3.6201952207	-1.7150443696	 1.5415091842	 0.258592
H	-1.6737008481	-3.5540956955	-1.447951803	 0.126974
52.1109	101.1482	137.4393	181.6883	278.7745	441.6854	463.249	535.6124	585.6218	686.1301	746.999	792.5211	800.87	827.9096	855.8664	927.9107	929.8993	999.7468	1044.5988	1046.175	1066.6765	1073.1078	1099.7588	1139.3025	1212.095	1263.9701	1280.218	1324.7275	1340.6124	1401.2065	1423.1805	1750.6358	1909.2819	3055.7043	3119.3831	3209.6701	3226.1893	3520.2498	3550.2985
N=COC1C2NC(=O)C12	[NH][CH]O[C@H]1[C@H]2NC(=O)[C@@H]12	
InChI=1S/C5H6N2O2/c6-1-9-4-2-3(4)7-5(2)8/h1-4,6H,(H,7,8)	InChI=1S/C5H6N2O2/c6-1-9-4-2-3(4)7-5(2)8/h1-4,6H,(H,7,8)/t2-,3+,4-/m1/s1
