18
gdb 28013	4.98389	1.00175	0.87607	3.1831	79.33	-0.1816	0.0346	0.2162	1323.8106	0.150019	-398.146268	-398.13808	-398.137136	-398.179382	31.249	
N	 0.1363656313	 1.2891467697	 0.3786879425	-0.594738
C	 0.0336228651	-0.0605329145	 0.0281114316	 0.284922
C	-0.9579145797	-0.9659486432	 0.3230081081	-0.212516
N	-0.5096733123	-2.1799506616	-0.1895095501	 0.019713
C	 0.6971016315	-1.9339434922	-0.7628861817	 0.000718
N	 1.0601984736	-0.6732079993	-0.6480209403	-0.324706
C	-1.2468223966	-3.4059963341	-0.2214766452	 0.024421
C	-0.5527889042	-4.6852825931	 0.1625364132	-0.276401
C	-1.5920656398	-4.0878351242	 1.0773776368	-0.267543
H	 0.822962863	 1.7520614354	-0.2032662674	 0.24675
H	-0.7444631211	 1.7842833931	 0.3416829443	 0.238886
H	-1.8969613919	-0.8861128094	 0.842825289	 0.11318
H	 1.2638379136	-2.7119400213	-1.2514217937	 0.124919
H	-1.9846788383	-3.4612434787	-1.0178632482	 0.110095
H	-0.7998953599	-5.5786261403	-0.3989604048	 0.123607
H	 0.4824096037	-4.6170594785	 0.4744153193	 0.132638
H	-1.2420407091	-3.6171523575	 1.9883847566	 0.134273
H	-2.5608545188	-4.5676270204	 1.1531471002	 0.121782
63.151	107.6781	175.1852	222.5315	293.394	362.3093	386.4156	492.2398	589.6135	639.9415	645.2493	689.1031	729.3397	783.7815	790.2902	814.4398	836.1922	901.5975	963.4759	1005.545	1038.9394	1062.458	1083.8247	1086.7848	1114.944	1130.76	1197.978	1203.8592	1240.3802	1265.9673	1326.8246	1375.0286	1421.3827	1438.1767	1462.8343	1500.893	1538.1848	1617.0677	1647.5466	3129.9537	3144.3555	3148.9176	3228.3696	3241.7229	3253.5035	3279.3943	3541.5724	3637.5814
NC1=CN(C=N1)C1CC1	Nc1cn(cn1)C1CC1	
InChI=1S/C6H9N3/c7-6-3-9(4-8-6)5-1-2-5/h3-5H,1-2,7H2	InChI=1S/C6H9N3/c7-6-3-9(4-8-6)5-1-2-5/h3-5H,1-2,7H2
