21
gdb 114317	2.25311	1.26933	1.12617	1.2794	78.51	-0.2388	0.0717	0.3105	1242.05	0.180858	-424.191863	-424.18214	-424.181196	-424.226063	36.731	
C	-0.0067702457	 1.6492324118	 0.0180567943	-0.378797
C	-0.1833259949	 0.1301807021	-0.0791844977	-0.210852
C	 0.6855664974	-0.4970238429	-1.1668698762	-0.012491
C	 2.240097634	-0.5996795106	-0.991682125	-0.251484
C	 2.1811329489	-2.0889547932	-1.3546215018	-0.180984
C	 1.3164184089	-2.8241955446	-0.3641121924	 0.022539
O	 1.2383671422	-2.49653241	 0.997312749	-0.419113
C	 0.6382422991	-2.0109422224	-1.4156466181	 0.329616
O	-0.2058360675	-2.5914558694	-2.3506730649	-0.461301
H	 1.0308922729	 1.9139454374	 0.2500407973	 0.114807
H	-0.2689857147	 2.1422253237	-0.9251971069	 0.109909
H	-0.6396140501	 2.0749207571	 0.8031721627	 0.108976
H	 0.0476389649	-0.3402292245	 0.8808620853	 0.119682
H	-1.2359075959	-0.0994958001	-0.2953874411	 0.084893
H	 0.4798661743	-0.008367632	-2.1266432807	 0.077175
H	 2.7993964307	 0.0043454801	-1.7078562641	 0.102288
H	 2.6089489874	-0.3869651056	 0.0160355294	 0.092252
H	 2.8753599555	-2.6135284533	-2.0004743306	 0.09067
H	 1.2461111268	-3.8934396972	-0.5728983246	 0.088462
H	 2.084901282	-2.7135856338	 1.4028853895	 0.286472
H	-0.9672379362	-2.9562082725	-1.8868338732	 0.287281
84.5774	139.8427	154.1384	176.3525	241.3069	246.9155	263.8927	291.2542	322.6155	376.5922	446.141	525.483	585.8464	634.5589	754.3646	786.8012	804.6149	833.1647	904.8777	919.0545	961.979	992.745	1004.1274	1037.3862	1076.2944	1115.2212	1131.5056	1145.1613	1176.0945	1210.5478	1225.805	1247.525	1283.5172	1290.9559	1302.386	1324.8713	1341.9273	1344.8346	1400.4371	1410.4024	1467.9794	1489.2887	1500.1739	1502.0166	1507.4136	3014.3132	3026.9842	3035.2466	3057.6806	3081.0462	3090.3919	3098.8924	3104.3012	3116.0374	3182.3561	3797.7048	3799.7472
CCC1CC2C(O)C12O	CC[C@H]1C[C@H]2[C@@H](O)[C@@]12O	
InChI=1S/C7H12O2/c1-2-4-3-5-6(8)7(4,5)9/h4-6,8-9H,2-3H2,1H3	InChI=1S/C7H12O2/c1-2-4-3-5-6(8)7(4,5)9/h4-6,8-9H,2-3H2,1H3/t4-,5-,6+,7+/m0/s1
