14
gdb 43243	4.52258	1.41724	1.15756	7.6689	88.23	-0.2126	-0.1412	0.0714	992.2239	0.101532	-399.50719	-399.500644	-399.4997	-399.538276	25.382	
O	-0.5096625316	-0.2149761596	-0.307156157	-0.387062
C	-0.2439449483	 0.9711048693	-0.2262058533	 0.386492
C	-1.2503000068	 2.0680717519	 0.0255103766	-0.220811
C	-0.5915794703	 3.2636891078	-0.0392907952	 0.183817
C	-0.592299503	 4.3375329751	 0.8587758346	-0.130203
C	 0.7620245048	 4.6468451028	 1.1809226621	-0.070567
C	 1.6104361553	 3.8341040539	 0.4691405236	-0.053414
C	 0.8267698498	 2.9820282546	-0.4801906184	-0.062231
N	 1.0085658551	 1.5495608669	-0.3006231058	-0.320406
H	-2.2594459218	 1.8845045899	 0.3763832743	 0.144486
H	-1.4540295338	 4.7098436158	 1.4010845189	 0.143005
H	 1.0588906184	 5.3805857777	 1.9202170706	 0.130979
H	 2.6916435996	 3.8384022532	 0.5196619299	 0.146812
H	 1.0043876728	 3.2892142506	-1.5264453509	 0.109103
94.5826	205.4784	277.1339	318.8914	490.3194	516.5762	603.1085	677.0983	690.0217	739.7879	787.2175	827.7405	867.6277	878.7235	903.8786	950.4718	978.1691	1023.4093	1043.9798	1071.2685	1107.0244	1147.7822	1187.119	1217.8962	1280.5889	1306.0422	1342.596	1406.9861	1490.6228	1593.4374	1735.2771	2935.96	3202.5949	3215.2065	3216.1975	3236.4595
O=C1C=C2C=CC3C2N13	O=C1[CH][C]2[CH]C=C[C@H]2[N]1	
InChI=1S/C7H5NO/c9-6-3-4-1-2-5-7(4)8(5)6/h1-3,5,7H	InChI=1S/C7H5NO/c9-7-4-5-2-1-3-6(5)8-7/h1-4,6H/t6-/m1/s1
