16
gdb 68955	2.5207	1.69994	1.34585	2.4403	71.14	-0.2334	-0.0307	0.2026	977.4868	0.122883	-437.822488	-437.814543	-437.813598	-437.854863	30.153	
O	-0.1753337302	 1.3750610368	 0.0020080017	-0.440879
C	-0.0697094275	 0.0117866088	-0.0361013863	 0.363568
C	-0.2147166829	-0.9100757553	 1.1212163013	-0.402406
C	-1.1532509342	-1.1518269098	-0.0431008381	 0.159821
C	-2.6055548019	-1.0274845241	 0.0556746734	 0.069529
O	-3.1795428764	-0.4727398146	 0.9691770779	-0.289116
N	-0.4445032901	-1.8588175628	-1.1263577845	-0.15669
C	-0.4560091665	-0.9447202328	-2.2864865213	-0.245072
C	 0.5344638499	-0.692792973	-1.2131075215	-0.085083
H	-0.292713513	 1.6620307218	 0.913620102	 0.303771
H	 0.5371279045	-1.6642823029	 1.3414350307	 0.129634
H	-0.7246579158	-0.4916149364	 1.9854935298	 0.143333
H	-3.161507218	-1.4630092229	-0.8036433113	 0.078394
H	-0.0931654782	-1.4106005449	-3.1973914636	 0.129581
H	-1.2918560603	-0.2619779818	-2.4140850652	 0.131926
H	 1.5971650606	-0.861936426	-1.3552070051	 0.109688
95.679	160.0584	207.9919	229.1311	262.4058	311.4666	430.2801	497.2428	517.9147	567.1158	648.8	715.8586	767.3582	779.2311	826.8614	854.1965	965.4075	987.4292	1021.9728	1034.3296	1057.7325	1094.4322	1117.4961	1123.3677	1141.1055	1191.0332	1218.5343	1302.9281	1318.9159	1372.3589	1424.0883	1432.9977	1477.2621	1494.4273	1779.1451	2888.762	3104.6263	3117.2396	3167.294	3199.2979	3211.799	3823.7508
OC12CC1(C=O)N1CC21	O[C@@]12C[C@]1(C=O)N1C[C@@H]21	
InChI=1S/C6H7NO2/c8-3-5-2-6(5,9)4-1-7(4)5/h3-4,9H,1-2H2	InChI=1S/C6H7NO2/c8-3-5-2-6(5,9)4-1-7(4)5/h3-4,9H,1-2H2/t4-,5+,6+,7?/m0/s1
