20
gdb 19966	3.53409	1.62957	1.34263	1.6631	74.32	-0.263	0.0828	0.3458	995.1431	0.177129	-348.973644	-348.965515	-348.964571	-349.006267	30.584	
C	 0.0053890358	 1.6004080291	 0.006878872	-0.394021
C	 0.041795942	 0.0746155664	-0.0415257813	 0.002323
C	 1.2490887844	-0.5088326401	-0.8354919238	-0.226339
C	 1.9654047335	-0.8222425671	 0.504849048	-0.239626
C	 0.6099891592	-0.6395886264	 1.2384134403	 0.002489
C	 0.5856421	 0.0753695624	 2.5626238227	 0.061828
C	 1.6692396155	-0.0493113697	 3.5469354283	-0.183996
O	 1.5245454278	 1.1387726721	 2.7663731904	-0.230747
H	 0.9602558516	 2.0171114634	 0.3394538221	 0.136025
H	-0.21611415	 2.0048862522	-0.9870230899	 0.107159
H	-0.7672917153	 1.9635195289	 0.6928975708	 0.110832
H	-0.9354934932	-0.3008686969	-0.3608915943	 0.062288
H	 0.9855781074	-1.4149981204	-1.3878735176	 0.095938
H	 1.7568983406	 0.176891636	-1.5192811233	 0.095583
H	 2.4589513001	-1.7925124542	 0.5976982829	 0.091678
H	 2.6701763686	-0.0369781925	 0.7886633523	 0.120248
H	 0.1056649197	-1.604301478	 1.3713860535	 0.072865
H	-0.4105103699	 0.3010832336	 2.9497682729	 0.088352
H	 1.4553058385	 0.0605822197	 4.609168122	 0.11293
H	 2.5407674935	-0.6577842785	 3.309558662	 0.11419
85.5546	104.3668	168.1934	228.3941	243.4081	309.6674	356.1913	445.6338	604.1746	654.3269	744.4471	785.1681	830.712	885.3702	896.7846	918.6377	945.8367	960.2842	984.0408	1009.836	1083.5286	1091.736	1112.3136	1143.6185	1161.601	1167.4698	1175.225	1220.2062	1253.7487	1262.1603	1277.2942	1286.163	1293.3308	1362.7387	1368.837	1413.4373	1427.1415	1479.7762	1493.9218	1497.5766	1500.2601	1527.0593	3029.3101	3030.994	3045.7407	3055.0421	3064.5814	3081.0364	3086.2203	3092.1203	3098.5581	3115.0849	3122.5117	3169.2359
CC1CCC1C1CO1	C[C@H]1CC[C@H]1[C@H]1CO1	
InChI=1S/C7H12O/c1-5-2-3-6(5)7-4-8-7/h5-7H,2-4H2,1H3	InChI=1S/C7H12O/c1-5-2-3-6(5)7-4-8-7/h5-7H,2-4H2,1H3/t5-,6+,7+/m0/s1
