16
gdb 19941	3.73473	2.3884	1.93393	2.8013	62.7	-0.2413	0.081	0.3222	731.5837	0.132669	-383.709749	-383.703795	-383.702851	-383.739724	23.771	
C	 0.1132975119	 1.5780782322	 0.152340811	-0.075951
O	 1.4657815846	 1.5298114274	-0.3490324601	-0.288504
C	 1.3764683595	 0.1141567994	-0.6090355773	 0.126543
C	 2.3595574938	-0.7571304127	 0.1974374095	-0.265877
C	 1.5965008535	-1.1775894498	 1.4407163091	 0.049281
O	 1.1311214396	-0.08405811	 2.2370228188	-0.244763
C	 0.1952072533	-0.7219409856	 1.3579700028	 0.02217
C	-0.0231547071	 0.0406730283	 0.0652636286	-0.113398
H	 0.0653366487	 2.0063014146	 1.1577835777	 0.118574
H	-0.5494543879	 2.132742377	-0.5231713263	 0.095505
H	 1.4269308905	-0.0885595167	-1.6855156385	 0.076302
H	 2.6541652849	-1.6449157335	-0.3741427019	 0.101258
H	 3.2651961114	-0.1916304492	 0.4368739484	 0.130804
H	 1.8965620972	-2.0606984755	 2.0009740402	 0.094963
H	-0.6262417787	-1.2371557148	 1.8500534167	 0.094403
H	-0.8585097052	-0.3510639311	-0.5165490886	 0.07869
135.4324	239.5681	352.6337	377.696	511.1951	654.7624	693.8491	774.0894	825.9525	836.3102	869.7083	880.9203	901.7357	959.2367	987.6444	1019.2662	1039.6151	1049.7846	1069.536	1085.5227	1121.6443	1169.0098	1198.6614	1203.9964	1251.3474	1261.5318	1309.5431	1317.8129	1333.5427	1364.4159	1372.0456	1428.3459	1460.5103	1513.9018	3020.5735	3027.1973	3047.4921	3086.8606	3098.2375	3104.0982	3132.9045	3146.9023
C1OC2CC3OC3C12	C1O[C@H]2C[C@H]3O[C@H]3[C@@H]12	
InChI=1S/C6H8O2/c1-4-3(2-7-4)6-5(1)8-6/h3-6H,1-2H2	InChI=1S/C6H8O2/c1-4-3(2-7-4)6-5(1)8-6/h3-6H,1-2H2/t3-,4-,5+,6-/m0/s1
