21
gdb 120968	3.86914	0.92014	0.88895	1.0677	78.6	-0.2294	0.0867	0.3161	1419.9862	0.182457	-424.200219	-424.191209	-424.190265	-424.234875	33.198	
C	 0.3007287854	 1.3622589792	-0.6683476579	-0.224985
O	 0.0049355237	 0.0016849898	-0.8722273703	-0.233338
C	 0.8769039403	-0.8630148094	-0.1800766729	-0.071426
C	 0.4473713344	-2.2969380163	-0.4837313392	 0.091149
C	 0.6469918819	-2.7142288418	-1.9660619324	-0.259947
C	 1.7042264308	-3.8067601208	-1.9197249324	-0.06313
C	 3.0604558024	-3.454377304	-1.3307169413	-0.321574
C	 1.9792970853	-4.0534240282	-0.4687246802	 0.116182
O	 1.215498503	-3.1924512468	 0.3327510792	-0.274815
H	 0.225295309	 1.6415305814	 0.3943552979	 0.105924
H	 1.3141862346	 1.6169955827	-1.0172360988	 0.103994
H	-0.4259725412	 1.9454520105	-1.2393141372	 0.126889
H	 1.9218385983	-0.6983138197	-0.4937187182	 0.084088
H	 0.82891023	-0.6898317783	 0.9069870429	 0.096425
H	-0.604975153	-2.3924817025	-0.189021432	 0.089866
H	-0.2824788835	-3.1117400742	-2.3828035516	 0.108207
H	 0.9316747129	-1.8523328042	-2.5768168965	 0.114687
H	 1.6423232539	-4.6185985899	-2.6347283291	 0.089398
H	 3.8980515595	-4.0894289281	-1.601114871	 0.110753
H	 3.3160060197	-2.4101151329	-1.1844736859	 0.11485
H	 2.0949017926	-5.0372578464	-0.027943683	 0.096801
51.1499	88.4527	98.1039	160.8981	233.6458	271.7668	331.6994	405.9751	422.2671	474.6179	687.7638	713.7904	763.6498	808.6341	842.1244	903.5459	923.6038	966.0179	991.3512	999.2463	1018.6573	1048.8816	1082.3542	1095.2155	1108.6922	1134.7539	1161.0643	1169.5427	1181.7287	1207.901	1213.6927	1229.8973	1256.7468	1297.0523	1310.6807	1346.7797	1378.212	1390.2912	1420.492	1473.3583	1481.3255	1485.8931	1500.9094	1505.6032	1525.2153	2956.7207	2972.9078	2995.0923	3014.8293	3028.9475	3058.0654	3096.4376	3112.9976	3125.8827	3169.9936	3179.3162	3215.0074
COCC1CC2CC2O1	COC[C@H]1C[C@H]2C[C@H]2O1	
InChI=1S/C7H12O2/c1-8-4-6-2-5-3-7(5)9-6/h5-7H,2-4H2,1H3	InChI=1S/C7H12O2/c1-8-4-6-2-5-3-7(5)9-6/h5-7H,2-4H2,1H3/t5-,6+,7+/m0/s1
