17
gdb 34534	3.97549	1.17157	0.99227	1.6475	84.35	-0.2279	-0.0331	0.1948	1182.5008	0.136421	-384.658873	-384.65115	-384.650206	-384.690945	30.4	
C	 0.0342701686	-1.2162354125	 0.0917469846	-0.40334
C	-0.0298596555	-0.0134607479	 0.0412509441	 0.216952
C	-0.0449377808	 1.4050381917	-0.0248751546	 0.12385
C	-1.1927489764	 2.1064565982	 0.0312760009	-0.138543
C	-1.195025705	 3.5840414892	-0.02443435	 0.007054
O	-0.3063799001	 4.2866596636	 0.8824281381	-0.25616
C	 0.0160738567	 4.2766012096	-0.5040938015	 0.055363
C	 1.1966798334	 3.4343661927	-0.9291151557	-0.255083
C	 1.2915185402	 2.1210007207	-0.128996119	-0.308872
H	 0.073327252	-2.2761318112	 0.140875564	 0.19445
H	-2.1452703011	 1.5940561758	 0.1106282179	 0.100277
H	-2.1620892874	 4.0681210312	-0.1387636584	 0.093403
H	-0.1012071602	 5.2376896757	-1.006518127	 0.091898
H	 1.0855429224	 3.2190409164	-1.999955122	 0.11202
H	 2.1276123395	 4.0004568169	-0.8152097817	 0.112416
H	 1.6459692769	 2.3431323591	 0.8835078763	 0.140145
H	 2.0318108867	 1.4580911907	-0.5841392561	 0.114169
105.3695	153.2042	201.5547	289.1012	347.6036	405.9249	467.2331	528.8576	549.6699	594.4825	634.7162	639.1766	674.5538	763.6529	783.6709	833.1653	877.1587	915.5542	966.7173	976.2644	1047.3496	1055.4853	1076.6329	1138.4972	1166.2119	1216.7682	1262.8955	1276.8615	1323.635	1351.9425	1380.4786	1388.5856	1452.2483	1477.4964	1484.5516	1674.3948	2216.1108	3027.3858	3048.8484	3072.35	3098.3996	3102.2611	3139.7976	3191.7579	3503.3294
C#CC1=CC2OC2CC1	C#CC1=C[C@H]2O[C@H]2CC1	
InChI=1S/C8H8O/c1-2-6-3-4-7-8(5-6)9-7/h1,5,7-8H,3-4H2	InChI=1S/C8H8O/c1-2-6-3-4-7-8(5-6)9-7/h1,5,7-8H,3-4H2/t7-,8+/m0/s1
