12
gdb 130537	3.89331	1.34102	0.99745	1.4009	79.86	-0.2237	-0.1104	0.1133	1065.5592	0.076953	-431.659322	-431.651941	-431.650997	-431.69146	26.736	
O	-0.5516908063	 1.1648819751	 0.0138226592	-0.319082
N	 2.2829409605	 2.6302061349	-0.0044873952	-0.177436
N	 2.2797411528	 1.5020172998	-0.0111361286	 0.269877
C	 2.3367526999	 0.187180819	-0.0187019575	-0.139608
C	 1.1664378523	-0.6029170533	-0.0120369569	 0.19492
N	 1.1474394872	-1.9005105959	-0.0189516661	-0.335543
C	-0.2345086602	-2.2545162217	-0.0079203844	-0.004849
C	-1.1044564144	-1.2215513781	 0.0059014601	-0.254974
C	-0.2755924274	-0.0127721835	 0.0047428514	 0.337192
H	 3.3339052343	-0.231770107	-0.0304255432	 0.175022
H	-0.4734432693	-3.3112010298	-0.0114608469	 0.128061
H	-2.1819615394	-1.2415174795	 0.0159110781	 0.126422
94.8973	131.637	201.2026	265.1627	311.4354	465.7757	477.8954	495.5566	534.9669	642.6338	691.0334	737.6648	737.8631	796.5281	832.9335	981.6665	1002.4993	1084.8918	1132.671	1169.9039	1307.9549	1347.6344	1428.5747	1543.1663	1620.2831	1802.4501	2230.6613	3214.1475	3222.0856	3272.6552	94.8971	131.6368	201.2023	265.1623	311.4352	465.7764	477.8954	495.5567	534.9672	642.6343	691.0335	737.6647	737.8631	796.5282	832.9344	981.6659	1002.5003	1084.8921	1132.6707	1169.904	1307.9552	1347.6343	1428.575	1543.1667	1620.2837	1802.4496	2230.6611	3214.1475	3222.0856	3272.6552
O1N=NC=C2N=CC=C12	O=C1C(=NC=C1)[CH][N][N]	
InChI=1S/C5H3N3O/c1-2-6-4-3-7-8-9-5(1)4/h1-3H	InChI=1S/C5H3N3O/c6-8-3-4-5(9)1-2-7-4/h1-3H
