13
gdb 21732	3.76494	1.94105	1.32586	6.3259	55.73	-0.2579	-0.0334	0.2245	856.2396	0.097227	-431.873265	-431.866582	-431.865638	-431.904254	24.818	
N	-0.5988635894	 0.960353707	 0.0128283365	-0.52987
H	-0.7415114423	-0.0429620311	 0.0516945705	 0.254456
H	 0.2170446343	 1.121704267	-0.5708466768	 0.256289
H	-1.9329767852	 2.2410998323	-0.576558753	 0.310362
C	-0.3744104563	 1.5032946505	 1.3692058368	-0.280564
C	-0.5633488967	 2.9877248723	 1.325895212	 0.247181
N	 0.0322488442	 3.8500448561	 2.0966184796	-0.156703
O	-0.4625885282	 5.0729265008	 1.7425036735	-0.160265
N	-1.3779481598	 4.977423324	 0.7125111945	-0.165413
C	-1.4487551901	 3.700657202	 0.4500349022	 0.345305
O	-2.2268325552	 3.1765815397	-0.4950996015	-0.405869
H	-1.1340405267	 1.0620177986	 2.0252371832	 0.146526
H	 0.6046147813	 1.2583166709	 1.7993897526	 0.138564
106.1542	218.8133	249.8011	319.5484	372.0679	432.3819	494.7062	614.1304	676.1806	750.4719	757.0147	789.9547	905.3318	908.9994	937.4521	1002.321	1039.064	1059.9275	1176.0144	1267.3902	1304.0573	1362.9237	1411.3348	1492.1363	1506.3714	1569.4391	1656.041	1680.4894	3025.8737	3065.0859	3436.325	3503.7479	3586.3707
[NH3+]CC1=NON=C1[O-]	NCc1nonc1O	
InChI=1S/C3H5N3O2/c4-1-2-3(7)6-8-5-2/h1,4H2,(H,6,7)	InChI=1S/C3H5N3O2/c4-1-2-3(7)6-8-5-2/h1,4H2,(H,6,7)
