20
gdb 117454	6.00881	0.54729	0.52843	4.4715	79.75	-0.2497	-0.0197	0.23	2086.5055	0.168321	-440.335166	-440.324372	-440.323428	-440.373905	36.439	
C	-0.0816780166	 1.311682261	 0.5179585752	-0.372276
C	 0.0193096635	 0.0717332033	-0.3731135573	-0.146496
N	-1.2552466031	-0.6101963148	-0.5470197396	-0.317932
C	-1.5576696532	-1.7848049003	 0.0724209245	 0.429988
O	-0.7691857703	-2.3943251365	 0.7742931974	-0.375317
C	-2.9858171787	-2.2870581517	-0.1595117294	-0.338963
C	-3.0358837122	-3.8199410862	-0.2043144105	-0.260148
C	-4.4308716429	-4.3494988244	 0.0164258861	 0.158119
O	-5.0008102844	-5.1319780869	-0.698762593	-0.240413
H	 0.8958806102	 1.7954343237	 0.6093444324	 0.123067
H	-0.7808686276	 2.0462078804	 0.103324504	 0.11146
H	-0.4259812042	 1.0403739319	 1.5200023088	 0.134199
H	 0.4132865998	 0.3432116623	-1.3596350046	 0.108149
H	 0.6963126834	-0.6632102386	 0.0667089222	 0.152845
H	-1.9724260091	-0.1528241935	-1.0863106346	 0.243804
H	-3.589737443	-1.9242208314	 0.6841888551	 0.133419
H	-3.419456449	-1.8518451148	-1.0663638776	 0.11001
H	-2.647097431	-4.2145631673	-1.146576322	 0.124153
H	-2.394137133	-4.1847110816	 0.609369628	 0.154801
H	-4.9244960685	-3.9513067849	 0.9364155548	 0.067532
21.7376	36.0637	60.1758	78.888	116.0281	171.3921	227.1778	282.3692	313.0852	382.6983	440.5408	462.4889	525.8467	619.5973	698.0366	780.9169	800.3986	851.6025	903.1765	932.813	1022.1154	1058.0229	1088.5386	1090.1193	1126.4621	1171.9987	1193.024	1227.0931	1255.3943	1317.8726	1326.3892	1373.5235	1395.7904	1410.9224	1429.8285	1458.9136	1473.9848	1482.1998	1492.4591	1501.85	1546.3249	1775.4595	1838.0772	2836.4713	3017.2694	3032.6491	3035.0313	3037.4753	3069.8339	3098.2864	3110.5221	3117.6378	3129.8235	3637.8294
CCNC(=O)CCC=O	CCNC(=O)CCC=O	
InChI=1S/C6H11NO2/c1-2-7-6(9)4-3-5-8/h5H,2-4H2,1H3,(H,7,9)	InChI=1S/C6H11NO2/c1-2-7-6(9)4-3-5-8/h5H,2-4H2,1H3,(H,7,9)
