18
gdb 47052	2.89945	1.59062	1.34452	3.6612	70.92	-0.2199	0.0096	0.2295	997.9263	0.150048	-439.097537	-439.09017	-439.089225	-439.129626	28.555	
O	-0.3013493016	 0.4313973915	 0.9582904676	-0.325696
C	-0.1983228568	 1.2803203481	 0.1179971295	 0.404081
C	-1.3119065509	 1.7225772416	-0.8358056703	-0.322692
N	-1.3682217567	 3.1674021558	-1.002019785	-0.090122
C	-1.5347731906	 3.9742850617	 0.2398148151	-0.171475
C	-0.2765949526	 4.8011938522	-0.1200393235	-0.249382
C	-0.0533146305	 3.8084772398	-1.2897017863	 0.026635
C	 1.1033181279	 2.8275593056	-1.1535205541	-0.115821
O	 0.9615389488	 1.9882538803	 0.0035446592	-0.221078
H	-1.1618858397	 1.2478864067	-1.8144096126	 0.13086
H	-2.2564382075	 1.3463639894	-0.4371780863	 0.142457
H	-2.4858108672	 4.5146078409	 0.2715067674	 0.108462
H	-1.4315858077	 3.3964156781	 1.1671735271	 0.119476
H	-0.4770387471	 5.82474682	-0.4390823333	 0.114018
H	 0.5079862349	 4.8087885156	 0.638371042	 0.119867
H	-0.0053385054	 4.26412198	-2.2870967658	 0.082984
H	 1.1768404722	 2.1967854921	-2.0490255682	 0.117852
H	 2.0576553906	 3.3465497805	-1.0309729826	 0.129573
81.0434	125.8649	214.5692	341.7318	354.6687	422.1294	469.4457	519.4844	601.2718	703.4564	738.7398	769.9484	806.7896	832.5884	879.9348	938.3757	968.4222	1015.6942	1034.622	1066.2123	1106.5075	1124.8724	1145.424	1192.9909	1213.7712	1222.6347	1243.0053	1267.2907	1290.2149	1301.5416	1330.1002	1341.0244	1369.0659	1408.3338	1463.9706	1482.9267	1503.991	1520.3819	1855.9701	3011.2238	3019.3404	3024.8427	3031.9512	3071.9907	3082.7098	3098.0279	3115.9885	3138.1961
O=C1CN2CCC2CO1	O=C1CN2CC[C@H]2CO1	
InChI=1S/C6H9NO2/c8-6-3-7-2-1-5(7)4-9-6/h5H,1-4H2	InChI=1S/C6H9NO2/c8-6-3-7-2-1-5(7)4-9-6/h5H,1-4H2/t5-/m0/s1
