18
gdb 50836	3.33478	0.92769	0.78341	4.3301	75.58	-0.242	-0.0243	0.2178	1452.0041	0.146313	-439.108109	-439.098654	-439.097709	-439.144923	31.901	
O	 0.6856051396	-0.1137578566	-0.0350669082	-0.240779
C	 0.3312445594	 1.0062056253	-0.2942314585	 0.166732
C	 1.0848920533	 2.2545434248	 0.1402046561	-0.394194
C	 1.1252621337	 3.2716711759	-0.9991226323	 0.357798
O	 0.1040094908	 3.6460837932	-1.5546701343	-0.383279
N	 2.3491202646	 3.7111299153	-1.3653801782	-0.068746
C	 3.7339548633	 3.4646150306	-0.9451847453	-0.173272
C	 4.1927327377	 4.4644387643	-2.047010336	-0.244318
C	 2.6951154809	 4.6602905517	-2.424687182	-0.160026
H	-0.5879593904	 1.219919001	-0.8764072619	 0.111808
H	 0.4995793626	 2.7166431912	 0.9463128603	 0.155827
H	 2.0614105804	 1.9698006375	 0.5356745514	 0.124303
H	 3.9502043883	 3.7702982348	 0.0844005473	 0.120577
H	 4.0660829756	 2.430133502	-1.083968855	 0.126635
H	 4.6875045155	 5.3583244532	-1.6674696634	 0.122481
H	 4.8065435946	 4.0214101505	-2.8310541017	 0.123709
H	 2.4041425974	 4.3219092904	-3.423907041	 0.12798
H	 2.2865634528	 5.662587495	-2.2628591375	 0.126765
21.1178	55.9358	85.9861	115.1466	139.6131	185.2913	248.4551	367.4816	453.952	563.7464	602.8697	734.3346	765.9354	819.3756	845.639	886.094	935.2913	956.4234	1005.3952	1055.1954	1080.5635	1138.1869	1143.2656	1189.3904	1197.6484	1202.6134	1229.5852	1270.6161	1271.9369	1301.8522	1338.317	1404.7156	1438.9062	1463.7774	1493.3194	1510.031	1532.2833	1749.6582	1834.4433	2938.0652	3029.5754	3036.6078	3048.1192	3072.4986	3089.4894	3097.4941	3125.2915	3152.5521
O=CCC(=O)N1CCC1	O=CCC(=O)N1CCC1	
InChI=1S/C6H9NO2/c8-5-2-6(9)7-3-1-4-7/h5H,1-4H2	InChI=1S/C6H9NO2/c8-5-2-6(9)7-3-1-4-7/h5H,1-4H2
