20
gdb 124538	3.57403	0.95903	0.90603	3.1321	82.59	-0.2029	0.0412	0.2441	1400.4629	0.171824	-399.359435	-399.349769	-399.348825	-399.39423	35.79	
C	-0.0815310922	 1.5863963477	 0.1878146062	-0.384785
C	-0.058276643	 0.0582896866	 0.0062111213	-0.063213
C	 0.9070849772	-0.602405393	 1.0056096061	-0.385175
C	-1.4398118901	-0.5302301738	 0.102375818	 0.36613
N	-1.9878169882	-1.1230040965	-0.9519913789	-0.312288
N	-3.216035974	-1.5201509447	-0.5168622304	-0.249266
C	-3.4511873706	-1.1900950476	 0.7768177757	 0.397398
N	-4.6295238184	-1.5748354846	 1.4232495444	-0.606466
C	-2.3165900275	-0.5391373877	 1.2203448169	-0.375117
H	 0.9231189824	 2.0066229556	 0.0701873526	 0.10653
H	-0.7388667736	 2.0601932133	-0.5471197385	 0.118119
H	-0.4424220889	 1.859670648	 1.1857678061	 0.108892
H	 0.2925434425	-0.1610005624	-1.0086224703	 0.088456
H	 1.9195084213	-0.2008282144	 0.8897823023	 0.106501
H	 0.592632777	-0.4188405586	 2.0391938795	 0.109489
H	 0.9491442918	-1.6852572663	 0.8565088793	 0.119253
H	-3.7991937116	-2.0703298638	-1.123294569	 0.264616
H	-5.467749993	-1.3224513333	 0.9122925428	 0.248834
H	-4.6842688559	-1.187162072	 2.355543927	 0.254986
H	-2.1569801751	-0.1195663225	 2.2006970588	 0.087106
37.6343	118.1173	168.8467	174.3974	225.9472	256.9138	270.7893	310.3525	378.9027	402.8751	476.4311	495.3931	597.8203	666.5713	727.0839	738.7964	763.0729	790.5925	894.3475	930.8333	964.1499	991.6453	1046.2628	1068.0372	1108.4692	1122.5381	1139.2833	1186.0502	1201.602	1326.0222	1346.7676	1349.3743	1395.8816	1415.8975	1439.0375	1482.4755	1486.9045	1489.8202	1501.8581	1516.2907	1540.2697	1619.9326	1659.4908	3026.6617	3030.6392	3044.3988	3090.8324	3098.7586	3107.5305	3109.8001	3256.4945	3528.1918	3626.2364	3678.8979
CC(C)C1=NNC(N)=C1	CC(C)c1n[nH]c(N)c1	
InChI=1S/C6H11N3/c1-4(2)5-3-6(7)9-8-5/h3-4H,1-2H3,(H3,7,8,9)	InChI=1S/C6H11N3/c1-4(2)5-3-6(7)9-8-5/h3-4H,1-2H3,(H3,7,8,9)
