17
gdb 40206	3.12656	1.59348	1.27513	0.9895	67.26	-0.2488	0.0515	0.3003	994.7257	0.136658	-458.916142	-458.908914	-458.90797	-458.948072	27.785	
C	 0.2263190732	 1.4792465126	-0.024051709	-0.248254
O	 1.2123188735	 0.4466785093	 0.0956683558	-0.27173
C	-0.1627754441	 0.0718394638	-0.0303361686	 0.409776
C	-0.8123422276	-0.6734664578	 1.1239194719	-0.167489
O	-0.8640137446	-2.0396426093	 0.7050456939	-0.268096
C	-0.9893455959	-2.0828521045	-0.7021980533	 0.067881
C	-2.3726277443	-1.7238408069	-1.2881090529	-0.108303
O	-1.8966090406	-0.4229507041	-1.7120273701	-0.294867
C	-0.5514929364	-0.7087013999	-1.2660271818	-0.014004
H	 0.0653483381	 2.076247148	 0.8729101472	 0.119497
H	 0.2395979915	 2.039766462	-0.9573725384	 0.125601
H	-0.2216394897	-0.6142406336	 2.0405036703	 0.129067
H	-1.8227445776	-0.2846395206	 1.3184088526	 0.108207
H	-0.5196630564	-2.9990054961	-1.0600859152	 0.101103
H	-2.6925487285	-2.3343698642	-2.1409257918	 0.107202
H	-3.1862089039	-1.6584660361	-0.55699762	 0.112356
H	 0.1901765931	-0.6429897525	-2.0661841705	 0.092052
86.7642	152.5777	209.5515	297.1476	354.8121	405.4313	453.9465	553.7704	663.7097	800.107	808.5371	853.859	861.7814	900.6167	937.7473	967.1173	974.5104	1011.3407	1020.6662	1061.4354	1069.611	1121.19	1126.1606	1161.7246	1169.3617	1222.3623	1235.6819	1242.5682	1263.0682	1284.4207	1328.7526	1344.7692	1375.624	1450.607	1500.2463	1512.3493	1537.1506	2998.2333	3023.6733	3075.3463	3083.5706	3084.4101	3110.5565	3118.215	3170.9153
C1OC11COC2COC12	C1O[C@]21CO[C@H]1CO[C@@H]21	
InChI=1S/C6H8O3/c1-4-5(7-1)6(2-8-4)3-9-6/h4-5H,1-3H2	InChI=1S/C6H8O3/c1-4-5(7-1)6(2-8-4)3-9-6/h4-5H,1-3H2/t4-,5+,6-/m0/s1
