23
gdb 68287	2.68568	1.4258	1.32968	0.1946	89.99	-0.2703	0.0884	0.3587	1135.5175	0.206622	-351.104051	-351.095658	-351.094714	-351.136662	33.998	
C	-0.0133320152	 1.4871889465	 0.014393642	-0.519552
C	 0.0319720263	-0.0176257034	-0.000060319	 0.268855
C	 0.6803367281	-0.9439440629	-1.0779617518	-0.266552
C	 0.07607462	-1.9074753907	-0.0182984252	-0.112666
C	 0.6660992075	-0.9649850068	 1.0679723518	-0.266536
C	-1.1834448104	-0.996938738	-0.0175891678	 0.416977
C	-2.2856373805	-1.0873296648	 1.0689064755	-0.322908
C	-3.2892270798	-1.5177881277	-0.0364146725	-0.21545
C	-2.2713676857	-1.0658918649	-1.1199165194	-0.322926
H	 0.9956571698	 1.9139289264	 0.0252204463	 0.118008
H	-0.5297232522	 1.87598096	-0.8707969219	 0.116822
H	-0.5413766118	 1.8586102099	 0.9001677386	 0.116821
H	 0.2240186514	-0.9433788553	-2.0710895748	 0.089222
H	 1.7723278368	-0.9173546581	-1.1442286989	 0.082178
H	 0.1001194337	-2.9987269165	-0.0288453652	 0.063835
H	 1.7571096452	-0.9398432639	 1.1492148507	 0.082163
H	 0.1966446174	-0.9838346045	 2.0547834859	 0.089228
H	-2.1261824738	-1.787759118	 1.8932203599	 0.096702
H	-2.5312981121	-0.1087485717	 1.4957947934	 0.09666
H	-3.4506082586	-2.5989341887	-0.0480534882	 0.101209
H	-4.2640789471	-1.0250900028	-0.0379464685	 0.094555
H	-2.5115582521	-0.0791026775	-1.5307202666	 0.096656
H	-2.1011004369	-1.7500609965	-1.9556450542	 0.096698
87.3211	183.088	191.9402	205.9991	254.0598	325.2485	372.6539	459.5706	549.9727	587.6429	629.6495	701.4952	754.063	771.6626	808.7111	866.9606	890.3484	905.4291	944.0416	946.4814	960.4262	983.6074	1012.0841	1022.656	1039.2563	1058.3252	1107.1069	1127.4315	1141.5891	1163.9527	1179.7884	1184.5194	1209.4358	1215.4331	1231.7759	1245.1629	1255.2418	1271.6061	1278.6355	1300.6819	1346.0591	1409.2404	1471.6359	1480.4993	1489.6656	1490.6948	1496.9398	1504.6308	1537.8917	3022.4027	3037.3164	3041.1116	3044.2126	3049.248	3061.4205	3086.4987	3087.6102	3090.8834	3091.0891	3094.4044	3109.3008	3112.0599	3116.4888
CC12CC(C1)C21CCC1	C[C@@]12C[C@@H](C1)C12CCC1	
InChI=1S/C9H14/c1-8-5-7(6-8)9(8)3-2-4-9/h7H,2-6H2,1H3	InChI=1S/C9H14/c1-8-5-7(6-8)9(8)3-2-4-9/h7H,2-6H2,1H3/t7-,8+
