18
gdb 60955	3.58883	0.93393	0.77465	2.0982	74.36	-0.247	-0.0357	0.2112	1419.3407	0.144241	-439.079225	-439.069892	-439.068948	-439.114312	33.155	
C	 0.8690743009	-0.4026741492	-1.15133266	-0.410528
C	 0.0214919339	-0.029652699	 0.0740717531	-0.039319
C	-0.0135299449	 1.4919459632	 0.1711316621	 0.162343
O	 0.6675250989	 2.1443893666	 0.9165955716	-0.243838
N	-1.3392429542	-0.5157796653	-0.0724297701	-0.100045
C	-2.2495415871	-0.3734702677	 1.0938721532	-0.301215
C	-2.7168022726	-1.811578028	 0.8299887548	 0.40133
O	-3.6067250696	-2.5016740761	 1.2203174983	-0.273768
C	-1.5637447531	-1.9806433448	-0.1715137863	-0.294712
H	 1.8923511083	-0.0384146397	-1.0296004303	 0.139522
H	 0.9061851788	-1.4888156293	-1.275884791	 0.13037
H	 0.4426371071	 0.0297352478	-2.0618180448	 0.133543
H	 0.5128548989	-0.4082365787	 0.9893613329	 0.076485
H	-0.7237209213	 1.9617689045	-0.5474037419	 0.086753
H	-1.7355406806	-0.2877422064	 2.0651973115	 0.130841
H	-2.9978640618	 0.4214277865	 1.0148491935	 0.139877
H	-1.8128188607	-2.356248989	-1.1687588901	 0.138364
H	-0.757800381	-2.5999754556	 0.2551484037	 0.123997
52.2561	75.9453	93.7632	172.4218	230.2428	256.6426	291.7113	378.9803	409.1346	437.5078	465.5896	512.2138	690.1527	767.7053	774.7866	892.4048	928.2694	949.422	1027.6003	1051.1639	1060.7825	1079.8886	1093.3684	1142.6613	1153.1083	1167.0775	1221.7525	1257.7215	1295.9629	1313.4776	1350.6357	1396.2164	1409.9561	1457.6356	1483.2747	1491.5193	1498.746	1840.069	1925.7029	2876.7153	2937.248	2976.5485	2985.1421	3042.655	3077.6387	3078.7068	3114.7277	3127.5587
CC(C=O)N1CC(=O)C1	C[C@@H](C=O)N1CC(=O)C1	
InChI=1S/C6H9NO2/c1-5(4-8)7-2-6(9)3-7/h4-5H,2-3H2,1H3	InChI=1S/C6H9NO2/c1-5(4-8)7-2-6(9)3-7/h4-5H,2-3H2,1H3/t5-/m0/s1
