14
gdb 32370	4.82182	1.02975	0.8574	2.9103	68.26	-0.2505	-0.0848	0.1656	1249.1363	0.101077	-473.855822	-473.848091	-473.847147	-473.888575	28.202	
O	 0.4901907288	 0.659718669	-0.8862382697	-0.404794
C	-0.0355645193	 0.1637952586	 0.3299372314	-0.150426
C	-1.4272106373	-0.40656492	 0.1871849	 0.179132
C	-2.0039051699	-0.6372118304	-1.0095871398	 0.020159
O	-3.2471273553	-1.1494443927	-1.1251762865	-0.201425
C	-3.9874567071	-1.4715712172	 0.0081379471	 0.393559
O	-5.0918896567	-1.9215365781	-0.1163835538	-0.324269
C	-3.2842483888	-1.2017117465	 1.2698885524	-0.116746
N	-2.097983898	-0.7051809534	 1.3597662135	-0.250583
H	 0.0449165282	 1.4897176859	-1.0863311461	 0.290721
H	 0.6513928014	-0.623539326	 0.662091868	 0.14005
H	-0.0469999001	 0.9229412912	 1.1252894834	 0.118996
H	-1.5337135258	-0.4455306583	-1.9646532319	 0.15821
H	-3.83361576	-1.4474108022	 2.175416912	 0.147416
75.9463	109.014	188.819	279.2084	334.967	380.2057	391.5046	484.5382	526.2865	541.7883	635.5282	764.1133	791.8844	796.6948	895.0918	948.9074	951.4402	992.2411	1084.7174	1125.8214	1201.5845	1232.6282	1251.5375	1307.6038	1376.7757	1398.6213	1415.9503	1494.0592	1581.8535	1678.1957	1845.7504	3005.8935	3060.7833	3168.6906	3235.1149	3813.9878
OCC1=COC(=O)C=N1	OCc1coc(=O)cn1	
InChI=1S/C5H5NO3/c7-2-4-3-9-5(8)1-6-4/h1,3,7H,2H2	InChI=1S/C5H5NO3/c7-2-4-3-9-5(8)1-6-4/h1,3,7H,2H2
