16
gdb 75808	3.13587	1.28905	1.0715	2.2334	64.67	-0.2542	-0.0069	0.2473	1113.6894	0.12431	-475.011296	-475.003071	-475.002127	-475.044629	29.809	
N	 0.1765580023	 1.3584078064	-0.3942066172	-0.511357
C	 0.1017757202	-0.0375762988	-0.0448026623	-0.253357
C	 0.0947230054	-0.5001076846	 1.4293496568	 0.420081
O	 0.7487544673	-0.362394996	 2.4111528373	-0.319995
O	-1.0935690869	-1.1857702722	 1.2937492078	-0.27288
C	-1.2791834728	-0.7339999192	-0.0786633983	 0.372456
C	-2.5821069296	-0.0041615813	-0.4247484807	-0.128316
O	-2.8820451749	-0.9705661696	-1.4544608891	-0.269301
C	-1.7300585557	-1.7680172211	-1.1151048676	-0.13361
H	-0.2426809154	 1.9433343987	 0.3215768154	 0.245527
H	 1.1410653939	 1.6545266825	-0.4905355088	 0.251896
H	 0.8449122631	-0.5951488352	-0.6225153385	 0.124969
H	-3.3207632818	-0.0077151449	 0.3857755318	 0.118496
H	-2.4630746194	 1.0072357242	-0.8291033349	 0.122225
H	-1.0622518407	-1.9207446558	-1.9714269895	 0.111474
H	-2.0009587749	-2.7376094929	-0.6795092922	 0.121692
80.6501	89.5976	191.7406	194.9453	245.5151	289.7755	365.4166	443.8085	481.0605	572.7455	712.3399	779.2351	807.5451	844.2732	879.9735	931.8876	943.9304	982.6091	1036.3401	1070.2955	1075.515	1150.2937	1157.4509	1165.6607	1197.3236	1240.0912	1246.0558	1271.8824	1306.1407	1385.6051	1426.8753	1493.4066	1519.5655	1670.2102	1938.7534	3015.4834	3027.8695	3067.5667	3077.3258	3080.0065	3513.5058	3595.4547
NC1C(=O)OC11COC1	N[C@H]1C(=O)OC21COC2	
InChI=1S/C5H7NO3/c6-3-4(7)9-5(3)1-8-2-5/h3H,1-2,6H2	InChI=1S/C5H7NO3/c6-3-4(7)9-5(3)1-8-2-5/h3H,1-2,6H2/t3-/m0/s1
