14
gdb 56114	4.1623	0.80128	0.68244	5.8289	66.06	-0.2659	-0.0578	0.2082	1528.2509	0.099355	-470.037009	-470.027464	-470.026519	-470.073541	31.969	
N	-0.0130094868	 1.2697038341	-0.1042861881	-0.52666
C	 0.0526679351	-0.070182374	 0.1454318672	 0.381457
O	 1.0718189931	-0.6513978586	 0.4362425296	-0.325087
C	-1.3170584038	-0.7541334459	 0.0865574842	-0.175986
O	-1.0925974474	-2.1527277621	-0.0604218935	-0.203036
C	-2.1824292558	-2.9229684285	-0.0086798641	 0.336725
N	-3.3595621579	-2.4772450281	 0.1483777034	-0.521037
C	-1.8403304143	-4.3266764357	-0.1589299846	 0.261597
N	-1.6497790858	-5.4603769809	-0.2751735973	-0.312414
H	 0.8449713296	 1.7962997663	-0.0801783374	 0.270828
H	-0.8395038278	 1.716219964	-0.4619795675	 0.264314
H	-1.8725083693	-0.5586367869	 1.0108557328	 0.159872
H	-1.929252751	-0.3856272133	-0.7443154428	 0.133915
H	-4.045390798	-3.2283826004	 0.1657502979	 0.255511
22.1747	52.5744	102.7805	140.126	162.0362	216.579	278.9725	344.7735	394.5735	490.5643	547.4129	580.9455	622.9181	667.165	733.876	838.9381	855.3005	930.4392	1008.8932	1044.3327	1095.76	1134.2884	1257.0408	1295.165	1374.3071	1423.8421	1489.9516	1621.129	1701.3563	1831.035	2359.7988	3039.8675	3081.6971	3534.3561	3601.7077	3735.1074
NC(=O)COC(=N)C#N	NC(=O)CO[C]([NH])C#N	
InChI=1S/C4H5N3O2/c5-1-4(7)9-2-3(6)8/h7H,2H2,(H2,6,8)	InChI=1S/C4H5N3O2/c5-1-4(7)9-2-3(6)8/h7H,2H2,(H2,6,8)
