18
gdb 10631	2.46602	1.9052	1.34727	4.8034	73.15	-0.2518	0.0248	0.2766	991.5261	0.152637	-343.970351	-343.961536	-343.960592	-344.003412	31.999	
C	-0.2117159808	 1.4736659819	 0.0658922199	-0.393061
C	 0.23803353	 0.0097963585	 0.1327413289	-0.26109
C	 0.7683482793	-0.5312503625	-1.192313998	 0.152452
C	 0.6765341571	-2.0005886018	-1.4988308778	-0.280147
N	-0.0924324695	-1.0461517078	-2.2707278511	-0.094883
C	-1.5412618861	-1.0304890991	-2.1262649611	-0.322074
C	 1.9279266658	 0.1909283486	-1.6900376591	 0.284611
N	 2.860588434	 0.7730945784	-2.0479567776	-0.349055
H	 0.6069287852	 2.1207819335	-0.2624073787	 0.148718
H	-1.0440869835	 1.6064615091	-0.631730474	 0.124189
H	-0.5401031258	 1.8180437866	 1.050580927	 0.12164
H	 1.0363910138	-0.0975342017	 0.8763493787	 0.12432
H	-0.5828281845	-0.6268736187	 0.4744569067	 0.108386
H	 1.482996837	-2.5070244755	-2.0213906423	 0.136893
H	 0.1591105413	-2.6018130381	-0.7508154545	 0.115982
H	-1.9084989508	-1.2844930268	-1.121086442	 0.107631
H	-1.9218613403	-0.0424932048	-2.4000855215	 0.13815
H	-1.9552280321	-1.7596299797	-2.8291726435	 0.137338
98.0223	142.4781	156.9229	188.5051	211.1204	253.3677	303.2052	365.5029	398.1799	471.4003	569.1113	582.2939	660.7843	764.0103	812.1453	890.7585	909.4103	998.8612	1042.1028	1070.2971	1113.106	1128.7422	1146.6855	1159.8941	1200.6393	1253.1899	1292.9216	1349.5433	1383.488	1418.2198	1450.767	1478.1331	1489.2886	1499.6587	1503.2767	1505.7929	1513.3353	2353.4464	2992.2567	3043.4772	3045.6038	3078.4259	3085.7851	3089.4335	3113.5048	3116.8812	3121.307	3184.4849
CCC1(CN1C)C#N	CC[C@]1(CN1C)C#N	
InChI=1S/C6H10N2/c1-3-6(4-7)5-8(6)2/h3,5H2,1-2H3	InChI=1S/C6H10N2/c1-3-6(4-7)5-8(6)2/h3,5H2,1-2H3/t6-,8?/m1/s1
