18
gdb 17926	2.88844	2.32881	2.32219	1.8855	70.76	-0.234	0.0781	0.3121	767.6264	0.154992	-347.762228	-347.755627	-347.754683	-347.792484	26.783	
C	-0.0420144774	 1.5689972541	-0.0128031847	-0.540891
C	 0.0048786263	 0.0703400492	-0.0113544356	 0.334208
C	 0.6250925443	-0.8827653972	-1.1193702037	-0.103873
C	 1.5257608759	-1.5176063191	-0.0263356405	-0.238119
C	 0.6390980455	-0.8703755508	 1.061085577	 0.060955
O	-0.6058047719	-1.5834853179	 1.2344972159	-0.307914
C	-1.19087677	-0.9285787663	 0.0868186841	 0.060955
C	-0.7513161081	-1.5900305744	-1.238636706	-0.238119
H	 0.9657921056	 1.9986812453	-0.0500093308	 0.120963
H	-0.5936452687	 1.9490849437	-0.8805149217	 0.120963
H	-0.5344445181	 1.9506142081	 0.8890423525	 0.126332
H	 1.1010657265	-0.5293946753	-2.0345048091	 0.065297
H	 1.6257994646	-2.6062616248	-0.000768616	 0.099969
H	 2.5219015166	-1.0617139659	-0.0282549327	 0.097855
H	 1.0771528494	-0.5734163743	 2.0172361639	 0.071797
H	-2.24224506	-0.678990356	 0.2500093476	 0.071797
H	-1.3272351267	-1.184139016	-2.0775091859	 0.097855
H	-0.7743246739	-2.6825995524	-1.2785799643	 0.099969
214.1631	219.6423	223.2281	351.3689	372.7131	426.8727	595.5338	652.4202	699.183	821.7274	839.9762	845.4775	873.3624	878.0635	943.9717	949.3886	962.4758	1001.8655	1027.8524	1109.9494	1115.4159	1116.5282	1158.9001	1164.406	1171.285	1180.6759	1202.0727	1253.5096	1280.6001	1285.0516	1324.2019	1340.9534	1371.2848	1413.0803	1463.0741	1475.3084	1489.1775	1489.6043	3019.2323	3041.2516	3041.2542	3074.5632	3079.5252	3083.4179	3085.9923	3098.813	3099.979	3105.1623
CC12C3CC1OC2C3	C[C@@]12[C@H]3C[C@@H]1O[C@@H]2C3	
InChI=1S/C7H10O/c1-7-4-2-5(7)8-6(7)3-4/h4-6H,2-3H2,1H3	InChI=1S/C7H10O/c1-7-4-2-5(7)8-6(7)3-4/h4-6H,2-3H2,1H3/t4-,5-,6+,7+
