15
gdb 56453	2.38486	1.44588	1.00074	4.0513	67.11	-0.2857	-0.0321	0.2536	1149.9251	0.111624	-453.942492	-453.933755	-453.932811	-453.976724	30.73	
O	 0.1830894291	 1.4038438158	-0.0704950909	-0.403271
C	 0.0338218037	 0.0202992191	-0.017382352	-0.074589
C	 0.6714459482	-0.6439140414	-1.1775004306	 0.267781
N	 1.1751059855	-1.1792940203	-2.0695356071	-0.326265
C	 0.6750353944	-0.5183616107	 1.2930779627	 0.355546
O	 1.3324568029	 0.2450170213	 1.9696119828	-0.348205
N	 0.3491061555	-1.7935976616	 1.6502543675	-0.075303
C	 0.5933603412	-3.0535451177	 0.9666032744	-0.239447
C	 1.2135640218	-2.7480616753	 2.3011052695	-0.222846
H	 0.8217186641	 1.6098249698	 0.6360139022	 0.306345
H	-1.0302459731	-0.2508082923	-0.022011117	 0.148988
H	-0.2574787441	-3.725870679	 0.9108842529	 0.143561
H	 1.2319319648	-3.0354323784	 0.089535784	 0.172501
H	 2.2729112514	-2.5102647867	 2.3309995262	 0.152425
H	 0.8122188247	-3.2116482724	 3.1968387456	 0.142778
49.3768	98.6386	145.2431	179.0133	215.7842	256.1971	336.3839	425.5058	449.329	485.792	590.3269	607.0414	695.7263	810.1198	845.9927	921.0484	956.8347	986.4612	1055.8504	1112.7664	1137.1417	1145.6669	1155.8344	1177.2227	1178.436	1241.4782	1344.2333	1422.432	1456.2539	1497.6084	1526.5446	1783.7384	2349.5914	3030.7042	3123.857	3128.5917	3212.938	3227.1996	3634.5656
OC(C#N)C(=O)N1CC1	O[C@@H](C#N)C(=O)N1CC1	
InChI=1S/C5H6N2O2/c6-3-4(8)5(9)7-1-2-7/h4,8H,1-2H2	InChI=1S/C5H6N2O2/c6-3-4(8)5(9)7-1-2-7/h4,8H,1-2H2/t4-/m0/s1
