15
gdb 130218	3.06231	1.36879	1.03269	1.1868	68.81	-0.2141	-0.042	0.1721	1102.9188	0.114135	-450.140798	-450.132584	-450.13164	-450.174004	29.661	
N	 0.2024669407	 1.3707820678	-0.0957600889	-0.60478
C	 0.1407102145	-0.0089328335	-0.0687786094	 0.282977
N	-0.9992248139	-0.6999273835	-0.0554209127	-0.283319
N	-0.5774211689	-1.9678811302	 0.037880147	-0.090048
N	 0.7279738743	-2.1576429844	 0.0812549639	-0.262099
C	 1.224244432	-0.9202683298	 0.0220781072	 0.252711
C	 2.691450954	-0.6111373141	 0.0347223279	-0.388557
C	 3.0688487088	-0.0317898553	-1.320712383	 0.141972
O	 2.8713205133	 1.1197866637	-1.6283018146	-0.241841
H	 1.0106049296	 1.726758238	-0.5931159146	 0.270193
H	-0.6603153276	 1.8051038156	-0.3916062968	 0.255221
H	-1.2269256119	-2.734121854	 0.0880983102	 0.290925
H	 2.916477267	 0.1393540524	 0.8013516747	 0.140673
H	 3.2568949291	-1.5233757075	 0.2379341668	 0.13409
H	 3.4989593888	-0.7477416752	-2.0527438478	 0.101883
83.3923	100.4873	138.8926	234.0876	287.3979	349.5475	387.1836	424.5873	451.7499	523.5736	638.604	692.0087	714.4088	753.0466	786.3617	911.8953	964.4273	999.3187	1050.2125	1108.3046	1183.9145	1193.2138	1251.3328	1270.7976	1305.3658	1411.7199	1417.6815	1459.4251	1462.4669	1553.7742	1591.4173	1659.8539	1807.5703	2911.0857	3042.2996	3120.4064	3528.6374	3644.1892	3684.8106
NC1=NNN=C1CC=O	Nc1n[nH]nc1CC=O	
InChI=1S/C4H6N4O/c5-4-3(1-2-9)6-8-7-4/h2H,1H2,(H3,5,6,7,8)	InChI=1S/C4H6N4O/c5-4-3(1-2-9)6-8-7-4/h2H,1H2,(H3,5,6,7,8)
