19
gdb 39348	2.87213	1.72975	1.29379	1.8553	73.47	-0.2487	0.0806	0.3293	1005.0776	0.1618	-423.021026	-423.013739	-423.012795	-423.05287	28.705	
C	-0.0341200154	 1.5266550923	 0.2851968818	-0.243629
C	 1.4019420435	 2.0339942636	-0.0415754601	-0.255848
C	 2.0686761454	 0.9505310726	-0.9203757156	-0.084307
C	 1.9498144679	 1.0246332419	-2.4459855375	-0.086936
O	 2.004066957	-0.3355697226	-2.8981876598	-0.269447
C	 1.4616650512	-1.2043102039	-1.8984438249	-0.171286
C	 1.2380044993	-0.3023582165	-0.7046811252	 0.426755
O	 1.0332235424	-0.7201620731	 0.632881519	-0.326848
C	-0.0100987991	 0.0433591996	-0.0221589479	-0.034383
H	-0.3257331204	 1.7436887697	 1.3172479151	 0.114667
H	-0.7832119972	 1.9947452397	-0.36445591	 0.10804
H	 1.3885393167	 3.0161375436	-0.5233609789	 0.104713
H	 1.974983309	 2.1431992621	 0.8816242252	 0.119046
H	 3.1169171493	 0.7929001172	-0.6461782731	 0.086397
H	 0.9981008514	 1.4956425572	-2.7434426853	 0.086584
H	 2.7653207075	 1.5639945496	-2.9346185388	 0.111088
H	 0.5356849627	-1.6731215114	-2.2563300482	 0.104065
H	 2.1872401669	-1.9979891527	-1.6806189203	 0.114569
H	-0.9339561381	-0.507549189	-0.1812752752	 0.09676
91.724	165.0364	199.2022	282.898	359.8304	420.6473	521.7443	574.2225	654.1194	698.3677	770.3843	798.3674	850.9306	877.4953	920.7809	923.9813	956.1857	989.9749	1012.8407	1048.3856	1071.0413	1079.2529	1092.8082	1133.5302	1174.5772	1200.0936	1219.4469	1228.9762	1240.1061	1287.6033	1303.7396	1314.6735	1335.3149	1346.2429	1358.6176	1400.0501	1473.5657	1492.2093	1494.8133	1516.5156	1526.2062	2965.9874	3011.8576	3040.7558	3047.1052	3053.7631	3065.8994	3082.2971	3092.0594	3110.1429	3145.6205
C1CC2COCC22OC12	C1C[C@@H]2COC[C@]32O[C@@H]13	
InChI=1S/C7H10O2/c1-2-6-7(9-6)4-8-3-5(1)7/h5-6H,1-4H2	InChI=1S/C7H10O2/c1-2-6-7(9-6)4-8-3-5(1)7/h5-6H,1-4H2/t5-,6+,7-/m1/s1
