14
gdb 8875	2.8841	1.57411	1.11312	1.8653	56.	-0.2655	-0.1168	0.1487	1011.9275	0.1042	-456.81746	-456.808889	-456.807944	-456.851145	29.506	
O	 0.4431235734	 1.0998542219	-0.0268857565	-0.410725
C	 0.1685329345	-0.2733384363	 0.0789550351	-0.07796
C	-1.366583408	-0.4964718861	 0.0655585914	 0.01607
O	-1.914607708	 0.1695290792	-1.0492879507	-0.442167
C	-1.7125008048	-1.9672055876	 0.0130895678	 0.264161
O	-2.1967643358	-2.4709066297	-0.9784568577	-0.29933
C	-1.4308831399	-2.850556707	 1.229069049	 0.095373
O	-0.9269006665	-2.4393840961	 2.240484733	-0.208977
H	-0.0833063121	 1.4174439508	-0.772107844	 0.29519
H	 0.6148943941	-0.8450195454	-0.7521945015	 0.088855
H	 0.5932086934	-0.6301239334	 1.0202331843	 0.135648
H	-1.7754316175	-0.0593239625	 0.986011013	 0.123066
H	-2.1778792362	-0.5205744968	-1.6773703044	 0.298525
H	-1.7430145468	-3.904524821	 1.0798875411	 0.12227
65.4346	114.7922	127.8831	156.3851	216.4792	319.4227	340.4217	398.038	461.5963	505.5228	524.9531	594.6849	673.3457	832.1044	908.8682	984.7068	1066.8278	1092.7521	1116.6385	1180.45	1224.5306	1268.1576	1314.882	1366.801	1382.7873	1428.2564	1431.2809	1505.8195	1783.0796	1820.8381	2940.0421	2962.2568	3035.8083	3110.5576	3709.0948	3773.1198
OCC(O)C(=O)C=O	OC[C@@H](O)C(=O)C=O	
InChI=1S/C4H6O4/c5-1-3(7)4(8)2-6/h1,4,6,8H,2H2	InChI=1S/C4H6O4/c5-1-3(7)4(8)2-6/h1,4,6,8H,2H2/t4-/m1/s1
