13
gdb 130719	2.64183	1.76719	1.05888	4.6958	73.69	-0.2577	-0.101	0.1567	1025.7612	0.091133	-452.764115	-452.756976	-452.756032	-452.79659	26.132	
O	-0.0589786683	-0.0864203855	 0.0377618829	-0.30205
C	 0.006085231	 1.1179285319	 0.0073216882	 0.334868
N	-1.1988158597	 1.8306585888	 0.1374840097	-0.27
N	-1.6169267777	 3.1000987199	 0.1633890454	-0.191207
C	-0.8413656157	 4.128077761	 0.051578537	 0.016245
C	 0.5821104251	 4.2329549716	-0.1200158139	-0.080046
C	 1.5198583547	 3.2655242568	-0.2136215035	-0.155432
C	 1.3696108223	 1.8138447426	-0.16834856	 0.264064
O	 2.3332683	 1.0852177337	-0.2695579428	-0.284622
H	-1.9693040124	 1.1797105674	 0.2416547545	 0.279052
H	-1.3852489863	 5.067633065	 0.0985670918	 0.131289
H	 0.936453962	 5.2590694569	-0.1817004392	 0.123561
H	 2.5570331951	 3.5601360498	-0.34293398	 0.134277
48.0114	106.8521	323.7626	346.6653	359.4349	417.7566	446.2699	534.0498	627.9048	639.0584	758.3357	762.6303	788.176	860.7323	878.342	941.9737	985.6144	1044.8797	1089.8983	1196.1311	1239.0617	1324.6393	1429.9589	1455.3343	1482.5567	1610.2674	1680.7611	1755.818	1793.6283	3155.9782	3172.3836	3187.0957	3558.6775
O=C1NN=CC=CC1=O	O=c1[nH]ncccc1=O	
InChI=1S/C5H4N2O2/c8-4-2-1-3-6-7-5(4)9/h1-3H,(H,7,8,9)	InChI=1S/C5H4N2O2/c8-4-2-1-3-6-7-5(4)9/h1-3H,(H,7,8,9)
