15
gdb 12440	3.53587	1.99043	1.36845	1.1782	62.1	-0.2493	-0.0327	0.2166	862.567	0.119601	-399.810974	-399.803783	-399.802839	-399.843027	25.939	
O	-0.0020750737	-0.011068993	 0.3712247548	-0.289727
C	-0.047245555	 1.1720396036	 0.1268642535	 0.371616
C	-1.3546250978	 1.9357552407	 0.0549876906	-0.304325
C	-1.4871751199	 2.8648257086	-1.1669363073	-0.173278
N	-0.6954882643	 4.0863637745	-1.0825381233	-0.210561
C	 0.5613649608	 4.0066215771	-1.0731060512	 0.100308
O	 1.3317041493	 2.8752495991	-1.1254147572	-0.22782
C	 1.264570982	 1.9473809166	-0.0385554164	-0.169234
H	-2.161699464	 1.1989555106	 0.0695670837	 0.130524
H	-1.4437802352	 2.5482908525	 0.9628797846	 0.132743
H	-1.2239171211	 2.310536153	-2.0784043996	 0.12342
H	-2.5357288115	 3.159165114	-1.2587265378	 0.119228
H	 1.167349907	 4.9133480695	-1.088685815	 0.124114
H	 1.4680626635	 2.4705638236	 0.9086916176	 0.125864
H	 2.0604271599	 1.2223088395	-0.2110331269	 0.147129
51.1141	144.8534	196.4812	279.2887	330.729	427.5609	465.6967	554.2795	644.4213	713.815	798.4477	843.4563	899.7648	949.2941	966.0094	992.1024	1043.8052	1091.6278	1142.7901	1183.2357	1238.1697	1278.5169	1296.1185	1332.0111	1369.9574	1385.5867	1403.0322	1454.8734	1468.829	1502.57	1740.1231	1811.2807	2993.8747	3014.6372	3027.4367	3086.6744	3107.1495	3132.8299	3136.4174
O=C1CCN=COC1	O=C1CCN=COC1	
InChI=1S/C5H7NO2/c7-5-1-2-6-4-8-3-5/h4H,1-3H2	InChI=1S/C5H7NO2/c7-5-1-2-6-4-8-3-5/h4H,1-3H2
