19
gdb 41831	2.31258	2.21716	1.91856	1.2848	78.19	-0.2113	0.0206	0.2319	868.7571	0.163808	-385.892665	-385.886319	-385.885375	-385.922872	27.483	
C	-0.008728416	 1.5316520308	 0.0443287331	-0.053978
O	 1.2961410863	 2.0857273978	-0.1083500425	-0.254089
C	 2.1636977335	 1.4263118009	-0.9790139304	 0.104013
C	 1.7869670872	 0.1672500721	-1.6970906821	-0.10168
C	 0.4269375827	-0.4294792839	-1.4082230514	-0.227733
C	 0.0096390744	-0.0046214858	 0.0168936074	-0.10842
C	 1.0143511935	-0.5428461822	 1.0149163837	-0.099777
C	 2.317355744	-0.4964909955	 0.7221259245	-0.021961
C	 2.7978799713	 0.0984074761	-0.5447644335	-0.129854
H	-0.3723129567	 1.9099968936	 1.0043014011	 0.106242
H	-0.6788174761	 1.9081335315	-0.7476124101	 0.081809
H	 2.8104434373	 2.1390607458	-1.4820657269	 0.097204
H	 2.1794370741	 0.0297582528	-2.6998702078	 0.086173
H	-0.3111635658	-0.0659213818	-2.1326926636	 0.097519
H	 0.4630932119	-1.5218210148	-1.4887651999	 0.100626
H	-0.9997510374	-0.3664214955	 0.2385406957	 0.071128
H	 0.6608655176	-0.9526699723	 1.9553283032	 0.08511
H	 3.0613078091	-0.8716851916	 1.4184162847	 0.087883
H	 3.842594089	-0.0478029581	-0.796271735	 0.079786
205.0772	293.3644	360.7136	396.2047	440.2198	524.6002	584.8155	659.5941	676.7147	733.2388	763.0937	797.5874	807.9014	875.0701	905.6915	929.1791	938.2923	966.1192	982.7279	1017.1404	1042.9434	1066.0885	1071.6817	1100.6923	1122.502	1125.0145	1181.6609	1204.6184	1243.1723	1248.6963	1280.7851	1334.3062	1343.653	1353.4094	1377.0332	1400.2959	1422.4451	1433.3743	1489.363	1511.303	1693.9985	2954.6135	3027.152	3054.4155	3067.1986	3078.7647	3144.2999	3151.8654	3161.1302	3171.2209	3188.5366
C1OC2C3CC1C=CC23	C1O[C@@H]2[C@@H]3C[C@H]1C=C[C@H]23	
InChI=1S/C8H10O/c1-2-6-7-3-5(1)4-9-8(6)7/h1-2,5-8H,3-4H2	InChI=1S/C8H10O/c1-2-6-7-3-5(1)4-9-8(6)7/h1-2,5-8H,3-4H2/t5-,6+,7-,8+/m1/s1
