25
gdb 122549	4.8048	0.64375	0.61961	0.2471	93.27	-0.2485	0.0887	0.3372	1943.0483	0.22928	-352.335878	-352.326051	-352.325106	-352.371333	37.127	
C	-0.1110748771	 1.5914495747	 0.0215706112	-0.379517
C	 0.0739985723	 0.0738301079	-0.06170491	-0.162905
C	 0.6807317002	-0.5315404026	 1.2089123936	-0.155476
C	 0.8686027659	-2.0515428168	 1.133345103	-0.20582
C	 1.482081544	-2.6481199042	 2.3973468396	 0.027765
C	 0.6493676406	-2.6794312942	 3.7309186924	-0.249852
C	 0.8893027439	-4.1913672075	 3.8252133961	-0.036718
C	 0.3279854777	-4.8756862408	 2.6126953451	-0.27342
C	 1.6541200798	-4.1728748946	 2.4997460848	-0.070244
H	 0.846620344	 2.0987057915	 0.1840118938	 0.112175
H	-0.5484363281	 1.9936588333	-0.8977659514	 0.109464
H	-0.7722810481	 1.8640933866	 0.8517988774	 0.112328
H	-0.894611113	-0.4033047748	-0.2622288179	 0.092937
H	 0.7141133968	-0.1716130929	-0.9195346115	 0.092832
H	 1.6507782536	-0.0546489346	 1.4094233914	 0.088101
H	 0.0413858171	-0.2848139763	 2.067904705	 0.094271
H	-0.1002982193	-2.5262433646	 0.9295330186	 0.089944
H	 1.5118328133	-2.2965494898	 0.2763005792	 0.089473
H	 2.4426568129	-2.157686973	 2.5914800872	 0.068028
H	 1.1175769173	-2.1049438066	 4.5330023197	 0.099429
H	-0.401111361	-2.3752970953	 3.6554895908	 0.089464
H	 1.1188138906	-4.7345061249	 4.7339080335	 0.080986
H	 0.3868077619	-5.9596188024	 2.6196833437	 0.106977
H	-0.5619621885	-4.4872082567	 2.1228230807	 0.102464
H	 2.5523926433	-4.7141031413	 2.2250815636	 0.077314
59.2266	75.5831	96.9189	140.3646	196.0107	241.3903	264.2886	312.9257	403.2046	425.2722	525.0997	670.5947	734.8104	775.9633	787.6704	800.7269	838.3323	884.5153	904.0942	939.6541	961.4074	963.1983	1004.1158	1015.3112	1031.2265	1042.0804	1063.433	1067.4157	1082.0797	1101.9706	1128.7818	1140.9128	1180.6912	1214.8	1238.7328	1247.5951	1262.3912	1278.9467	1305.0577	1315.8086	1331.9015	1347.615	1370.5484	1390.2485	1400.3248	1412.3916	1480.3668	1484.3215	1485.76	1498.4323	1499.4099	1502.9085	1512.4296	3001.3424	3006.7351	3016.3486	3025.1793	3028.0601	3032.1028	3035.2496	3045.5081	3061.6263	3094.4004	3099.3881	3103.4982	3107.1306	3168.1147	3180.8192	3197.6293
CCCCC1CC2CC12	CCCC[C@H]1C[C@H]2C[C@@H]12	
InChI=1S/C9H16/c1-2-3-4-7-5-8-6-9(7)8/h7-9H,2-6H2,1H3	InChI=1S/C9H16/c1-2-3-4-7-5-8-6-9(7)8/h7-9H,2-6H2,1H3/t7-,8-,9-/m0/s1
