19
gdb 30432	2.28663	1.49096	0.91806	3.1783	83.52	-0.1762	0.0355	0.2117	1297.999	0.157572	-419.235716	-419.22553	-419.224586	-419.272898	34.687	
C	-0.1122353677	 1.3979340294	-0.1171545005	-0.314374
N	-0.024276105	-0.0483628542	-0.0273599321	-0.396137
C	 0.5748607875	-0.6632676483	-0.9570071902	 0.503129
O	 1.1684435404	-0.1036946934	-2.0728470223	-0.259132
C	 1.7138594754	-1.127524171	-2.8414030174	 0.323943
C	 2.4032537764	-0.7413237081	-4.0933367372	-0.488952
C	 1.4721691399	-2.294161157	-2.2304943303	-0.219225
N	 0.765331452	-2.0282731667	-1.0576250053	-0.121049
C	 0.2905333387	-2.9786327485	-0.0803317874	-0.345599
H	 0.8758697465	 1.8810750789	-0.1344234835	 0.107664
H	-0.6476237367	 1.7335578679	-1.0175961959	 0.107664
H	-0.6538812227	 1.7764093161	 0.7539461337	 0.111697
H	 3.2476968256	-0.0706599773	-3.8952186684	 0.140329
H	 2.7832835349	-1.6320354387	-4.5993454356	 0.134345
H	 1.7259878794	-0.2180495794	-4.7786247088	 0.14033
H	 1.7372831116	-3.2969386305	-2.5198667351	 0.141879
H	-0.4148624359	-3.6894938942	-0.5259585475	 0.128366
H	 1.1201042121	-3.5380096697	 0.3673792989	 0.128372
H	-0.2187119724	-2.4092510552	 0.6982410148	 0.176749
14.6031	55.8957	101.9007	160.5031	171.086	188.989	207.2937	258.9292	292.8039	344.668	559.833	588.5986	610.183	641.0912	719.317	749.896	831.708	953.1462	1018.3774	1054.1372	1067.4222	1088.9729	1103.0149	1124.0603	1157.8988	1168.4935	1199.0794	1284.9602	1352.8465	1414.4415	1430.2762	1448.4695	1465.7378	1466.6793	1491.7165	1495.397	1496.9616	1500.9414	1514.4493	1728.5848	1794.5092	2981.564	3021.0415	3023.7333	3025.6193	3073.173	3073.7778	3093.0333	3125.3174	3150.291	3280.5998
CN=C1OC(C)=CN1C	CN=c1oc(C)cn1C	
InChI=1S/C6H10N2O/c1-5-4-8(3)6(7-2)9-5/h4H,1-3H3	InChI=1S/C6H10N2O/c1-5-4-8(3)6(7-2)9-5/h4H,1-3H3
