19
gdb 113048	5.24482	0.74082	0.69727	5.2781	78.12	-0.2355	0.022	0.2575	1617.9742	0.158079	-419.174619	-419.165174	-419.16423	-419.209856	33.213	
C	-0.0714749977	 1.3881510771	-0.2624022048	-0.240226
O	-0.064411154	 0.0998214034	 0.312554588	-0.23925
C	-1.2961647351	-0.5591300151	 0.2152344675	 0.137583
C	-1.5815963348	-1.2608281531	-1.1462323834	-0.208555
N	-1.1145034673	-2.5302407087	-0.5528224226	-0.069071
C	-1.8470844782	-3.7322161586	-0.8784717223	-0.291538
C	-1.2840021898	-4.9065133056	-0.2009106858	 0.278876
N	-0.8579306839	-5.8293672004	 0.3473833446	-0.302799
C	-1.2112199285	-1.9769060789	 0.8163189385	-0.198586
H	 0.9211012945	 1.8161433319	-0.1064195282	 0.134796
H	-0.2771513731	 1.3598907389	-1.3428905231	 0.108438
H	-0.8209234366	 2.0392558119	 0.2143878163	 0.107088
H	-2.1083125338	 0.0782395311	 0.5890950318	 0.07335
H	-2.6542181914	-1.2561038782	-1.3992638992	 0.088071
H	-1.0044679593	-0.9266884401	-2.0146601872	 0.11552
H	-2.9231890547	-3.675842239	-0.6158739724	 0.12175
H	-1.7934161801	-3.9007707364	-1.9607915428	 0.156128
H	-0.3437143819	-2.1740374084	 1.4509504008	 0.133649
H	-2.1313378744	-2.2655513718	 1.3471906243	 0.094777
51.231	74.7464	106.4273	147.2535	198.0254	251.0526	296.2394	334.9434	390.7882	396.3303	465.5535	520.8426	736.9213	830.0714	860.0635	923.648	938.7083	989.5692	1003.7127	1023.6493	1099.6763	1108.7851	1140.766	1158.5617	1183.4741	1188.8687	1227.7554	1253.7284	1254.5752	1275.8085	1294.9154	1337.0521	1387.4964	1399.3258	1470.9545	1482.2948	1485.7457	1490.085	1508.4561	1511.8064	2367.3731	2899.728	2971.4604	2975.8452	2987.379	3017.2192	3024.7335	3055.4499	3068.8344	3098.4233	3122.1168
COC1CN(CC#N)C1	COC1CN(CC#N)C1	
InChI=1S/C6H10N2O/c1-9-6-4-8(5-6)3-2-7/h6H,3-5H2,1H3	InChI=1S/C6H10N2O/c1-9-6-4-8(5-6)3-2-7/h6H,3-5H2,1H3
