21
gdb 112760	2.28055	1.2191	0.90258	0.6999	84.65	-0.2534	0.0488	0.3022	1356.4509	0.180502	-387.04458	-387.034489	-387.033544	-387.079665	37.393	
C	-0.0352752371	 1.5847471567	-0.1548059752	-0.413568
C	 0.0886058855	 0.0788657037	-0.0066677616	 0.040599
C	 1.0732630143	-0.7024899212	-0.915286309	-0.232788
C	 1.4092475277	-1.623783876	 0.2826745565	 0.046112
C	 2.8346194432	-2.0963706225	 0.4729510635	-0.110413
O	 3.1228956267	-2.9990267006	-0.5879556399	-0.425693
C	 0.8206269542	-0.5346840757	 1.2522447572	-0.245691
C	 1.8024970666	 0.3345879465	 1.8749612938	 0.369351
C	 2.609049542	 1.0616268406	 2.3946011911	-0.503127
H	 0.9385977339	 2.0726049634	-0.0542879872	 0.126109
H	-0.4451687791	 1.8394146187	-1.1385117317	 0.112269
H	-0.7008769059	 2.0091898928	 0.6048388097	 0.11469
H	-0.9029411608	-0.3834389963	-0.0606785116	 0.076624
H	 0.6750688366	-1.1681031971	-1.8187085763	 0.101806
H	 1.9348414732	-0.08411978	-1.1895801407	 0.101975
H	 0.746290226	-2.4946161484	 0.2894441503	 0.084152
H	 3.5162620642	-1.2336421291	 0.46364063	 0.094838
H	 2.9387954347	-2.5853555807	 1.4557179842	 0.085574
H	 4.0502385756	-3.2453604307	-0.5267702305	 0.286345
H	 0.1503807602	-0.9250875382	 2.0243982659	 0.096026
H	 3.3184060185	 1.7000524842	 2.8600105216	 0.194813
68.0573	93.7005	120.1654	152.1647	210.4071	238.3484	257.313	305.7514	366.3954	386.8385	419.9032	483.5851	601.6654	616.8424	623.5532	691.0933	773.863	810.5259	890.6547	900.9588	944.4015	969.3607	1006.0525	1068.4224	1074.7143	1122.9199	1128.7335	1145.197	1164.3426	1217.0902	1231.8172	1254.9658	1267.2252	1275.0157	1286.8981	1346.4141	1358.381	1386.1541	1413.7995	1461.6845	1488.2699	1493.5131	1496.6561	1521.276	2223.014	2965.3207	3012.6553	3029.9725	3040.2915	3050.8583	3052.5748	3066.6353	3093.1769	3110.7371	3116.4151	3503.2919	3831.2349
CC1CC(CO)C1C#C	C[C@H]1C[C@@H](CO)[C@H]1C#C	
InChI=1S/C8H12O/c1-3-8-6(2)4-7(8)5-9/h1,6-9H,4-5H2,2H3	InChI=1S/C8H12O/c1-3-8-6(2)4-7(8)5-9/h1,6-9H,4-5H2,2H3/t6-,7-,8-/m0/s1
