18
gdb 46769	2.56524	1.8643	1.26707	3.5487	76.1	-0.2372	0.0172	0.2544	1002.2975	0.151424	-402.01279	-402.005599	-402.004655	-402.044606	28.367	
O	-0.1405117709	 0.2519938959	 0.8406980006	-0.389825
C	-0.0969364885	 1.3598907839	 0.3488078861	 0.406659
N	-1.1700498682	 2.1545684358	 0.0647451754	-0.300502
C	-0.8683955725	 3.4461201155	-0.5187368146	-0.183224
C	 0.6663234462	 3.5740137187	-0.3170298793	-0.065619
C	 1.0851932646	 4.292573612	 0.9466853013	-0.072217
C	 1.8929394884	 3.5573151373	 1.7092211084	-0.059019
C	 2.1818879091	 2.2035344351	 1.107489594	-0.26801
C	 1.1697564956	 2.1287019198	-0.0586885285	-0.142326
H	-2.1060881067	 1.8217001717	 0.2318034723	 0.250326
H	-1.1361693796	 3.4809146109	-1.5835754582	 0.104161
H	-1.4138401977	 4.251048896	-0.0124402514	 0.110208
H	 1.1147192405	 4.043400877	-1.1996023725	 0.084185
H	 0.7631820097	 5.3056277634	 1.1647150358	 0.092421
H	 2.3309951404	 3.8829613323	 2.6464364821	 0.096841
H	 3.2194053363	 2.1434113917	 0.7540439541	 0.105041
H	 2.036732138	 1.3708865279	 1.8042323432	 0.133879
H	 1.587339255	 1.6401490752	-0.9431462687	 0.097022
86.6561	140.4664	227.0397	300.7086	426.5078	474.6247	518.8341	570.395	655.2441	698.5862	732.1359	783.1776	804.6313	854.8186	866.6977	934.9504	950.5455	975.1569	1003.5165	1023.3653	1042.3245	1080.2268	1096.5773	1130.8183	1170.0322	1212.5468	1230.7582	1251.4618	1265.5549	1303.7452	1307.9608	1330.8889	1360.4232	1382.0605	1452.6203	1490.7944	1533.9209	1683.0601	1821.6468	3002.8176	3022.8247	3039.3631	3050.5355	3071.5364	3079.5401	3177.2766	3204.0687	3644.086
O=C1NCC2C=CCC12	O=C1NC[C@H]2C=CC[C@@H]12	
InChI=1S/C7H9NO/c9-7-6-3-1-2-5(6)4-8-7/h1-2,5-6H,3-4H2,(H,8,9)	InChI=1S/C7H9NO/c9-7-6-3-1-2-5(6)4-8-7/h1-2,5-6H,3-4H2,(H,8,9)/t5-,6-/m1/s1
