15
gdb 48010	4.79458	0.7461	0.72962	4.5411	77.59	-0.2535	-0.0669	0.1866	1534.7739	0.110787	-420.547296	-420.539014	-420.53807	-420.581779	29.111	
O	-0.4837823674	 0.4879586913	-0.8460762271	-0.224758
C	-0.0114668578	 1.0960649186	 0.0861405652	 0.024124
C	 1.1858719282	 1.8942906925	 0.0184602084	 0.020632
C	 2.1846345404	 2.5745980023	-0.0013081286	 0.150146
C	 3.3787366545	 3.3992992066	-0.0166895178	-0.079362
O	 4.0762683789	 3.4412629996	-1.2971675466	-0.28393
C	 4.0382078959	 4.8737230946	-1.2833350621	 0.110222
C	 2.6310133713	 5.3690333725	-1.3409210939	-0.298558
C	 3.2191294722	 4.9272505269	-0.016433631	-0.133725
H	-0.4841558109	 1.0799359107	 1.0894307267	 0.101977
H	 4.0752049577	 3.0617835359	 0.760813601	 0.123088
H	 4.9246155086	 5.4035229359	-1.60906126	 0.11524
H	 2.5170122494	 6.4446818027	-1.4325456699	 0.123794
H	 1.8709031566	 4.7761908111	-1.8405901335	 0.136807
H	 3.2834325023	 5.5557494088	 0.8601707492	 0.114302
40.8643	79.1977	94.7731	194.5222	226.0772	349.6701	415.2159	444.854	539.3483	670.2923	724.8316	772.2412	808.2668	870.9544	941.1566	955.7028	984.0654	1005.5281	1019.6275	1041.6325	1048.691	1061.8507	1088.0347	1160.0152	1192.4281	1239.0043	1270.5344	1349.0624	1355.9537	1421.4252	1472.4863	1769.502	2319.391	2917.8643	3031.5092	3124.8583	3194.2792	3213.0541	3221.1698
O=CC#CC1OC2CC12	O=CC#C[C@H]1O[C@H]2C[C@@H]12	
InChI=1S/C7H6O2/c8-3-1-2-6-5-4-7(5)9-6/h3,5-7H,4H2	InChI=1S/C7H6O2/c8-3-1-2-6-5-4-7(5)9-6/h3,5-7H,4H2/t5-,6+,7-/m0/s1
