16
gdb 46678	2.97543	1.7811	1.36794	4.7495	68.82	-0.2487	-0.0044	0.2443	931.0851	0.126982	-437.814585	-437.808151	-437.807207	-437.845336	26.111	
O	 0.0182869999	 0.0034590933	-0.0628550458	-0.332168
C	 0.0484172518	 1.1947209729	-0.0035966374	 0.360112
O	-1.0899157768	 1.960110801	 0.1599064611	-0.251187
C	-0.8475192185	 3.4067185986	 0.0964979946	-0.129433
C	 0.5264419974	 3.498656695	-0.5665234249	-0.047306
C	 1.9694024271	 3.8277213941	-0.0322026721	-0.070748
C	 1.693557675	 2.964515561	 1.2101957273	-0.234005
C	 1.1573195671	 2.2090131528	-0.0484013542	 0.182273
N	 2.4928960493	 2.5367665405	-0.6980996473	-0.382272
H	-1.6579813304	 3.82770192	-0.5010313838	 0.129145
H	-0.9079088654	 3.8124020398	 1.1089449019	 0.128513
H	 0.445873548	 3.5487985719	-1.6573466399	 0.088648
H	 2.5348225947	 4.7567301317	-0.1140935777	 0.097541
H	 2.5695317731	 2.5068010544	 1.6663936529	 0.129717
H	 0.9733536398	 3.3270596552	 1.9410407222	 0.114934
H	 2.3547902679	 2.6042281878	-1.7126648869	 0.216235
156.096	202.9266	310.769	356.2421	491.4197	552.397	596.9146	624.1171	687.7821	719.6972	749.1788	825.376	880.1747	895.5721	957.3313	967.2865	976.438	1018.1817	1040.5982	1054.2052	1097.5617	1115.156	1146.088	1161.9165	1198.4642	1207.6606	1211.9835	1265.2709	1272.4761	1300.613	1359.3989	1397.7085	1492.4632	1524.2057	1893.2261	3055.3856	3071.8513	3102.9216	3113.8308	3124.4496	3182.8608	3380.4275
O=C1OCC2C3CC12N3	O=C1OC[C@H]2[C@H]3C[C@@]12N3	
InChI=1S/C6H7NO2/c8-5-6-1-4(7-6)3(6)2-9-5/h3-4,7H,1-2H2	InChI=1S/C6H7NO2/c8-5-6-1-4(7-6)3(6)2-9-5/h3-4,7H,1-2H2/t3-,4+,6-/m0/s1
