19
gdb 10536	2.93362	1.3684	1.05751	4.0521	76.21	-0.2828	0.0373	0.3201	1179.1512	0.165062	-327.94124	-327.932412	-327.931467	-327.974852	32.145	
C	-0.0730823833	 1.585226157	-0.0550558889	-0.382858
C	-0.181452579	 0.0618720408	-0.1581557546	-0.171204
C	 0.8737073212	-0.5425824788	-1.0927191261	-0.261974
C	 0.7888647492	-2.0607704336	-1.2160947415	 0.190884
C	-0.2008433735	-2.6716555024	-2.1991609727	-0.28406
C	 1.2681067911	-2.7339674484	-2.494074248	-0.304214
C	 1.0104650537	-2.7851522041	 0.0118424784	 0.244848
N	 1.1915263249	-3.3519517694	 1.0045534253	-0.355174
H	 0.9062470772	 1.8877685829	 0.3317116247	 0.119291
H	-0.2036603525	 2.0615307365	-1.0333625274	 0.113064
H	-0.8352924766	 1.9909769733	 0.6166459946	 0.118199
H	-0.077107903	-0.3850313561	 0.8376888152	 0.123991
H	-1.1808821513	-0.2166099768	-0.5155443841	 0.099679
H	 0.7656734467	-0.1172555905	-2.0982826072	 0.098618
H	 1.877309569	-0.2666420006	-0.7454095434	 0.114473
H	-0.7059421517	-3.5850386857	-1.9095453417	 0.140275
H	-0.8127009457	-1.9713907027	-2.7571212767	 0.127777
H	 1.6739769881	-2.0788279412	-3.256788677	 0.128066
H	 1.7690238153	-3.6901221005	-2.402495849	 0.14032
81.273	93.7443	140.5133	195.6979	227.3937	246.6766	318.2273	354.4986	401.8741	572.5834	589.7226	698.1988	749.2802	788.1285	858.6031	888.1005	909.591	936.7439	960.7078	987.6704	1052.2823	1066.2516	1091.2495	1114.4604	1132.8511	1194.1976	1249.4176	1283.4951	1309.5861	1326.7767	1355.8857	1396.9951	1415.7059	1466.3602	1480.7027	1493.1277	1499.0436	1500.9247	1510.9492	2346.4571	3020.3073	3028.4383	3032.4142	3051.9792	3072.1007	3098.4956	3107.1094	3142.1173	3145.7512	3227.6873	3241.3732
CCCC1(CC1)C#N	CCCC1(CC1)C#N	
InChI=1S/C7H11N/c1-2-3-7(6-8)4-5-7/h2-5H2,1H3	InChI=1S/C7H11N/c1-2-3-7(6-8)4-5-7/h2-5H2,1H3
