14
gdb 130696	3.29546	1.81034	1.17709	5.6068	69.19	-0.255	-0.0186	0.2364	956.8107	0.104757	-432.927753	-432.920924	-432.91998	-432.959892	25.206	
O	 0.0397511123	-0.0656391088	 0.0306102375	-0.365604
C	 0.0118756005	 1.1328548294	 0.0332616119	 0.49516
N	-1.0714200878	 1.980153538	 0.062265287	-0.37167
C	-0.7492579353	 3.4039322869	 0.055554958	-0.295483
C	 0.7495098798	 3.3434442933	 0.0177731886	 0.417667
C	 1.909732253	 4.0748396975	-0.0098643438	-0.398318
C	 2.9287992102	 3.0793915012	-0.036769219	 0.030216
N	 2.448179414	 1.839067236	-0.0267511602	-0.263832
N	 1.1177965842	 2.0341464447	 0.0065452007	-0.048993
H	-2.0045407948	 1.6089294402	 0.0840706141	 0.271716
H	-1.1702772314	 3.9130643251	-0.8205611185	 0.144229
H	-1.1256384003	 3.9113493952	 0.9527103842	 0.144252
H	 2.0301602399	 5.1455666026	-0.011209304	 0.116587
H	 3.9982045654	 3.2328565687	-0.0631663364	 0.124074
40.201	153.7186	246.4281	316.4062	375.1661	566.6524	643.1475	645.1138	661.9126	688.2001	756.1605	783.6091	800.3608	901.9026	952.526	1023.8844	1042.8484	1053.4262	1109.4081	1176.256	1190.0776	1240.8568	1305.2091	1339.7643	1350.9676	1405.1258	1450.5791	1468.6574	1513.5611	1608.399	1894.0201	3019.4539	3046.9831	3243.983	3275.061	3692.9701
O=C1NCC2=CC=NN12	O=C1NCc2ccnn12	
InChI=1S/C5H5N3O/c9-5-6-3-4-1-2-7-8(4)5/h1-2H,3H2,(H,6,9)	InChI=1S/C5H5N3O/c9-5-6-3-4-1-2-7-8(4)5/h1-2H,3H2,(H,6,9)
