20
gdb 102183	2.40621	1.05855	0.81929	4.0576	79.58	-0.2323	0.0381	0.2704	1428.2508	0.171208	-399.297314	-399.287408	-399.286463	-399.333203	35.207	
C	 0.413826395	-2.2640876995	 0.5913797088	-0.331124
N	 0.014549072	-1.0032166413	-0.0277003203	-0.264916
C	-1.4127690661	-0.7034032111	-0.0943365328	-0.023174
C	-2.1173259151	-1.6284066111	-1.1176594707	-0.347828
C	-1.5661228649	-1.5152807849	-2.4653052269	 0.275736
N	-1.1526421486	-1.4178121446	-3.5396256997	-0.309499
C	-2.1644465765	-0.7452054416	 1.2305104936	 0.019402
C	-2.1544434181	 0.4374913347	 2.1240258168	-0.257892
N	-3.3894280112	 0.0517358351	 1.4158960166	-0.320501
H	 1.5050161591	-2.3285928362	 0.5690957496	 0.131873
H	 0.0884167567	-2.397433506	 1.6355744141	 0.10496
H	 0.0347216985	-3.1102044781	 0.0094559861	 0.130334
H	 0.491119887	-0.2349001045	 0.4291384199	 0.225458
H	-1.4879896801	 0.322357333	-0.4799205676	 0.090545
H	-2.0508260441	-2.6726747693	-0.7936526796	 0.15103
H	-3.1845705677	-1.3848797779	-1.1510153912	 0.158248
H	-2.2318872246	-1.7293764326	 1.690254869	 0.09825
H	-2.1848785024	 0.3111047513	 3.202178611	 0.126146
H	-1.6198202808	 1.3237092293	 1.7885851632	 0.111627
H	-3.5248310482	 0.6678215052	 0.6157643199	 0.231323
44.5356	67.9861	106.9375	127.3449	182.1324	240.3152	268.5091	314.0076	363.411	397.5378	440.6501	521.4247	582.0654	715.4345	821.934	845.7716	876.668	938.4766	949.9283	956.1203	989.7	1028.0126	1056.9763	1125.9231	1142.5577	1152.0889	1164.8211	1193.4022	1195.2092	1245.8936	1257.3205	1286.5416	1313.1904	1353.3096	1376.2151	1426.421	1453.1806	1474.2353	1495.401	1496.1631	1511.0275	1524.7795	2365.922	2975.6256	3017.4276	3054.012	3072.1694	3091.4803	3104.1349	3111.2828	3125.6779	3191.5781	3474.2555	3544.5303
CNC(CC#N)C1CN1	CN[C@@H](CC#N)[C@H]1CN1	
InChI=1S/C6H11N3/c1-8-5(2-3-7)6-4-9-6/h5-6,8-9H,2,4H2,1H3	InChI=1S/C6H11N3/c1-8-5(2-3-7)6-4-9-6/h5-6,8-9H,2,4H2,1H3/t5-,6+/m0/s1
