20
gdb 114136	4.95451	0.8478	0.79309	3.7712	75.53	-0.2185	0.0573	0.2757	1460.6181	0.170528	-440.225201	-440.215726	-440.214782	-440.259654	34.935	
O	 0.0595605882	 1.3489691639	 0.4233645954	-0.424273
C	 0.111945925	-0.0486970647	 0.1574610797	-0.08877
C	-1.2725975481	-0.6773797366	 0.1029323658	 0.020059
C	-2.2211833482	-0.3016680872	-1.1008959791	-0.332085
C	-2.287726517	-1.7921350641	-1.4569860961	 0.378541
C	-3.4511061847	-2.5323170223	-2.0393761891	-0.216335
O	-3.1700923348	-3.923143265	-1.9531637611	-0.421942
N	-0.8983889791	-2.2083182746	-1.7453196547	-0.379879
C	-1.379124136	-2.146925677	-0.3350045212	-0.129876
H	-0.3388034953	 1.7730454112	-0.3432129807	 0.281629
H	 0.6515671619	-0.2655701987	-0.7736046217	 0.11025
H	 0.6857233577	-0.4853956457	 0.9829714645	 0.102611
H	-1.7882627486	-0.5074183407	 1.0523868716	 0.078728
H	-3.1744230935	 0.115804335	-0.7682498778	 0.102948
H	-1.7970493061	 0.3345074048	-1.884568363	 0.093235
H	-4.3679216047	-2.2735348364	-1.4854902138	 0.09612
H	-3.6018995612	-2.2216030695	-3.0867550441	 0.097313
H	-3.8384923654	-4.4007154364	-2.4519762874	 0.29566
H	-0.9627881465	-3.1907720914	-2.015545415	 0.238595
H	-1.3600914637	-3.0331934245	 0.2868589879	 0.097472
74.1248	111.0123	123.4861	160.7306	219.1937	233.9072	293.8756	312.5308	390.827	439.4324	450.0854	563.7487	671.2902	693.1332	817.2635	859.5438	896.0745	929.5755	960.0914	1005.6364	1012.4321	1029.4252	1053.0194	1073.0621	1089.947	1126.4709	1145.4794	1153.3899	1198.3926	1224.1137	1228.8515	1255.1032	1258.8307	1312.1031	1324.2815	1363.7236	1392.1541	1411.4456	1428.8198	1468.182	1488.3317	1507.9416	1517.1491	2959.8393	2987.5518	3020.5402	3046.21	3061.4836	3077.1674	3109.9925	3193.9237	3467.6977	3817.4768	3843.1277
OCC1CC2(CO)NC12	OC[C@H]1C[C@@]2(CO)N[C@@H]12	
InChI=1S/C6H11NO2/c8-2-4-1-6(3-9)5(4)7-6/h4-5,7-9H,1-3H2	InChI=1S/C6H11NO2/c8-2-4-1-6(3-9)5(4)7-6/h4-5,7-9H,1-3H2/t4-,5+,6+/m1/s1
