20
gdb 58974	3.73792	0.91869	0.88317	4.7237	82.92	-0.2365	-0.019	0.2175	1412.627	0.170736	-403.210133	-403.200542	-403.199598	-403.245653	34.748	
C	-0.0160405054	 1.5517417905	 0.0116719398	-0.391928
C	-0.0279530293	 0.0110145896	 0.0468672307	-0.076973
C	 0.7568225503	-0.5163347594	 1.2639772229	-0.391876
C	-1.4283739696	-0.5370618826	 0.0062664839	 0.360123
C	-1.9833378655	-1.3139125279	-0.9308400296	-0.364587
C	-3.3977332042	-1.6312585495	-0.58236141	 0.436919
O	-4.2040767355	-2.3047041084	-1.1895487539	-0.392492
N	-3.6131674911	-0.9802708985	 0.6154760732	-0.346115
C	-2.4562688072	-0.2623929811	 1.0904509156	-0.255767
H	 1.0126254965	 1.9224729778	-0.0371152107	 0.119017
H	-0.5580103561	 1.9333933351	-0.8584686941	 0.124891
H	-0.4765085243	 1.9758177769	 0.9106202759	 0.117241
H	 0.4770853703	-0.3482505018	-0.85808112	 0.087628
H	 0.7659581474	-1.6099050391	 1.287194401	 0.124883
H	 1.7934043862	-0.1668124835	 1.2277625421	 0.119023
H	 0.3222341893	-0.1608961996	 2.2046152785	 0.117209
H	-1.5191675867	-1.6885199721	-1.832726374	 0.113821
H	-4.4953575805	-1.0271051638	 1.0949694586	 0.251481
H	-2.1130692468	-0.6256666847	 2.0700392703	 0.12373
H	-2.6489408176	 0.814981182	 1.19715563	 0.123772
31.1945	58.23	126.0144	190.3978	226.5738	253.3029	290.2316	294.322	406.3258	428.5784	522.8273	552.6109	590.0889	702.6632	740.5636	847.8549	897.2908	903.8551	929.995	938.5652	963.1955	1007.4816	1028.8284	1083.9607	1115.7215	1155.5095	1197.3057	1201.7938	1211.7567	1324.6817	1327.8063	1340.5937	1366.2831	1395.4474	1418.2241	1426.359	1487.1068	1491.1126	1499.2351	1502.7331	1511.5303	1684.6351	1821.6529	2997.3949	3017.6327	3029.5154	3032.2092	3036.1701	3097.989	3104.6109	3111.5933	3113.4678	3233.3081	3676.2694
CC(C)C1=CC(=O)NC1	CC(C)C1=CC(=O)NC1	
InChI=1S/C7H11NO/c1-5(2)6-3-7(9)8-4-6/h3,5H,4H2,1-2H3,(H,8,9)	InChI=1S/C7H11NO/c1-5(2)6-3-7(9)8-4-6/h3,5H,4H2,1-2H3,(H,8,9)
