18
gdb 123406	4.75025	0.85798	0.81937	3.2586	77.	-0.2536	-0.0083	0.2453	1427.2735	0.148804	-401.928641	-401.920657	-401.919713	-401.962743	29.547	
C	-0.1837679788	 1.2424278922	-0.3027913881	-0.249339
C	 1.2324550866	 1.0004917397	 0.1636786764	-0.27481
C	 0.26489158	-0.1489848602	 0.0574499106	 0.040855
C	-0.2636563829	-0.8223359308	 1.3150867758	-0.365253
C	-1.579841974	-1.5143945912	 1.1102724717	 0.163919
C	-2.820661991	-1.151976994	 1.5317039165	-0.011565
O	-3.74801293	-2.0332340928	 1.1254521805	-0.163351
N	-3.1213060255	-3.0382627394	 0.3979187245	-0.133077
C	-1.8511081463	-2.7207463067	 0.3971245303	-0.038375
H	-0.8614293589	 1.7472097463	 0.3786468196	 0.108341
H	-0.3510560165	 1.4805669227	-1.3471391695	 0.115623
H	 2.034805843	 1.0704505216	-0.5623274841	 0.114373
H	 1.504370446	 1.343786496	 1.1568091583	 0.111181
H	 0.4199818828	-0.8279416528	-0.7770988118	 0.087172
H	 0.4775841506	-1.5453259842	 1.6795762111	 0.114398
H	-0.3699667634	-0.0702635842	 2.1054467306	 0.104809
H	-3.1868035373	-0.3216269312	 2.1160318313	 0.146635
H	-1.1521622745	-3.369239341	-0.1138763236	 0.128465
36.4419	64.0594	115.6709	275.4858	306.2093	343.749	412.7434	616.7863	655.4967	722.1584	774.1858	803.8446	835.506	849.7968	892.4644	905.1871	911.0871	938.5938	955.9691	998.3496	1027.9337	1057.1267	1079.47	1119.5701	1140.0046	1151.4292	1196.9086	1204.3481	1229.2653	1256.166	1286.1611	1337.4015	1396.7249	1416.1813	1469.6017	1476.1444	1484.71	1509.4542	1651.6617	3021.1395	3063.0524	3129.2224	3133.3492	3140.4862	3207.2529	3222.0213	3235.0601	3261.6731
C1CC1CC1=CON=C1	C1CC1Cc1conc1	
InChI=1S/C7H9NO/c1-2-6(1)3-7-4-8-9-5-7/h4-6H,1-3H2	InChI=1S/C7H9NO/c1-2-6(1)3-7-4-8-9-5-7/h4-6H,1-3H2
