19
gdb 38539	3.08523	1.64905	1.20487	1.9201	82.23	-0.2325	0.0206	0.2531	1051.0027	0.161141	-385.864939	-385.857743	-385.856799	-385.896236	29.564	
C	 0.0323484943	 1.5401269069	 0.1214592949	-0.373481
C	 1.5625841063	 1.4165841993	-0.1267063031	-0.100472
O	 1.72257067	 0.8676437527	-1.4394285414	-0.296632
C	 1.4492560764	-0.042573227	-0.3446546508	 0.41116
C	 2.1834009581	-1.3310595056	-0.1516758122	-0.352378
C	 1.2216107268	-2.449802515	-0.6214534968	-0.214787
C	-0.1473851499	-2.4254381844	 0.0965598209	-0.238611
C	-0.7630270759	-1.043391881	 0.2038710109	-0.247963
C	-0.0128284762	 0.0173242612	-0.0596060407	 0.335226
H	-0.2387109932	 1.8642516425	 1.1307132017	 0.115883
H	-0.4926474562	 2.1541248852	-0.6148495363	 0.120535
H	 2.3696613185	 2.0219629773	 0.2697089807	 0.107338
H	 3.1207862222	-1.349598278	-0.7139852325	 0.115758
H	 2.4268753251	-1.4670953537	 0.9094826251	 0.108214
H	 1.0564519296	-2.3262197802	-1.6982891425	 0.116433
H	 1.688170954	-3.430073467	-0.4821172957	 0.094828
H	-0.8347595984	-3.1017686283	-0.4271989425	 0.106921
H	-0.0452343602	-2.8458643902	 1.109017708	 0.106178
H	-1.7930307011	-0.9666892045	 0.5439911222	 0.08585
132.7225	204.8919	267.1003	316.3492	383.8259	427.6939	474.0816	530.8167	593.0149	665.5438	727.4242	774.964	814.0944	842.6739	868.2584	881.0667	916.8123	935.0108	952.0082	993.9324	1023.3235	1067.2473	1075.5554	1083.2347	1129.9867	1141.9115	1175.4255	1214.4723	1242.74	1252.5792	1268.0946	1323.5994	1353.6051	1365.3509	1375.7722	1450.0378	1467.0456	1478.9768	1481.3535	1497.6858	1774.4699	2990.7924	3029.4174	3033.7499	3045.5798	3056.5636	3083.3252	3097.4278	3110.3568	3153.8811	3186.8695
C1C2OC22CCCC=C12	C1[C@@H]2O[C@]32CCCC=C13	
InChI=1S/C8H10O/c1-2-4-8-6(3-1)5-7(8)9-8/h3,7H,1-2,4-5H2	InChI=1S/C8H10O/c1-2-4-8-6(3-1)5-7(8)9-8/h3,7H,1-2,4-5H2/t7-,8+/m0/s1
