16
gdb 7339	4.70589	1.04816	0.86735	1.8377	62.97	-0.2416	-0.0599	0.1817	1261.3064	0.129211	-417.075493	-417.066334	-417.06539	-417.109859	32.199	
N	-0.0429491633	 1.3057377826	 0.2433762242	-0.510468
C	 0.0825364001	-0.0404065531	 0.0876766673	 0.266431
N	 1.2217135859	-0.6170427483	-0.0170990699	-0.513378
C	-1.2787016441	-0.7403310377	 0.0664527127	 0.344106
O	-2.293506922	-0.0751965636	 0.060981621	-0.320218
C	-1.3044164741	-2.2523040384	 0.0386106431	-0.309132
C	-2.7179347376	-2.8178504795	 0.0532030842	-0.081148
O	-2.5944611521	-4.2304783845	 0.0162743785	-0.423426
H	 0.768842294	 1.8779805316	 0.0854925021	 0.262379
H	-0.9603551579	 1.6996167031	 0.116223955	 0.26966
H	 1.1169796584	-1.6257797174	-0.0876485797	 0.220571
H	-0.7760311329	-2.608101468	-0.8550871003	 0.14703
H	-0.7373465107	-2.6408915898	 0.893767433	 0.147152
H	-3.2429564699	-2.4758691504	 0.9564898939	 0.104736
H	-3.2780536828	-2.4322960006	-0.8102071605	 0.105503
H	-3.4784263711	-4.6086464261	 0.0259418455	 0.290204
59.1335	88.9974	107.2252	142.655	270.4512	297.7997	310.8716	349.8365	411.2858	423.658	517.3334	528.3023	618.3618	677.498	806.1106	820.7478	847.6201	1011.5209	1059.7456	1069.6488	1098.5787	1128.2981	1162.8214	1206.4744	1256.4147	1301.8004	1341.1891	1432.2745	1452.0036	1472.1083	1523.4145	1589.6645	1716.4503	1782.6626	2997.3019	3026.7409	3035.6975	3072.2825	3528.6498	3604.1632	3736.1809	3833.0159
NC(=N)C(=O)CCO	NC(=N)C(=O)CCO	
InChI=1S/C4H8N2O2/c5-4(6)3(8)1-2-7/h7H,1-2H2,(H3,5,6)	InChI=1S/C4H8N2O2/c5-4(6)3(8)1-2-7/h7H,1-2H2,(H3,5,6)
