17
gdb 50344	3.02041	1.54302	1.47786	1.7919	66.41	-0.2547	-0.0242	0.2305	948.0946	0.137628	-458.977289	-458.970135	-458.969191	-459.009388	27.315	
O	-0.7071393677	 0.9209169557	-0.5226331034	-0.24383
C	 0.1662141211	 1.0211443835	 0.3006097268	 0.157097
C	 1.3659152949	 1.9360387191	 0.1864683847	-0.128924
C	 1.4141899653	 2.8076023075	-1.0978009907	-0.250134
C	 1.3453589102	 4.2199715304	-0.4840761857	 0.036815
C	-0.0472630717	 4.4397751319	 0.1402018903	-0.091159
O	 0.0236383641	 3.6036474119	 1.3141941916	-0.267851
C	 1.3367835772	 3.0600003783	 1.2736080338	 0.174071
O	 2.1390504984	 4.0683920286	 0.7133636741	-0.24383
H	 0.1368451692	 0.418955273	 1.2363710706	 0.081866
H	 2.2696928921	 1.3307411293	 0.3229751746	 0.10112
H	 2.3509637163	 2.6689808389	-1.6401757396	 0.111826
H	 0.5787191791	 2.5836957351	-1.7634427165	 0.13399
H	 1.7298295346	 5.0380852227	-1.0900372172	 0.094459
H	-0.2106630532	 5.4785294781	 0.4456709997	 0.112439
H	-0.8655164692	 4.1096413429	-0.506522359	 0.122408
H	 1.6630848093	 2.7978636431	 2.2792502157	 0.099638
71.9039	119.1306	220.0872	272.8287	377.8819	444.4678	561.6595	636.8856	682.3142	771.202	821.1231	827.5617	867.3722	886.6842	922.2172	953.652	964.2457	999.5118	1022.2941	1042.0263	1072.5066	1096.7538	1100.888	1173.5115	1197.0337	1226.9612	1262.3785	1289.6903	1302.3233	1320.1723	1336.0197	1354.1044	1381.348	1427.2259	1489.461	1520.7909	1827.0519	2879.7905	3042.7892	3045.6328	3082.5824	3095.7969	3136.4393	3138.3936	3147.0388
O=CC1CC2COC1O2	O=C[C@H]1C[C@H]2CO[C@@H]1O2	
InChI=1S/C6H8O3/c7-2-4-1-5-3-8-6(4)9-5/h2,4-6H,1,3H2	InChI=1S/C6H8O3/c7-2-4-1-5-3-8-6(4)9-5/h2,4-6H,1,3H2/t4-,5+,6-/m1/s1
