16
gdb 96423	2.14359	1.73492	1.23799	3.785	64.03	-0.275	0.0094	0.2844	1024.598	0.124956	-475.019736	-475.011551	-475.010607	-475.052501	30.14	
O	-0.0520071126	 1.4144689199	 0.0424339467	-0.419282
C	 0.0216890685	 0.007806236	 0.0332620484	 0.091014
C	 0.7801371904	-0.5678052262	 1.2368529641	-0.138188
O	 0.6851420516	-1.9858271172	 1.2262077622	-0.227572
C	-0.6507787796	-2.3977853698	 1.2778675638	 0.004119
O	-1.3990099153	-1.9485084421	 0.1611251015	-0.238871
C	-1.4231862998	-0.5354000281	 0.0544276508	-0.05774
C	-2.2251289795	 0.0768921862	 1.1389634386	 0.292767
N	-2.8677408214	 0.5175334317	 1.9917679052	-0.329932
H	 0.8337399337	 1.7738102158	-0.0707443621	 0.298193
H	 0.4791030743	-0.380091076	-0.8877927966	 0.097859
H	 1.8442103556	-0.3184835949	 1.1874041543	 0.112828
H	 0.3648909455	-0.1482330035	 2.1663060419	 0.125669
H	-0.6603910113	-3.4868956748	 1.2285559934	 0.13264
H	-1.1277066169	-2.0441194886	 2.2074513725	 0.111188
H	-1.915890013	-0.3020779883	-0.8935031747	 0.145308
105.6872	144.3715	185.7496	211.0319	271.0048	317.7602	378.675	409.1087	446.2836	475.7091	616.6463	642.5144	670.1544	857.2444	924.9201	960.8327	975.4661	1053.3552	1062.7206	1103.5827	1124.7259	1145.1549	1198.0643	1238.2108	1248.6951	1315.7258	1319.7157	1343.2784	1356.062	1405.0206	1423.2263	1442.5626	1496.0723	1511.292	2357.1688	2970.6264	2996.0558	3013.4082	3083.7621	3089.129	3135.8082	3822.94
OC1COCOC1C#N	O[C@H]1COCO[C@H]1C#N	
InChI=1S/C5H7NO3/c6-1-5-4(7)2-8-3-9-5/h4-5,7H,2-3H2	InChI=1S/C5H7NO3/c6-1-5-4(7)2-8-3-9-5/h4-5,7H,2-3H2/t4-,5-/m0/s1
