23
gdb 122668	5.03406	0.63433	0.59293	1.3207	82.56	-0.2511	0.088	0.3391	1945.3705	0.205727	-425.434933	-425.424901	-425.423957	-425.47153	35.54	
C	 0.0467750058	 1.5421602101	 0.0917339829	-0.379524
C	-0.0071028597	 0.0120933713	 0.0870594246	-0.166245
C	-1.4336645431	-0.5379644753	-0.0106650149	-0.159499
C	-1.4943382272	-2.0685822318	-0.0162096384	-0.205299
C	-2.9150858932	-2.6178862792	-0.0832557924	 0.113445
C	-3.0089622824	-4.156880751	-0.0701606255	-0.130431
O	-4.1689315929	-4.4174010347	 0.7043408084	-0.233975
C	-4.1655547334	-3.4105984008	 1.6823105086	 0.027355
O	-3.6771098405	-2.2333993661	 1.0716347968	-0.271832
H	 1.0760296907	 1.9065061647	 0.1684231911	 0.110163
H	-0.3854166404	 1.9564534255	-0.8260423755	 0.113142
H	-0.5169441854	 1.9544655649	 0.9358897017	 0.115488
H	 0.5904072119	-0.3736752761	-0.7500859677	 0.091292
H	 0.4673381279	-0.3739562829	 0.9991723102	 0.094295
H	-2.0330590935	-0.1655830409	 0.8285203603	 0.114585
H	-1.9106770803	-0.1522448441	-0.922703149	 0.089741
H	-0.9311484083	-2.4613297492	-0.8749952135	 0.093297
H	-1.0089408997	-2.464586475	 0.8856999728	 0.096257
H	-3.4276385296	-2.2124617716	-0.9672642069	 0.079421
H	-3.1464734582	-4.5979521762	-1.0593078115	 0.118873
H	-2.1145117738	-4.5980330042	 0.3989473835	 0.092503
H	-5.1911444738	-3.2512292934	 2.0305807292	 0.116176
H	-3.5179009809	-3.6923585237	 2.5333461949	 0.080772
41.5547	59.5752	82.9084	113.9907	145.4045	241.1685	247.7191	286.6917	297.4684	435.8722	485.4463	670.6841	735.9839	741.696	786.2613	858.684	900.3632	924.0531	975.3933	988.2691	1010.796	1041.648	1054.8071	1071.1746	1107.0496	1116.5131	1140.1265	1166.8499	1188.7023	1209.5788	1244.6439	1263.0751	1273.3769	1316.9388	1326.5821	1333.1392	1362.8854	1371.9342	1397.0313	1408.16	1415.2919	1436.5348	1471.6274	1486.8292	1499.0761	1499.4313	1510.719	1512.9632	1547.3082	2927.4049	2976.4188	2999.6926	3005.6922	3007.9399	3015.6378	3029.4707	3037.6254	3046.4205	3072.2004	3073.0016	3096.1384	3101.2087	3110.6894
CCCCC1COCO1	CCCC[C@H]1COCO1	
InChI=1S/C7H14O2/c1-2-3-4-7-5-8-6-9-7/h7H,2-6H2,1H3	InChI=1S/C7H14O2/c1-2-3-4-7-5-8-6-9-7/h7H,2-6H2,1H3/t7-/m0/s1
