19
gdb 82119	3.2199	1.17355	0.99121	1.6854	80.03	-0.2505	0.0557	0.3061	1226.4257	0.157331	-385.818461	-385.80956	-385.808616	-385.852095	33.783	
C	-0.1498278632	 1.5422685779	-0.142674003	-0.416928
C	 0.0071845712	 0.0312962741	-0.0389290799	-0.018303
C	 1.0770613156	-0.6224673928	-0.9291324877	 0.02248
O	 2.3528346295	-0.1255681115	-0.4989001282	-0.249509
C	 1.7657143488	-1.2152726619	 0.2257154578	-0.003045
C	 0.750361731	-0.6175557268	 1.2093299301	-0.033781
C	 1.32549522	 0.2759921484	 2.3167782589	-0.362438
C	 0.3016325268	 0.8669894611	 3.171046533	 0.298039
C	-0.5605868724	 1.330526907	 3.869385925	-0.450448
H	 0.8248620458	 2.0372158889	-0.130630251	 0.130911
H	-0.6501031727	 1.8109966635	-1.0796049218	 0.111132
H	-0.7462081321	 1.9356262506	 0.6850282028	 0.133237
H	-0.959098261	-0.4646593899	-0.1730650587	 0.079299
H	 1.0048100864	-0.9628148294	-1.9560576488	 0.101643
H	 2.3538830466	-2.1220363047	 0.314261747	 0.101567
H	 0.1233487098	-1.3962212106	 1.6522939777	 0.087802
H	 2.0051705114	-0.3259294728	 2.9353654404	 0.127783
H	 1.9409926803	 1.0602104404	 1.863621779	 0.146611
H	-1.3104466317	 1.7506878783	 4.4925678074	 0.193949
74.982	101.7713	167.0602	217.6756	231.4755	255.1993	348.7781	375.4333	461.5565	558.6209	605.5846	615.8015	634.7071	710.4733	754.6135	836.3129	862.428	864.9108	928.263	959.2961	968.6959	1004.5725	1022.0057	1052.885	1073.0449	1122.4173	1143.3558	1196.0134	1227.4526	1240.7726	1247.1899	1278.6051	1311.9397	1360.9601	1369.7777	1392.2675	1411.6561	1472.7796	1492.6128	1508.1621	2235.5088	3018.1759	3038.5454	3056.3098	3068.5086	3081.7249	3105.3783	3125.2788	3173.3678	3188.97	3506.6356
CC1C2OC2C1CC#C	C[C@H]1[C@H]2O[C@H]2[C@H]1CC#C	
InChI=1S/C8H10O/c1-3-4-6-5(2)7-8(6)9-7/h1,5-8H,4H2,2H3	InChI=1S/C8H10O/c1-3-4-6-5(2)7-8(6)9-7/h1,5-8H,4H2,2H3/t5-,6+,7-,8+/m1/s1
