16
gdb 110177	2.84163	1.1314	0.88332	3.9361	72.52	-0.2603	0.0152	0.2755	1278.0615	0.123064	-437.863042	-437.854119	-437.853175	-437.897071	32.528	
O	 0.1039091396	 1.3791204723	 0.2300099925	-0.420407
C	 0.0704185102	 0.0174147989	-0.1381109733	-0.074019
C	-1.3680617077	-0.4967601748	-0.1053988658	-0.188454
C	-1.6337073485	-2.0468114001	-0.0799980497	-0.188147
N	-2.2379996825	-1.8371869969	 1.2509814695	-0.31957
C	-1.9480697061	-0.5007275857	 1.3215563223	 0.446633
O	-2.0315037479	 0.323833604	 2.1981543628	-0.37861
C	-2.509767591	-2.5993426089	-1.0986582255	 0.321582
C	-3.2227862506	-3.0606112744	-1.948796401	-0.418716
H	-0.3693502428	 1.459961661	 1.0699380986	 0.301534
H	 0.4898595287	-0.0522318324	-1.1470671409	 0.117119
H	 0.6984224851	-0.6032017058	 0.5241050442	 0.089548
H	-1.9915836866	 0.0358941965	-0.8252200141	 0.126094
H	-0.7033844374	-2.6253824105	-0.0264671622	 0.118597
H	-2.552822471	-2.4986409914	 1.946445765	 0.259243
H	-3.8562333214	-3.4655900917	-2.6993049926	 0.207572
73.3647	101.2512	145.0248	165.3943	224.6587	273.6006	376.1979	433.2984	452.8168	505.8912	508.4202	588.0805	633.3161	668.8163	725.1651	754.5291	825.6425	946.1496	958.956	1045.6695	1056.645	1083.2877	1100.2722	1171.4778	1180.8233	1224.821	1248.0115	1319.05	1368.8632	1373.9446	1386.5164	1449.7136	1514.2953	1873.2845	2240.7498	2955.8545	3030.6458	3070.3584	3113.6075	3501.108	3602.9645	3746.3352
OCC1C(NC1=O)C#C	OC[C@H]1[C@@H](NC1=O)C#C	
InChI=1S/C6H7NO2/c1-2-5-4(3-8)6(9)7-5/h1,4-5,8H,3H2,(H,7,9)	InChI=1S/C6H7NO2/c1-2-5-4(3-8)6(9)7-5/h1,4-5,8H,3H2,(H,7,9)/t4-,5-/m0/s1
