21
gdb 103654	3.38114	0.9883	0.97167	2.5643	80.08	-0.2509	0.0014	0.2523	1345.682	0.181222	-424.235547	-424.225857	-424.224913	-424.269984	36.903	
C	-0.2102711077	 1.5188284929	-0.088322687	-0.411055
C	 0.1026274593	 0.0196740437	-0.0665545377	-0.204766
C	 0.8244363601	-0.4655231263	 1.2027677741	 0.356208
O	 0.0558729038	-0.116475327	 2.3712095776	-0.479158
C	 1.0023106579	-1.9986677984	 1.2482148282	-0.275405
C	 2.3759449673	-2.2616056619	 1.9129664959	 0.099296
O	 3.0879957177	-3.3684599636	 1.3754392265	-0.434448
C	 3.0814630655	-0.9332459759	 1.7536998079	-0.1257
C	 2.2564244622	 0.028360152	 1.346757393	-0.131486
H	 0.6969332587	 2.1309183077	-0.0336775143	 0.114374
H	-0.7309027277	 1.7932096146	-1.0103914175	 0.119121
H	-0.8603425892	 1.7953462434	 0.7477340571	 0.118484
H	-0.8339718737	-0.5444109374	-0.1542111373	 0.104072
H	 0.7153523272	-0.2460480777	-0.9370462865	 0.091918
H	 0.192433682	 0.8193013746	 2.5502856134	 0.276738
H	 0.1671591734	-2.4692931155	 1.770339158	 0.11659
H	 1.0337517919	-2.4011918708	 0.2296033852	 0.089856
H	 2.262242458	-2.5080195784	 2.9752310319	 0.105178
H	 3.2705516347	-3.1713206227	 0.4497613491	 0.272972
H	 4.13703879	-0.8207538104	 1.978238699	 0.10211
H	 2.5305769088	 1.0665676871	 1.1864520532	 0.0951
53.1636	103.4861	179.8933	211.3467	228.8766	275.4748	315.8392	333.8498	351.3294	386.	422.1391	476.662	580.3138	621.8187	696.3077	782.0056	799.7602	823.5907	869.9683	910.6759	966.618	982.9445	999.8438	1008.6362	1044.5842	1075.9172	1102.9883	1121.1794	1144.7743	1181.2825	1215.6552	1262.5398	1289.4034	1305.347	1321.2475	1336.993	1380.2655	1384.4666	1407.8397	1425.8455	1470.8501	1476.2463	1502.0896	1511.5396	1680.9031	3023.3371	3034.6244	3041.9039	3049.8532	3061.2985	3100.8739	3108.4189	3119.995	3171.7681	3199.5802	3793.7765	3819.3088
CCC1(O)CC(O)C=C1	CC[C@@]1(O)C[C@@H](O)C=C1	
InChI=1S/C7H12O2/c1-2-7(9)4-3-6(8)5-7/h3-4,6,8-9H,2,5H2,1H3	InChI=1S/C7H12O2/c1-2-7(9)4-3-6(8)5-7/h3-4,6,8-9H,2,5H2,1H3/t6-,7-/m0/s1
