16
gdb 55566	4.09005	0.87451	0.72686	4.6664	73.27	-0.2739	-0.0292	0.2447	1480.8855	0.123173	-434.126927	-434.117294	-434.11635	-434.162957	32.918	
C	-0.0456985076	 1.4088811014	 0.0917457831	-0.494787
C	-0.39759347	 0.0616661225	-0.5130429536	 0.409653
O	-1.4687969355	-0.1734971285	-1.0339507315	-0.346199
N	 0.6220672192	-0.8681866091	-0.4110794909	-0.355375
C	 0.6788073208	-2.1990383729	-0.8416137966	 0.383598
N	 1.7602436173	-2.8210369603	-0.6087045918	-0.499516
C	-0.5664494071	-2.7414131437	-1.5394446669	-0.433286
C	-0.3932642209	-4.1327946099	-1.9432044728	 0.272468
N	-0.2457780661	-5.2342307106	-2.2585275857	-0.299116
H	 0.8319445636	 1.8397431246	-0.4011933476	 0.150334
H	-0.8956587466	 2.0783039552	-0.032041141	 0.160824
H	 0.1862798868	 1.308408319	 1.1571182346	 0.150478
H	 1.4820062284	-0.5853752556	 0.0393439286	 0.265313
H	 1.7240458194	-3.7800549938	-0.9509661808	 0.251591
H	-1.4361498272	-2.646618773	-0.8830740986	 0.192016
H	-0.8074583445	-2.1251923052	-2.4102929285	 0.192006
46.4383	64.7962	69.8082	132.0653	138.2787	212.0318	313.2472	383.129	410.4343	454.5691	527.4778	590.7875	598.6371	684.6292	691.2352	828.9902	864.2932	965.8277	966.0869	994.4703	1006.9077	1054.7999	1135.5464	1216.2714	1246.2223	1294.6981	1388.8663	1410.4769	1414.9358	1464.924	1482.1898	1506.89	1725.4126	1797.5865	2368.5928	3045.7045	3078.6207	3108.89	3109.7635	3169.5059	3503.5888	3598.8878
CC(=O)NC(=N)CC#N	CC(=O)NC(=N)CC#N	
InChI=1S/C5H7N3O/c1-4(9)8-5(7)2-3-6/h2H2,1H3,(H2,7,8,9)	InChI=1S/C5H7N3O/c1-4(9)8-5(7)2-3-6/h2H2,1H3,(H2,7,8,9)
