19
gdb 49203	3.24491	1.16011	0.88515	3.6786	91.83	-0.2331	-0.0692	0.1639	1296.5397	0.16102	-385.929219	-385.921089	-385.920144	-385.962276	30.964	
O	-0.159221293	-0.045421957	 0.0207759647	-0.287835
C	-0.0812878759	 1.164127004	 0.0450672357	 0.101597
C	 1.1764412463	 1.9313214487	-0.0022025551	 0.172521
C	 1.0641376552	 3.2767827191	 0.0684210047	-0.124174
C	 2.0915047868	 4.3004652811	 0.0278586334	-0.072892
C	 3.4304575691	 4.178420124	 0.0722386719	-0.054725
C	 4.280994945	 2.9533819217	 0.2325760923	-0.25586
C	 3.6056855315	 1.6823290175	 0.7564763239	-0.212841
C	 2.4569927679	 1.1509076042	-0.1143234657	-0.307415
H	-0.9973855834	 1.794005961	 0.1078575546	 0.06623
H	 0.0479940447	 3.6652283271	 0.1390601101	 0.093095
H	 1.7032697994	 5.3127356217	-0.0605774043	 0.091709
H	 3.9987033033	 5.1037418363	-0.0102683333	 0.099461
H	 4.7654467335	 2.7453188389	-0.7342032425	 0.120626
H	 5.111818594	 3.2124188834	 0.9037006651	 0.112571
H	 4.3734142659	 0.9049578196	 0.8380919938	 0.102338
H	 3.2345038055	 1.8589185351	 1.7725031116	 0.109052
H	 2.2274711004	 0.1147322687	 0.1516921605	 0.132182
H	 2.7761820738	 1.1235408548	-1.1657946014	 0.11436
64.282	118.1114	215.4693	254.1363	283.7433	335.3954	371.7268	448.0759	526.6027	543.0978	642.1295	728.3891	741.8884	823.583	853.3922	888.9853	935.5564	943.1928	962.7626	1016.9555	1032.5946	1054.4734	1078.1035	1107.39	1168.817	1185.566	1264.6686	1282.7184	1292.5592	1353.7975	1374.9907	1393.8429	1409.8248	1442.3335	1456.3785	1459.86	1481.9695	1491.4121	1658.9307	1699.2657	1777.7862	2872.2826	2992.1743	3013.3524	3021.4016	3039.9533	3076.4411	3086.2222	3121.4263	3133.5104	3157.9599
O=CC1=CC=CCCC1	O=CC1=CC=CCCC1	
InChI=1S/C8H10O/c9-7-8-5-3-1-2-4-6-8/h1,3,5,7H,2,4,6H2	InChI=1S/C8H10O/c9-7-8-5-3-1-2-4-6-8/h1,3,5,7H,2,4,6H2
