17
gdb 44778	2.41676	2.16953	1.57986	4.3001	73.3	-0.2321	-0.0116	0.2205	890.7401	0.137809	-417.887271	-417.880529	-417.879585	-417.918064	27.947	
O	 0.1160950688	 0.1126769147	 0.1052065252	-0.340883
C	 0.0185735655	 1.3036413493	 0.0243165195	 0.47322
C	-1.2273827441	 2.200535799	 0.0650638731	-0.308666
C	-0.4763711561	 3.5176795571	-0.0695724287	-0.076474
N	 0.6404297951	 3.3063860365	 0.9973644784	-0.415321
C	 1.1589781754	 2.3334972685	-0.1180662623	 0.137712
C	 2.1840524441	 1.8374488028	-1.1739301017	-0.270903
N	 1.0997590409	 2.2676659032	-2.1791437563	-0.359146
C	 0.6667836515	 3.2683045933	-1.1491779363	 0.036689
H	-1.9056160474	 1.9797778519	-0.7631585238	 0.13313
H	-1.7619176355	 2.1095119312	 1.0126473463	 0.136468
H	-1.0274861895	 4.4556663378	-0.0078558929	 0.084143
H	 1.2393245585	 4.1339450011	 0.9676557332	 0.224956
H	 3.1002748242	 2.4322336452	-1.250709215	 0.108654
H	 2.3966034443	 0.7665441843	-1.1772880804	 0.141184
H	 1.4641342325	 2.6715651523	-3.0391160168	 0.222881
H	 1.2763601817	 4.1818387518	-1.1960684616	 0.072356
149.0517	225.5234	292.0655	370.8619	440.8173	499.6359	542.104	593.4771	633.1464	682.5664	723.7254	785.8502	793.8641	853.2526	866.6991	925.9843	947.4322	971.27	988.4726	1006.1984	1044.8221	1071.179	1114.4024	1127.0691	1139.7883	1147.751	1198.4394	1217.1005	1261.783	1267.5173	1286.6255	1321.9383	1348.1513	1408.7401	1449.8	1489.4252	1883.0436	2987.5035	3046.0345	3076.1679	3124.9117	3127.9639	3131.9281	3440.7118	3486.2184
O=C1CC2NC11CNC21	O=C1C[C@H]2N[C@]31CN[C@@H]23	
InChI=1S/C6H8N2O/c9-4-1-3-5-6(4,8-3)2-7-5/h3,5,7-8H,1-2H2	InChI=1S/C6H8N2O/c9-4-1-3-5-6(4,8-3)2-7-5/h3,5,7-8H,1-2H2/t3-,5+,6+/m1/s1
