18
gdb 121195	2.56357	1.05848	0.81321	3.6093	72.86	-0.2705	-0.003	0.2675	1408.1151	0.146479	-439.057207	-439.047744	-439.0468	-439.093046	32.296	
C	 0.0344497223	 1.36068514	 0.1504970206	-0.232313
O	-0.0108930547	-0.0462828396	 0.0597491404	-0.239637
C	-1.3244894228	-0.5503987702	-0.0141473202	-0.084751
C	-1.2134256853	-2.0620016602	-0.0737123657	-0.076564
C	-0.7835450437	-2.7639197103	 1.2305435802	-0.070574
O	-2.0535613395	-3.4608570082	 1.3275492635	-0.274318
C	-2.5197530767	-2.8920068097	 0.0939467545	-0.02225
C	-3.776660107	-2.1493102006	 0.245725746	 0.287895
N	-4.7642234151	-1.5574794509	 0.3471385029	-0.326914
H	 1.0865751261	 1.6489069386	 0.2050254806	 0.131953
H	-0.4222747912	 1.8390739809	-0.7294149817	 0.111126
H	-0.4842661647	 1.727189165	 1.0495504418	 0.112272
H	-1.9137477284	-0.2416433487	 0.8654385324	 0.108552
H	-1.8485926244	-0.1646759771	-0.9047778212	 0.10326
H	-0.634968854	-2.3524393211	-0.9518852372	 0.104873
H	 0.0528082987	-3.464660124	 1.144552115	 0.1169
H	-0.6170455714	-2.0996933253	 2.0849365536	 0.122806
H	-2.6679678083	-3.6591399286	-0.6763796355	 0.127685
43.638	80.4461	93.8675	102.0054	186.0405	226.1521	245.5413	335.0329	372.3222	461.9998	537.6648	583.9627	805.5517	838.9764	903.4301	928.3677	971.9551	997.7626	1032.7358	1055.3549	1120.4894	1144.2798	1157.2302	1171.3809	1191.5353	1218.3159	1240.8849	1255.1569	1278.7265	1336.3592	1357.3941	1370.4868	1430.8463	1482.8068	1486.3994	1503.2524	1521.1503	1530.786	2353.4869	2959.1001	2979.8262	2991.0082	3026.2597	3028.4926	3041.5897	3087.8732	3108.2603	3120.817
COCC1COC1C#N	COC[C@H]1CO[C@H]1C#N	
InChI=1S/C6H9NO2/c1-8-3-5-4-9-6(5)2-7/h5-6H,3-4H2,1H3	InChI=1S/C6H9NO2/c1-8-3-5-4-9-6(5)2-7/h5-6H,3-4H2,1H3/t5-,6-/m0/s1
