18
gdb 33755	2.37257	1.65679	1.26788	4.1635	81.88	-0.2874	0.0208	0.3082	1053.0901	0.148764	-364.760352	-364.752774	-364.75183	-364.792285	30.115	
N	-0.003026646	-1.0967658023	-0.044447846	-0.354512
C	-0.0039342176	 0.0594020135	-0.0075581852	 0.155081
C	-0.0176153376	 1.4990429492	 0.0172467794	 0.14976
C	-0.6390724622	 2.4323893731	 1.108971004	-0.251649
C	-0.0504191553	 3.3884454434	 0.0251267599	-0.153564
C	 1.2102761797	 2.4691346602	-0.0029284983	-0.251648
C	-0.6644155611	 2.443911935	-1.0273063247	 0.420744
C	-0.6631207787	 2.4250282751	-2.5122430335	-0.372084
C	-1.9756012149	 2.398946475	-1.7231266148	-0.372085
H	-1.725575397	 2.3999173805	 1.2028903103	 0.114335
H	-0.1384124635	 2.4242428499	 2.0797976666	 0.10684
H	-0.0706751357	 4.4768628527	 0.0274037704	 0.089547
H	 1.8331214461	 2.4634163795	 0.8944357753	 0.10684
H	 1.8032373322	 2.470034278	-0.9187672072	 0.114336
H	-0.4106021626	 3.3361740399	-3.045350643	 0.119426
H	-0.3696798411	 1.5126940371	-3.0219617231	 0.129604
H	-2.5365206882	 1.4696305682	-1.7191637466	 0.129603
H	-2.5912247466	 3.2928361221	-1.7342771635	 0.119426
111.1789	150.9751	221.0268	266.8409	293.6071	468.5684	509.5703	524.2502	553.6478	613.5665	655.7749	773.3818	785.5696	805.9789	911.4399	916.1344	943.8362	952.2978	968.0768	976.4986	1048.9402	1059.205	1069.8087	1072.4136	1087.5346	1138.7724	1159.2763	1167.4775	1181.7371	1205.9958	1213.2133	1236.239	1277.0666	1402.9724	1459.3356	1492.6892	1509.1933	1539.6525	2348.5775	3067.3015	3070.3015	3123.8358	3126.8447	3134.4265	3142.2804	3144.1368	3202.542	3215.8752
N#CC12CC(C1)C21CC1	N#C[C@@]12C[C@@H](C1)C12CC1	
InChI=1S/C8H9N/c9-5-7-3-6(4-7)8(7)1-2-8/h6H,1-4H2	InChI=1S/C8H9N/c9-5-7-3-6(4-7)8(7)1-2-8/h6H,1-4H2/t6-,7+
