23
gdb 103629	2.11533	1.30376	1.18933	2.662	81.13	-0.2433	0.0731	0.3164	1248.7644	0.203707	-425.42216	-425.411799	-425.410855	-425.457025	39.045	
C	 0.6686091281	 1.4424019205	-0.3612397507	-0.404427
C	 0.1285885722	 0.0609780436	-0.0364991744	 0.150129
O	 0.7296590908	-0.9760425102	-0.8557809762	-0.359587
C	 1.2991754099	-1.6535297004	 0.3103960462	 0.397824
C	 0.838865585	-3.1012877223	 0.3790262129	-0.440967
C	 2.8253596884	-1.556772742	 0.189679484	-0.095019
O	 3.2389032564	-2.0676511632	-1.063540345	-0.425089
C	 0.5797458346	-0.657618813	 1.2659356828	-0.116622
C	 1.3500258692	 0.0966168326	 2.3433891224	-0.422447
H	 1.7537639704	 1.4975657188	-0.2396285207	 0.120196
H	 0.4324337042	 1.6939767849	-1.400071025	 0.126996
H	 0.2074767082	 2.1991351605	 0.2829565398	 0.11637
H	-0.9603188813	 0.0596630239	-0.1760508999	 0.076052
H	 1.2937648799	-3.678907545	-0.4299274011	 0.137066
H	 1.1387797372	-3.5506088198	 1.3327446144	 0.112112
H	-0.2492477751	-3.1640534874	 0.2919903036	 0.114121
H	 3.1522774758	-0.514221863	 0.3126698159	 0.078626
H	 3.3190206138	-2.1556759135	 0.9630140791	 0.103281
H	 2.6733729485	-1.6265364083	-1.7118528328	 0.289751
H	-0.2741627703	-1.155006208	 1.7353485978	 0.078245
H	 2.204310108	 0.6531936975	 1.9507781832	 0.123065
H	 0.6952209958	 0.8134276284	 2.8503171469	 0.119192
H	 1.7257149204	-0.5945257647	 3.1054996468	 0.121131
58.7105	124.3768	176.2809	205.9655	212.582	232.8403	251.4039	269.2407	283.7915	341.5771	396.549	451.6453	508.5215	510.4271	546.9265	688.5662	763.2009	790.0079	875.8233	908.7366	924.1303	962.3987	1002.6999	1030.881	1038.259	1068.1313	1087.2137	1133.8364	1141.2289	1169.6247	1207.8513	1233.6239	1253.5746	1300.7075	1311.2245	1373.9089	1384.2159	1392.0261	1405.4101	1410.4758	1419.2144	1437.5661	1478.9678	1479.994	1489.308	1497.9205	1500.6402	1505.5699	1509.2324	2995.7775	3009.4768	3034.5008	3034.863	3038.6769	3057.8857	3068.4564	3095.2418	3104.8696	3106.2005	3114.2365	3122.2337	3127.0456	3760.6404
CC1OC(C)(CO)C1C	C[C@H]1O[C@@](C)(CO)[C@H]1C	
InChI=1S/C7H14O2/c1-5-6(2)9-7(5,3)4-8/h5-6,8H,4H2,1-3H3	InChI=1S/C7H14O2/c1-5-6(2)9-7(5,3)4-8/h5-6,8H,4H2,1-3H3/t5-,6+,7-/m0/s1
