13
gdb 29071	2.88405	1.74083	1.0988	3.0412	72.46	-0.2624	-0.0991	0.1633	997.617	0.091079	-452.788118	-452.781228	-452.780284	-452.820108	25.42	
O	 0.0391046248	 1.3054758138	 0.1953327372	-0.360412
C	-0.0293562933	-0.004154575	 0.0916517569	 0.29191
C	-1.2366517186	-0.6480637578	 0.1023891231	-0.206755
C	-1.4369650648	-2.0312947639	-0.1131101447	 0.050286
N	-0.6037504982	-3.040370538	-0.1299008774	-0.2739
C	 0.7350686421	-2.9252563133	 0.0647058361	 0.101409
N	 1.5895499909	-1.9439708064	 0.0112241079	-0.29596
C	 1.3305440877	-0.6144863498	-0.1300223562	 0.346895
O	 2.2136954621	 0.2099735814	-0.3538167221	-0.378397
H	 0.9988005613	 1.4898892206	 0.0201258994	 0.32526
H	-2.1225861826	-0.0260343454	 0.1829963055	 0.128473
H	-2.4786505924	-2.3143488696	-0.2777533726	 0.134001
H	 1.1957557211	-3.8936224366	 0.2690100269	 0.13719
51.7213	176.3135	301.4992	346.7228	383.4303	410.3161	458.9105	586.7308	607.6237	692.2532	778.884	824.5615	861.7917	888.2019	891.4306	986.463	1009.0235	1045.5403	1115.9676	1244.2845	1272.9302	1369.3389	1447.7608	1467.4221	1477.5774	1507.9055	1630.1329	1674.0305	1717.6236	3110.2201	3118.6529	3183.6781	3339.9567
OC1=CC=NC=NC1=O	Oc1ccncnc1=O	
InChI=1S/C5H4N2O2/c8-4-1-2-6-3-7-5(4)9/h1-3H,(H,6,7,8,9)	InChI=1S/C5H4N2O2/c8-4-1-2-6-3-7-5(4)9/h1-3H,(H,6,7,8,9)
