19
gdb 59849	3.06082	0.92793	0.79901	9.1228	74.99	-0.2279	-0.0288	0.1991	1479.7738	0.157851	-456.399811	-456.389728	-456.388783	-456.435829	36.171	
C	-0.1332913041	 1.5595425467	 0.0216809267	-0.399277
C	 0.0726312327	 0.0448131684	 0.0709537716	 0.026109
C	 0.8142994254	-0.4031814829	 1.3377482575	-0.380348
N	-1.2279113743	-0.6170263361	-0.0357746879	-0.254804
C	-1.5164270713	-1.7872376152	-0.5403903279	 0.295885
N	-0.7037324278	-2.6567628203	-1.097885323	-0.503612
H	-1.2162198537	-3.4797462495	-1.4191396402	 0.294858
H	 0.2910156863	-2.5567487848	-1.2123010174	 0.271406
C	-3.0407039318	-2.2123568449	-0.4832510288	 0.399816
O	-3.742027681	-1.3511459196	 0.0622669797	-0.465121
O	-3.2333361836	-3.3218771814	-0.9944479594	-0.460062
H	 0.8296608087	 2.0741347228	 0.0703723815	 0.132823
H	-0.6412167547	 1.8588050844	-0.8988405267	 0.140285
H	-0.7367790386	 1.8940167857	 0.8726099506	 0.137515
H	 0.6559518598	-0.2550306022	-0.8102287767	 0.092069
H	 0.2591024716	-0.1053156659	 2.2324976642	 0.138614
H	 0.9373597277	-1.4898266059	 1.363664532	 0.126393
H	 1.8064674082	 0.0558196821	 1.379559228	 0.129315
H	-2.0899206195	-0.1954534113	 0.3292602461	 0.278134
28.9687	81.127	121.4027	134.5013	223.422	244.9287	262.6935	325.6529	361.1467	397.2889	427.918	453.4159	545.9175	565.8549	704.9648	783.1912	805.2548	816.0609	839.3785	844.4327	935.378	941.1368	958.7894	1131.598	1149.6851	1176.0138	1195.0366	1260.2711	1314.1386	1352.0836	1381.355	1404.5652	1424.7167	1472.0354	1484.0463	1487.5936	1500.1016	1509.8637	1585.8884	1747.8901	1839.7364	3012.3697	3040.3664	3043.9272	3113.203	3116.554	3120.6791	3130.4599	3379.9328	3438.1836	3673.2664
CC(C)NC(=[NH2+])C([O-])=O	CC(C)NC(=[NH2])C(=O)[O]	
InChI=1S/C5H10N2O2/c1-3(2)7-4(6)5(8)9/h3H,1-2H3,(H2,6,7)(H,8,9)	InChI=1S/C5H10N2O2/c1-3(2)7-4(6)5(8)9/h3,7H,6H2,1-2H3
