14
gdb 130010	5.32828	1.32125	1.06632	7.0913	71.79	-0.2184	-0.0298	0.1886	1039.3886	0.104464	-429.055431	-429.04865	-429.047706	-429.086482	26.169	
N	 0.0488331058	 1.2887492383	 0.1196482935	-0.564769
C	-0.0192866336	-0.0626737087	 0.0366223743	 0.367587
N	-1.1261323295	-0.7388106955	 0.031970647	-0.372403
C	-0.7399559736	-2.0790197172	 0.0065247888	 0.372431
C	-1.2023967163	-3.3731704584	-0.0226086615	-0.193023
N	-0.1100003457	-4.2023393012	-0.0549777738	-0.188586
N	 0.9974885889	-3.5082290507	-0.0476999305	-0.17947
N	 0.6105414823	-2.2157482496	-0.0078132109	 0.047279
C	 1.2555831514	-0.9243451586	 0.0117565697	-0.283273
H	 0.8885636478	 1.7610304048	-0.1695703363	 0.270067
H	-0.8156145893	 1.7927014035	-0.0067463925	 0.27841
H	-2.2066183433	-3.7601068023	-0.0228432634	 0.123311
H	 1.8680183059	-0.7468921377	-0.8787325522	 0.157302
H	 1.8730058692	-0.7736834066	 0.9029197579	 0.165138
133.6815	207.2306	300.1643	329.9272	352.599	453.4304	510.1777	563.9662	585.8293	695.3799	735.0404	778.4847	823.0159	830.3812	864.926	994.6792	997.4872	1098.7719	1108.9564	1178.0368	1183.6618	1214.5581	1268.8272	1304.3121	1344.8388	1421.3773	1449.0099	1484.9371	1600.4635	1611.1433	1685.4975	3050.5074	3094.512	3287.7414	3594.1516	3716.4722
NC1=NC2=CN=NN2C1	NC1=Nc2cnnn2C1	
InChI=1S/C4H5N5/c5-3-2-9-4(7-3)1-6-8-9/h1H,2H2,(H2,5,7)	InChI=1S/C4H5N5/c5-3-2-9-4(7-3)1-6-8-9/h1H,2H2,(H2,5,7)
