18
gdb 121720	4.05592	0.68572	0.61549	3.4005	75.25	-0.2447	0.0111	0.2557	1781.2418	0.147694	-472.443002	-472.432895	-472.431951	-472.479629	35.004	
O	 0.0771439855	 1.2895395923	-0.7581240287	-0.425457
C	-0.050682221	-0.06303597	-0.331748397	-0.077638
C	-1.397364209	-0.1774329939	 0.3699817286	-0.151086
N	-2.4844455582	 0.217679522	-0.5063642474	-0.371924
C	-3.3913174349	-0.6952688511	-0.9728797745	 0.526321
O	-3.4609092568	-1.8498698332	-0.5915759036	-0.401443
N	-4.264794258	-0.1714952966	-1.9266324413	-0.353789
C	-5.2654129913	-0.9178349298	-2.516396374	 0.106579
N	-6.0519250523	-0.3850527732	-3.3620636666	-0.480504
H	 0.8573269347	 1.3644817116	-1.3145761145	 0.29449
H	-0.0200705523	-0.7542770816	-1.1866977664	 0.103027
H	 0.7527372452	-0.3429573416	 0.3662037888	 0.09631
H	-1.5850255777	-1.2068259728	 0.6796459768	 0.150962
H	-1.3911469051	 0.4611070807	 1.2616193492	 0.11594
H	-2.3423382174	 1.0824550642	-1.0051234184	 0.24915
H	-4.2280432241	 0.8029853492	-2.1889503338	 0.253022
H	-5.2629079603	-1.9506277549	-2.162977811	 0.138174
H	-6.723484697	-1.0731813313	-3.6960814263	 0.227867
31.2633	63.0559	102.505	139.7382	174.7998	183.8533	272.4141	284.2994	342.927	424.8076	460.8812	501.5292	543.4162	593.0227	753.5217	765.9945	824.2974	882.8404	913.0553	1030.4058	1075.2401	1086.1217	1101.6274	1109.0051	1161.1799	1207.2733	1236.7796	1258.7615	1312.5767	1313.6212	1388.8021	1398.4591	1451.4878	1477.0089	1481.4086	1515.6452	1547.892	1728.7538	1795.2468	2985.0163	3018.778	3042.921	3125.592	3134.8564	3510.4034	3609.886	3628.5386	3838.6499
OCCNC(=O)NC=N	OCCNC(=O)NC=N	
InChI=1S/C4H9N3O2/c5-3-7-4(9)6-1-2-8/h3,8H,1-2H2,(H3,5,6,7,9)	InChI=1S/C4H9N3O2/c5-3-7-4(9)6-1-2-8/h3,8H,1-2H2,(H3,5,6,7,9)
