20
gdb 10766	3.53545	1.4314	1.30467	1.5179	70.62	-0.2612	0.0812	0.3424	1049.4484	0.174758	-386.126993	-386.117797	-386.116853	-386.160374	34.325	
C	-0.2835030284	 1.4636653866	 0.0195519471	-0.395704
C	 0.0433799687	-0.0310086373	 0.0590743504	-0.195857
C	 0.908396715	-0.465847489	 1.2666470086	 0.330834
C	 2.294019006	 0.181037935	 1.2638949867	-0.409632
O	 0.2776713608	-0.0897930129	 2.4866338524	-0.472022
C	 1.0452237789	-1.9882490494	 1.2318859107	 0.058209
C	 1.2226090542	-2.7789569589	 2.4520191082	-0.190989
O	-0.0601747659	-2.6993631037	 1.8048076732	-0.260929
H	 0.6056722826	 2.0723397267	-0.1713741552	 0.11435
H	-1.0048775524	 1.6799057283	-0.7741421402	 0.109494
H	-0.7130290711	 1.7839947655	 0.9722635133	 0.131706
H	-0.8896925981	-0.6077383821	 0.1016023231	 0.103075
H	 0.5481830737	-0.3342152494	-0.8674854605	 0.089161
H	 2.2094265492	 1.2677865113	 1.3356378517	 0.131175
H	 2.8758440179	-0.170042787	 2.1201576776	 0.121016
H	 2.8384306604	-0.0633850671	 0.3463204608	 0.111717
H	-0.4587551643	-0.7071874033	 2.6007215826	 0.285991
H	 1.4009358925	-2.4047169483	 0.2886524469	 0.091843
H	 1.702239646	-3.7543536761	 2.3996797652	 0.118104
H	 1.2828619441	-2.2662373987	 3.4084623274	 0.128455
88.3727	109.0379	187.2735	194.9077	219.239	272.5096	296.2542	345.0307	378.0844	411.9518	503.5709	519.1373	612.6864	727.9794	788.274	833.7104	877.9566	929.2401	939.4322	1005.2266	1013.9646	1015.7372	1066.9795	1102.4753	1149.7616	1168.5427	1170.9776	1189.8445	1226.7413	1281.0738	1306.1578	1363.5346	1378.6159	1405.005	1417.3485	1439.1314	1477.2132	1488.2669	1495.0299	1505.0177	1511.2439	1516.0655	3016.7377	3042.1764	3046.6353	3052.4153	3098.8258	3105.4715	3107.5689	3118.3005	3124.2938	3129.6825	3195.567	3743.4154
CCC(C)(O)C1CO1	CC[C@@](C)(O)[C@H]1CO1	
InChI=1S/C6H12O2/c1-3-6(2,7)5-4-8-5/h5,7H,3-4H2,1-2H3	InChI=1S/C6H12O2/c1-3-6(2,7)5-4-8-5/h5,7H,3-4H2,1-2H3/t5-,6-/m1/s1
