19
gdb 72497	2.63561	1.85552	1.54044	0.9879	70.15	-0.2403	0.0885	0.3288	949.2686	0.160844	-460.174485	-460.166995	-460.16605	-460.205971	30.015	
C	-0.0347668516	 1.4931497522	 0.0472668427	-0.452549
C	 0.0172159753	-0.0169065553	-0.0047547614	 0.432282
C	 0.7059710975	-0.5761803315	-1.265417835	-0.106496
O	 0.7703089077	-1.9948159674	-1.2312989475	-0.258583
C	-0.4652975234	-2.5985287028	-0.8768202835	-0.084019
C	-1.0302429838	-1.9268612306	 0.3731178271	 0.029335
C	 0.0385583943	-1.7715053479	 1.4746223224	-0.091165
O	 0.6646960828	-0.5273945576	 1.1584966607	-0.295133
O	-1.2976862045	-0.5589699047	 0.0427005633	-0.28701
H	 0.9768507062	 1.8998451936	 0.1196010426	 0.132018
H	-0.5156282574	 1.8930596537	-0.849048085	 0.126885
H	-0.605064265	 1.8024274193	 0.9255128076	 0.135909
H	 0.152906237	-0.2276686346	-2.152024881	 0.091259
H	 1.7394569945	-0.225501544	-1.327468118	 0.114458
H	-1.2003261702	-2.5094062234	-1.6922054045	 0.09909
H	-0.2528158855	-3.6589835633	-0.7074063177	 0.109462
H	-1.958093739	-2.3944862402	 0.7097988572	 0.088249
H	-0.4127595657	-1.7073288804	 2.4713213567	 0.103337
H	 0.7759177109	-2.5805550951	 1.4612541134	 0.11267
175.4248	179.7766	256.2751	273.1701	297.61	387.6119	406.1438	465.2693	527.8244	634.538	668.1874	812.7886	827.9239	834.9884	871.653	897.3771	936.0972	953.1325	999.5042	1016.409	1051.3724	1066.9326	1105.5508	1139.4546	1164.2629	1204.3446	1226.5324	1253.5226	1259.3205	1287.7146	1335.9744	1352.7328	1368.8492	1385.7697	1409.2494	1421.9283	1477.6402	1483.7071	1486.8874	1493.0175	1516.4202	2982.6774	2988.8739	3031.1774	3056.6518	3076.2044	3082.7198	3096.9433	3097.9796	3134.346	3142.0118
CC12COCC(CO1)O2	C[C@@]12COC[C@@H](CO1)O2	
InChI=1S/C6H10O3/c1-6-4-7-2-5(9-6)3-8-6/h5H,2-4H2,1H3	InChI=1S/C6H10O3/c1-6-4-7-2-5(9-6)3-8-6/h5H,2-4H2,1H3/t5-,6+/m0/s1
