13
gdb 21275	5.37325	1.75312	1.33292	0.7435	62.93	-0.2373	-0.0709	0.1664	864.4179	0.097013	-394.788137	-394.781563	-394.780619	-394.819065	23.565	
C	-0.0167261136	 1.3905864276	 0.0113081925	-0.229798
O	 0.023159368	-0.0395118699	-0.0396263333	-0.235149
C	 0.620801937	-0.6027501594	-1.0857394808	 0.507183
N	 0.6203798348	-1.9440161752	-1.0672827601	-0.278742
C	 1.2144037265	-2.4980284717	-2.1075171142	-0.002101
C	 1.7826532521	-1.7173242571	-3.1199819705	-0.000117
N	 1.7425479783	-0.3921859558	-3.0668366063	-0.167635
N	 1.1488816778	 0.1865446407	-2.0275655282	-0.283065
H	 0.9924743047	 1.8098578177	 0.0259368909	 0.145047
H	-0.551946119	 1.7979864206	-0.8501177931	 0.145048
H	-0.5431532831	 1.6274242375	 0.9361535111	 0.136743
H	 1.2440713898	-3.5849182924	-2.1454000151	 0.133148
H	 2.2748111166	-2.1532691225	-3.9821254929	 0.129439
117.2388	166.6094	218.3721	255.6521	406.8857	507.5758	568.0943	609.5571	659.2666	834.4753	853.8221	888.884	1006.486	1028.8063	1060.6986	1096.3119	1151.0679	1176.6051	1178.9798	1230.7514	1364.0418	1402.5313	1446.1826	1481.2292	1494.2139	1520.0529	1571.4899	1598.9898	3050.5546	3126.124	3154.7933	3156.9452	3200.5468
COC1=NC=CN=N1	COc1nccnn1	
InChI=1S/C4H5N3O/c1-8-4-5-2-3-6-7-4/h2-3H,1H3	InChI=1S/C4H5N3O/c1-8-4-5-2-3-6-7-4/h2-3H,1H3
