21
gdb 108263	2.38421	1.67747	1.1908	1.2835	84.97	-0.224	0.0093	0.2333	1128.3187	0.18277	-387.069399	-387.060905	-387.059961	-387.102236	33.213	
C	 0.055807587	 1.6908000793	 0.0428323037	-0.384789
C	-0.0199192018	 0.1608949491	 0.0744667913	-0.221492
C	 0.5908984386	-0.4837362203	-1.1720650632	 0.393116
C	 2.1712588548	-0.5270819967	-1.1497682869	-0.278825
C	 2.0758917359	-2.0285886674	-0.6749909705	-0.317129
C	 0.6761288951	-1.978900714	-1.2454036807	 0.198366
C	-0.0552245874	-2.4402972655	-2.2515208815	-0.240756
C	-0.7825478161	-1.2524416073	-2.8662177103	-0.126452
O	-0.126099031	-0.0849859191	-2.3374639306	-0.325517
H	 1.0934990145	 2.0409140041	 0.0176706952	 0.112642
H	-0.4497750979	 2.0762094281	-0.8463142189	 0.13572
H	-0.4200970913	 2.1256561633	 0.926935862	 0.108064
H	 0.4890480086	-0.2244406296	 0.9669571454	 0.0907
H	-1.0665428962	-0.1579030804	 0.1472447592	 0.097835
H	 2.5773344512	-0.4510305561	-2.1593334793	 0.117038
H	 2.6818181253	 0.1702215476	-0.4806986977	 0.098985
H	 2.7665460833	-2.7521031982	-1.1111400679	 0.114559
H	 2.1166871914	-2.1077418425	 0.4152630194	 0.11624
H	-0.0461361527	-3.4246614724	-2.7026219921	 0.101524
H	-0.6823241447	-1.2459672416	-3.9595681106	 0.109223
H	-1.8598878567	-1.2185323003	-2.6365949659	 0.100948
106.6182	130.2062	181.5976	227.8286	251.7773	291.8669	338.6922	391.351	485.7497	594.3651	672.4397	712.1929	769.6811	785.0304	792.1957	819.6669	881.5302	911.1921	922.8198	954.0604	995.6149	1016.5324	1025.7359	1031.1439	1066.1734	1109.835	1141.6041	1166.6198	1176.6732	1197.8791	1220.6522	1226.1607	1249.5983	1294.9033	1318.3764	1359.6368	1375.6157	1405.7225	1466.0524	1476.4545	1486.0867	1498.1046	1511.264	1518.2815	1728.9832	2969.4346	3023.6919	3028.4885	3037.6906	3059.0293	3061.3022	3066.2982	3101.8385	3118.6427	3123.8367	3141.6805	3210.1233
CCC12CCC1=CCO2	CC[C@@]12CC[C]1[CH]CO2	
InChI=1S/C8H12O/c1-2-8-5-3-7(8)4-6-9-8/h4H,2-3,5-6H2,1H3	InChI=1S/C8H12O/c1-2-8-5-3-7(8)4-6-9-8/h4H,2-3,5-6H2,1H3/t8-/m1/s1
