16
gdb 105448	2.14763	1.70793	1.23211	3.1304	65.52	-0.2574	-0.0488	0.2086	1048.8765	0.122463	-475.028417	-475.019687	-475.018743	-475.062793	30.504	
C	-0.2218401292	 1.5648210295	 0.0409967581	-0.267263
O	-0.1159947501	 0.1405997972	 0.0310281114	-0.270555
C	 0.5535152182	-0.4535006171	-1.0359260012	 0.355521
C	 0.3285753887	-1.9772194984	-0.9893576332	-0.239861
N	-0.5129731388	-2.2808208085	-2.1547847197	-0.248499
C	-0.6401574978	-1.1932645895	-2.7828975019	 0.1087
O	-0.0386297358	-0.0620630169	-2.3006764516	-0.261613
C	 2.0205559361	-0.0067097827	-1.1234309165	 0.111825
O	 2.9532228332	-0.7589142301	-1.0315585117	-0.231424
H	 0.7039281423	 2.0443149215	 0.3799967027	 0.124322
H	-0.4971900319	 1.9491503068	-0.9457063692	 0.13952
H	-1.0155870918	 1.801370346	 0.7519486882	 0.142592
H	 1.2757996654	-2.5187407923	-1.0499270396	 0.150153
H	-0.1772093116	-2.2525654656	-0.0609779484	 0.137742
H	-1.1879136642	-1.0459426574	-3.7064808404	 0.147598
H	 2.164129787	 1.0806684575	-1.2907494971	 0.101242
46.8936	82.2838	118.1349	190.3094	242.9025	255.1928	306.0154	408.4361	431.1678	507.1777	608.6307	664.4655	794.0352	882.9306	894.9644	936.8317	963.4867	987.1572	1036.2365	1069.1411	1113.2479	1144.8894	1173.1939	1207.5709	1223.5018	1265.6836	1330.6433	1336.0236	1421.5156	1472.7935	1479.1124	1500.3364	1506.8979	1715.2543	1839.656	2919.3431	3025.1834	3075.1926	3098.5792	3122.3137	3135.2119	3222.6159
COC1(CN=CO1)C=O	CO[C@]1(CN=CO1)C=O	
InChI=1S/C5H7NO3/c1-8-5(3-7)2-6-4-9-5/h3-4H,2H2,1H3	InChI=1S/C5H7NO3/c1-8-5(3-7)2-6-4-9-5/h3-4H,2H2,1H3/t5-/m0/s1
