16
gdb 83919	2.65279	1.48696	1.21685	3.7447	69.42	-0.2639	0.0222	0.2862	1038.789	0.125489	-437.879305	-437.871642	-437.870698	-437.911451	29.292	
O	-0.0347254012	 1.3735147264	-0.0188826747	-0.416667
C	-0.0312172043	-0.0050398896	-0.0152550483	 0.068667
C	-0.4532637648	-0.7278352015	 1.22337643	-0.018369
O	-1.0341098554	 0.1191448165	 2.1780434107	-0.277517
C	-2.4515008015	 0.1913014946	 1.9199808237	-0.079206
C	-2.6072661175	 0.0569135624	 0.3945528183	-0.321167
C	-1.3793841771	-0.7766393232	 0.0078111774	 0.112454
C	-1.5185559029	-1.9561641233	-0.7854150051	 0.200864
N	-1.6162156266	-2.9103077412	-1.4341724082	-0.346953
H	-0.2127773296	 1.6458210757	 0.8938366268	 0.301134
H	 0.7435862854	-0.4408944437	-0.6380456904	 0.131218
H	 0.059625858	-1.6021897995	 1.6103358408	 0.127718
H	-2.9576923	-0.6302536588	 2.4434819369	 0.120431
H	-2.8082724878	 1.1419267184	 2.3226929327	 0.125003
H	-3.5344365127	-0.4455664292	 0.1153539167	 0.135142
H	-2.5723287219	 1.0317037459	-0.0993664172	 0.137249
131.7938	156.3186	167.7492	234.6546	289.4169	448.2423	483.8213	490.7394	549.921	594.7663	630.9341	660.7239	752.4739	836.978	859.2926	883.3681	956.34	990.9482	1018.2374	1052.5961	1083.1999	1134.0786	1144.8281	1197.996	1235.8871	1247.2692	1270.5241	1306.8256	1328.5505	1357.5572	1395.4823	1441.3898	1488.313	1517.5475	2344.4936	3024.2007	3071.8011	3110.1799	3133.4372	3164.7626	3173.2257	3722.294
OC1C2OCCC12C#N	O[C@H]1[C@H]2OCC[C@@]12C#N	
InChI=1S/C6H7NO2/c7-3-6-1-2-9-5(6)4(6)8/h4-5,8H,1-2H2	InChI=1S/C6H7NO2/c7-3-6-1-2-9-5(6)4(6)8/h4-5,8H,1-2H2/t4-,5+,6+/m0/s1
