21
gdb 57676	3.82507	0.80432	0.7908	1.2771	79.86	-0.2491	-0.0427	0.2064	1502.5098	0.177863	-424.248187	-424.237305	-424.236361	-424.285734	38.071	
C	 0.0977101659	 1.6080550168	 0.0567821351	-0.422609
C	 0.0535125843	 0.0686052418	 0.0916085623	 0.237001
C	 0.7274137368	-0.4528446707	 1.3749683167	-0.422603
C	-1.4289408171	-0.41183369	 0.0155827027	-0.287883
C	-2.2415618486	-0.042557041	 1.2383376555	 0.143544
O	-2.9389633402	 0.9377605598	 1.3170298432	-0.240732
C	 0.7748070916	-0.529974338	-1.1556481966	-0.287908
C	 2.1965145087	-0.0363087597	-1.3195789784	 0.14359
O	 3.1687732593	-0.6279805109	-0.9218201454	-0.240745
H	 1.1178843944	 1.978269188	 0.199165807	 0.121334
H	-0.2739030563	 1.9953055227	-0.8980453319	 0.116846
H	-0.5244426708	 2.0354044862	 0.8473804428	 0.141375
H	 0.3013498216	 0.0192773154	 2.2658429754	 0.121363
H	 0.6076677346	-1.5370053572	 1.4750081098	 0.116865
H	 1.7998307093	-0.2416019533	 1.3674225378	 0.141325
H	-1.9114014092	 0.0373074049	-0.8584397922	 0.119921
H	-1.4427165866	-1.5034387655	-0.0942605982	 0.106574
H	-2.1513783526	-0.7423743552	 2.0994443777	 0.08313
H	 0.8043584333	-1.620842627	-1.0688123437	 0.119899
H	 0.2077931733	-0.2616666663	-2.0558652586	 0.106598
H	 2.3038037984	 0.9440211991	-1.836128831	 0.083115
32.0704	37.8288	72.5132	100.9616	194.9347	241.1037	256.4382	287.8765	296.0525	323.3682	378.4401	395.4857	485.9278	511.1448	535.3281	705.2812	834.5702	899.8067	914.6848	930.014	947.9807	977.2205	1001.4269	1022.0783	1062.3728	1093.8434	1161.8805	1199.8776	1209.2111	1231.2262	1300.0088	1318.9577	1328.7606	1408.5953	1429.7142	1429.9193	1431.2281	1464.2462	1474.6632	1483.2377	1495.125	1506.2147	1509.6886	1822.6328	1825.2194	2874.4694	2875.6455	3025.6362	3028.3248	3033.6223	3038.8933	3090.3751	3093.9916	3101.0125	3101.7125	3118.8606	3121.1499
CC(C)(CC=O)CC=O	CC(C)(CC=O)CC=O	
InChI=1S/C7H12O2/c1-7(2,3-5-8)4-6-9/h5-6H,3-4H2,1-2H3	InChI=1S/C7H12O2/c1-7(2,3-5-8)4-6-9/h5-6H,3-4H2,1-2H3
