24
gdb 101169	2.44285	1.06025	0.87413	1.4261	86.14	-0.2153	0.0714	0.2867	1476.8031	0.21474	-405.518444	-405.507164	-405.50622	-405.554905	40.841	
C	-0.7215069142	 1.7115414948	-1.6702134917	-0.383738
C	-0.626801947	 0.1880880866	-1.7777153378	-0.184602
C	 0.6452709846	-0.3824100482	-1.1339281255	 0.118947
O	 0.7568474657	-0.0008772834	 0.2408964034	-0.437019
C	 0.6978112265	-1.8922508626	-1.26967657	-0.041392
C	 1.3898276167	-2.6089369308	-2.3904819997	-0.002775
C	 2.1026973692	-1.9046942049	-3.5268695513	-0.418886
N	 1.903396591	-2.6809530211	-1.0217530019	-0.11325
C	 3.1492621216	-2.0245715674	-0.6479507701	-0.309913
H	-0.6583131286	 2.0265412624	-0.6256203265	 0.129894
H	 0.0981949056	 2.1960115832	-2.2125597796	 0.112359
H	-1.662618167	 2.0808806981	-2.0884081037	 0.108347
H	-1.4998869144	-0.276702636	-1.2971015421	 0.08659
H	-0.6565773517	-0.1237313247	-2.8292945085	 0.100122
H	 1.5143905314	 0.0832366852	-1.6074244738	 0.080412
H	 0.0803575531	-0.4826236657	 0.7308038855	 0.277163
H	-0.203350661	-2.3621908827	-0.8631883668	 0.072461
H	 0.9391618295	-3.5496530146	-2.7096675098	 0.085347
H	 2.511880745	-0.9306120871	-3.2548703144	 0.123929
H	 2.9292525326	-2.5205602736	-3.8984860406	 0.124378
H	 1.409526335	-1.7511639082	-4.3610099544	 0.123215
H	 3.4017173584	-1.1159034441	-1.2115355665	 0.099416
H	 3.0925548045	-1.7499905839	 0.408501059	 0.13375
H	 3.9696664135	-2.7378883315	-0.7776019831	 0.115244
57.1675	91.9283	111.8661	149.045	158.0331	190.3165	220.4363	245.5761	274.1136	281.6929	310.5745	407.1321	434.8866	482.5741	560.1954	565.4614	743.4344	778.3937	780.3104	890.1023	919.53	978.6703	989.5349	1044.298	1057.2096	1082.1239	1108.2955	1113.5408	1139.1642	1155.3611	1172.2889	1185.976	1199.1967	1252.1206	1277.5329	1328.6441	1352.4425	1380.701	1395.3158	1406.2695	1414.6328	1420.9955	1441.1035	1461.0202	1479.583	1483.5536	1495.6327	1496.7932	1506.82	1508.0693	1509.6227	3002.4519	3005.772	3036.8096	3037.4509	3043.3505	3049.4556	3070.2426	3078.1643	3086.6026	3091.406	3101.1903	3115.1527	3124.2477	3136.519	3791.7847
CCC(O)C1C(C)N1C	CC[C@@H](O)[C@H]1[C@@H](C)N1C	
InChI=1S/C7H15NO/c1-4-6(9)7-5(2)8(7)3/h5-7,9H,4H2,1-3H3	InChI=1S/C7H15NO/c1-4-6(9)7-5(2)8(7)3/h5-7,9H,4H2,1-3H3/t5-,6-,7-,8?/m1/s1
