17
gdb 35553	2.57832	1.63491	1.47571	4.0939	70.97	-0.248	0.0278	0.2758	963.0007	0.138699	-418.000925	-417.993523	-417.992578	-418.032968	28.336	
N	 0.5898507723	-0.7940795679	 1.0898873669	-0.335653
C	 0.2766469581	 0.2188070415	 0.6277792964	 0.275855
C	-0.0711136502	 1.490543353	-0.0436024568	-0.134451
C	-0.971007319	 2.4036074489	 0.8244606154	-0.235776
C	 0.028743356	 3.24115962	 1.6144919259	 0.131941
O	 0.6152064298	 2.5226167689	 2.7187535948	-0.288177
C	 1.9311525674	 2.5669924429	 2.1198659714	-0.096414
C	 1.3592821248	 3.199022284	 0.8247153835	-0.044111
N	 1.0826401627	 2.3511395734	-0.3280734122	-0.298076
H	-0.5695891596	 1.2204423268	-0.9809595821	 0.129897
H	-1.5620032806	 3.0456376006	 0.1651584135	 0.119439
H	-1.6444021963	 1.8454847617	 1.4767365351	 0.139118
H	-0.3630779574	 4.2154648337	 1.9227577084	 0.083666
H	 2.6067794574	 3.2237169283	 2.6824867334	 0.103128
H	 2.3761020994	 1.5708265746	 2.0265477092	 0.122789
H	 1.8210178971	 4.1363079612	 0.5083229467	 0.090651
H	 1.8876449982	 1.8407830383	-0.6718916395	 0.236175
103.1591	119.6799	194.7894	265.6832	368.6155	396.0355	469.0831	545.7867	625.864	711.094	769.2746	805.3637	832.653	866.9534	899.9664	914.3353	972.0776	996.331	1018.4939	1042.5325	1071.474	1080.9686	1149.9982	1173.7872	1196.8753	1214.0682	1241.0145	1277.8464	1319.2775	1335.2856	1356.7951	1358.9473	1368.578	1437.3066	1465.1948	1513.8187	2342.6069	3017.8762	3049.1269	3056.593	3074.6735	3078.9596	3092.1057	3136.3217	3554.7497
N#CC1CC2OCC2N1	N#C[C@H]1C[C@H]2OC[C@H]2N1	
InChI=1S/C6H8N2O/c7-2-4-1-6-5(8-4)3-9-6/h4-6,8H,1,3H2	InChI=1S/C6H8N2O/c7-2-4-1-6-5(8-4)3-9-6/h4-6,8H,1,3H2/t4-,5-,6-/m1/s1
