14
gdb 27960	3.14405	1.35442	0.94684	2.7765	74.57	-0.2391	-0.0807	0.1584	1146.1108	0.102549	-432.939234	-432.9316	-432.930656	-432.971597	28.112	
N	 0.0010963859	 1.3445565462	 0.1044692004	-0.554389
C	 0.0068625089	-0.0112088162	 0.0380440071	 0.442664
N	-1.1838364465	-0.6264122988	 0.0304622128	-0.34349
C	-1.1506429964	-1.9588495933	 0.0068087548	 0.217863
C	-2.4568526332	-2.6983486868	-0.0047898735	 0.107155
O	-3.5420674169	-2.1813590183	-0.0027519931	-0.237125
C	 0.0374606006	-2.6844051124	-0.0122452584	-0.195994
C	 1.2129185823	-1.9329421053	-0.0158524869	 0.017447
N	 1.2204264542	-0.6080348027	 0.0073710221	-0.303819
H	 0.8633259491	 1.8307795264	-0.068449667	 0.267764
H	-0.8725707393	 1.8191843311	-0.0436363385	 0.271672
H	-2.3362119687	-3.8052681138	-0.0167950048	 0.077449
H	 0.0476909442	-3.7670480269	-0.0321116752	 0.110741
H	 2.1862983358	-2.418694069	-0.0409219997	 0.122063
91.2105	188.2857	189.3273	218.392	284.1025	402.0798	453.9256	458.6596	538.4361	600.4515	638.3348	681.3654	794.3011	820.3267	832.4714	974.7419	1003.2271	1009.4578	1031.2536	1082.8679	1140.5144	1222.9682	1286.5071	1370.5778	1429.1463	1483.6715	1489.9422	1592.3535	1616.7759	1646.5446	1827.7083	2878.0608	3151.1052	3208.9481	3620.7178	3755.2454
NC1=NC(C=O)=CC=N1	Nc1nc(C=O)ccn1	
InChI=1S/C5H5N3O/c6-5-7-2-1-4(3-9)8-5/h1-3H,(H2,6,7,8)	InChI=1S/C5H5N3O/c6-5-7-2-1-4(3-9)8-5/h1-3H,(H2,6,7,8)
