19
gdb 40152	2.61516	1.57752	1.27992	2.9367	75.24	-0.2373	0.0548	0.2921	1062.7302	0.158607	-422.971427	-422.963258	-422.962314	-423.004739	30.967	
C	 0.0929369652	 1.4530118856	-0.1603183905	-0.268436
O	 1.2150823232	 0.5621126603	-0.2225505195	-0.264661
C	-0.0638445872	 0.0015065955	-0.0341813976	 0.423025
C	-0.5444069586	-0.804637741	 1.1744453584	-0.333121
C	-1.5645239546	-1.4923860434	 0.2152266452	-0.293977
C	-0.7545426996	-0.9729897629	-1.0012063039	 0.371207
C	-1.3101398619	-0.6134701893	-2.3889852435	-0.378051
C	-0.2637841313	-1.6137109463	-2.9140784685	-0.063255
O	 0.1386376378	-1.9565688161	-1.5715530347	-0.313059
H	 0.0366953347	 2.0754990899	 0.7323133679	 0.115355
H	-0.1542849949	 1.9573099428	-1.093691558	 0.112745
H	 0.2242594451	-1.4991378697	 1.5227245292	 0.12858
H	-0.9401594066	-0.2479755129	 2.0264249009	 0.104505
H	-1.6436486617	-2.5790209535	 0.2712770665	 0.116094
H	-2.5618709994	-1.0469792521	 0.2664065027	 0.105846
H	-2.3507245753	-0.9058494912	-2.5440259552	 0.113774
H	-1.1806194729	 0.4256325859	-2.6975040324	 0.111455
H	-0.6513863454	-2.4829138832	-3.4576532348	 0.102855
H	 0.5614126733	-1.1723586785	-3.4853236022	 0.10912
60.6942	77.2606	180.8447	221.2561	287.7378	331.5702	425.0462	477.8937	535.7468	599.0901	724.3338	780.345	857.8085	865.7247	874.3311	894.2644	898.5413	928.2289	950.7848	984.0305	1027.4843	1106.8336	1117.4455	1128.7576	1146.833	1154.0297	1163.9961	1168.43	1195.5742	1213.3778	1235.867	1253.8735	1256.3459	1312.3943	1355.9505	1422.6896	1461.7504	1482.3833	1486.3231	1529.0906	1534.6741	3021.9851	3063.3081	3064.4547	3068.0367	3073.0568	3077.007	3118.5249	3126.5887	3135.1169	3162.7029
C1OC11CCC11CCO1	C1O[C@]21CC[C@]12CCO1	
InChI=1S/C7H10O2/c1-2-7(5-9-7)6(1)3-4-8-6/h1-5H2	InChI=1S/C7H10O2/c1-2-7(5-9-7)6(1)3-4-8-6/h1-5H2/t6-,7+/m1/s1
