15
gdb 124221	4.84482	1.00639	0.98181	4.0236	68.76	-0.2514	-0.0044	0.2469	1231.5792	0.111977	-453.940841	-453.932684	-453.93174	-453.9749	28.881	
C	-0.2059139452	 1.4311511852	-0.0325291896	-0.464742
C	 0.0805629659	-0.0396473317	 0.0543281703	 0.373036
N	 0.5970476088	-0.7281705391	 0.9722336768	-0.480714
O	-0.3208405613	-0.6464350067	-1.1247512577	-0.278228
C	-0.2475796029	-1.9903103626	-1.2136898128	 0.575743
C	 0.6065255185	-2.8059690288	-1.8820807448	-0.385533
C	 0.0437920936	-4.0877896279	-1.6517583541	 0.052464
N	-1.0446512195	-4.0400242426	-0.9214127916	-0.140338
O	-1.2367554136	-2.6840726974	-0.6420023298	-0.199909
H	 0.2886697279	 1.8604552003	-0.9089223733	 0.155178
H	-1.2809725085	 1.5957629051	-0.1530499915	 0.160138
H	 0.1389070999	 1.9455680379	 0.8650843699	 0.136215
H	 0.8443046181	-0.1485123019	 1.7706768068	 0.2348
H	 1.4890773536	-2.5328229757	-2.4328968004	 0.127116
H	 0.3959238647	-5.0503824642	-1.9957572983	 0.134775
48.3083	69.1931	120.2286	134.1452	322.9421	348.8774	427.6803	553.2374	559.4317	646.2067	666.1021	774.4625	807.0159	859.22	910.9723	918.0053	928.4278	934.4928	1003.3362	1043.994	1057.0649	1058.8037	1070.2861	1227.8875	1277.0865	1329.1407	1376.9575	1410.8638	1469.8755	1480.5756	1518.1938	1652.8592	1763.9319	3051.8892	3115.8043	3151.4603	3241.8385	3294.5258	3526.7521
CC(=N)OC1=CC=NO1	C[C]([NH])Oc1ccno1	
InChI=1S/C5H6N2O2/c1-4(6)8-5-2-3-7-9-5/h2-3,6H,1H3	InChI=1S/C5H6N2O2/c1-4(6)8-5-2-3-7-9-5/h2-3,6H,1H3
