13
gdb 28670	6.00187	1.04195	0.88782	1.5187	80.05	-0.2368	-0.0555	0.1814	1202.735	0.090195	-415.6319	-415.624692	-415.623748	-415.663596	27.528	
O	 0.0679868887	 1.3427403842	 0.0819538888	-0.408971
C	 0.0609206207	 0.0008982304	 0.0451286422	 0.42482
N	 0.1006675242	-0.6028149751	-1.1341667396	-0.335163
C	 0.0918211177	-1.9362336968	-1.1222633692	-0.065464
C	 0.0432711183	-2.6716091991	 0.0667824293	 0.146446
N	 0.0031751616	-2.0404724139	 1.2603756655	-0.28471
C	 0.0118284636	-0.7203434666	 1.2513130271	-0.094287
C	 0.0352454555	-4.0969565536	 0.0415350377	 0.229337
C	 0.0298294137	-5.2989968921	-0.0165050425	-0.376168
H	 0.1038302249	 1.6456207038	-0.8367436192	 0.305564
H	 0.1241272424	-2.4415927354	-2.082693933	 0.129768
H	-0.0200318819	-0.1979353101	 2.2029570474	 0.129926
H	 0.0244673408	-6.3604676157	-0.0523429546	 0.198901
96.1536	147.8887	250.4806	398.6913	434.4741	456.4068	467.9848	522.0004	543.5738	593.3204	615.3275	663.2619	669.4123	739.0479	811.8588	889.8284	933.0441	965.2175	1034.1629	1167.8507	1259.7092	1271.5931	1303.1109	1357.3573	1423.067	1512.2985	1588.4671	1625.9481	2231.9604	3175.0696	3180.7475	3501.8827	3759.8167
OC1=NC=C(N=C1)C#C	Oc1ncc(nc1)C#C	
InChI=1S/C6H4N2O/c1-2-5-3-8-6(9)4-7-5/h1,3-4H,(H,8,9)	InChI=1S/C6H4N2O/c1-2-5-3-8-6(9)4-7-5/h1,3-4H,(H,8,9)
