20
gdb 32673	3.33938	1.28939	0.98502	2.2573	86.72	-0.1942	0.0542	0.2484	1237.7978	0.172624	-366.024642	-366.016337	-366.015393	-366.058044	31.688	
C	-0.2174392057	 1.5622205744	-0.0718082176	-0.388269
C	-0.3898307368	 0.0663268789	 0.2069244522	-0.186617
C	 0.6853160319	-0.5014253262	 1.121244581	 0.055462
C	 0.7714529427	-2.0728227008	 1.2685795355	-0.419326
C	 2.1693678449	-1.9250196558	 0.6949138203	 0.343181
C	 3.4513503355	-2.3017011737	 0.3658794318	-0.334644
C	 4.1116600041	-1.0825200232	 0.0045126449	-0.12971
C	 3.2323410458	-0.0187300917	 0.1427200487	-0.164541
N	 2.0493093471	-0.5773044102	 0.544655059	 0.022163
H	 0.7329447566	 1.7595795944	-0.5779691678	 0.130408
H	-1.0193501309	 1.9372291164	-0.7142806859	 0.119652
H	-0.2322567896	 2.1445957867	 0.8560489596	 0.11691
H	-1.3626369251	-0.1174205583	 0.680918917	 0.103849
H	-0.3840851095	-0.4952619115	-0.7349438644	 0.108989
H	 0.6841743781	 0.01806819	 2.0870369844	 0.093495
H	 0.7072555958	-2.4348140928	 2.2983847097	 0.119031
H	 0.046764442	-2.6174500196	 0.6556486552	 0.115097
H	 3.8834593653	-3.2898186222	 0.3726687395	 0.091726
H	 5.1323674697	-0.9979458299	-0.3393703261	 0.089385
H	 3.360892438	 1.0360759352	-0.0360741268	 0.113759
60.675	95.4878	144.0911	214.9639	256.4345	353.45	403.8328	513.1086	603.3988	654.9931	682.3346	695.3952	752.8424	760.4027	809.8512	822.2796	857.0739	926.9777	962.7399	982.5885	1015.7602	1038.9883	1069.8122	1091.0424	1101.4053	1120.1244	1184.7233	1215.6118	1229.7141	1250.016	1291.466	1298.3808	1339.891	1392.7701	1411.3024	1414.6754	1428.144	1474.9604	1478.7472	1497.058	1499.4637	1507.1025	1581.1634	3025.4934	3033.2411	3035.8926	3050.7881	3066.6428	3097.352	3104.6364	3111.177	3234.5823	3257.2849	3270.9677
CCC1CC2=CC=CN12	CC[C@H]1Cc2cccn12	
InChI=1S/C8H11N/c1-2-7-6-8-4-3-5-9(7)8/h3-5,7H,2,6H2,1H3	InChI=1S/C8H11N/c1-2-7-6-8-4-3-5-9(7)8/h3-5,7H,2,6H2,1H3/t7-/m0/s1
