16
gdb 28353	3.21075	1.44068	1.00089	0.9013	80.72	-0.1966	-0.0352	0.1614	1144.1199	0.125144	-434.113968	-434.10564	-434.104696	-434.14663	31.523	
C	 0.0505095408	 1.5096609545	 0.0010785711	-0.475175
C	-0.0853943552	 0.0280572184	 0.0556798563	 0.339639
C	-1.1546398114	-0.7197892476	-0.2614227605	-0.144756
N	-1.1804640797	-2.1003185105	-0.1832418932	-0.351193
C	-0.0943673965	-2.6834660364	 0.2178168882	 0.354877
N	 0.012157542	-4.0306665619	 0.294683414	-0.546795
C	 1.1303286642	-1.9452659279	 0.6119381316	 0.344805
N	 2.160364242	-2.5591582406	 1.0362253482	-0.552176
O	 1.0681325119	-0.5914374684	 0.496842457	-0.257741
H	 0.8568424315	 1.8096591139	-0.6786081674	 0.137833
H	-0.8816354502	 1.9584608339	-0.3482259521	 0.137108
H	 0.2878098289	 1.923755438	 0.9881362321	 0.137295
H	-2.0646243107	-0.2411323443	-0.6034753088	 0.107007
H	-0.8201369894	-4.5844078206	 0.1880055438	 0.262906
H	 0.8263252436	-4.4063708176	 0.752664551	 0.280329
H	 2.9097224503	-1.9085887132	 1.2720500331	 0.226036
102.7986	152.6364	177.435	252.6475	285.9781	342.8127	351.7692	441.5861	492.9041	513.6513	551.2539	569.4334	595.8672	700.7922	786.3661	802.0984	856.4758	877.0678	970.7148	993.4029	1056.6971	1066.0767	1118.9135	1221.9125	1269.8975	1288.3503	1362.2304	1415.3953	1444.014	1467.023	1490.107	1576.7433	1661.0116	1681.411	1730.1734	3026.5392	3075.8593	3132.0597	3197.5009	3492.0055	3600.0112	3740.2225
CC1=CN=C(N)C(=N)O1	CC1=C[N]C(=C([NH])O1)N	
InChI=1S/C5H7N3O/c1-3-2-8-4(6)5(7)9-3/h2,7H,1H3,(H2,6,8)	InChI=1S/C5H7N3O/c1-3-2-8-4(6)5(7)9-3/h2,7H,1H3,(H2,6,8)
