19
gdb 97146	2.88729	1.38654	1.2186	3.567	78.61	-0.2377	0.0346	0.2723	1123.064	0.159444	-419.196355	-419.187538	-419.186594	-419.230505	32.043	
C	-0.2321498533	 1.3749499181	 0.1466317059	-0.329696
N	-0.2080989107	-0.0752797347	 0.2196479874	-0.321661
C	 0.6675488353	-0.6453661006	 0.9141400747	 0.459699
O	 1.6428123946	-0.0030125752	 1.6545088409	-0.255203
C	 2.5259538989	-0.9576581416	 2.2473715305	-0.120701
C	 1.8991442463	-2.3076723886	 1.947050773	-0.066813
C	 0.5106975636	-2.574115719	 2.3995347685	-0.001597
C	-0.2181077319	-1.7617653503	 3.442914689	-0.427107
N	 0.7778226256	-2.0603348653	 1.0209042279	-0.172861
H	 0.6766557852	 1.861211535	 0.5198555296	 0.119935
H	-0.3925185884	 1.6738394217	-0.8945530766	 0.123776
H	-1.0862727088	 1.7566649915	 0.7199946047	 0.122178
H	 3.5159302793	-0.8741177747	 1.7850462279	 0.123748
H	 2.618779068	-0.7320705201	 3.3152235603	 0.121121
H	 2.5643327134	-3.1282480861	 1.6961784681	 0.107056
H	 0.1936865117	-3.613759666	 2.3562002698	 0.106848
H	 0.14538803	-0.7345235515	 3.5125301406	 0.142723
H	-1.2877450516	-1.7255406616	 3.214260768	 0.144091
H	-0.1004680072	-2.234721731	 4.4234755297	 0.124465
45.464	88.9834	171.035	189.2578	219.8656	243.3338	270.786	408.7639	493.067	516.8427	676.0109	703.5482	761.4415	775.8769	792.0331	855.1518	954.0153	982.12	998.0138	1048.3635	1071.5137	1074.616	1119.1028	1120.5163	1133.6527	1152.0061	1168.0529	1198.4523	1225.6384	1303.6887	1370.617	1384.5773	1421.2354	1433.077	1441.3812	1492.2871	1494.5795	1499.253	1502.4619	1526.2442	1809.8745	3012.9384	3035.5609	3043.4575	3070.1674	3074.2363	3087.9593	3105.1686	3123.6258	3140.4733	3157.2702
CN=C1OCC2C(C)N12	CN=C1OC[C@H]2[C@@H](C)N12	
InChI=1S/C6H10N2O/c1-4-5-3-9-6(7-2)8(4)5/h4-5H,3H2,1-2H3	InChI=1S/C6H10N2O/c1-4-5-3-9-6(7-2)8(4)5/h4-5H,3H2,1-2H3/t4-,5+,8?/m1/s1
