19
gdb 88205	3.51218	1.21345	1.03483	3.2855	71.61	-0.25	0.081	0.331	1196.2904	0.159373	-460.141724	-460.133421	-460.132477	-460.174592	31.468	
C	-0.0393373749	 1.5277627813	-0.1360488475	-0.428076
C	-0.0014373336	 0.0350680411	 0.0814234024	 0.011247
O	 1.2582213658	-0.6316909618	-0.0676720034	-0.287641
C	 0.6342289771	-0.636907665	 1.2243988313	 0.361752
C	 1.3583062114	 0.1046776439	 2.3329710051	-0.159062
O	 2.2685589662	-0.7590394992	 3.0024260337	-0.232934
C	 1.6327540591	-1.9227373151	 3.4585350715	 0.021426
O	 1.1092353051	-2.6967120153	 2.4133863157	-0.230941
C	 0.1116712982	-1.9814957471	 1.6976059904	-0.153055
H	 0.7961813896	 2.0347121128	 0.3501816191	 0.13007
H	 0.0090705609	 1.7494421297	-1.2070620432	 0.13573
H	-0.9758001436	 1.9456111821	 0.2489818453	 0.125027
H	-0.8301145138	-0.5013806658	-0.3893396947	 0.084779
H	 1.948673325	 0.930290697	 1.9350803568	 0.122791
H	 0.6209466903	 0.5043262919	 3.0510920705	 0.091623
H	 2.3919290695	-2.5276690682	 3.957117363	 0.122713
H	 0.8252150397	-1.6554970593	 4.1698351561	 0.071033
H	-0.773168999	-1.8254772616	 2.3397911958	 0.090538
H	-0.175434503	-2.5981493913	 0.843261442	 0.12298
95.4689	155.007	179.6665	203.1274	264.1539	320.5166	401.9502	423.574	446.9582	515.1551	529.8128	641.9508	745.6274	854.3288	919.4657	930.5714	957.5796	964.2021	995.8979	1029.165	1064.6813	1072.367	1119.6557	1140.3355	1189.6257	1201.397	1235.9988	1276.6261	1305.9441	1335.1159	1344.2193	1373.5375	1410.5433	1414.4414	1441.0874	1470.4602	1476.9765	1479.066	1490.4987	1505.1727	1518.4869	2901.18	2951.2298	2960.9246	3041.1113	3066.7445	3102.3566	3109.4024	3119.5843	3124.8446	3138.9197
CC1OC11COCOC1	C[C@H]1OC21COCOC2	
InChI=1S/C6H10O3/c1-5-6(9-5)2-7-4-8-3-6/h5H,2-4H2,1H3	InChI=1S/C6H10O3/c1-5-6(9-5)2-7-4-8-3-6/h5H,2-4H2,1H3/t5-/m1/s1
