17
gdb 120245	3.2107	1.03436	0.86261	1.9512	69.88	-0.2482	-0.0331	0.2151	1343.5708	0.133665	-458.915923	-458.907159	-458.906215	-458.950385	30.946	
C	-0.4073989647	 1.4209065415	 0.6086088997	-0.228676
O	-0.4192022242	 0.0118126211	 0.6051314843	-0.240139
C	-0.8374367133	-0.5282343801	-0.6312690488	-0.074194
C	-0.842853936	-2.0374367484	-0.5019699637	-0.17445
C	-1.9970091888	-2.6955478222	 0.2741216373	 0.032809
O	-3.1897184195	-2.3685789193	-0.4271873824	-0.232929
C	-2.4356507606	-3.5158673977	-0.8839599303	-0.11484
C	-1.3027244297	-2.9162786319	-1.7146781759	 0.403339
O	-0.8489220935	-3.1261450077	-2.7981767208	-0.296268
H	-0.0758862777	 1.7420586172	 1.5988860697	 0.128666
H	 0.2846572458	 1.8248574204	-0.1469101308	 0.107012
H	-1.4080840816	 1.8375915847	 0.4147992576	 0.108829
H	-1.8451840619	-0.1723768072	-0.895030335	 0.108275
H	-0.153925459	-0.2284504736	-1.4427379578	 0.102902
H	 0.1403852959	-2.3933791454	-0.1717346094	 0.115713
H	-2.0683798647	-2.9320285204	 1.3277841433	 0.125626
H	-2.9540885167	-4.464711041	-0.9474637873	 0.128326
57.7151	98.0837	121.0224	144.5843	222.3613	264.4499	273.822	370.5596	522.1953	570.8569	650.6286	714.2501	813.2607	847.8891	864.4529	907.5223	943.4392	993.4254	1022.1473	1047.5432	1067.7753	1135.9399	1153.7293	1171.191	1185.1264	1212.0066	1229.2046	1249.5986	1253.1384	1336.3652	1352.3899	1415.045	1480.1844	1485.7357	1503.0391	1528.9887	1900.9917	2966.7137	2977.3515	3008.867	3019.4451	3057.7946	3116.4107	3198.8627	3216.2103
COCC1C2OC2C1=O	COC[C@H]1[C@H]2O[C@H]2C1=O	
InChI=1S/C6H8O3/c1-8-2-3-4(7)6-5(3)9-6/h3,5-6H,2H2,1H3	InChI=1S/C6H8O3/c1-8-2-3-4(7)6-5(3)9-6/h3,5-6H,2H2,1H3/t3-,5-,6+/m1/s1
