15
gdb 18101	4.57556	2.18618	1.57076	1.1695	66.13	-0.2335	-0.0049	0.2286	780.1599	0.123227	-358.864717	-358.858851	-358.857907	-358.894504	23.352	
C	-0.0312408702	 1.4118846283	-0.0288908343	-0.16395
C	 1.4530370958	 1.902549447	 0.0668707113	-0.246175
C	 2.1672143541	 0.7379298062	-0.6338608048	-0.029316
N	 3.4850801988	 0.2051821124	-0.2390302307	-0.259539
C	 3.2842829664	-1.0439802997	-0.0448382633	 0.051532
N	 1.9660517652	-1.5200995444	-0.2051604498	-0.384948
C	 1.1996112413	-0.3669280576	-0.2904535015	 0.391463
N	 0.0120908126	-0.0751959814	 0.045668094	-0.310249
H	-0.6615784968	 1.7978308637	 0.7767896361	 0.111257
H	-0.4872552942	 1.7284514389	-0.9773461239	 0.108042
H	 1.6191844604	 2.8766809911	-0.3976342024	 0.105405
H	 1.7626092106	 1.9563803797	 1.1155305564	 0.11655
H	 2.1931394036	 0.916176522	-1.7199115024	 0.109415
H	 4.0637413077	-1.7522898416	 0.2180193417	 0.13586
H	 1.6364191647	-2.3540301347	 0.2572819436	 0.264653
175.877	261.6437	322.244	440.1119	550.7104	583.8863	627.6529	672.6501	731.4889	840.7466	853.2748	883.4514	925.4128	941.2823	980.5124	993.7201	1048.2772	1071.4289	1109.7697	1166.7705	1191.131	1242.9771	1283.4084	1311.4392	1313.5162	1329.3082	1352.2007	1378.9809	1487.8317	1503.8332	1649.7142	1769.6339	2990.9553	3014.0252	3059.9822	3088.0414	3121.097	3194.473	3626.7848
C1CC2N=CNC2=N1	C1C[C@H]2[N][CH]N[C]2[N]1	
InChI=1S/C5H7N3/c1-2-6-5-4(1)7-3-8-5/h3-4H,1-2H2,(H,6,7,8)	InChI=1S/C5H7N3/c1-2-6-5-4(1)7-3-8-5/h3-4H,1-2H2,(H,6,7,8)/t4-/m1/s1
