18
gdb 40860	4.05853	1.39979	1.29244	1.8168	73.9	-0.2465	0.0669	0.3134	1009.0319	0.14944	-401.859227	-401.852292	-401.851348	-401.890894	27.309	
C	-0.039139607	 1.4705821358	 0.2136354567	-0.250188
C	 1.4610698618	 1.4213615036	-0.0168875629	-0.039558
C	 1.9911282224	 0.1451348564	 0.5533220099	-0.142194
N	 1.3784107328	 0.1587994027	-0.827335038	-0.162669
C	 0.0397086755	-0.0472097926	-0.0387981961	-0.092237
C	 0.8391342901	-0.6439566978	 1.1299653785	 0.346982
C	 0.9542838017	-2.1779386549	 1.2540597418	-0.141313
O	 0.4386403291	-2.1422348475	 2.6011477261	-0.275167
C	 0.3712935204	-0.7021730824	 2.5943200036	-0.157915
H	-0.4331497008	 1.8249947354	 1.1721614114	 0.100997
H	-0.5439584724	 1.9846404171	-0.6079795589	 0.116504
H	 2.1215958917	 2.2294163024	-0.3110742486	 0.100094
H	 3.0520969093	-0.0318672791	 0.6948639933	 0.097697
H	-0.7784163953	-0.600184476	-0.4980967013	 0.087389
H	 0.3176249992	-2.7667335552	 0.5818363354	 0.10607
H	 1.977013405	-2.5754327606	 1.2159834009	 0.103304
H	 1.0561776393	-0.2516807878	 3.3251980256	 0.101609
H	-0.6450861527	-0.3332453295	 2.7872454327	 0.100596
73.7117	159.2137	218.3215	324.9824	417.248	462.1353	545.2536	753.401	778.8483	797.4966	816.0908	845.489	890.7321	912.8896	938.8789	966.9328	984.4256	995.868	1027.1092	1036.9932	1043.7577	1052.1794	1101.9598	1124.8383	1148.3593	1156.7369	1159.5396	1183.2014	1222.3859	1229.0364	1256.8741	1272.3794	1305.756	1358.1382	1368.6371	1402.3388	1496.1693	1506.1927	1531.2538	2996.6901	3009.9095	3040.5088	3043.1772	3050.4793	3106.9671	3130.5787	3169.4547	3183.065
C1C2C3N2C1C31COC1	C1[C@H]2[C@@H]3N2[C@H]1C13COC1	
InChI=1S/C7H9NO/c1-4-6-7(2-9-3-7)5(1)8(4)6/h4-6H,1-3H2	InChI=1S/C7H9NO/c1-4-6-7(2-9-3-7)5(1)8(4)6/h4-6H,1-3H2/t4-,5+,6-,8?/m0/s1
