16
gdb 37317	3.273	1.73771	1.41344	2.6839	67.7	-0.2469	0.0217	0.2686	911.3193	0.126931	-437.847268	-437.84073	-437.839786	-437.878339	25.804	
C	-0.0650109737	 1.5098630202	-0.0199656021	-0.090794
O	 1.2246458814	 2.1190346116	 0.2005116432	-0.227408
C	 2.0554027892	 1.5211235409	 1.0823023093	 0.131041
N	 2.0738805825	 0.3221065552	 1.4922777863	-0.271176
C	 1.1204019565	-0.5789204476	 0.9098075666	 0.004061
C	 0.0237824995	-1.184191265	 1.8027343975	 0.020584
O	-0.8900459963	-0.1470093951	 2.169013222	-0.236841
C	-1.0266702561	-0.7319915485	 0.8718628312	 0.0065
C	-0.0065023882	-0.0150984795	-0.0375684562	-0.1132
H	-0.7189272391	 1.8424823557	 0.791087668	 0.134875
H	-0.4178029387	 1.9307678065	-0.9634346133	 0.116747
H	 2.8064641101	 2.2316051653	 1.4243656151	 0.12335
H	 1.6601759946	-1.3905368129	 0.4090848862	 0.097205
H	 0.0817410961	-2.0445684203	 2.4588932218	 0.111043
H	-1.9839254712	-1.1712094919	 0.6171925252	 0.109383
H	 0.0563319035	-0.4236395547	-1.0473056609	 0.08463
110.688	161.8684	283.74	397.985	475.6447	503.8062	568.3484	640.2933	742.322	781.8849	838.4233	861.2893	877.679	910.7853	925.3605	973.7336	980.7351	1018.2161	1025.7629	1050.2581	1091.9721	1122.7077	1165.9553	1194.3885	1232.2622	1243.189	1267.4429	1295.3531	1335.5176	1347.2671	1380.2411	1416.1719	1421.8966	1496.8564	1717.1938	3044.6232	3062.4074	3095.855	3120.4577	3153.023	3183.8591	3198.7733
C1OC=NC2C3OC3C12	C1OC=N[C@H]2[C@H]3O[C@H]3[C@@H]12	
InChI=1S/C6H7NO2/c1-3-4(7-2-8-1)6-5(3)9-6/h2-6H,1H2	InChI=1S/C6H7NO2/c1-3-4(7-2-8-1)6-5(3)9-6/h2-6H,1H2/t3-,4+,5-,6+/m0/s1
