21
gdb 38425	3.55387	1.28502	1.25702	1.7539	80.87	-0.2531	0.0878	0.3409	1108.149	0.184367	-387.077558	-387.069968	-387.069024	-387.109488	30.939	
C	 0.0668815945	 1.3368819428	-0.6083378658	-0.216194
C	 1.3536686862	 1.6680079493	 0.1923561271	-0.243928
C	 1.3196738103	 0.2305538099	 0.8001580013	 0.375086
C	-0.1627443737	 0.1292012647	 0.3396668984	-0.285793
C	 2.2929378172	-0.7467364062	 0.0891590969	-0.307046
C	 3.498031472	-0.8065219727	 1.0051574545	 0.051034
O	 3.9388114494	 0.4794575317	 1.4667016427	-0.258326
C	 3.1120130405	-0.3142040934	 2.3332216347	 0.053041
C	 1.6507497516	 0.0815547818	 2.3020200269	-0.332501
H	-0.713258082	 2.1005348057	-0.6460934218	 0.09482
H	 0.2843364215	 1.0193817656	-1.6319746857	 0.100744
H	 2.2513355497	 1.9471930512	-0.3627046513	 0.1045
H	 1.173625426	 2.429142038	 0.9575494081	 0.093623
H	-0.8524618782	 0.3751416947	 1.1535523519	 0.095689
H	-0.4812078321	-0.8179858697	-0.1062707323	 0.089401
H	 1.8579333721	-1.7529948453	 0.0186864499	 0.09766
H	 2.541958868	-0.4267404356	-0.9279456636	 0.106303
H	 4.2858680676	-1.5398374225	 0.8506217737	 0.089558
H	 3.5889271548	-0.6492978794	 3.2510116529	 0.089808
H	 1.4404942581	 0.9981249873	 2.8630601598	 0.103848
H	 1.0561668966	-0.7238648178	 2.7553171318	 0.098673
114.0621	123.1354	232.0587	321.9722	368.3861	389.9882	403.4818	496.8755	662.5396	684.2912	771.8416	792.6888	811.6456	862.059	871.1871	877.3887	921.8796	933.6161	940.4271	956.5358	968.9412	994.5372	1029.6124	1058.0935	1100.6139	1122.2251	1138.3737	1178.1924	1200.3553	1205.4827	1241.9959	1257.6771	1262.8847	1269.0143	1282.4731	1298.7768	1302.3948	1335.733	1340.3337	1440.0795	1472.9801	1475.5873	1482.6917	1489.8335	1507.9928	3015.7382	3020.2142	3040.2635	3055.0163	3059.1901	3072.0453	3073.9672	3086.8535	3105.4631	3119.2403	3137.0549	3149.8552
C1CC2(C1)CC1OC1C2	C1CC2(C1)C[C@H]1O[C@H]1C2	
InChI=1S/C8H12O/c1-2-8(3-1)4-6-7(5-8)9-6/h6-7H,1-5H2	InChI=1S/C8H12O/c1-2-8(3-1)4-6-7(5-8)9-6/h6-7H,1-5H2/t6-,7+
