27
gdb 119142	2.13246	0.99497	0.86434	0.1074	95.83	-0.2607	0.086	0.3467	1597.1908	0.250654	-353.557799	-353.546563	-353.545618	-353.594102	42.372	
C	-2.3495792385	 1.6064105269	 1.1744637473	-0.379401
C	-2.3218035363	 0.0762651935	 1.2492074757	-0.186737
C	-1.3222150724	-0.5310818888	 0.2559648942	-0.254725
C	-1.2505327098	-2.0561888184	 0.1653717244	 0.386735
C	-1.6802617172	-2.916534499	 1.3319635424	-0.314347
C	-2.5315843313	-2.8536051164	 0.0847384166	-0.316868
C	-0.0795370295	-2.6090374856	-0.6607022087	-0.017263
C	-0.1162921174	-2.1416597628	-2.1238512644	-0.398537
C	 1.287576989	-2.3214372008	-0.0205557319	-0.397382
H	-3.0554575999	 2.0279983946	 1.8968858311	 0.109662
H	-1.3620254907	 2.031099487	 1.3870026942	 0.113539
H	-2.6475526008	 1.9495148598	 0.1774614176	 0.113652
H	-2.0620911484	-0.2272504013	 2.2701291006	 0.100486
H	-3.3310665182	-0.3089543662	 1.059494014	 0.09846
H	-1.5488945392	-0.1352809266	-0.7435198857	 0.096189
H	-0.3261481319	-0.1437710182	 0.5081781241	 0.09429
H	-1.1201963355	-3.8267331132	 1.5223227782	 0.102379
H	-2.0629292062	-2.4441985462	 2.228839577	 0.107765
H	-3.481145649	-2.3331521303	 0.1456985241	 0.106773
H	-2.5496226349	-3.7204570215	-0.5684602943	 0.103747
H	-0.2049349827	-3.7008112978	-0.6681935174	 0.064325
H	 0.0739164056	-1.0665357217	-2.2107100793	 0.114332
H	 0.650081598	-2.655685867	-2.7135709344	 0.106975
H	-1.0891004326	-2.3483544802	-2.5817566129	 0.112192
H	 1.5311233454	-1.2538646627	-0.0409145821	 0.114259
H	 1.3139629491	-2.6517679369	 1.0227497485	 0.112416
H	 2.0837781953	-2.8445002603	-0.5607674387	 0.107083
54.8107	81.6956	107.468	151.3072	213.4549	242.848	249.0842	249.7793	270.8181	300.5312	341.0767	346.1868	447.5887	499.658	507.3168	687.1026	746.7652	786.0117	842.5888	845.3771	908.7501	920.319	933.9644	944.3797	947.3436	970.9707	988.4182	1050.8246	1058.6009	1074.441	1080.9865	1125.9088	1130.6726	1159.8376	1187.4353	1189.2602	1260.7801	1280.534	1296.9917	1333.7647	1340.0369	1352.7868	1397.5848	1400.3356	1404.065	1414.542	1421.9843	1470.3355	1484.8512	1487.3321	1493.3017	1497.6018	1499.8258	1504.9384	1508.1362	1511.7395	1514.4172	2999.882	3007.7335	3026.8986	3028.0847	3029.4576	3033.7065	3036.8465	3063.5863	3093.8698	3097.1987	3099.0599	3100.668	3101.2264	3104.0602	3126.7149	3132.5608	3203.9213	3219.5911
CCCC1(CC1)C(C)C	CCCC1(CC1)C(C)C	
InChI=1S/C9H18/c1-4-5-9(6-7-9)8(2)3/h8H,4-7H2,1-3H3	InChI=1S/C9H18/c1-4-5-9(6-7-9)8(2)3/h8H,4-7H2,1-3H3
