21
gdb 65099	2.93315	1.40511	1.14763	1.5579	82.32	-0.2432	0.0865	0.3297	1152.0399	0.182082	-387.046312	-387.037753	-387.036809	-387.079377	33.648	
C	-0.0028269019	 1.5611439155	-0.1593948841	-0.48532
C	-0.0206547438	 0.0526469717	-0.0375617742	 0.289442
C	 1.1610610147	-0.7130084621	-0.4709124246	-0.229821
O	 0.9259867078	-0.4735351184	 0.9179745607	-0.278886
C	-1.3492246608	-0.6254740315	-0.0101360622	 0.365214
C	-2.5747549909	-0.1225547608	-0.7272292707	-0.339298
C	-2.6282161101	-0.2651588999	 0.7682187274	-0.100793
C	-2.8308934675	-1.7327003333	 1.1534039906	-0.224334
C	-1.5432446048	-2.1077263089	 0.3491449793	-0.306364
H	 1.0170176084	 1.9295364045	-0.0277372869	 0.129566
H	-0.3662275175	 1.8871106552	-1.1387471435	 0.124646
H	-0.6318044173	 2.0226602346	 0.6092248389	 0.126939
H	 1.048209027	-1.748038682	-0.7913418854	 0.109308
H	 2.0154431107	-0.1894393624	-0.8998170455	 0.107566
H	-2.5284896675	 0.8974102696	-1.0933102552	 0.110918
H	-3.1422524065	-0.7961656234	-1.367158874	 0.101566
H	-2.8151318402	 0.5891180365	 1.4084551376	 0.086678
H	-2.7143722923	-1.9173204819	 2.2231895414	 0.107275
H	-3.7704783747	-2.1864278903	 0.8205503855	 0.094314
H	-1.6697814018	-2.7931258903	-0.4956323457	 0.088064
H	-0.7459356008	-2.4758452724	 0.9963372907	 0.123322
62.8258	158.47	187.9077	214.8746	283.6423	326.3216	373.1378	409.2363	428.4413	513.9907	558.9049	705.695	784.4983	792.1802	824.6264	854.8828	885.5688	921.7321	934.9887	948.1112	971.5065	1016.3657	1022.5424	1032.347	1087.1233	1098.4547	1106.0217	1134.6908	1139.5619	1166.5442	1177.9935	1224.4765	1234.9238	1245.9606	1283.0784	1324.0877	1361.8236	1410.4359	1422.145	1480.3851	1483.6845	1487.0863	1498.3865	1510.5412	1528.9431	3039.493	3040.1742	3048.7639	3075.5038	3099.6542	3103.8992	3104.3652	3126.6137	3127.609	3159.9633	3177.1275	3202.6599
CC1(CO1)C12CC1CC2	C[C@]1(CO1)[C@]12C[C@H]1CC2	
InChI=1S/C8H12O/c1-7(5-9-7)8-3-2-6(8)4-8/h6H,2-5H2,1H3	InChI=1S/C8H12O/c1-7(5-9-7)8-3-2-6(8)4-8/h6H,2-5H2,1H3/t6-,7+,8-/m1/s1
