17
gdb 71098	2.62824	1.58396	1.33541	1.9886	81.11	-0.2216	0.0384	0.26	1018.734	0.134751	-384.607764	-384.599684	-384.59874	-384.640199	31.706	
O	-0.0080714253	 1.4457589846	 0.0229702413	-0.468026
C	-0.0021642261	 0.0655530194	 0.0082131946	 0.321791
C	 0.4076281023	-0.7519312435	-1.2510881002	-0.30064
C	-0.5733460987	-1.8078169928	-0.7471502724	-0.120998
C	-0.4946627156	-1.8237420518	 0.7789803404	-0.120959
C	 0.5341809125	-0.7776043315	 1.2011622491	-0.300961
C	-1.3516084816	-0.7817792169	 0.0688282565	 0.294588
C	-2.7144854192	-0.4388849076	 0.1427557701	 0.011204
C	-3.8767731297	-0.1282416263	 0.2059658822	-0.380576
H	 0.9033985124	 1.7582020325	-0.0106367526	 0.284363
H	 0.0402830499	-0.2711087136	-2.1610354406	 0.112878
H	 1.4645406332	-1.0226491806	-1.3608835905	 0.086678
H	-1.0010819696	-2.6355400963	-1.2966111431	 0.103287
H	-0.8644546614	-2.6631246294	 1.3522937729	 0.103297
H	 1.5965009118	-1.0494006557	 1.1957472057	 0.086776
H	 0.2629864315	-0.3165275938	 2.1540705459	 0.112804
H	-4.8999299763	 0.1480120333	 0.2616027909	 0.174495
106.5867	124.4034	133.7147	302.6646	348.7667	401.5118	437.1236	517.6838	528.1516	555.3871	583.2388	642.9312	650.3975	707.413	779.9594	831.9821	885.7568	894.6192	903.4051	968.3436	1003.2606	1004.3098	1069.268	1082.9639	1098.1577	1117.0456	1167.5677	1209.7209	1238.1715	1254.3016	1282.5543	1296.0865	1368.6799	1427.2486	1487.6315	1509.0525	2229.8505	3026.0892	3033.7163	3107.9603	3110.1913	3205.2235	3214.7799	3504.4272	3796.7168
OC12CC3C(C1)C23C#C	O[C@@]12C[C@H]3[C@@H](C1)[C@@]23C#C	
InChI=1S/C8H8O/c1-2-8-5-3-7(8,9)4-6(5)8/h1,5-6,9H,3-4H2	InChI=1S/C8H8O/c1-2-8-5-3-7(8,9)4-6(5)8/h1,5-6,9H,3-4H2/t5-,6+,7-,8-
