17
gdb 99510	2.53309	1.15906	0.84169	5.4161	71.17	-0.2855	-0.0084	0.277	1363.6629	0.133446	-455.132763	-455.122667	-455.121723	-455.168892	34.199	
C	 0.0036277745	 1.3018912298	 0.0388055333	-0.247242
O	-0.185044362	-0.0926774494	-0.1420396296	-0.23171
C	 0.6517005413	-0.6579100153	-1.1224963008	-0.107064
C	 2.0658919505	-0.6778120714	-0.6923748278	 0.315483
N	 3.1626092488	-0.5840423377	-0.3439557029	-0.332886
C	 0.1260318488	-2.0560149985	-1.4262228966	 0.431513
N	 0.7959012399	-3.087483857	-1.139741609	-0.512406
O	-1.0839024018	-1.9363245268	-2.0147713722	-0.22462
C	-1.7809072138	-3.1371320963	-2.324527421	-0.268844
H	 1.0162498457	 1.5308076617	 0.3951430391	 0.138793
H	-0.1797813159	 1.8521724137	-0.8957353529	 0.114601
H	-0.7224344748	 1.6169149696	 0.7900329783	 0.141293
H	 0.5983058327	-0.0699640711	-2.0544756488	 0.126328
H	 0.3318811624	-3.9560426162	-1.4009102354	 0.22873
H	-2.7317496174	-2.8292539068	-2.7593521228	 0.150305
H	-1.2262132731	-3.7422399352	-3.0514799245	 0.136391
H	-1.9656239459	-3.729839703	-1.4213548862	 0.141334
34.9002	90.947	107.9657	142.1943	175.4947	214.5216	231.6387	255.4752	310.1668	362.8654	391.6197	454.4188	579.8898	646.4272	730.5374	872.7656	923.5017	940.1225	1000.1658	1049.1419	1125.6914	1144.4017	1176.8659	1182.6776	1215.0958	1220.3509	1270.7874	1349.8227	1383.8232	1475.754	1478.2993	1487.2295	1492.6529	1504.2705	1507.5873	1749.6527	2366.0684	2970.5674	2994.3934	3021.2755	3058.8301	3088.0456	3136.5535	3152.9699	3507.388
COC(C#N)C(=N)OC	CO[C@@H](C#N)[C]([NH])OC	
InChI=1S/C5H8N2O2/c1-8-4(3-6)5(7)9-2/h4,7H,1-2H3	InChI=1S/C5H8N2O2/c1-8-4(3-6)5(7)9-2/h4,7H,1-2H3/t4-/m0/s1
