17
gdb 90659	4.48702	1.02701	0.99124	2.9987	72.41	-0.2364	-0.0376	0.1987	1229.1404	0.133437	-458.926827	-458.918309	-458.917365	-458.95987	31.947	
C	-0.0229857275	 1.4333428923	-0.1472607213	-0.406024
C	 0.0360198944	-0.0628140138	 0.0694640654	 0.133015
O	 1.0507440695	-0.6801650083	-0.7898035438	-0.289594
C	 1.7948276231	-1.0659482873	 0.3436986649	 0.026399
C	 0.788590496	-0.5181856013	 1.3263754133	-0.245657
C	 0.9810145666	-2.0241498023	 1.2255152205	 0.342774
O	-0.0033567861	-2.8331495911	 0.697894031	-0.469374
C	 1.7571516944	-2.6477301388	 2.3133774088	 0.093508
O	 1.539131229	-3.7850277108	 2.6734961751	-0.295803
H	 0.9550836891	 1.8923020603	 0.0240693678	 0.125331
H	-0.3346938284	 1.6504744303	-1.1729267914	 0.136166
H	-0.7492449768	 1.8860106901	 0.5365915531	 0.122031
H	-0.9368259767	-0.5385536226	-0.0863137544	 0.112793
H	 2.8778838681	-1.0525121098	 0.2803197138	 0.115206
H	 0.8895544351	 0.0479558456	 2.2442421817	 0.108081
H	 0.0949702922	-3.6795256856	 1.1631481067	 0.298597
H	 2.556750228	-2.0306523968	 2.7709675987	 0.092552
90.087	127.5764	195.3805	239.4024	284.4018	291.491	309.7235	384.9437	411.2996	453.9357	598.9148	637.4163	778.0944	802.0769	824.3236	864.0525	892.169	914.488	1001.0507	1033.9121	1043.0922	1056.3957	1083.0491	1093.1811	1132.2044	1158.5118	1219.7986	1269.907	1320.6715	1355.6854	1375.1495	1387.1634	1407.5064	1461.0885	1484.6898	1491.2307	1783.2176	2928.9432	3037.5799	3071.6636	3111.1161	3122.7921	3164.6423	3185.0783	3692.8845
CC1OC2C1C2(O)C=O	C[C@H]1O[C@H]2[C@@H]1[C@]2(O)C=O	
InChI=1S/C6H8O3/c1-3-4-5(9-3)6(4,8)2-7/h2-5,8H,1H3	InChI=1S/C6H8O3/c1-3-4-5(9-3)6(4,8)2-7/h2-5,8H,1H3/t3-,4-,5+,6-/m1/s1
