20
gdb 87189	3.80731	0.93293	0.85289	4.5704	76.46	-0.2315	0.0199	0.2515	1418.0754	0.169239	-440.315273	-440.305268	-440.304323	-440.350435	37.131	
C	-0.0004656054	 1.5506334567	 0.04673343	-0.401837
C	-0.0238474834	 0.0393921322	-0.0134920062	-0.064991
C	 1.2039580191	-0.7362654262	-0.4657332412	-0.348579
C	 0.7519144206	-0.7774024402	 0.9797612881	 0.449201
O	 1.4868939515	-0.0571075729	 1.9213753826	-0.479611
C	 0.1582470367	-2.0602163311	 1.5378618948	-0.397218
C	 1.24914368	-3.0153578968	 2.0187828011	 0.436907
N	 0.9484517961	-4.3384151161	 1.9506440219	-0.518541
O	 2.3230956379	-2.6234329429	 2.455293431	-0.378295
H	 0.9528390713	 1.9049506025	 0.4438274897	 0.137297
H	-0.1475480649	 1.9840685594	-0.9485141917	 0.10871
H	-0.7929361254	 1.932058517	 0.6999302506	 0.11301
H	-0.9780374126	-0.384877495	-0.319923418	 0.072757
H	 1.0719012703	-1.609380902	-1.0972640374	 0.095914
H	 2.1031520993	-0.1631073905	-0.6639552415	 0.115744
H	 2.1337110277	-0.6935218022	 2.270788663	 0.293785
H	-0.4689037191	-1.8174223617	 2.4063419871	 0.137479
H	-0.48374319	-2.5491578537	 0.7976254787	 0.100091
H	 0.0693929389	-4.6730733304	 1.5987120644	 0.263588
H	 1.6188628313	-5.002855986	 2.3022159229	 0.264588
46.0774	86.1055	141.3907	190.4228	199.7627	226.5663	272.109	326.607	353.5135	416.5084	457.6589	519.9299	551.7577	625.5494	634.681	669.0159	744.8498	837.3707	845.2623	890.4312	919.4878	930.4455	975.1527	1024.547	1039.0458	1082.9794	1104.5963	1139.0901	1189.5598	1197.8275	1243.5225	1291.1092	1320.4881	1377.4826	1403.4467	1416.0756	1435.6222	1453.9018	1493.3557	1498.3922	1517.4453	1619.5921	1766.6327	3023.5777	3033.639	3077.657	3089.4566	3115.4741	3123.9062	3137.3806	3215.6851	3602.6277	3650.7931	3741.8476
CC1CC1(O)CC(N)=O	C[C@H]1C[C@]1(O)CC(=O)N	
InChI=1S/C6H11NO2/c1-4-2-6(4,9)3-5(7)8/h4,9H,2-3H2,1H3,(H2,7,8)	InChI=1S/C6H11NO2/c1-4-2-6(4,9)3-5(7)8/h4,9H,2-3H2,1H3,(H2,7,8)/t4-,6-/m0/s1
