15
gdb 127995	2.49407	1.67716	1.00908	3.9043	76.11	-0.2235	-0.0569	0.1666	1116.5394	0.111894	-453.920849	-453.912676	-453.911732	-453.954012	29.83	
C	-0.0264265167	 1.3995830926	-0.1628438814	-0.319899
N	-0.0073169939	-0.0521457105	-0.2349094873	-0.297393
C	-1.0459321495	-0.6876235169	 0.1064863615	 0.388186
O	-2.1820806408	-0.024890799	 0.5406875982	-0.304524
N	-3.3685285594	-0.6579594244	 0.9357964419	-0.089464
C	-3.3610778228	-1.9440514359	 0.8758123082	 0.045086
C	-2.2662033062	-2.7634187689	 0.4486601914	-0.280728
C	-1.1217531455	-2.1505476348	 0.0679614037	 0.316939
O	-0.0081760378	-2.7590420804	-0.3563641968	-0.385966
H	 0.9426786023	 1.7838713419	-0.4880220757	 0.119703
H	-0.8085814307	 1.8291617912	-0.802787185	 0.128332
H	-0.2222839577	 1.754843566	 0.8575601985	 0.128323
H	-4.2964090479	-2.3986914902	 1.1892349085	 0.136336
H	-2.3705531718	-3.842925473	 0.4375981182	 0.106824
H	-0.1447630118	-3.7146195978	-0.3504530038	 0.308244
67.852	121.173	195.6078	206.0151	215.0357	335.7719	459.8147	509.8187	528.5179	549.3245	565.1711	588.7766	727.2565	752.4532	834.6423	895.2033	936.4189	942.2998	1045.9712	1067.2158	1104.4963	1111.9929	1173.9251	1235.7528	1324.0012	1353.7518	1435.462	1469.1597	1490.2511	1495.9642	1620.5017	1685.3938	1738.9218	3005.0558	3055.387	3112.6784	3176.7275	3189.9425	3792.1772
CN=C1ON=CC=C1O	C[N]C1=C([CH]C=NO1)O	
InChI=1S/C5H6N2O2/c1-6-5-4(8)2-3-7-9-5/h2-3,8H,1H3	InChI=1S/C5H6N2O2/c1-6-5-4(8)2-3-7-9-5/h2-3,8H,1H3
