23
gdb 113220	3.21454	0.95759	0.83501	1.5638	86.29	-0.2407	0.0637	0.3044	1495.6573	0.205488	-384.424213	-384.414163	-384.413219	-384.459376	37.499	
C	-0.5525470502	 1.4124725879	-0.7678356502	-0.373995
C	-0.2007409781	 0.2632401713	 0.1842725346	-0.192601
C	-1.3246250733	-0.7436394876	 0.2907401886	-0.023412
N	-1.4624262405	-1.730515628	-0.7997658529	-0.378805
C	-1.1708175782	-2.2028555977	 0.5677338187	 0.266475
C	 0.1905387887	-2.8499134519	 0.7470257787	-0.449689
C	-2.2452005624	-2.8843617312	 1.376708343	-0.026936
C	-3.685370554	-2.841230789	 1.0378477882	-0.267861
N	-2.9246356215	-4.0949423262	 0.8690996742	-0.324866
H	 0.2663557291	 2.1347938873	-0.8373240051	 0.111577
H	-0.7543637447	 1.0288484954	-1.7727171603	 0.129192
H	-1.444302702	 1.9515136975	-0.4283647122	 0.109821
H	 0.7095936713	-0.232531402	-0.1643628998	 0.104313
H	 0.0157769681	 0.6599447414	 1.1848033816	 0.096361
H	-2.256773793	-0.3156180603	 0.66266024	 0.077212
H	-2.440713298	-1.861870577	-1.0451355597	 0.221245
H	 0.9358129809	-2.3981727535	 0.0914402308	 0.129121
H	 0.5323816481	-2.758386212	 1.7839748	 0.116088
H	 0.1359141601	-3.9174339875	 0.5077927209	 0.124854
H	-1.9888300322	-2.9694746498	 2.431967899	 0.09335
H	-4.4265739536	-2.8573151602	 1.8319499422	 0.121996
H	-4.0059376796	-2.299880845	 0.1504151469	 0.104795
H	-2.694423515	-4.2116788021	-0.1165939773	 0.231766
70.7993	75.0887	141.8037	148.6372	191.6468	236.7115	273.558	283.5682	334.3641	371.8062	469.2809	486.9891	606.2715	669.4491	767.049	820.274	826.9716	852.5235	891.3235	939.6941	955.3578	966.0913	981.8328	1014.3167	1057.2694	1080.2312	1095.9068	1109.0603	1115.882	1143.0131	1159.7537	1202.2962	1234.1587	1251.8676	1281.3375	1302.0969	1306.0986	1334.892	1354.8063	1406.0786	1413.9217	1427.3267	1462.4368	1475.6246	1491.3248	1498.9836	1501.5769	1510.0524	1516.6023	3027.3405	3032.426	3036.3467	3079.3068	3093.6304	3094.2557	3100.7204	3106.0102	3112.5996	3113.1908	3142.1463	3182.3359	3476.4282	3494.0288
CCC1NC1(C)C1CN1	CC[C@H]1N[C@]1(C)[C@H]1CN1	
InChI=1S/C7H14N2/c1-3-5-7(2,9-5)6-4-8-6/h5-6,8-9H,3-4H2,1-2H3	InChI=1S/C7H14N2/c1-3-5-7(2,9-5)6-4-8-6/h5-6,8-9H,3-4H2,1-2H3/t5-,6-,7+/m1/s1
