17
gdb 69062	3.33692	1.03096	0.91531	3.4883	69.88	-0.2349	-0.0227	0.2122	1280.1437	0.132913	-458.917929	-458.908981	-458.908037	-458.952754	32.258	
O	-0.0960199744	 1.4440088311	 0.0759999366	-0.452868
C	-0.0313416413	 0.0704855334	-0.0032009708	 0.248705
C	-0.2517094693	-0.8651399304	 1.1677014647	-0.399416
C	-1.1434026764	-0.9487371156	-0.0516266572	 0.398343
C	-2.6411586219	-0.8836994173	-0.0706741919	-0.382419
C	-3.2726903355	-2.1879102	 0.3875192288	 0.158855
O	-4.1388397848	-2.2658494118	 1.2194388994	-0.238233
O	-0.4836379602	-1.70704558	-1.0758956745	-0.324128
C	 0.5727964746	-0.7089006076	-1.1695225126	-0.137199
H	 0.5556099094	 1.7472682023	 0.7176606638	 0.294014
H	 0.4446131779	-1.6685262621	 1.394423453	 0.117149
H	-0.7127576914	-0.3846455246	 2.0260185293	 0.126178
H	-3.0017391447	-0.0732201765	 0.5682106921	 0.135012
H	-2.9695318673	-0.6889063273	-1.1010137632	 0.134779
H	-2.8685567509	-3.0950716968	-0.1135101105	 0.09627
H	 0.508854752	-0.1654099387	-2.1184919763	 0.118929
H	 1.5713522543	-1.1435655179	-1.0460788106	 0.106029
43.4665	55.9008	120.124	218.5288	240.6287	292.2918	361.9203	374.7122	429.7967	465.4538	549.9649	619.9971	714.8959	776.2069	831.8067	867.6987	924.4727	962.9763	974.2781	987.0846	1044.3257	1056.2201	1074.2185	1132.1825	1143.4377	1186.2983	1236.9145	1277.2333	1295.1833	1322.3787	1357.7394	1419.9013	1427.2487	1443.4679	1498.9562	1525.6475	1834.5536	2894.18	3023.0971	3028.6325	3085.1885	3108.373	3110.6106	3206.7598	3797.086
OC12CC1(CC=O)OC2	O[C@@]12C[C@]1(CC=O)OC2	
InChI=1S/C6H8O3/c7-2-1-6-3-5(6,8)4-9-6/h2,8H,1,3-4H2	InChI=1S/C6H8O3/c7-2-1-6-3-5(6,8)4-9-6/h2,8H,1,3-4H2/t5-,6+/m1/s1
