23
gdb 115896	3.08781	1.24502	1.11134	1.5848	84.25	-0.2334	0.0789	0.3123	1232.2271	0.208173	-388.291631	-388.283245	-388.282301	-388.324506	33.423	
C	 0.1746761943	 1.6131082557	-0.16571987	-0.391698
C	 0.1046871632	 0.0865966818	-0.0661791612	-0.168581
C	 0.6345857824	-0.4861064486	 1.2612120021	 0.035963
C	-0.2664938195	-0.1703179396	 2.4936835105	-0.236684
C	-1.2612156848	-1.314410578	 2.8270195413	-0.200535
C	-0.6764717079	-2.6530971433	 2.3831811636	 0.104413
C	 0.8596775658	-2.7021692577	 2.5319079474	-0.267264
C	 0.7952512408	-2.0086368308	 1.1555361642	 0.07971
O	-0.5209676174	-2.5978408878	 0.9346144149	-0.296876
H	 1.2057188903	 1.9706769246	-0.0623976107	 0.110285
H	-0.2005495664	 1.9593809495	-1.1339113177	 0.112294
H	-0.4225191959	 2.1048519488	 0.6091800551	 0.115816
H	-0.9236741447	-0.2591287195	-0.2163286481	 0.111185
H	 0.6884791455	-0.3470621755	-0.889381552	 0.089026
H	 1.6303305655	-0.0556662714	 1.4419949862	 0.061929
H	 0.3778199361	-0.0059758975	 3.3632255454	 0.099775
H	-0.8068044905	 0.7692064468	 2.3477068799	 0.09782
H	-1.4858342084	-1.3191926644	 3.9003366897	 0.090942
H	-2.2119761039	-1.1816894136	 2.2995201333	 0.108989
H	-1.2697830229	-3.5153426808	 2.7003456481	 0.07109
H	 1.3310562377	-2.1819108803	 3.368433383	 0.09663
H	 1.2421364793	-3.7210345055	 2.4551397408	 0.107516
H	 1.5082652416	-2.303342503	 0.3790579742	 0.068255
91.9304	120.4186	183.7791	233.6036	294.4685	349.5657	377.7212	422.1221	442.3169	559.2708	668.0081	743.0223	787.955	820.3457	833.2144	882.1499	893.3997	906.8015	931.1993	962.9846	975.6968	987.4003	1032.5244	1057.3853	1065.9324	1085.1457	1110.2237	1134.1122	1150.7323	1195.9928	1220.9183	1243.1322	1261.9232	1278.7886	1292.7837	1323.845	1337.6856	1342.0755	1356.1032	1375.556	1384.4523	1389.2949	1415.6846	1476.9684	1482.8046	1489.5129	1500.4431	1507.2623	1508.3107	2995.2928	3017.4	3029.9647	3031.0626	3048.8062	3057.1011	3066.8975	3069.3892	3072.1292	3078.3276	3089.6935	3098.5572	3102.1629	3133.7162
CCC1CCC2CC1O2	CC[C@H]1CC[C@@H]2C[C@H]1O2	
InChI=1S/C8H14O/c1-2-6-3-4-7-5-8(6)9-7/h6-8H,2-5H2,1H3	InChI=1S/C8H14O/c1-2-6-3-4-7-5-8(6)9-7/h6-8H,2-5H2,1H3/t6-,7+,8+/m0/s1
