21
gdb 103236	2.47089	1.6555	1.23069	1.7754	81.15	-0.2263	0.0558	0.2822	1103.9243	0.180973	-387.007378	-386.998658	-386.997714	-387.04048	34.401	
C	 0.2263257135	 1.2201216176	-0.5482570509	-0.371841
C	-0.0446428368	 0.0424990842	 0.3946084631	-0.248561
C	-1.4107167827	-0.6151575627	 0.160463429	 0.338047
C	-2.5001317979	 0.0428433619	 1.0079532306	-0.448041
C	-1.9832699998	-1.0946541945	-1.1648184406	-0.146012
C	-1.0158574748	-1.8960523834	-2.0848237741	 0.007136
O	 0.295076314	-1.9413392811	-1.5096531844	-0.247301
C	-0.7142690742	-2.8344303226	-1.0105801572	 0.003804
C	-1.6815042156	-2.0899823259	-0.0356721212	-0.162331
H	 1.1637328116	 1.7213675014	-0.2869139603	 0.106636
H	 0.3070511322	 0.8747110361	-1.5827478383	 0.1247
H	-0.5724406666	 1.9689298848	-0.504351212	 0.106049
H	 0.7583710027	-0.6847419459	 0.3033089238	 0.121417
H	-0.0315966195	 0.4033931392	 1.4317492601	 0.076786
H	-2.5450814111	 1.1190166282	 0.8089185521	 0.121276
H	-3.4902937599	-0.3772548957	 0.8067674964	 0.110293
H	-2.2865187349	-0.0902716735	 2.074035695	 0.119055
H	-2.9576902903	-0.769948603	-1.5095638049	 0.086106
H	-1.0983569386	-2.0242705389	-3.1576234185	 0.107258
H	-0.4892377333	-3.89414729	-1.0162272346	 0.108402
H	-2.3967540982	-2.6313911062	 0.572388047	 0.087123
65.6196	144.7468	214.0861	237.52	247.5168	297.3206	352.9907	381.3284	400.752	553.8121	611.4274	677.7575	750.8707	764.8219	784.2734	793.9601	852.9556	867.7739	894.4121	927.0576	951.5648	988.9259	1014.3354	1028.8802	1036.7929	1042.8497	1048.9006	1067.2853	1122.6748	1178.6193	1230.0619	1233.1838	1258.0587	1279.8261	1304.3727	1359.5759	1371.0286	1404.0411	1410.6277	1422.0708	1488.9752	1494.5597	1497.9893	1499.134	1508.2298	3016.7252	3028.6099	3034.0718	3092.4459	3095.1505	3102.9863	3113.5113	3154.2016	3172.4702	3181.8696	3184.7089	3197.857
CCC1(C)C2C3OC3C12	CC[C@@]1(C)[C@H]2[C@H]3O[C@H]3[C@@H]12	
InChI=1S/C8H12O/c1-3-8(2)4-5(8)7-6(4)9-7/h4-7H,3H2,1-2H3	InChI=1S/C8H12O/c1-3-8(2)4-5(8)7-6(4)9-7/h4-7H,3H2,1-2H3/t4-,5+,6-,7+,8+
