21
gdb 42009	2.96965	1.52522	1.14272	1.3255	84.25	-0.2257	0.0227	0.2484	1127.2252	0.185854	-387.112662	-387.104869	-387.103924	-387.145392	30.729	
C	 0.1380577414	 1.4283804773	-0.4410590876	-0.25546
C	 1.534443932	 1.8530628584	 0.0812202211	-0.23407
C	 1.9584286865	 0.7134232766	 1.034795192	 0.069225
O	 3.3643621763	 0.4541533116	 1.0594447912	-0.273068
C	 3.7422086476	-0.6602854129	 0.2649715677	-0.076526
C	 3.1348301863	-1.9624642314	 0.8000084218	-0.201626
C	 1.5849331229	-1.8383982532	 0.962445319	-0.321851
C	 1.1430539142	-0.4685841536	 0.5505899238	 0.314015
C	 0.1545790462	-0.0721652545	-0.2506665895	-0.213559
H	-0.6666769337	 1.8931884166	 0.1461253096	 0.106059
H	-0.0358795684	 1.7226580459	-1.4823201938	 0.101615
H	 2.2510261561	 1.881553407	-0.7464528433	 0.109341
H	 1.5420663611	 2.8355125648	 0.5593058257	 0.096138
H	 1.697250451	 0.9581859513	 2.0757522434	 0.079679
H	 3.4482397996	-0.5104460912	-0.7862058319	 0.089797
H	 4.8348799937	-0.6972149929	 0.2990464333	 0.102288
H	 3.3879145338	-2.7827264028	 0.1195348703	 0.098396
H	 3.5957124321	-2.1922298411	 1.7653772872	 0.106676
H	 1.0593079699	-2.6014819711	 0.3811995532	 0.10533
H	 1.3199174528	-2.0111647713	 2.0137262138	 0.111512
H	-0.5765304215	-0.7311542735	-0.7084949968	 0.086087
52.1385	117.2262	219.6859	268.4143	341.6969	395.0754	468.1185	504.1388	575.4034	632.9855	704.0678	782.4581	827.9846	844.5406	868.4052	891.3087	914.3269	931.2344	956.8279	1002.7543	1029.4811	1042.5678	1067.3354	1103.133	1116.9203	1158.8683	1188.07	1202.5479	1236.8108	1265.3484	1270.3844	1286.0511	1296.7453	1325.2691	1329.9426	1354.9907	1368.3676	1375.735	1410.9614	1472.9697	1483.8541	1494.1665	1499.2226	1503.4721	1726.7622	2976.696	2980.8699	3007.1143	3017.0542	3044.0994	3047.2514	3059.392	3072.6314	3084.5017	3095.4135	3106.9489	3179.7283
C1CC2OCCCC2=C1	C1C[C@@H]2OCCCC2=C1	
InChI=1S/C8H12O/c1-3-7-4-2-6-9-8(7)5-1/h3,8H,1-2,4-6H2	InChI=1S/C8H12O/c1-3-7-4-2-6-9-8(7)5-1/h3,8H,1-2,4-6H2/t8-/m0/s1
