15
gdb 46267	3.09098	1.52352	1.25351	2.5723	65.88	-0.2509	-0.0385	0.2124	993.6676	0.110946	-457.706933	-457.699552	-457.698608	-457.739172	27.695	
O	-0.0904530433	 0.0289751344	-0.392234211	-0.26463
C	-0.0656401798	 1.1898987306	-0.1268760922	 0.275211
C	-1.0793818479	 2.2438486875	 0.3427266246	-0.19721
O	-0.009585238	 3.2157855955	 0.3977908803	-0.330394
C	 0.992884847	 2.2963651947	-0.075564859	 0.324962
C	 2.3308681494	 2.2546025438	 0.733707633	-0.329734
C	 3.061635909	 2.6826946312	-0.5474438504	 0.038967
O	 2.7590677281	 1.6997056726	-1.5445940243	-0.226488
C	 1.8069006341	 2.7359963003	-1.3144609461	-0.060059
H	-1.8582533555	 2.5057836559	-0.3835654617	 0.136145
H	-1.5360204088	 2.0594182855	 1.3222577855	 0.137511
H	 2.3030110532	 3.029739579	 1.503277283	 0.132852
H	 2.6325955386	 1.2959659565	 1.1605168536	 0.128576
H	 3.9834773706	 3.2394373875	-0.6618166044	 0.116534
H	 1.4806962135	 3.3452424848	-2.1490237012	 0.117756
99.496	109.2546	155.098	317.0499	347.3441	433.7275	444.7211	540.0761	610.2906	723.8848	781.8035	846.0127	851.4226	865.6307	908.4377	962.632	981.9115	1002.818	1013.6229	1043.5263	1071.3334	1107.7371	1138.5956	1142.0649	1204.0981	1222.2636	1257.9066	1270.9468	1297.4052	1377.4128	1454.8988	1483.145	1924.7847	3026.3708	3072.3251	3077.07	3137.9066	3189.5547	3205.2476
O=C1COC11CC2OC12	O=C1CO[C@]21C[C@H]1O[C@@H]21	
InChI=1S/C6H6O3/c7-4-2-8-6(4)1-3-5(6)9-3/h3,5H,1-2H2	InChI=1S/C6H6O3/c7-4-2-8-6(4)1-3-5(6)9-3/h3,5H,1-2H2/t3-,5-,6+/m1/s1
