18
gdb 22315	3.20378	1.09731	0.86066	0.7189	72.19	-0.2465	0.0017	0.2482	1303.7795	0.147608	-476.178478	-476.169832	-476.168888	-476.211712	32.839	
O	-0.0646524143	 1.3602196461	-0.0610997578	-0.395248
N	 0.0580842676	-0.036218458	 0.022792373	-0.192455
C	-1.0731594002	-0.6259478425	 0.0582423324	 0.358424
C	-2.428426283	 0.0458866683	 0.0739877761	-0.170239
O	-3.2730405348	-0.5252102578	 1.0642927095	-0.242293
C	-3.4275204393	-1.9235963653	 0.9164169787	-0.103201
C	-2.0910479899	-2.6507452432	 1.1164148269	 0.094744
O	-2.2221437824	-4.0480245291	 0.9094916747	-0.426889
C	-1.077188762	-2.1319519159	 0.0935336032	-0.287188
H	 0.8542153964	 1.6447727687	-0.0205871072	 0.308474
H	-2.3323274001	 1.1038396076	 0.3132822945	 0.144265
H	-2.8934302046	-0.046057657	-0.9235429598	 0.103506
H	-4.1587902639	-2.234556329	 1.6703569396	 0.099272
H	-3.8296298566	-2.1813738177	-0.0783314742	 0.093392
H	-1.7259634796	-2.4300775485	 2.1312315154	 0.082896
H	-2.7510979063	-4.4113130696	 1.6269307872	 0.286742
H	-1.3881164897	-2.5176896371	-0.8884569157	 0.120759
H	-0.0728023175	-2.5099420099	 0.2946363932	 0.125039
81.6012	135.3823	230.3627	275.4185	297.4329	314.1994	340.1467	361.9397	407.7867	420.6442	465.856	517.3816	597.3402	688.5274	842.7522	880.1898	921.6613	961.957	979.67	984.5468	1083.0888	1098.7104	1113.7083	1130.6181	1190.3413	1232.5488	1270.8456	1278.5163	1311.2871	1318.9887	1342.9506	1370.8467	1403.4289	1416.905	1435.0473	1476.0183	1481.8792	1497.5458	1739.953	2952.2748	2966.0342	2988.7345	3013.1961	3070.2654	3113.1561	3147.3909	3819.1125	3824.299
ON=C1COCC(O)C1	ON=C1COC[C@@H](O)C1	
InChI=1S/C5H9NO3/c7-5-1-4(6-8)2-9-3-5/h5,7-8H,1-3H2	InChI=1S/C5H9NO3/c7-5-1-4(6-8)2-9-3-5/h5,7-8H,1-3H2/t5-/m0/s1
