19
gdb 58396	2.18938	1.07434	0.8638	3.5996	78.37	-0.2536	-0.0287	0.2249	1398.1859	0.154707	-423.001509	-422.990967	-422.990022	-423.037821	37.522	
C	 0.0478253445	 1.6399696947	-0.0857459388	-0.412647
C	 0.1144684493	 0.1267772706	 0.1131308029	 0.135859
O	 0.8009257225	-0.2238005054	 1.3014652928	-0.428858
C	-1.2921741281	-0.5455869853	 0.0731990812	-0.207548
C	-1.164954199	-2.0864593164	 0.0221190933	-0.284211
C	-0.6895790006	-2.5800731492	-1.3283406353	 0.156245
O	 0.1268610082	-3.4458000988	-1.4999908311	-0.233741
C	-2.0803800131	-0.1252515067	 1.2295180195	 0.288876
C	-2.6794684442	 0.2133475278	 2.2165098075	-0.431354
H	 1.0529748621	 2.0640161987	-0.0222510897	 0.130077
H	-0.3756211674	 1.8932893711	-1.063483876	 0.11475
H	-0.5755737338	 2.1056373596	 0.6848921952	 0.126093
H	 0.7097014411	-0.3161793999	-0.6946928542	 0.101104
H	 0.2690819164	 0.0948523824	 2.0421711299	 0.284475
H	-1.80206596	-0.2060817156	-0.840047706	 0.10748
H	-0.4885613663	-2.4414522704	 0.8021205128	 0.148056
H	-2.1532934827	-2.5340342932	 0.1924230002	 0.132453
H	-1.1859697175	-2.0818901451	-2.1971412315	 0.069517
H	-3.2378086313	 0.5127570911	 3.0692774774	 0.203374
48.9921	68.1653	93.6019	139.7762	153.9675	228.2833	240.3992	300.6937	359.9375	388.1857	401.6517	449.3198	479.7178	591.0477	635.4789	656.4895	663.9235	716.993	831.0516	917.1575	960.3629	1014.1823	1021.7015	1065.0225	1078.8935	1113.0134	1155.1602	1206.4664	1250.0718	1279.647	1331.4661	1348.8245	1372.6551	1405.2196	1430.2188	1430.5286	1452.3634	1491.1583	1496.9382	1840.3484	2227.1997	2832.1569	3004.8288	3031.564	3036.6742	3039.2883	3106.3047	3124.9563	3127.1911	3500.4529	3768.9081
CC(O)C(CC=O)C#C	C[C@@H](O)[C@@H](CC=O)C#C	
InChI=1S/C7H10O2/c1-3-7(4-5-8)6(2)9/h1,5-7,9H,4H2,2H3	InChI=1S/C7H10O2/c1-3-7(4-5-8)6(2)9/h1,5-7,9H,4H2,2H3/t6-,7-/m1/s1
