16
gdb 87302	2.16073	1.33298	0.96109	5.9614	74.64	-0.2878	-0.0031	0.2847	1235.5755	0.12363	-396.931657	-396.922496	-396.921552	-396.966177	32.364	
C	 0.0122126701	 1.5085741834	-0.1314012725	-0.411426
C	 0.0687658553	 0.0099318251	 0.0343959095	-0.036256
N	 1.3806478237	-0.6358946912	 0.0171141517	-0.338303
C	 0.5967937403	-0.6878083566	 1.2623813931	 0.140188
C	 1.1813432351	 0.0666854243	 2.4555126323	-0.406609
C	 2.284777496	-0.6593010555	 3.0851607405	 0.28202
N	 3.156567192	-1.2320465229	 3.5804956532	-0.293034
C	-0.0546741471	-1.9358127629	 1.6004355579	 0.256633
N	-0.5778562013	-2.9336093039	 1.8619661414	-0.324709
H	 0.8888625844	 1.9996942459	 0.2951589199	 0.137739
H	-0.0139472636	 1.7556164167	-1.1974184629	 0.142146
H	-0.8904451055	 1.9195088589	 0.3313758312	 0.135584
H	-0.7480177476	-0.5244204094	-0.4482260242	 0.119739
H	 1.3672614067	-1.531390395	-0.4636835441	 0.260768
H	 1.5522582107	 1.0374513354	 2.1203051123	 0.166899
H	 0.4012563108	 0.2479606278	 3.2027381807	 0.168619
50.828	112.1122	143.7018	170.4663	180.3162	242.0895	330.729	377.5609	390.1044	451.5781	509.7621	569.5405	590.5351	721.754	808.9651	862.9142	921.172	952.7601	980.4583	1037.3991	1061.5213	1102.607	1122.8708	1214.4885	1237.3961	1302.8296	1314.2658	1357.1865	1411.0072	1450.8516	1454.0901	1486.7574	1501.5575	2351.0495	2370.3104	3046.1858	3062.5037	3109.9611	3119.8641	3123.508	3141.2888	3520.4579
CC1NC1(CC#N)C#N	C[C@H]1N[C@]1(CC#N)C#N	
InChI=1S/C6H7N3/c1-5-6(4-8,9-5)2-3-7/h5,9H,2H2,1H3	InChI=1S/C6H7N3/c1-5-6(4-8,9-5)2-3-7/h5,9H,2H2,1H3/t5-,6-/m1/s1
