20
gdb 119893	4.32577	0.88693	0.76347	2.1078	78.29	-0.2383	0.0329	0.2711	1532.2942	0.171171	-440.286774	-440.277568	-440.276624	-440.321653	32.821	
C	-0.1527620803	 1.4442662933	 0.0932525402	-0.222897
O	 0.0171508938	 0.0478420496	 0.1106165931	-0.208354
C	-1.1889629526	-0.6362333209	-0.0561855078	-0.126691
C	-0.9686057633	-2.1312031239	-0.0689291378	 0.360005
N	 0.1726104386	-2.6667202586	-0.1227009064	-0.289049
C	 0.2733058651	-4.1214536874	-0.0826791018	-0.152093
C	-0.9970365538	-4.805745396	 0.4326930217	-0.231776
C	-2.1960398448	-4.1547903387	-0.2432813732	-0.069679
O	-2.192772353	-2.7383465897	-0.0266211488	-0.266784
H	 0.8342021737	 1.8919024119	 0.2300976578	 0.130039
H	-0.5735248095	 1.7951842677	-0.8630677319	 0.102387
H	-0.8156900764	 1.7886404415	 0.903687967	 0.101835
H	-1.9073088618	-0.4043711779	 0.749585847	 0.105452
H	-1.6878640151	-0.3539163161	-1.0011228803	 0.103858
H	 0.5167393326	-4.4783193937	-1.093081105	 0.109435
H	 1.1337526682	-4.3819880794	 0.5435500031	 0.112136
H	-0.985883429	-5.8817327443	 0.2303062001	 0.102455
H	-1.081717695	-4.6731110791	 1.5172472987	 0.114914
H	-2.180722294	-4.3440144669	-1.3254379738	 0.109096
H	-3.1491016035	-4.5130871814	 0.1532508183	 0.11571
58.7978	71.2755	130.6349	145.0039	211.4528	238.2259	308.7591	336.1978	389.5798	503.9693	518.7947	617.2314	720.1701	833.9122	880.6318	892.9331	936.1474	964.1704	1022.3269	1034.6675	1081.042	1124.6954	1148.9203	1174.3753	1184.0974	1191.1494	1232.2265	1243.2436	1254.2601	1259.2171	1303.3177	1365.3485	1367.8539	1412.5107	1432.7087	1477.2383	1479.455	1485.8828	1489.6306	1495.5877	1511.5604	1519.7019	1773.3462	2942.8691	2964.5934	2968.6129	3006.5557	3010.9446	3016.1428	3039.5648	3058.111	3088.5703	3099.0529	3117.9547
COCC1=NCCCO1	COCC1=NCCCO1	
InChI=1S/C6H11NO2/c1-8-5-6-7-3-2-4-9-6/h2-5H2,1H3	InChI=1S/C6H11NO2/c1-8-5-6-7-3-2-4-9-6/h2-5H2,1H3
