14
gdb 54648	4.03043	1.13024	0.8924	3.7742	64.49	-0.273	-0.0857	0.1873	1220.8551	0.099287	-473.888213	-473.879993	-473.879049	-473.92208	28.688	
C	-0.0376460849	 1.4801217562	 0.0094305151	-0.478645
C	 0.020330357	-0.0273418467	 0.0024623388	 0.315901
O	 1.0383042277	-0.6737853581	-0.0083000678	-0.268077
C	-1.3148736631	-0.7309239699	 0.0103880602	 0.326691
N	-2.4501354773	-0.1539086249	 0.0216516114	-0.282116
C	-3.4329957825	-1.2300843864	 0.0253650624	-0.319777
C	-2.6170221798	-2.5191900788	 0.0136657267	 0.407907
O	-2.933687291	-3.6632507054	 0.0121516929	-0.296993
O	-1.2831033475	-2.1017275032	 0.0048888926	-0.213915
H	 0.9779661589	 1.8756484883	 0.002240999	 0.148459
H	-0.5943531257	 1.842032237	-0.860353272	 0.159037
H	-0.5788448432	 1.8344201682	 0.8920625936	 0.159035
H	-4.0747544265	-1.1816319843	 0.911601355	 0.171262
H	-4.0890002023	-1.174714822	-0.8499669778	 0.171232
47.6044	107.5778	129.1841	170.0266	220.6332	337.7368	452.247	474.3279	543.1056	555.0818	610.0607	711.4664	714.6089	850.0015	906.3539	966.638	981.6928	1037.2689	1045.0057	1085.5962	1163.6528	1181.4654	1272.1824	1350.8516	1391.7597	1434.2002	1455.75	1463.1866	1689.9933	1815.5693	1931.8734	3052.7237	3058.0261	3093.3252	3115.9639	3165.163
CC(=O)C1=NCC(=O)O1	CC(=O)C1=NCC(=O)O1	
InChI=1S/C5H5NO3/c1-3(7)5-6-2-4(8)9-5/h2H2,1H3	InChI=1S/C5H5NO3/c1-3(7)5-6-2-4(8)9-5/h2H2,1H3
