22
gdb 59393	2.77514	0.96069	0.9388	0.9425	90.2	-0.2351	0.0391	0.2742	1437.2608	0.191064	-367.16811	-367.157388	-367.156444	-367.203605	39.862	
C	 0.1746791441	 0.8371741539	 1.5655497572	-0.389651
C	-0.4646539718	-0.5417224586	 1.7869024437	 0.024512
C	-1.0965992576	-0.6574589422	 3.1807794346	-0.390538
C	-1.4978797096	-0.8068013991	 0.7084652405	-0.030779
N	-1.0195481742	-1.1809425071	-0.6261420126	-0.374636
C	-1.8269541972	-2.1634926203	 0.1466167955	 0.122267
C	-1.1009936332	-3.4307506843	 0.5617295423	-0.45924
C	-3.1939265629	-2.3647168903	-0.2710479214	 0.278387
C	-4.326050724	-2.5494016111	-0.6351280667	-0.453896
H	 0.9533102909	 1.0317126159	 2.3101731601	 0.109962
H	 0.6270509036	 0.8985346005	 0.5715675237	 0.127883
H	-0.5720473698	 1.6361360548	 1.6497924686	 0.108515
H	 0.3269006779	-1.2932198134	 1.695184889	 0.079207
H	-1.9025372313	 0.0750129769	 3.3081326136	 0.113838
H	-1.522330724	-1.6519569628	 3.3475392623	 0.117079
H	-0.3543243258	-0.470831452	 3.9633380413	 0.113304
H	-2.3472952479	-0.1235315816	 0.7473684199	 0.08513
H	-1.595376219	-0.7548739747	-1.3477302753	 0.236251
H	-1.1203232974	-4.1563413336	-0.2569273954	 0.130033
H	-0.0579769273	-3.2193144515	 0.8007206434	 0.131964
H	-1.5826404784	-3.8884014578	 1.431209348	 0.125008
H	-5.3274960652	-2.7075075017	-0.9507180024	 0.1954
58.8249	101.4876	124.5906	166.435	206.3636	224.7298	245.2341	253.9624	311.723	361.2165	380.6704	436.7198	486.404	551.5858	573.4495	598.8985	651.1173	693.9366	794.1449	856.8054	901.4582	927.4876	949.3039	967.3219	1004.0656	1063.6349	1078.8571	1105.773	1121.191	1147.2037	1194.414	1250.7067	1286.7867	1323.2183	1330.7202	1340.3038	1395.2348	1413.3253	1415.0367	1454.0192	1483.7544	1488.9271	1490.9944	1495.6725	1503.9391	1512.8166	2229.0183	3025.0027	3028.941	3043.9028	3048.637	3089.9223	3094.5178	3101.9867	3104.8629	3110.6004	3112.1988	3143.3417	3502.7989	3507.066
CC(C)C1NC1(C)C#C	CC(C)[C@H]1N[C@]1(C)C#C	
InChI=1S/C8H13N/c1-5-8(4)7(9-8)6(2)3/h1,6-7,9H,2-4H3	InChI=1S/C8H13N/c1-5-8(4)7(9-8)6(2)3/h1,6-7,9H,2-4H3/t7-,8-/m1/s1
