17
gdb 45572	3.7306	1.35944	1.12927	5.4558	67.24	-0.2881	0.0479	0.336	1072.8785	0.139057	-459.038613	-459.031586	-459.030642	-459.070966	26.881	
O	 0.0000178525	-0.0051256839	-0.1498511219	-0.370493
C	-0.0152043556	 1.1820411423	-0.0881732791	 0.484839
O	-1.1426079502	 1.937993016	-0.0325819964	-0.253494
C	-0.8196959437	 3.3275743843	 0.0634707638	 0.08991
C	-1.2432690586	 3.9614760635	 1.3991148868	-0.240483
C	-0.0389039982	 4.8365453477	 1.794832512	-0.213906
C	 1.1779063758	 3.9953499758	 1.3650912575	-0.240473
C	 0.7347947112	 3.3486811442	 0.0419463488	 0.08991
O	 1.0924359165	 1.9681951595	-0.0623135766	-0.253508
H	-1.2641825835	 3.8327538564	-0.7974412619	 0.103523
H	-2.1819033856	 4.5147715086	 1.3270826947	 0.112518
H	-1.3860788902	 3.157178172	 2.1286139512	 0.125676
H	-0.0599337309	 5.7833331696	 1.2414315891	 0.109003
H	-0.0274553244	 5.0867023768	 2.8581663911	 0.115258
H	 2.0981645575	 4.5748049947	 1.2665222485	 0.112509
H	 1.3639244895	 3.1959565973	 2.0902179861	 0.125702
H	 1.1414373178	 3.8646047552	-0.8312185937	 0.10351
48.5853	117.3988	220.0672	353.8641	425.5811	512.227	531.4213	630.6005	719.6666	721.9053	771.8617	813.6846	860.0797	911.8798	918.8129	930.343	939.0288	1018.6156	1027.1338	1098.2045	1103.0556	1132.8238	1142.2502	1178.8229	1200.9578	1232.1113	1295.4904	1314.7208	1328.1161	1345.1547	1364.8359	1374.0369	1399.8226	1486.3225	1493.1483	1505.9632	1923.5694	3037.6971	3056.8805	3059.3687	3069.442	3082.9214	3105.4232	3115.0703	3120.064
O=C1OC2CCCC2O1	O=C1O[C@H]2CCC[C@H]2O1	
InChI=1S/C6H8O3/c7-6-8-4-2-1-3-5(4)9-6/h4-5H,1-3H2	InChI=1S/C6H8O3/c7-6-8-4-2-1-3-5(4)9-6/h4-5H,1-3H2/t4-,5+
