27
gdb 118051	3.27354	0.68109	0.5931	1.3518	93.06	-0.261	0.0814	0.3425	1981.9573	0.249932	-390.696101	-390.684009	-390.683064	-390.733947	43.892	
C	-0.0976443494	 1.5322771587	 0.1717708204	-0.388415
C	 0.193678909	 0.028275607	 0.1182156054	-0.172606
C	 0.7223026285	-0.4780359826	-1.2432028333	 0.058881
C	 2.1705057191	-0.00443373	-1.4479449516	-0.411738
C	 0.5537979583	-2.0212627281	-1.3688812865	 0.019493
C	-0.9297366942	-2.3994072735	-1.5335879425	-0.401545
C	 1.3921580892	-2.6228375279	-2.5127251538	-0.180609
C	 1.2870430069	-4.1383779416	-2.6513820491	-0.086805
O	 2.2741746039	-4.5463840825	-3.590299943	-0.423038
H	 0.7958463909	 2.1355726093	-0.0157434532	 0.117551
H	-0.8488265642	 1.8133051321	-0.575032827	 0.113044
H	-0.4841607523	 1.8204857017	 1.1546393446	 0.110166
H	 0.9269983312	-0.2319810794	 0.8942392518	 0.090488
H	-0.7240327865	-0.5055988127	 0.3852035129	 0.09246
H	 0.1066678794	-0.0221064055	-2.034281928	 0.062102
H	 2.8513270389	-0.5119448051	-0.7534952716	 0.111059
H	 2.529328759	-0.1883897752	-2.4631919986	 0.119336
H	 2.2588138056	 1.0704121197	-1.265753525	 0.109266
H	 0.9175594063	-2.4633395379	-0.4278106165	 0.064207
H	-1.0843351196	-3.4789956146	-1.4506192668	 0.113518
H	-1.5658607974	-1.9279978276	-0.7802387082	 0.113521
H	-1.2978077919	-2.0863652243	-2.5184008606	 0.112394
H	 1.1090131439	-2.1623865926	-3.4689123271	 0.096999
H	 2.4524565368	-2.4013084377	-2.3622380413	 0.109884
H	 1.4544509548	-4.6127643443	-1.6690593059	 0.080876
H	 0.2833586024	-4.4348831693	-2.9894222124	 0.086262
H	 2.1792761714	-5.4926346861	-3.732093253	 0.283249
45.6371	64.0529	100.974	110.1906	141.7486	208.3351	227.3149	254.1606	267.0229	275.3408	305.1443	330.4995	366.5305	376.1337	461.3973	479.4152	540.7413	768.0267	796.5528	822.4164	856.9859	920.3897	969.0919	974.2726	991.7908	1008.4154	1029.8174	1045.8625	1062.2045	1089.2643	1142.7436	1172.9032	1184.8838	1190.6325	1236.818	1245.9073	1283.3715	1307.295	1321.2579	1335.4445	1351.1925	1369.4159	1377.5451	1385.5976	1407.1423	1415.5153	1416.8602	1460.851	1482.3385	1487.9121	1495.5361	1499.4294	1501.1207	1507.0973	1513.5705	1516.8635	1530.042	2954.3062	2974.8987	2986.7866	3001.5829	3015.7046	3026.5851	3030.8098	3032.689	3033.4252	3064.9751	3093.4883	3096.7419	3097.4771	3098.2296	3107.1149	3114.8718	3118.702	3829.8697
CCC(C)C(C)CCO	CC[C@@H](C)[C@@H](C)CCO	
InChI=1S/C8H18O/c1-4-7(2)8(3)5-6-9/h7-9H,4-6H2,1-3H3	InChI=1S/C8H18O/c1-4-7(2)8(3)5-6-9/h7-9H,4-6H2,1-3H3/t7-,8+/m1/s1
