19
gdb 91858	2.98582	1.21919	0.99056	2.6865	76.47	-0.2546	-0.0356	0.219	1236.4705	0.158506	-423.037491	-423.028981	-423.028037	-423.071023	32.056	
C	-0.1600855069	 1.4297378549	-0.0824558525	-0.406728
C	 0.0164977987	-0.0864425864	-0.1218513691	 0.04482
C	 1.0720595746	-0.5804208792	-1.1528762258	-0.252426
C	 1.6716790629	-1.841416801	-0.5499926309	-0.023998
O	 2.6183547507	-1.5980988596	 0.4809493867	-0.281456
C	 1.2731349248	-1.9214173514	 0.8840076491	 0.304767
C	 0.4256789744	-0.7160629658	 1.2400345429	-0.317678
C	 1.1318341732	-3.2389665941	 1.5582290504	 0.090083
O	 0.2244942986	-3.5306916415	 2.2968085854	-0.260297
H	 0.776470557	 1.9247001392	 0.1993948592	 0.120327
H	-0.4649819431	 1.8211475009	-1.0587886164	 0.11574
H	-0.9245026169	 1.720763096	 0.6455086904	 0.119341
H	-0.942294892	-0.5381539153	-0.4063992594	 0.08338
H	 0.6252396682	-0.7771127713	-2.1317246461	 0.107566
H	 1.8697567489	 0.1573939892	-1.296379627	 0.119015
H	 1.8667302266	-2.7232912255	-1.1570770993	 0.105055
H	 1.0225314343	-0.0206715265	 1.840316121	 0.115874
H	-0.4382267507	-1.0182189726	 1.8365777019	 0.129862
H	 1.9521475467	-3.9483965	 1.3106800295	 0.086755
55.891	110.5416	183.8851	239.2542	252.871	321.5497	373.3478	412.183	439.7499	498.4463	573.482	668.2628	762.1402	807.7686	840.8639	887.7613	903.3441	930.7886	956.6882	992.1594	1032.1182	1053.1161	1083.1358	1138.283	1162.2427	1165.105	1239.0035	1270.1103	1277.9087	1303.6516	1333.3101	1352.2089	1370.0858	1388.8082	1413.2803	1432.6543	1477.0693	1484.9925	1497.2243	1499.6594	1817.6019	2895.892	3017.8029	3027.0817	3043.744	3051.5345	3091.8209	3096.5777	3099.822	3113.1564	3135.9586
CC1CC2OC2(C1)C=O	C[C@H]1C[C@H]2O[C@]2(C1)C=O	
InChI=1S/C7H10O2/c1-5-2-6-7(3-5,4-8)9-6/h4-6H,2-3H2,1H3	InChI=1S/C7H10O2/c1-5-2-6-7(3-5,4-8)9-6/h4-6H,2-3H2,1H3/t5-,6+,7+/m0/s1
