17
gdb 23175	2.50431	1.61548	1.06669	2.3765	81.21	-0.1833	-0.0132	0.1701	1110.0655	0.136422	-417.96297	-417.954921	-417.953977	-417.995351	31.466	
O	-0.0754816038	 1.2995925302	 0.0239080736	-0.401078
N	 0.0334475647	-0.109281822	 0.0269747786	-0.287842
C	-1.1283036346	-0.6542076856	 0.013630635	 0.354211
C	-2.4696521353	-0.1010528084	-0.0081803067	-0.247365
C	-3.3374673581	-1.1385014456	 0.0164546487	-0.026241
N	-2.7192002435	-2.3718419873	 0.145933782	-0.368869
C	-1.2853181748	-2.1462190614	 0.0431673833	 0.288456
C	-0.392772475	-3.0657941893	-0.7548436466	-0.309268
C	-0.2973588242	-3.0387953791	 0.7489537348	-0.292912
H	 0.8477306033	 1.5702403662	 0.0432503509	 0.300782
H	-2.7092993991	 0.9485127741	-0.0135555968	 0.119602
H	-4.4191424456	-1.1000124026	-0.0145878893	 0.124968
H	-3.1057252697	-3.1463437852	-0.3754872846	 0.242646
H	-0.8464901631	-3.9341835241	-1.2232656325	 0.108568
H	 0.3906859319	-2.5854246807	-1.3307722376	 0.139298
H	 0.5535107064	-2.539434627	 1.1988860585	 0.139259
H	-0.6973774694	-3.8822231221	 1.3010142886	 0.115783
104.3059	169.5243	184.6551	296.1457	301.9999	315.1779	396.0056	474.5104	509.2624	540.4785	583.9632	698.2316	758.3896	776.9673	785.8122	853.1952	902.1226	918.0931	929.8383	945.6681	977.074	988.3657	1060.2272	1079.5953	1093.7298	1148.8865	1165.7092	1197.4761	1288.461	1314.9727	1388.5828	1400.2157	1442.5374	1450.6957	1487.0985	1618.8627	1714.249	3122.6644	3134.152	3214.7164	3217.0837	3233.7429	3286.1741	3585.4875	3827.234
ON=C1C=CNC11CC1	ON=C1C=CNC21CC2	
InChI=1S/C6H8N2O/c9-8-5-1-4-7-6(5)2-3-6/h1,4,7,9H,2-3H2	InChI=1S/C6H8N2O/c9-8-5-1-4-7-6(5)2-3-6/h1,4,7,9H,2-3H2
