20
gdb 82315	2.51494	1.71672	1.25918	2.0096	77.17	-0.232	0.0773	0.3093	1054.9642	0.171912	-403.109747	-403.101823	-403.100879	-403.141911	31.623	
C	-0.7516120187	 1.2212702187	-0.0398882204	-0.418265
C	 0.0261608715	-0.0931166604	-0.0802135624	-0.054853
C	 1.0611412239	-0.2043263158	-1.18957922	-0.028031
C	 2.3746167363	 0.4627222741	-0.991093583	-0.251019
N	 2.2401103747	-0.9809532286	-0.7388375828	-0.106113
C	 2.0191237849	-1.2968650906	 0.6815377319	-0.24602
C	 0.8493028942	-0.4353395555	 1.1678934869	 0.410554
C	 0.9055276398	 0.3809544705	 2.3889853643	-0.252053
O	 0.1620215541	-0.8428273188	 2.3458904742	-0.290304
H	-0.0805727956	 2.080443158	 0.0578286614	 0.116995
H	-1.3339828211	 1.3545815132	-0.9569315427	 0.11817
H	-1.4531855974	 1.2316478937	 0.8006132265	 0.128368
H	-0.6915455668	-0.9155646404	-0.2097918824	 0.094072
H	 0.7107219884	-0.4094875927	-2.197408858	 0.091131
H	 2.9879703033	 0.714785355	-1.8510173091	 0.117211
H	 2.4945850283	 1.1315060454	-0.1411922672	 0.112298
H	 1.742745182	-2.3547722879	 0.7595266818	 0.120955
H	 2.9349308508	-1.1454179792	 1.260777053	 0.110578
H	 1.8046092299	 0.3583546243	 3.0048822689	 0.111521
H	 0.3071056474	 1.285244157	 2.480859829	 0.114805
89.3413	198.949	244.0002	259.0205	299.265	373.3167	383.1668	416.2263	502.7113	566.7272	629.6108	735.9404	763.9795	839.3071	872.4993	876.656	906.4084	931.5474	998.3677	1005.5718	1030.8961	1059.5559	1081.1627	1111.6989	1130.0761	1132.3916	1149.609	1164.633	1174.002	1215.0148	1233.1618	1270.0417	1308.0795	1324.9316	1363.4962	1394.0398	1401.3486	1425.5871	1490.8502	1497.9224	1502.3414	1506.8033	1532.0838	3009.2978	3033.9827	3039.6883	3080.5931	3088.2379	3102.58	3103.833	3107.6283	3143.7682	3168.5273	3190.2657
CC1C2CN2CC11CO1	C[C@H]1[C@H]2CN2C[C@]21CO2	
InChI=1S/C7H11NO/c1-5-6-2-8(6)3-7(5)4-9-7/h5-6H,2-4H2,1H3	InChI=1S/C7H11NO/c1-5-6-2-8(6)3-7(5)4-9-7/h5-6H,2-4H2,1H3/t5-,6+,7+,8?/m0/s1
