14
gdb 45924	3.00171	1.46189	0.9891	2.861	67.07	-0.2686	-0.0537	0.2148	1094.3859	0.103068	-470.075671	-470.067887	-470.066943	-470.109501	28.039	
N	-0.0785947953	 1.2919818811	-0.3112209834	-0.456036
C	-0.0242386995	 0.0565521148	-0.0324391555	 0.283778
N	 1.1538332938	-0.6784146876	 0.1488150945	-0.398725
C	 1.2910227358	-2.0156970945	 0.4520670079	 0.410258
O	 2.3749836099	-2.5353847895	 0.5840646091	-0.345682
C	 0.0049326072	-2.8054615592	 0.6122223256	-0.274076
N	-1.2056078492	-2.0366768858	 0.4228918789	-0.355386
C	-1.3335694828	-0.7102487544	 0.1225052019	 0.405489
O	-2.407445256	-0.1717083615	-0.0132366077	-0.330726
H	 0.8524421933	 1.7072216283	-0.3921295041	 0.22051
H	 2.0350535908	-0.1872283032	 0.050276004	 0.259032
H	 0.0609109782	-3.6369612468	-0.1016991383	 0.159423
H	 0.0375778633	-3.2510432833	 1.6145062233	 0.159427
H	-2.0899968393	-2.5152725484	 0.5187154438	 0.262714
27.5798	86.6027	122.1468	352.614	398.6149	415.3142	439.2345	496.9439	546.8405	609.7044	620.7211	673.4334	698.0437	799.105	808.1644	902.9669	904.488	1007.5407	1076.5857	1127.6575	1245.9065	1268.0857	1343.4939	1377.4071	1406.9637	1429.0582	1473.2613	1513.8224	1733.974	1816.0207	1817.5405	3025.5337	3053.4279	3450.7693	3563.7133	3608.1482
N=C1NC(=O)CNC1=O	[NH][C]1NC(=O)CNC1=O	
InChI=1S/C4H5N3O2/c5-3-4(9)6-1-2(8)7-3/h1H2,(H,6,9)(H2,5,7,8)	InChI=1S/C4H5N3O2/c5-3-4(9)6-1-2(8)7-3/h1H2,(H,6,9)(H2,5,7,8)
