23
gdb 104187	2.39822	1.27771	1.21913	2.5581	80.77	-0.2444	0.0705	0.3149	1213.717	0.203744	-425.416018	-425.405848	-425.404904	-425.450219	39.154	
C	 0.3118356168	 1.4658695569	-0.3750572856	-0.440411
C	-0.0355189424	 0.0253379776	 0.0140365811	 0.218661
C	-1.5375283634	-0.2057458282	-0.146137271	-0.464489
C	 0.9213716097	-0.9877877332	-0.6595451578	-0.114904
O	 1.7051330309	-1.1233722095	 0.5455483565	-0.337596
C	 0.6664908097	-0.4582191349	 1.3372184545	 0.353126
C	 1.2569017459	 0.5646768426	 2.2941277792	-0.450482
C	-0.057773718	-1.5672823485	 2.1195391633	-0.092914
O	 0.8732896927	-2.2875297924	 2.9053017795	-0.425294
H	 1.3895437878	 1.6464149672	-0.3512507261	 0.126382
H	-0.0364257409	 1.6693296825	-1.3938869956	 0.113012
H	-0.1700373344	 2.1901401959	 0.2900447779	 0.116352
H	-1.8463218959	 0.0252275816	-1.1718834439	 0.11694
H	-1.8351110645	-1.2364793046	 0.0594947766	 0.120631
H	-2.1106052608	 0.4502762643	 0.5188164875	 0.119312
H	 0.4499865656	-1.9358094895	-0.9527886376	 0.093726
H	 1.5246755589	-0.6163698629	-1.4955452913	 0.101842
H	 1.9676425845	 1.2238451812	 1.7940968972	 0.118713
H	 0.4612880356	 1.1756640775	 2.7348822086	 0.114372
H	 1.7711745645	 0.0437044888	 3.1055926264	 0.138671
H	-0.8023781094	-1.1454874518	 2.8032826331	 0.104496
H	-0.5802538711	-2.2431648322	 1.4281042971	 0.081092
H	 1.5865249182	-2.5201674884	 2.2953182103	 0.288762
85.9565	137.7945	183.2494	206.3498	229.7173	262.016	274.3857	319.2147	345.0135	347.6905	376.0793	389.0939	471.4602	519.3318	550.1657	627.5508	723.6033	856.1237	872.6909	917.9172	929.2661	952.0849	960.6504	991.88	1015.8504	1033.0224	1070.7399	1124.6022	1153.543	1176.8036	1190.3412	1219.6768	1252.7417	1277.522	1288.4046	1351.9282	1381.7827	1404.6621	1408.4449	1425.7847	1433.5263	1475.8518	1487.218	1488.7948	1500.2164	1505.1589	1508.1791	1516.6016	1527.6153	2997.8164	3004.8685	3029.7231	3034.9966	3044.877	3060.3677	3072.8633	3087.9326	3095.6231	3114.0609	3118.4405	3120.3266	3144.6882	3758.2086
CC1(C)COC1(C)CO	CC1(C)CO[C@]1(C)CO	
InChI=1S/C7H14O2/c1-6(2)5-9-7(6,3)4-8/h8H,4-5H2,1-3H3	InChI=1S/C7H14O2/c1-6(2)5-9-7(6,3)4-8/h8H,4-5H2,1-3H3/t7-/m1/s1
