19
gdb 39467	2.4177	1.71047	1.11504	1.5906	75.59	-0.2483	-0.003	0.2453	1091.8431	0.161141	-422.993378	-422.985787	-422.984843	-423.025219	30.257	
C	 0.0838067181	 1.5417572588	-0.2382630485	-0.125291
O	 1.4453649102	 1.961659751	-0.3292917536	-0.243031
C	 2.0387539188	 2.4159250647	 0.8738053304	-0.116956
C	 2.7540067564	 1.3225072863	 1.6504051186	 0.046355
O	 2.7147041065	 1.4228070444	 3.0860975815	-0.265437
C	 2.0487417901	 0.3245957147	 2.4617823976	 0.09094
C	 0.5314629072	 0.2524802697	 2.5169693975	-0.307669
C	 0.016653728	-0.4756324933	 1.2981254234	-0.051692
C	-0.137177446	 0.079482658	 0.0950892568	-0.050249
H	-0.4444231686	 2.1790132007	 0.4877729765	 0.100495
H	-0.3448470691	 1.750545718	-1.2229573792	 0.109996
H	 2.7678712298	 3.1808880694	 0.5829981951	 0.110183
H	 1.3012404869	 2.9008238086	 1.5275154677	 0.10277
H	 3.7305097866	 1.0429700863	 1.253662034	 0.094386
H	 2.5509591736	-0.6340274963	 2.6061477096	 0.092138
H	 0.2220101802	-0.2595127349	 3.4340159148	 0.108655
H	 0.1305226582	 1.2689202644	 2.5681226222	 0.114944
H	-0.171498846	-1.5411768315	 1.4094024702	 0.095599
H	-0.4582567508	-0.551212839	-0.7302007948	 0.093866
152.8324	159.4681	243.0761	255.0321	356.4731	376.5937	432.9062	482.5531	505.3905	572.2945	639.6194	734.8954	807.7004	841.2803	880.5881	931.5136	951.256	993.622	1001.1444	1013.1036	1025.0643	1043.6267	1101.0988	1122.2297	1153.846	1172.9394	1212.5323	1262.5297	1273.7088	1293.1098	1315.3412	1323.997	1382.9192	1399.0348	1410.0107	1423.4065	1484.7878	1488.6351	1493.067	1511.2291	1714.5786	2987.2409	3012.5803	3050.6707	3062.9337	3077.5442	3082.786	3098.6477	3110.5895	3143.2506	3167.407
C1OCC2OC2CC=C1	C1OC[C@H]2O[C@H]2CC=C1	
InChI=1S/C7H10O2/c1-2-4-8-5-7-6(3-1)9-7/h1-2,6-7H,3-5H2/b2-1-	InChI=1S/C7H10O2/c1-2-4-8-5-7-6(3-1)9-7/h1-2,6-7H,3-5H2/b2-1-/t6-,7+/m0/s1
