15
gdb 17908	2.97561	2.39512	2.19336	1.7274	59.98	-0.2179	-0.0248	0.1931	719.2662	0.121741	-399.791874	-399.785703	-399.784759	-399.822126	24.011	
O	 0.0057838179	 0.0424349659	-0.0637421701	-0.322282
C	-0.0151774717	 1.2370176012	 0.0078768106	 0.428948
C	-1.1522704901	 2.2716550035	 0.0502032013	-0.150408
C	-0.6934778824	 3.1065198547	 1.2458701651	-0.061015
O	 0.7603824215	 3.0548507441	 1.1726295282	-0.289539
C	 1.0928748499	 2.3090716334	-0.0036492137	-0.008802
C	 0.6628462488	 3.1166586552	-1.2361849753	-0.185724
N	-0.8455224689	 3.0588459116	-1.1700546138	-0.310322
H	-2.1753191261	 1.9047109623	 0.078471648	 0.097116
H	-1.0276052872	 4.1463602359	 1.1679605263	 0.11701
H	-1.0183652265	 2.6823490623	 2.2026197031	 0.11468
H	 2.126958152	 1.9778888478	 0.0465949625	 0.102758
H	 1.0089028971	 4.1526291799	-1.1695321735	 0.1224
H	 1.0455190329	 2.6762311458	-2.1631725563	 0.112625
H	-1.2030983771	 2.5668878866	-1.9823384523	 0.232556
149.0876	168.8814	318.4559	402.0925	465.0636	565.2913	639.0257	697.888	768.8161	833.6254	835.7325	885.6632	898.4518	920.1563	981.0668	998.1944	1047.898	1067.8442	1097.6972	1138.0288	1171.8128	1182.798	1220.8444	1243.2993	1288.6037	1301.4383	1356.6264	1374.2104	1430.5864	1500.4487	1514.426	1892.1534	3031.5399	3039.0189	3081.2217	3085.5256	3157.3565	3162.8788	3524.1937
O=C1C2COC1CN2	O=C1[C@H]2CO[C@@H]1CN2	
InChI=1S/C5H7NO2/c7-5-3-2-8-4(5)1-6-3/h3-4,6H,1-2H2	InChI=1S/C5H7NO2/c7-5-3-2-8-4(5)1-6-3/h3-4,6H,1-2H2/t3-,4-/m1/s1
