19
gdb 17642	2.9809	1.67374	1.39535	1.8655	72.34	-0.2162	-0.0191	0.1971	995.8143	0.163165	-365.048424	-365.039275	-365.038331	-365.083175	32.666	
C	-0.4037618112	 1.5992271393	-1.0482655877	-0.38776
C	-0.0013290541	 0.5287009524	-0.0220559187	-0.041935
N	-1.1765126167	 0.1506612288	 0.7599502748	-0.078402
C	-2.207701351	-0.7411095498	 0.2340101018	-0.220465
C	-1.3132767847	-1.175535971	 1.3464034112	-0.232218
C	 0.7624903809	-0.5889728974	-0.758312433	 0.379433
C	 2.2768015527	-0.5252146817	-0.6760818793	-0.479093
O	 0.1954158844	-1.4642777296	-1.3756231399	-0.315283
H	 0.4702951368	 2.0122451597	-1.5612017252	 0.115785
H	-1.0708831611	 1.1675817596	-1.7998471336	 0.136456
H	-0.9275587962	 2.4111006817	-0.5377246632	 0.132173
H	 0.6975483521	 0.9823541061	 0.6930408535	 0.083317
H	-3.2278650516	-0.4297817478	 0.4454791742	 0.107547
H	-2.0434157659	-1.2154310772	-0.7264209312	 0.145026
H	-0.5802549669	-1.9406404119	 1.1023012353	 0.117088
H	-1.6701906395	-1.1947632807	 2.3729509321	 0.110915
H	 2.5947460525	-0.7498642777	 0.3493999411	 0.146408
H	 2.721790861	-1.2483997718	-1.3605152453	 0.141803
H	 2.6394353284	 0.4835280889	-0.9025846669	 0.139202
19.0832	100.24	153.3483	195.0762	230.6085	245.461	253.4057	316.0556	397.9236	469.2088	602.5867	614.3786	742.8646	773.0117	834.0171	902.5815	945.3239	956.5733	998.2494	1037.3318	1047.9978	1107.217	1121.601	1128.5029	1135.1192	1175.6697	1187.4226	1196.3245	1321.0842	1338.3218	1375.0667	1384.1646	1400.8151	1460.5783	1472.9402	1480.4743	1486.0469	1498.8071	1511.9747	1800.3369	3017.9154	3033.1834	3042.9733	3092.6746	3102.295	3111.3525	3116.2734	3128.749	3151.451	3184.8812	3221.621
CC(N1CC1)C(C)=O	C[C@@H](N1CC1)C(=O)C	
InChI=1S/C6H11NO/c1-5(6(2)8)7-3-4-7/h5H,3-4H2,1-2H3	InChI=1S/C6H11NO/c1-5(6(2)8)7-3-4-7/h5H,3-4H2,1-2H3/t5-/m1/s1
