16
gdb 44276	3.35736	1.87776	1.46219	4.3541	70.74	-0.234	-0.0114	0.2226	882.9407	0.12586	-400.697681	-400.691286	-400.690341	-400.72938	26.054	
O	-0.01420903	-0.0236480531	-0.3668820455	-0.297055
C	-0.0602022827	 1.1310642143	-0.0383904688	 0.395789
C	-1.3609876651	 1.8652822494	 0.2111074883	-0.352251
C	-1.140643302	 3.3041588664	 0.6136644146	-0.066712
C	 0.0097815607	 3.7208727812	 1.4892240198	-0.09329
C	-0.0349797315	 4.1374742376	 0.0246434698	-0.093385
C	 1.254275015	 3.2957248663	-0.2311731487	-0.074215
C	 1.297554269	 2.8909643138	 1.1909255496	-0.074208
N	 1.151219097	 1.8722450146	 0.1361038149	-0.149342
H	-1.9644740812	 1.7966379369	-0.7014622483	 0.140537
H	-1.9121684673	 1.3171131499	 0.9840431408	 0.140611
H	-2.0491143016	 3.8709151876	 0.8027806296	 0.100534
H	-0.1047049278	 4.3346379372	 2.372252492	 0.098277
H	-0.1893291381	 5.1219421366	-0.3955397058	 0.098273
H	 2.0463322562	 3.5698134097	-0.916800298	 0.113203
H	 2.1312398794	 2.7759877717	 1.872330726	 0.113236
24.9465	277.7446	438.5222	473.3378	477.3024	536.6321	599.6463	691.948	724.7399	725.296	745.7212	795.287	845.8719	888.5319	917.2335	933.1628	933.4593	972.4266	994.9103	1033.4058	1036.4567	1057.3089	1083.5651	1116.1471	1142.689	1222.3025	1231.845	1266.4429	1283.5201	1302.879	1337.5482	1349.7861	1438.7024	1452.9269	1840.8655	3040.2748	3075.6298	3139.5641	3184.8052	3196.1842	3203.1192	3213.2974
O=C1CC2C3C2C2C3N12	O=C1C[C@H]2[C@@H]3[C@H]2[C@H]2[C@@H]3N12	
InChI=1S/C7H7NO/c9-3-1-2-4-5(2)7-6(4)8(3)7/h2,4-7H,1H2	InChI=1S/C7H7NO/c9-3-1-2-4-5(2)7-6(4)8(3)7/h2,4-7H,1H2/t2-,4+,5-,6+,7-,8?
