19
gdb 111617	2.92813	1.36062	1.30138	2.6126	74.64	-0.2183	0.0649	0.2832	1068.9993	0.161413	-419.137031	-419.129205	-419.128261	-419.169701	30.641	
O	 0.1977636504	 1.2436836765	-0.0688980381	-0.420071
C	 0.2108073003	-0.068903133	-0.6224798771	-0.10309
C	-1.1367497826	-0.7391329817	-0.4566957484	-0.027613
C	-1.4477237172	-2.1930876383	-0.2941147178	-0.05927
C	-0.4528436796	-3.2310467151	 0.1640325256	-0.049862
N	 0.9279682201	-2.7752388291	 0.4383795355	-0.327832
C	-0.0403173919	-2.8754564135	 1.5475343763	-0.037913
C	-0.7428075262	-1.5654708319	 1.9062509397	-0.184719
N	-1.6939658218	-1.2344591987	 0.8137271615	-0.119184
H	-0.5365204317	 1.7265486168	-0.4630454964	 0.278947
H	 0.4542344998	-0.0471372931	-1.6973904144	 0.082159
H	 1.0051041296	-0.6113060548	-0.1184375186	 0.147519
H	-1.9062943075	-0.1825579881	-1.001913051	 0.07642
H	-2.3312132868	-2.5937360301	-0.7875452056	 0.085483
H	-0.6115898502	-4.2574086035	-0.1480510918	 0.090435
H	 1.5470404892	-3.5826657914	 0.4570988676	 0.232951
H	 0.1241021251	-3.6228044621	 2.3178174154	 0.092111
H	-1.3311465021	-1.7075772637	 2.8187134872	 0.1089
H	-0.045262507	-0.7411490851	 2.0825641905	 0.134628
52.9974	153.2472	209.2741	270.3772	323.4871	334.0858	415.7159	537.893	602.2461	687.6825	699.0011	737.0592	777.7612	821.5821	864.1962	878.4858	896.9502	949.0267	985.7379	1001.9683	1034.3418	1050.3524	1078.5447	1098.4825	1123.9762	1138.1918	1148.7337	1173.6262	1216.1634	1229.533	1243.1645	1307.3557	1327.3956	1352.0533	1363.7408	1396.4328	1398.3147	1430.4837	1449.033	1494.9109	1523.8653	2971.1167	3039.1988	3048.1615	3091.9334	3119.6597	3155.0699	3174.9064	3181.5397	3490.3287	3802.9452
OCC1C2C3NC3CN12	OC[C@H]1[C@H]2[C@H]3N[C@H]3CN12	
InChI=1S/C6H10N2O/c9-2-4-6-5-3(7-5)1-8(4)6/h3-7,9H,1-2H2	InChI=1S/C6H10N2O/c9-2-4-6-5-3(7-5)1-8(4)6/h3-7,9H,1-2H2/t3-,4-,5-,6-,8?/m0/s1
