16
gdb 44291	3.77328	1.74	1.52127	2.7802	70.22	-0.2317	-0.0217	0.21	869.5267	0.126762	-400.708373	-400.702364	-400.70142	-400.738686	25.082	
O	-0.0114847634	-0.0150319121	 0.0857639602	-0.320193
C	-0.0369013834	 1.18626299	 0.025401705	 0.414564
C	-1.2914118752	 2.0821862242	 0.0122978025	-0.346813
C	-0.7120842321	 3.4865131475	-0.0682450965	 0.023486
C	 0.6721571287	 3.4367143071	-0.7705806068	-0.113757
C	 1.2026123047	 4.2932029205	 0.4249463186	-0.05612
C	 1.2166455602	 3.0399986314	 1.2104294561	-0.055235
C	 1.1472169524	 2.13759864	-0.0450857197	-0.151071
N	-0.0112968234	 3.9151122758	 1.2031324741	-0.149938
H	-1.9029996835	 1.838360317	-0.8643902299	 0.131996
H	-1.9043555961	 1.9118306759	 0.9024038184	 0.142746
H	-1.3927675038	 4.2742481942	-0.3917051305	 0.085829
H	 0.8212617245	 3.5822097509	-1.8378415787	 0.083165
H	 1.7217235466	 5.2363778193	 0.5247714527	 0.106781
H	 1.6476545529	 2.8105440549	 2.1754791645	 0.111538
H	 2.0990194209	 1.7009995634	-0.3410871	 0.093021
115.9543	297.2653	389.5657	457.7988	572.5914	596.8947	664.6203	721.0563	742.3215	799.3694	832.217	840.2741	872.0162	897.8532	919.5231	928.2595	964.766	996.3754	1011.1372	1024.1236	1042.1728	1133.5046	1141.0627	1150.8439	1155.1962	1194.7551	1207.2148	1239.6471	1247.301	1267.5174	1288.1406	1330.2381	1341.7011	1433.2103	1851.1206	3048.7393	3101.2098	3111.8238	3140.7895	3148.2105	3204.743	3219.0284
O=C1CC2C3C4C(C13)N24	O=C1C[C@@H]2[C@H]3[C@@H]4[C@H]([C@@H]13)N24	
InChI=1S/C7H7NO/c9-3-1-2-4-5(3)7-6(4)8(2)7/h2,4-7H,1H2	InChI=1S/C7H7NO/c9-3-1-2-4-5(3)7-6(4)8(2)7/h2,4-7H,1H2/t2-,4-,5+,6-,7+,8?/m1/s1
