15
gdb 132500	3.10978	1.32339	0.93375	4.5433	71.04	-0.228	-0.0273	0.2007	1157.6863	0.112355	-461.980961	-461.973104	-461.972159	-462.013237	29.669	
C	 0.025327452	 1.51141415	 0.0463143071	-0.535923
C	 0.0316489929	 0.0057665884	 0.0069024187	 0.212583
C	-0.0197832163	-0.7009994049	-1.1903725594	-0.349025
C	-0.0099541715	-2.0903927433	-1.1399262541	 0.339799
F	-0.059161897	-2.7681032433	-2.2883530345	-0.079626
N	 0.0446762118	-2.8031831161	-0.0405802754	-0.32124
C	 0.0944167196	-2.1344641042	 1.1146254093	-0.056224
C	 0.0905161424	-0.7449002333	 1.1926621182	 0.262826
O	 0.1448071456	-0.1810176515	 2.4333221591	-0.437744
H	 0.9321055901	 1.9070061372	 0.5219695396	 0.141697
H	-0.0252288305	 1.9304676867	-0.9604233842	 0.144951
H	-0.8360581339	 1.8973712662	 0.6066995385	 0.141623
H	-0.0666638141	-0.1907432995	-2.1452950887	 0.111722
H	 0.1398388957	-2.7173344457	 2.0300338792	 0.124322
H	 0.136594393	 0.7776660935	 2.3553714967	 0.300259
138.9295	159.8536	198.5826	277.4463	285.9424	352.369	402.3842	454.1122	463.6662	535.5041	573.2387	625.6699	755.0831	763.4848	787.1225	882.1405	942.9411	976.9275	1011.8612	1056.9396	1148.189	1200.1613	1257.8996	1305.2811	1332.5702	1367.8196	1406.2849	1444.7675	1486.7095	1499.3551	1525.8714	1621.3029	1659.3725	3015.4783	3063.9515	3127.3101	3174.2196	3198.8924	3838.4684
CC1=CC(F)=NC=C1O	Cc1cc(F)ncc1O	
InChI=1S/C6H6FNO/c1-4-2-6(7)8-3-5(4)9/h2-3,9H,1H3	InChI=1S/C6H6FNO/c1-4-2-6(7)8-3-5(4)9/h2-3,9H,1H3
