20
gdb 110628	2.57103	1.56286	1.19587	1.5372	78.34	-0.2177	0.0602	0.2779	1106.7321	0.169872	-403.044544	-403.035587	-403.034642	-403.077834	34.264	
C	-0.4025838405	 0.7391788388	 0.8563586846	-0.48027
C	 0.0324355014	-0.647270858	 0.4777101451	 0.314736
C	-0.7895215195	-1.8518151325	 0.9865650719	-0.141047
C	-0.3024412911	-3.2143270128	 0.5485890973	-0.30825
C	 0.5119877129	-2.4134288291	 1.5102665196	 0.006148
N	 1.3302035719	-1.2422578063	 0.998307393	-0.226417
C	 1.1343983728	-0.9308087008	-0.4626474168	-0.082832
C	 1.2238087129	-1.8692451666	-1.6648726737	-0.111908
O	 2.0427325132	-3.0094263793	-1.4499544341	-0.414237
H	 0.4046582786	 1.4601124677	 0.7013752903	 0.126734
H	-1.2651872907	 1.0510243891	 0.2549521003	 0.12138
H	-0.6969581481	 0.7781423112	 1.9110180824	 0.126326
H	-1.7293570752	-1.7135759811	 1.504814824	 0.092642
H	-0.8521076684	-4.0126738634	 1.0420763062	 0.113223
H	 0.0487967258	-3.4799568939	-0.4354002775	 0.148934
H	 0.7797526338	-2.7566371703	 2.5013213285	 0.102611
H	 1.7273469417	-0.0323294683	-0.635040973	 0.103134
H	 0.2373425904	-2.2286550436	-1.9717165606	 0.117093
H	 1.6197618757	-1.2773615585	-2.5035614794	 0.095417
H	 2.6723639623	-2.7860419025	-0.7565486281	 0.296583
110.0559	132.3649	161.7108	194.4199	211.4432	270.0781	300.9949	339.7434	432.3569	521.962	614.1061	621.7885	704.3091	707.3179	748.7454	836.5905	888.0871	904.4956	946.8182	970.285	1000.1921	1019.0184	1054.5096	1060.0414	1063.0109	1080.5916	1086.7141	1124.5621	1139.0166	1190.7992	1229.8694	1235.3484	1297.5239	1332.339	1345.7555	1363.8483	1410.0167	1434.9825	1465.8433	1480.2673	1492.9573	1505.1554	1542.2959	2987.7008	3024.9798	3068.9778	3086.284	3100.4895	3114.9489	3135.5764	3187.9952	3199.8531	3270.2422	3815.8094
CC12C3CC3N1C2CO	C[C@]12[C@H]3C[C@H]3N1[C@H]2CO	
InChI=1S/C7H11NO/c1-7-4-2-5(4)8(7)6(7)3-9/h4-6,9H,2-3H2,1H3	InChI=1S/C7H11NO/c1-7-4-2-5(4)8(7)6(7)3-9/h4-6,9H,2-3H2,1H3/t4-,5+,6-,7+,8?/m0/s1
