18
gdb 34250	4.10996	1.32746	1.20208	1.8664	83.05	-0.2371	0.0336	0.2708	1068.2774	0.149022	-364.746063	-364.738799	-364.737854	-364.777452	29.713	
C	 0.0481865774	-1.1933960961	-0.033746508	-0.345269
C	 0.021774178	 0.0092509373	-0.0350440865	 0.119861
C	-0.0629010667	 1.4327812172	-0.0177114286	 0.216982
C	-1.2850214621	 2.2469200181	 0.4533281629	-0.305676
C	-0.7714726408	 3.4444407209	-0.4064086844	-0.051626
C	 0.1025926288	 4.3646044317	 0.4501916345	-0.222126
C	 1.1975345392	 3.3841465401	 0.9472313759	-0.162461
N	 1.1882950246	 2.2300446226	 0.0159149645	-0.132529
C	 0.2510508505	 2.4738231161	-1.0631539378	-0.119103
H	 0.0874170543	-2.2542739462	-0.0353290145	 0.181539
H	-2.2030389284	 1.8134425162	 0.0515157445	 0.117105
H	-1.4045511962	 2.4075728795	 1.5302408159	 0.097239
H	-1.5078636144	 3.9398840794	-1.0373051547	 0.075382
H	 0.5369541102	 5.1681969895	-0.1545591084	 0.102529
H	-0.454600588	 4.8250045422	 1.2717545018	 0.103081
H	 2.1956120862	 3.8296208323	 0.9244677615	 0.112395
H	 1.0171717708	 3.0336795447	 1.9674913382	 0.112207
H	 0.5468675966	 2.3718024546	-2.1003660568	 0.100472
132.7723	151.9002	234.0976	370.1068	378.9074	485.1684	515.1185	556.3667	602.9261	651.1174	677.0401	721.2359	739.6685	819.3261	857.2133	868.4327	874.6791	933.9383	953.3149	971.245	1000.4531	1038.4341	1045.8313	1088.4094	1129.2602	1152.5203	1178.6611	1209.9748	1230.8808	1232.4022	1275.3971	1284.0134	1333.2997	1333.8002	1384.3227	1489.2153	1489.8634	1513.7505	2238.1883	3041.9612	3043.7071	3060.1788	3085.8125	3105.0811	3112.8524	3128.1163	3188.046	3504.0274
C#CC12CC3CCN1C23	C#C[C@@]12C[C@H]3CCN1[C@@H]23	
InChI=1S/C8H9N/c1-2-8-5-6-3-4-9(8)7(6)8/h1,6-7H,3-5H2	InChI=1S/C8H9N/c1-2-8-5-6-3-4-9(8)7(6)8/h1,6-7H,3-5H2/t6-,7-,8+,9?/m1/s1
