23
gdb 87181	3.23509	0.94386	0.83899	2.6436	86.76	-0.2334	-0.0097	0.2237	1490.366	0.202429	-388.30914	-388.29822	-388.297276	-388.346222	39.535	
C	-0.0878648275	 1.510467507	-0.0542077901	-0.413701
C	-0.1315311344	 0.0122265678	 0.1562671885	-0.037182
C	 0.9339213423	-0.8999521328	-0.4071439223	-0.330375
C	 0.8009925607	-0.7322040613	 1.0943870721	 0.344097
C	 1.8790650001	 0.027371668	 1.8475776066	-0.458817
C	 0.1752140295	-1.8842622957	 1.8900327849	-0.356875
C	 1.1945177056	-2.9674168087	 2.243466146	 0.389601
C	 1.3322364795	-4.1284682828	 1.2752006098	-0.478887
O	 1.8735037408	-2.8886667874	 3.2427662437	-0.303328
H	 0.9350006288	 1.8952294176	-0.078316861	 0.118042
H	-0.5579140487	 1.7760528701	-1.007688358	 0.118555
H	-0.6250445818	 2.0426154329	 0.7389662822	 0.118378
H	-1.1406722003	-0.3931215007	 0.1207801012	 0.079363
H	 0.6242633924	-1.8325591702	-0.8679382562	 0.103271
H	 1.7903273909	-0.4369433927	-0.8881756733	 0.109236
H	 2.3498029873	 0.7896320177	 1.2227251769	 0.110543
H	 1.4620104188	 0.5256901746	 2.7305564095	 0.117283
H	 2.6630298799	-0.6482354616	 2.2003379015	 0.137995
H	-0.227964047	-1.4954733481	 2.8316867396	 0.118294
H	-0.6484918621	-2.3187193113	 1.313357802	 0.094194
H	 0.3907631605	-4.6881887946	 1.2244874013	 0.136955
H	 1.5368254644	-3.760699921	 0.2639338974	 0.144041
H	 2.1349326203	-4.7919776668	 1.5993713979	 0.139318
16.8999	82.7414	131.829	149.4438	158.1334	177.6581	212.2009	261.4307	321.7349	340.1367	396.5214	436.6473	470.1916	523.6441	589.5907	709.1211	774.2205	801.289	877.7393	893.0757	906.3689	934.9244	972.4621	997.8231	1029.5012	1050.304	1058.8693	1109.5676	1123.4083	1134.4132	1177.1318	1193.1227	1242.7096	1267.3916	1305.1187	1357.8354	1377.8289	1407.2361	1422.9495	1426.4243	1460.7484	1469.6895	1476.4517	1486.3987	1491.7572	1494.0388	1500.1964	1513.365	1805.5526	3029.7868	3031.4205	3035.9037	3037.3647	3086.7697	3087.1679	3097.3578	3099.5331	3106.4808	3119.8064	3124.1665	3128.9713	3150.9079	3202.7134
CC1CC1(C)CC(C)=O	C[C@H]1C[C@]1(C)CC(=O)C	
InChI=1S/C8H14O/c1-6-4-8(6,3)5-7(2)9/h6H,4-5H2,1-3H3	InChI=1S/C8H14O/c1-6-4-8(6,3)5-7(2)9/h6H,4-5H2,1-3H3/t6-,8+/m0/s1
