16
gdb 44406	3.69398	1.51097	1.48305	3.3009	74.45	-0.2358	-0.0134	0.2224	925.346	0.125765	-400.652733	-400.646242	-400.645298	-400.683315	27.132	
O	-0.2316497331	 0.049087921	-0.4002853506	-0.325184
C	-0.1200859739	 1.2049474769	-0.1345926336	 0.331727
N	-1.0856416252	 2.2565572446	-0.0393276344	-0.364032
C	-0.1708029075	 3.0491175183	 0.8074262602	 0.060192
C	 0.8556504324	 4.2693263265	 0.704483953	-0.143994
C	 1.916385784	 3.1350665426	 1.1528642139	-0.304858
C	 0.984079069	 2.2837487792	 0.179799263	 0.046884
C	 1.2216476737	 3.0665672262	-1.1359248243	-0.095198
C	 1.1409569915	 4.3481067579	-0.7823334601	-0.070412
H	-2.0636412022	 2.0777217041	 0.1555362776	 0.24685
H	-0.3278040509	 2.8122978756	 1.8650783035	 0.09225
H	 0.729568673	 5.1808545257	 1.2887154502	 0.07417
H	 2.9456582439	 3.2972076883	 0.8307000187	 0.117937
H	 1.8632100703	 2.8593021012	 2.2088792876	 0.11348
H	 1.4130169694	 2.6006675487	-2.0915317056	 0.112449
H	 1.2335729356	 5.2471539234	-1.3739121991	 0.107738
137.9888	275.0612	302.5051	436.4746	474.987	531.046	579.4868	634.0734	677.638	707.7869	738.652	768.8436	802.8818	828.3754	855.7063	908.9656	924.7828	960.8993	976.1158	1000.3966	1034.2836	1046.1391	1112.6283	1116.9864	1123.6004	1159.1135	1184.0179	1197.824	1242.8591	1289.9505	1327.0791	1414.3471	1485.6361	1629.8222	1898.6246	3038.7515	3069.7639	3119.9262	3148.5516	3226.228	3253.7177	3561.7919
O=C1NC2C3CC12C=C3	O=C1N[C@@H]2[C@H]3C[C@@]12C=C3	
InChI=1S/C7H7NO/c9-6-7-2-1-4(3-7)5(7)8-6/h1-2,4-5H,3H2,(H,8,9)	InChI=1S/C7H7NO/c9-6-7-2-1-4(3-7)5(7)8-6/h1-2,4-5H,3H2,(H,8,9)/t4-,5-,7-/m1/s1
