18
gdb 105017	1.96883	1.44062	1.31276	4.5655	71.64	-0.2527	0.0184	0.2712	1108.2929	0.147992	-435.231719	-435.22232	-435.221376	-435.265909	34.631	
N	 1.9703061394	-0.9444329168	 0.7406242222	-0.510794
C	 0.6840671014	-0.6150383693	 0.1331287214	-0.198575
C	 0.1145756226	 0.5644219622	 0.8148944046	 0.304342
N	-0.3757361049	 1.484796523	 1.3128122993	-0.334038
C	 0.6791845037	-0.3770553452	-1.3910609083	 0.269154
C	 1.8279890986	 0.463350139	-1.9222693935	-0.123546
O	 2.1257453982	 1.5786728348	-1.0988067495	-0.415419
C	 0.0794129182	-1.4186412227	-2.2638763697	-0.29299
N	-0.62068844	-0.1421967653	-2.0414851459	-0.337952
H	 2.360807312	-1.7627854465	 0.2839789401	 0.237496
H	 2.6120821837	-0.1699789656	 0.596398943	 0.26086
H	-0.0062978697	-1.4439650319	 0.3408734505	 0.127743
H	 2.7467759498	-0.1321857932	-1.9465461212	 0.108165
H	 1.5901705502	 0.7593649563	-2.9527056963	 0.115143
H	 1.3490043282	 2.1484997428	-1.0601911467	 0.304158
H	 0.455329303	-1.5633992579	-3.2735738812	 0.126819
H	-0.3061548526	-2.3204866793	-1.7942174257	 0.118107
H	-1.3838972219	-0.2612871047	-1.3777741932	 0.241327
72.8243	96.9427	136.4444	193.5908	237.58	286.847	325.3102	349.6439	376.8703	419.1156	454.0877	500.1025	539.7461	601.3995	769.3646	836.9791	864.2478	902.8182	922.5862	968.1191	976.2734	1016.3384	1073.2985	1089.7671	1130.5894	1147.6012	1206.9582	1215.647	1250.6165	1286.3043	1316.7781	1355.0988	1401.5513	1406.7034	1432.7896	1495.2229	1511.1689	1656.4939	2357.7555	3018.7567	3021.821	3077.2731	3102.2049	3186.1707	3486.0553	3496.7132	3584.8685	3805.3255
NC(C#N)C1(CO)CN1	N[C@@H](C#N)[C@@]1(CO)CN1	
InChI=1S/C5H9N3O/c6-1-4(7)5(3-9)2-8-5/h4,8-9H,2-3,7H2	InChI=1S/C5H9N3O/c6-1-4(7)5(3-9)2-8-5/h4,8-9H,2-3,7H2/t4-,5-/m0/s1
