20
gdb 17625	3.84587	1.35332	1.22077	1.6223	70.76	-0.2625	0.0762	0.3386	1082.8988	0.175478	-386.122739	-386.113683	-386.112739	-386.156126	33.62	
C	-0.0453144738	 1.5772109417	 0.0165970959	-0.402733
C	 0.0346219387	 0.0440944214	-0.0057974595	 0.030684
C	 0.7094059758	-0.4566811139	-1.2887852594	-0.399463
C	 0.7623567427	-0.5250494024	 1.2349419143	 0.103791
O	 2.1014475183	-0.0701058328	 1.3319119437	-0.443769
C	 0.0186228047	-0.2267861904	 2.5306364883	 0.050712
C	 0.6894073066	-0.2891091126	 3.8321137728	-0.187129
O	 0.4292489081	 0.9755019493	 3.1993365529	-0.247117
H	 0.9571259862	 2.0159015268	-0.0254647114	 0.118701
H	-0.6013701666	 1.9443051584	-0.8514362967	 0.110917
H	-0.5388502017	 1.9519305349	 0.9178588733	 0.128115
H	-0.9893921696	-0.3570739057	 0.0252399079	 0.066123
H	 1.7543975132	-0.1338160431	-1.3179764418	 0.132396
H	 0.6952375865	-1.5505818774	-1.3478574474	 0.105951
H	 0.2042772526	-0.0658804105	-2.1777332809	 0.106608
H	 0.8166916104	-1.6168288654	 1.1219675033	 0.086496
H	 2.0571644694	 0.7735957227	 1.8034666382	 0.293221
H	-1.061484058	-0.3729408793	 2.4996555325	 0.096415
H	 0.1075382702	-0.47919558	 4.7317336996	 0.119841
H	 1.7381944961	-0.5727176216	 3.8714060245	 0.130242
82.4449	101.9153	184.1964	221.1233	237.6629	270.2131	293.5365	325.6528	342.3527	441.7977	502.7149	589.3511	690.7026	776.2324	819.3318	882.9996	922.3569	931.4205	968.9289	984.3405	1017.1165	1057.3447	1093.607	1125.1388	1158.7821	1165.3264	1174.7478	1205.8348	1263.4261	1294.5819	1309.0966	1357.6721	1370.5613	1399.2713	1414.0466	1426.5625	1443.9719	1487.1063	1496.7095	1505.2043	1515.6338	1516.853	2994.1229	3014.9877	3031.9516	3038.5804	3096.9289	3098.6692	3103.2867	3111.525	3114.2286	3115.0419	3194.2078	3744.5045
CC(C)C(O)C1CO1	CC(C)[C@@H](O)[C@H]1CO1	
InChI=1S/C6H12O2/c1-4(2)6(7)5-3-8-5/h4-7H,3H2,1-2H3	InChI=1S/C6H12O2/c1-4(2)6(7)5-3-8-5/h4-7H,3H2,1-2H3/t5-,6-/m1/s1
