20
gdb 54149	2.42091	1.45772	1.07967	6.3389	75.89	-0.2445	0.0282	0.2727	1175.3182	0.169865	-440.318925	-440.309366	-440.308421	-440.352855	36.33	
C	-0.035120956	 1.5907951201	 0.0096834313	-0.45282
C	-0.0234019147	 0.0735461967	 0.0173442941	 0.247336
N	-1.2314734314	-0.5381689121	-0.531041775	-0.570963
H	-1.2908660028	-0.3657355225	-1.5310494882	 0.245081
H	-1.0087754814	-2.0890445731	 0.1479293134	 0.316686
H	-2.061935755	-0.1329528389	-0.1059763843	 0.246856
C	 1.2405430135	-0.6796386051	-0.2718455409	-0.347194
C	 0.6777903942	-0.6945391671	 1.1493406865	 0.118789
C	 1.4224979655	 0.0669371352	 2.2322268342	-0.452111
C	 0.1455231468	-2.0303665013	 1.6569093108	 0.383179
O	 0.4977816299	-2.4735469078	 2.7220340652	-0.345063
O	-0.6897619073	-2.7056872755	 0.8605869948	-0.39214
H	 0.9073016309	 2.0220579527	 0.3495189979	 0.132025
H	-0.2180078562	 1.955231998	-1.0081721206	 0.116421
H	-0.832935463	 1.9811673744	 0.6527432601	 0.122495
H	 1.1627832881	-1.5950544334	-0.8482407175	 0.130387
H	 2.1513872609	-0.1138860487	-0.4370178339	 0.122246
H	 1.9964100253	 0.9023555584	 1.8264464594	 0.10359
H	 0.734487864	 0.4566954025	 2.9892902735	 0.123963
H	 2.1085198786	-0.6126614225	 2.740059509	 0.151237
85.7931	129.2685	137.0176	191.9595	273.2059	279.4765	318.9804	346.8733	389.7145	405.7454	423.6114	466.8134	537.2951	557.8217	671.8662	740.8655	793.3669	858.6271	903.6474	918.6634	944.2562	960.2605	999.8151	1010.4078	1068.3462	1075.1725	1109.1142	1170.2756	1189.1061	1228.568	1269.1879	1336.7177	1377.1065	1410.5662	1423.1935	1477.9094	1480.8071	1488.2481	1496.7691	1501.5304	1506.3987	1648.905	1832.6783	3025.9143	3050.3326	3081.4254	3115.1007	3131.6005	3135.7757	3145.1711	3187.008	3222.1046	3477.771	3554.0063
CC1([NH3+])CC1(C)C([O-])=O	C[C@@]1(N)C[C@]1(C)C(=O)O	
InChI=1S/C6H11NO2/c1-5(4(8)9)3-6(5,2)7/h3,7H2,1-2H3,(H,8,9)	InChI=1S/C6H11NO2/c1-5(4(8)9)3-6(5,2)7/h3,7H2,1-2H3,(H,8,9)/t5-,6-/m1/s1
