23
gdb 92268	2.22568	1.56698	1.40992	0.1254	90.34	-0.2338	0.0263	0.2602	1122.3117	0.206533	-351.17076	-351.161989	-351.161045	-351.203616	35.07	
C	-1.0178701447	 1.1193872489	 0.0037005047	-0.413273
C	-0.0682058339	-0.0630783502	-0.1221668931	 0.009175
C	 1.2044029583	 0.0955293241	-0.9997225644	-0.253159
C	 2.0570733949	-0.614605585	 0.0902704191	-0.041544
C	 3.2409250252	 0.1858974432	 0.6639133806	-0.282037
C	 2.5826270005	 1.0247498354	 1.7372427162	-0.070458
C	 1.3115484115	 0.6834453766	 1.951984929	-0.124403
C	 0.849846618	-0.4663532694	 1.0869724912	 0.298589
C	 0.3939806466	-1.6717640541	 1.9048662155	-0.472765
H	-0.4845685825	 2.0207455784	 0.3237784629	 0.11567
H	-1.4975707418	 1.3384755647	-0.9570374126	 0.110565
H	-1.8135499533	 0.9236014644	 0.7319663807	 0.108675
H	-0.6318438227	-0.9484855263	-0.4401794816	 0.060804
H	 1.1779423858	-0.3730562371	-1.9867497256	 0.091681
H	 1.4938833599	 1.1439644996	-1.1264158229	 0.095549
H	 2.31170393	-1.6447697955	-0.1684145773	 0.058361
H	 4.024933439	-0.4562725794	 1.0892115453	 0.099802
H	 3.7316742679	 0.7973208144	-0.1051057641	 0.100442
H	 3.1138719486	 1.8044911908	 2.2738773656	 0.088022
H	 0.6638412647	 1.1445375874	 2.6916249013	 0.085951
H	-0.502162243	-1.4359699304	 2.4919654638	 0.111295
H	 0.1499681474	-2.5193430429	 1.2548365928	 0.10895
H	 1.1719080134	-1.9936422475	 2.6059607631	 0.114109
85.3165	196.583	206.0685	224.354	239.2825	273.9353	303.7235	414.8842	433.4986	497.5033	592.981	601.7618	721.1987	762.6401	793.0183	809.1082	883.6129	892.7383	893.4968	936.5876	949.0041	973.5404	986.4796	1024.6009	1043.6964	1088.2615	1102.4006	1118.7265	1151.0595	1165.2723	1181.6512	1208.6888	1228.8267	1239.6192	1263.668	1294.6812	1308.8954	1328.9572	1362.2041	1392.2471	1405.8249	1407.8752	1480.1615	1486.2773	1491.7086	1493.546	1495.3215	1498.116	1676.9053	3005.2165	3017.7857	3021.4859	3026.6476	3033.4074	3046.2474	3077.5546	3081.9713	3085.1416	3092.4063	3095.4301	3103.6048	3166.9037	3193.2884
CC1CC2CC=CC12C	C[C@H]1C[C@H]2CC=C[C@@]12C	
InChI=1S/C9H14/c1-7-6-8-4-3-5-9(7,8)2/h3,5,7-8H,4,6H2,1-2H3	InChI=1S/C9H14/c1-7-6-8-4-3-5-9(7,8)2/h3,5,7-8H,4,6H2,1-2H3/t7-,8+,9-/m0/s1
