15
gdb 44972	2.707	1.86287	1.65173	3.4241	59.62	-0.2624	-0.0006	0.2618	862.2905	0.115093	-494.933621	-494.92721	-494.926266	-494.964399	25.292	
O	-0.0183869193	-0.0069109731	-0.2099627176	-0.334058
C	 0.0069964781	 1.1723414248	-0.0420420465	 0.465741
O	-1.1018629479	 1.953256426	 0.1224388984	-0.22789
C	-0.6299683233	 3.2830214569	 0.3886776095	 0.176717
C	-0.3618991268	 3.4470224853	 1.8869799489	-0.100402
O	 0.5169060626	 2.4303220054	 2.3457256576	-0.259869
C	 1.6544077773	 2.2315906134	 1.5113790064	-0.086044
C	 1.2039159185	 2.1341646401	 0.0520194326	-0.111032
O	 0.5980281743	 3.3818833905	-0.3047415115	-0.256103
H	-1.3442853226	 4.0028215701	-0.013463268	 0.115956
H	 0.0601462545	 4.4507782272	 2.0486887455	 0.109134
H	-1.2828951432	 3.3454599883	 2.4666131557	 0.13254
H	 2.3686389831	 3.0632938749	 1.604486764	 0.112302
H	 2.1265581438	 1.3056966256	 1.8497839182	 0.139213
H	 2.0058011908	 1.8932560846	-0.6449105534	 0.123796
141.4755	242.2992	281.7458	380.2505	435.1635	478.8467	514.3215	660.9746	690.8565	760.358	820.6172	853.9068	882.2831	897.1505	927.9745	993.1686	1022.206	1038.2315	1097.3141	1104.888	1142.3733	1183.805	1224.7763	1267.0372	1302.7157	1313.1294	1360.0483	1366.8246	1379.0221	1411.3934	1478.3418	1488.8087	1914.4196	2996.0728	3001.4674	3104.6163	3106.2217	3119.1185	3135.8189
O=C1OC2COCC1O2	O=C1O[C@H]2COC[C@@H]1O2	
InChI=1S/C5H6O4/c6-5-3-1-7-2-4(8-3)9-5/h3-4H,1-2H2	InChI=1S/C5H6O4/c6-5-3-1-7-2-4(8-3)9-5/h3-4H,1-2H2/t3-,4-/m0/s1
