13
gdb 48533	2.80658	1.5018	1.25778	3.5233	64.47	-0.249	-0.0584	0.1906	979.7107	0.087794	-456.508342	-456.501302	-456.500358	-456.540392	25.978	
O	-0.2079716559	 0.0178195093	 0.0767554619	-0.254702
C	-0.0438100706	 1.204164642	-0.0683508368	 0.021123
C	 1.2553263711	 1.8712922983	 0.028277791	 0.230492
C	 1.7565213807	 3.1927798358	 0.5368335543	 0.051277
O	 2.88266129	 2.6346806853	 1.2088693203	-0.27767
C	 2.7329437216	 1.4623397238	 0.3534555298	-0.144973
C	 3.0730606002	 2.0198512772	-1.0532329821	 0.491275
O	 3.8036387839	 1.6964085141	-1.9391741839	-0.313822
C	 1.8948286322	 2.9594844819	-0.9460941999	-0.302484
H	-0.8892861114	 1.8947525148	-0.2823992283	 0.085924
H	 1.2368781761	 4.0352746476	 0.9749085613	 0.143354
H	 3.113589484	 0.5342430469	 0.7664027762	 0.131515
H	 1.3873669581	 3.5345273828	-1.7080704239	 0.13869
78.2019	143.6787	183.8802	273.6043	418.0945	456.1744	547.1107	622.951	657.0588	694.7287	760.477	815.6818	859.4724	905.0135	927.6349	964.6304	1002.6339	1038.4823	1054.6676	1080.4579	1123.3181	1126.716	1200.3956	1240.6295	1304.1345	1390.9463	1440.5531	1799.1343	1903.5414	2886.0955	3196.6602	3209.1592	3231.2517
O=CC12C3OC1C(=O)C23	O=C[C@@]12[C@H]3O[C@@H]1C(=O)[C@@H]23	
InChI=1S/C6H4O3/c7-1-6-2-3(8)5(6)9-4(2)6/h1-2,4-5H	InChI=1S/C6H4O3/c7-1-6-2-3(8)5(6)9-4(2)6/h1-2,4-5H/t2-,4+,5-,6-/m1/s1
