18
gdb 48210	2.67671	1.24394	0.97699	3.1753	72.86	-0.241	-0.0486	0.1924	1227.8072	0.146455	-439.030381	-439.021424	-439.02048	-439.065049	31.688	
O	-1.074142078	 1.3313574449	-0.3117331401	-0.251892
C	 0.0190063402	 0.9182016542	-0.0006727531	 0.123693
C	 1.2409937873	 1.810239048	 0.122618594	-0.147549
C	 1.5696904545	 2.5617894654	-1.1699270697	 0.016418
C	 1.2299392507	 2.0286594903	-2.5126466677	-0.259125
N	 0.5336162214	 3.2094083977	-1.9784056519	-0.315812
C	 1.0115643741	 2.8042060113	 1.2576335269	 0.100274
C	 1.4425343954	 2.5299557968	 2.6338152673	-0.184019
O	 2.1824167331	 3.4150238466	 1.7877205905	-0.233957
H	 0.1686865421	-0.1587335433	 0.2277320608	 0.097257
H	 2.1053610537	 1.1913965393	 0.3911142657	 0.093361
H	 2.4753982644	 3.1554926548	-1.0627254144	 0.115853
H	 1.8891223054	 2.2182342565	-3.3549843344	 0.120598
H	 0.6838712825	 1.090052259	-2.5723871067	 0.113111
H	-0.3855793942	 2.9311257749	-1.6375951872	 0.250687
H	 0.1736392375	 3.4825167878	 1.0994282925	 0.120491
H	 0.9255378653	 3.0025143323	 3.4669192504	 0.125458
H	 1.9374751347	 1.5878850136	 2.8673568272	 0.115153
61.4458	80.2258	105.3068	162.7522	197.2163	226.0436	322.3333	363.1439	416.2875	502.47	715.6096	785.6097	830.828	868.0295	874.5359	914.7253	940.1435	968.1104	979.1186	1018.1913	1064.5698	1103.5706	1124.4782	1137.7703	1155.6723	1160.2515	1175.7805	1199.7787	1266.9794	1285.5793	1291.523	1319.7704	1336.2477	1399.4756	1424.8688	1430.7413	1515.3856	1527.7866	1800.6189	2899.3711	3043.6619	3085.2879	3106.1154	3122.9397	3127.7253	3174.3273	3189.3487	3484.6055
O=CC(C1CN1)C1CO1	O=C[C@@H]([C@H]1CN1)[C@H]1CO1	
InChI=1S/C6H9NO2/c8-2-4(5-1-7-5)6-3-9-6/h2,4-7H,1,3H2	InChI=1S/C6H9NO2/c8-2-4(5-1-7-5)6-3-9-6/h2,4-7H,1,3H2/t4-,5+,6+/m0/s1
