13
gdb 132758	2.43627	1.80596	1.04382	1.8199	63.04	-0.2717	-0.044	0.2278	1030.1666	0.088365	-502.054087	-502.046547	-502.045602	-502.087242	26.824	
C	-0.0232929476	 1.508394689	 0.0253009857	-0.48824
C	-0.0070184257	 0.0077474782	 0.0082745759	 0.215683
C	 0.024946747	-0.6931903008	-1.1913340585	 0.063418
F	 0.0420253175	-0.055207638	-2.3598360455	-0.049496
C	 0.0385142132	-2.0825461777	-1.1318598972	 0.251807
F	 0.0687677626	-2.7768484779	-2.2547402114	-0.039215
N	 0.0222667898	-2.7401489287	 0.0026133564	-0.303184
C	-0.0083454645	-1.9894970722	 1.107558318	 0.06217
N	-0.023696327	-0.6622378485	 1.1715577783	-0.296851
H	 0.8621442716	 1.9140489109	-0.4750645136	 0.149348
H	-0.8955293184	 1.8954254683	-0.5116549506	 0.149341
H	-0.0484596443	 1.858380676	 1.0571772082	 0.152211
H	-0.0218870541	-2.5251012585	 2.0523864144	 0.133009
34.3507	126.9343	242.2369	264.3694	300.099	324.4849	514.9208	543.1124	560.683	568.5932	626.3956	718.3214	791.3628	877.5305	964.7099	980.7429	1061.1129	1063.2177	1223.0726	1282.9678	1308.9	1339.1104	1407.4191	1463.7387	1478.1581	1479.3318	1509.1641	1607.3763	1637.7261	3045.9671	3101.1708	3158.9341	3181.6514
CC1=C(F)C(F)=NC=N1	Cc1c(F)c(F)ncn1	
InChI=1S/C5H4F2N2/c1-3-4(6)5(7)9-2-8-3/h2H,1H3	InChI=1S/C5H4F2N2/c1-3-4(6)5(7)9-2-8-3/h2H,1H3
