18
gdb 61768	3.64676	0.79729	0.74621	3.7806	73.31	-0.2665	-0.0373	0.2292	1518.7003	0.14437	-439.105261	-439.094925	-439.093981	-439.141639	35.657	
C	-0.0490850784	 1.6126635709	-0.1520728361	-0.415443
C	 0.0311578521	 0.0795679462	-0.0176349454	-0.150495
C	 0.6285954973	-0.5020212568	-1.2246414278	 0.275889
N	 1.0893986595	-0.9619616307	-2.1791828398	-0.316749
C	 0.8209501986	-0.399492746	 1.2367613617	 0.119022
O	 2.138971755	 0.1135559182	 1.2636281427	-0.420826
C	 0.0777509803	-0.1053034063	 2.5475057033	-0.330979
C	 0.8611785748	-0.6298561068	 3.737031649	 0.168522
O	 1.1451056711	 0.0266214179	 4.7029581552	-0.232325
H	 0.9518907985	 2.0444239029	-0.2318087913	 0.143058
H	-0.602328897	 1.887851882	-1.0523755983	 0.149409
H	-0.5612314955	 2.0532617941	 0.7072447503	 0.130937
H	-0.9859487639	-0.325580553	 0.0603005213	 0.127696
H	 0.9471144568	-1.4845823402	 1.1459046985	 0.118271
H	 2.1119429057	 1.0309108499	 1.55750779	 0.294316
H	-0.0921324215	 0.9659687917	 2.6957148749	 0.12423
H	-0.900177569	-0.6064707763	 2.5348960692	 0.129794
H	 1.1591964555	-1.6998025778	 3.6552483626	 0.085672
52.1969	63.7527	76.5245	135.4436	189.9167	210.7842	240.0622	279.0692	326.3315	336.2379	405.2493	458.0548	539.8261	590.57	665.5641	782.2348	806.4188	898.4647	956.4343	1005.9594	1022.3607	1052.5939	1100.0899	1121.0343	1139.2107	1188.7978	1267.8084	1283.7196	1327.664	1340.2412	1380.8588	1407.7606	1423.6633	1430.8779	1459.1954	1495.3319	1505.8797	1841.3203	2360.5405	2878.8582	3022.4036	3035.3044	3048.9709	3053.7305	3091.7644	3130.4731	3134.4521	3807.2835
CC(C#N)C(O)CC=O	C[C@@H](C#N)[C@@H](O)CC=O	
InChI=1S/C6H9NO2/c1-5(4-7)6(9)2-3-8/h3,5-6,9H,2H2,1H3	InChI=1S/C6H9NO2/c1-5(4-7)6(9)2-3-8/h3,5-6,9H,2H2,1H3/t5-,6-/m0/s1
