23
gdb 71244	2.14991	1.99977	1.58394	0.1702	88.86	-0.2572	0.0863	0.3435	1022.0217	0.207254	-351.140914	-351.132851	-351.131907	-351.172587	33.823	
C	-0.0924527013	 1.508254514	 0.0914305928	-0.506018
C	 0.0080757252	 0.0017142062	 0.0458106813	 0.30185
C	 0.8962014653	-0.740136406	-0.996269628	-0.284939
C	 0.8389300683	-1.8891882554	 0.0163035548	-0.062833
C	-0.6740172576	-2.1432681211	 0.4342648525	-0.045579
C	-0.2890455978	-1.755854449	 1.8846528517	-0.288845
C	 0.7499900794	-0.856426195	 1.1930423422	 0.332484
C	 1.9321022594	-0.2512938894	 1.9069434645	-0.510528
C	-1.2947772334	-0.8245651483	-0.0671467216	-0.243155
H	 0.8917722595	 1.9786824977	 0.1905118724	 0.111978
H	-0.5527834793	 1.8969168957	-0.8249845238	 0.114374
H	-0.7087330593	 1.8419247048	 0.9346014366	 0.111861
H	 0.4905130325	-0.8776156665	-2.0046079071	 0.082777
H	 1.9052164658	-0.3220930028	-1.0662099076	 0.090712
H	 1.5206527779	-2.7398326446	 0.0219364304	 0.057885
H	-1.1870249249	-3.0773515548	 0.2067667212	 0.056231
H	-1.0635493831	-1.3138208567	 2.522345809	 0.080457
H	 0.2083418495	-2.5692609687	 2.4239354843	 0.087973
H	 2.4672522685	-1.0069577478	 2.4928118232	 0.112598
H	 2.6494141274	 0.1953411324	 1.2092898076	 0.11465
H	 1.6148220421	 0.5386079799	 2.5986644168	 0.115604
H	-2.1014187211	-0.4715807949	 0.5839339928	 0.084747
H	-1.6718789829	-0.8606740896	-1.0942050661	 0.085716
200.7387	205.6119	206.3324	226.7322	301.9535	336.8024	431.356	452.2167	483.8207	565.8406	617.7308	667.5303	690.5109	807.7447	826.8002	869.7124	877.0321	893.0228	923.6405	941.9595	975.5757	979.137	990.533	1018.3751	1047.5761	1050.1047	1090.4626	1138.1082	1146.1068	1172.3426	1186.7026	1194.3173	1223.8695	1233.9569	1239.3432	1266.9297	1273.0676	1299.7292	1322.087	1345.5923	1409.8595	1414.2912	1484.51	1488.0036	1490.3014	1495.316	1495.6581	1501.974	1519.7859	3017.4974	3019.4776	3025.5573	3033.9558	3041.4764	3078.0504	3079.0353	3080.1602	3083.8883	3086.0145	3088.6207	3092.4856	3108.3804	3118.6798
CC12CC3C(CC13C)C2	C[C@@]12C[C@@H]3[C@@H](C[C@]13C)C2	
InChI=1S/C9H14/c1-8-3-6-4-9(8,2)7(6)5-8/h6-7H,3-5H2,1-2H3	InChI=1S/C9H14/c1-8-3-6-4-9(8,2)7(6)5-8/h6-7H,3-5H2,1-2H3/t6-,7-,8-,9+/m1/s1
