13
gdb 24807	3.67696	1.22894	0.92108	3.8678	78.44	-0.2405	-0.0628	0.1778	1163.1928	0.089261	-419.436237	-419.428921	-419.427977	-419.46817	27.618	
O	-0.042665618	-0.0980230726	 0.0038867717	-0.371923
C	-0.039222203	 1.12391219	 0.009739527	 0.387915
C	-1.2524321592	 1.9486947181	 0.0311488114	-0.263441
C	-1.1758353607	 3.2881266128	 0.0367134485	 0.067254
O	-0.0155674211	 3.9834970623	 0.0236814439	-0.220962
C	 1.1556107214	 3.2794846709	 0.0035697446	 0.227726
C	 1.1879244831	 1.9279162537	-0.0036018624	-0.333888
C	 2.3001593347	 4.1181422511	-0.0084771937	 0.24211
C	 3.2803652381	 4.8149822528	-0.0188891737	-0.358583
H	-2.2187452485	 1.460261033	 0.042482643	 0.129199
H	-2.0237177576	 3.9617955003	 0.0521255548	 0.147627
H	 2.1424170221	 1.4178647842	-0.0196460008	 0.133718
H	 4.1476942487	 5.4289145635	-0.0280916245	 0.213246
126.4223	146.2644	159.5563	353.3594	417.2494	422.4207	471.7001	512.2649	560.5028	620.7043	676.5758	687.4049	735.0118	744.7832	853.0855	905.9691	910.0871	940.6657	971.9799	1061.0557	1174.1009	1227.6609	1271.1341	1369.8932	1421.9814	1615.8094	1669.2081	1751.7272	2239.5015	3210.5723	3224.9917	3229.2847	3498.2521
O=C1C=COC(=C1)C#C	O=c1ccoc(c1)C#C	
InChI=1S/C7H4O2/c1-2-7-5-6(8)3-4-9-7/h1,3-5H	InChI=1S/C7H4O2/c1-2-7-5-6(8)3-4-9-7/h1,3-5H
