17
gdb 14714	9.74423	0.5779	0.55298	5.5765	83.96	-0.2818	-0.0355	0.2463	1934.4015	0.141131	-326.729055	-326.719834	-326.71889	-326.763909	31.564	
C	-0.0512153349	 1.5619725605	 0.0679669366	-0.388749
C	 0.0016475794	 0.033341806	 0.0029203157	-0.164212
C	 0.7147028596	-0.4810045171	-1.2511392262	-0.160461
C	 0.7608914113	-2.0244076793	-1.3038913321	-0.380124
C	 1.4332341333	-2.5349068208	-2.4858053827	 0.054878
C	 1.9969713662	-2.9343644116	-3.4775869217	 0.082978
C	 2.6326548882	-3.3899739122	-4.5960853728	 0.203957
N	 3.1736315034	-3.7780706065	-5.5484045924	-0.339966
H	 0.9557381925	 1.9929751269	 0.0741047483	 0.120315
H	-0.5837594592	 1.9767048966	-0.7946754442	 0.120315
H	-0.5649625339	 1.9021688356	 0.9719640535	 0.11902
H	 0.5101961215	-0.3561615004	 0.8947036413	 0.101313
H	-1.0182462528	-0.3723268187	 0.0322633355	 0.101315
H	 0.2096283991	-0.1090711943	-2.149985457	 0.117101
H	 1.7390945531	-0.0928066954	-1.2870039088	 0.117099
H	 1.2686822126	-2.4105950518	-0.4101215688	 0.147607
H	-0.2603249594	-2.4268730175	-1.2728754742	 0.147613
61.4033	62.4759	106.1088	160.1561	178.8775	243.8731	269.8325	362.0405	370.8835	494.4011	578.3235	582.2251	728.3769	733.2198	787.7885	906.3571	928.7358	998.4524	1059.3215	1118.7663	1126.7841	1173.1985	1237.6615	1275.6164	1308.3381	1329.2383	1352.2077	1393.2367	1410.9328	1462.3831	1485.2415	1496.4897	1498.6169	1510.8386	2264.8733	2401.0852	3014.6246	3017.2766	3032.6359	3040.7982	3042.4969	3048.7966	3084.761	3101.7702	3108.0088
CCCCC#CC#N	CCCCC#CC#N	
InChI=1S/C7H9N/c1-2-3-4-5-6-7-8/h2-4H2,1H3	InChI=1S/C7H9N/c1-2-3-4-5-6-7-8/h2-4H2,1H3
