19
gdb 38357	2.31259	2.12732	1.39388	1.4369	75.75	-0.204	0.0037	0.2077	964.821	0.162196	-419.164839	-419.157513	-419.156569	-419.196367	29.239	
C	-0.1379245425	 1.3768008683	 0.280131373	-0.195538
C	 1.3560844931	 1.7425048707	 0.0403006953	 0.024808
C	 1.620662468	 0.2165944366	 0.1640002966	-0.190032
N	 0.1588593599	-0.0734198936	 0.0864182648	-0.08835
C	-0.2929636727	-0.667460458	-1.1602293173	-0.172929
C	-0.1813191266	 0.1815006431	-2.4323542252	-0.084254
O	 1.1542729501	 0.6005738443	-2.7617319632	-0.236034
C	 1.6070537926	 1.8300065466	-2.3607270342	 0.100092
N	 1.6856864756	 2.3679805664	-1.2229876203	-0.23452
H	-0.4705248026	 1.574733292	 1.305043488	 0.10628
H	-0.8561789728	 1.8255579938	-0.4101300535	 0.10589
H	 1.8020435282	 2.3567979729	 0.8262675483	 0.084005
H	 2.2355069735	-0.2348670002	-0.6168183462	 0.119354
H	 2.021523831	-0.0645236214	 1.1447223402	 0.100568
H	 0.2665655565	-1.5996243516	-1.3014087937	 0.114958
H	-1.3522790438	-0.9480530544	-1.064745764	 0.102991
H	-0.5142662484	-0.4176674492	-3.286645077	 0.114782
H	-0.8271264323	 1.0651212673	-2.3800991672	 0.111602
H	 2.004987733	 2.3742000165	-3.2200678243	 0.116328
121.3881	192.2058	259.2078	295.7899	314.4732	387.5072	430.9078	547.0487	569.9112	702.1998	758.9983	794.793	814.767	837.6253	861.2738	920.9108	956.3513	969.0994	997.7345	1032.7342	1035.3345	1100.9276	1115.7932	1128.2014	1158.9329	1193.3735	1242.1358	1282.7018	1286.9092	1296.5977	1321.0089	1326.3999	1375.9735	1391.2361	1408.0006	1429.6129	1468.1737	1480.1509	1498.0921	1514.0658	1734.4506	3001.4625	3029.956	3033.0278	3039.7883	3061.1413	3069.9638	3084.1368	3100.3874	3109.3626	3113.6935
C1C2CN1CCOC=N2	C1[C@H]2CN1CCOC=N2	
InChI=1S/C6H10N2O/c1-2-9-5-7-6-3-8(1)4-6/h5-6H,1-4H2/b7-5-	InChI=1S/C6H10N2O/c1-2-9-5-7-6-3-8(1)4-6/h5-6H,1-4H2/b7-5-
