15
gdb 21992	3.9907	1.11831	0.87429	2.8223	77.67	-0.1814	-0.0097	0.1717	1239.6784	0.113473	-453.929909	-453.921875	-453.920931	-453.962234	30.854	
N	 0.0307515437	 1.3634514798	 0.1595072674	-0.570803
C	-0.0621096378	-0.01351185	 0.086344723	 0.428225
C	-1.1827246818	-0.7459245018	-0.075814169	-0.307936
C	-1.1355208438	-2.1923048861	-0.0390801575	 0.367115
C	 0.1981383545	-2.7498933656	 0.1616129445	-0.232445
C	 1.247877561	-1.9352882019	 0.2954606998	 0.045906
O	 1.1705834292	-0.5720909667	 0.2674840668	-0.234948
N	-2.2306999488	-2.8652923674	-0.1878726554	-0.274664
O	-1.9784572235	-4.2577421115	-0.1294537253	-0.409235
H	 0.9156348019	 1.7278627551	-0.1658872918	 0.259155
H	-0.7590830085	 1.8531712954	-0.2335863524	 0.262162
H	-2.1343540098	-0.2527035731	-0.2273071888	 0.097942
H	 0.3360979645	-3.8200858538	 0.1973325157	 0.132771
H	 2.271375311	-2.2539766289	 0.4432414697	 0.136036
H	-2.8614864118	-4.6190663835	-0.2492143168	 0.30072
119.0454	171.9125	227.6342	274.4826	289.7762	367.3345	380.0988	407.1364	447.3473	542.3157	593.5474	649.1055	674.5243	708.91	785.1272	823.5128	838.9173	891.0532	948.1779	952.363	978.9516	1066.2109	1130.4003	1248.9854	1276.2727	1297.4493	1379.0802	1420.7709	1450.9779	1626.5415	1650.1747	1676.835	1745.9874	3211.9222	3224.4704	3256.1178	3564.287	3672.9534	3838.0452
NC1=CC(C=CO1)=NO	Nc1cc(=NO)cco1	
InChI=1S/C5H6N2O2/c6-5-3-4(7-8)1-2-9-5/h1-3,8H,6H2	InChI=1S/C5H6N2O2/c6-5-3-4(7-8)1-2-9-5/h1-3,8H,6H2
