16
gdb 123429	5.36144	0.92088	0.81822	4.1197	70.68	-0.264	-0.038	0.2261	1342.6392	0.124958	-434.015426	-434.007662	-434.006717	-434.048906	28.164	
C	 0.1784300052	 1.2119240705	 0.6713380511	-0.363841
C	-0.0475887886	-0.135709084	 0.0212160324	 0.030973
C	-1.4171169262	-0.5988416256	-0.3024654651	-0.249765
N	-0.4852046068	-0.2237984312	-1.3819339606	-0.311122
C	 1.4483782589	 1.856607291	 0.2178637438	 0.408525
C	 2.3282882695	 1.5838656848	-0.7861062392	-0.194494
N	 3.3176752029	 2.5362187067	-0.7207375042	-0.11026
N	 3.1076855493	 3.3393444517	 0.2187196494	-0.012117
O	 1.8837882809	 2.932546905	 0.8705497335	-0.220959
H	-0.6628838437	 1.8832280332	 0.45105922	 0.131827
H	 0.2055414472	 1.109167962	 1.7632120085	 0.145
H	 0.6979013879	-0.8850358923	 0.2799074635	 0.10894
H	-1.6603374693	-1.6558638322	-0.2526352015	 0.12872
H	-2.2463252942	 0.0668481127	-0.0756967789	 0.117377
H	-0.7208747253	 0.7028122228	-1.7311812935	 0.233845
H	 2.321460182	 0.8048727148	-1.5283046993	 0.157353
54.3118	73.5313	131.8428	256.0395	307.2316	346.9529	446.2216	617.0395	661.6506	702.7532	726.7221	797.4292	831.4519	839.9914	928.8999	942.8942	982.2978	991.8169	1050.3864	1050.7746	1120.0594	1129.8365	1152.4311	1179.5894	1222.6737	1251.6498	1267.3081	1309.7563	1310.4019	1387.2474	1434.2039	1459.0651	1465.3797	1514.9325	1600.9825	3019.4967	3058.4123	3110.7517	3130.6452	3197.2199	3298.4717	3489.6771
C(C1CN1)C1=CN=NO1	C([C@H]1CN1)c1cnno1	
InChI=1S/C5H7N3O/c1(4-2-6-4)5-3-7-8-9-5/h3-4,6H,1-2H2	InChI=1S/C5H7N3O/c1(4-2-6-4)5-3-7-8-9-5/h3-4,6H,1-2H2/t4-/m0/s1
