16
gdb 44123	2.43314	1.61158	1.31972	5.618	71.88	-0.2531	-0.0296	0.2234	1002.5462	0.12516	-400.785244	-400.777667	-400.776722	-400.817815	28.718	
O	-0.0160526492	 0.41538209	-0.8964104685	-0.29274
C	-0.0204478583	 1.4043347383	-0.2180102536	 0.404262
C	-1.2809781821	 2.1119826181	 0.3186045524	-0.349833
C	-0.7873037055	 3.3405619072	 1.0529253181	-0.064157
C	 0.7270899815	 3.3613377483	 1.0324505411	-0.064155
C	 1.2342440316	 2.1464847696	 0.2846032842	-0.349831
C	-0.0553664914	 4.4099214646	 0.2492204794	-0.188748
C	-0.0746100444	 4.3953647764	-1.1861889667	 0.295404
N	-0.0896767369	 4.3666733662	-2.343092682	-0.341284
H	-1.9632964174	 2.3212942639	-0.5107237022	 0.156944
H	-1.8001182652	 1.4274064488	 0.9983827667	 0.13975
H	-1.334446268	 3.6919471829	 1.9191747138	 0.109854
H	 1.2875957791	 3.7279086267	 1.8837344249	 0.109857
H	 1.7901388873	 1.4766550219	 0.9498540688	 0.13975
H	 1.8879087382	 2.3741148305	-0.5627820174	 0.156947
H	-0.0632743794	 5.4072654066	 0.6760248713	 0.137979
61.9887	130.3541	141.0324	327.8284	357.1466	457.2159	465.1218	552.5304	572.144	622.3702	707.9632	752.6648	764.3229	789.5497	820.2568	904.1528	957.9826	981.8139	1021.201	1043.4212	1068.3863	1106.861	1134.6496	1169.1753	1189.6481	1219.4623	1279.1071	1281.1269	1346.8246	1357.1275	1399.6382	1444.756	1453.1972	1858.9119	2349.165	3054.0958	3056.4024	3098.2866	3098.5523	3168.4781	3181.9252	3192.0504
O=C1CC2C(C1)C2C#N	O=C1C[C@H]2[C@@H](C1)[C@H]2C#N	
InChI=1S/C7H7NO/c8-3-7-5-1-4(9)2-6(5)7/h5-7H,1-2H2	InChI=1S/C7H7NO/c8-3-7-5-1-4(9)2-6(5)7/h5-7H,1-2H2/t5-,6+,7-
