21
gdb 62712	3.67044	1.41484	1.18778	1.5857	81.88	-0.2331	0.0891	0.3222	1106.5389	0.183425	-387.048499	-387.040623	-387.039678	-387.080293	32.142	
C	-0.1243865078	 1.5403842213	 0.0045441754	-0.457204
C	-0.0227335323	 0.0130609952	 0.0006531101	 0.333898
C	-1.3995638855	-0.5654094584	-0.3442264174	-0.462265
C	 1.2235509699	-0.6299876572	-0.6849087487	-0.1292
C	 2.1265505796	-0.1789705518	 0.5184289127	-0.066352
C	 3.1458778275	-1.28423595	 0.7450217914	-0.115521
O	 2.3358316167	-2.4486829314	 0.5267362199	-0.287843
C	 1.0740753984	-1.8845597361	 0.2312135091	 0.143792
C	 0.776561466	-0.6644713578	 1.1577247007	-0.12922
H	 0.8148802978	 2.0432125119	 0.2416786128	 0.112537
H	-0.4546858905	 1.902987234	-0.9758236702	 0.113547
H	-0.8699965864	 1.8710008981	 0.736977618	 0.113548
H	-1.7301450706	-0.2043740492	-1.3250617588	 0.114215
H	-1.425233973	-1.6563177496	-0.3703609415	 0.115529
H	-2.1460393814	-0.2356362648	 0.3876802183	 0.114207
H	 1.4928442327	-0.6147922519	-1.7433234093	 0.064136
H	 2.4603624377	 0.8508575847	 0.61868416	 0.072088
H	 3.9779628279	-1.2620254986	 0.02959512	 0.100333
H	 3.5576137684	-1.2944370511	 1.7624015855	 0.100333
H	 0.3543001439	-2.6756142489	 0.0417975883	 0.085304
H	 0.531031161	-0.6889957583	 2.2217285737	 0.064138
151.3182	203.48	205.8092	266.8985	284.5517	336.4897	389.496	482.1763	502.1883	576.229	731.8886	763.1114	767.6361	773.5086	872.8625	909.2729	949.9557	957.2807	974.8617	977.8908	978.508	987.8886	1007.5267	1053.012	1066.6201	1113.1068	1128.9023	1150.9476	1157.8653	1181.4547	1194.6176	1202.6117	1233.5676	1235.8939	1290.5304	1326.9741	1332.2152	1393.6783	1413.0412	1431.1858	1482.2523	1491.4572	1508.6529	1512.5939	1521.7684	3012.8204	3027.7364	3033.5052	3049.0384	3080.0237	3086.0121	3086.2436	3090.1124	3123.3112	3125.2263	3154.1273	3172.3093
CC1(C)C2C3COC2C13	CC1(C)[C@H]2[C@@H]3CO[C@H]2[C@H]13	
InChI=1S/C8H12O/c1-8(2)5-4-3-9-7(5)6(4)8/h4-7H,3H2,1-2H3	InChI=1S/C8H12O/c1-8(2)5-4-3-9-7(5)6(4)8/h4-7H,3H2,1-2H3/t4-,5-,6+,7+
