21
gdb 117185	2.65559	0.8994	0.70244	3.5521	77.29	-0.2422	-0.0128	0.2293	1658.7584	0.177713	-461.351941	-461.340656	-461.339711	-461.389789	38.317	
C	-0.8825596264	 0.9374525104	-0.2984514008	-0.223193
O	 0.2086131104	 0.0659007301	-0.1200556096	-0.215672
C	 0.2163508249	-0.9802661476	-1.0439269788	-0.154046
C	 1.4009974087	-1.8965121101	-0.7742405821	 0.325938
O	 2.1623744471	-1.7315217081	 0.1450251881	-0.291217
C	 1.6089190136	-3.0508523366	-1.7701367519	 0.031814
C	 2.0267053092	-4.331705096	-1.0457709021	-0.401023
O	 0.427082077	-3.1917620976	-2.5385499188	-0.248579
C	 0.5888904118	-3.8925828297	-3.7520496658	-0.237668
H	-0.870207067	 1.4127105174	-1.2924806195	 0.102786
H	-1.8464688507	 0.4170444526	-0.1808389045	 0.104212
H	-0.8042869374	 1.7143245864	 0.465544354	 0.131701
H	-0.7039252696	-1.5879806563	-0.9999796136	 0.12202
H	 0.2791175134	-0.6199821474	-2.0860510936	 0.109713
H	 2.4348747726	-2.7224530171	-2.4279617618	 0.09582
H	 1.1859854016	-4.7259722542	-0.4671289916	 0.127109
H	 2.3588883516	-5.0998263375	-1.7484821957	 0.114698
H	 2.8457020505	-4.1027642662	-0.361254911	 0.150029
H	 0.8380725399	-4.9509536062	-3.5947169522	 0.115704
H	-0.3632230764	-3.8349378628	-4.2849339375	 0.131579
H	 1.3743572054	-3.4399778934	-4.3770296913	 0.108275
31.3648	73.8941	86.7999	110.1718	125.2234	191.116	214.4137	237.2336	244.4214	289.8573	338.6679	380.1919	412.632	473.2159	539.6948	667.3099	820.6918	880.4588	947.5312	977.1804	1045.8809	1087.1397	1102.0437	1142.1958	1173.1966	1178.8255	1183.1537	1186.0473	1223.6926	1241.3724	1247.2787	1329.4074	1359.7278	1391.8674	1403.3489	1458.3056	1477.8559	1484.6053	1486.6278	1487.9065	1493.5677	1501.0118	1511.2686	1512.672	1829.2052	2938.303	2955.1276	2970.097	2978.5245	2982.253	3011.8458	3037.7814	3051.2689	3116.24	3117.8573	3123.058	3144.5715
COCC(=O)C(C)OC	COCC(=O)[C@@H](C)OC	
InChI=1S/C6H12O3/c1-5(9-3)6(7)4-8-2/h5H,4H2,1-3H3	InChI=1S/C6H12O3/c1-5(9-3)6(7)4-8-2/h5H,4H2,1-3H3/t5-/m1/s1
