14
gdb 20651	3.34832	2.0889	1.29678	4.8535	67.01	-0.257	-0.0479	0.2091	886.1429	0.108254	-378.762564	-378.755548	-378.754604	-378.793867	25.372	
C	-0.0288505068	 1.5100880254	 0.0437109913	-0.506676
C	-0.0110912518	 0.0184120994	-0.0522902251	 0.403149
C	-0.029214716	-0.7959441234	-1.1516309342	-0.318101
C	 0.0026720543	-2.1223677373	-0.6371317412	 0.027579
N	 0.0380728179	-2.1500700356	 0.6771263038	-0.228349
N	 0.0298514911	-0.8325203695	 1.0430566861	-0.089275
C	 0.0609577813	-0.4582240067	 2.3927943022	 0.183321
O	 0.096378045	-1.218786463	 3.3165502617	-0.257837
H	 0.8643707258	 1.9041707781	 0.5404068384	 0.147841
H	-0.0628713153	 1.9326450036	-0.9625141746	 0.146213
H	-0.9032241482	 1.8800132597	 0.5900104673	 0.147817
H	-0.0610720437	-0.4832858115	-2.1832288723	 0.115903
H	 0.0006459133	-3.0516508476	-1.1894923584	 0.128075
H	 0.049053943	 0.6404522985	 2.4972873649	 0.10034
133.6107	179.014	206.4004	224.4953	304.5264	338.1821	556.5068	639.1307	647.2454	667.8428	817.1271	844.8126	917.0055	923.0931	1002.3488	1027.065	1051.8484	1065.6148	1118.0704	1237.2686	1303.9816	1352.3081	1383.5338	1419.1171	1460.2643	1484.7136	1494.8787	1499.1653	1619.3458	1846.8126	2991.3154	3036.698	3089.9079	3130.086	3238.6653	3266.1125
CC1=CC=NN1C=O	Cc1ccnn1C=O	
InChI=1S/C5H6N2O/c1-5-2-3-6-7(5)4-8/h2-4H,1H3	InChI=1S/C5H6N2O/c1-5-2-3-6-7(5)4-8/h2-4H,1H3
