19
gdb 71044	3.04614	2.10498	1.632	1.5021	84.34	-0.1925	-0.0171	0.1754	884.6894	0.160578	-348.65799	-348.651318	-348.650374	-348.68833	28.981	
C	 0.0987360706	 1.4215553534	-0.1111169875	-0.478307
C	-0.042138896	-0.0847910355	-0.0033302081	 0.347107
C	-0.0838748594	-0.9329544105	-1.3560526575	-0.314469
C	-0.9050042535	-1.8776278152	-0.4711550248	 0.000239
C	-0.1567054092	-2.7700891762	 0.2211999524	-0.105866
C	 0.1310636183	-2.1857721093	 1.5421158609	-0.084662
C	-0.7979441277	-1.0423335742	 1.8513467677	-0.088916
C	 0.5760119659	-0.6894465367	 1.3131211997	-0.142778
C	-1.3769659087	-0.7444973429	 0.4639372939	-0.101165
H	 1.1308633187	 1.7080870345	-0.3454252972	 0.118232
H	-0.5462458463	 1.815082332	-0.9041306334	 0.115131
H	-0.1783982808	 1.9115463236	 0.8282461169	 0.121595
H	-0.6260174348	-0.3527536259	-2.1132602082	 0.094751
H	 0.840638051	-1.3302693367	-1.780425239	 0.101258
H	 0.5660849386	-3.4227926598	-0.2607555919	 0.091415
H	 0.6319045424	-2.7039600809	 2.353070234	 0.086249
H	-1.238988569	-0.8637384661	 2.8223494722	 0.088353
H	 1.4381471256	-0.2998357284	 1.8394164571	 0.086439
H	-2.3414330658	-0.2674509851	 0.2982878428	 0.065395
233.8176	236.9109	274.1715	366.0355	451.5197	512.5615	563.0959	666.2996	685.984	707.0989	752.5874	789.2301	799.3504	813.4539	851.0098	882.0313	905.4374	927.5312	948.0311	962.6568	1002.4697	1016.6211	1026.3549	1050.2507	1067.1544	1082.1831	1092.8292	1151.9965	1174.9384	1190.4843	1213.1385	1234.0708	1248.3663	1290.4229	1328.1173	1353.6773	1403.7244	1487.7743	1489.4118	1497.4723	1567.5422	3020.1031	3023.8326	3085.9772	3096.955	3108.021	3122.926	3157.7079	3171.7191	3191.8934	3208.6059
CC12CC3=CC4C(C14)C23	C[C@@]12C[C]3[CH][C@@H]4[C@@H]([C@H]14)[C@@H]23	
InChI=1S/C9H10/c1-9-3-4-2-5-6(7(4)9)8(5)9/h2,5-8H,3H2,1H3	InChI=1S/C9H10/c1-9-3-4-2-5-6(7(4)9)8(5)9/h2,5-8H,3H2,1H3/t5-,6-,7+,8-,9+/m1/s1
