16
gdb 46251	3.16636	1.47842	1.23782	3.8843	69.64	-0.2575	0.0169	0.2743	1014.267	0.124455	-437.831547	-437.824232	-437.823287	-437.863604	27.946	
N	 0.0094971085	 1.2118181966	-0.3192264469	-0.534721
C	 0.0096852861	-0.0080882393	-0.0383383206	 0.387052
O	 1.0365911176	-0.8338861693	 0.3912042797	-0.263443
C	 0.1301565495	-1.9714169156	 0.5099043866	-0.147615
C	-1.0327789307	-1.1046240628	-0.0121028498	 0.186563
C	-2.3998492782	-1.0222049602	 0.7455102488	-0.338899
C	-3.089638596	-1.4862638772	-0.5476255165	 0.035208
O	-2.7682969405	-0.5238550967	-1.5546965405	-0.221749
C	-1.8083568956	-1.5366280142	-1.2707053164	-0.047454
H	 0.9386021822	 1.6211862416	-0.2057583048	 0.229006
H	 0.4489960575	-2.7983734832	-0.1312327698	 0.120787
H	 0.050733692	-2.3045657149	 1.5483176977	 0.12115
H	-2.4566809875	-1.7446574155	 1.5638741626	 0.112311
H	-2.6946329525	-0.0313824091	 1.0956043012	 0.138039
H	-4.0001642688	-2.0586649299	-0.6749350293	 0.112702
H	-1.4579442535	-2.1503052405	-2.0931399219	 0.111063
109.2604	115.0792	173.6178	309.9289	329.9858	443.2737	451.3936	590.5389	680.1373	765.4774	795.9136	845.2339	859.4725	861.7026	885.5553	899.4015	955.481	977.744	993.8871	1001.2966	1038.1781	1095.2079	1135.2715	1161.7934	1175.495	1187.3752	1228.9374	1241.3567	1257.7393	1287.996	1367.7002	1385.7983	1465.5997	1513.1441	1825.6478	3050.0258	3069.6533	3107.1237	3134.3126	3179.6618	3201.4651	3475.4284
N=C1OCC11CC2OC12	[NH][C]1OC[C@]21C[C@H]1O[C@@H]21	
InChI=1S/C6H7NO2/c7-5-6(2-8-5)1-3-4(6)9-3/h3-4,7H,1-2H2	InChI=1S/C6H7NO2/c7-5-6(2-8-5)1-3-4(6)9-3/h3-4,7H,1-2H2/t3-,4-,6-/m1/s1
