22
gdb 122385	4.20989	0.76706	0.76249	1.1003	83.12	-0.2352	0.0867	0.3219	1620.7309	0.193956	-404.281255	-404.271868	-404.270924	-404.316768	34.346	
C	 0.5529464501	 1.0422608441	 0.2985661006	-0.23462
O	 0.9090374518	 0.4057377397	-0.9070011419	-0.229478
C	-0.0640567649	-0.4930526218	-1.400022076	-0.063848
C	-0.04164161	-1.8521175908	-0.6900430735	-0.163517
N	-1.0249490436	-2.7267795713	-1.3127955724	-0.076417
C	-0.7267049148	-3.5795818012	-2.4458445391	-0.040671
C	 0.6765027599	-4.2142166647	-2.3789220745	-0.244789
C	 0.3175078058	-4.8028543088	-0.9779912959	-0.242552
C	-1.0767281024	-4.1533200722	-1.091150539	-0.040958
H	-0.407375049	 1.5738906884	 0.2074762629	 0.104422
H	 0.4783363873	 0.3434864498	 1.1449045717	 0.105308
H	 1.3375283334	 1.7699467632	 0.5217327976	 0.126024
H	-1.0740661202	-0.0599384616	-1.3375091336	 0.094603
H	 0.1675437619	-0.6397215425	-2.4608664016	 0.106802
H	 0.9898149692	-2.2325844793	-0.7078782048	 0.099075
H	-0.3265160632	-1.7381509807	 0.3618980944	 0.10107
H	-1.3350738125	-3.4787415647	-3.3384383987	 0.090515
H	 0.8070275942	-4.9956369215	-3.1304452171	 0.106449
H	 1.528602251	-3.5305604407	-2.4400084961	 0.105141
H	 0.2674763389	-5.8936208648	-0.9905138972	 0.105934
H	 0.9305326776	-4.4930005945	-0.1264466075	 0.101668
H	-2.0069656406	-4.5829343042	-0.7337088983	 0.089838
43.2375	56.094	109.1808	131.9115	208.4998	267.5583	297.2606	358.238	433.9054	466.4896	553.085	741.3863	782.2237	792.8542	809.1366	834.8662	912.7285	945.5958	948.2667	967.8529	984.7518	1038.1239	1058.446	1068.6525	1101.2972	1119.1537	1134.9912	1177.0409	1183.9448	1218.4691	1222.8475	1226.002	1249.9284	1276.6778	1282.687	1286.9202	1324.3429	1347.6014	1387.4802	1419.761	1473.1097	1477.6437	1491.3136	1493.8746	1499.8688	1509.7294	1516.0469	2975.2512	2991.9426	3006.3395	3024.0225	3054.0643	3055.4658	3061.9106	3076.525	3103.481	3109.148	3120.6507	3157.4049	3169.7339
COCCN1C2CCC12	COCCN1[C@H]2CC[C@@H]12	
InChI=1S/C7H13NO/c1-9-5-4-8-6-2-3-7(6)8/h6-7H,2-5H2,1H3	InChI=1S/C7H13NO/c1-9-5-4-8-6-2-3-7(6)8/h6-7H,2-5H2,1H3/t6-,7+,8?
