18
gdb 128841	6.14413	0.69451	0.65184	2.3519	74.41	-0.2581	0.0114	0.2694	1697.7968	0.149197	-435.283151	-435.274242	-435.273298	-435.318584	30.74	
C	-0.0368647051	 1.371797548	-0.0602868438	-0.23102
O	-0.0244881096	-0.0347493328	 0.0093889119	-0.232735
C	 0.6797144456	-0.519974539	 1.1288189873	-0.044125
C	 0.642795714	-2.0475751284	 1.0704821546	-0.337254
C	 1.394333745	-2.6681799629	 2.2014077327	 0.377118
N	 2.6289439092	-2.3813038564	 2.5850314463	-0.313341
C	 2.8284688336	-3.2188484651	 3.6398452306	 0.026319
N	 1.8086043571	-4.0047301912	 3.9395071477	-0.215409
N	 0.8979043304	-3.6333663381	 3.0063457363	-0.243325
H	 0.9808475911	 1.7856584785	-0.1348196565	 0.108992
H	-0.5983593734	 1.6495429042	-0.9554279743	 0.128445
H	-0.5251918559	 1.820118374	 0.8194736947	 0.105293
H	 1.72451121	-0.175345095	 1.1257568885	 0.120164
H	 0.2206463696	-0.1620715292	 2.0659756	 0.09149
H	-0.398724256	-2.3859755903	 1.0751923475	 0.11263
H	 1.0780890227	-2.3657932903	 0.1164258045	 0.143492
H	 3.7500816972	-3.2495686054	 4.2016819144	 0.125437
H	-0.0064009556	-4.0759661507	 2.9852854376	 0.277826
30.7666	81.6419	98.58	109.6441	230.3156	264.1529	323.4944	334.9844	467.5114	565.8802	699.0404	710.0602	781.1509	805.1495	912.633	981.9039	995.421	1047.9674	1060.245	1069.5295	1131.4961	1163.8251	1180.0274	1213.3819	1217.8028	1229.7656	1266.7353	1304.5795	1308.2726	1342.8058	1419.339	1422.18	1478.9285	1482.865	1485.9143	1504.0006	1507.3903	1532.9171	1587.4621	2961.7223	2975.0458	3014.2046	3018.6667	3044.6555	3088.4153	3116.2278	3260.4767	3660.623
COCCC1=NC=NN1	COCCc1ncn[nH]1	
InChI=1S/C5H9N3O/c1-9-3-2-5-6-4-7-8-5/h4H,2-3H2,1H3,(H,6,7,8)	InChI=1S/C5H9N3O/c1-9-3-2-5-6-4-7-8-5/h4H,2-3H2,1H3,(H,6,7,8)
