25
gdb 122678	4.88756	0.6231	0.57623	1.0331	90.15	-0.2491	0.0803	0.3294	2015.2999	0.229671	-389.501264	-389.490883	-389.489938	-389.53842	37.106	
C	-0.1366120097	 1.4282473269	-0.0533910341	-0.226542
O	-0.0902024669	 0.0237111708	-0.0337761379	-0.229212
C	 0.6521168517	-0.5174139403	-1.1062374715	-0.054137
C	 0.6460370963	-2.0360264187	-0.983115166	-0.220976
C	 1.3635501061	-2.7502686843	-2.1303869446	 0.046093
C	 2.8838300991	-2.485819526	-2.2232747483	-0.201344
C	 3.479489309	-3.6947785352	-2.9976306777	-0.206308
C	 2.3424107093	-4.7513191604	-3.0788553548	-0.205496
C	 1.2924383997	-4.2855474097	-2.057059334	-0.210862
H	 0.8689075341	 1.8740011738	 0.0187119906	 0.100334
H	-0.6120356032	 1.811088145	-0.9712560693	 0.1001
H	-0.7265593192	 1.7505937186	 0.808421544	 0.12431
H	 0.209583724	-0.2095378653	-2.0708742242	 0.079451
H	 1.6838631138	-0.1264811362	-1.0892111567	 0.084851
H	 1.1091020407	-2.3132349816	-0.0272493521	 0.099495
H	-0.3983373918	-2.3670558858	-0.932599421	 0.100759
H	 0.9001709754	-2.4401078852	-3.0795680332	 0.064879
H	 3.1182046746	-1.5296748309	-2.6995444015	 0.093525
H	 3.3008911845	-2.4430838057	-1.2092693997	 0.094529
H	 3.8187032237	-3.405947913	-3.9965206617	 0.096399
H	 4.3555341801	-4.0931490753	-2.4776312777	 0.098234
H	 1.9015638458	-4.7524426215	-4.082115474	 0.096048
H	 2.6974253337	-5.7680981782	-2.88929767	 0.092903
H	 1.5718333907	-4.6127052687	-1.0462057737	 0.092326
H	 0.2906401486	-4.6776159729	-2.2586376708	 0.090639
32.1785	62.3903	83.322	99.5446	128.921	203.5791	237.6622	277.4317	304.8972	417.1376	481.9529	585.9657	626.4804	767.4168	798.7674	828.3511	870.9901	896.3573	943.1951	949.9896	987.611	990.8762	1025.9827	1045.988	1058.3659	1109.3488	1122.7319	1163.8792	1179.797	1204.5239	1208.9151	1220.8707	1229.4978	1254.7508	1271.5722	1292.8947	1303.3707	1314.2908	1323.4084	1341.6869	1344.6416	1360.5017	1392.6983	1427.4887	1482.1058	1485.6633	1487.0083	1489.2416	1495.2592	1498.1	1505.4977	1519.5219	1532.6836	2938.3269	2964.3135	2970.7882	2984.6694	3004.7024	3016.6072	3024.3413	3029.397	3038.0922	3055.0091	3067.1395	3073.2421	3081.1968	3086.9272	3102.122	3109.7216
COCCC1CCCC1	COCCC1CCCC1	
InChI=1S/C8H16O/c1-9-7-6-8-4-2-3-5-8/h8H,2-7H2,1H3	InChI=1S/C8H16O/c1-9-7-6-8-4-2-3-5-8/h8H,2-7H2,1H3
