15
gdb 75851	3.23266	1.38715	0.98251	2.9608	75.52	-0.245	-0.0659	0.1791	1128.2083	0.113568	-413.02201	-413.013538	-413.012594	-413.056088	29.592	
C	-0.0510952839	 1.4559257744	 0.0095699302	-0.346051
N	 0.0008612301	 0.0074678796	-0.0006842444	-0.121454
C	-1.1326656616	-0.8062905051	 0.0031775032	 0.338593
N	-2.3066969631	-0.3227945377	 0.0139301651	-0.547406
C	-0.5618936888	-2.2248833276	-0.0083823122	-0.281958
N	 0.8985648332	-2.0874940551	-0.0164922167	-0.30465
C	 1.1117388006	-0.8221886156	-0.0113833568	 0.302775
C	 2.4309891241	-0.2515198803	-0.0166502794	 0.272386
N	 3.4776111608	 0.2378866246	-0.0207109175	-0.323866
H	 0.9643494488	 1.8539555526	-0.000342901	 0.159975
H	-0.5961885095	 1.8173287254	-0.8668611274	 0.157316
H	-0.574556179	 1.8064296287	 0.903532845	 0.15696
H	-3.0066571794	-1.0629471289	 0.0147374822	 0.228095
H	-0.8807039743	-2.79545917	 0.8714997259	 0.154625
H	-0.891272648	-2.7851531549	-0.8910233764	 0.15466
39.2901	103.4879	152.7491	165.1512	197.1953	288.7338	413.5292	432.0881	528.4262	548.5571	597.0797	694.4619	719.8115	729.2376	835.4988	948.7943	980.2213	1023.782	1031.6666	1158.7521	1166.6498	1186.202	1221.9898	1292.0749	1365.9807	1424.8187	1444.2604	1472.1609	1472.6835	1520.8151	1648.4094	1742.3603	2367.7851	3043.6036	3049.5756	3076.0544	3112.2213	3153.4288	3501.1446
CN1C(=N)CN=C1C#N	CN1[C]([NH])CN=C1C#N	
InChI=1S/C5H6N4/c1-9-4(7)3-8-5(9)2-6/h7H,3H2,1H3	InChI=1S/C5H6N4/c1-9-4(7)3-8-5(9)2-6/h7H,3H2,1H3
