19
gdb 91568	2.86451	1.28844	1.05957	4.0148	79.84	-0.2215	0.0306	0.2521	1180.6853	0.159097	-382.039661	-382.030897	-382.029953	-382.073389	32.739	
C	-0.2834906307	 1.3759747748	-0.1461385637	-0.344203
N	 0.1136837323	-0.0230203696	-0.1299629018	-0.121838
C	 1.3385064515	-0.4340517919	-0.875031091	-0.175911
C	 1.8776507179	-1.1088814189	 0.3882542958	-0.1566
C	 1.9980822626	-0.0785655109	 1.4881959727	-0.324821
C	 0.638326436	-0.6040528248	 1.1059744944	 0.379443
C	-0.2961968842	-1.3045293521	 2.0654076667	-0.428499
C	-1.0721194218	-0.3671127636	 2.882738959	 0.267787
N	-1.6782946015	 0.3859602163	 3.5160239385	-0.315864
H	 0.519620152	 2.0758246747	 0.1421648381	 0.098205
H	-0.6185079008	 1.6424782998	-1.1537144212	 0.121986
H	-1.1231945736	 1.5228797236	 0.5390084203	 0.145266
H	 1.1057370725	-1.1118993085	-1.7023599738	 0.111649
H	 1.9487986422	 0.3970735948	-1.2536262505	 0.099701
H	 2.3451087678	-2.0834170438	 0.4404986289	 0.099119
H	 2.3946774731	-0.4494937082	 2.4283434981	 0.118362
H	 2.2876455995	 0.9422851706	 1.2545498429	 0.116706
H	-0.9929935765	-1.9358451895	 1.5030117423	 0.158387
H	 0.2753133917	-1.9563962527	 2.7352610943	 0.151125
54.2565	102.9647	187.9597	202.4472	253.8587	292.3195	363.9138	388.6573	413.8684	462.6575	507.0975	673.2535	734.4974	820.3191	844.3928	892.6449	928.3815	938.3961	959.8471	970.0702	1020.8065	1028.2385	1075.0378	1097.8333	1119.6451	1164.6704	1182.1475	1214.8521	1226.6012	1265.9088	1279.8547	1321.3425	1336.8817	1386.5861	1446.0869	1452.587	1482.2961	1489.694	1503.0562	1514.952	2359.5194	2958.6568	3010.5782	3044.1574	3068.3551	3069.8778	3088.1523	3114.4396	3117.4174	3197.5805	3205.9984
CN1CC2CC12CC#N	CN1C[C@H]2C[C@@]12CC#N	
InChI=1S/C7H10N2/c1-9-5-6-4-7(6,9)2-3-8/h6H,2,4-5H2,1H3	InChI=1S/C7H10N2/c1-9-5-6-4-7(6,9)2-3-8/h6H,2,4-5H2,1H3/t6-,7-/m1/s1
