14
gdb 46482	3.0826	1.52212	1.10742	6.0551	63.63	-0.253	-0.0892	0.1638	1031.8493	0.101266	-473.832676	-473.825157	-473.824212	-473.86544	27.336	
O	-0.0126559206	-0.007026859	-0.0699225678	-0.305796
C	 0.0078508868	 1.1844763543	-0.0409916089	 0.370461
O	-1.1095095021	 1.9581430955	-0.0760086901	-0.226557
C	-0.8231079115	 3.368808498	 0.0068063602	-0.179531
C	 0.6917157163	 3.5075807448	 0.0015315871	 0.170469
C	 1.4287719016	 4.5893199159	-0.7196635519	-0.261113
N	 1.4148052389	 4.5583061902	 0.7401043	-0.318647
C	 1.2329137544	 2.1173380802	 0.0380115084	 0.218634
O	 2.375662918	 1.7573511344	 0.083336318	-0.272072
H	-1.3101688047	 3.8574935689	-0.8416391078	 0.139044
H	-1.2692320334	 3.7450229793	 0.9343829664	 0.13678
H	 2.3854831591	 4.3398184223	-1.1696896843	 0.155153
H	 0.834925623	 5.3324012615	-1.2464951758	 0.130177
H	 0.7420134542	 5.2343718137	 1.0993447565	 0.242999
45.4674	144.6802	222.9007	249.156	328.8182	335.9726	464.2607	479.5399	610.8124	628.0074	735.4761	772.4524	862.4151	871.0346	942.1376	980.3996	1003.5271	1027.4806	1048.8226	1109.5823	1141.6109	1173.2907	1228.0434	1265.6187	1309.0441	1363.0013	1419.3615	1497.5646	1517.0843	1864.3381	1890.4245	3039.4251	3090.7368	3106.9313	3204.0915	3477.0996
O=C1OCC2(CN2)C1=O	O=C1OC[C@]2(CN2)C1=O	
InChI=1S/C5H5NO3/c7-3-4(8)9-2-5(3)1-6-5/h6H,1-2H2	InChI=1S/C5H5NO3/c7-3-4(8)9-2-5(3)1-6-5/h6H,1-2H2/t5-/m1/s1
