24
gdb 123030	4.46414	0.5368	0.50922	0.8271	87.12	-0.2208	0.0789	0.2997	2204.1641	0.215787	-405.511759	-405.500784	-405.499839	-405.549009	39.17	
C	-0.3718924019	 1.3731110331	 0.1234763497	-0.312335
N	 0.0161454638	-0.0283539121	 0.1106095049	-0.07818
C	 1.3887096816	-0.3419328748	-0.2688581143	-0.264694
C	 0.9263996904	-0.5574404611	 1.1326112807	 0.025797
C	 1.4819474054	 0.2565535999	 2.2843169558	-0.219555
C	 0.5302986673	 0.3286720967	 3.4873472621	-0.182357
C	 1.1247162855	 1.0915074827	 4.6741258548	-0.16555
C	 0.1869207884	 1.1553049694	 5.8722033534	-0.07459
O	 0.8384403894	 1.8852230367	 6.901384116	-0.421535
H	 0.422780839	 2.071998843	 0.4280605947	 0.099028
H	-0.6905726926	 1.6536681922	-0.8858719562	 0.122777
H	-1.2262670767	 1.5105008662	 0.7946189034	 0.120708
H	 1.522307986	-1.174982047	-0.9548202	 0.110197
H	 2.0720163795	 0.4920907444	-0.4332851321	 0.100347
H	 0.6651695623	-1.5772329864	 1.4188784198	 0.084123
H	 2.4265277784	-0.2063137472	 2.6013062272	 0.101571
H	 1.7423585544	 1.2687079087	 1.9550900727	 0.098029
H	-0.4121520971	 0.7999299992	 3.1790638641	 0.101159
H	 0.2692628731	-0.6925630872	 3.797857202	 0.096145
H	 2.0636319179	 0.6220379834	 4.9932620285	 0.10414
H	 1.3764911822	 2.1174016522	 4.3773737579	 0.103768
H	-0.7593913655	 1.6390598642	 5.5782238381	 0.08298
H	-0.0617021187	 0.1335926185	 6.2041577102	 0.083232
H	 0.2484210378	 1.9283364054	 7.6592965265	 0.284794
50.3882	57.6387	92.2613	117.7745	138.896	191.4165	237.4476	266.7281	283.9711	303.8719	361.4271	434.0844	479.9432	537.7013	729.6739	751.04	779.5495	816.9107	910.3478	940.9677	1005.2313	1014.6508	1038.215	1061.252	1069.7627	1088.7948	1101.6804	1116.2245	1132.515	1165.8528	1190.804	1203.7355	1217.3088	1226.8383	1277.0107	1288.6575	1316.1003	1325.4508	1341.0942	1343.4584	1395.272	1425.7698	1446.7238	1462.7748	1477.079	1486.8218	1492.5247	1501.5806	1507.3595	1513.4146	1528.8003	2956.2265	2978.915	2981.0143	3009.1125	3017.8148	3028.3161	3039.041	3059.5922	3064.6331	3075.7663	3078.3003	3093.319	3096.3932	3165.1607	3831.2033
CN1CC1CCCCO	CN1C[C@H]1CCCCO	
InChI=1S/C7H15NO/c1-8-6-7(8)4-2-3-5-9/h7,9H,2-6H2,1H3	InChI=1S/C7H15NO/c1-8-6-7(8)4-2-3-5-9/h7,9H,2-6H2,1H3/t7-,8?/m1/s1
