18
gdb 96836	3.23854	1.15309	0.89391	1.4217	75.81	-0.2462	-0.0396	0.2066	1303.0146	0.145464	-439.125903	-439.116432	-439.115488	-439.162079	33.089	
C	-0.110241048	 1.4511520494	 0.0973004024	-0.33338
N	 0.0999371185	 0.0191425623	-0.0475427161	-0.316134
C	 0.6790337497	-0.6261780205	 0.8617358883	 0.424164
C	 0.9535167524	-2.1101690744	 0.8357379913	-0.451511
C	 1.6897177578	-2.3773633932	 2.1361602241	 0.382911
O	 2.1650229372	-3.4120766743	 2.5203295281	-0.306348
C	 1.7356220755	-1.0520968831	 2.9071149487	 0.009897
C	 3.1448116738	-0.6551629267	 3.3258667091	-0.394649
O	 1.1613881052	-0.0758110208	 2.0310267998	-0.259567
H	 0.5623079832	 1.9857414774	-0.5844276006	 0.127508
H	-1.1321253132	 1.690212214	-0.2144438479	 0.125311
H	 0.0522780733	 1.831653655	 1.1115287566	 0.122799
H	 0.0279577157	-2.6929179261	 0.7918653971	 0.168958
H	 1.5545051932	-2.4045058325	-0.0290353803	 0.169163
H	 1.0918138324	-1.1450334349	 3.7932062685	 0.120354
H	 3.7884926845	-0.5340417373	 2.4498206516	 0.129655
H	 3.1290840707	 0.2863981096	 3.8796718093	 0.134368
H	 3.5633594582	-1.438890764	 3.9624522499	 0.146502
25.2658	47.0278	73.7735	196.7875	218.7477	232.4245	246.7962	387.7879	403.7293	499.6897	542.3777	594.1798	632.395	671.934	758.2376	829.6692	906.6659	947.4755	1020.0436	1044.9961	1083.3449	1116.6003	1129.3513	1140.7542	1154.4358	1183.7349	1226.5844	1259.7038	1322.9579	1354.5514	1400.6289	1421.4609	1438.5017	1484.8304	1492.2921	1496.3368	1499.0369	1805.2077	1865.594	3011.8628	3019.5749	3049.7091	3068.4843	3078.2799	3095.1118	3108.1672	3127.2938	3137.0477
CN=C1CC(=O)C(C)O1	CN=C1CC(=O)[C@@H](C)O1	
InChI=1S/C6H9NO2/c1-4-5(8)3-6(7-2)9-4/h4H,3H2,1-2H3	InChI=1S/C6H9NO2/c1-4-5(8)3-6(7-2)9-4/h4H,3H2,1-2H3/t4-/m1/s1
