19
gdb 111597	4.24224	1.26345	1.22007	2.0205	74.17	-0.238	0.0818	0.3198	1082.5634	0.16082	-422.969857	-422.962584	-422.96164	-423.001727	28.879	
C	 0.202822142	 1.371199927	 0.1547642087	-0.243205
O	-0.2791478851	 0.08267879	-0.1622933849	-0.250259
C	 0.4644477882	-0.5571644231	-1.1611648369	 0.168578
C	 1.8318175287	-1.2344439675	-0.8261482485	-0.156943
C	 1.4452364898	-2.1305559483	 0.3663094448	-0.206409
C	 0.4894950645	-2.9968747582	-0.4759781264	 0.072424
O	 1.4217360645	-3.5996353541	-1.4278085272	-0.293503
C	 1.4736753866	-2.286016553	-1.9875295037	 0.105974
C	 0.0203521769	-1.9562868947	-1.5719515897	-0.138504
H	 1.2227045923	 1.3403902098	 0.5655695252	 0.110187
H	 0.2067443365	 2.0285772126	-0.7286460989	 0.106669
H	-0.4677924121	 1.793800769	 0.9064827908	 0.128783
H	 0.5523252301	 0.0875842215	-2.0501827936	 0.065425
H	 2.7678373875	-0.6805842745	-0.8019253055	 0.067263
H	 2.2647311964	-2.7350160461	 0.7584737687	 0.103758
H	 0.9589045816	-1.5734019889	 1.1681452582	 0.112118
H	-0.1790488786	-3.7123077977	-0.0010327998	 0.0829
H	 1.9176710807	-2.2042266148	-2.9774131847	 0.086014
H	-0.8599918507	-2.1825538491	-2.1692424265	 0.078729
90.2488	158.5902	181.3376	295.3239	360.5645	466.7544	528.3162	579.4704	716.5071	733.8813	770.3783	825.4034	841.5485	854.3657	917.6458	934.4131	963.1538	980.2316	1001.6152	1015.3495	1041.0981	1047.5208	1073.0813	1135.6579	1153.6886	1164.1729	1166.8304	1183.4573	1206.0089	1221.4097	1235.8546	1248.1913	1265.5997	1318.4878	1322.8813	1335.411	1402.6564	1471.4444	1484.6763	1489.0681	1509.0528	2975.0622	2982.7673	3028.0373	3083.5199	3117.4138	3135.5533	3139.0178	3141.9247	3144.1244	3153.0564
COC1C2CC3OC2C13	CO[C@H]1[C@H]2C[C@@H]3O[C@H]2[C@H]13	
InChI=1S/C7H10O2/c1-8-6-3-2-4-5(6)7(3)9-4/h3-7H,2H2,1H3	InChI=1S/C7H10O2/c1-8-6-3-2-4-5(6)7(3)9-4/h3-7H,2H2,1H3/t3-,4+,5+,6+,7-/m1/s1
