15
gdb 62333	4.21108	1.32204	1.17331	6.94	69.14	-0.2459	0.0152	0.2611	1019.6979	0.112664	-416.718298	-416.711205	-416.710261	-416.749607	28.409	
O	 0.0970504359	 1.4328185639	-0.0413984778	-0.458154
C	-0.0360264647	 0.0623155622	 0.036616636	 0.271861
C	 1.0202341482	-0.5948747715	-0.7221466493	 0.262278
N	 1.8470262196	-1.1409140429	-1.316471379	-0.335141
C	-0.432052279	-0.7702987433	 1.2537473484	-0.134077
C	-1.6141944847	-0.1734045052	 2.060144379	-0.06606
N	-2.0208887051	 1.1302555802	 1.461267601	-0.371447
C	-2.4684206296	-0.1579119259	 0.8578804602	-0.0662
C	-1.3252373786	-0.7548704478	-0.0028292587	-0.134001
H	-0.6482085936	 1.7761608564	 0.4921163943	 0.309552
H	 0.1916100887	-1.5689651775	 1.6336462571	 0.119953
H	-1.8436911823	-0.4025431539	 3.091754844	 0.117511
H	-2.7914613321	 1.5016822919	 2.0137434402	 0.246438
H	-3.5208121752	-0.3720868334	 0.7313902624	 0.117514
H	-1.4882716574	-1.5399617532	-0.7296013878	 0.119971
136.2461	160.7595	268.8064	316.9515	391.054	482.1441	530.5987	585.8564	598.0853	682.312	714.0162	735.6601	761.4514	772.8282	857.0873	892.7632	907.1446	929.4924	948.2055	1007.8433	1019.5734	1039.1825	1070.6332	1104.614	1125.0105	1232.2616	1245.2587	1278.714	1301.5232	1312.3102	1390.7413	1474.8306	2363.4226	3194.8141	3203.5082	3206.8894	3218.8536	3492.6253	3499.6266
OC1(C#N)C2C3NC3C12	O[C@@]1(C#N)[C@H]2[C@H]3N[C@H]3[C@@H]12	
InChI=1S/C6H6N2O/c7-1-6(9)2-3(6)5-4(2)8-5/h2-5,8-9H	InChI=1S/C6H6N2O/c7-1-6(9)2-3(6)5-4(2)8-5/h2-5,8-9H/t2-,3+,4-,5+,6+
