17
gdb 94304	3.4614	1.16895	1.02495	2.7856	68.43	-0.2643	0.0026	0.2669	1175.8078	0.13483	-458.974618	-458.966443	-458.965499	-459.007824	30.327	
C	-0.1645051857	 1.59152765	-0.1767867942	-0.416912
C	 0.2025704747	 0.1241476834	-0.1422825129	 0.105946
O	 1.5099449	-0.1416104621	-0.7120925016	-0.294087
C	 1.9015215016	-0.94225454	 0.420204995	-0.128071
C	 0.635217283	-0.5383006297	 1.1808664946	 0.343016
C	 0.6276468597	 0.1434475026	 2.5565100193	-0.497604
C	-0.2519085759	-1.0412015254	 2.9546594044	 0.440788
O	-0.8153797621	-1.4466842992	 3.9166799483	-0.308557
O	-0.2132875798	-1.6071261834	 1.6998039134	-0.265556
H	 0.5846975873	 2.1986441235	 0.3401649232	 0.124103
H	-0.2231027278	 1.934239522	-1.2140217302	 0.140162
H	-1.1418552012	 1.756150217	 0.28945465	 0.126761
H	-0.5679652648	-0.4835129922	-0.6373888615	 0.096307
H	 1.9409034294	-2.0139627322	 0.1884788768	 0.122089
H	 2.8595110475	-0.6214388774	 0.8449791213	 0.112182
H	 1.5861255488	 0.1899005929	 3.0767306421	 0.148772
H	 0.1316176752	 1.1134414202	 2.617055222	 0.150657
72.6762	92.4463	199.4822	228.008	277.6596	311.4096	430.5753	464.1275	475.444	523.8701	549.2259	769.5566	800.0962	863.3844	880.3136	890.5973	969.8339	1010.1512	1021.9643	1039.4308	1081.075	1093.0115	1130.7152	1155.4933	1180.0756	1204.326	1234.7437	1282.2055	1294.5043	1366.1034	1384.4363	1407.0299	1454.1073	1483.3692	1495.1248	1512.6639	1949.6874	3009.0907	3021.6746	3037.4483	3070.6421	3089.9356	3111.4253	3118.0765	3146.1896
CC1OCC11CC(=O)O1	C[C@H]1OC[C@]21CC(=O)O2	
InChI=1S/C6H8O3/c1-4-6(3-8-4)2-5(7)9-6/h4H,2-3H2,1H3	InChI=1S/C6H8O3/c1-4-6(3-8-4)2-5(7)9-6/h4H,2-3H2,1H3/t4-,6+/m1/s1
