21
gdb 90178	3.3562	1.41151	1.32721	1.5775	81.38	-0.2189	0.0714	0.2903	1062.4315	0.184733	-387.063538	-387.055853	-387.054909	-387.095079	32.022	
O	-0.7560088418	 1.1717157167	 1.0619558116	-0.42336
C	-0.0923176655	 0.2918317677	 0.152761449	 0.095451
C	 0.9372702641	-0.6414891375	 0.8711824731	-0.326419
C	 0.1497674579	-1.8831006488	 1.2283465823	 0.278803
C	-1.1845476555	-1.7453793118	 1.9106762094	-0.371891
C	-1.1442713589	-1.8875416087	 0.4136321782	 0.277034
C	-0.9071666445	-3.3547202603	 0.007106754	-0.290363
C	 0.4204825095	-3.3506069731	 0.8433287873	-0.289216
C	-1.1776476575	-0.645988446	-0.4528019923	-0.296799
H	-0.0853927249	 1.7118906396	 1.4920278238	 0.280561
H	 0.399332969	 0.8866287439	-0.6306137164	 0.066462
H	 1.742377651	-0.9026411034	 0.1729277541	 0.0952
H	 1.4047631555	-0.1179221911	 1.7151605031	 0.086417
H	-1.5576398596	-2.5718878714	 2.5110144169	 0.097399
H	-1.4305890424	-0.7599994026	 2.286208139	 0.133593
H	-1.6806896808	-4.0706834818	 0.3045055623	 0.093796
H	-0.7232417235	-3.4754282107	-1.0637275612	 0.097426
H	 1.3074064104	-3.46914817	 0.2152632492	 0.096903
H	 0.4897228864	-4.063797586	 1.6716494404	 0.093296
H	-2.1348955817	-0.1165890923	-0.4886528408	 0.111953
H	-0.9041116574	-0.9059099325	-1.4819811229	 0.093755
155.5121	184.2472	273.6945	287.3882	311.9931	398.6557	427.5827	436.4142	538.0717	637.2834	682.3557	721.5321	770.5349	799.0941	822.9269	871.5462	875.4239	927.4078	936.1263	945.1972	980.999	985.7996	1001.9784	1051.3912	1085.4601	1095.9188	1112.6928	1184.8001	1207.1417	1221.5517	1234.7239	1243.2766	1253.7655	1270.6603	1285.4151	1320.0691	1344.4666	1366.0133	1379.9315	1414.8287	1474.3449	1480.0083	1482.413	1485.8645	1507.7989	2988.0156	3017.3854	3036.2864	3040.54	3044.8355	3055.6869	3084.5309	3085.6796	3104.1908	3113.3901	3228.331	3815.4408
OC1CC23CC2(CC3)C1	O[C@H]1C[C@@]23C[C@@]2(CC3)C1	
InChI=1S/C8H12O/c9-6-3-7-1-2-8(7,4-6)5-7/h6,9H,1-5H2	InChI=1S/C8H12O/c9-6-3-7-1-2-8(7,4-6)5-7/h6,9H,1-5H2/t6-,7-,8+
