20
gdb 68133	3.6518	1.20565	1.07242	4.5006	84.05	-0.2982	0.0317	0.3298	1182.443	0.172745	-366.035758	-366.027685	-366.026741	-366.067907	32.3	
C	-0.0148336148	 1.5215246421	 0.0242666722	-0.498907
C	 0.0259575825	 0.0117566097	 0.0280477522	 0.325827
C	 0.9821070238	-0.7947494424	-0.9063022766	-0.286826
C	 0.7135967748	-1.9326727502	 0.1284167028	 0.220141
C	 0.6654149026	-0.7980407981	 1.1998081342	-0.286791
C	-0.7919081378	-2.2216665561	-0.0983415264	-0.262034
C	-1.3045536315	-0.749266501	-0.1732212427	-0.25238
C	 1.6002532627	-3.0668827919	 0.259947853	 0.157705
N	 2.3111802992	-3.9730222792	 0.3664170693	-0.347425
H	 0.9816460636	 1.9492703687	 0.1747106243	 0.118336
H	-0.4029308667	 1.902423361	-0.9273213992	 0.120833
H	-0.6656908136	 1.8996809221	 0.8208868304	 0.120833
H	 0.676396007	-0.9742951567	-1.9407352452	 0.10285
H	 2.0125844016	-0.4360574036	-0.8677686697	 0.1135
H	 1.661502284	-0.4397322077	 1.467112956	 0.113503
H	 0.0690874102	-0.9805724948	 2.0980443926	 0.102859
H	-0.960809918	-2.7849701804	-1.0190710795	 0.116294
H	-1.2238590245	-2.7875908774	 0.7303541386	 0.116309
H	-2.0299210971	-0.5171111024	 0.6121352058	 0.102686
H	-1.7669297979	-0.5144643417	-1.1365055421	 0.102688
140.8333	147.7598	216.8652	249.148	297.5583	344.3425	429.043	484.2033	506.0252	558.2268	558.8816	588.5486	691.1722	815.9405	834.3287	841.0132	920.3655	929.9693	959.8686	972.0437	992.9937	1005.4981	1035.2887	1080.33	1120.8745	1146.9089	1173.0853	1193.65	1225.5052	1235.4528	1248.704	1253.2394	1260.0467	1329.4226	1354.2736	1416.2544	1486.1847	1490.2042	1492.6552	1496.0989	1500.0335	1532.0645	2351.0546	3025.5677	3050.7807	3056.8264	3062.9351	3071.3607	3088.6695	3092.0245	3098.0044	3118.4238	3125.7734	3129.9588
CC12CC(C1)(CC2)C#N	C[C@@]12C[C@@](C1)(CC2)C#N	
InChI=1S/C8H11N/c1-7-2-3-8(4-7,5-7)6-9/h2-5H2,1H3	InChI=1S/C8H11N/c1-7-2-3-8(4-7,5-7)6-9/h2-5H2,1H3/t7-,8-
