19
gdb 67246	3.26794	1.50366	1.29674	1.8651	79.74	-0.2342	0.079	0.3132	1045.1642	0.160432	-381.977561	-381.969978	-381.969034	-382.009241	30.451	
C	 0.1655595574	 1.5769398961	 0.1610155598	-0.532121
C	-0.0410388147	 0.1144094973	-0.0341646742	 0.370755
C	 0.4201875897	-0.8603337943	-1.0598966993	-0.21744
N	 0.8982499538	-0.9668595336	 0.3733427669	-0.19413
C	-0.2257614896	-1.66355086	 1.0936075224	-0.154427
C	-1.2409816072	-0.8906309253	 0.2390792166	-0.227942
C	-0.9550341307	-1.4695463125	-1.1516344616	 0.44206
C	-1.8186745844	-1.5324464093	-2.3425862244	-0.34069
N	-1.3973670565	-2.7679999493	-1.6325049768	-0.383526
H	 1.1972241144	 1.8446032715	-0.0871235736	 0.136364
H	-0.5052830153	 2.1599904084	-0.4792236048	 0.125696
H	-0.0191043803	 1.8716063067	 1.2000159966	 0.127388
H	 1.1858227381	-0.7601361451	-1.819537426	 0.094867
H	-0.2303991757	-2.7564508337	 1.0188415495	 0.107398
H	-0.1994571886	-1.3555091458	 2.1415651678	 0.10478
H	-2.2561044722	-0.6644843916	 0.5593863269	 0.076512
H	-2.8792892316	-1.3063135325	-2.2691816559	 0.120208
H	-1.377821677	-1.3123135153	-3.3124716479	 0.112885
H	-0.6549743796	-3.2342697218	-2.1490342519	 0.231362
127.9644	200.9932	231.2546	264.0783	278.1375	338.2292	476.0454	510.7522	577.1502	645.5626	752.4784	759.6581	821.7112	876.9883	889.6435	908.173	927.2045	952.6841	957.4786	974.4626	1013.6435	1048.361	1052.0424	1066.4206	1102.1227	1124.8378	1143.3168	1159.0377	1190.2246	1203.7194	1224.7957	1259.6043	1276.2614	1309.3911	1399.5392	1439.727	1447.0119	1481.1962	1491.8147	1507.6403	1524.6534	3029.2815	3044.2186	3091.2699	3099.199	3108.3618	3109.043	3137.4351	3182.4462	3191.6266	3492.687
CC12C3N1CC2C31CN1	C[C@@]12[C@H]3N1C[C@@H]2[C@]13CN1	
InChI=1S/C7H10N2/c1-6-4-2-9(6)5(6)7(4)3-8-7/h4-5,8H,2-3H2,1H3	InChI=1S/C7H10N2/c1-6-4-2-9(6)5(6)7(4)3-8-7/h4-5,8H,2-3H2,1H3/t4-,5+,6+,7-,9?/m0/s1
