19
gdb 88795	2.77547	1.3359	1.04265	3.3785	76.86	-0.2495	0.0286	0.2781	1189.7037	0.159979	-419.176336	-419.167712	-419.166768	-419.21009	32.112	
C	 0.0732644767	 1.5434745698	-0.3231845887	-0.427122
C	-0.0804451381	 0.095815632	 0.0726774607	 0.006078
N	 1.0904418382	-0.796690757	-0.0382389529	-0.332651
C	 0.5013373942	-0.5473659297	 1.2838334997	-0.039046
C	 1.3665731168	 0.0922362749	 2.3476433305	-0.164079
C	 2.366418527	-0.861437943	 3.0499144191	-0.0923
O	 3.4786656366	-0.0130419993	 2.6411817719	-0.24539
C	 2.636547924	 0.8594809286	 1.9901391723	 0.461789
N	 2.8990537565	 1.9267469997	 1.3883959033	-0.543856
H	 1.0266884217	 1.9559608121	 0.0100275656	 0.185083
H	 0.0114791534	 1.6398091653	-1.4128965465	 0.112862
H	-0.739065305	 2.1394454143	 0.1086031546	 0.106598
H	-1.033070653	-0.3416227107	-0.2298048966	 0.079589
H	 0.8209257805	-1.7105440819	-0.3904808922	 0.229418
H	-0.1098460977	-1.3441744196	 1.7122178328	 0.082482
H	 0.7440535959	 0.6513653171	 3.0532211665	 0.112887
H	 2.304182794	-0.9296375791	 4.1386743091	 0.117868
H	 2.4522121591	-1.8562112454	 2.6051747758	 0.12076
H	 3.9022666291	 2.116941312	 1.3895949049	 0.229028
56.9403	112.8169	170.2818	185.1941	218.2091	250.46	383.7643	451.3099	473.8175	500.6257	691.8407	734.9635	763.0131	792.4922	855.7599	864.4156	932.5179	937.0369	977.779	997.6164	1018.7881	1026.5392	1077.7942	1082.567	1107.5471	1152.7229	1162.9844	1189.0223	1229.0593	1244.9952	1266.6316	1280.9467	1333.0105	1379.4075	1403.53	1433.6635	1467.309	1503.0397	1510.0581	1513.4901	1820.9041	3030.3371	3058.5282	3066.2216	3078.2806	3088.0441	3091.7211	3119.3403	3146.3925	3479.5509	3509.352
CC1NC1C1COC1=N	C[C@H]1N[C@H]1[C@H]1CO[C]1[NH]	
InChI=1S/C6H10N2O/c1-3-5(8-3)4-2-9-6(4)7/h3-5,7-8H,2H2,1H3	InChI=1S/C6H10N2O/c1-3-5(8-3)4-2-9-6(4)7/h3-5,7-8H,2H2,1H3/t3-,4-,5-/m1/s1
