25
gdb 95501	2.01717	1.42994	0.8993	0.2678	94.61	-0.2334	0.0241	0.2575	1404.38	0.230088	-352.381272	-352.371688	-352.370744	-352.415256	37.697	
C	-0.0903508644	 1.5578999358	 0.0170495529	-0.39863
C	-0.0024582987	 0.0248819152	-0.0217023254	 0.027587
C	 0.657328396	-0.4275951166	-1.3362090226	-0.168762
C	 0.6302682903	-1.9434912553	-1.6123341502	-0.265526
C	 1.573589469	-2.7569352857	-0.7599155484	-0.080443
C	 1.5791345979	-2.7846902583	 0.5720515991	-0.025453
C	 0.6384939861	-2.0219496861	 1.4818365023	-0.025461
C	 0.9255075207	-2.3596670723	 2.9524248306	-0.410283
C	 0.6850166339	-0.4938382021	 1.2545956508	-0.162703
H	 0.9097284969	 2.0078875914	 0.016039503	 0.112247
H	-0.6289587164	 1.9474880251	-0.853341575	 0.107307
H	-0.6087336032	 1.9054436647	 0.9169258325	 0.107341
H	-1.0316246766	-0.3676934543	-0.0201763441	 0.064571
H	 0.1410242433	 0.0783728002	-2.1621325723	 0.085944
H	 1.6975442139	-0.0759049211	-1.361454218	 0.091453
H	-0.4004134497	-2.305821579	-1.4799181121	 0.103656
H	 0.8700421615	-2.1102940514	-2.6676152818	 0.094219
H	 2.3065234203	-3.3613943917	-1.2897723223	 0.081272
H	 2.3183219604	-3.4094115527	 1.0711809263	 0.075953
H	-0.3909752821	-2.3478430116	 1.2623417674	 0.079153
H	 1.9259827168	-2.0180240585	 3.2433672551	 0.114896
H	 0.2017894939	-1.8808113726	 3.6192188277	 0.108331
H	 0.8806431195	-3.4400389705	 3.1251554292	 0.111604
H	 1.7319462443	-0.1606405093	 1.27003614	 0.088748
H	 0.1969230163	-0.0115172134	 2.1119648052	 0.082979
67.0346	147.3927	200.0028	223.62	236.7763	264.8847	305.4771	316.3661	363.4879	393.4043	431.552	497.2005	539.5623	654.7303	731.3703	782.529	834.8957	863.2259	884.6898	939.3815	948.7701	967.4626	982.2888	995.3427	1042.0364	1048.9348	1075.0066	1098.0298	1110.9889	1161.9607	1179.9325	1183.556	1251.6517	1269.3321	1290.8539	1303.0842	1329.7076	1342.5727	1346.113	1364.0187	1383.8713	1397.4675	1407.7456	1413.98	1428.982	1474.9602	1481.9849	1487.3378	1496.3117	1497.5165	1501.497	1502.797	1723.4098	2969.1699	2978.6941	2994.5936	3004.2818	3010.8426	3024.2252	3026.503	3043.4699	3051.4085	3063.7058	3089.8246	3092.4412	3096.1965	3102.6207	3126.9597	3154.9883
CC1CCC=CC(C)C1	C[C@H]1CCC=C[C@@H](C)C1	
InChI=1S/C9H16/c1-8-5-3-4-6-9(2)7-8/h3,5,8-9H,4,6-7H2,1-2H3	InChI=1S/C9H16/c1-8-5-3-4-6-9(2)7-8/h3,5,8-9H,4,6-7H2,1-2H3/t8-,9+/m1/s1
