23
gdb 102171	2.45377	1.00582	0.84752	0.5393	88.46	-0.2412	0.0496	0.2908	1498.4756	0.201717	-388.254325	-388.242871	-388.241926	-388.291311	41.168	
C	-0.9904995177	 1.0555278164	 0.251946833	-0.238692
O	 0.2043488217	 0.3573966809	-0.0335623964	-0.252326
C	 0.7477992939	-0.4090984712	 1.0259903319	 0.12834
C	 0.0357170297	-1.7839600611	 1.1712140568	-0.374763
C	-1.2174291418	-1.7483083435	 1.9152885086	 0.280766
C	-2.2353193907	-1.7247435038	 2.5555554362	-0.430703
C	 2.2573085509	-0.5669948715	 0.7498426938	 0.022792
C	 2.5408753765	-1.2940755498	-0.5733063223	-0.387948
C	 2.9515362489	 0.8008151596	 0.785577363	-0.399445
H	-0.8881366909	 1.6751168766	 1.1557700633	 0.104616
H	-1.1856818402	 1.7086366255	-0.602970182	 0.120828
H	-1.8452880784	 0.3834712842	 0.3920112309	 0.126368
H	 0.6276803593	 0.1384333243	 1.9744484378	 0.071704
H	-0.1367491396	-2.1851952679	 0.166217051	 0.140668
H	 0.7192807179	-2.4795670815	 1.674303309	 0.13003
H	-3.1389388931	-1.7049882663	 3.1125527694	 0.19355
H	 2.6575973375	-1.1746230688	 1.5731401833	 0.06947
H	 2.0972565175	-0.7506208296	-1.412063258	 0.134462
H	 3.6193475311	-1.3660278755	-0.7453712257	 0.10763
H	 2.1397433303	-2.3122975946	-0.5795433228	 0.110009
H	 2.7984025829	 1.3006587249	 1.7483743712	 0.105274
H	 4.029888246	 0.6940865292	 0.6311641932	 0.107379
H	 2.554848798	 1.4510945637	 0.0012266949	 0.129992
40.5767	83.041	87.5037	127.8493	184.6444	215.8318	234.5636	240.5419	260.9697	333.8606	335.2014	344.7835	409.8375	444.4406	533.4905	605.4171	614.9678	629.7601	833.786	844.6213	928.4539	956.7818	963.4478	976.1964	982.2569	1050.1998	1122.4504	1131.9422	1156.643	1182.6004	1201.5261	1219.8037	1248.6848	1280.6482	1349.2876	1354.4101	1374.201	1391.524	1398.0676	1421.1063	1458.6443	1478.9028	1488.9986	1491.1016	1496.7814	1506.3914	1511.9396	1516.263	2233.0849	2974.2766	2989.6108	3010.0489	3027.0551	3033.6941	3041.2816	3061.7541	3070.964	3097.34	3103.1638	3109.2024	3118.264	3122.7352	3506.0012
COC(CC#C)C(C)C	CO[C@@H](CC#C)C(C)C	
InChI=1S/C8H14O/c1-5-6-8(9-4)7(2)3/h1,7-8H,6H2,2-4H3	InChI=1S/C8H14O/c1-5-6-8(9-4)7(2)3/h1,7-8H,6H2,2-4H3/t8-/m0/s1
