17
gdb 65422	4.13936	0.83914	0.78609	1.4201	82.31	-0.244	0.028	0.272	1458.01	0.13186	-384.600834	-384.591132	-384.590188	-384.635516	36.153	
O	-0.0739600925	 1.3459960889	 0.1080992977	-0.44686
C	 0.0022858424	-0.0510210591	-0.0147265401	 0.167142
C	-0.63493535	-0.8907355039	 1.0850910106	-0.33103
C	-1.3266245036	-0.7398512327	-0.2443902705	-0.039532
C	-2.5941822183	 0.0940185271	-0.3733857271	-0.386425
C	-3.7865764206	-0.6484259607	 0.0234271114	 0.309543
C	-4.7571950404	-1.2777821479	 0.3495221385	-0.447061
C	 1.1802871845	-0.5427480505	-0.681992625	 0.303868
C	 2.1830560746	-0.9343965638	-1.2188897372	-0.461807
H	 0.664077796	 1.6327892686	 0.6574840848	 0.290558
H	-0.1823364538	-1.8418628081	 1.3388614145	 0.125343
H	-1.0380882747	-0.3269554132	 1.9198566603	 0.124435
H	-1.2892856984	-1.6027393425	-0.900792672	 0.114234
H	-2.4942850792	 1.0006066273	 0.2313572475	 0.147903
H	-2.7019088874	 0.4334119888	-1.4114049652	 0.137546
H	-5.620865274	-1.8235740848	 0.6379809443	 0.194
H	 3.0611819853	-1.2812197235	-1.7049582724	 0.198144
49.3727	97.6493	133.9402	183.5519	229.057	289.308	309.0751	341.9217	414.3255	425.8089	493.672	554.6093	581.6768	609.3615	617.3185	639.3726	677.6562	701.2793	851.8666	869.2077	905.1884	925.4431	955.4966	1044.0607	1052.5604	1081.1493	1144.4197	1225.7609	1237.7297	1267.4266	1316.4633	1349.9437	1416.7915	1469.8967	1482.7461	2231.3587	2239.2819	3031.7864	3082.9371	3136.7987	3169.6136	3232.6127	3501.9474	3507.8277	3800.6261
OC1(CC1CC#C)C#C	O[C@]1(C[C@H]1CC#C)C#C	
InChI=1S/C8H8O/c1-3-5-7-6-8(7,9)4-2/h1-2,7,9H,5-6H2	InChI=1S/C8H8O/c1-3-5-7-6-8(7,9)4-2/h1-2,7,9H,5-6H2/t7-,8+/m1/s1
