23
gdb 39687	4.03969	0.91112	0.79155	2.0277	84.75	-0.2408	0.0728	0.3135	1496.8787	0.207858	-388.285644	-388.276597	-388.275653	-388.321937	32.943	
C	-0.0246180583	 1.5021463963	-0.1064940791	-0.089899
O	 1.3311446949	 1.688028325	 0.3470142043	-0.273414
C	 1.4865861332	 0.2771992216	 0.5994344096	-0.089888
C	 0.0931411349	-0.0365458629	 0.0047116646	-0.033795
C	-0.9116220482	-0.7769719759	 0.870822981	 0.028604
C	-2.3360439855	-0.8448698069	 0.2878025643	-0.211422
C	-3.0406870568	-1.9521083102	 1.1039519518	-0.206982
C	-1.9024683513	-2.8763247383	 1.6336644398	-0.206988
C	-0.5850873669	-2.2642410787	 1.1054613738	-0.211452
H	-0.7522198321	 1.9551627629	 0.5820967623	 0.093021
H	-0.183104808	 1.9160736838	-1.1094396138	 0.0991
H	 2.3546509615	-0.1409653971	 0.0760277482	 0.0991
H	 1.5835489646	 0.0618332561	 1.6732125286	 0.093023
H	 0.1606360901	-0.5186511518	-0.976346071	 0.072843
H	-0.9618246332	-0.2748853472	 1.8496462244	 0.067204
H	-2.8635096116	 0.1130217731	 0.3269458634	 0.094589
H	-2.2738128793	-1.1336840796	-0.7697814661	 0.09311
H	-3.5938805327	-1.5140207542	 1.9405047774	 0.099912
H	-3.7710579152	-2.4972149655	 0.4999364456	 0.097808
H	-1.9035540808	-2.890624219	 2.7279723806	 0.099919
H	-2.0249451644	-3.9132522416	 1.3093111192	 0.097863
H	-0.3105746373	-2.7233472934	 0.1465057019	 0.093133
H	 0.2578464322	-2.4177805764	 1.7860355691	 0.094611
15.645	57.1522	84.7691	143.134	144.7675	309.723	365.5693	411.4768	540.6021	627.51	754.3148	805.8	821.5553	870.3892	891.5046	892.9678	915.9699	947.8803	962.7551	980.35	998.2477	1017.1211	1044.071	1054.4936	1084.4932	1115.7464	1144.7486	1160.002	1161.9003	1204.7928	1224.8951	1237.4117	1253.9187	1269.8926	1294.3346	1300.6122	1308.3361	1327.8454	1337.7332	1347.5951	1354.0763	1380.4031	1417.2141	1485.5832	1495.2699	1496.5271	1510.0714	1518.6864	1535.6027	2983.196	2989.7035	3001.7154	3018.4155	3024.7363	3038.0485	3044.8854	3047.017	3056.7139	3062.5705	3073.662	3082.3687	3086.1653	3104.5416
C1OCC1C1CCCC1	C1OCC1C1CCCC1	
InChI=1S/C8H14O/c1-2-4-7(3-1)8-5-9-6-8/h7-8H,1-6H2	InChI=1S/C8H14O/c1-2-4-7(3-1)8-5-9-6-8/h7-8H,1-6H2
