18
gdb 32242	2.52296	1.58366	0.98523	4.0937	83.27	-0.2198	-0.0094	0.2104	1189.5874	0.149517	-398.198364	-398.189549	-398.188605	-398.231978	31.889	
C	-0.0018164352	 1.4683052676	-0.0013637661	-0.314212
N	 0.0927065332	 0.0204751162	-0.0038097633	-0.361167
C	 0.6247683304	-0.680114329	-1.0428844663	 0.363938
N	 1.1857567877	 0.0230097769	-2.0363280655	-0.340176
C	 1.7238582951	-0.6780376462	-3.0337915486	 0.064428
N	 1.7654027628	-1.9983548706	-3.1687227052	-0.284123
C	 1.1935329099	-2.6815500314	-2.1623046452	-0.044028
C	 0.6010115119	-2.0994685198	-1.0593936976	 0.188308
C	-0.0186538914	-2.9028308381	 0.0488651327	-0.526513
H	 0.9789716852	 1.9108395915	-0.1881103547	 0.153403
H	-0.6870263133	 1.8427742719	-0.7720530291	 0.131949
H	-0.3586413211	 1.7912287814	 0.979049377	 0.119456
H	-0.4601260148	-0.4874728771	 0.6633158746	 0.248116
H	 2.1788225487	-0.0931234977	-3.8310342224	 0.107753
H	 1.2140136996	-3.7676377344	-2.2468226332	 0.100096
H	 0.4565984361	-2.6964379396	 1.0166158965	 0.131729
H	-1.0904493173	-2.6899067602	 0.1624187074	 0.126748
H	 0.0807206827	-3.9737675316	-0.1465168009	 0.134294
88.5049	109.5909	164.7337	190.8088	207.6558	269.083	306.8947	350.0738	440.4979	499.9456	542.8095	597.7361	645.4228	780.1625	811.6145	890.2027	954.4688	1009.7714	1015.0989	1068.3649	1091.3967	1123.1364	1156.4406	1174.001	1218.4158	1279.8148	1344.4566	1368.4085	1414.5879	1432.5649	1447.0614	1459.1516	1476.4057	1483.2331	1505.4803	1516.08	1549.1189	1616.9408	1635.3141	3007.0677	3025.7489	3053.1222	3098.1948	3110.9306	3133.5944	3136.9345	3151.5833	3677.8108
CNC1=NC=NC=C1C	CNc1ncncc1C	
InChI=1S/C6H9N3/c1-5-3-8-4-9-6(5)7-2/h3-4H,1-2H3,(H,7,8,9)	InChI=1S/C6H9N3/c1-5-3-8-4-9-6(5)7-2/h3-4H,1-2H3,(H,7,8,9)
