19
gdb 63423	3.07101	1.22984	1.12004	1.3971	82.46	-0.2536	0.0046	0.2582	1173.8615	0.157615	-385.869943	-385.860866	-385.859921	-385.903476	35.285	
C	-0.0496243008	 1.6087172901	-0.0305030945	-0.421474
C	 0.0247785181	 0.0872571261	 0.0225619927	 0.359227
O	-1.3349947555	-0.3569577503	 0.1164720691	-0.469347
C	 0.7565156106	-0.5390847495	-1.1943875702	-0.270536
C	 1.4539886128	-1.8215551157	-0.6488218282	-0.224608
C	 1.5810174916	-1.5030201964	 0.8382704127	-0.087234
C	 0.8267144566	-0.4652885998	 1.189252681	-0.108389
C	 0.6713477058	-3.0408244923	-0.8546881027	 0.333988
C	 0.0014689325	-4.0296473662	-1.0010850591	-0.487551
H	 0.9512164704	 2.0485183873	-0.0541335775	 0.113383
H	-0.5967865009	 1.9288959383	-0.9223006408	 0.123838
H	-0.5809343497	 1.9896718047	 0.8464257053	 0.123007
H	-1.3214343857	-1.3196077441	 0.1769719203	 0.279972
H	 0.0638134157	-0.7405359432	-2.0130204108	 0.116771
H	 1.5279595481	 0.1479019321	-1.5544838403	 0.102675
H	 2.4367666371	-1.9571036776	-1.1162852131	 0.107137
H	 2.1802500566	-2.1165804564	 1.5009072058	 0.108842
H	 0.7084091791	-0.0795294109	 2.195945906	 0.100443
H	-0.5777923222	-4.9087320759	-1.1406629558	 0.199857
55.4368	129.0955	195.8271	227.4317	264.9221	331.7031	357.537	378.3414	428.2635	449.2899	499.0631	571.3499	625.0026	628.3742	641.4131	769.6989	788.5073	792.8411	842.5489	922.0515	940.2473	949.9743	977.7149	1012.7572	1023.9588	1087.5956	1127.4079	1152.9731	1200.3151	1236.4449	1245.782	1294.4408	1323.0692	1349.7303	1396.4743	1419.0704	1474.8831	1482.4024	1497.2946	1679.9674	2225.791	3029.2397	3041.5969	3063.1192	3115.3194	3120.6776	3128.2825	3186.3773	3212.2179	3502.6444	3788.4834
CC1(O)CC(C=C1)C#C	C[C@@]1(O)C[C@@H](C=C1)C#C	
InChI=1S/C8H10O/c1-3-7-4-5-8(2,9)6-7/h1,4-5,7,9H,6H2,2H3	InChI=1S/C8H10O/c1-3-7-4-5-8(2,9)6-7/h1,4-5,7,9H,6H2,2H3/t7-,8+/m1/s1
