15
gdb 128253	3.9705	1.21336	0.93483	2.6262	77.04	-0.227	-0.0706	0.1564	1199.1374	0.11439	-446.289312	-446.281045	-446.280101	-446.323202	29.367	
C	-0.0593949915	 1.457272619	 0.0268419618	-0.333186
N	-0.0608035897	 0.0145070203	 0.1711153305	-0.337084
C	 0.6103678938	-0.7165421213	 1.0826696625	 0.498793
N	 0.4866769659	-2.0155169962	 1.0599409591	-0.360125
C	 1.178709841	-2.7381552971	 1.9966335965	 0.437933
N	 1.1363218021	-4.0099316917	 2.0725916328	-0.543846
N	 1.9519597587	-1.9273337355	 2.8793087952	-0.263196
N	 2.0411845962	-0.6045818688	 2.8566306331	-0.021946
N	 1.3911635451	 0.0420406835	 1.9800571317	-0.268618
H	 0.5864532627	 1.8877136292	 0.7894515105	 0.181465
H	 0.3141368511	 1.7485453194	-0.9613125883	 0.134108
H	-1.070923174	 1.8608514415	 0.148305409	 0.134107
H	-0.6148360758	-0.5404482944	-0.463956923	 0.264068
H	 1.7171148851	-4.3617624357	 2.8329203424	 0.200952
H	 2.5037144693	-2.3524555923	 3.6108329962	 0.276574
44.9315	101.5761	117.5996	173.2124	233.202	397.8042	416.1018	513.1713	580.5689	594.9881	626.2387	642.894	721.0114	759.3291	781.7694	806.0403	931.681	1003.0177	1071.9078	1096.8447	1156.4031	1175.191	1199.0184	1295.8512	1394.8729	1415.7579	1468.7553	1476.0706	1497.7885	1517.5558	1572.8933	1678.697	1742.4308	3028.791	3078.1601	3177.2055	3488.1772	3609.5005	3624.2139	44.9323	101.5761	117.5996	173.2124	233.202	397.8045	416.1017	513.1712	580.5688	594.9882	626.2386	642.8942	721.0113	759.3292	781.7695	806.0406	931.6812	1003.0179	1071.9078	1096.845	1156.4029	1175.191	1199.0185	1295.8514	1394.8732	1415.758	1468.7554	1476.0704	1497.7882	1517.5558	1572.8936	1678.6972	1742.4307	3028.791	3078.1602	3177.2055	3488.1769	3609.5003	3624.214
CNC1=NC(=N)NN=N1	CNc1nc([NH])[nH]nn1	
InChI=1S/C3H6N6/c1-5-3-6-2(4)7-9-8-3/h1H3,(H3,4,5,6,7,8)	InChI=1S/C3H11N6/c1-5-3-6-2(4)7-9-8-3/h2-9H,1H3
