17
gdb 43701	7.25244	0.63404	0.60837	1.698	74.92	-0.2514	-0.0375	0.2139	1723.6715	0.134652	-418.008353	-417.999475	-417.998531	-418.043057	31.418	
O	-0.0611000536	-0.0414682107	-0.0455554606	-0.269962
C	-0.0366210991	 1.1439489984	 0.0720478079	 0.396197
C	-1.0900513163	 2.2514064332	 0.2247647492	-0.290189
N	 0.0156535802	 3.181699327	 0.5613966049	-0.08971
C	 0.0045552303	 4.4828665875	-0.0716478891	-0.149188
C	 1.1305947184	 5.3645370488	 0.5013202516	-0.340458
C	 1.1473060386	 6.6959474592	-0.0975415528	 0.25875
N	 1.1421356056	 7.7442221394	-0.5833547198	-0.299989
C	 1.065304016	 2.2126581591	 0.1549055918	-0.299535
H	-1.5905917543	 2.4626575303	-0.734290426	 0.12526
H	-1.8489153243	 2.1244713154	 1.0034577955	 0.140581
H	 0.1121508227	 4.4229324395	-1.1712793545	 0.103091
H	-0.9593034259	 4.9597603604	 0.1322211391	 0.133033
H	 1.0056621701	 5.4522904781	 1.5853893383	 0.16437
H	 2.1044042941	 4.8914777727	 0.3292631163	 0.15547
H	 1.8685246326	 2.0499187171	 0.8803664359	 0.13924
H	 1.5087692449	 2.4085139845	-0.8360469478	 0.12304
52.5453	82.1333	98.4341	138.1661	231.6583	333.7451	350.5352	403.0052	432.5088	488.6872	524.9766	672.9807	768.7765	775.3464	785.59	945.2013	955.2313	1013.2254	1035.4161	1060.2567	1075.1698	1098.068	1119.3342	1162.005	1212.6757	1234.6463	1257.879	1297.5605	1313.0772	1324.5816	1405.7656	1457.1375	1469.4472	1479.7641	1503.5756	1927.3699	2365.3821	2927.263	2971.3114	2983.433	3047.2044	3074.3999	3076.707	3077.1187	3096.2757
O=C1CN(CCC#N)C1	O=C1CN(CCC#N)C1	
InChI=1S/C6H8N2O/c7-2-1-3-8-4-6(9)5-8/h1,3-5H2	InChI=1S/C6H8N2O/c7-2-1-3-8-4-6(9)5-8/h1,3-5H2
