21
gdb 78034	2.54731	1.46161	1.3053	2.1605	78.09	-0.2322	0.0768	0.309	1114.5263	0.182755	-424.224611	-424.215832	-424.214888	-424.2573	34.588	
C	 0.0279666109	 1.5863288544	 0.0041474977	-0.409054
C	 0.0522426518	 0.0665991149	 0.0805454088	 0.112772
O	 0.7640199844	-0.4464799548	-1.0636009969	-0.289059
C	 1.1979857272	-1.7714859945	-0.7470287101	-0.155918
C	 1.5103289144	-1.7724999707	 0.7435554269	 0.248029
C	 1.5857609861	-3.0963926427	 1.4622027404	-0.490861
C	 2.2870858746	-0.5610045708	 1.1996159504	 0.092062
O	 3.0419528116	 0.2481876068	 0.3465273705	-0.438645
C	 0.7768490922	-0.5387565254	 1.2725398928	-0.173588
H	 1.0373707654	 1.9956958122	 0.0897199464	 0.135837
H	-0.4132409129	 1.9147212113	-0.941346925	 0.124414
H	-0.57652569	 1.9899171832	 0.8221803489	 0.117882
H	-0.9815006356	-0.3172274203	 0.0569158874	 0.073903
H	 0.4080143644	-2.5068945825	-0.9685250926	 0.097929
H	 2.0612001647	-1.9904152576	-1.3849158091	 0.114326
H	 2.3971274985	-3.718892917	 1.066763143	 0.123759
H	 1.7733879852	-2.9548741133	 2.5308724894	 0.12108
H	 0.6517488599	-3.6624857295	 1.3608896172	 0.115925
H	 2.8022691799	-0.6633617548	 2.1500802426	 0.099996
H	 2.5525306217	 0.3123245839	-0.4857150004	 0.295565
H	 0.2760232054	-0.5372801026	 2.2351853318	 0.083647
144.4225	194.3943	209.0611	231.4515	245.043	256.2297	274.4976	336.731	448.3595	513.178	531.885	588.6968	603.0321	718.0145	738.9624	817.2081	857.2366	872.1117	956.2103	966.5506	1004.0939	1011.0071	1029.8046	1057.7146	1092.9796	1116.5597	1141.4186	1160.1746	1165.7065	1224.6409	1245.6918	1293.926	1317.8497	1337.1278	1347.8071	1387.9809	1412.2565	1417.8248	1424.8996	1478.4102	1490.4944	1492.354	1499.3061	1502.2739	1516.6109	2958.2299	2978.7355	3020.2943	3045.671	3066.3353	3077.6388	3100.0999	3115.5406	3132.7188	3154.669	3166.1914	3731.9743
CC1OCC2(C)C(O)C12	C[C@H]1OC[C@@]2(C)[C@@H](O)[C@@H]12	
InChI=1S/C7H12O2/c1-4-5-6(8)7(5,2)3-9-4/h4-6,8H,3H2,1-2H3	InChI=1S/C7H12O2/c1-4-5-6(8)7(5,2)3-9-4/h4-6,8H,3H2,1-2H3/t4-,5-,6+,7-/m1/s1
