12
gdb 129868	3.41414	1.28598	0.93495	5.1586	73.86	-0.1921	-0.0688	0.1234	1127.5351	0.077424	-468.82305	-468.815355	-468.814411	-468.855321	28.226	
N	 0.034751485	 1.3282075039	 0.1866827035	-0.586841
C	 0.0204317107	-0.0408205042	 0.0763885257	 0.455573
C	-0.9774622101	-0.9459016311	-0.0241441508	-0.435622
C	-0.3048934161	-2.2336426043	 0.0013299399	 0.239999
C	 1.1362535641	-2.0091427722	 0.1095171803	 0.394088
O	 2.0795816593	-2.743662061	 0.1554582274	-0.34991
N	-1.2285043942	-4.4845570334	-0.1202152115	-0.226824
N	-0.8055616086	-3.4303735444	-0.0645851568	 0.087229
O	 1.2663290523	-0.6133701831	 0.1539194396	-0.232981
H	 0.8810851285	 1.7568540009	-0.1624225537	 0.269258
H	-0.8007385458	 1.7867832824	-0.1453595141	 0.264474
H	-2.0349013551	-0.7618522836	-0.1002453294	 0.121556
122.5011	145.9065	192.2911	260.501	326.8287	336.995	459.0667	477.0391	521.9288	588.626	625.897	648.7121	673.9482	694.3284	737.5646	823.8122	971.1928	1030.0232	1098.8912	1211.961	1248.438	1393.2544	1464.3864	1626.5231	1711.8604	1873.4768	2203.4495	3281.3528	3563.4082	3670.8346
NC1=CC2=C(ON=N2)O1	N[C]1C=C(C(=O)O1)[N][N]	
InChI=1S/C4H3N3O2/c5-3-1-2-4(8-3)9-7-6-2/h1H,5H2	InChI=1S/C4H3N3O2/c5-3-1-2(7-6)4(8)9-3/h1H,5H2
