12
gdb 129167	7.12225	0.87079	0.78189	1.1185	60.45	-0.2433	-0.0454	0.1979	1322.7599	0.076734	-505.944719	-505.936964	-505.93602	-505.977873	27.138	
N	-0.2018563671	 1.2786726569	 0.1633554207	-0.591345
C	-0.0292229491	 0.0408479136	 0.0113633677	 0.510831
N	-1.0183231072	-0.9363797334	 0.005690782	-0.411519
C	-0.4017379075	-2.1303377951	-0.1950587977	 0.551287
O	-1.1381858917	-3.2511753433	-0.2564772588	-0.237053
C	-0.5149309428	-4.4577254889	 0.0658203811	 0.173036
O	-1.0905523376	-5.4800694005	-0.0845990417	-0.222529
N	 0.8776890985	-2.0502601244	-0.3277211312	-0.232869
O	 1.1443893204	-0.6514965747	-0.1787281243	-0.243409
H	 0.6797145397	 1.783801238	 0.1271689926	 0.242379
H	-2.0021417397	-0.7650116127	 0.1205903457	 0.302169
H	 0.4984257641	-4.3024848558	 0.4589442738	 0.159021
58.2316	113.6826	148.879	189.1319	355.7905	378.0219	402.5076	464.6505	548.68	679.7	724.2444	733.5456	770.3993	825.375	924.3049	952.1402	1020.2882	1037.8105	1055.87	1095.1486	1275.6768	1305.8727	1395.967	1531.4342	1673.0714	1809.7401	1901.4851	3073.0549	3545.9733	3691.771
N=C1NC(OC=O)=NO1	[NH][C@@H]1NC(=NO1)OC=O	
InChI=1S/C3H3N3O3/c4-2-5-3(6-9-2)8-1-7/h1H,(H2,4,5,6)	InChI=1S/C3H4N3O3/c4-2-5-3(6-9-2)8-1-7/h1-2,4H,(H,5,6)/t2-/m1/s1
