16
gdb 133565	3.22136	1.20975	1.18581	2.2018	61.71	-0.3172	0.0977	0.415	1073.1103	0.122316	-532.206334	-532.199033	-532.198088	-532.239891	27.941	
F	 0.37235591	 0.1697970152	-0.2304507218	-0.072348
C	 0.0127952199	 1.4504588502	-0.0491589204	 0.249922
F	 1.1349610667	 2.1864471448	-0.1535415103	-0.081627
F	-0.776955971	 1.7818654108	-1.0875682454	-0.081626
C	-0.6911826212	 1.7699040395	 1.2534670871	-0.114489
C	-1.8622041773	 0.9189545051	 1.8332963788	-0.062818
C	-0.8198116828	-0.1260670712	 2.339026828	-0.228349
C	-0.1979017226	 1.2715166787	 2.6462662776	-0.062814
C	-1.6084272053	 1.6820407229	 3.1693420099	-0.223094
H	-0.8958646538	 2.8443725623	 1.2065373569	 0.097065
H	-2.8223566621	 0.7270622962	 1.3544901663	 0.085776
H	-1.1255228046	-0.7034034719	 3.215249441	 0.093413
H	-0.327327105	-0.7544220641	 1.6033189657	 0.119619
H	 0.7659097818	 1.4871946414	 3.1072659837	 0.085776
H	-1.8421886174	 2.7498644924	 3.1848094313	 0.096022
H	-1.9461397553	 1.1798946078	 4.0784697816	 0.099572
14.483	154.2968	238.1394	331.2649	373.0667	407.3802	540.4797	567.7161	590.6601	724.3163	772.9974	810.8665	858.8981	897.3714	898.5415	910.3412	975.5114	1015.5939	1034.5626	1037.429	1087.7619	1116.9743	1130.7134	1144.6026	1162.5008	1175.4071	1197.3849	1216.6926	1246.7068	1250.0868	1270.1809	1306.8063	1435.4901	1506.8557	1549.9835	3055.6303	3062.8193	3074.3102	3114.1871	3117.8189	3125.8098	3187.7701	14.4842	154.2967	238.1393	331.2649	373.0668	407.3802	540.4797	567.7161	590.6601	724.3163	772.9975	810.8665	858.8981	897.3714	898.5416	910.3413	975.5114	1015.5938	1034.5627	1037.429	1087.7619	1116.9743	1130.7134	1144.6026	1162.5009	1175.4072	1197.3848	1216.6927	1246.7067	1250.0868	1270.181	1306.8063	1435.4906	1506.8558	1549.983	3055.6303	3062.8193	3074.3102	3114.187	3117.8189	3125.8097	3187.7701
FC(F)(F)C1C2CC1C2	FC(F)(F)[C@H]1[C@H]2C[C@@H]1C2	
InChI=1S/C6H7F3/c7-6(8,9)5-3-1-4(5)2-3/h3-5H,1-2H2	InChI=1S/C6H7F3/c7-6(8,9)5-3-1-4(5)2-3/h3-5H,1-2H2/t3-,4+,5-
