15
gdb 98959	3.56747	0.95798	0.7588	2.1581	66.21	-0.2622	-0.1003	0.1619	1414.2487	0.111491	-491.160923	-491.15152	-491.150576	-491.196413	31.6	
C	-0.3053948719	 1.2833097356	-0.4251469995	-0.333969
N	-0.8591176326	-0.0563191728	-0.4082226027	-0.347186
C	-1.3149843862	-0.6177063002	 0.731495836	 0.501095
O	-1.3296646082	-0.120540625	 1.8380339218	-0.396183
N	-1.8264919975	-1.9422972196	 0.5678160593	-0.399645
C	-1.9203148232	-2.7063935407	-0.5481590443	 0.333215
O	-1.5746764697	-2.4102543026	-1.6813997226	-0.365781
C	-2.5396983786	-4.0834847052	-0.2800185189	 0.115339
O	-2.9024510871	-4.4416545578	 0.8084198257	-0.234577
H	 0.7354966627	 1.2736328112	-0.7659087206	 0.132603
H	-0.8832177733	 1.9387025962	-1.0856459106	 0.132606
H	-0.3439951245	 1.6776406035	 0.5903404717	 0.171673
H	-0.917667746	-0.6074810073	-1.2559382724	 0.278143
H	-2.1673501213	-2.3579519703	 1.4265394877	 0.283933
H	-2.6135082124	-4.7029384751	-1.1942111906	 0.128734
59.4219	69.7034	100.5592	149.5977	172.6185	189.0667	225.9923	322.2784	422.6138	538.3738	577.0343	580.1057	655.0524	733.3868	769.9536	773.2481	886.808	1006.8216	1026.2023	1133.3927	1156.2036	1186.0969	1222.3585	1263.8348	1361.0355	1443.4579	1498.7434	1500.9245	1512.1514	1599.3877	1772.3837	1824.6474	1831.6043	2970.3169	3033.4123	3086.3024	3158.7218	3541.6192	3583.3579
CNC(=O)NC(=O)C=O	CNC(=O)NC(=O)C=O	
InChI=1S/C4H6N2O3/c1-5-4(9)6-3(8)2-7/h2H,1H3,(H2,5,6,8,9)	InChI=1S/C4H6N2O3/c1-5-4(9)6-3(8)2-7/h2H,1H3,(H2,5,6,8,9)
