21
gdb 114319	2.08411	1.37139	1.21932	2.1579	78.36	-0.2259	0.0628	0.2888	1204.1043	0.180478	-424.182802	-424.173113	-424.172169	-424.217058	36.402	
C	-0.128721323	 1.2343367291	 0.5678184404	-0.378568
C	-0.3773473836	 0.5878929015	-0.8005213009	-0.22076
C	-1.5868521661	-0.3293976927	-0.7733737691	 0.101669
O	-1.9365137027	-0.9419124673	-2.0538972189	-0.310882
C	-2.1466273606	-2.2076383369	-1.4176294412	 0.016693
C	-0.8481247108	-2.7705541162	-0.902892434	-0.092553
C	 0.474471074	-2.6518978	-1.6302381612	-0.424618
C	-1.5926140446	-1.7081146105	-0.1043039097	 0.260543
O	-2.0603997157	-1.922264159	 1.1800839883	-0.456664
H	 0.733474824	 1.9062491866	 0.5336358118	 0.118112
H	-0.9955017938	 1.8175641008	 0.8964473264	 0.12244
H	 0.0692167393	 0.4795239176	 1.3366757721	 0.11001
H	-0.5580535975	 1.3661727068	-1.5524986769	 0.108289
H	 0.5106400401	 0.038618714	-1.1236439161	 0.103983
H	-2.4625429547	 0.2273925107	-0.4075583374	 0.086506
H	-3.0324196558	-2.7723152391	-1.6836788898	 0.107587
H	-1.0218972132	-3.733771847	-0.4226097726	 0.09188
H	 0.4500231519	-1.8210905101	-2.3377877554	 0.142529
H	 1.314057493	-2.5016725362	-0.942763853	 0.109746
H	 0.6726112333	-3.5666390263	-2.1990811761	 0.115407
H	-1.3055027936	-2.0905176361	 1.7538084831	 0.28865
70.9793	128.5069	163.5098	198.5031	221.3048	244.2387	270.8284	315.1605	333.6173	355.1867	424.8918	550.7079	581.3854	674.5489	701.9257	775.2149	810.2295	903.4209	918.7178	948.2497	977.8623	997.6095	999.9208	1068.1959	1087.0055	1096.9575	1115.6942	1139.8034	1168.2375	1215.1798	1236.1602	1270.8117	1290.539	1320.6566	1338.829	1355.0435	1406.6948	1409.8874	1418.4351	1480.6184	1486.31	1499.5024	1502.6401	1504.7891	1509.015	2996.5424	3033.4447	3033.805	3037.5176	3087.5709	3088.9505	3106.6037	3112.7764	3114.2564	3135.2178	3184.4983	3802.1918
CCC1OC2C(C)C12O	CC[C@H]1O[C@H]2[C@@H](C)[C@@]12O	
InChI=1S/C7H12O2/c1-3-5-7(8)4(2)6(7)9-5/h4-6,8H,3H2,1-2H3	InChI=1S/C7H12O2/c1-3-5-7(8)4(2)6(7)9-5/h4-6,8H,3H2,1-2H3/t4-,5-,6+,7-/m1/s1
