18
gdb 92790	2.98205	1.05801	0.89425	4.3194	77.97	-0.2609	-0.0034	0.2575	1315.9255	0.147955	-401.97724	-401.968544	-401.9676	-402.01139	32.19	
O	 0.1405008646	 1.4397571061	 0.0603285616	-0.430814
C	-0.0064595828	 0.0297661362	 0.0101497188	 0.132684
C	 0.6495410264	-0.6614164154	 1.2366880085	-0.274428
C	-0.5152888358	-0.8787852763	 2.1702447479	-0.184093
C	-1.6865283811	-0.7367093565	 1.5459975343	 0.334515
C	-3.0491895155	-0.9375054644	 2.1605025635	-0.450681
C	-3.8806191431	 0.2680953737	 2.0790012657	 0.261527
N	-4.5189454446	 1.2282782044	 2.0036200904	-0.308453
C	-1.4960772109	-0.3953344988	 0.0832552889	-0.336317
H	-0.294959717	 1.7543881496	 0.8612094522	 0.283571
H	 0.4620540307	-0.2668521391	-0.9307996107	 0.089094
H	 1.1148817715	-1.61836297	 0.9625044788	 0.112348
H	 1.4427260192	-0.030559042	 1.6512350802	 0.116964
H	-0.398358076	-1.1475993518	 3.2149966574	 0.09741
H	-3.5870019703	-1.7480960934	 1.6498389263	 0.158678
H	-2.9583383377	-1.2296989584	 3.2118727989	 0.157022
H	-2.1451643036	 0.4121761462	-0.2720098446	 0.131377
H	-1.7009940443	-1.2715543301	-0.5481141179	 0.109595
55.2831	69.9742	128.681	248.0266	295.9865	344.2285	385.8463	387.1082	425.7363	440.9173	508.6362	684.9922	768.6448	808.1743	850.1027	868.7189	886.0795	936.9252	947.8769	952.559	991.8726	1044.817	1075.0175	1150.2796	1173.8201	1177.1113	1211.5086	1259.9506	1287.3026	1305.1914	1318.7405	1326.5465	1367.8775	1433.9382	1453.4942	1470.8313	1479.0393	1712.1816	2361.5317	3011.3055	3015.3982	3021.6794	3074.3822	3074.8694	3080.7766	3093.0192	3187.0395	3790.8874
OC1CC=C(CC#N)C1	O[C@H]1CC=C(CC#N)C1	
InChI=1S/C7H9NO/c8-4-3-6-1-2-7(9)5-6/h1,7,9H,2-3,5H2	InChI=1S/C7H9NO/c8-4-3-6-1-2-7(9)5-6/h1,7,9H,2-3,5H2/t7-/m0/s1
