18
gdb 12524	3.27714	1.83415	1.27089	1.8596	75.	-0.2433	0.0093	0.2526	970.011	0.155379	-347.804792	-347.797188	-347.796244	-347.837255	29.153	
O	 0.6159762747	 0.4473870534	-1.0566920807	-0.430257
C	-0.0087887326	-0.3021069425	 0.0000120289	 0.027711
C	 0.7767500828	-0.0719992362	 1.2673035664	-0.070713
C	 0.397777151	 0.2812807452	 2.4956997952	-0.066954
C	-0.9862021184	 0.4809614427	 3.0558072505	-0.240878
C	-2.085788119	-0.3934897878	 2.4354210505	-0.252236
C	-2.3744695865	-0.0982340672	 0.9852070395	-0.077947
C	-1.4959714205	-0.0481023194	-0.0136644714	-0.065377
H	 0.5609713436	 1.3766183492	-0.805210581	 0.276138
H	 0.152123364	-1.3454721622	-0.3151258003	 0.106846
H	 1.8445035366	-0.1763130913	 1.0821114692	 0.094239
H	 1.1985340961	 0.4446552336	 3.2158447219	 0.087462
H	-0.9490551178	 0.282425579	 4.1340506266	 0.100856
H	-1.2707060227	 1.5390416812	 2.9629214871	 0.113734
H	-1.8021268741	-1.4483748887	 2.5529890741	 0.115082
H	-3.0046379603	-0.261151672	 3.0160789807	 0.098959
H	-3.4191916652	 0.0747662057	 0.7351162513	 0.088055
H	-1.8591671418	 0.1543456374	-1.0191730985	 0.095278
31.6544	179.546	244.8244	308.7575	352.2571	362.0421	385.7982	484.2247	567.5197	657.4673	713.4797	720.3908	807.4282	838.027	879.3525	905.6933	964.0723	1010.1157	1021.5309	1028.3743	1052.3379	1081.0663	1104.6514	1192.3387	1233.5758	1246.9077	1262.492	1292.8287	1356.1757	1356.9414	1389.7692	1405.8221	1419.6381	1438.0885	1476.82	1485.1508	1731.9516	1742.1546	2978.1875	3004.4975	3015.6005	3045.3602	3067.0979	3123.4862	3135.8007	3149.8085	3160.3363	3792.1968
OC1C=CCCC=C1	O[C@H]1C=CCCC=C1	
InChI=1S/C7H10O/c8-7-5-3-1-2-4-6-7/h3-8H,1-2H2	InChI=1S/C7H10O/c8-7-5-3-1-2-4-6-7/h3-8H,1-2H2
