25
gdb 114864	3.87666	0.95314	0.85532	0.1709	92.17	-0.277	0.0772	0.3543	1489.8256	0.231171	-352.368805	-352.359777	-352.358833	-352.402889	35.415	
C	-0.283562768	 1.8208286399	-0.4836163188	-0.383504
C	-0.1638803062	 0.3476473047	-0.0791879394	-0.187611
C	 0.7454723932	-0.4797539519	-0.9919483022	 0.068861
C	 2.2359271997	-0.0523932686	-1.004730572	-0.243088
C	 3.0087095263	-1.3085337269	-1.4614342944	 0.014446
C	 3.9108689767	-2.0640768448	-0.435958535	-0.227539
C	 3.066877608	-3.3529530832	-0.6523712068	-0.23349
C	 2.0123166027	-2.514681392	-1.4257148241	-0.000502
C	 0.8083365809	-1.9788811533	-0.6329570687	-0.243911
H	 0.6860465768	 2.3278563097	-0.4460749899	 0.117804
H	-0.6690511933	 1.919903103	-1.5048018074	 0.111464
H	-0.965117025	 2.3603676059	 0.1816661552	 0.109055
H	 0.2116946488	 0.279332132	 0.951481381	 0.089377
H	-1.1642120334	-0.1048146391	-0.0676397879	 0.089957
H	 0.3637760855	-0.3986508684	-2.0212980995	 0.063624
H	 2.4125647951	 0.812265705	-1.650840145	 0.09333
H	 2.5432231534	 0.2423411171	 0.0075891344	 0.089191
H	 3.5067975837	-1.166189683	-2.423310297	 0.060085
H	 4.97338864	-2.1356167832	-0.6814959231	 0.094302
H	 3.8256813607	-1.6568562258	 0.576039529	 0.09423
H	 3.5741642733	-4.0802519136	-1.2921019032	 0.095576
H	 2.7165121514	-3.8747761476	 0.2430456348	 0.091391
H	 1.6986825527	-2.920513927	-2.3916031644	 0.058088
H	 0.9854270914	-2.0831119261	 0.4468025847	 0.088475
H	-0.1246992544	-2.5067127028	-0.8545439505	 0.090388
66.9249	83.7304	122.0269	199.6148	245.3387	312.8353	369.2876	403.2024	414.0808	532.9931	618.4098	675.194	763.394	777.35	823.4086	843.8307	856.7799	890.1491	922.0104	946.7738	962.1909	974.5284	998.3077	1008.8705	1049.4978	1050.0313	1079.5602	1095.0969	1139.9602	1157.6428	1190.9323	1207.3955	1226.3847	1250.3116	1255.9763	1264.2648	1273.849	1281.9034	1298.2977	1310.6213	1328.3645	1341.5015	1351.054	1369.7231	1389.9753	1411.7968	1478.0004	1484.8662	1488.8106	1493.5471	1500.5575	1504.5641	1508.4091	2983.0114	3006.0459	3011.9974	3019.5052	3030.6161	3041.274	3046.9132	3050.4911	3056.0278	3066.9521	3077.3998	3085.4327	3092.1078	3095.9746	3103.6928	3110.9232
CCC1CC2CCC2C1	CC[C@H]1C[C@H]2CC[C@H]2C1	
InChI=1S/C9H16/c1-2-7-5-8-3-4-9(8)6-7/h7-9H,2-6H2,1H3	InChI=1S/C9H16/c1-2-7-5-8-3-4-9(8)6-7/h7-9H,2-6H2,1H3/t7-,8+,9-
