15
gdb 53923	1.77955	1.57775	1.34837	3.6489	71.24	-0.2744	-0.0166	0.2578	1069.6957	0.111307	-413.012434	-413.002827	-413.001883	-413.047175	34.233	
C	-0.5075378976	 1.5597036864	-0.1352490773	-0.402258
C	 0.1315179697	 0.1548685024	-0.0176633213	-0.116613
C	 1.1295309625	 0.1516951545	 1.0698483433	 0.292164
N	 1.9373249302	 0.1520921322	 1.8955766584	-0.327316
C	-0.9114846	-0.8399456982	 0.3014486341	 0.310803
N	-1.7475959482	-1.6009397738	 0.5360363582	-0.319998
C	 0.8246228668	-0.2769854388	-1.3480304136	 0.3624
N	 1.5831479033	-1.4116107639	-1.2304479441	-0.534047
N	 0.5636182836	 0.4052738098	-2.3864258423	-0.501415
H	 0.269189447	 2.2925460917	-0.354715367	 0.155284
H	-1.2237631141	 1.5544139384	-0.9549971167	 0.171813
H	-1.005659681	 1.8165557496	 0.8012248797	 0.145472
H	 1.9351732263	-1.6848319202	-0.3260489377	 0.27909
H	 2.1556205414	-1.6793138263	-2.0151014465	 0.264479
H	 1.03909313	 0.0432798463	-3.2141286473	 0.220142
35.4954	130.6914	143.1391	166.3917	223.5142	244.168	297.267	362.8405	409.5568	427.6137	448.1766	478.6404	512.6303	590.444	605.2892	665.7198	699.7758	861.5319	895.1253	952.4731	1071.3966	1109.6958	1124.0295	1162.5173	1196.4325	1380.7348	1412.2267	1478.8558	1481.4069	1649.8565	1745.0422	2358.4412	2366.047	3075.0749	3160.4065	3181.2083	3470.8201	3584.9862	3698.3827
CC(C#N)(C#N)C(N)=N	CC(C#N)(C#N)C(=N)N	
InChI=1S/C5H6N4/c1-5(2-6,3-7)4(8)9/h1H3,(H3,8,9)	InChI=1S/C5H6N4/c1-5(2-6,3-7)4(8)9/h1H3,(H3,8,9)
