15
gdb 43343	3.0673	1.82632	1.22891	3.9029	71.78	-0.247	-0.0532	0.1938	954.8704	0.11603	-416.856776	-416.85018	-416.849236	-416.88799	25.381	
O	 0.171511948	 0.0353843948	 0.3268759295	-0.35459
C	 0.0142411577	 1.1878555119	 0.0079674651	 0.375349
C	-1.2334143588	 2.0035373723	-0.0101103693	-0.178602
C	-0.9443898246	 3.2794028754	-0.2856729699	-0.102325
C	 0.5209733224	 3.4380871669	-0.5841469378	-0.034198
C	 1.4788072622	 4.286126686	 0.3093123213	-0.1948
N	 2.5930228476	 3.3800565851	 0.6628360176	-0.229657
C	 2.2621852337	 2.2081597147	 0.2958401325	 0.053212
N	 1.0421274125	 2.0790651375	-0.3902999331	-0.123813
H	-2.1974494009	 1.5718566011	 0.2196619517	 0.133761
H	-1.6472825845	 4.0996975648	-0.3633429839	 0.129708
H	 0.6428279283	 3.7370767412	-1.6349392564	 0.116637
H	 1.8577624101	 5.1625757807	-0.2212521977	 0.125352
H	 1.0061888119	 4.636690832	 1.2337440725	 0.125294
H	 2.8492048946	 1.3170427857	 0.4852469279	 0.15867
112.7433	159.4674	241.3213	355.7854	448.0738	532.7889	597.9256	679.6525	697.0407	737.153	753.5057	838.0329	885.588	934.1615	947.0016	969.3318	983.9092	1044.1075	1048.4757	1073.7154	1129.1955	1192.3605	1207.3824	1248.0112	1300.602	1304.2165	1331.7656	1341.5933	1359.5001	1493.3795	1641.2419	1687.4007	1828.2273	3002.036	3045.8136	3102.2275	3211.5777	3219.1577	3245.6697
O=C1C=CC2CN=CN12	O=C1C=C[C@H]2C[N][CH]N12	
InChI=1S/C6H6N2O/c9-6-2-1-5-3-7-4-8(5)6/h1-2,4-5H,3H2	InChI=1S/C6H6N2O/c9-6-2-1-5-3-7-4-8(5)6/h1-2,4-5H,3H2/t5-/m0/s1
