17
gdb 13836	4.36004	1.62278	1.20918	3.7598	70.47	-0.2298	0.0102	0.2401	979.2246	0.142591	-363.906566	-363.898731	-363.897787	-363.939073	28.366	
C	-0.0524184058	 1.4703556486	-0.0204230274	-0.493765
C	-0.0010634131	-0.0492925363	-0.038851879	 0.388571
O	 1.0478511501	-0.6723487189	-0.0835894872	-0.375489
N	-1.2042262519	-0.6907919885	-0.0023777494	-0.086041
C	-2.5319575852	-0.0786237991	 0.0532784601	-0.207439
C	-3.4376560716	-1.2810419782	 0.072631622	-0.077996
C	-2.7424600763	-2.4135926953	 0.0347399285	-0.078944
C	-1.2637504073	-2.1548969697	-0.015870303	-0.190711
H	 0.9697298217	 1.8455214888	-0.0537262286	 0.145609
H	-0.6094869009	 1.8609999156	-0.8786981974	 0.133754
H	-0.5448597025	 1.8417681551	 0.8846443138	 0.133762
H	-2.6616715398	 0.5489390561	 0.9485000905	 0.11706
H	-2.7261985482	 0.5693101726	-0.8153130553	 0.117081
H	-4.5152419469	-1.1859248049	 0.1128770005	 0.10806
H	-3.1529547783	-3.4152979176	 0.0384046883	 0.109508
H	-0.7835924058	-2.5616349502	-0.9163338129	 0.128515
H	-0.7205956584	-2.580383648	 0.8390442965	 0.128468
73.5507	127.6442	146.7363	216.0351	224.5762	381.7403	406.0662	527.8819	602.0451	626.5217	694.0403	807.4095	828.3549	938.9574	965.056	983.3532	992.9118	1025.4209	1042.4187	1052.6529	1084.1215	1131.9482	1189.7752	1206.0467	1234.9532	1325.6149	1359.367	1379.7674	1386.1885	1436.4464	1470.5383	1485.9438	1508.8748	1519.8994	1696.5502	1761.4376	2977.2243	2992.1592	3010.5581	3027.8607	3040.52	3100.3696	3162.0725	3207.4696	3231.0825
CC(=O)N1CC=CC1	CC(=O)N1CC=CC1	
InChI=1S/C6H9NO/c1-6(8)7-4-2-3-5-7/h2-3H,4-5H2,1H3	InChI=1S/C6H9NO/c1-6(8)7-4-2-3-5-7/h2-3H,4-5H2,1H3
