15
gdb 45917	3.02319	1.5006	1.02399	1.2145	73.06	-0.2514	-0.0541	0.1973	1092.6736	0.115478	-450.153853	-450.146247	-450.145303	-450.186406	28.6	
N	-0.1721925199	 1.3387123665	-0.1861197195	-0.519088
C	-0.0158301246	 0.1037914902	 0.0762953132	 0.377988
C	-1.1803514652	-0.8378418013	-0.1201585823	-0.153021
O	-1.198595391	-1.9359742056	 0.7989888588	-0.252033
C	-0.0431260926	-2.6068345313	 1.0273005475	 0.353287
N	-0.0101905088	-3.7874705377	 1.4786189678	-0.504412
C	 1.2576997001	-1.8714881752	 0.820635175	 0.301705
N	 2.4072447076	-2.3767999024	 1.006789998	-0.503005
N	 1.1441215064	-0.5315594885	 0.4711990741	-0.374451
H	 0.6974931594	 1.8658200917	-0.0846150913	 0.214577
H	-2.1102168052	-0.2915102536	 0.0252584892	 0.163657
H	-1.1573940911	-1.2278815351	-1.1466553541	 0.142089
H	-0.9538629	-4.1609578037	 1.5872420812	 0.237901
H	 2.2920379742	-3.3478501949	 1.3012753459	 0.253067
H	 2.0125592907	-0.0128973791	 0.4906614866	 0.261739
74.3932	113.5205	168.4944	348.735	388.8419	425.2669	445.5081	486.8371	550.2019	592.953	624.5479	668.1866	771.859	810.077	871.5287	893.9248	925.7481	930.4513	988.9127	1037.2242	1109.1997	1154.4881	1174.1497	1258.8134	1292.7912	1394.0595	1405.0766	1424.2277	1449.0932	1492.3207	1721.8791	1745.0338	1745.771	3024.15	3160.6832	3454.0886	3484.6247	3491.7829	3589.569
N=C1COC(=N)C(=N)N1	[NH][C]1COC(=C([NH])N1)[NH]	
InChI=1S/C4H6N4O/c5-2-1-9-4(7)3(6)8-2/h7H,1H2,(H3,5,6,8)	InChI=1S/C4H6N4O/c5-2-1-9-4(7)3(6)8-2/h7H,1H2,(H3,5,6,8)
