19
gdb 99193	6.51837	0.49743	0.4677	3.9406	82.01	-0.2383	-0.0121	0.2262	2292.0123	0.154709	-423.013223	-423.001771	-423.000827	-423.053897	37.439	
C	-0.0683038665	 1.4850254339	 0.0327094594	-0.497514
C	-0.0228041244	 0.0303932999	-0.0193255115	 0.121839
C	 0.0303784746	-1.1718150652	-0.0639453413	 0.010963
C	 0.064916703	-2.6288219378	-0.1163247823	-0.359521
C	-1.3377488028	-3.2525015137	-0.029411103	-0.300702
C	-1.3093273005	-4.7734035927	-0.1141179935	 0.371813
O	-0.3037296005	-5.393994774	-0.352954881	-0.275754
C	-2.6525642109	-5.4590314815	 0.1272109046	-0.168859
O	-2.5233022475	-6.8413306816	-0.0707846876	-0.393721
H	 0.4941656821	 1.871608036	 0.8899477962	 0.14667
H	 0.3610997776	 1.9304979782	-0.871628877	 0.146941
H	-1.0977042915	 1.8498330033	 0.1226834408	 0.144129
H	 0.547010739	-2.9698026341	-1.0390886074	 0.144829
H	 0.6837573749	-3.0251494335	 0.6972006924	 0.13866
H	-1.8399587498	-2.9479877885	 0.8973655636	 0.126799
H	-1.971243198	-2.872176765	-0.8415540503	 0.134393
H	-2.9687947069	-5.2027458865	 1.1541171959	 0.109166
H	-3.3939768266	-4.9967402279	-0.547799377	 0.106411
H	-3.376707125	-7.2485959694	 0.1033704891	 0.293459
13.0834	20.5635	51.6851	67.2633	83.9904	176.4874	210.7655	228.2411	271.0849	289.0178	382.5193	387.0263	468.1767	508.1318	658.9177	733.4594	764.1898	872.0663	910.4497	989.4623	1050.3275	1053.9642	1068.9061	1082.1616	1147.9461	1169.9493	1173.8511	1236.8538	1257.8965	1297.5702	1309.871	1382.5954	1415.7764	1443.022	1451.8844	1472.776	1479.205	1479.8095	1494.9899	1827.4689	2374.4943	2947.8123	2969.4419	3024.6171	3028.3166	3041.8933	3056.274	3078.1364	3083.8233	3084.8228	3836.4838	13.0978	20.5651	51.6852	67.2635	83.9917	176.4876	210.7655	228.2441	271.085	289.0178	382.5195	387.0283	468.176	508.1321	658.9177	733.4594	764.19	872.0666	910.4497	989.4621	1050.3275	1053.9641	1068.9059	1082.1613	1147.9462	1169.9495	1173.8509	1236.8533	1257.8958	1297.5698	1309.8709	1382.5951	1415.7761	1443.0211	1451.8839	1472.7766	1479.2045	1479.809	1494.989	1827.4667	2374.4946	2947.8124	2969.442	3024.617	3028.3165	3041.8933	3056.2739	3078.1364	3083.8233	3084.8228	3836.4845
CC#CCCC(=O)CO	CC#CCCC(=O)CO	
InChI=1S/C7H10O2/c1-2-3-4-5-7(9)6-8/h8H,4-6H2,1H3	InChI=1S/C7H10O2/c1-2-3-4-5-7(9)6-8/h8H,4-6H2,1H3
