15
gdb 13998	4.44704	1.43939	1.24979	1.764	68.14	-0.2477	0.0247	0.2723	966.0623	0.117839	-362.568295	-362.560811	-362.559867	-362.600289	27.652	
C	-0.0892511181	-1.2057467347	 0.0442730507	-0.436702
C	-0.0493133293	-0.0042827947	 0.0628620584	 0.379175
C	 0.0102766544	 1.4299362054	 0.0396746094	-0.324844
N	 0.6142010217	 2.1141449156	 1.2206521588	-0.358362
C	 1.3071824478	 2.1558589306	-0.0467374035	 0.28882
C	 2.7081676445	 1.6262037492	-0.3144034374	-0.132553
O	 2.9689246565	 2.7457599284	-1.1978081478	-0.274327
C	 1.6878382012	 3.3464046254	-0.92281919	-0.146525
H	-0.1279079349	-2.2669971196	 0.0413892981	 0.202441
H	-0.840194304	 1.9187165741	-0.432575346	 0.115312
H	 0.1220769916	 2.9887214114	 1.3943113547	 0.238203
H	 3.3702903026	 1.6216874186	 0.5595424171	 0.114472
H	 2.7696121973	 0.6631518931	-0.8334221542	 0.11948
H	 1.0932783851	 3.5010032699	-1.8320234087	 0.110717
H	 1.7842332036	 4.3016254773	-0.3867602094	 0.104693
87.165	125.0036	155.8262	291.1854	344.4848	355.6279	488.2756	546.6617	600.2978	626.778	665.6497	808.2763	850.3184	891.5643	935.8917	951.2506	994.4935	1020.2485	1027.6268	1070.8926	1126.2138	1143.7828	1159.129	1190.1336	1260.6011	1299.6992	1326.8862	1378.4328	1479.4606	1502.1992	1527.3766	2240.7202	2994.8801	3026.6747	3045.0142	3076.8135	3120.6662	3485.5055	3503.438
C#CC1NC11COC1	C#C[C@H]1NC21COC2	
InChI=1S/C6H7NO/c1-2-5-6(7-5)3-8-4-6/h1,5,7H,3-4H2	InChI=1S/C6H7NO/c1-2-5-6(7-5)3-8-4-6/h1,5,7H,3-4H2/t5-/m1/s1
