18
gdb 40257	2.80592	1.64691	1.2405	2.5172	71.5	-0.246	0.0603	0.3064	1026.5402	0.14949	-439.033175	-439.025839	-439.024894	-439.06493	29.075	
C	 0.0872007698	 1.4705665035	-0.0062593391	-0.2413
O	 1.230103168	 0.6098149446	-0.011307306	-0.278883
C	-0.0757395103	 0.0137256786	 0.0060834455	 0.453827
C	-0.4543546483	-0.7220397213	 1.2762946598	-0.167815
O	-0.0186811137	-2.0688269008	 1.2199194057	-0.24698
C	-0.712432254	-2.8339506053	 0.2479192745	-0.078362
C	-0.7545575153	-2.178479183	-1.1282938371	-0.054304
N	-1.8264615357	-1.1864020014	-1.3339985542	-0.346342
C	-0.4281769361	-0.7309000202	-1.2446596373	-0.120759
H	-0.0655262357	 2.040318973	 0.9102404707	 0.113388
H	-0.0902716067	 2.0251581232	-0.9272357403	 0.110473
H	 0.0521680375	-0.2616282311	 2.1279918902	 0.115418
H	-1.5436563332	-0.6676985287	 1.4273413083	 0.106926
H	-0.1791943223	-3.7872240009	 0.1927596309	 0.111031
H	-1.7440149865	-3.0309599188	 0.580464489	 0.100008
H	-0.4947207518	-2.8186329681	-1.9674130722	 0.095214
H	-2.1315954038	-1.1851020014	-2.3034058087	 0.235918
H	 0.0732830482	-0.3754946921	-2.1413313597	 0.09254
94.6481	199.6369	246.618	306.3807	363.6767	393.3849	439.2833	493.0364	530.3317	674.9333	778.9792	797.9427	828.7712	888.8837	903.9181	931.3601	943.1136	984.1689	985.7665	1022.8733	1043.804	1111.6467	1125.0799	1127.9046	1157.6367	1172.7111	1204.3072	1250.4248	1260.8837	1305.4803	1327.0151	1348.0276	1374.4237	1413.0187	1421.5539	1472.1354	1478.8884	1490.4236	1534.4368	2980.1572	2990.9154	3076.0914	3086.3754	3104.6844	3136.7137	3147.0128	3160.3508	3508.8655
C1OC11COCC2NC12	C1O[C@]21COC[C@H]1N[C@@H]21	
InChI=1S/C6H9NO2/c1-4-5(7-4)6(2-8-1)3-9-6/h4-5,7H,1-3H2	InChI=1S/C6H9NO2/c1-4-5(7-4)6(2-8-1)3-9-6/h4-5,7H,1-3H2/t4-,5-,6+/m1/s1
