27
gdb 76614	2.08384	1.24751	1.07197	0.1065	95.99	-0.2554	0.0674	0.3227	1378.2888	0.250107	-353.550893	-353.539554	-353.53861	-353.586657	43.491	
C	-0.6662272799	 1.8543251874	 0.4410110103	-0.413202
C	-0.3844648945	 0.366407244	 0.5071600806	-0.050297
C	 0.7178994927	-0.30109167	-0.3006605579	-0.05027
C	 1.6276930194	 0.4651945229	-1.2401799775	-0.413217
C	 0.7846453338	-0.2952065513	 1.2173941466	 0.006657
C	 1.8390133705	 0.2930487262	 2.1699044708	 0.227602
C	 2.4137413809	 1.6763961934	 1.8127426652	-0.422394
C	 1.1898144777	 0.3902612295	 3.5678236125	-0.39099
C	 3.0106306389	-0.7111378636	 2.2325832388	-0.390972
H	 0.2158149925	 2.4530945678	 0.2104809335	 0.121545
H	-1.4087923898	 2.0598469836	-0.3387001368	 0.112112
H	-1.0774707155	 2.2247263903	 1.3870631826	 0.114666
H	-1.3068196819	-0.2076297009	 0.5731394497	 0.076471
H	 0.4501297481	-1.2715214172	-0.714407288	 0.07647
H	 1.7875006405	 1.5015923173	-0.9401784123	 0.121543
H	 2.6120807544	-0.0104452137	-1.3181480689	 0.11466
H	 1.1950349945	 0.4836327543	-2.2471892962	 0.112125
H	 0.4911885118	-1.2655430743	 1.6185589284	 0.074471
H	 1.6457275365	 2.4525774912	 1.7937897414	 0.113407
H	 3.1471952065	 1.9670398161	 2.5734285964	 0.105746
H	 2.9315019226	 1.675116611	 0.8511839574	 0.113389
H	 0.801224729	-0.5808451837	 3.8933406914	 0.104979
H	 1.9179755383	 0.7262152089	 4.3146371085	 0.102874
H	 0.3560044881	 1.0998748389	 3.5664372406	 0.112386
H	 3.5029292362	-0.8033806684	 1.2589728241	 0.112391
H	 3.76249187	-0.389759301	 2.9621277057	 0.10287
H	 2.6638607385	-1.7076425788	 2.5270982033	 0.104978
40.4834	129.1397	156.3896	184.0708	230.4535	238.4437	255.3381	266.0397	277.2941	298.9822	340.8547	368.8976	377.7109	400.7606	469.8044	565.4061	576.1235	702.1847	760.5603	778.3516	843.7819	927.5918	934.6756	954.0953	959.6994	965.3524	1009.266	1044.9777	1047.6429	1059.3436	1116.794	1119.8776	1144.7874	1168.4414	1196.0645	1220.7819	1235.5285	1255.8357	1327.0616	1382.6164	1395.9607	1397.3202	1402.9187	1417.0095	1425.7098	1435.69	1453.0711	1477.2804	1485.4911	1488.0011	1491.6121	1493.9344	1501.8551	1509.0216	1516.9918	1521.4089	1526.7485	3022.2225	3026.3872	3028.6558	3031.6824	3043.097	3078.3201	3079.8339	3084.5748	3088.6055	3094.3731	3098.0492	3099.9447	3102.677	3105.4154	3118.908	3126.6265	3139.7613	3143.667
CC1C(C)C1C(C)(C)C	C[C@H]1[C@@H](C)[C@H]1C(C)(C)C	
InChI=1S/C9H18/c1-6-7(2)8(6)9(3,4)5/h6-8H,1-5H3	InChI=1S/C9H18/c1-6-7(2)8(6)9(3,4)5/h6-8H,1-5H3/t6-,7+,8-
