22
gdb 104687	2.39919	1.41624	1.14343	2.6209	81.42	-0.2354	0.0789	0.3143	1191.96	0.194793	-404.299745	-404.290625	-404.28968	-404.333331	35.293	
C	 0.7474373077	 0.687628151	-0.6391904092	-0.383237
C	 0.1188038264	-0.7091460696	-0.5186443918	-0.280613
C	-1.2976919535	-0.7125558283	 0.0365609554	 0.310555
C	-2.3492798989	-0.043614205	-0.8507690757	-0.1175
O	-2.3184062717	 1.3668641589	-0.7338969668	-0.416706
C	-1.8364512414	-1.7699781246	 0.9259305913	-0.080877
C	-0.8079493949	-2.3485898016	 1.8952641611	-0.269194
C	-0.5471312311	-0.890064626	 2.3452112218	-0.158845
N	-1.6271472328	-0.3487559286	 1.44302259	-0.189718
H	 1.7428665515	 0.6209884026	-1.0891216716	 0.10582
H	 0.128680247	 1.3505986667	-1.246310568	 0.147202
H	 0.8553313244	 1.1570768358	 0.3443435114	 0.115896
H	 0.0765325619	-1.1766086491	-1.5108383883	 0.100887
H	 0.7725249535	-1.3517509537	 0.0778840391	 0.098116
H	-2.1655707817	-0.2790344814	-1.9042639026	 0.103653
H	-3.345682531	-0.4327442656	-0.5904232147	 0.087413
H	-2.3318275413	 1.5323523995	 0.2184109747	 0.289747
H	-2.8339657278	-2.1766867978	 0.7820038521	 0.091683
H	-1.2680566053	-2.9519467199	 2.6796546725	 0.113661
H	 0.0203270895	-2.9156216141	 1.4609620677	 0.108089
H	-0.8187883708	-0.6981844485	 3.3848587461	 0.11366
H	 0.4457978905	-0.4713440605	 2.1594259955	 0.110307
85.5023	117.7795	191.5302	196.4237	229.7222	275.1821	316.9658	365.3112	379.2227	492.9946	520.9615	555.4711	660.6335	782.185	790.7257	800.7292	830.6348	871.6816	946.0554	955.926	983.0742	995.4414	1011.6956	1032.6888	1069.4539	1085.4744	1108.9228	1110.8422	1152.0882	1213.602	1218.131	1223.1918	1266.595	1293.447	1304.4799	1320.4633	1359.2061	1385.4355	1415.464	1432.029	1440.2664	1482.0756	1492.6064	1496.1662	1503.2889	1511.6789	1518.1532	2981.3826	3029.6876	3041.6858	3058.8855	3064.6818	3073.9901	3082.4932	3102.7444	3106.9168	3124.4896	3141.6291	3143.6649	3760.1995
CCC1(CO)C2CCN12	CC[C@@]1(CO)[C@H]2CCN12	
InChI=1S/C7H13NO/c1-2-7(5-9)6-3-4-8(6)7/h6,9H,2-5H2,1H3	InChI=1S/C7H13NO/c1-2-7(5-9)6-3-4-8(6)7/h6,9H,2-5H2,1H3/t6-,7-,8?/m1/s1
