23
gdb 38925	2.59016	1.84938	1.34015	0.1918	87.13	-0.2547	0.0744	0.3291	1050.2863	0.210359	-351.146283	-351.139044	-351.1381	-351.177715	30.808	
C	 0.2168013362	 1.4598996825	 0.6818659223	-0.257815
C	 1.535519778	 1.5692312453	-0.1421326054	-0.00408
C	 2.8165475525	 1.1826472768	 0.6295606184	-0.252638
C	 2.4903251224	-0.3293216918	 0.4035217667	 0.018239
C	 2.0467129139	-1.1488580449	 1.6317611576	-0.219002
C	 0.8207306861	-2.0104929433	 1.3031889567	-0.185788
C	-0.4084323014	-1.1384392546	 0.9903817825	-0.2241
C	-0.0715565882	 0.0493490993	 0.0648041903	 0.030963
C	 1.337889838	 0.0787289565	-0.5785638239	-0.051762
H	 0.3708010743	 1.4601914815	 1.7661047373	 0.091157
H	-0.5383021449	 2.2161831597	 0.452805269	 0.095142
H	 1.589892766	 2.3989291699	-0.8484577665	 0.056041
H	 3.7280758189	 1.4950561728	 0.1114391553	 0.092978
H	 2.8827594344	 1.5188359979	 1.6704335957	 0.086993
H	 3.2928229508	-0.8619229785	-0.1137578016	 0.065717
H	 2.8736032877	-1.7742905961	 1.9854581673	 0.08991
H	 1.7972334215	-0.4796829972	 2.4656866838	 0.090414
H	 1.0527774612	-2.643796617	 0.4359273294	 0.091803
H	 0.5933786269	-2.6916052909	 2.1306239819	 0.087705
H	-1.1902365335	-1.762666305	 0.54375839	 0.089561
H	-0.8273808735	-0.7535861084	 1.9295687532	 0.093015
H	-0.8391578952	 0.149431877	-0.7079184689	 0.0651
H	 1.4456217479	-0.2697531116	-1.6071312013	 0.050446
86.9521	232.8461	299.5575	330.5158	383.2227	431.4529	459.6504	585.7128	632.2064	722.2106	753.2327	785.5628	829.0113	844.0578	865.3832	888.1598	910.9156	937.3487	962.3222	994.014	996.9703	1025.597	1042.0449	1059.2197	1090.4907	1125.5648	1127.4476	1150.9895	1155.1078	1177.5672	1219.1367	1224.617	1243.3778	1264.8893	1270.9527	1292.9288	1297.7702	1303.8184	1312.724	1340.8096	1349.0649	1368.0797	1372.2155	1380.0858	1478.5688	1485.1197	1487.4123	1495.1088	1504.8559	3009.7265	3015.1835	3017.7751	3032.3924	3041.4093	3043.3126	3046.2171	3060.7215	3066.1916	3066.7572	3081.5077	3084.5987	3090.8028	3103.577
C1C2CC3CCCC1C23	C1[C@H]2C[C@H]3CCC[C@@H]1[C@@H]23	
InChI=1S/C9H14/c1-2-6-4-8-5-7(3-1)9(6)8/h6-9H,1-5H2	InChI=1S/C9H14/c1-2-6-4-8-5-7(3-1)9(6)8/h6-9H,1-5H2/t6-,7+,8-,9+
