18
gdb 90503	2.0284	1.2834	1.1802	1.208	75.95	-0.2419	-0.0752	0.1667	1191.696	0.143548	-439.030897	-439.020505	-439.019561	-439.066685	36.742	
C	-0.0833367217	 1.3926364427	 0.0707469365	-0.409146
C	 0.2408612556	-0.0971598145	-0.1297033833	-0.027352
N	 1.2025225306	-0.3756096765	-1.2029631765	-0.521694
H	 0.8165187717	-0.0597329421	-2.0882470464	 0.228314
H	 2.047218735	 0.1736138069	-1.0570377205	 0.225336
C	 1.7419097305	-1.8226031183	 1.1719237143	-0.216703
C	 2.1788521747	-0.65972264	 1.5835500865	 0.111836
C	 3.2934746113	 0.1494602546	 2.0597416428	 0.043125
O	 3.2382765036	 1.3495368002	 2.2105428353	-0.268213
C	 0.7453773248	-0.7173925849	 1.1727207716	 0.322709
O	-0.2567076946	-0.7637567337	 2.1669373328	-0.473382
H	 0.8096574554	 1.9351184159	 0.4034481472	 0.129644
H	-0.4363726974	 1.8432960751	-0.8624966773	 0.105979
H	-0.8678043247	 1.5319148024	 0.822178695	 0.111811
H	-0.6842148138	-0.628109989	-0.3870353414	 0.091803
H	 1.9293347825	-2.8620094771	 0.959043034	 0.162651
H	 4.2214589184	-0.4202944985	 2.2752983055	 0.095248
H	-0.2444199419	 0.0709048068	 2.6466111339	 0.288034
49.0806	76.4445	121.8668	159.2097	165.3168	218.1977	249.3645	261.7977	324.8126	348.2411	424.2872	464.1051	519.7407	585.4889	590.7337	656.2053	789.9723	824.2065	874.5042	919.2585	987.9306	1021.0967	1028.0276	1085.8398	1102.7357	1120.9857	1145.5	1232.5468	1285.4233	1321.4912	1350.0904	1398.1947	1408.7254	1411.8441	1491.6112	1506.619	1654.1259	1766.7761	1781.8576	2912.3079	3023.6433	3032.9064	3098.253	3100.0873	3277.1091	3472.5127	3553.9188	3815.4399
CC1[NH2+]C2[C-](C=O)C12O	C[C@@H](N)[C@]1(C=C1C=O)O	
InChI=1S/C6H8NO2/c1-3-6(9)4(2-8)5(6)7-3/h2-3,5,7,9H,1H3/q-1/p+1	InChI=1S/C6H9NO2/c1-4(7)6(9)2-5(6)3-8/h2-4,9H,7H2,1H3/t4-,6+/m1/s1
