14
gdb 14664	15.30634	0.5189	0.50506	0.0006	82.22	-0.2314	-0.026	0.2054	2065.9464	0.104522	-382.466352	-382.456787	-382.455843	-382.50377	31.015	
O	-0.0147845219	 1.4625077947	 0.0101817671	-0.407746
C	-0.0041888428	 0.0411126384	 0.0022750176	-0.244305
C	-1.3710217431	-0.4589425307	 0.0126605039	 0.313747
C	-2.4942451376	-0.9079696613	 0.0209685113	-0.202943
C	-3.7583021515	-1.4082462751	 0.0303520561	-0.202943
C	-4.8815017965	-1.8573307684	 0.038657693	 0.31373
C	-6.2482459336	-2.3576286792	 0.0490281858	-0.244292
O	-6.237417377	-3.7790374154	 0.0414077486	-0.407749
H	 0.9023532426	 1.755408764	 0.0035051257	 0.292702
H	 0.511202291	-0.3518651281	-0.8898960829	 0.124272
H	 0.5282018192	-0.3615890325	 0.8800071528	 0.124274
H	-6.7637690881	-1.964545732	 0.9410742916	 0.124275
H	-6.7806236535	-1.9551797931	-0.8288246403	 0.124275
H	-7.1545010671	-4.0721127713	 0.0479628498	 0.292704
5.1783	60.8556	89.0807	138.3067	201.3709	214.289	248.7427	281.6693	381.8173	403.9151	566.6012	579.799	584.2491	684.2408	919.5397	1020.4382	1024.101	1052.0774	1062.9205	1232.3467	1238.9187	1245.1738	1249.855	1288.4211	1452.3996	1469.8681	1499.0476	1499.2181	2282.8108	2391.3182	2959.7418	2959.9556	2978.0092	2978.2651	3817.5695	3817.6162
OCC#CC#CCO	OCC#CC#CCO	
InChI=1S/C6H6O2/c7-5-3-1-2-4-6-8/h7-8H,5-6H2	InChI=1S/C6H6O2/c7-5-3-1-2-4-6-8/h7-8H,5-6H2
