20
gdb 114400	2.95315	1.1409	1.12168	3.8016	78.74	-0.2375	-0.0003	0.2372	1224.7483	0.171444	-403.144026	-403.135522	-403.134578	-403.177551	32.176	
C	-0.145678551	 1.5684186262	 0.0609441278	-0.384676
C	 0.0291764882	 0.048961069	-0.0349087101	-0.199803
C	 0.7622429153	-0.5346953328	 1.1700924777	 0.011839
C	-0.0468537055	-0.6298601815	 2.5069882601	-0.20937
N	 0.0693606952	-2.1246870115	 2.4780718295	-0.130635
C	 0.9473290526	-2.0872355397	 1.2546714756	-0.012278
C	-0.0192403768	-3.0537528144	 0.5314064165	-0.389633
C	-0.9394010751	-2.8168167957	 1.7526838675	 0.38218
O	-2.0939501258	-2.9995401965	 2.0068900179	-0.318202
H	 0.8239075902	 2.0752831062	 0.1162308801	 0.117707
H	-0.6792929368	 1.9600036435	-0.8099508943	 0.119473
H	-0.717391362	 1.8485612307	 0.9523191396	 0.123161
H	-0.9568155663	-0.4215372247	-0.1366051073	 0.109324
H	 0.5861541077	-0.2019465196	-0.947092169	 0.101879
H	 1.7166003324	-0.014034231	 1.2970157643	 0.078311
H	 0.4476000048	-0.2005408675	 3.3812818627	 0.117414
H	-1.0847408217	-0.2847662886	 2.4773244269	 0.127101
H	 1.9750516842	-2.4323648478	 1.383410017	 0.083776
H	-0.4544166616	-2.7384564645	-0.418327259	 0.137083
H	 0.359674452	-4.07363275	 0.4267343264	 0.13535
63.8559	105.5411	177.9234	191.8549	240.6689	292.0059	396.7941	433.8312	495.326	528.2885	672.7943	722.3551	769.9014	815.7171	828.3018	862.6445	936.1241	953.822	973.8918	987.1421	1009.3899	1036.7611	1081.687	1090.5434	1121.3136	1132.8198	1173.1901	1208.7266	1209.5848	1241.5131	1257.0195	1291.0481	1304.3799	1336.5141	1346.1387	1392.6111	1413.0007	1444.1962	1485.7539	1500.6218	1502.6981	1507.4605	1886.645	3018.5758	3032.9509	3044.7983	3056.0671	3060.6429	3075.1364	3089.7648	3099.6739	3108.612	3111.0304	3135.7034
CCC1CN2C1CC2=O	CC[C@H]1CN2[C@H]1CC2=O	
InChI=1S/C7H11NO/c1-2-5-4-8-6(5)3-7(8)9/h5-6H,2-4H2,1H3	InChI=1S/C7H11NO/c1-2-5-4-8-6(5)3-7(8)9/h5-6H,2-4H2,1H3/t5-,6-/m0/s1
