20
gdb 58702	1.88707	1.74997	1.13036	5.0385	78.86	-0.2379	0.0216	0.2596	1157.1196	0.171438	-399.312461	-399.302891	-399.301947	-399.346464	35.848	
C	-0.0178015417	 1.537148279	 0.1484642925	-0.412199
C	-0.0817158811	 0.0039836446	 0.0855991416	-0.04186
N	 0.5441828855	-0.6615140372	 1.2354178804	-0.521324
C	-1.5380268105	-0.5155248965	-0.0773079524	 0.193121
C	-1.6874487289	-2.0692761986	 0.0236090187	-0.273579
C	-2.3322056238	-1.8303501381	 1.4091313119	-0.14905
N	-2.4309032213	-0.3827047228	 1.100068114	-0.341445
C	-2.1245090694	 0.068212591	-1.2960998745	 0.280742
N	-2.5690013185	 0.5067837435	-2.2691020379	-0.357729
H	 1.0224492717	 1.8653060321	 0.2344928344	 0.114902
H	-0.4525654593	 2.0022332758	-0.7403869101	 0.15271
H	-0.5570760068	 1.9173853427	 1.0251271044	 0.111238
H	 0.4576726934	-0.3341702309	-0.8080409978	 0.101947
H	 1.5529667195	-0.5743460697	 1.1681245848	 0.236655
H	 0.2825881994	-0.1866391509	 2.0952082749	 0.222887
H	-2.365894996	-2.4835139253	-0.7218696475	 0.12514
H	-0.7416752732	-2.6076587602	 0.0237647935	 0.128356
H	-3.3055361593	-2.2993521873	 1.5835370315	 0.107124
H	-1.6574448372	-2.0783994477	 2.2342891639	 0.107662
H	-2.1282912425	 0.2679038367	 1.8161621234	 0.214702
84.344	141.039	164.4725	189.196	205.0388	230.8467	262.4808	295.408	372.8087	436.4977	504.3925	534.4899	566.6253	606.9467	670.7547	772.166	858.2916	887.7124	905.4123	943.6891	968.1414	989.5474	1019.4879	1056.6496	1059.612	1131.57	1158.2423	1171.289	1201.0062	1225.7161	1249.5649	1273.0034	1318.6275	1346.9689	1377.0398	1407.5395	1411.6165	1467.6991	1492.9569	1498.2887	1519.7966	1658.7267	2348.4189	3026.2126	3035.4733	3039.5578	3082.9293	3095.5938	3101.587	3121.8066	3168.4427	3492.1457	3533.4236	3571.1249
CC(N)C1(CCN1)C#N	C[C@@H](N)[C@]1(CCN1)C#N	
InChI=1S/C6H11N3/c1-5(8)6(4-7)2-3-9-6/h5,9H,2-3,8H2,1H3	InChI=1S/C6H11N3/c1-5(8)6(4-7)2-3-9-6/h5,9H,2-3,8H2,1H3/t5-,6+/m1/s1
