14
gdb 27442	2.60962	1.78326	1.17543	3.2025	74.78	-0.2415	-0.0778	0.1637	999.6569	0.10346	-429.069384	-429.061923	-429.060979	-429.101314	28.183	
N	 0.0820530921	 1.2562404263	 0.4485389263	-0.519516
C	-0.0783841497	-0.0285381348	 0.0376524966	 0.412412
N	-1.2575663364	-0.569876561	 0.1100065684	-0.340987
C	-1.4696704828	-1.921654663	-0.0928260115	 0.282637
N	-2.4843640096	-2.4624080932	-0.6436592922	-0.512894
C	-0.4724168823	-2.8286436741	 0.5555984789	 0.021148
N	 0.7928558337	-2.7756623682	 0.3789440646	-0.195751
C	 1.377651294	-1.8024482305	-0.4062970369	 0.086715
N	 1.092589619	-0.5543705009	-0.5128247066	-0.28257
H	 0.8998486926	 1.7496470273	 0.134500353	 0.271633
H	-0.7462121697	 1.7815238008	 0.6728022388	 0.270205
H	-3.0898986379	-1.7342433873	-1.0325444273	 0.220375
H	-0.8640795061	-3.5915910715	 1.2305544187	 0.149068
H	 2.2719294434	-2.1476871798	-0.9253626208	 0.137524
95.2818	153.5425	258.4663	307.9757	373.9009	404.8112	415.7327	467.7009	516.6511	558.1756	603.9466	698.8039	760.6516	839.6384	858.9336	917.7812	931.4921	968.5305	1017.5912	1050.0373	1101.4811	1208.9659	1361.3357	1374.6753	1386.5387	1440.6758	1575.3879	1625.502	1675.0416	1687.7513	1719.6956	3122.4835	3137.1317	3441.4326	3611.5491	3744.3209
NC1=NC(=N)C=NC=N1	N[C]1[N][C]([NH])C=NC=N1	
InChI=1S/C4H5N5/c5-3-1-7-2-8-4(6)9-3/h1-2H,(H3,5,6,9)	InChI=1S/C4H5N5/c5-3-1-7-2-8-4(6)9-3/h1-2H,(H3,5,6,9)
