18
gdb 83940	2.37689	1.70114	1.46888	2.4313	72.54	-0.241	-0.0118	0.2292	993.0161	0.148387	-439.062867	-439.055074	-439.05413	-439.094961	30.035	
C	 0.0232949073	 1.435043676	-0.1119286757	-0.339288
N	-0.003972972	-0.0198567533	 0.0449658142	-0.097679
C	-1.2818905711	-0.5391894337	 0.6549894968	-0.142802
C	-1.3276014399	-2.0427413641	 0.3769167848	-0.074474
O	-0.2763589712	-2.7084388655	 1.066832873	-0.26381
C	 0.9635746072	-2.0107368718	 1.071846476	-0.074474
C	 0.7326761438	-0.5110493069	 1.2660248463	-0.142801
C	-0.5991111857	-0.2914533263	 2.0196274403	 0.438091
O	-0.9222954635	 0.1894830838	 3.0630090004	-0.319179
H	 1.032273173	 1.7408949062	-0.4032433648	 0.128796
H	-0.6613598502	 1.7172399503	-0.9169499525	 0.128796
H	-0.2597622592	 1.9945588775	 0.7955150832	 0.119172
H	-2.1997306797	-0.0116905933	 0.387626061	 0.094118
H	-2.2568342878	-2.4858115228	 0.7474887757	 0.120201
H	-1.2593634042	-2.2020258147	-0.7092430368	 0.105507
H	 1.5414507681	-2.4327556798	 1.899534414	 0.1202
H	 1.5141951585	-2.1632817191	 0.1319962593	 0.105507
H	 1.6305719867	 0.0418125974	 1.5493896149	 0.094118
112.5877	177.8642	216.7899	259.1573	281.1415	308.2306	442.0093	460.4323	486.1082	563.6509	647.2909	771.6276	799.8427	839.9334	860.9174	920.0284	1001.7427	1001.7641	1020.4555	1061.4139	1073.01	1130.4735	1143.056	1154.4244	1169.289	1199.1627	1217.7354	1263.3043	1271.4953	1305.7996	1321.3486	1372.2133	1409.7324	1456.0825	1485.083	1495.3249	1497.2336	1502.6736	1892.4978	2966.6314	2997.6669	3003.753	3075.3911	3086.333	3088.0353	3103.5374	3105.4472	3114.7449
CN1C2COCC1C2=O	CN1[C@H]2COC[C@@H]1C2=O	
InChI=1S/C6H9NO2/c1-7-4-2-9-3-5(7)6(4)8/h4-5H,2-3H2,1H3	InChI=1S/C6H9NO2/c1-7-4-2-9-3-5(7)6(4)8/h4-5H,2-3H2,1H3/t4-,5+
