17
gdb 63256	2.70295	1.45968	1.19613	2.0176	72.38	-0.2782	-0.0454	0.2328	1093.1398	0.134789	-455.184707	-455.176106	-455.175162	-455.218124	32.367	
C	-0.0674881677	 1.5472018919	 0.2719128111	-0.406718
C	 0.0121023277	 0.05121106	 0.0118502705	 0.415659
C	-1.335420727	-0.6141688039	-0.219307657	-0.406709
O	 0.8540093956	-0.1836037063	-1.1281035835	-0.236831
C	 1.9381034484	-0.9025662656	-0.7646525019	 0.307063
N	 2.8249967867	-1.2339923901	-1.5969862999	-0.517262
C	 1.8145263308	-1.1659505036	 0.7132660942	 0.307103
N	 2.5649978638	-1.7881549879	 1.5125527102	-0.517265
O	 0.6658948903	-0.5845540036	 1.1217659007	-0.236855
H	 0.9349944122	 1.9526021042	 0.4268304229	 0.138143
H	-0.5256143674	 2.0498585819	-0.5831070924	 0.139704
H	-0.6695295334	 1.7383621226	 1.1633288016	 0.139747
H	-1.8266730678	-0.1684198901	-1.0873984269	 0.139709
H	-1.1976595354	-1.6828201213	-0.3991117223	 0.138139
H	-1.9716943883	-0.4809187955	 0.6587695767	 0.139742
H	 3.561571523	-1.7703451453	-1.1394603142	 0.228316
H	 3.3807009386	-2.1558484974	 1.0237004901	 0.228314
57.4049	102.7588	200.2765	239.072	318.2749	339.4302	345.211	356.1935	429.4656	507.8438	580.2824	628.2086	629.6072	753.3228	757.5811	828.8053	851.352	904.7921	915.2781	931.8474	999.7517	1005.6717	1033.1566	1111.2046	1159.953	1252.0426	1254.5407	1318.0558	1388.6283	1405.7889	1419.4626	1470.5817	1475.1719	1492.8123	1495.6852	1759.3318	1779.2977	3054.506	3059.2395	3136.8486	3139.1427	3141.5102	3144.2151	3492.0442	3499.8741
CC1(C)OC(=N)C(=N)O1	CC1(C)OC(=C([NH])O1)[NH]	
InChI=1S/C5H8N2O2/c1-5(2)8-3(6)4(7)9-5/h6-7H,1-2H3	InChI=1S/C5H8N2O2/c1-5(2)8-3(6)4(7)9-5/h6-7H,1-2H3
