15
gdb 31422	4.12163	1.17438	0.91927	3.4412	75.33	-0.2171	-0.0481	0.169	1209.1044	0.113281	-453.976417	-453.968481	-453.967537	-454.009331	28.813	
C	-0.0089687211	 1.4266667097	 0.0285422106	-0.233838
O	 0.0225149069	-0.0027817062	 0.031073617	-0.259597
C	 0.6301685455	-0.6299633763	 1.0439707593	 0.451995
C	 0.6721331172	-1.986902354	 1.068241901	-0.285771
C	 1.3222847754	-2.6665946622	 2.1514923015	 0.395838
N	 1.4365683023	-3.9178666324	 2.3024378701	-0.545388
O	 1.8799073377	-1.7884240649	 3.1314378102	-0.218987
C	 1.7677405103	-0.4695897065	 2.9863869343	 0.137168
N	 1.1946076573	 0.1601510666	 2.0325361843	-0.36007
H	 0.9999963314	 1.8462203788	 0.0046053925	 0.139275
H	-0.5486466051	 1.696692651	-0.8798039622	 0.136946
H	-0.5330834296	 1.814076057	 0.9059299551	 0.13929
H	 0.2255091795	-2.5845297338	 0.2870633981	 0.1297
H	 1.9430485856	-4.1440796198	 3.1568681066	 0.223302
H	 2.2386175167	 0.065299343	 3.8068219015	 0.150137
79.5368	144.9821	151.0522	196.7814	234.8491	396.499	429.6393	451.5258	557.234	621.9031	676.9738	746.5179	755.4557	814.2804	849.2618	863.5625	963.7538	970.5058	1023.5665	1089.4675	1162.6953	1175.1633	1202.4405	1274.1521	1303.8845	1361.6434	1422.6773	1484.7064	1489.5192	1497.1473	1625.319	1681.0706	1765.5274	3048.2988	3123.1493	3152.1027	3183.2662	3244.1288	3510.326
COC1=CC(=N)OC=N1	CO[C@H]1C=C([NH])OC=N1	
InChI=1S/C5H6N2O2/c1-8-5-2-4(6)9-3-7-5/h2-3,6H,1H3	InChI=1S/C5H7N2O2/c1-8-5-2-4(6)9-3-7-5/h2-3,5-6H,1H3/t5-/m0/s1
