13
gdb 130825	4.48398	1.07345	0.8661	6.9025	67.82	-0.2399	-0.0905	0.1494	1216.7653	0.089937	-452.776691	-452.769051	-452.768106	-452.809982	26.7	
O	-0.0978254503	 0.0365396464	 0.0032577559	-0.219408
C	-0.0374491556	 1.2359805216	 0.0089102675	 0.082947
C	 1.3282536864	 1.9663906089	-0.0013930655	 0.200241
O	 2.3607289922	 1.334822636	-0.0161034274	-0.288168
C	 1.3031239018	 3.4379432471	 0.0076991306	 0.261827
N	 0.1478741819	 4.1203123314	 0.0241186686	-0.28235
N	 0.5218509383	 5.3994193935	 0.0279033178	-0.170934
C	 1.8740134022	 5.5694898433	 0.0144679201	-0.011416
C	 2.4200185571	 4.3104481264	 0.0010280652	-0.271117
H	-0.9359843844	 1.8813447353	 0.0218918635	 0.116984
H	-0.1876498439	 6.114571928	 0.0398071113	 0.288153
H	 2.3178861266	 6.5520776425	 0.0156618687	 0.151967
H	 3.4597486178	 4.0318413994	-0.0117553262	 0.141275
55.3272	85.6962	159.0571	198.916	295.3406	391.2754	497.7847	555.6598	574.9631	674.5282	732.0492	792.8299	835.8086	886.2127	924.9895	946.3025	1014.5104	1023.1907	1081.9877	1110.7802	1214.7565	1319.3286	1394.3816	1401.8397	1462.4139	1493.3096	1559.1946	1779.852	1832.7627	2961.7561	3268.204	3295.2145	3657.5046
O=CC(=O)C1=NNC=C1	O=CC(=O)c1n[nH]cc1	
InChI=1S/C5H4N2O2/c8-3-5(9)4-1-2-6-7-4/h1-3H,(H,6,7)	InChI=1S/C5H4N2O2/c8-3-5(9)4-1-2-6-7-4/h1-3H,(H,6,7)
