19
gdb 9520	2.74185	1.80111	1.52546	2.3614	72.06	-0.2612	0.0318	0.293	955.5832	0.16494	-365.072533	-365.063921	-365.062977	-365.105388	31.823	
C	-0.0922979337	 1.6078744216	 0.0062590153	-0.394832
C	 0.0761501345	 0.0848574864	 0.014270007	-0.232706
C	 0.7549670464	-0.4881106285	-1.2418598359	 0.177798
C	 2.1674183202	 0.0510144296	-1.4710899545	-0.451583
C	 0.6064461376	-2.0258453073	-1.3968178007	-0.129021
O	-0.236079369	-1.8381361331	-2.5770926721	-0.259258
C	-0.1252861448	-0.4676933225	-2.4860764798	 0.421643
N	-0.6060064533	 0.4379939735	-3.209660404	-0.552104
H	 0.872163083	 2.1231727048	 0.0416703151	 0.116149
H	-0.6171836299	 1.9336289407	-0.8958686809	 0.154967
H	-0.669003915	 1.9313517729	 0.8780469399	 0.111627
H	 0.6613100081	-0.2252325808	 0.890665984	 0.095987
H	-0.9094884727	-0.3852516801	 0.1198641496	 0.102836
H	 2.7957491367	-0.1241638771	-0.5907340624	 0.115924
H	 2.6403986583	-0.4338727147	-2.330495616	 0.122357
H	 2.1462556577	 1.125090697	-1.6697853854	 0.143846
H	 1.5160255674	-2.5759510787	-1.6518578724	 0.115106
H	 0.0570666045	-2.5413722781	-0.6046593188	 0.115478
H	-1.1632611159	 0.0505505843	-3.9733513681	 0.225786
102.5864	113.8876	168.5173	209.9815	235.2314	278.2	303.294	368.5719	398.3284	509.2046	670.2564	690.9299	755.7756	797.9961	862.5096	887.9998	913.0971	966.824	976.7713	1014.4024	1017.4801	1056.8281	1077.9331	1155.4605	1181.3848	1230.09	1241.6258	1252.462	1315.9209	1367.7157	1378.3191	1413.07	1417.5917	1480.628	1492.9019	1496.8757	1507.2464	1512.9193	1518.5145	1814.873	3012.7181	3035.3487	3044.115	3050.1055	3055.051	3102.2511	3108.3404	3114.3532	3124.9732	3127.8911	3470.8494
CCC1(C)COC1=N	CC[C@@]1(C)CO[C]1[NH]	
InChI=1S/C6H11NO/c1-3-6(2)4-8-5(6)7/h7H,3-4H2,1-2H3	InChI=1S/C6H11NO/c1-3-6(2)4-8-5(6)7/h7H,3-4H2,1-2H3/t6-/m0/s1
