18
gdb 19931	3.60542	2.29264	1.84298	1.8547	69.34	-0.2426	0.0723	0.3149	781.9837	0.156814	-347.78198	-347.775715	-347.774771	-347.812323	25.407	
C	 0.031052213	 1.5268315692	 0.2948191552	-0.282733
C	 1.3164690709	 0.8064248418	 0.0011883327	-0.027565
C	 2.199507905	 0.3626692183	 1.1681532288	-0.254952
C	 1.3703300153	-0.6449276918	 1.9941939138	-0.064046
C	 0.5017553784	-0.14209179	 3.165625228	-0.086964
O	-0.7170867721	-0.338287643	 2.4200887348	-0.291199
C	 0.0105179579	-0.848548429	 1.2690598742	 0.109618
C	 0.0021324028	 0.0403436848	 0.0378283505	-0.046187
H	-0.1799546096	 1.8615708034	 1.3043076232	 0.126191
H	-0.3687709909	 2.1716520659	-0.4800720441	 0.108564
H	 1.8020164667	 1.010336452	-0.9471999281	 0.082142
H	 3.1004948939	-0.1222834851	 0.7784636149	 0.101414
H	 2.537584838	 1.2076427238	 1.7801548686	 0.102183
H	 1.9341186402	-1.550543376	 2.2222023874	 0.078697
H	 0.5274634417	-0.7663166783	 4.0675974018	 0.098141
H	 0.6474862889	 0.9067721464	 3.4577068115	 0.094581
H	-0.2990629355	-1.8734683277	 1.0395304185	 0.071926
H	-0.4644389447	-0.3281055949	-0.8683392418	 0.08019
103.4661	211.0716	333.377	366.2954	506.2575	635.4611	656.7616	737.4142	791.2357	820.0932	850.3641	876.2153	893.5109	919.0378	941.5826	993.7575	1003.6708	1028.8984	1033.4482	1052.2052	1080.3466	1108.9505	1112.0244	1127.5776	1164.8792	1197.0529	1205.9917	1237.9488	1258.6749	1308.9274	1321.6368	1336.7047	1352.505	1368.6198	1394.4035	1488.682	1498.0123	1525.7691	3001.9304	3032.592	3044.0457	3048.7154	3068.7997	3099.4549	3136.2352	3161.355	3176.3335	3221.0694
C1C2CC3COC3C12	C1[C@H]2C[C@H]3CO[C@H]3[C@@H]12	
InChI=1S/C7H10O/c1-4-2-6(4)7-5(1)3-8-7/h4-7H,1-3H2	InChI=1S/C7H10O/c1-4-2-6(4)7-5(1)3-8-7/h4-7H,1-3H2/t4-,5+,6+,7-/m1/s1
