20
gdb 106191	3.70924	1.41558	1.31328	1.4358	81.06	-0.2198	0.0822	0.302	1063.005	0.172553	-365.964064	-365.956614	-365.95567	-365.995949	30.184	
C	 0.1108434817	 1.5392478595	 0.1408828731	-0.376259
C	-0.0626136035	 0.0329957807	-0.0721346436	-0.320667
C	 0.6937469263	-0.5028840952	-1.2527379528	 0.365985
C	 0.8776010805	-2.0121833695	-1.6140347604	-0.152146
C	 1.0337370215	-1.9989738427	-3.1161773654	-0.088246
C	 0.4715908824	-0.6918756852	-3.64147651	-0.175401
N	 0.7614425892	 0.2272739963	-2.5336642661	-0.160355
C	 2.0156510323	-0.1923220985	-1.8721063456	-0.127283
C	 2.2223162856	-1.688692552	-2.2341116357	-0.08789
H	 1.1573573897	 1.7893520891	 0.3440200099	 0.113805
H	-0.196068155	 2.0921837096	-0.74997206	 0.138152
H	-0.4873792116	 1.8818566926	 0.9902548496	 0.106613
H	 0.2600536289	-0.5129874034	 0.8241367237	 0.100388
H	-1.1281418155	-0.2041179007	-0.2031417934	 0.100617
H	 0.5753610906	-2.8636262136	-1.0207602833	 0.086858
H	 0.9997529047	-2.925431471	-3.6764920734	 0.089168
H	 0.96826119	-0.3439699641	-4.5532698028	 0.104545
H	-0.6085029214	-0.7294281366	-3.8179610381	 0.104363
H	 2.7757029564	 0.5457389291	-1.6480132391	 0.089227
H	 3.1469795172	-2.2466960544	-2.2112511664	 0.088526
80.048	177.1282	186.3011	267.2066	372.9459	411.2876	576.0125	603.5472	716.5855	734.2761	758.456	782.424	796.5687	838.0599	840.5578	860.8727	898.0316	938.9368	971.7133	986.6331	999.8344	1012.8354	1018.3781	1028.0646	1057.8677	1087.2942	1112.7707	1131.309	1132.7848	1208.9862	1218.827	1240.3225	1258.0054	1294.5427	1302.6321	1344.7579	1381.1256	1406.876	1441.1959	1485.8894	1493.9853	1498.9814	1511.1921	3006.2273	3038.383	3043.2325	3045.3618	3090.4683	3106.0159	3128.8603	3187.2505	3193.6064	3211.3277	3225.1131
CCC12C3C4CN1C2C34	CC[C@@]12[C@H]3[C@H]4CN1[C@@H]2[C@@H]34	
InChI=1S/C8H11N/c1-2-8-6-4-3-9(8)7(8)5(4)6/h4-7H,2-3H2,1H3	InChI=1S/C8H11N/c1-2-8-6-4-3-9(8)7(8)5(4)6/h4-7H,2-3H2,1H3/t4-,5+,6-,7+,8-,9?/m0/s1
