15
gdb 12752	3.27238	1.86289	1.4987	5.1668	65.57	-0.2704	0.0236	0.294	872.0087	0.118201	-362.645282	-362.637884	-362.636939	-362.676934	27.298	
C	-0.1064067044	 1.5152516711	 0.0151106328	-0.505256
C	 0.1367582402	 0.0432937755	 0.0222560298	 0.409771
O	-0.735338963	-0.8023061077	 0.76893196	-0.268775
C	 0.6744430403	-0.9120995487	 1.0086564791	-0.036055
C	 1.2325876746	-1.8425982746	-0.0723463969	-0.260732
C	 0.6912825519	-0.8229714464	-1.148331893	-0.222749
C	-0.2724745321	-1.295341059	-2.128816094	 0.284495
N	-1.040283952	-1.6650065045	-2.909996559	-0.326319
H	 0.7718885189	 2.0558174671	-0.3511470355	 0.129563
H	-0.9527805293	 1.7605496466	-0.635611659	 0.15009
H	-0.339628136	 1.8622043888	 1.0248234544	 0.14367
H	 1.019007957	-0.7602362523	 2.0247045317	 0.115959
H	 2.321533185	-1.9127313928	-0.0910565227	 0.121078
H	 0.7906613768	-2.8396481757	-0.0948242446	 0.137685
H	 1.516830062	-0.3216213474	-1.6605648629	 0.127574
116.735	130.594	191.3228	259.06	302.0416	376.4208	459.2919	518.5145	585.2554	659.9976	735.5374	798.0337	873.5179	898.052	914.3004	972.7989	1035.3075	1044.1525	1065.5445	1098.2566	1149.4474	1183.0926	1195.2262	1263.162	1268.6229	1331.0815	1406.5294	1459.4458	1475.6314	1485.5854	1496.8515	2356.7434	3039.4609	3079.9549	3085.4212	3104.5882	3127.5921	3146.5379	3194.4413
CC12OC1CC2C#N	C[C@]12O[C@H]1C[C@H]2C#N	
InChI=1S/C6H7NO/c1-6-4(3-7)2-5(6)8-6/h4-5H,2H2,1H3	InChI=1S/C6H7NO/c1-6-4(3-7)2-5(6)8-6/h4-5H,2H2,1H3/t4-,5-,6+/m0/s1
