15
gdb 30979	2.41937	1.46963	0.95135	4.7886	65.25	-0.1928	0.046	0.2388	1180.1545	0.112345	-491.115026	-491.106141	-491.105197	-491.148928	31.542	
C	-0.0987973437	 1.3234584766	-0.0858986027	-0.256947
O	 0.658672541	 0.1289886001	 0.1672096447	-0.273376
C	 0.9496709106	-0.5959771771	-0.9162853037	 0.354491
C	 0.7004191969	-1.8780158196	-1.2159505962	 0.152928
N	-0.0523770133	-2.8816040003	-0.5964967865	-0.610236
N	 1.3560290635	-2.1151871414	-2.4386769361	-0.40206
C	 1.9263967289	-0.9550746195	-2.909905202	 0.486745
O	 2.5145137736	-0.7445518801	-3.9347449159	-0.401053
O	 1.6922895046	-0.0024203123	-1.9323683938	-0.249634
H	 0.4610526481	 2.0064965728	-0.7307851123	 0.151274
H	-1.0583126645	 1.0785054144	-0.5563582548	 0.123296
H	-0.2680662558	 1.7870575856	 0.8865693744	 0.139292
H	-0.6120171145	-2.4881899888	 0.1510360124	 0.257546
H	 0.5331214628	-3.611725727	-0.1977975338	 0.252459
H	 1.2092055917	-2.9174090634	-3.0268483938	 0.275273
72.9206	133.8362	150.7819	187.7684	205.0313	272.4063	288.6797	349.6926	404.4991	466.3351	604.833	634.3831	657.1277	663.3132	758.1971	821.9997	852.2731	949.4967	1020.92	1050.6031	1160.4677	1174.9363	1207.574	1257.0729	1308.3918	1339.4691	1446.8152	1484.4271	1489.0244	1504.5843	1647.7147	1804.6423	1904.0211	3026.9326	3106.8988	3150.5923	3479.2987	3592.8624	3683.098
COC1=C(N)NC(=O)O1	COc1c(N)[nH]c(=O)o1	
InChI=1S/C4H6N2O3/c1-8-3-2(5)6-4(7)9-3/h5H2,1H3,(H,6,7)	InChI=1S/C4H6N2O3/c1-8-3-2(5)6-4(7)9-3/h5H2,1H3,(H,6,7)
