16
gdb 128107	2.20432	1.57902	0.92975	3.9587	82.32	-0.1937	0.0245	0.2182	1213.2102	0.124992	-396.915016	-396.906187	-396.905243	-396.948658	32.361	
C	 0.1415932284	 1.3883429486	 0.1238966352	-0.34503
N	-0.1674154119	-0.0089540351	-0.1184422264	-0.401707
C	 0.527820277	-0.7281195953	-1.0556762035	 0.365892
C	 0.6755106345	-2.1146060815	-1.1797216664	 0.017989
C	 1.4456472243	-2.2690678953	-2.3659257138	-0.102243
N	 1.7573472032	-1.1164864967	-2.9272425689	-0.238694
N	 1.1875163395	-0.183174399	-2.1031019741	-0.270945
C	 0.162212424	-3.0756490889	-0.2886602791	 0.191824
C	-0.2855469387	-3.8717199783	 0.5001989362	-0.446103
H	 1.1993589174	 1.5663060452	 0.3704548075	 0.126924
H	-0.115193932	 1.9945478376	-0.7530021486	 0.133059
H	-0.4730320711	 1.7463634206	 0.9516239672	 0.142375
H	-0.3922891767	-0.5582832316	 0.6981187151	 0.257802
H	 1.7756832639	-3.1963130888	-2.8104894369	 0.116803
H	 1.2765299509	 0.7893675477	-2.3380279375	 0.271854
H	-0.6811041426	-4.5865231293	 1.1775471041	 0.180199
78.0295	114.7937	162.8283	175.0016	226.3911	299.9453	396.0051	432.9443	450.6248	497.4193	512.4733	567.342	620.7126	663.4882	669.4895	733.5993	749.7848	892.9549	947.4982	1068.1747	1087.4231	1145.5683	1163.6366	1216.22	1233.1086	1337.513	1354.6762	1423.642	1465.9802	1488.9543	1501.1322	1524.4034	1577.9171	1637.9716	2219.5277	2988.2852	3055.5603	3131.0251	3250.3269	3504.7142	3606.5003	3691.6437
CNC1=C(C=NN1)C#C	CNc1c(cn[nH]1)C#C	
InChI=1S/C6H7N3/c1-3-5-4-8-9-6(5)7-2/h1,4H,2H3,(H2,7,8,9)	InChI=1S/C6H7N3/c1-3-5-4-8-9-6(5)7-2/h1,4H,2H3,(H2,7,8,9)
