23
gdb 114817	2.5418	1.29254	1.13633	0.9569	86.03	-0.2412	0.0813	0.3225	1247.4117	0.205162	-388.262523	-388.253123	-388.252179	-388.296586	35.843	
C	 0.1199495772	 1.2058237982	-0.3562353651	-0.236292
O	 0.0209628353	-0.0787544424	 0.2142875987	-0.242316
C	-1.2857846736	-0.5925506495	 0.212034874	 0.108051
C	-1.8963312819	-1.1125025016	-1.1270277471	-0.281243
C	-2.2595367579	-2.4538400483	-0.4264168076	-0.063123
C	-1.2465167306	-3.5901553156	-0.6809696425	-0.217222
C	-0.3062283397	-2.9857853843	 0.4040112562	-0.280435
C	-1.4312704593	-1.9934692664	 0.8404771779	 0.336116
C	-1.9127824894	-2.0901070503	 2.2712915201	-0.505481
H	 1.1664398968	 1.5137122916	-0.2900951336	 0.125094
H	-0.1840320737	 1.2129998432	-1.4138548388	 0.107458
H	-0.5010881842	 1.9384450126	 0.1836595975	 0.102382
H	-1.9689752862	 0.1235733547	 0.6988474526	 0.054687
H	-2.7382446396	-0.5340229987	-1.5137472299	 0.095935
H	-1.1547912959	-1.2251844278	-1.9242165145	 0.099963
H	-3.3215003723	-2.7010770371	-0.3826320588	 0.057368
H	-1.6367021755	-4.5698402661	-0.3905592426	 0.095415
H	-0.8502995372	-3.6685571054	-1.6982889062	 0.091514
H	-0.0001234625	-3.6832793908	 1.1874907918	 0.094429
H	 0.5853304969	-2.4860872649	 0.0214371837	 0.11542
H	-1.1429847671	-1.7299703241	 2.9649846687	 0.122331
H	-2.815883538	-1.4906471509	 2.4344796877	 0.108368
H	-2.1453081414	-3.125453316	 2.5453462578	 0.111583
77.9252	100.6627	173.1883	187.1007	217.0138	228.9773	312.2255	326.3773	373.6158	446.4551	493.3229	589.6883	654.4464	747.5078	782.6024	833.8417	858.3873	890.0855	929.6496	958.2078	982.2423	1008.7678	1026.343	1045.9543	1081.1961	1130.68	1152.9068	1160.6219	1182.5286	1187.6573	1193.7877	1218.4155	1245.4474	1247.2678	1259.84	1274.3133	1282.3729	1309.8763	1343.4965	1394.2684	1408.6949	1474.5438	1479.4542	1482.8858	1486.7931	1491.8523	1493.2343	1500.831	1509.2644	2952.5431	2973.0018	3016.4115	3019.7009	3043.9385	3050.9562	3067.8608	3080.7963	3085.153	3086.0547	3093.4087	3110.3716	3111.6129	3126.9952
COC1CC2CCC12C	CO[C@H]1C[C@H]2CC[C@@]12C	
InChI=1S/C8H14O/c1-8-4-3-6(8)5-7(8)9-2/h6-7H,3-5H2,1-2H3	InChI=1S/C8H14O/c1-8-4-3-6(8)5-7(8)9-2/h6-7H,3-5H2,1-2H3/t6-,7+,8-/m1/s1
