15
gdb 19779	3.21202	2.58552	1.74058	2.4588	64.2	-0.2423	-0.0314	0.2109	754.4461	0.120551	-362.632573	-362.626512	-362.625568	-362.662585	24.336	
O	 0.0144783887	 0.0302769758	 0.0873524225	-0.319184
C	-0.0185284326	 1.2337044801	 0.0501118417	 0.400198
C	-1.2575488985	 2.0912656417	-0.072380024	-0.150001
C	-1.5045407905	 3.1713733422	 0.9707817537	-0.30573
C	-0.7575284928	 3.5013132338	-0.2856159907	 0.002626
N	 0.7212531158	 3.5183746394	-0.3345593356	-0.103199
C	 1.432759935	 3.2269149706	 0.908256169	-0.249707
C	 1.187980454	 2.1438025623	-0.0897437118	-0.136367
H	-2.1031992236	 1.6512462401	-0.5863017776	 0.116547
H	-2.526733903	 3.5298813265	 1.0304809668	 0.129374
H	-1.011456012	 3.1185513844	 1.932494475	 0.129891
H	-1.2107208281	 4.1713638837	-1.0062295353	 0.110981
H	 2.4288509914	 3.656854142	 0.9676210998	 0.130698
H	 0.9036458641	 3.2085357067	 1.853959441	 0.125695
H	 2.0071329121	 1.7593647506	-0.6909206045	 0.118176
159.7882	200.5165	389.3418	434.0619	476.1276	575.5136	642.8734	697.3078	736.3496	778.1396	819.0989	856.7795	873.7398	926.208	977.5632	989.7584	1039.8732	1061.0469	1073.0051	1104.3849	1106.7346	1114.127	1154.6523	1185.8241	1193.862	1262.8397	1312.6152	1344.6312	1350.6703	1476.6651	1524.5539	1835.9297	3123.9504	3146.9642	3153.4137	3180.8631	3193.7369	3210.4565	3231.8162
O=C1C2CC2N2CC12	O=C1[C@H]2C[C@H]2N2C[C@@H]12	
InChI=1S/C6H7NO/c8-6-3-1-4(3)7-2-5(6)7/h3-5H,1-2H2	InChI=1S/C6H7NO/c8-6-3-1-4(3)7-2-5(6)7/h3-5H,1-2H2/t3-,4+,5-,7?/m0/s1
