17
gdb 76065	2.21759	1.41324	1.19475	3.3864	76.47	-0.2393	-0.0308	0.2085	1134.4644	0.13265	-421.798109	-421.788802	-421.787858	-421.832331	34.334	
C	-0.0280378654	 1.4781279308	 0.1773109513	-0.484323
C	 0.0482140522	-0.0040436534	-0.1166869975	 0.422057
O	 1.1042537658	-0.5392983171	-0.4181098368	-0.350882
C	-1.2211118557	-0.7671245112	-0.0399584943	-0.225793
C	-1.3236243245	-2.0700984744	-0.83877025	 0.131217
O	-0.2994666333	-2.484100745	-1.650587844	-0.414783
C	-1.2489797922	-2.1594962826	 0.6659216321	-0.286522
C	-0.0939152215	-2.6851936084	 1.3230088828	 0.354634
C	 0.8594139922	-3.1569366779	 1.8834338474	-0.442889
H	 0.9602340751	 1.9280210063	 0.07889161	 0.146803
H	-0.7269568882	 1.9655563239	-0.5120553707	 0.14483
H	-0.4125313679	 1.6421009799	 1.1903951822	 0.146792
H	-2.1223316388	-0.1780182482	 0.0889545822	 0.100083
H	-2.2917632504	-2.2787860278	-1.2836772953	 0.120632
H	 0.5180645876	-2.068953703	-1.316785806	 0.312339
H	-2.1906728544	-2.3473385869	 1.1744754054	 0.12504
H	 1.7076706693	-3.5696908549	 2.3705820812	 0.200766
67.4129	116.3346	128.2126	137.2198	226.8073	257.2723	326.7272	375.2466	454.0518	501.2737	572.7826	599.9022	651.2614	653.1032	659.5056	672.9188	733.5934	771.1882	841.9076	951.961	972.2259	988.0223	1050.0519	1063.4332	1117.1349	1133.5852	1192.8455	1239.3929	1347.7161	1366.5704	1377.1191	1404.4514	1462.3615	1474.1256	1492.8091	1752.8301	2239.1865	3035.6628	3096.1369	3142.1005	3155.3146	3160.2214	3173.5168	3504.9212	3586.3958
CC(=O)C1C(O)C1C#C	CC(=O)[C@H]1[C@@H](O)[C@H]1C#C	
InChI=1S/C7H8O2/c1-3-5-6(4(2)8)7(5)9/h1,5-7,9H,2H3	InChI=1S/C7H8O2/c1-3-5-6(4(2)8)7(5)9/h1,5-7,9H,2H3/t5-,6+,7-/m0/s1
