17
gdb 7733	3.46016	1.78082	1.22184	5.4693	74.04	-0.2126	-0.0229	0.1897	979.3372	0.143662	-363.912539	-363.904907	-363.903963	-363.944357	28.79	
C	-0.1139290315	 1.4844948467	 0.0704995755	-0.488211
C	 0.0024910526	-0.0111601021	-0.0172985162	 0.372534
C	-0.0172115581	-0.683239856	-1.201942427	-0.290201
C	-0.021523733	-2.1357982334	-1.2675936673	 0.370338
O	-0.0340423788	-2.7726451895	-2.3074033362	-0.360749
C	-0.0930237343	-2.8387449136	 0.094979757	-0.302365
C	 0.6119332896	-2.0340360995	 1.1845558114	-0.184501
N	 0.1090258011	-0.6637366721	 1.1838464552	-0.336119
H	 0.786095975	 1.9230093609	 0.519062893	 0.133158
H	-0.2558183169	 1.9240106324	-0.9171077678	 0.146563
H	-0.9637807503	 1.7672712503	 0.7023874187	 0.141845
H	-0.1023144219	-0.1370010527	-2.1330711178	 0.089049
H	-1.1553253294	-2.9550692888	 0.3487521278	 0.124812
H	 0.3365198692	-3.8385098492	 0.0024357961	 0.122581
H	 0.441540169	-2.4706866041	 2.1728129673	 0.111862
H	 1.6985357641	-2.0405520969	 0.996443352	 0.108355
H	 0.3731761034	-0.0942757925	 1.9730715783	 0.241049
119.8545	138.9037	185.8459	242.2189	311.1778	435.1169	463.0419	488.5668	522.065	572.0153	606.1861	678.4235	781.4592	838.8835	905.3615	920.3495	1010.2346	1031.5578	1058.4653	1070.4153	1125.1415	1175.8651	1204.8139	1249.0193	1260.3129	1344.5183	1372.5043	1392.1992	1412.7117	1455.5021	1478.0357	1480.3044	1499.0694	1546.3316	1657.0155	1758.6958	2967.2999	3027.9767	3028.8259	3079.8804	3080.9879	3114.6318	3146.8343	3207.7838	3614.0063
CC1=CC(=O)CCN1	CC1=CC(=O)CCN1	
InChI=1S/C6H9NO/c1-5-4-6(8)2-3-7-5/h4,7H,2-3H2,1H3	InChI=1S/C6H9NO/c1-5-4-6(8)2-3-7-5/h4,7H,2-3H2,1H3
