14
gdb 125537	5.56591	1.34372	1.08971	1.0876	69.47	-0.2428	-0.0089	0.2339	1039.659	0.104448	-429.069318	-429.062423	-429.061479	-429.100727	25.747	
C	-0.0253261514	 1.4312530003	-0.0093950587	-0.483945
C	 0.0038476929	-0.0589487195	 0.0088368965	 0.349116
N	-0.075622323	-0.766837998	-1.1230002643	-0.333996
N	-0.0117766918	-2.0411514296	-0.6346448252	 0.036091
C	-0.0201870028	-3.353228289	-1.0264064769	 0.025992
N	 0.0794130893	-4.1400891374	 0.0150600911	-0.200682
N	 0.1535644898	-3.3044117631	 1.1038091201	-0.37345
C	 0.0986347487	-2.0060968838	 0.7236779471	 0.515885
N	 0.1132099374	-0.7702949988	 1.1827767875	-0.431314
H	 0.8875903454	 1.8376072439	 0.4367680929	 0.143192
H	-0.1153187694	 1.792899394	-1.0345863459	 0.143101
H	-0.8687415584	 1.8049454639	 0.5793499118	 0.143184
H	-0.0973437765	-3.6927862411	-2.0448702883	 0.173094
H	 0.2352767497	-3.6934428215	 2.0257677022	 0.293732
104.3322	153.2194	290.084	294.8752	353.1616	402.1672	530.6218	591.5112	653.1046	688.1618	767.5856	813.1957	828.3566	846.1861	990.6291	994.1633	1027.0194	1066.1056	1069.3866	1223.4854	1239.6591	1339.8771	1356.3546	1385.3668	1401.7117	1427.5191	1475.5955	1478.7502	1524.1463	1562.3584	1658.8873	3049.2974	3106.4805	3150.0182	3299.3334	3704.677
CC1=NN2C=NNC2=N1	Cc1nn2cn[nH]c2n1	
InChI=1S/C4H5N5/c1-3-6-4-7-5-2-9(4)8-3/h2H,1H3,(H,6,7,8)	InChI=1S/C4H5N5/c1-3-6-4-7-5-2-9(4)8-3/h2H,1H3,(H,6,7,8)
