17
gdb 83017	2.98745	1.24638	0.94356	3.6452	81.61	-0.2407	-0.0505	0.1902	1231.6568	0.136838	-380.874542	-380.866582	-380.865638	-380.907051	30.143	
C	-0.0430601191	 1.4885418252	-0.0091739719	-0.41719
C	-0.0075097945	-0.0140133553	-0.1265474037	 0.028085
C	 0.7640776784	-0.7169173973	-1.1945025768	-0.173571
N	 1.2700422336	-0.6610309507	 0.1974778966	-0.117872
C	 1.1620454462	-2.0290612264	 0.7482269939	-0.204271
C	 0.5484270449	-2.8735553625	-0.3416339764	-0.189915
C	 0.3565279229	-2.1365313003	-1.4455593053	 0.241075
C	-0.1696689011	-2.5892333718	-2.6843584417	 0.197611
N	-0.5909289588	-2.9277297839	-3.7088855137	-0.335763
H	 0.8946805766	 1.9256342356	-0.3616172241	 0.131367
H	-0.86682572	 1.9040580189	-0.5986676027	 0.124808
H	-0.1842904296	 1.7905388829	 1.0341076699	 0.125941
H	-0.912288882	-0.53061292	 0.1962850204	 0.090581
H	 1.2988712962	-0.1672328638	-1.9638930319	 0.111365
H	 2.1605633564	-2.3961524976	 1.021987469	 0.130186
H	 0.5634837599	-2.0287593911	 1.6683290754	 0.127851
H	 0.2928874402	-3.9199619819	-0.2303737773	 0.129712
114.5008	155.8987	194.0133	218.11	262.4461	334.425	402.1803	445.883	518.5197	566.1328	645.9225	755.0419	783.8913	792.2221	845.2037	912.0377	945.3752	965.0708	1019.4653	1053.7788	1058.5901	1072.1444	1148.2305	1164.8781	1180.4821	1206.5871	1254.4182	1273.9744	1332.8336	1335.9372	1408.9636	1434.5383	1484.0629	1487.6609	1495.2899	1663.2495	2341.384	3012.1198	3036.9974	3045.0379	3097.9817	3102.0553	3125.8372	3152.178	3219.3611
CC1C2N1CC=C2C#N	C[C@H]1[C@H]2N1CC=C2C#N	
InChI=1S/C7H8N2/c1-5-7-6(4-8)2-3-9(5)7/h2,5,7H,3H2,1H3	InChI=1S/C7H8N2/c1-5-7-6(4-8)2-3-9(5)7/h2,5,7H,3H2,1H3/t5-,7+,9?/m0/s1
