21
gdb 41949	2.25497	1.9339	1.58174	2.0367	76.1	-0.2453	0.0725	0.3178	979.1017	0.187341	-424.247627	-424.240464	-424.23952	-424.278871	29.81	
C	-0.0275737234	 1.5464112496	-0.1387035313	-0.222621
C	 1.4017329809	 2.1092698558	-0.049124057	-0.203893
C	 2.2317663488	 1.4510622311	 1.064305414	 0.090729
C	 1.8114441867	 1.7452794612	 2.5154211642	-0.222571
C	 0.5226881751	 1.0052040527	 2.9012077616	-0.077475
O	 0.5094153198	-0.3348357352	 2.4217841954	-0.264267
C	 0.9433728214	-0.5080998758	 1.08682899	 0.196606
C	-0.0335444665	 0.0137651796	 0.0168917034	-0.226499
O	 2.2330512128	 0.0286259118	 0.8833103075	-0.258685
H	-0.6629831375	 2.0071756383	 0.6222103461	 0.107203
H	-0.4726997461	 1.8195792946	-1.1016904516	 0.095391
H	 1.9261182329	 1.9130694825	-0.9919025451	 0.104903
H	 1.3853668615	 3.1969396408	 0.0856059674	 0.092721
H	 3.2763009582	 1.7529637702	 0.939000667	 0.079969
H	 2.6232331904	 1.3982739338	 3.1631427498	 0.113091
H	 1.6913078549	 2.8217179427	 2.6813093448	 0.095199
H	 0.4406710586	 0.9287492978	 3.9897261919	 0.107555
H	-0.3647267199	 1.5493014452	 2.5526126304	 0.094999
H	 1.0551682499	-1.5908972951	 0.9809449741	 0.088073
H	-1.0389907123	-0.3577428223	 0.2386757831	 0.104157
H	 0.2790589738	-0.4459148791	-0.9285130655	 0.105417
129.7491	218.6086	294.875	338.8646	393.6693	418.9411	433.7961	502.1677	603.709	694.4413	720.6627	781.2208	806.928	848.512	870.114	883.6906	924.3098	948.7009	978.7176	990.3478	1033.1965	1077.2964	1099.8526	1106.6778	1120.486	1166.1423	1197.8335	1223.0914	1256.7226	1275.8189	1296.1011	1337.2471	1348.7677	1368.6312	1370.1783	1387.0913	1393.8157	1398.8094	1411.5002	1428.2834	1468.7095	1474.8758	1482.238	1499.6107	1531.4665	3014.2087	3027.2895	3032.5829	3037.9119	3046.5684	3058.809	3064.9974	3071.652	3075.7037	3079.5414	3088.6933	3098.821
C1CC2CCOC(C1)O2	C1C[C@H]2CCO[C@@H](C1)O2	
InChI=1S/C7H12O2/c1-2-6-4-5-8-7(3-1)9-6/h6-7H,1-5H2	InChI=1S/C7H12O2/c1-2-6-4-5-8-7(3-1)9-6/h6-7H,1-5H2/t6-,7+/m0/s1
