15
gdb 30995	2.00417	1.2097	0.75737	1.2176	67.68	-0.2687	-0.0637	0.205	1432.7796	0.109334	-491.155079	-491.144696	-491.143752	-491.192031	34.743	
N	 1.0705811009	 0.8379042097	-0.5394168114	-0.714696
H	 2.0141335759	 0.5640355508	-0.2786920329	 0.240876
H	 1.0664961529	 1.8549759486	-0.5623342173	 0.257264
H	 0.9457122869	 0.5324171353	-1.5008576331	 0.240888
C	-1.3846896758	 1.6901581185	 1.565416041	-0.408902
C	-1.2571895698	 3.0002392919	 1.4124501423	 0.266291
C	-2.0442742152	 4.0862135418	 2.0607788094	 0.376944
O	-2.9504466286	 4.0170157213	 2.8497208266	-0.33884
N	-1.4725964067	 5.2392678149	 1.5273685234	-0.433157
C	-0.4425016581	 4.9644343444	 0.6418706899	 0.492807
O	 0.2390180284	 5.7245891103	 0.0256964642	-0.359089
O	-0.3190290277	 3.5967123822	 0.5786671114	-0.248334
H	-2.1502528246	 1.3309351835	 2.2415853322	 0.152363
H	-0.7414581422	 0.9981804832	 1.029322416	 0.186032
H	-1.7587398363	 6.1804953636	 1.7454734783	 0.289553
40.4611	59.4887	110.1053	117.1509	149.7122	155.0255	186.645	265.7042	303.8273	397.462	437.5643	583.0343	602.8587	646.871	664.7509	752.8753	770.1295	813.4834	822.1334	934.1665	991.2675	1012.4467	1085.2967	1110.677	1298.2523	1329.0419	1348.3443	1422.4578	1676.4983	1688.8501	1735.5802	1857.6236	1926.2125	3141.8915	3262.4358	3464.4203	3582.7494	3584.1564	3660.6208
[NH3+]CC1=C([O-])NC(=O)O1	N.C=C1C(=O)NC(=O)O1	
InChI=1S/C4H6N2O3/c5-1-2-3(7)6-4(8)9-2/h7H,1,5H2,(H,6,8)	InChI=1S/C4H3NO3.H3N/c1-2-3(6)5-4(7)8-2;/h1H2,(H,5,6,7);1H3
