15
gdb 32389	6.60311	0.86551	0.76896	5.436	78.87	-0.2175	-0.0231	0.1944	1399.492	0.113718	-416.847566	-416.839324	-416.83838	-416.880619	29.981	
C	-0.0271303202	 1.3973415984	 0.0362940246	-0.248073
O	-0.0071455623	-0.0182767863	 0.0176891803	-0.262887
C	 0.6022745836	-0.5809137541	-1.050836584	 0.392761
C	 1.2127668565	 0.0321475492	-2.1359071293	-0.213991
N	 1.6828375691	-0.9616360794	-2.9536107979	-0.327815
C	 1.3849239213	-2.1896857792	-2.4126631143	 0.260062
C	 0.7085347244	-1.9805672023	-1.2208451268	-0.385711
C	 1.7555577174	-3.3916500823	-3.0522893444	 0.20911
N	 2.0681396985	-4.3692482049	-3.592095131	-0.349421
H	 0.9910695457	 1.8094215779	 0.0484417556	 0.121525
H	-0.5649152667	 1.7990656621	-0.8332509953	 0.121523
H	-0.5466244409	 1.6894911078	 0.9495507986	 0.14017
H	 1.3475654293	 1.0698802002	-2.3863782836	 0.133758
H	 2.17295408	-0.8230511642	-3.8201057362	 0.279699
H	 0.3362430742	-2.7408227527	-0.5542269563	 0.129288
75.0157	139.0818	153.6517	210.5681	248.7733	336.935	421.1628	423.4066	519.7249	565.9501	600.6239	633.9986	676.8968	695.8945	716.3652	825.1083	980.9958	995.7025	1071.8554	1139.8361	1180.7739	1188.722	1216.0368	1273.7694	1338.9797	1429.8288	1460.7905	1469.5819	1485.0519	1506.6228	1537.3277	1624.3433	2334.8689	2997.3973	3053.9771	3141.4693	3275.8264	3283.5536	3686.1241
COC1=CNC(=C1)C#N	COc1c[nH]c(c1)C#N	
InChI=1S/C6H6N2O/c1-9-6-2-5(3-7)8-4-6/h2,4,8H,1H3	InChI=1S/C6H6N2O/c1-9-6-2-5(3-7)8-4-6/h2,4,8H,1H3
