16
gdb 62988	2.31246	1.60813	1.28585	3.9561	68.77	-0.2746	0.0182	0.2928	1022.4621	0.122273	-437.856496	-437.848061	-437.847116	-437.889283	31.76	
C	-0.1221037142	 1.5616079709	-0.1286816068	-0.471033
C	-0.0179820675	 0.052854297	-0.0278492168	 0.364334
O	-1.2511567859	-0.5754494758	 0.2193192264	-0.470423
C	 0.6689918924	-0.6851800368	-1.1945862026	 0.005416
O	 2.0014497713	-0.1776014168	-1.2816932703	-0.231326
C	 1.7367171145	-1.2113749382	-0.3369395123	 0.016833
C	 1.1385406963	-0.5509226992	 0.9209456346	-0.258378
C	 1.9857928094	 0.3469133415	 1.68297027	 0.291194
N	 2.6382432856	 1.0837655703	 2.2903650791	-0.335956
H	 0.8384054662	 1.9935761626	-0.4152885506	 0.160701
H	-0.8749215923	 1.8314337431	-0.875530891	 0.129539
H	-0.411827476	 1.9971837687	 0.8347810595	 0.126702
H	-1.7203142196	-0.0736301445	 0.8948532348	 0.290059
H	 0.2044712164	-1.0851444906	-2.0876395597	 0.122705
H	 2.3268429523	-2.1174624864	-0.3941720903	 0.125934
H	 0.6709423012	-1.2900565961	 1.575582106	 0.133699
101.4279	135.6685	213.7137	238.2673	270.7762	287.1465	368.1881	384.7367	402.4186	515.5981	554.3855	582.1979	682.7187	791.4784	860.1203	867.8243	893.928	916.4227	967.1562	1013.8277	1047.5452	1056.2096	1102.462	1117.6791	1155.5518	1218.2324	1233.2617	1255.6723	1316.8344	1389.4215	1394.9159	1412.5098	1484.665	1497.4129	2351.3178	3036.1647	3095.3801	3104.2111	3142.688	3194.5757	3209.2245	3807.5244
CC1(O)C2OC2C1C#N	C[C@@]1(O)[C@H]2O[C@H]2[C@H]1C#N	
InChI=1S/C6H7NO2/c1-6(8)3(2-7)4-5(6)9-4/h3-5,8H,1H3	InChI=1S/C6H7NO2/c1-6(8)3(2-7)4-5(6)9-4/h3-5,8H,1H3/t3-,4+,5+,6+/m1/s1
