18
gdb 39357	2.73316	1.90422	1.31681	4.0177	76.27	-0.2385	0.0246	0.2632	978.969	0.15072	-401.933467	-401.926547	-401.925603	-401.964455	28.198	
C	-0.0010580422	 1.5262554743	 0.2921085951	-0.35109
C	 1.3068644005	 0.845091411	-0.0252684758	-0.09331
C	 2.2598478452	 0.4470972947	 1.0990934356	-0.226591
C	 1.5603957675	-0.1607715022	 2.3490669727	-0.178565
N	 0.6425690902	-1.2771679672	 2.0451280924	-0.324585
C	-0.0101766499	-1.0344856954	 1.0003811696	 0.439519
O	-0.8422550656	-1.8463799504	 0.2628396492	-0.284209
C	-0.8122380915	-0.8890633137	-0.8587743586	-0.187473
C	 0.0227023625	 0.0525175072	 0.0043571924	 0.169405
H	-0.2186959994	 1.8672165993	 1.2985364587	 0.129346
H	-0.4195320432	 2.1525702439	-0.4897060505	 0.121531
H	 1.761643158	 1.0801277849	-0.9830543798	 0.097269
H	 2.9631535812	-0.296698416	 0.7048147324	 0.113117
H	 2.8547056662	 1.3108509054	 1.4181167406	 0.105929
H	 2.3325688439	-0.5362710036	 3.0264856134	 0.112341
H	 1.0288818211	 0.6246324825	 2.9032111434	 0.106768
H	-0.3230093745	-1.3393393829	-1.7267908529	 0.125574
H	-1.81924243	-0.5497079118	-1.113697558	 0.125024
178.9216	209.8465	273.4641	313.2083	377.0887	414.8407	496.765	557.5306	638.8671	716.8509	760.0921	774.3204	846.6019	884.0518	890.4145	933.18	936.751	977.7935	1017.1222	1058.3512	1075.1519	1100.7041	1105.8275	1116.7623	1142.3399	1161.0551	1225.7108	1235.3689	1259.4146	1299.6759	1343.3877	1366.5415	1369.4865	1430.6226	1478.7026	1495.7597	1508.2806	1514.6812	1813.0503	3013.4273	3028.6984	3056.5075	3068.893	3079.2948	3116.3091	3129.706	3153.4149	3213.7676
C1C2CCN=C3OCC123	C1[C@H]2CC[N][C]3OC[C@]123	
InChI=1S/C7H9NO/c1-2-8-6-7(4-9-6)3-5(1)7/h5H,1-4H2	InChI=1S/C7H9NO/c1-2-8-6-7(4-9-6)3-5(1)7/h5H,1-4H2/t5-,7-/m1/s1
