17
gdb 99922	2.19255	1.34821	1.12176	3.0469	68.19	-0.2507	0.0036	0.2543	1155.4835	0.134853	-455.111555	-455.102154	-455.10121	-455.145877	34.178	
N	-0.6088949734	 1.0515322393	 0.0501725431	-0.506178
C	-0.3607327197	-0.2519155952	 0.6369254923	-0.204605
C	 1.0215455146	-0.3937869408	 1.3425804428	 0.179225
O	 2.0571854282	 0.0261368717	 0.4560788147	-0.455506
C	 1.0612949721	 0.5134741344	 2.5043923586	 0.281445
N	 1.0322559261	 1.204743712	 3.4292570587	-0.330421
C	 1.3486523222	-1.8125740286	 1.8136989241	 0.032975
C	 0.3887566579	-2.9203557077	 1.8451429364	-0.176868
O	 1.3235982087	-2.7845816877	 0.7662724512	-0.246954
H	-0.7046316314	 1.7517277687	 0.7805996148	 0.242845
H	 0.197422251	 1.3241241119	-0.5052396993	 0.238685
H	-1.1596195592	-0.4808469363	 1.3488345175	 0.121876
H	-0.385079523	-1.0142279491	-0.1505284875	 0.12462
H	 2.1915588135	-0.7060655259	-0.1603363819	 0.305103
H	 2.229436335	-1.8663934162	 2.4529430011	 0.125445
H	 0.57613847	-3.7568927191	 2.5151012612	 0.134413
H	-0.6524814027	-2.7595348815	 1.5802393023	 0.1339
62.7417	116.5553	149.3692	180.5497	208.5754	269.4859	296.1115	349.8254	394.5251	418.6747	451.4407	508.8936	582.2756	607.1402	711.1059	852.349	875.935	897.1775	910.6767	968.2926	1027.481	1075.2891	1105.1204	1139.9755	1147.5387	1175.5028	1178.6747	1208.655	1299.3446	1348.5248	1386.2123	1409.6403	1431.83	1486.1501	1531.8404	1673.8143	2362.5337	3039.8401	3094.2131	3106.1713	3120.8931	3198.0651	3490.9707	3568.9313	3774.5383
NCC(O)(C#N)C1CO1	NC[C@@](O)(C#N)[C@H]1CO1	
InChI=1S/C5H8N2O2/c6-2-5(8,3-7)4-1-9-4/h4,8H,1-2,6H2	InChI=1S/C5H8N2O2/c6-2-5(8,3-7)4-1-9-4/h4,8H,1-2,6H2/t4-,5-/m1/s1
