19
gdb 88025	2.29581	1.37164	1.08945	4.567	80.2	-0.2472	0.0135	0.2607	1195.9609	0.159436	-382.046025	-382.037132	-382.036187	-382.079798	33.068	
C	-0.1001131237	 1.4962116072	-0.0600462779	-0.410532
C	 0.0647313604	-0.0063133967	-0.0254056499	-0.050136
C	 1.4289933993	-0.6416144982	-0.1906233838	-0.359032
C	 0.7347991122	-0.6816217446	 1.1346882027	 0.330621
C	 1.1305480314	-0.0768150213	 2.4843264372	-0.243862
N	 0.3079042961	-1.1201223565	 3.1547726375	-0.308054
C	 0.2234444716	-1.9160864647	 1.9067797612	-0.208502
C	-1.1121612339	-2.4213020278	 1.5781283549	 0.315293
N	-2.1555720794	-2.8186579614	 1.2789079726	-0.336828
H	 0.7630104525	 2.0035379515	 0.3835980573	 0.114769
H	-0.1981083611	 1.8531515857	-1.0905631038	 0.124641
H	-0.9932240089	 1.8110365881	 0.490044251	 0.129947
H	-0.7637600909	-0.563186932	-0.4573894456	 0.111363
H	 1.509625973	-1.5641572463	-0.7572909413	 0.119683
H	 2.2885993436	 0.0161544858	-0.2854265715	 0.115023
H	 2.2079777471	-0.1438481419	 2.6890510359	 0.099685
H	 0.7941208124	 0.9439676221	 2.6933304486	 0.117445
H	 0.7553486634	-1.6017153716	 3.9262108317	 0.228954
H	 0.928946565	-2.7579874074	 1.8520129833	 0.109523
78.7594	104.1901	155.6576	189.894	211.4238	254.5925	343.5098	402.6909	442.7808	513.6835	556.859	576.1031	689.7396	789.9005	841.0421	874.5484	894.2763	938.9746	977.3465	1010.4534	1023.8379	1046.516	1054.4116	1097.2465	1120.9648	1130.5481	1145.0328	1184.6131	1213.2326	1224.3853	1304.7784	1341.9946	1363.4264	1391.474	1411.3011	1432.0966	1489.7703	1491.082	1507.6675	1521.1093	2354.3042	2993.1499	3003.9468	3031.0739	3064.0918	3097.5632	3097.9652	3117.6695	3139.2431	3202.1558	3541.342
CC1CC11CNC1C#N	C[C@H]1C[C@]21CN[C@H]2C#N	
InChI=1S/C7H10N2/c1-5-2-7(5)4-9-6(7)3-8/h5-6,9H,2,4H2,1H3	InChI=1S/C7H10N2/c1-5-2-7(5)4-9-6(7)3-8/h5-6,9H,2,4H2,1H3/t5-,6-,7+/m0/s1
