18
gdb 68766	2.55206	1.71743	1.20207	4.0429	72.12	-0.2371	0.0157	0.2527	1058.186	0.146726	-439.124984	-439.116149	-439.115205	-439.158087	33.07	
C	-0.1407444289	 1.5150563273	-0.0208232442	-0.48965
C	 0.155352056	 0.0420421925	-0.0104402531	 0.338274
C	 0.4369043229	-0.6804025852	-1.3282853431	-0.223422
N	 1.189804255	-1.8506178553	-0.9114358464	-0.342485
C	 1.4721885007	-1.9273840265	 0.4252268882	 0.412881
O	 2.1201872386	-2.785084532	 0.9843628079	-0.381941
C	 0.8142551417	-0.7140436649	 1.0712378481	 0.202
C	 1.3284876867	-0.2247215217	 2.3891607081	-0.494771
O	-0.6204926827	-0.7786097279	 0.87169288	-0.325479
H	 0.685328162	 2.0761233045	-0.4693645829	 0.128134
H	-1.0447695649	 1.7199996569	-0.6050277072	 0.134012
H	-0.305384104	 1.8830411605	 0.9936864238	 0.138915
H	-0.5003856669	-0.950459028	-1.8303926555	 0.123484
H	 1.0201245049	-0.0430262579	-2.0060795653	 0.111997
H	 1.4069975939	-2.6187469909	-1.5255272757	 0.254832
H	 2.3619015818	 0.1232479038	 2.294697881	 0.132316
H	 0.7109108365	 0.5887085918	 2.774941083	 0.127312
H	 1.3231985767	-1.0477193371	 3.1095766333	 0.153593
117.1617	137.9023	176.1088	198.4317	225.3548	263.9453	300.7853	384.2922	462.9481	492.2678	522.4169	537.1776	669.3166	691.3381	725.2623	789.0387	848.8001	886.8519	955.7548	989.1385	1065.2895	1080.401	1124.9974	1131.2391	1178.4017	1219.3498	1229.9906	1337.0221	1342.1028	1411.6651	1413.165	1441.0427	1464.3613	1474.9086	1484.4406	1492.7819	1509.2994	1514.4634	1830.9513	3012.0735	3039.1615	3048.3551	3051.0279	3100.2572	3114.5486	3133.4489	3138.5997	3647.6217
CC12CNC(=O)C1(C)O2	C[C@@]12CNC(=O)[C@]1(C)O2	
InChI=1S/C6H9NO2/c1-5-3-7-4(8)6(5,2)9-5/h3H2,1-2H3,(H,7,8)	InChI=1S/C6H9NO2/c1-5-3-7-4(8)6(5,2)9-5/h3H2,1-2H3,(H,7,8)/t5-,6+/m1/s1
