15
gdb 20593	3.29872	1.87802	1.27219	3.7855	63.22	-0.2448	-0.0011	0.2437	923.5291	0.119964	-395.981961	-395.974199	-395.973255	-396.014476	27.559	
C	 0.2031180649	 1.5141396286	 0.0006087271	-0.51685
C	 0.0968179357	 0.0277094071	-0.067737526	 0.26431
C	-0.0252899184	-0.8497004948	-1.1288165063	 0.189523
C	-0.0745475029	-0.5581003079	-2.5972564135	-0.176774
O	 0.9636370177	 0.3216489176	-3.0253580976	-0.411731
N	-0.0817594044	-2.1234217757	-0.6393158294	-0.249543
N	-0.0107986354	-2.0944116167	 0.6586537545	-0.125277
N	 0.0977322589	-0.7958881279	 1.0090007131	-0.223755
H	 0.9583410992	 1.832947681	 0.7268246818	 0.133037
H	 0.4896689762	 1.8949634812	-0.9811574046	 0.17096
H	-0.7482726057	 1.9775102586	 0.2867038889	 0.143361
H	-0.0555990491	-1.5141267756	-3.1371876691	 0.120654
H	-1.004846739	-0.0474396498	-2.868715493	 0.120541
H	 1.8019971884	-0.1020139	-2.8119808845	 0.284922
H	 0.1808314939	-0.5566837256	 1.9848593486	 0.276622
65.3787	131.0385	167.3704	235.1882	259.8569	362.6839	376.8405	444.2674	587.9584	662.2449	697.6282	728.0382	771.1928	965.8685	997.4282	1028.9007	1051.8446	1063.7681	1080.6807	1182.4937	1225.5789	1260.7916	1304.2798	1369.4414	1384.2195	1415.9617	1422.0428	1471.3846	1497.8063	1501.9545	1513.7768	1622.6285	3021.5184	3032.7759	3069.9761	3086.8277	3141.4495	3647.0903	3807.9764
CC1=C(CO)N=NN1	Cc1c(CO)nn[nH]1	
InChI=1S/C4H7N3O/c1-3-4(2-8)6-7-5-3/h8H,2H2,1H3,(H,5,6,7)	InChI=1S/C4H7N3O/c1-3-4(2-8)6-7-5-3/h8H,2H2,1H3,(H,5,6,7)
