14
gdb 36571	2.90636	1.10942	0.82985	4.3215	71.56	-0.2816	-0.0269	0.2547	1291.4896	0.099231	-395.685988	-395.676632	-395.675687	-395.721481	32.221	
C	 0.9451733226	-0.2995653957	 1.3201823378	-0.425548
C	 0.4307046286	 0.3532972947	 0.4525163508	 0.297022
C	-0.1718981585	 1.1604428328	-0.6111453138	-0.332578
N	 0.6773753512	 2.197521699	-1.2086123774	-0.260429
C	 1.0888006796	 3.2791431468	-0.3258326959	-0.255396
C	 2.2473587374	 2.9908310312	 0.5584473538	 0.301872
N	 3.1651093682	 2.755982842	 1.2186974761	-0.306022
C	 1.3900835298	 4.4848643023	-1.1252816186	 0.319403
N	 1.6153791505	 5.425331828	-1.7548939564	-0.296883
H	 1.4078225335	-0.866885363	 2.0904039982	 0.216073
H	-0.4945752064	 0.5103539338	-1.4316967681	 0.156095
H	-1.0810292478	 1.6488016074	-0.2383424492	 0.150697
H	 1.4820772077	 1.7926286939	-1.6742071926	 0.253604
H	 0.2359875637	 3.5241148269	 0.3205340153	 0.18209
24.636	80.8992	138.7207	159.8557	179.1672	243.356	315.9591	349.4375	377.0933	479.7534	580.3481	591.2855	597.8916	646.4579	681.1496	711.7803	873.5804	932.1726	955.8075	1011.3118	1088.2783	1138.7567	1257.5021	1292.6747	1347.3236	1367.707	1462.6202	1504.5251	2235.6998	2359.257	2374.7147	3033.0704	3042.3716	3072.9246	3501.1027	3547.9973
C#CCNC(C#N)C#N	C#CCNC(C#N)C#N	
InChI=1S/C6H5N3/c1-2-3-9-6(4-7)5-8/h1,6,9H,3H2	InChI=1S/C6H5N3/c1-2-3-9-6(4-7)5-8/h1,6,9H,3H2
