23
gdb 101872	5.68391	0.51677	0.49281	1.8432	89.18	-0.2564	0.0573	0.3137	2258.5276	0.202384	-388.266711	-388.255294	-388.25435	-388.304141	40.916	
C	 0.0196957972	 1.5726622178	 0.1381909858	-0.381301
C	-0.001285177	 0.0469227118	 0.0190645167	-0.186843
C	 0.694239021	-0.4706902035	-1.2466120574	 0.130074
O	 2.0496819942	-0.0256379682	-1.3154800744	-0.427237
C	 0.599597387	-1.9961181861	-1.382474983	-0.204105
C	 1.2244127599	-2.5285692638	-2.6746671273	-0.172417
C	 1.1808921625	-4.0673095526	-2.7607541775	-0.358144
C	 1.7668539029	-4.5882035715	-3.990039859	 0.293524
C	 2.254490096	-4.9926893632	-5.0116246452	-0.436726
H	 1.0453242171	 1.9479167919	 0.0943223095	 0.127134
H	-0.53747203	 2.0379066234	-0.6824751048	 0.114675
H	-0.4312702051	 1.9040177269	 1.0782967095	 0.108717
H	 0.4882242883	-0.4046041743	 0.8951464958	 0.083654
H	-1.0357010357	-0.3189956664	 0.0289506726	 0.09603
H	 0.2192403867	-0.008859963	-2.1231078511	 0.085904
H	 2.5105435621	-0.3816787957	-0.5468210477	 0.275468
H	 1.0924820329	-2.4580283848	-0.5127695957	 0.082624
H	-0.4561489203	-2.2930212015	-1.3257789547	 0.095228
H	 0.6999089661	-2.1086397151	-3.5411018772	 0.107685
H	 2.2605092928	-2.1858686191	-2.7460540809	 0.122279
H	 1.7064813524	-4.4966713757	-1.8970772007	 0.125571
H	 0.1407574472	-4.4108372278	-2.6798700105	 0.126244
H	 2.6835316918	-5.3593280294	-5.910727153	 0.191961
45.952	70.6255	76.5138	116.0091	142.1448	177.7717	223.1209	274.2066	289.1275	306.4857	349.6672	379.433	466.8375	536.3301	541.7336	614.177	632.7969	742.5754	777.841	826.7221	876.8578	949.795	966.8219	1009.4486	1021.7593	1033.6852	1067.325	1095.6956	1113.6778	1145.18	1161.1311	1251.1949	1260.7963	1288.3503	1311.7415	1319.921	1357.0538	1366.3645	1387.3399	1396.2196	1405.4876	1421.624	1472.445	1474.1298	1484.9313	1495.4738	1505.6057	1509.2706	2238.7143	2989.2435	2997.9732	3010.9862	3022.1793	3035.4538	3037.6656	3039.1195	3047.2314	3054.6011	3101.7857	3102.4145	3122.7791	3508.0808	3788.5541
CCC(O)CCCC#C	CC[C@@H](O)CCCC#C	
InChI=1S/C8H14O/c1-3-5-6-7-8(9)4-2/h1,8-9H,4-7H2,2H3	InChI=1S/C8H14O/c1-3-5-6-7-8(9)4-2/h1,8-9H,4-7H2,2H3/t8-/m1/s1
