20
gdb 91950	2.37388	1.71824	1.36988	1.8929	77.65	-0.2433	0.07	0.3133	1038.3028	0.172352	-403.117114	-403.109196	-403.108252	-403.149174	31.686	
C	-0.2433675682	 1.5443798711	 0.0146593248	-0.393579
C	 0.0134605989	 0.0308180685	-0.0076813793	-0.088549
C	 0.9242644929	-0.3938360519	-1.201755746	-0.260385
C	 2.3134474395	-0.5324055214	-0.609498736	 0.046211
O	 2.719714753	 0.5919794777	 0.186002681	-0.264596
C	 2.2174666182	-0.5772200606	 0.8534998141	-0.004604
C	 0.7702888056	-0.4728864377	 1.2369022265	 0.331987
C	 0.3018272988	-0.2509974719	 2.6236213085	-0.294002
N	 0.287605632	-1.6095188582	 2.0468964249	-0.36963
H	 0.7003339681	 2.0902793112	 0.0779476752	 0.145354
H	-0.7644777368	 1.8580397433	-0.8964584283	 0.106859
H	-0.8658811006	 1.8309783193	 0.8681472752	 0.107144
H	-0.952473432	-0.4836176561	-0.0754922114	 0.068545
H	 0.6187462467	-1.3652700461	-1.6078656551	 0.105246
H	 0.8885701502	 0.3302642988	-2.0218118795	 0.108803
H	 3.1105568677	-1.0205276173	-1.1645561981	 0.094845
H	 2.9137799296	-1.1058702017	 1.497961408	 0.099924
H	 1.0177522596	-0.1014383823	 3.4276139814	 0.119899
H	-0.6450875056	 0.2637424233	 2.7652060778	 0.112256
H	-0.6600197676	-1.8519768776	 1.7666199764	 0.228272
108.882	204.0649	223.4955	248.6993	304.2328	339.551	378.0827	436.2769	495.6658	567.9492	711.514	754.8662	818.1896	857.061	877.8764	887.3427	896.5812	926.8637	952.6563	969.5723	998.0356	1016.1394	1047.7063	1070.4566	1096.1441	1114.889	1133.0505	1145.4174	1225.5179	1240.3913	1253.5154	1267.5906	1296.6227	1318.539	1339.5267	1348.5308	1399.8063	1408.1597	1452.3282	1482.4128	1495.4786	1507.6639	1517.4996	3027.5115	3034.9571	3044.4013	3084.7997	3096.7636	3105.0398	3134.5824	3145.7274	3165.2667	3187.7048	3492.2743
CC1CC2OC2C11CN1	C[C@H]1C[C@H]2O[C@H]2[C@]21CN2	
InChI=1S/C7H11NO/c1-4-2-5-6(9-5)7(4)3-8-7/h4-6,8H,2-3H2,1H3	InChI=1S/C7H11NO/c1-4-2-5-6(9-5)7(4)3-8-7/h4-6,8H,2-3H2,1H3/t4-,5+,6+,7+/m0/s1
