14
gdb 49348	2.32203	1.79851	1.02629	4.3962	64.05	-0.2681	-0.0533	0.2147	1069.2001	0.100623	-473.919403	-473.911413	-473.910469	-473.953147	27.893	
O	-0.2096931452	-0.0303279518	-0.000174933	-0.251649
C	-0.0896802549	 1.1597631454	 0.0078338031	 0.168158
N	 1.1506946641	 1.8454653569	-0.000598345	-0.210014
C	 2.4480622187	 1.2551616069	-0.0201716096	 0.421361
O	 2.6790000612	 0.0825527368	-0.0319814529	-0.296069
C	 3.4635439505	 2.3965419862	-0.0220987039	-0.34753
C	 2.6479693481	 3.6935558476	-0.0015332536	-0.353045
C	 1.1890747477	 3.2601259417	 0.0103707007	 0.430715
O	 0.2156181321	 3.9650220352	 0.0272158231	-0.33323
H	-0.9195934645	 1.883599416	 0.0228091828	 0.140325
H	 4.1148008571	 2.2762834372	 0.84714647	 0.157536
H	 4.0943144316	 2.291361928	-0.9082552167	 0.157521
H	 2.8308055371	 4.3135672469	 0.8798915911	 0.157983
H	 2.8118075565	 4.3296913172	-0.8751459762	 0.157937
49.1897	74.5878	154.5291	212.9689	219.1096	367.1842	475.9929	562.3138	563.9892	574.6733	626.4264	665.8134	740.8383	827.4448	1014.8646	1021.1886	1029.2037	1051.1352	1071.4852	1160.306	1198.041	1246.5316	1270.6808	1312.4991	1331.4108	1427.909	1454.3627	1473.7585	1818.8868	1842.8198	1907.2661	3027.7158	3075.0532	3081.6045	3110.2758	3126.1388
O=CN1C(=O)CCC1=O	O=CN1C(=O)CCC1=O	
InChI=1S/C5H5NO3/c7-3-6-4(8)1-2-5(6)9/h3H,1-2H2	InChI=1S/C5H5NO3/c7-3-6-4(8)1-2-5(6)9/h3H,1-2H2
