17
gdb 32810	3.36444	1.07093	0.82435	1.0252	72.59	-0.2053	0.0079	0.2133	1374.3654	0.135766	-455.164632	-455.155562	-455.154618	-455.199354	32.133	
C	 0.0025889207	 1.4929188033	-0.0510207344	-0.388687
C	-0.0028576275	-0.0242201954	-0.0518747742	-0.040442
O	 0.69151122	-0.4526545996	 1.1266099541	-0.274587
C	 0.7977807873	-1.7750811416	 1.3138355218	 0.344334
C	 1.4147741941	-2.3918610795	 2.3622734713	 0.151001
N	 2.0785393734	-1.9253721877	 3.4838977684	-0.595354
O	 1.2722327777	-3.7655023361	 2.1287218713	-0.164323
C	 0.5941113333	-3.8490203398	 0.979279402	 0.072972
N	 0.2786989947	-2.7114930622	 0.4399697374	-0.346714
H	 1.0264351543	 1.8771634705	-0.0622309055	 0.128666
H	-0.5190068354	 1.8680791199	-0.9365622531	 0.117588
H	-0.4999380066	 1.8821341877	 0.8389280668	 0.128668
H	-1.0238100505	-0.4232660806	-0.0426096283	 0.113778
H	 0.4965044123	-0.428216168	-0.9401837775	 0.11377
H	 1.6351859415	-2.1876754795	 4.3576238989	 0.246967
H	 3.0565631902	-2.1919315998	 3.5182705099	 0.246963
H	 0.3704203706	-4.8367068117	 0.6057251811	 0.1454
54.9683	67.6062	143.2486	166.7241	241.3492	248.9441	304.7129	340.3483	352.1489	525.7911	635.9181	664.3044	720.1238	735.2022	796.8508	812.7008	824.2387	915.1421	957.5028	1027.9871	1089.524	1130.4488	1182.5078	1195.4765	1211.4104	1233.5485	1292.5196	1325.6337	1385.9146	1412.6535	1435.5191	1483.6014	1498.1654	1524.8009	1547.8413	1655.5268	1734.8883	3030.4986	3045.8623	3067.3674	3120.6029	3124.2236	3261.6084	3500.5055	3567.9979
CCOC1=C(N)OC=N1	CCOc1c(N)ocn1	
InChI=1S/C5H8N2O2/c1-2-8-5-4(6)9-3-7-5/h3H,2,6H2,1H3	InChI=1S/C5H8N2O2/c1-2-8-5-4(6)9-3-7-5/h3H,2,6H2,1H3
