14
gdb 22703	2.75632	1.27778	1.02874	2.0381	67.64	-0.26	-0.0535	0.2064	1136.3395	0.097794	-473.689594	-473.681385	-473.680441	-473.723112	29.485	
O	-0.1738782196	 1.4746362998	 0.1256822798	-0.389916
N	 0.0349452801	 0.0825948674	 0.1363213361	-0.305677
C	-1.0413529337	-0.5484599873	 0.0036246207	 0.487248
C	-2.5599167561	-0.5008208581	-0.1057121963	-0.04329
C	-2.4672976202	-1.6251430402	-1.1739303614	-0.253802
C	-1.5170951731	-2.0031397174	-0.0037085814	 0.231191
O	-2.5768423433	-1.5607681138	 0.9493183298	-0.340471
C	-0.7684536793	-3.2646244963	 0.2935480169	 0.039335
O	-0.2273573317	-3.9203863371	-0.5567911892	-0.235446
H	 0.722178442	 1.8115570528	 0.2361522491	 0.314137
H	-3.2596754216	 0.324107494	-0.007236075	 0.128157
H	-3.3575548195	-2.2526996161	-1.2339618536	 0.12703
H	-2.021128567	-1.3924567223	-2.1420062081	 0.131914
H	-0.7465253869	-3.5341110855	 1.3705462524	 0.10959
54.3395	137.6531	148.882	181.5195	253.3616	324.1058	402.0757	447.6894	500.0696	570.8259	694.0286	695.0033	758.9339	780.4713	855.4285	924.529	964.0257	982.8119	1006.3022	1033.4397	1062.4245	1118.08	1186.9011	1202.6234	1212.8253	1321.1351	1404.3997	1417.3641	1477.5835	1823.616	1834.3617	2916.9322	3079.5264	3164.4745	3174.0955	3814.8923
ON=C1C2CC1(O2)C=O	ON=C1[C@H]2C[C@@]1(O2)C=O	
InChI=1S/C5H5NO3/c7-2-5-1-3(9-5)4(5)6-8/h2-3,8H,1H2	InChI=1S/C5H5NO3/c7-2-5-1-3(9-5)4(5)6-8/h2-3,8H,1H2/t3-,5-/m1/s1
