19
gdb 50769	2.94006	1.21518	0.95198	3.95	72.81	-0.2502	-0.0254	0.2248	1248.6439	0.159175	-460.165269	-460.156603	-460.155658	-460.199227	31.693	
O	-0.6522624621	 0.6743819823	 0.6289136252	-0.247424
C	 0.1331725689	 0.9248077772	-0.244317672	 0.168817
C	 1.3365004485	 1.8493455079	-0.0670312294	 0.108864
O	 2.4653864346	 1.0418407797	-0.2624823535	-0.257148
C	 3.6662453153	 1.4091677152	 0.4162379076	-0.065537
C	 3.9734791908	 2.9145897089	 0.4236730648	-0.232029
C	 3.548888905	 3.6593711227	-0.8525334149	-0.198064
C	 2.0479517428	 3.9676394421	-0.9054008943	-0.071764
O	 1.2119617934	 2.8270807883	-1.0605091501	-0.248392
H	 0.0597579939	 0.4952729403	-1.2655235406	 0.097127
H	 1.3140550847	 2.2883840292	 0.9427080891	 0.07594
H	 3.6467139912	 1.0272329416	 1.4470439917	 0.105335
H	 4.4515871089	 0.8670574655	-0.1195553979	 0.118171
H	 3.4956408399	 3.3943914206	 1.2867612669	 0.107324
H	 5.0524655799	 3.0232067691	 0.5828522323	 0.107153
H	 4.0745288505	 4.620989874	-0.8951381601	 0.103365
H	 3.8368913444	 3.0950573352	-1.7466256229	 0.117516
H	 1.7566119266	 4.5187060218	 0.0040337742	 0.095456
H	 1.8219295028	 4.6032388286	-1.7660514661	 0.11529
62.8444	91.4798	143.6936	200.4452	247.1845	315.1779	341.854	358.377	462.8025	512.6964	559.5698	630.8602	783.1148	827.4419	863.1262	961.1508	966.0239	979.7465	991.0994	1049.3176	1079.3096	1107.2475	1117.1801	1154.3973	1158.6541	1227.2121	1254.3959	1294.886	1303.1061	1348.864	1363.3349	1375.0713	1391.7727	1413.6495	1417.151	1419.5917	1471.7533	1488.5557	1499.8088	1512.3372	1852.79	2920.8176	2973.1249	2991.4056	3003.0146	3030.0221	3033.9094	3060.9628	3080.6957	3084.9991	3091.5109
O=CC1OCCCCO1	O=CC1OCCCCO1	
InChI=1S/C6H10O3/c7-5-6-8-3-1-2-4-9-6/h5-6H,1-4H2	InChI=1S/C6H10O3/c7-5-6-8-3-1-2-4-9-6/h5-6H,1-4H2
