22
gdb 120767	2.55327	1.06534	0.88686	2.0504	84.61	-0.2211	0.0801	0.3013	1433.9162	0.193037	-404.284247	-404.274514	-404.273569	-404.319543	35.579	
C	-0.1062306073	 1.5383717552	-0.2445444181	-0.229356
O	 0.0069676955	 0.1444796119	-0.0752264192	-0.221048
C	-1.2416440232	-0.5142488707	-0.1155318294	-0.09568
C	-1.094534217	-2.0106412174	 0.0706363368	-0.01888
C	 0.2331279212	-2.6844797869	 0.0046359591	-0.249433
N	-0.5124892239	-2.6303814145	 1.2610407837	-0.101969
C	-0.0068930579	-1.8014888977	 2.3232332496	 0.07101
C	-0.8040169161	-1.785254736	 3.6014669425	-0.276628
C	 0.5148617819	-2.5189303117	 3.5384415574	-0.276617
H	 0.9025154934	 1.9555606858	-0.2019468465	 0.129418
H	-0.5566635432	 1.7925315756	-1.216791402	 0.107345
H	-0.7171279127	 1.9988060549	 0.5474868699	 0.107794
H	-1.9114872046	-0.1038772381	 0.6603775211	 0.097943
H	-1.7317689183	-0.3338603459	-1.0879304233	 0.093133
H	-1.9668476109	-2.5466884217	-0.3025379349	 0.08944
H	 0.3325388321	-3.6675493068	-0.4489188812	 0.106069
H	 1.0968333279	-2.0336893633	-0.1007265229	 0.127672
H	 0.4917542494	-0.8779800934	 2.0361924339	 0.096091
H	-0.860088893	-0.8587037262	 4.1622334027	 0.104669
H	-1.7046922392	-2.3878828869	 3.6210370553	 0.115592
H	 0.4791352996	-3.601841637	 3.5150747772	 0.117381
H	 1.3709051063	-2.0988771894	 4.0547132784	 0.106055
61.5151	85.8525	98.9584	144.6231	192.0148	234.8349	244.7052	311.8778	361.5493	431.906	487.0172	628.7205	704.9588	782.8382	791.5684	839.645	892.5336	933.5027	946.2155	966.6843	1015.4244	1050.2229	1056.8325	1073.695	1077.5042	1099.6025	1118.4747	1145.364	1153.2707	1168.8124	1186.2328	1198.9529	1205.7975	1227.6764	1231.6011	1281.0024	1337.5392	1395.3615	1412.2697	1422.0245	1456.2709	1478.6035	1485.6502	1494.3478	1499.4031	1508.2843	1523.3982	2947.1372	2972.1451	2974.541	3019.4848	3102.4337	3107.4802	3117.458	3124.871	3135.1199	3140.5299	3193.9742	3219.6785	3233.6715
COCC1CN1C1CC1	COC[C@H]1CN1C1CC1	
InChI=1S/C7H13NO/c1-9-5-7-4-8(7)6-2-3-6/h6-7H,2-5H2,1H3	InChI=1S/C7H13NO/c1-9-5-7-4-8(7)6-2-3-6/h6-7H,2-5H2,1H3/t7-,8?/m1/s1
