21
gdb 7180	2.55301	1.21819	0.92096	3.5594	76.54	-0.2482	0.0345	0.2827	1338.3961	0.187278	-366.304557	-366.294467	-366.293523	-366.341111	35.238	
C	 0.1604804252	 1.3944948798	 0.0302663691	-0.381365
C	 0.0125544636	-0.1291406629	-0.0005267406	-0.16581
C	-1.450167986	-0.5841859353	-0.0059058823	-0.164267
C	-1.641091364	-2.1098656213	-0.024516117	 0.03107
C	-3.114505453	-2.5052225555	 0.1284305847	-0.39665
N	-1.077686846	-2.6998811359	-1.2381987141	-0.269836
C	-0.084805784	-3.6285495295	-1.2412083819	 0.154611
O	 0.4761116213	-4.0663424726	-0.258463414	-0.32683
H	 1.2135665576	 1.6919727083	 0.0301122961	 0.114736
H	-0.3160397667	 1.8575634444	-0.8414124604	 0.11056
H	-0.3056707527	 1.8220382061	 0.9251037081	 0.113653
H	 0.520700799	-0.5305635376	-0.884970068	 0.100363
H	 0.5225088365	-0.568452147	 0.8658760451	 0.107569
H	-1.9590112306	-0.1894706968	 0.8829878467	 0.098142
H	-1.9725902762	-0.1457920423	-0.8697220726	 0.082401
H	-1.0631026477	-2.5538571358	 0.7913645889	 0.124648
H	-3.5262173762	-2.1084582008	 1.0614760512	 0.121007
H	-3.7185195846	-2.1078524141	-0.69639251	 0.107842
H	-3.2251571682	-3.5929115432	 0.138066231	 0.127446
H	-1.4765231641	-2.435195706	-2.1263830814	 0.240883
H	 0.1674532666	-3.951352952	-2.2717571886	 0.069828
15.9369	72.4824	108.2414	155.8995	198.3387	213.4522	245.9448	249.6776	339.626	358.6436	457.3131	507.5783	538.0776	740.9606	760.1687	849.5672	878.9565	900.6966	954.1846	1011.2981	1029.449	1044.6899	1067.7775	1138.737	1157.8756	1178.7223	1213.2107	1268.1492	1300.6621	1328.7996	1364.9475	1371.5988	1397.6974	1408.6305	1413.7434	1432.1659	1477.27	1490.8844	1492.2127	1495.4183	1500.7983	1509.7806	1531.5404	1803.3486	2925.6391	2996.3775	3027.3275	3028.4072	3031.3398	3040.8169	3065.4153	3080.2759	3095.2094	3102.2204	3102.6982	3119.0032	3615.7194
CCCC(C)NC=O	CCC[C@@H](C)NC=O	
InChI=1S/C6H13NO/c1-3-4-6(2)7-5-8/h5-6H,3-4H2,1-2H3,(H,7,8)	InChI=1S/C6H13NO/c1-3-4-6(2)7-5-8/h5-6H,3-4H2,1-2H3,(H,7,8)/t6-/m1/s1
