23
gdb 119777	3.53282	0.81942	0.69323	1.1299	90.22	-0.2247	0.0338	0.2585	1716.8921	0.205075	-388.300669	-388.290623	-388.289679	-388.336226	36.5	
C	-0.0999991819	 1.4502768874	-0.0174663628	-0.222445
O	-0.0011831545	 0.0478325507	 0.0014019016	-0.226619
C	-1.2565837609	-0.5886478377	 0.020747174	-0.156869
C	-1.0969185714	-2.0729871833	 0.0495886101	 0.280456
C	 0.0411888707	-2.7664971548	 0.0474113333	-0.155597
C	-0.1872146156	-4.2624888982	 0.0365763493	-0.000258
C	 0.7182894865	-5.0504083422	 0.989836743	-0.394521
C	-1.6992782435	-4.3687078444	 0.3741405791	-0.217631
C	-2.3051342647	-2.9873258056	 0.0285622737	-0.308977
H	 0.916840076	 1.8501215353	-0.0279503211	 0.126852
H	-0.633129067	 1.8120756349	-0.9115190053	 0.102672
H	-0.6245560224	 1.8365217859	 0.8714175169	 0.102748
H	-1.8438946899	-0.2583305186	 0.8994837044	 0.089916
H	-1.8547016178	-0.2931393105	-0.8633039638	 0.089637
H	 1.0281651263	-2.320322416	 0.0207590802	 0.096996
H	-0.0077292083	-4.6423956672	-0.9821410092	 0.073004
H	 0.5958033364	-4.7010644282	 2.0211373568	 0.11283
H	 0.4822847506	-6.1199464109	 0.9650702156	 0.109027
H	 1.7739147625	-4.9364482265	 0.7208795414	 0.110731
H	-2.1941364078	-5.194198114	-0.1449127284	 0.092352
H	-1.8071008142	-4.5523934688	 1.4493518587	 0.098373
H	-3.0883590861	-2.6808712245	 0.7330631861	 0.095979
H	-2.7726271428	-2.9828106128	-0.9672022339	 0.101347
74.0487	76.3781	106.4364	131.5846	174.8422	230.8306	243.807	305.8871	348.3722	401.4493	403.8948	498.2987	600.1287	686.4696	818.1775	847.3037	871.8705	927.6962	932.3391	964.7941	988.4545	1004.2414	1027.3032	1051.192	1112.249	1126.165	1151.8626	1174.7466	1184.7539	1201.9288	1222.8726	1242.3363	1261.2527	1269.9504	1312.0248	1319.7543	1338.4146	1368.3478	1407.3019	1429.5463	1479.2121	1484.0038	1484.7975	1496.0753	1497.1642	1499.228	1502.653	1521.2384	1726.4589	2913.8706	2922.7357	2966.6008	2967.1139	2998.2203	3008.641	3024.993	3033.1294	3047.5536	3091.1356	3094.2635	3097.1573	3113.6788	3208.2927
COCC1=CC(C)CC1	COCC1=C[C@@H](C)CC1	
InChI=1S/C8H14O/c1-7-3-4-8(5-7)6-9-2/h5,7H,3-4,6H2,1-2H3	InChI=1S/C8H14O/c1-7-3-4-8(5-7)6-9-2/h5,7H,3-4,6H2,1-2H3/t7-/m0/s1
