17
gdb 18286	3.04925	2.18919	1.98025	2.1128	67.9	-0.2307	0.023	0.2537	789.406	0.144306	-363.860338	-363.853213	-363.852269	-363.891666	26.817	
C	 0.0617150582	 1.6038953196	 0.0514310149	-0.417656
C	 0.0748436347	 0.0932891281	-0.0300292699	-0.025019
C	 0.6375292861	-0.6774767018	-1.2023369694	-0.105676
C	 1.4034115546	-0.0070531073	-2.3215845525	-0.091461
O	 2.5420101679	 0.7703328443	-1.8993798335	-0.231261
C	 3.0789644436	 0.5387194886	-0.6786437795	 0.115834
N	 2.6110454317	-0.1173359685	 0.2964578323	-0.252455
C	 1.3359280139	-0.7443935765	 0.1360045375	-0.009517
H	 0.9375313038	 2.0585241799	-0.4148292067	 0.138097
H	-0.8254731509	 2.0043700367	-0.4516179845	 0.11603
H	 0.0294246794	 1.9346951253	 1.0945028326	 0.12601
H	-0.804472521	-0.3688881579	 0.4131643551	 0.089293
H	 0.0848345904	-1.5514454812	-1.5352164691	 0.090771
H	 1.7768991567	-0.7763160586	-3.0083243206	 0.119918
H	 0.7814360973	 0.6843260879	-2.900487422	 0.118757
H	 4.0401238468	 1.0428556267	-0.6004552823	 0.124059
H	 1.2394536269	-1.6475578955	 0.7293414875	 0.094274
110.439	152.6037	172.4431	226.2788	395.965	451.0245	521.2491	586.7482	663.6313	756.4875	761.5184	839.2921	874.8296	929.3655	957.0404	972.8335	984.9687	1042.3142	1074.1599	1100.3638	1114.6633	1145.1383	1166.7398	1195.086	1244.166	1279.8703	1363.5471	1373.0409	1398.6478	1417.9312	1426.2227	1447.3363	1496.5994	1504.5686	1516.7568	1724.7404	3027.0164	3038.8063	3064.2122	3093.979	3123.2572	3140.162	3144.2735	3159.1841	3163.3249
CC1C2COC=NC12	C[C@H]1[C@H]2COC=N[C@@H]12	
InChI=1S/C6H9NO/c1-4-5-2-8-3-7-6(4)5/h3-6H,2H2,1H3	InChI=1S/C6H9NO/c1-4-5-2-8-3-7-6(4)5/h3-6H,2H2,1H3/t4-,5+,6-/m0/s1
