17
gdb 132536	3.07651	1.31925	0.93397	3.2297	79.04	-0.2413	-0.0232	0.2181	1221.0244	0.135548	-426.056166	-426.047628	-426.046684	-426.089926	30.996	
C	-0.0381470532	 1.5253500444	-0.0087075915	-0.497085
C	-0.0206586818	 0.0185584365	-0.0021990356	 0.269957
C	-0.0534431721	-0.7166149248	-1.1817342416	-0.077064
N	-0.0398510373	-2.0565081867	-1.2285932615	-0.325546
C	 0.00727798	-2.6890039909	-0.0861192628	 0.281668
F	 0.0203645701	-4.0244832473	-0.1466045077	-0.074764
C	 0.0449623595	-2.1010252712	 1.1847577398	 0.129988
C	 0.0981870875	-2.9445733937	 2.4284046954	-0.497816
C	 0.0293644543	-0.7131231972	 1.191984446	-0.225618
H	 0.855512459	 1.939176989	 0.4716844082	 0.133952
H	-0.0776729805	 1.9141597324	-1.0296904727	 0.129474
H	-0.9059858601	 1.9190117688	 0.5321725611	 0.133966
H	-0.0928080307	-0.2089894474	-2.1427133006	 0.108627
H	 0.9866037055	-3.5847822063	 2.4353775639	 0.143419
H	 0.1188536168	-2.3189987786	 3.3240464045	 0.123036
H	-0.7689854557	-3.6100814039	 2.493306039	 0.143432
H	 0.0565695187	-0.1892070032	 2.1443326559	 0.100372
58.4801	98.7471	141.207	201.415	258.7353	307.1086	369.9682	460.2185	479.8238	493.5147	583.3701	586.7267	716.4021	780.7576	791.0529	917.772	954.9116	980.2288	999.3701	1031.2022	1065.0237	1069.768	1168.5826	1235.169	1302.9486	1323.1836	1332.9549	1414.7491	1417.313	1435.2174	1471.6905	1479.073	1484.0168	1497.6086	1516.3464	1625.2794	1650.0819	3031.034	3038.3562	3084.3896	3093.8035	3114.1543	3121.9787	3155.1851	3159.9369
CC1=CN=C(F)C(C)=C1	Cc1cnc(F)c(C)c1	
InChI=1S/C7H8FN/c1-5-3-6(2)7(8)9-4-5/h3-4H,1-2H3	InChI=1S/C7H8FN/c1-5-3-6(2)7(8)9-4-5/h3-4H,1-2H3
