17
gdb 52334	3.85379	0.94821	0.83118	4.5052	65.58	-0.2696	0.0124	0.2819	1349.5275	0.135803	-496.11179	-496.103239	-496.102294	-496.14649	29.586	
O	 0.5173278409	 0.25691123	 0.67080398	-0.275451
C	 0.6117711699	 1.4454185535	 0.7076902632	 0.184931
O	 0.6487061394	 2.2026796106	-0.4116433671	-0.180976
C	 0.864568956	 3.6024740368	-0.2531404329	-0.104013
C	 2.3506249051	 3.9379670231	-0.3403839528	 0.104386
C	 2.6389951134	 5.4302175863	-0.075624119	-0.138239
O	 2.9383324022	 5.4555146023	 1.3124740542	-0.230259
C	 3.6399864173	 4.2618197831	 1.5364782344	 0.021135
O	 3.0407905734	 3.2699346583	 0.7181339164	-0.268681
H	 0.6573874264	 2.0472052041	 1.6332208507	 0.08181
H	 0.3126386373	 4.0914418191	-1.0612493013	 0.12447
H	 0.4672980865	 3.9521979676	 0.7083167923	 0.122487
H	 2.7494032458	 3.5991950566	-1.3029313044	 0.103182
H	 3.4935523826	 5.7788052153	-0.6729292434	 0.10946
H	 1.785240622	 6.0876390004	-0.25657224	 0.124798
H	 4.7051236225	 4.3709014356	 1.2663363796	 0.094199
H	 3.5431795992	 3.9822220673	 2.5893263601	 0.12676
51.7805	80.6765	85.7491	169.8185	217.2717	280.5784	353.3735	371.6598	465.7713	662.4976	735.8829	764.4055	841.9522	918.6311	976.6123	998.9408	1026.7714	1031.4215	1051.3121	1084.028	1117.2849	1133.2431	1171.6528	1190.6213	1210.0189	1269.4848	1300.8705	1309.4248	1359.8763	1370.9715	1410.9497	1430.2289	1436.2422	1493.9305	1509.8297	1546.6575	1870.2932	2950.6097	2977.3134	3004.7944	3030.4668	3054.0691	3089.6914	3098.0134	3104.9278
O=COCC1COCO1	O=COC[C@H]1COCO1	
InChI=1S/C5H8O4/c6-3-7-1-5-2-8-4-9-5/h3,5H,1-2,4H2	InChI=1S/C5H8O4/c6-3-7-1-5-2-8-4-9-5/h3,5H,1-2,4H2/t5-/m0/s1
