20
gdb 59282	2.50672	1.44819	0.96946	3.0752	80.85	-0.2155	-0.0033	0.2122	1235.4338	0.170877	-403.202889	-403.193763	-403.192819	-403.236841	34.586	
C	-0.1414359711	 1.5255033466	-0.0028445705	-0.395514
C	 0.0425892119	 0.0036842781	-0.0810948394	 0.040791
C	 0.8441699453	-0.3780340314	-1.3332350402	-0.398298
C	 0.7124189196	-0.5500813432	 1.2093773299	-0.16911
C	 0.0637346923	-0.1539148395	 2.5166361677	-0.156207
C	-0.2737568862	-1.2563886508	 3.1909091197	-0.030011
N	 0.0834642445	-2.4103578086	 2.4800665287	-0.321476
C	 0.6858025104	-2.0969065636	 1.2759091845	 0.413879
O	 1.0866404013	-2.9042396459	 0.4659823587	-0.374001
H	 0.8217590173	 2.031226553	 0.1375173269	 0.11118
H	-0.5777479632	 1.9024271944	-0.933462016	 0.113333
H	-0.8018316634	 1.8208625208	 0.8170943727	 0.112224
H	-0.9533525135	-0.4542306728	-0.1517027431	 0.07924
H	 1.8264718784	 0.1106776114	-1.3231036199	 0.104566
H	 1.0049548184	-1.4552984093	-1.390495691	 0.155084
H	 0.3192972203	-0.047284362	-2.2355185675	 0.102939
H	 1.7688203498	-0.2425228857	 1.1915650826	 0.111748
H	-0.0816343015	 0.8589560692	 2.857170858	 0.110498
H	-0.7453861972	-1.3546149734	 4.1583382394	 0.1293
H	-0.0851395033	-3.3597598372	 2.7675646087	 0.259837
59.7426	93.2658	192.0755	235.5327	246.1594	256.7996	337.8821	348.0647	417.3732	453.9368	513.6743	545.4191	663.1174	689.1505	724.7521	815.8449	858.4106	886.2791	909.696	935.1595	959.0208	969.0722	1029.9411	1080.7337	1120.711	1133.8994	1148.078	1190.4246	1201.2658	1249.2922	1260.2777	1346.8855	1361.2609	1374.5246	1399.5335	1412.8606	1419.9102	1488.8952	1494.8331	1503.1772	1517.7381	1669.7307	1818.7123	2998.0452	3015.6721	3025.233	3030.9412	3087.304	3095.3186	3110.3784	3146.9427	3234.4234	3263.4916	3665.682
CC(C)C1C=CNC1=O	CC(C)[C@H]1C=CNC1=O	
InChI=1S/C7H11NO/c1-5(2)6-3-4-8-7(6)9/h3-6H,1-2H3,(H,8,9)	InChI=1S/C7H11NO/c1-5(2)6-3-4-8-7(6)9/h3-6H,1-2H3,(H,8,9)/t6-/m1/s1
