13
gdb 132296	1.97371	1.8909	0.96601	3.0439	65.07	-0.2232	-0.0206	0.2026	1091.2936	0.090745	-494.11717	-494.109838	-494.108894	-494.148939	28.077	
N	 0.0503694755	 1.3503151864	 0.1215103689	-0.561875
C	-0.0222082477	-0.0079578852	 0.0452976772	 0.420698
C	-1.2112942075	-0.7025486954	 0.024365929	-0.33862
C	-1.2266643218	-2.131881711	-0.0092640388	 0.430613
O	-2.1695744653	-2.8978087855	-0.0293675603	-0.393218
N	 0.105806552	-2.6764572407	-0.0214882052	-0.422458
C	 1.195387953	-1.8972403166	-0.0074364303	 0.421423
F	 2.3358732877	-2.5612481906	-0.0323182222	-0.052765
N	 1.2177073737	-0.6178785684	 0.0242732965	-0.416526
H	 0.9450048465	 1.7658677228	-0.0784960115	 0.268806
H	-0.7685041818	 1.898602045	-0.0773014352	 0.265642
H	-2.1662326992	-0.1946823425	 0.0392543253	 0.101904
H	 0.189262675	-3.6833905782	-0.0474579233	 0.276377
165.9868	181.8238	225.2374	332.4667	347.3039	362.5328	470.502	511.2827	536.4157	603.2389	615.8322	638.1036	702.7953	733.2727	765.9745	827.4122	938.8172	987.6769	1062.0686	1136.621	1209.136	1259.5176	1308.7595	1463.1105	1503.9831	1600.0391	1650.7009	1704.6896	1808.319	3220.4416	3609.5978	3613.7668	3735.0754
NC1=CC(=O)NC(F)=N1	Nc1cc(=O)[nH]c(F)n1	
InChI=1S/C4H4FN3O/c5-4-7-2(6)1-3(9)8-4/h1H,(H3,6,7,8,9)	InChI=1S/C4H4FN3O/c5-4-7-2(6)1-3(9)8-4/h1H,(H3,6,7,8,9)
