21
gdb 36938	4.57739	0.79028	0.74103	2.3856	78.83	-0.2408	0.0824	0.3232	1570.9231	0.183141	-424.206151	-424.197148	-424.196203	-424.241649	32.32	
C	-0.1244099798	 1.5010157943	 0.3047817888	-0.260362
C	-0.1707719766	-0.0091046213	 0.2962432795	 0.09916
C	-1.247478791	-0.7593830149	-0.3606556564	-0.18212
O	 0.0388459636	-0.6412749318	-0.9712816969	-0.237036
C	 1.2944901868	 2.056426564	 0.1460567985	 0.017649
C	 1.3845802091	 3.5911029146	 0.109075206	-0.250775
C	 2.8529380605	 3.8314392482	 0.4666469126	-0.067656
O	 3.2324227591	 2.7674168376	 1.3396307232	-0.264095
C	 2.2523123025	 1.7341440284	 1.3069239284	-0.068822
H	-0.7565353155	 1.874140859	-0.5093436596	 0.103499
H	-0.5594309836	 1.866737252	 1.245467807	 0.100261
H	 0.3507094044	-0.5023097297	 1.1190832653	 0.096359
H	-1.5101749253	-1.7564746387	-0.0097473235	 0.115022
H	-2.0513416832	-0.216292425	-0.8566335872	 0.112399
H	 1.7183952807	 1.6548094033	-0.7824290107	 0.096538
H	 1.1058186893	 4.017075811	-0.858227284	 0.103869
H	 0.7271523794	 4.024596433	 0.8726522129	 0.101425
H	 3.4856478852	 3.814844501	-0.4338416585	 0.093065
H	 3.0231103894	 4.7846573899	 0.9792147292	 0.101902
H	 1.7066049279	 1.7125229595	 2.2651151938	 0.083062
H	 2.7589543969	 0.7695793554	 1.1886996716	 0.106655
45.354	60.8085	71.8878	128.8501	177.9779	316.0061	320.5229	433.1151	457.7457	601.7655	675.9159	791.232	843.1348	856.3288	881.4337	921.2502	922.8532	957.7053	970.9936	977.7697	1045.0595	1077.3505	1086.8275	1126.6103	1138.5643	1155.7583	1159.4997	1176.4264	1189.2294	1231.938	1233.745	1277.4842	1287.2361	1298.3894	1329.2601	1351.7903	1368.1299	1382.7285	1413.7894	1448.234	1469.6955	1489.642	1523.4941	1529.4757	1535.5139	2961.5002	2986.6069	3013.4724	3029.1195	3038.7934	3053.0494	3060.2458	3065.3224	3080.5703	3093.5496	3101.9589	3166.8962
C(C1CO1)C1CCOC1	C([C@H]1CO1)[C@H]1CCOC1	
InChI=1S/C7H12O2/c1-2-8-4-6(1)3-7-5-9-7/h6-7H,1-5H2	InChI=1S/C7H12O2/c1-2-8-4-6(1)3-7-5-9-7/h6-7H,1-5H2/t6-,7+/m1/s1
