16
gdb 42573	3.04085	2.19365	1.68538	4.3839	70.54	-0.2386	0.	0.2386	818.0098	0.127529	-400.712563	-400.706762	-400.705818	-400.74254	24.63	
O	 0.0107016561	 0.0656337494	 0.3364896472	-0.337316
C	-0.0169339474	 1.2314506623	 0.0461772937	 0.399025
C	-1.2029256199	 2.1298277927	-0.0438761351	-0.168036
C	-0.999420813	 3.4915031465	 0.6669294963	-0.096645
C	-0.8639289265	 3.3582616604	-0.8328757871	-0.094507
C	 0.6688949249	 3.402647314	-0.6339327885	-0.015708
C	 0.5087506211	 3.8258271271	 0.8456977007	-0.051274
C	 1.4317391626	 2.654799734	 1.2248058064	-0.201811
N	 1.1556190276	 2.0492726984	-0.1490003334	-0.174657
H	-2.2043537338	 1.7204434947	-0.0401654865	 0.112095
H	-1.8182878398	 3.8919381899	 1.2500542157	 0.106281
H	-1.4522720654	 3.7516504091	-1.6501752765	 0.104975
H	 1.3261509641	 3.87930423	-1.357435101	 0.088117
H	 0.7014916738	 4.8394497069	 1.1989463588	 0.081626
H	 2.4832124586	 2.943840783	 1.3078845322	 0.117983
H	 1.1661949672	 2.0005491817	 2.0594843872	 0.129852
151.1035	326.3348	428.2262	470.6432	607.0476	633.8246	693.4637	753.2495	768.3989	785.575	814.3799	865.8295	881.1414	903.4309	926.2305	934.9272	943.4133	983.1686	1011.1954	1034.5623	1046.4515	1064.5601	1078.2712	1140.8051	1175.307	1188.7021	1199.9757	1246.2362	1263.1482	1280.7775	1298.9073	1315.2095	1368.1847	1510.1943	1850.4597	3053.3683	3105.4897	3110.9819	3141.1458	3199.0523	3207.1319	3218.1685
O=C1C2C3C2C2C3CN12	O=C1[C@H]2[C@@H]3[C@H]2[C@H]2[C@@H]3CN12	
InChI=1S/C7H7NO/c9-7-5-3-2-1-8(7)6(2)4(3)5/h2-6H,1H2	InChI=1S/C7H7NO/c9-7-5-3-2-1-8(7)6(2)4(3)5/h2-6H,1H2/t2-,3+,4-,5+,6-/m1/s1
