16
gdb 49182	3.99531	1.3346	1.18261	3.4372	75.83	-0.2314	-0.0674	0.164	1039.8992	0.126031	-400.718699	-400.711958	-400.711014	-400.750009	26.504	
O	-0.0140224685	 0.0012625254	 0.1596744232	-0.270279
C	 0.0268917057	 1.2073448812	 0.0512771545	 0.059976
C	 1.2643982681	 1.9810545668	-0.028357911	 0.272365
C	 1.3777297421	 3.3184801361	-0.0837925038	-0.171617
C	 2.8377365393	 3.6632060339	-0.0356138209	-0.058117
C	 3.3659767959	 3.3404935096	 1.4068434363	-0.247006
C	 3.6887151036	 1.9615286235	 0.8622425185	-0.032213
C	 2.6356287268	 1.3987594634	-0.0531652077	-0.150956
N	 3.5765114611	 2.4229318202	-0.5696858032	-0.14061
H	-0.9028006384	 1.8153307349	-0.0040896444	 0.072948
H	 0.5708570725	 4.0398723766	-0.0279085427	 0.123427
H	 3.1451994065	 4.6030190124	-0.490139933	 0.092885
H	 4.2860210471	 3.8930545618	 1.6067709436	 0.125384
H	 2.6791460316	 3.4454125669	 2.2517593446	 0.107024
H	 4.5101655633	 1.336698996	 1.1988668283	 0.102771
H	 2.7854154533	 0.3897832314	-0.4195488521	 0.114017
103.2966	176.8623	230.7541	359.9935	433.2063	496.1875	575.1385	684.6472	714.731	763.2249	788.9197	817.6062	831.8877	877.2491	891.8197	935.631	972.4481	1017.9552	1034.8403	1048.4585	1059.8328	1081.2212	1132.9764	1160.0103	1204.2107	1225.2698	1253.0204	1270.4595	1329.4139	1349.0712	1394.4409	1421.5014	1484.7909	1662.6703	1781.2662	2889.413	3054.8578	3119.2335	3133.3008	3161.4004	3190.0813	3207.8532
O=CC1=CC2CC3C1N23	O=CC1=C[C@H]2C[C@H]3[C@@H]1N23	
InChI=1S/C7H7NO/c9-3-4-1-5-2-6-7(4)8(5)6/h1,3,5-7H,2H2	InChI=1S/C7H7NO/c9-3-4-1-5-2-6-7(4)8(5)6/h1,3,5-7H,2H2/t5-,6-,7+,8?/m0/s1
