17
gdb 28794	3.12199	1.64314	1.10177	2.3993	75.39	-0.1713	0.0569	0.2282	1062.1356	0.138957	-418.028173	-418.020358	-418.019414	-418.06068	29.418	
N	 0.2586427245	 1.3999019767	 0.3201495669	-0.611289
C	 0.0574696727	 0.0119687198	 0.1426710785	 0.182762
C	-1.0411242386	-0.8169061769	 0.2136321698	-0.181497
C	-0.6226857206	-2.1791926026	 0.0122215255	-0.335261
C	 0.7290789553	-2.106621983	-0.1803507429	 0.41307
O	 1.7533001389	-2.9493131781	-0.4924772119	-0.283553
C	 2.9613799501	-2.1850679871	-0.3015182183	-0.102068
C	 2.5516288004	-0.6911766002	-0.4081379201	-0.198963
N	 1.1491875679	-0.814399364	-0.0800195717	-0.042278
H	-0.3420846441	 1.7638398137	 1.0505564398	 0.2432
H	 0.060201939	 1.9299728914	-0.5237337397	 0.239302
H	-2.0513366997	-0.4902442477	 0.4130198004	 0.081763
H	-1.2373527862	-3.0635628416	 0.013150462	 0.097006
H	 3.3649738867	-2.4029690541	 0.6948547349	 0.119737
H	 3.6834893839	-2.493383819	-1.0590837777	 0.124852
H	 3.0919635848	-0.0586846866	 0.2998177819	 0.134815
H	 2.6991032151	-0.2895373907	-1.4189487974	 0.118403
97.4891	134.7808	154.6667	215.2468	264.4055	334.196	542.0378	608.1943	619.2492	642.7344	666.9183	727.8951	751.2709	777.8464	794.5589	820.7018	885.5019	949.5737	1018.4616	1026.8641	1064.4931	1137.9078	1166.5483	1204.6508	1217.0287	1247.1002	1252.2097	1305.487	1333.0187	1378.7684	1435.0466	1480.2003	1510.845	1531.6655	1564.0061	1632.4999	1659.8315	3018.3836	3031.6566	3100.2777	3123.1537	3236.2948	3271.4886	3486.0425	3573.8894
NC1=CC=C2OCCN12	Nc1ccc2OCCn12	
InChI=1S/C6H8N2O/c7-5-1-2-6-8(5)3-4-9-6/h1-2H,3-4,7H2	InChI=1S/C6H8N2O/c7-5-1-2-6-8(5)3-4-9-6/h1-2H,3-4,7H2
