21
gdb 53511	4.95687	0.58148	0.55592	0.7578	94.35	-0.2441	0.0421	0.2862	2033.2901	0.17853	-349.90872	-349.89734	-349.896396	-349.947278	39.683	
C	 0.1216054884	 1.5167169123	 0.0050430426	-0.498732
C	 0.0717389125	 0.0613773691	-0.0176240297	 0.122314
C	 0.0410658733	-1.142531286	-0.0367017705	 0.013655
C	-0.018256976	-2.5999335458	-0.0481903572	-0.363957
C	-1.4594862503	-3.1650928376	-0.0429871943	 0.035627
C	-2.2413805628	-2.7406987608	-1.28848173	-0.389449
C	-1.3985918072	-4.7055089269	 0.0990913633	-0.362828
C	-2.705490134	-5.3305706437	 0.2595263031	 0.294476
C	-3.7904538933	-5.8290546383	 0.4006022437	-0.436641
H	 0.9177373148	 1.8779177385	 0.6656418663	 0.146651
H	 0.3098681646	 1.9262750334	-0.9936731741	 0.146208
H	-0.8221975716	 1.9423772381	 0.3637016724	 0.146796
H	 0.5112054613	-2.9846268391	-0.9319831715	 0.121341
H	 0.5244263311	-2.9917427622	 0.8227887549	 0.120522
H	-1.9694037746	-2.7690786654	 0.8431559987	 0.095143
H	-1.7607239983	-3.1220193685	-2.1980924969	 0.107857
H	-3.2619086537	-3.1310040603	-1.2588475892	 0.128594
H	-2.2851365605	-1.6512778395	-1.3637152617	 0.127481
H	-0.8975799621	-5.1282051016	-0.7832523336	 0.126424
H	-0.7693038513	-4.9660866899	 0.9602936175	 0.125701
H	-4.7444132802	-6.2783910857	 0.5237691461	 0.19282
16.1265	47.8047	73.8652	88.7073	153.5659	213.3855	246.3106	267.1893	291.0035	348.4255	354.0471	386.3053	406.6771	452.0432	574.6985	613.4751	634.7159	767.2273	836.9774	877.3372	906.3385	926.863	984.8925	1053.1713	1053.5626	1098.0571	1115.4264	1131.0559	1170.0585	1214.1118	1271.0325	1283.7066	1345.6168	1368.8503	1375.7705	1411.9378	1415.8196	1465.1769	1474.8088	1479.1023	1479.6239	1498.941	1501.8318	2236.4016	2371.3456	2998.8383	3006.7373	3025.0739	3026.2864	3030.105	3035.6468	3052.4542	3084.9043	3085.1996	3102.7545	3127.0999	3507.0813
CC#CCC(C)CC#C	CC#CC[C@@H](C)CC#C	
InChI=1S/C9H12/c1-4-6-8-9(3)7-5-2/h2,9H,7-8H2,1,3H3	InChI=1S/C9H12/c1-4-6-8-9(3)7-5-2/h2,9H,7-8H2,1,3H3/t9-/m0/s1
