14
gdb 29418	4.67646	0.94579	0.79004	4.2403	67.65	-0.194	-0.0119	0.1821	1340.3831	0.101597	-470.057893	-470.049576	-470.048631	-470.091525	29.755	
N	-0.0082944157	 1.4154361087	 0.13826077	-0.595333
C	-0.042247141	 0.0270335862	 0.0229722005	 0.30028
C	-1.1096935491	-0.8323251005	 0.0762983719	-0.188838
N	-0.5442177982	-2.1090113211	-0.0152463755	-0.321372
C	 0.7852931821	-1.9290853236	-0.1175055394	 0.489539
O	 1.5854630186	-3.0207585228	-0.2392068654	-0.235038
C	 2.9250659608	-2.8718383031	 0.0373240049	 0.160318
O	 3.6785787408	-3.7798781406	-0.1134260691	-0.256034
N	 1.1438626904	-0.6715461948	-0.1069893852	-0.395684
H	 0.8290380077	 1.7982198806	-0.2806170099	 0.252241
H	-0.8312827766	 1.8747433618	-0.2265727833	 0.245357
H	-2.1711185657	-0.6833077815	 0.1624917711	 0.124959
H	-1.0215526287	-2.9938529882	-0.003628571	 0.276378
H	 3.1639840147	-1.8602742211	 0.3910471504	 0.143229
52.071	115.9304	149.5523	222.0703	268.1567	330.4498	372.9279	446.1614	469.4872	538.9077	607.8395	654.9713	691.8127	715.8331	764.8953	852.4427	1009.2871	1043.9235	1055.3778	1085.4999	1099.5942	1125.9985	1277.8735	1319.7208	1399.0402	1415.2871	1535.6128	1576.8705	1625.1202	1657.4032	1874.8429	3072.3097	3292.1415	3550.2201	3647.6665	3678.8426
NC1=CNC(OC=O)=N1	Nc1c[nH]c(OC=O)n1	
InChI=1S/C4H5N3O2/c5-3-1-6-4(7-3)9-2-8/h1-2H,5H2,(H,6,7)	InChI=1S/C4H5N3O2/c5-3-1-6-4(7-3)9-2-8/h1-2H,5H2,(H,6,7)
