20
gdb 9956	3.02957	1.43681	1.31533	1.9157	71.5	-0.2407	0.071	0.3117	1057.6774	0.174459	-386.120945	-386.111046	-386.110102	-386.155109	35.781	
C	-0.1344057914	 1.5062545992	-0.1849543777	-0.411653
C	 0.0121306118	 0.0116520432	 0.0056438065	-0.093535
C	 1.3490421884	-0.6679846057	-0.1233952265	 0.056976
O	 2.4459314278	 0.1509337373	-0.4086184307	-0.420318
C	 0.6768708556	-0.5953833976	 1.2364419539	 0.293764
C	 1.2653490019	 0.2972271823	 2.3123431695	-0.477591
C	 0.0860007585	-1.8856722912	 1.7549579295	-0.145586
O	 1.1279041272	-2.6499206966	 2.3557669072	-0.42481
H	 0.7899558344	 2.0365654456	 0.0478347223	 0.135539
H	-0.3866207254	 1.7325913832	-1.226372192	 0.11726
H	-0.9339690144	 1.9102431144	 0.4456297075	 0.110624
H	-0.8261538678	-0.560399583	-0.3869157989	 0.07603
H	 1.37831778	-1.6426979749	-0.6113656762	 0.081018
H	 3.2107904463	-0.2123029962	 0.0504111062	 0.290797
H	 1.8992298896	 1.0780916368	 1.8887298456	 0.12329
H	 0.4769571084	 0.7815867774	 2.9003095226	 0.109963
H	 1.8716581338	-0.3039251989	 2.9961668282	 0.129558
H	-0.7094117356	-1.6647469102	 2.4859806733	 0.083451
H	-0.3785789905	-2.4435892883	 0.9262117256	 0.079291
H	 0.7275908615	-3.3943140066	 2.8142964242	 0.285932
86.9202	123.1416	148.0089	170.2343	203.3046	236.2735	240.7682	283.8636	328.6855	330.5175	368.9476	499.9567	542.7896	583.6619	712.5031	807.9795	862.9539	961.2108	974.6717	979.8011	1040.3811	1058.8891	1066.3915	1106.193	1135.8123	1169.9797	1187.4875	1232.0939	1247.1102	1275.7075	1300.9254	1353.4115	1376.445	1400.5701	1416.6024	1454.499	1467.3797	1486.4713	1496.9319	1502.5775	1515.9954	1519.2541	2957.6243	2987.9523	3033.0639	3037.3239	3088.3355	3090.117	3098.0968	3118.6051	3132.3228	3143.2764	3804.3832	3830.11
CC1C(O)C1(C)CO	C[C@H]1[C@@H](O)[C@]1(C)CO	
InChI=1S/C6H12O2/c1-4-5(8)6(4,2)3-7/h4-5,7-8H,3H2,1-2H3	InChI=1S/C6H12O2/c1-4-5(8)6(4,2)3-7/h4-5,7-8H,3H2,1-2H3/t4-,5+,6+/m0/s1
