19
gdb 101075	2.26732	1.20139	1.0281	2.4607	77.83	-0.2477	0.0326	0.2803	1261.0469	0.156951	-422.97218	-422.962454	-422.96151	-423.006679	36.624	
O	-0.0684780997	 1.4778202212	 0.0952180051	-0.424997
C	-0.0540131503	 0.0923034319	 0.3639923834	-0.067648
C	-1.3680024099	-0.5530928052	-0.0917229149	 0.018621
O	-1.6198021349	-0.1881638323	-1.4485794701	-0.446595
C	-1.3996192144	-2.0662541509	 0.1005833972	 0.149249
C	-1.7304450019	-2.6067131661	 1.4845810253	-0.298724
C	-2.7424320687	-2.7243897266	 0.38512804	-0.302205
C	-0.4648524863	-2.7871317973	-0.7234595123	 0.252876
C	 0.3089560467	-3.3454039369	-1.4583612242	-0.457955
H	-0.4522834445	 1.558037561	-0.7881542007	 0.284586
H	 0.7881083865	-0.4127873763	-0.1383825965	 0.089226
H	 0.0793730137	-0.035386589	 1.4435984237	 0.104899
H	-2.1893290288	-0.107612652	 0.4809581817	 0.091132
H	-1.0563647447	-0.7473144262	-2.0003055339	 0.287431
H	-1.210546523	-3.5004902417	 1.8074505005	 0.13152
H	-1.9001141803	-1.8748421083	 2.2671778926	 0.127059
H	-3.6082389153	-2.0719415214	 0.4017408533	 0.130147
H	-2.9162456194	-3.7016404305	-0.048648349	 0.131247
H	 0.9984409051	-3.8566940133	-2.083870801	 0.200133
69.9395	103.2416	148.2952	161.769	220.1554	255.307	294.265	385.0229	389.8499	425.9751	504.0478	531.1334	565.2151	571.8644	593.2064	667.4696	752.6083	789.173	868.3723	899.2056	946.0244	958.3666	977.0052	1061.7539	1076.5926	1082.718	1091.908	1108.9319	1193.6058	1202.2896	1240.1765	1286.2794	1310.3139	1348.7086	1385.8388	1429.144	1444.3771	1466.7171	1494.9901	1509.0074	2223.7472	2968.2835	3052.3231	3072.7789	3139.0147	3143.7825	3224.8901	3239.242	3499.896	3755.9381	3762.7745
OCC(O)C1(CC1)C#C	OC[C@@H](O)C1(CC1)C#C	
InChI=1S/C7H10O2/c1-2-7(3-4-7)6(9)5-8/h1,6,8-9H,3-5H2	InChI=1S/C7H10O2/c1-2-7(3-4-7)6(9)5-8/h1,6,8-9H,3-5H2/t6-/m1/s1
