21
gdb 65067	2.53295	1.41731	1.06779	2.8249	82.87	-0.2484	-0.0227	0.2257	1197.2866	0.181089	-387.075178	-387.065979	-387.065035	-387.10928	35.503	
C	 0.0293496532	 1.527795153	-0.0251814641	-0.482338
C	 0.0331998459	 0.0077889689	-0.0119419308	 0.266487
C	 1.1405386888	-0.6483642688	-0.8112360707	-0.305911
C	 1.2078549014	-0.6350001543	 0.6970409979	-0.305903
C	-1.320405855	-0.6781720236	 0.0545920854	 0.192809
C	-2.4771487606	-0.0581912012	 0.8452910845	-0.286781
C	-2.5434477589	-0.0715250085	-0.6410527301	-0.286778
C	-1.3597747065	-2.1720582395	 0.0696398809	 0.07738
O	-2.3788305275	-2.8227709066	 0.121260098	-0.280655
H	 1.0561457726	 1.9015198299	-0.0746602545	 0.118661
H	-0.5026807934	 1.9322000739	-0.8924259824	 0.122099
H	-0.4229811585	 1.9477925355	 0.8790965305	 0.122106
H	 0.9416072684	-1.5909623021	-1.3099590947	 0.115754
H	 1.8163798405	-0.0020184463	-1.3613456016	 0.111859
H	 1.9295234627	 0.0203590274	 1.1733074798	 0.111864
H	 1.0547236758	-1.5684961462	 1.2280061109	 0.11575
H	-3.1028131456	-0.7618130954	 1.3817660548	 0.13756
H	-2.2884958304	 0.880248083	 1.3514668705	 0.119164
H	-2.4013985662	 0.8575239904	-1.1787932481	 0.119173
H	-3.2137822844	-0.7841928916	-1.1069932995	 0.137556
H	-0.3802552524	-2.6903310681	 0.030108783	 0.080143
38.2835	107.4342	218.984	219.1955	280.7624	302.0875	336.2353	340.7465	379.4694	382.2858	508.758	512.5065	707.5671	781.4881	797.5627	810.9197	814.1872	859.341	925.3091	927.8448	951.9991	985.378	1000.6078	1043.4321	1052.2082	1066.2696	1074.0451	1077.9826	1099.847	1119.6814	1186.0527	1192.1038	1206.7362	1260.4191	1333.3785	1365.965	1423.9916	1448.6716	1453.5491	1473.7963	1482.3608	1503.5434	1504.6051	1513.9179	1796.7006	2918.928	3035.7944	3098.4626	3105.1834	3129.8278	3131.9974	3148.4128	3148.4372	3204.9286	3216.7581	3233.9779	3247.9033
CC1(CC1)C1(CC1)C=O	CC1(CC1)C1(CC1)C=O	
InChI=1S/C8H12O/c1-7(2-3-7)8(6-9)4-5-8/h6H,2-5H2,1H3	InChI=1S/C8H12O/c1-7(2-3-7)8(6-9)4-5-8/h6H,2-5H2,1H3
