21
gdb 114546	2.64851	1.37308	1.09612	2.6501	77.8	-0.2398	0.074	0.3139	1178.9886	0.182706	-424.207495	-424.198778	-424.197834	-424.240613	33.998	
C	-0.0471340038	 1.4979221507	 0.0061128435	-0.502161
C	 0.052295427	-0.0014322332	-0.0385082636	 0.393978
C	 0.3999659469	-0.8116392025	-1.3160288249	-0.276047
C	-0.4658786029	-1.8248438521	-0.5441845684	 0.076298
C	 0.4011192853	-2.2093561025	 0.6703265389	-0.232024
C	 0.7924365412	-0.7596491634	 1.1023331797	 0.011807
C	 2.2845725963	-0.4998152949	 1.2317284337	-0.111164
O	 2.7729069726	-1.3198163922	 2.2858268647	-0.419297
O	-1.2418123305	-0.6994300565	-0.0230538991	-0.334384
H	 0.9434470968	 1.9546076754	-0.0897738679	 0.120954
H	-0.6772620565	 1.8672793359	-0.8073894348	 0.127143
H	-0.4825250408	 1.8258002385	 0.9560567886	 0.129274
H	-0.1169429595	-0.4123940888	-2.1896816481	 0.105404
H	 1.4409818665	-1.054846333	-1.5451591665	 0.089462
H	-1.0682201356	-2.5911862012	-1.0318399806	 0.074916
H	-0.1769174444	-2.7346719594	 1.4324762431	 0.108139
H	 1.2664951181	-2.824319982	 0.4073522808	 0.100722
H	 0.3196659396	-0.4992014694	 2.0541873557	 0.084546
H	 2.7997426787	-0.7303999611	 0.2852097332	 0.082046
H	 2.4622690479	 0.566048256	 1.4491580335	 0.084769
H	 3.7195037671	-1.1712834043	 2.3682840784	 0.285619
91.5962	157.9613	178.0286	207.1494	273.1718	280.9132	324.1499	390.8309	442.697	485.1664	574.2384	605.8957	705.54	803.6903	833.5752	855.2227	879.6995	899.0748	936.3676	956.9629	985.4646	1019.8971	1046.2452	1067.1432	1084.8356	1097.0988	1129.9241	1166.7372	1185.6762	1219.2258	1233.8639	1255.5101	1263.5236	1281.1559	1294.4395	1310.7899	1350.1635	1362.5836	1415.6367	1460.5645	1480.4174	1483.1849	1494.052	1497.847	1522.6526	2959.6582	2986.1872	3036.8343	3061.824	3065.2976	3068.4526	3104.574	3117.4199	3119.414	3123.4721	3137.7917	3827.0788
CC12CC(CC1CO)O2	C[C@@]12C[C@@H](C[C@H]1CO)O2	
InChI=1S/C7H12O2/c1-7-3-6(9-7)2-5(7)4-8/h5-6,8H,2-4H2,1H3	InChI=1S/C7H12O2/c1-7-3-6(9-7)2-5(7)4-8/h5-6,8H,2-4H2,1H3/t5-,6+,7+/m0/s1
