21
gdb 74621	2.89235	1.42043	1.38112	0.4404	88.02	-0.2072	0.0276	0.2348	1099.12	0.183267	-349.943069	-349.934903	-349.933959	-349.975202	32.841	
C	 0.012884896	 1.5273818979	 0.0670987395	-0.500146
C	-0.0603688231	 0.0362342315	-0.0020169987	 0.319735
C	 0.0027857203	-0.7566479298	-1.0810782954	-0.186661
C	-0.0298115982	-2.1856575097	-0.6640228484	-0.123105
C	 0.9024428909	-2.6569003603	 0.489198195	-0.118174
C	 1.4197000464	-1.483810176	 1.3080221152	-0.227338
C	-0.0258375881	-0.8489321702	 1.2295637072	-0.201754
C	-0.533790409	-2.2591530511	 0.7536765242	 0.354028
C	-1.7169733975	-3.0262111937	 1.2585021398	-0.519881
H	 0.9102133282	 1.8633550172	 0.6037120831	 0.123754
H	 0.0326087379	 1.9752594679	-0.9305457531	 0.121353
H	-0.8453436817	 1.9442436007	 0.610236488	 0.120417
H	 0.1063235531	-0.4279361091	-2.1086941114	 0.084551
H	-0.3116051385	-2.9686041875	-1.3602541242	 0.074445
H	 1.3384382959	-3.6490798425	 0.4478740298	 0.078531
H	 1.6473087856	-1.8039644605	 2.3282934068	 0.098672
H	 2.2484261345	-0.8823083888	 0.9179440232	 0.08728
H	-0.419296985	-0.4214395612	 2.1528834286	 0.058426
H	-2.656021046	-2.5044472191	 1.037910315	 0.121476
H	-1.7674127655	-4.0144252784	 0.7886652986	 0.118453
H	-1.6678994061	-3.1775345674	 2.3435288271	 0.115937
138.4453	176.3927	204.5476	230.7391	247.9645	315.9798	371.675	478.4243	539.4737	569.6838	630.2222	720.2159	759.5774	807.8309	830.9761	850.1233	873.1393	894.1435	932.3961	968.2489	975.3931	1005.2543	1024.3773	1053.0345	1058.5317	1080.1757	1107.1807	1130.5682	1156.4899	1193.5954	1197.1073	1213.6658	1260.5234	1277.4809	1317.0269	1339.987	1408.3034	1412.4315	1450.1835	1477.9695	1482.8759	1488.4876	1491.6634	1499.1637	1690.8012	3010.2065	3017.1517	3033.5389	3052.6203	3074.7136	3091.144	3092.6932	3102.074	3104.6863	3163.7393	3173.427	3196.65
CC1=CC2C3CC1C23C	CC1=C[C@H]2[C@H]3C[C@@H]1[C@@]23C	
InChI=1S/C9H12/c1-5-3-7-8-4-6(5)9(7,8)2/h3,6-8H,4H2,1-2H3	InChI=1S/C9H12/c1-5-3-7-8-4-6(5)9(7,8)2/h3,6-8H,4H2,1-2H3/t6-,7-,8+,9-/m0/s1
