20
gdb 101046	2.18354	1.26447	0.93014	3.133	79.3	-0.2698	0.0335	0.3033	1308.1173	0.170041	-403.148457	-403.138672	-403.137728	-403.18309	36.279	
C	-0.5911966517	 1.3182617531	 0.0186842762	-0.42872
C	 0.0537364304	-0.0688124815	-0.0559355419	-0.080044
C	 1.0184065545	-0.1575583799	-1.2564501267	-0.070189
O	 0.3731328447	 0.0858933881	-2.4953896897	-0.415321
C	 0.7787541843	-0.5140120649	 1.2257041941	 0.176753
C	 1.7856017103	 0.3907425607	 1.9290266354	-0.290194
C	 0.4784928117	 0.0867194789	 2.5936062891	-0.308178
C	 1.1013470183	-1.9219891223	 1.2342193881	 0.246674
N	 1.3452068429	-3.0534481722	 1.2234239711	-0.355995
H	 0.1292182007	 2.0932705329	 0.3028216642	 0.118575
H	-0.9718987653	 1.5762161854	-0.9720936685	 0.142632
H	-1.4255532336	 1.3475636183	 0.7242753444	 0.119779
H	-0.7471803049	-0.8011676665	-0.2319000492	 0.08511
H	 1.7896762906	 0.6157619399	-1.1641424695	 0.111845
H	 1.5283220904	-1.1311199472	-1.2564644848	 0.113849
H	-0.1781911385	-0.6769769053	-2.6972722218	 0.286868
H	 2.6856831191	-0.0699522103	 2.3173874979	 0.141639
H	 1.929368386	 1.3794806146	 1.509601477	 0.132022
H	-0.2710923587	 0.8669411293	 2.63338572	 0.13224
H	 0.4753022689	-0.5888797611	 3.4404140447	 0.140656
62.7637	107.7254	149.8697	196.4633	231.1321	260.8368	278.1825	308.9008	315.4661	385.2052	426.8688	466.1006	577.6707	596.7946	697.0788	786.8032	859.5748	880.5512	912.5589	921.2987	958.9229	974.8992	1063.4757	1069.734	1080.9839	1097.0995	1119.8428	1124.218	1196.3548	1229.1702	1264.9189	1297.7613	1337.3811	1375.1354	1399.2737	1407.5135	1424.7399	1466.4299	1491.6035	1500.2164	1505.9639	1516.4658	2344.3325	3002.9152	3008.6291	3043.3876	3070.2652	3110.2131	3130.6788	3150.6048	3155.1923	3234.3258	3248.4574	3816.3151
CC(CO)C1(CC1)C#N	C[C@@H](CO)C1(CC1)C#N	
InChI=1S/C7H11NO/c1-6(4-9)7(5-8)2-3-7/h6,9H,2-4H2,1H3	InChI=1S/C7H11NO/c1-6(4-9)7(5-8)2-3-7/h6,9H,2-4H2,1H3/t6-/m0/s1
