18
gdb 88900	4.26621	0.68616	0.6308	1.4912	94.51	-0.2307	-0.0131	0.2176	1760.0078	0.145211	-364.723158	-364.713511	-364.712567	-364.758421	35.112	
C	-0.4488083573	 1.3527762464	 0.4507510819	-0.318622
N	-0.0088337508	-0.0131540178	 0.2081372735	-0.065994
C	 1.3338337714	-0.2226496412	-0.3188007863	-0.262485
C	 0.9877744532	-0.6334382158	 1.072293833	 0.033773
C	 1.6266983344	 0.0766690072	 2.2644509134	-0.427901
C	 0.7869180858	 0.0583755667	 3.4547936646	 0.40002
C	 0.0803610328	 0.0279158168	 4.4369991924	-0.260962
C	-0.7135121846	-0.0051922127	 5.5417773847	 0.292843
C	-1.4178299048	-0.03473312	 6.5222666411	-0.549628
H	 0.3578000674	 2.0588869819	 0.7049359317	 0.097353
H	-0.9394862123	 1.7242101585	-0.4542083073	 0.127021
H	-1.1797306788	 1.3584044241	 1.2645704105	 0.138132
H	 1.4340871883	-0.9579203515	-1.1130751228	 0.11737
H	 1.980416017	 0.6495056765	-0.4260346164	 0.103719
H	 0.784509036	-1.6845767451	 1.2695660531	 0.103298
H	 2.5804769538	-0.4207634965	 2.4873195123	 0.143855
H	 1.8818322771	 1.1111297376	 2.0086848422	 0.137574
H	-2.0378094485	-0.062199105	 7.3835597882	 0.190633
40.2407	71.325	142.2031	175.3346	213.4817	281.8257	305.7577	356.1068	406.3649	414.0044	510.5736	533.9114	542.7114	590.57	595.1829	733.6915	753.0191	784.5355	904.2989	959.2662	1035.6882	1074.3175	1111.8224	1130.8676	1142.7117	1172.2307	1175.6687	1202.2259	1233.9074	1310.4694	1343.0605	1412.768	1447.3094	1460.1804	1488.871	1505.7411	1516.2031	2182.1763	2364.2677	2974.1858	3020.3625	3062.9555	3072.0452	3078.5915	3111.9359	3119.8682	3169.1107	3506.1889
CN1CC1CC#CC#C	CN1C[C@H]1CC#CC#C	
InChI=1S/C8H9N/c1-3-4-5-6-8-7-9(8)2/h1,8H,6-7H2,2H3	InChI=1S/C8H9N/c1-3-4-5-6-8-7-9(8)2/h1,8H,6-7H2,2H3/t8-,9?/m1/s1
