18
gdb 56729	2.4607	1.38365	1.04533	2.5244	78.05	-0.2509	-0.029	0.2219	1174.36	0.145013	-401.899953	-401.890488	-401.889544	-401.934117	34.917	
C	 0.4415709461	 1.6548853242	-0.1426729501	-0.399843
C	 0.0944005445	 0.1550144211	 0.0126448874	-0.254484
C	 0.4552832035	-0.5766698615	-1.1993944103	 0.289894
C	 0.7923387764	-1.1541401131	-2.1995429316	-0.441307
C	 0.7556568948	-0.4410685038	 1.2616751044	 0.212572
C	 1.1965331567	-1.874351127	 1.3113992131	-0.276588
N	 2.189449203	-0.8045767293	 1.2748188758	-0.343014
C	 0.2856273448	 0.1084793428	 2.5692340776	 0.143175
O	-0.7083046645	 0.7762915336	 2.714432869	-0.274656
H	 1.5210835058	 1.7926983894	-0.2532721911	 0.124614
H	-0.0458911296	 2.0634270959	-1.030816189	 0.128909
H	 0.0987551535	 2.2096131742	 0.7320331043	 0.147851
H	-0.9891246721	 0.0773283322	 0.1667877218	 0.13242
H	 1.0616811252	-1.6635122465	-3.0920068949	 0.202268
H	 1.1419266189	-2.4222673073	 2.2483103302	 0.125099
H	 1.0182798226	-2.459903748	 0.4151423993	 0.142284
H	 2.549609703	-0.7148943924	 0.3254627244	 0.245803
H	 0.9374995271	-0.1779976144	 3.4230819597	 0.095003
61.2697	138.7531	156.2731	194.1632	216.2584	227.2351	279.5019	345.633	350.1699	447.5196	491.7492	554.9476	621.9293	630.622	654.181	711.2877	814.4388	884.0268	904.7705	961.5929	984.1465	1031.453	1045.9834	1069.5858	1093.707	1126.5364	1155.3292	1262.4699	1275.153	1316.0671	1324.5539	1382.2073	1405.3467	1419.5952	1494.9253	1499.0608	1504.5655	1816.3841	2229.4269	2903.7343	3035.5696	3053.5546	3114.1745	3125.5595	3149.2106	3208.2169	3480.575	3500.0713
CC(C#C)C1(CN1)C=O	C[C@@H](C#C)[C@]1(CN1)C=O	
InChI=1S/C7H9NO/c1-3-6(2)7(5-9)4-8-7/h1,5-6,8H,4H2,2H3	InChI=1S/C7H9NO/c1-3-6(2)7(5-9)4-8-7/h1,5-6,8H,4H2,2H3/t6-,7-/m0/s1
