19
gdb 68817	2.85014	1.30929	1.11203	1.7103	76.42	-0.2372	-0.0237	0.2135	1160.2048	0.156721	-423.007902	-422.99866	-422.997715	-423.04185	34.351	
C	 0.1335140728	 1.5409513377	 0.0884350294	-0.4975
C	 0.0120683223	 0.0456594279	 0.0657674641	 0.296641
C	 1.1661625878	-0.8823271006	-0.2512773129	-0.391811
C	 0.4671418674	-1.0053537712	 1.0757394248	 0.367214
O	 1.1096212464	-0.797810627	 2.2804770017	-0.467919
C	-0.850845643	-1.765078415	 0.9341720771	-0.156434
C	-1.3016015536	-0.7246836726	-0.1612651579	-0.315681
C	-0.810646988	-3.2278784417	 0.5831935835	 0.137842
O	 0.1828516266	-3.9114137971	 0.6245833666	-0.251211
H	 1.0969626575	 1.8453855018	 0.508722908	 0.129391
H	 0.0597168572	 1.9641027173	-0.9204651903	 0.12003
H	-0.6551977305	 1.9954150744	 0.698811173	 0.117566
H	 1.090470951	-1.6527131166	-1.0147841297	 0.110676
H	 2.1430859626	-0.4142168102	-0.1773523865	 0.113486
H	 1.7382137083	-1.5176731552	 2.4082565369	 0.293237
H	-1.4799135622	-1.6492455764	 1.8252531846	 0.107647
H	-2.1933524735	-0.1677957763	 0.1340270177	 0.110374
H	-1.4497320789	-1.1223160936	-1.1708745029	 0.102727
H	-1.7893050401	-3.6634286959	 0.270811823	 0.073725
69.4861	127.0719	163.1654	171.7059	194.6286	277.4798	307.1855	344.9571	402.6735	438.0527	504.8492	569.2709	662.6563	683.0092	765.7301	808.8878	854.4062	901.5783	959.2733	970.7946	992.4154	1015.1926	1052.7697	1061.8764	1118.2241	1138.0315	1178.5644	1198.4712	1230.577	1234.9227	1296.3486	1322.7387	1354.8524	1410.5659	1421.2888	1430.4521	1481.9967	1487.9974	1496.8083	1522.6691	1817.0194	2851.1948	3022.6381	3041.6158	3046.2491	3080.3473	3102.7154	3108.5712	3109.1957	3200.2928	3788.9847
CC12CC1(O)C(C2)C=O	C[C@@]12C[C@]1(O)[C@@H](C2)C=O	
InChI=1S/C7H10O2/c1-6-2-5(3-8)7(6,9)4-6/h3,5,9H,2,4H2,1H3	InChI=1S/C7H10O2/c1-6-2-5(3-8)7(6,9)4-6/h3,5,9H,2,4H2,1H3/t5-,6+,7-/m0/s1
