19
gdb 126155	3.7427	0.90943	0.88286	3.9293	76.91	-0.296	-0.0401	0.2559	1407.1355	0.158582	-419.180845	-419.171741	-419.170797	-419.215804	32.663	
C	 0.0982317531	 1.5325919409	 0.0004921982	-0.3924
C	 0.0086116866	 0.008347067	-0.1171482938	-0.177053
C	-1.4300991416	-0.5491462231	-0.0096760695	-0.089341
C	-2.3427294228	-0.0821573304	-1.1582281729	-0.403164
C	-1.4013360912	-2.0488766893	 0.0642624402	 0.344865
N	-1.7934183833	-2.708482017	 1.1227637599	-0.161654
O	-1.6212603835	-4.0356236868	 0.8340456609	-0.150112
N	-1.1151036225	-4.2075216886	-0.4214091952	-0.061206
C	-0.9745770688	-3.0061683217	-0.9062554238	-0.111938
H	 1.1429672253	 1.8571705727	-0.006855342	 0.120504
H	-0.4080559488	 2.0411663251	-0.8252399993	 0.122081
H	-0.3517311186	 1.882857279	 0.9359696232	 0.121763
H	 0.4505402664	-0.3156471069	-1.0689898188	 0.097401
H	 0.6141186457	-0.4497036153	 0.6732532922	 0.113618
H	-1.8586961949	-0.2034097785	 0.9380180699	 0.105144
H	-3.3456159203	-0.506341963	-1.0575580656	 0.131898
H	-2.4378594262	 1.0063767956	-1.1625133812	 0.127867
H	-1.9433367125	-0.3870100053	-2.1321880823	 0.117316
H	-0.5865603422	-2.8556550745	-1.9015970401	 0.144411
37.2226	78.9691	120.8076	184.4743	214.8343	268.6815	287.7081	343.2625	408.7572	474.5387	651.1841	691.0213	745.5829	784.0301	850.5899	896.4111	897.7903	931.0621	965.8943	984.6521	1022.1168	1035.5686	1049.6155	1077.5018	1133.7818	1184.5214	1212.5712	1289.9205	1313.8324	1357.9113	1378.6224	1409.4341	1413.253	1423.0989	1463.8785	1483.5414	1495.1633	1499.442	1504.9018	1511.7497	1610.2538	3018.2769	3036.0167	3038.4429	3047.3376	3063.887	3104.7959	3107.1119	3111.7314	3125.1358	3268.7297
CCC(C)C1=NON=C1	CC[C@@H](C)c1nonc1	
InChI=1S/C6H10N2O/c1-3-5(2)6-4-7-9-8-6/h4-5H,3H2,1-2H3	InChI=1S/C6H10N2O/c1-3-5(2)6-4-7-9-8-6/h4-5H,3H2,1-2H3/t5-/m1/s1
