19
gdb 83972	2.33992	1.75794	1.3144	3.0659	74.64	-0.2363	-0.0235	0.2128	1034.1917	0.160179	-423.042269	-423.034263	-423.033318	-423.075055	30.611	
C	-0.7884318752	 1.2855294153	 0.195817217	-0.417299
C	-0.1083216798	-0.0686368962	 0.0185037463	-0.108819
C	 0.635460385	-0.4264857208	-1.3193947029	-0.06945
C	 1.0223595218	 0.7410561157	-2.2314110534	-0.093402
O	 2.1148954626	 1.3911451015	-1.5884819891	-0.249959
C	 2.9388877981	 0.3617069298	-1.0556469817	-0.09534
C	 1.9632616131	-0.7020990852	-0.5258448352	-0.177878
C	 1.2251350991	-0.2723132546	 0.7546268368	 0.411544
O	 1.5793794785	-0.1030007917	 1.8858097891	-0.306678
H	-0.1057053979	 2.1028869731	-0.0528004978	 0.141744
H	-1.6778237551	 1.3710912421	-0.4368402154	 0.117297
H	-1.0987438698	 1.4124916679	 1.2369116427	 0.135072
H	-0.8000249423	-0.8745688564	 0.2953611192	 0.103415
H	 0.2003463488	-1.2614643347	-1.8684033879	 0.0778
H	 1.327290203	 0.3604212793	-3.2198472421	 0.09187
H	 0.2343302667	 1.4839419778	-2.377121323	 0.114611
H	 3.5842512031	-0.0678768882	-1.8383739993	 0.094726
H	 3.569066058	 0.7982963014	-0.2768633174	 0.13077
H	 2.3791501324	-1.7111596161	-0.5128191757	 0.099979
60.6251	161.57	197.3202	225.0206	250.389	312.7422	430.0318	499.8541	566.0994	596.3597	702.8161	748.2877	769.5386	852.8016	867.2684	918.7611	941.9096	974.0922	985.8145	1008.0443	1062.7831	1071.5115	1097.5265	1120.5512	1150.7662	1158.3343	1202.1922	1219.1293	1240.9071	1261.1099	1283.1151	1316.2668	1331.4999	1351.6419	1394.2528	1406.6277	1492.779	1498.7398	1508.4993	1519.1702	1885.6461	2971.9263	2978.959	3030.3184	3039.3929	3099.2733	3101.5527	3102.5121	3109.0206	3114.3007	3120.7653
CC1C2COCC2C1=O	C[C@H]1[C@H]2COC[C@H]2C1=O	
InChI=1S/C7H10O2/c1-4-5-2-9-3-6(5)7(4)8/h4-6H,2-3H2,1H3	InChI=1S/C7H10O2/c1-4-5-2-9-3-6(5)7(4)8/h4-6H,2-3H2,1H3/t4-,5+,6+/m0/s1
