18
gdb 20127	3.3934	1.4928	1.12859	1.4445	67.79	-0.2553	0.0668	0.3221	1067.1959	0.152277	-384.893558	-384.884925	-384.88398	-384.927492	30.828	
O	 0.3783304018	 1.6958766097	 0.0300644241	-0.432982
C	 0.1900121939	 0.282105776	-0.012391753	 0.075538
C	 0.7128690633	-0.3323334752	-1.2896579154	-0.007948
C	 0.0810099672	-1.5860699042	-1.839942207	-0.254716
C	-0.1094884304	-0.271627008	-2.5516066054	-0.279524
C	 0.8131999979	-0.3569996102	 1.215550531	 0.087494
C	 0.0650644386	-0.5106369872	 2.4650824648	-0.180053
O	 0.2953974652	-1.6305031406	 1.6027923266	-0.235727
H	 1.249553829	 1.8890460947	-0.3312235169	 0.279901
H	-0.8941856867	 0.1244282106	 0.0433041319	 0.085829
H	 1.7932823504	-0.2500383719	-1.4065827278	 0.074939
H	 0.7306407158	-2.328833334	-2.2886784311	 0.113855
H	-0.7570032947	-2.003431973	-1.2934814372	 0.127174
H	-1.0811673381	 0.2073117028	-2.4922518344	 0.119792
H	 0.4053057747	-0.1150154362	-3.4929510031	 0.11204
H	 1.9018921525	-0.2771017528	 1.2747374379	 0.082498
H	 0.5946546974	-0.5373960321	 3.4160146478	 0.114768
H	-0.9662661076	-0.1640237683	 2.5162413971	 0.117121
59.4724	70.3699	140.7871	158.1834	229.2386	240.6358	363.0937	420.7703	449.3287	542.7046	765.9887	829.8181	847.4943	863.4657	879.4309	940.2592	955.3377	977.7526	1050.2226	1063.3399	1076.6755	1088.3364	1130.6301	1131.7361	1156.2519	1161.7966	1174.1225	1196.0139	1226.1416	1265.5144	1292.2289	1295.191	1394.4071	1424.0918	1456.2327	1473.122	1507.1894	1530.2303	3038.4293	3076.3559	3085.6906	3107.3922	3134.2934	3142.2866	3172.1718	3213.3893	3229.2262	3814.9303
OC(C1CC1)C1CO1	O[C@@H](C1CC1)[C@H]1CO1	
InChI=1S/C6H10O2/c7-6(4-1-2-4)5-3-8-5/h4-7H,1-3H2	InChI=1S/C6H10O2/c7-6(4-1-2-4)5-3-8-5/h4-7H,1-3H2/t5-,6+/m1/s1
