22
gdb 115732	2.70804	1.17683	0.90702	1.5844	84.28	-0.2253	0.0743	0.2996	1370.37	0.193324	-404.286944	-404.277521	-404.276576	-404.32187	34.706	
C	 0.0615268833	 1.3636968198	-0.1960741679	-0.232411
O	 0.0053898836	 0.0453871022	 0.2953212504	-0.232928
C	-1.2607466622	-0.547189097	 0.1486464708	 0.11552
C	-1.5211544573	-1.1292044927	-1.275960446	-0.257076
C	-1.0120931967	-2.5059940443	-0.7675263977	-0.243358
C	-1.2454099451	-2.0106244842	 0.6808962385	 0.050249
N	-0.2560810964	-2.3593191619	 1.6726701738	-0.046724
C	-0.6429517992	-2.1702292396	 3.0664813662	-0.219836
C	-0.5500983815	-3.5372829231	 2.4854969672	-0.226153
H	 1.0734981785	 1.733848138	-0.0144329656	 0.12686
H	-0.1446000479	 1.4191190808	-1.2757704812	 0.10315
H	-0.656630629	 2.019927729	 0.3217656436	 0.10055
H	-2.0377250445	 0.1147944968	 0.5610316871	 0.051519
H	-2.5843150423	-1.1358072186	-1.5317930616	 0.099108
H	-0.9656066158	-0.6629172064	-2.0920965788	 0.105228
H	-1.5453271139	-3.4030212883	-1.0896880829	 0.091614
H	 0.0567736022	-2.6320810117	-0.9517804023	 0.12121
H	-2.2709282195	-2.2652383239	 1.0061801127	 0.049867
H	 0.1346197801	-1.7912153676	 3.7230275524	 0.117281
H	-1.6413004977	-1.7869913515	 3.2741781588	 0.105127
H	-1.4857857929	-4.0648714409	 2.3035835653	 0.105705
H	 0.2971927443	-4.1786704651	 2.7103085573	 0.115499
53.0168	96.3596	121.7138	132.4621	202.8632	227.1505	292.2095	337.7342	409.2228	446.253	550.9022	686.0984	730.634	801.8388	848.6376	888.5993	898.4749	920.7922	935.8864	970.8715	1009.834	1046.0393	1088.0681	1095.7678	1109.9031	1113.9228	1117.3819	1166.2056	1172.6096	1183.3583	1187.1075	1209.3262	1233.7328	1251.3199	1261.1779	1286.184	1301.3066	1328.3715	1381.7241	1392.7418	1468.3131	1480.4184	1487.2422	1490.2472	1490.7035	1510.0527	1517.4727	2921.508	2968.1151	2979.38	3016.7634	3062.6202	3070.9662	3089.1257	3094.7759	3112.7634	3113.9284	3132.6128	3174.9876	3189.4439
COC1CCC1N1CC1	CO[C@H]1CC[C@H]1N1CC1	
InChI=1S/C7H13NO/c1-9-7-3-2-6(7)8-4-5-8/h6-7H,2-5H2,1H3	InChI=1S/C7H13NO/c1-9-7-3-2-6(7)8-4-5-8/h6-7H,2-5H2,1H3/t6-,7+/m1/s1
