21
gdb 115433	4.72244	0.80067	0.71818	1.553	85.22	-0.254	0.0579	0.3118	1572.4554	0.182427	-387.068416	-387.058866	-387.057922	-387.103779	35.736	
O	 0.1682243797	 1.3301130037	-0.3777516843	-0.422488
C	 0.054454281	-0.0416183909	-0.0298080638	-0.095971
C	-1.4252126621	-0.3829096574	 0.0737664259	 0.048973
C	-2.205203638	-0.1587099459	-1.2436065793	-0.213092
C	-3.3420786125	-1.1849726176	-1.1911096232	-0.215367
C	-2.6392049202	-2.4423565169	-0.6252900637	-0.146735
C	-1.6755317543	-1.8703832067	 0.4593757746	-0.251672
C	-3.5378158686	-3.4773991011	-0.137832463	 0.298305
C	-4.2883365421	-4.3212210952	 0.2759952888	-0.449728
H	 1.1017472574	 1.5460282628	-0.4576874476	 0.286708
H	 0.5245516936	-0.6871042044	-0.7921478979	 0.07943
H	 0.5541911771	-0.2519195927	 0.9298018369	 0.085779
H	-1.8531561973	 0.2651962554	 0.8466308345	 0.082199
H	-2.5519297248	 0.8704778967	-1.354436643	 0.106828
H	-1.5534655803	-0.3712890622	-2.1014137295	 0.093906
H	-4.1250521644	-0.8624692277	-0.4951375688	 0.107171
H	-3.8158049147	-1.3718057756	-2.1583985495	 0.102498
H	-2.0296725437	-2.8683016828	-1.433714475	 0.0995
H	-0.7487778411	-2.4517306195	 0.5008259451	 0.100941
H	-2.1402826135	-1.946451441	 1.4452314236	 0.113473
H	-4.9492176614	-5.0695671611	 0.636811359	 0.189342
20.4608	111.8818	146.9438	156.4967	225.1917	271.1799	277.1842	363.5207	428.8699	505.8211	517.2617	531.6781	615.0801	622.4142	625.7077	786.679	836.1154	876.9263	910.0768	962.1722	982.4103	1017.5141	1034.8043	1045.1635	1075.5122	1100.8159	1105.0168	1179.9962	1193.3317	1230.0897	1255.9247	1276.0618	1289.8384	1309.7644	1318.8966	1326.1662	1332.9229	1365.9421	1384.4285	1458.3837	1490.773	1493.3606	1505.1813	1521.3172	2234.144	2948.7819	2981.4673	3008.2011	3024.1229	3042.7058	3046.648	3054.4854	3100.1605	3102.2045	3111.2996	3505.4616	3831.0895
OCC1CCC(C1)C#C	OC[C@H]1CC[C@@H](C1)C#C	
InChI=1S/C8H12O/c1-2-7-3-4-8(5-7)6-9/h1,7-9H,3-6H2	InChI=1S/C8H12O/c1-2-7-3-4-8(5-7)6-9/h1,7-9H,3-6H2/t7-,8-/m0/s1
