19
gdb 57501	4.27999	0.63634	0.62587	4.3345	83.86	-0.2619	-0.0565	0.2053	1824.8636	0.15442	-423.012168	-423.001251	-423.000307	-423.049631	38.061	
C	-0.0251847051	 1.5506017947	 0.1913223853	-0.389614
C	 0.0056543097	 0.0289247582	 0.048326	 0.34515
C	 0.7204754981	-0.6251229647	 1.2377977566	-0.420656
O	-1.3599604886	-0.376213649	 0.0079542716	-0.448128
C	 0.7212519067	-0.3938999787	-1.2691399589	-0.40187
C	 0.0928850057	 0.102469182	-2.4819924351	 0.103478
C	-0.4133510736	 0.5072992695	-3.5016885002	 0.049953
C	-1.0514023943	 1.007554261	-4.6902840601	 0.016445
O	-0.7029122081	 0.7489241367	-5.8201379068	-0.232059
H	 0.9883326364	 1.9593742478	 0.239143115	 0.112793
H	-0.5454618139	 2.0012850308	-0.6570207596	 0.135378
H	-0.5563939626	 1.8247441334	 1.1063599196	 0.126139
H	 0.2086606499	-0.3635192749	 2.1675587306	 0.12916
H	 0.7192060252	-1.7178329775	 1.1429027553	 0.105869
H	 1.7627336063	-0.2987820148	 1.3119402359	 0.119362
H	-1.3918521421	-1.3391503604	-0.0034923405	 0.278438
H	 1.7667787239	-0.0599973721	-1.2428411755	 0.14214
H	 0.759938505	-1.4914269435	-1.3147940959	 0.129478
H	-1.9178299384	 1.6713318516	-4.4920836473	 0.098546
22.9941	59.2718	70.7166	168.6988	181.065	216.0446	251.1265	287.2478	303.2535	330.2966	389.8637	395.0443	409.68	446.4706	534.0202	627.0958	766.7421	835.3314	871.773	917.4179	937.223	984.3771	1020.4565	1023.1249	1122.379	1159.9378	1178.0186	1219.8917	1252.5965	1331.2781	1377.4943	1405.8909	1421.2604	1422.8237	1449.1127	1479.4472	1486.2116	1498.8077	1506.8594	1766.0149	2328.7108	2916.0278	3010.4921	3027.8733	3047.7933	3049.9126	3094.6304	3119.7107	3125.6899	3132.3601	3801.7735
CC(C)(O)CC#CC=O	CC(C)(O)CC#CC=O	
InChI=1S/C7H10O2/c1-7(2,9)5-3-4-6-8/h6,9H,5H2,1-2H3	InChI=1S/C7H10O2/c1-7(2,9)5-3-4-6-8/h6,9H,5H2,1-2H3
