17
gdb 128513	3.05708	1.28668	0.96275	2.0491	72.5	-0.1847	0.0412	0.2259	1210.9062	0.136818	-451.320474	-451.310771	-451.309827	-451.355723	34.26	
C	-0.5910309395	 0.9541441397	-0.0594258098	-0.253637
O	 0.6455054649	 0.2463601141	 0.0882391715	-0.278695
C	 0.9788536687	-0.5352595811	-0.9672324002	 0.356574
C	 0.7394102323	-1.8716087279	-1.1976451653	 0.043924
N	-0.0110244228	-2.7934038	-0.4363436916	-0.634793
C	 1.3721716438	-2.120912043	-2.4432160406	 0.326459
N	 1.4515917318	-3.3725757424	-3.0654015453	-0.598327
N	 1.957180307	-1.0374716346	-2.9417080132	-0.316028
N	 1.6790075831	-0.0586978924	-2.0388465993	-0.282994
H	-0.5493094527	 1.6478011634	-0.9074528637	 0.123231
H	-1.4257959415	 0.2595227563	-0.2082540775	 0.13095
H	-0.7394014786	 1.5161987911	 0.8646656179	 0.133241
H	-0.1848581575	-2.4300602366	 0.4946028637	 0.241578
H	 0.49547742	-3.6683448158	-0.3371923157	 0.246738
H	 0.5416216826	-3.8125942469	-3.1493240994	 0.246433
H	 1.87358652	-3.2891693525	-3.9829874258	 0.247415
H	 2.1724015085	 0.8154790985	-2.0879148958	 0.26793
28.5506	122.5851	143.6004	146.0896	215.3575	244.1279	269.2226	306.723	329.2921	368.4467	466.9758	546.6801	585.0756	680.5872	722.9811	741.0237	789.464	829.8791	873.236	985.3361	1050.0408	1094.6874	1174.1949	1202.5593	1207.6693	1265.2728	1277.4073	1295.5595	1456.4287	1463.2031	1485.4515	1503.907	1539.8112	1561.8977	1633.9199	1645.1236	1693.1056	3016.8812	3083.9201	3134.2126	3492.3877	3511.9692	3582.2208	3607.7222	3681.4383
COC1=C(N)C(N)=NN1	COc1c(N)c(N)n[nH]1	
InChI=1S/C4H8N4O/c1-9-4-2(5)3(6)7-8-4/h5H2,1H3,(H3,6,7,8)	InChI=1S/C4H8N4O/c1-9-4-2(5)3(6)7-8-4/h5H2,1H3,(H3,6,7,8)
