19
gdb 34087	3.2934	1.49478	1.2817	0.7651	84.7	-0.247	0.051	0.298	1039.8934	0.160759	-348.706205	-348.698798	-348.697854	-348.737635	30.73	
C	 0.0439437622	-1.1773726559	 0.025003213	-0.355628
C	 0.0176564513	 0.0251964926	-0.0002659922	 0.095439
C	-0.0068836951	 1.4682249081	-0.027764083	 0.206383
C	-0.9809286305	 2.1786304337	 0.9899466741	-0.276655
C	-1.478998867	 3.0577639192	-0.1548527849	-0.068608
C	-0.3122543024	 3.5977460528	-0.967311138	-0.043016
C	 1.0750666678	 3.6372048333	-0.3263566158	-0.252143
C	 1.3787295701	 2.1531169918	 0.0055609166	-0.253351
C	-0.7817420349	 2.1888376033	-1.1848760917	-0.113312
H	 0.065366862	-2.2385374545	 0.0464996667	 0.180403
H	-1.7529600246	 1.4884632671	 1.3347192523	 0.115325
H	-0.5126305479	 2.6597018312	 1.8563407451	 0.091468
H	-2.458486033	 3.5173113469	-0.2139322904	 0.084159
H	-0.5757501803	 4.3438976305	-1.7090044982	 0.0846
H	 1.8160228088	 4.0504525815	-1.01691211	 0.101285
H	 1.0894926155	 4.2673645409	 0.5694194481	 0.102211
H	 1.8698053347	 2.0182888069	 0.9737906459	 0.103392
H	 2.0213230493	 1.7057651946	-0.759395694	 0.107503
H	-1.1310333758	 1.7471137761	-2.1078635838	 0.090545
143.0429	147.4298	226.3696	352.7502	399.7858	485.7571	506.5697	530.8626	616.7992	624.1951	625.7534	701.773	739.4283	779.571	818.5489	849.01	905.5956	926.2012	939.9059	971.9897	992.0331	1001.7321	1026.524	1055.1301	1076.1628	1099.2544	1132.4705	1163.2013	1189.288	1213.7254	1220.8192	1249.2903	1274.7042	1309.1298	1313.8367	1349.9204	1395.5147	1485.5873	1491.9641	1511.0262	2233.783	3034.6585	3042.9828	3051.0496	3079.4032	3100.8164	3114.7853	3170.2886	3179.8402	3211.05	3503.575
C#CC12CC3C(CC1)C23	C#C[C@@]12C[C@H]3[C@@H](CC1)[C@@H]23	
InChI=1S/C9H10/c1-2-9-4-3-6-7(5-9)8(6)9/h1,6-8H,3-5H2	InChI=1S/C9H10/c1-2-9-4-3-6-7(5-9)8(6)9/h1,6-8H,3-5H2/t6-,7+,8-,9+/m1/s1
