15
gdb 48553	3.04268	1.4793	1.43009	1.5306	66.09	-0.2373	-0.0321	0.2052	951.2271	0.112651	-457.716817	-457.709902	-457.708958	-457.748497	26.273	
O	-0.129876961	 0.0077776978	-0.1183378106	-0.272588
C	-0.0206107349	 1.1987393151	 0.064008286	 0.02273
C	 1.242841602	 1.9251843947	-0.0117505388	 0.163261
C	 1.9348790419	 2.9909047653	 0.8578889677	 0.012293
O	 3.1738980544	 2.3029678553	 0.8664899954	-0.292181
C	 2.6824283442	 1.4033491536	-0.1862868508	-0.006079
C	 3.1391224864	 1.993022102	-1.5089596554	-0.080482
O	 2.5178107873	 3.293484908	-1.5416522094	-0.262962
C	 1.5351182233	 3.3233382496	-0.5474315154	 0.029733
H	-0.9029084616	 1.8325125098	 0.3087440259	 0.072305
H	 1.6058284404	 3.4909980738	 1.7622194205	 0.124635
H	 2.9078424837	 0.357195339	 0.0116551356	 0.117844
H	 4.2235126506	 2.1241034857	-1.548240622	 0.130253
H	 2.8053515889	 1.3899910435	-2.3652681146	 0.114176
H	 0.7284809146	 4.0229250769	-0.734195594	 0.127061
90.6382	157.2206	236.6539	259.7539	401.7139	456.5366	574.2515	662.1757	703.3154	733.7081	788.0517	851.8147	861.3219	912.8656	957.1436	981.0446	1002.5478	1018.4541	1044.1575	1056.3771	1079.8812	1117.4076	1160.2816	1182.9097	1233.9491	1266.8331	1306.6268	1325.8803	1363.749	1414.737	1449.5617	1498.2579	1790.7881	2873.3017	3011.1863	3102.3801	3147.9966	3179.1231	3193.6179
O=CC12C3OC1COC23	O=C[C@@]12[C@H]3O[C@@H]1CO[C@@H]23	
InChI=1S/C6H6O3/c7-2-6-3-1-8-4(6)5(6)9-3/h2-5H,1H2	InChI=1S/C6H6O3/c7-2-6-3-1-8-4(6)5(6)9-3/h2-5H,1H2/t3-,4-,5+,6-/m1/s1
