17
gdb 62574	2.5038	1.53919	1.20802	3.994	69.66	-0.2654	0.0038	0.2692	1068.3734	0.133099	-458.968334	-458.959472	-458.958528	-459.001274	33.513	
C	 0.0069519044	 1.5602601802	-0.007934527	-0.473991
C	 0.0431930189	 0.0520187966	 0.038064108	 0.333733
O	-1.1076325272	-0.5748445935	-0.4466301983	-0.457033
C	 1.3278100442	-0.7937750048	-0.2651339246	-0.407395
C	 2.486604319	-0.1482099544	 0.4209323091	 0.454838
O	 3.6034259026	 0.179049273	 0.1825269693	-0.331506
O	 1.8172997713	-0.0213698994	 1.6409187934	-0.296304
C	 0.6763861602	-0.7583721069	 1.112408314	 0.409066
C	 0.0626816972	-1.8024417743	 1.9797710467	-0.495104
H	 0.882523546	 2.0010047949	 0.4696424248	 0.159114
H	-0.0305689908	 1.9109219503	-1.0459038598	 0.119449
H	-0.8896390397	 1.9188299855	 0.5071601785	 0.135764
H	-1.2623120835	-0.2674266284	-1.3469804254	 0.293441
H	 1.3362221766	-1.5429072046	-1.0431635351	 0.124942
H	-0.3409687257	-1.3487149306	 2.8910652465	 0.140552
H	-0.7553089144	-2.2885828687	 1.4447962799	 0.152963
H	 0.803600941	-2.5531283349	 2.2686826899	 0.137471
129.7328	181.6261	196.6697	202.9941	228.8754	287.9692	308.1104	319.7042	397.3448	473.2127	509.0755	529.4115	626.2373	658.8505	730.0452	801.5582	857.3146	892.5559	923.6409	974.2746	993.2717	1044.4376	1091.0021	1129.4084	1140.3381	1162.0993	1232.3814	1250.5559	1313.8631	1410.4291	1416.2531	1476.1594	1481.0286	1484.2865	1491.0919	1525.2645	1937.7672	3036.2085	3044.9357	3100.1687	3109.7658	3143.8356	3149.2211	3231.4416	3799.1872
CC1(O)C2C(=O)OC12C	C[C@@]1(O)[C@H]2C(=O)O[C@@]12C	
InChI=1S/C6H8O3/c1-5(8)3-4(7)9-6(3,5)2/h3,8H,1-2H3	InChI=1S/C6H8O3/c1-5(8)3-4(7)9-6(3,5)2/h3,8H,1-2H3/t3-,5-,6-/m1/s1
