19
gdb 119799	4.36096	1.01267	0.96917	2.1404	76.55	-0.2134	0.0243	0.2377	1289.0802	0.159963	-419.189349	-419.180732	-419.179788	-419.223142	32.098	
C	-0.7636875675	 0.4977750655	 0.4769088056	-0.24101
O	 0.2367857953	 0.2154990564	 1.4373269604	-0.237468
C	 1.3576675666	-0.459773826	 0.8901824756	-0.17267
C	 1.0597289933	-1.9096455853	 0.6246280854	 0.321209
N	 1.4191456356	-2.5567226911	-0.4295298643	-0.299609
C	 0.9579459937	-3.9100561426	-0.269699201	-0.008437
C	 1.4938991444	-4.7273654133	 0.8883326955	-0.295215
C	 0.2076365511	-3.9714217159	 1.0772800599	-0.026713
N	 0.3708408577	-2.6338513387	 1.5789796898	-0.317392
H	-1.1612019854	-0.4151838453	 0.0109382344	 0.11723
H	-1.572704699	 1.0130090045	 0.9999834214	 0.128548
H	-0.3793201696	 1.1509390391	-0.3202382101	 0.115401
H	 1.7028459544	 0.0023573334	-0.0435069127	 0.119599
H	 2.152919092	-0.3708710007	 1.6381808298	 0.124843
H	 0.6499354515	-4.4240248418	-1.1735022519	 0.091079
H	 1.415342144	-5.8043817262	 0.7876211892	 0.112778
H	 2.3791861993	-4.3747885766	 1.4077987096	 0.116556
H	-0.734665893	-4.4713556847	 1.2667412994	 0.097703
H	-0.3089554845	-2.1806493508	 2.167623464	 0.253569
58.0424	88.3858	147.0899	195.6725	239.4114	350.5459	393.8194	405.1119	431.4657	529.3502	634.5238	675.1638	749.42	766.5428	820.492	904.023	937.803	957.6293	991.1392	1018.8539	1045.8626	1063.7367	1076.9	1101.8334	1123.8986	1146.5584	1181.8214	1183.1788	1217.354	1267.1683	1301.727	1330.9087	1361.7245	1382.1943	1453.3576	1470.7293	1477.1181	1485.206	1486.1578	1508.9221	1663.9977	2987.8873	3026.7944	3039.8346	3080.3582	3118.8184	3126.3619	3165.3545	3179.6031	3219.6134	3646.0602
COCC1=NC2CC2N1	COCC1=N[C@H]2C[C@H]2N1	
InChI=1S/C6H10N2O/c1-9-3-6-7-4-2-5(4)8-6/h4-5H,2-3H2,1H3,(H,7,8)	InChI=1S/C6H10N2O/c1-9-3-6-7-4-2-5(4)8-6/h4-5H,2-3H2,1H3,(H,7,8)/t4-,5+
