21
gdb 77859	2.03775	1.48469	1.43517	0.856	88.24	-0.2405	0.0476	0.288	1118.0905	0.181355	-349.894654	-349.885402	-349.884458	-349.927923	36.01	
C	-0.2649629298	 1.5520518529	-0.0244933359	-0.41747
C	 0.0404539481	 0.0584282283	-0.04041157	-0.002271
C	 0.6405125218	-0.598396831	-1.2939713816	-0.095258
C	 2.0745865438	-0.2033177031	-1.58633362	-0.187089
C	 2.6707749473	 1.1022795688	-1.4810791584	 0.315916
C	 3.2247683922	 2.1714207619	-1.4858607096	-0.4415
C	 1.785539107	-1.1876406776	-0.4702476266	-0.095229
C	 1.2262693034	-0.5516580199	 0.8125693945	-0.002289
C	 2.1132427973	 0.3285534463	 1.6860376317	-0.41747
H	 0.6072034648	 2.1566003836	-0.2772994933	 0.137664
H	-1.0549705303	 1.7862706575	-0.7470544268	 0.110166
H	-0.6213786177	 1.8623432515	 0.964197224	 0.108003
H	-0.8748312887	-0.4829883882	 0.2212109443	 0.075214
H	 0.0564703871	-1.0719291026	-2.0756152732	 0.086596
H	 2.4369655604	-0.7314311159	-2.4677962809	 0.114914
H	 3.6995061264	 3.1209774744	-1.4663174274	 0.19246
H	 2.214369612	-2.1824309567	-0.5231908537	 0.086597
H	 0.8143514664	-1.3520067868	 1.4363409273	 0.075207
H	 2.5595265629	 1.1522088538	 1.1270285598	 0.137679
H	 1.5379841348	 0.751354252	 2.51738487	 0.107994
H	 2.9285367508	-0.262989189	 2.1178240558	 0.110166
125.4876	145.4628	185.2525	207.2697	209.2411	213.8999	270.912	368.1471	417.9367	504.1405	551.3413	590.3127	633.1832	646.4335	714.7992	731.4237	757.8732	771.3696	879.1762	923.6442	941.034	980.543	1008.1597	1028.8504	1042.5434	1079.6544	1087.417	1102.2231	1170.9494	1175.3392	1196.4362	1234.4905	1282.0436	1306.1368	1347.6808	1367.8854	1376.1127	1409.5332	1416.8393	1427.6752	1488.4086	1498.9711	1500.8197	1510.9946	2223.9806	3027.7328	3033.2058	3034.2488	3051.7047	3086.503	3089.5374	3111.3918	3138.728	3143.5879	3161.1521	3173.2396	3502.4158
CC1C2C(C#C)C2C1C	C[C@H]1[C@H]2[C@@H](C#C)[C@H]2[C@H]1C	
InChI=1S/C9H12/c1-4-7-8-5(2)6(3)9(7)8/h1,5-9H,2-3H3	InChI=1S/C9H12/c1-4-7-8-5(2)6(3)9(7)8/h1,5-9H,2-3H3/t5-,6+,7-,8+,9-
