14
gdb 129186	5.71852	1.04696	0.88494	1.4225	86.59	-0.2147	-0.0655	0.1492	1226.0744	0.102225	-395.707532	-395.700032	-395.699087	-395.739517	28.861	
N	-0.0328743666	 1.3476970592	 0.0104700109	-0.559269
C	-0.0232332901	 0.0658487859	 0.0032820001	 0.396312
N	 1.1310652692	-0.7380088674	-0.0079292267	-0.306827
N	 1.2235573071	-2.0710502015	-0.0159070622	-0.236166
C	 0.0998302228	-2.7431022722	-0.0130896054	 0.162807
C	-1.1841696714	-2.0746558792	-0.0018534569	-0.152728
C	-1.2404371589	-0.7286844532	 0.0059756489	-0.098998
C	 0.171345773	-4.1651054165	-0.0214342612	 0.256098
C	 0.1693180207	-5.3686147439	-0.0281372303	-0.392898
H	 0.911272078	 1.7379215825	 0.0071215626	 0.200862
H	 2.0296885432	-0.2759942205	-0.0106061631	 0.267727
H	-2.0823945535	-2.6808704276	 0.0000240324	 0.126489
H	-2.173626699	-0.1790742357	 0.0144952545	 0.134596
H	 0.1876391855	-6.4304428398	-0.0341792035	 0.201996
85.1879	147.1253	211.3374	358.9202	411.8609	444.8234	450.1305	532.8027	536.523	596.6035	645.6716	651.6821	670.4242	731.5154	765.5396	796.9863	822.4515	871.5599	1000.7311	1021.7544	1092.7025	1167.3873	1243.0197	1255.9221	1331.1495	1433.9769	1454.4723	1561.1863	1645.8236	1720.264	2231.941	3200.9991	3222.6295	3454.8646	3502.8329	3598.6465
N=C1NN=C(C=C1)C#C	[NH]C1=CCC(=NN1)C#C	
InChI=1S/C6H5N3/c1-2-5-3-4-6(7)9-8-5/h1,3-4H,(H2,7,9)	InChI=1S/C6H6N3/c1-2-5-3-4-6(7)9-8-5/h1,4,7,9H,3H2
