14
gdb 31392	3.04825	1.37875	0.95497	4.2486	67.8	-0.2701	-0.052	0.2181	1141.062	0.101876	-470.026639	-470.018917	-470.017973	-470.059618	27.758	
O	 0.1627636171	 1.3588041621	-0.1949357112	-0.415255
C	 0.042989363	-0.0233334747	-0.0524513254	-0.125094
C	-1.3945328331	-0.4552539969	 0.0213738783	 0.387485
N	-2.3438502222	 0.3814653365	-0.0427199511	-0.324787
C	-3.6712349937	-0.0882250431	 0.0329044864	 0.377086
N	-4.6296095022	 0.7402832023	-0.0299213008	-0.488265
N	-3.8687163494	-1.4903163525	 0.1781316158	-0.285819
C	-2.8445257576	-2.228208198	 0.2306488324	 0.120946
O	-1.5428207217	-1.8099155848	 0.1609892489	-0.208593
H	-0.7397672935	 1.7135306101	-0.210997909	 0.306652
H	 0.5131040464	-0.5570969667	-0.894378802	 0.130639
H	 0.5495525585	-0.3796371512	 0.8593094264	 0.130598
H	-5.5094389785	 0.2267451594	 0.0405483661	 0.233654
H	-2.8962035031	-3.3073112525	 0.3403533352	 0.160753
70.2144	109.5288	171.2551	193.0216	341.4715	420.4308	428.5725	494.873	564.4957	574.8562	627.6475	779.4188	796.5413	904.69	925.6386	957.2831	970.6873	1032.4042	1051.0485	1126.9017	1149.121	1212.359	1245.2759	1324.5705	1357.0773	1405.1612	1472.8891	1496.193	1660.7825	1726.2927	1770.631	2980.2875	2996.005	3194.4661	3485.5736	3700.5355
OCC1=NC(=N)N=CO1	OCC1=N[C@@H]([NH])N=CO1	
InChI=1S/C4H5N3O2/c5-4-6-2-9-3(1-8)7-4/h2,5,8H,1H2	InChI=1S/C4H6N3O2/c5-4-6-2-9-3(1-8)7-4/h2,4-5,8H,1H2/t4-/m0/s1
