24
gdb 117336	3.92277	0.62754	0.61823	3.2414	88.52	-0.2387	0.0387	0.2774	2011.2692	0.215055	-405.603828	-405.592149	-405.591205	-405.643482	41.	
C	-0.1253603514	 1.5974517755	 0.1701380408	-0.385244
C	-0.1805347193	 0.0902065631	 0.4257189719	-0.148687
C	-1.2467012271	-0.6187247115	-0.4165763625	-0.304276
C	-1.1756018621	-2.1383752615	-0.2749078565	 0.417876
O	-0.11325945	-2.7312849817	-0.1822482681	-0.38307
N	-2.3833037869	-2.7754836373	-0.2759463051	-0.324083
C	-2.5288508486	-4.2270545826	-0.2183503426	 0.053376
C	-3.429657002	-4.6291515952	 0.9542868633	-0.38518
C	-3.0399084697	-4.781876932	-1.5539184545	-0.380894
H	 0.6445837454	 2.073851772	 0.7848577826	 0.114524
H	 0.1060644915	 1.8137759267	-0.8790599745	 0.113606
H	-1.0811358159	 2.081102436	 0.402768921	 0.10914
H	 0.7850668629	-0.3748104635	 0.2073720827	 0.128592
H	-0.3763644244	-0.09981244	 1.4882725301	 0.098493
H	-2.249109439	-0.2479132088	-0.1684684492	 0.088048
H	-1.0844191873	-0.3877482808	-1.4785855008	 0.124089
H	-3.2192785153	-2.2208494279	-0.3727743625	 0.235471
H	-1.5158296395	-4.5978685509	-0.0421203011	 0.126638
H	-4.4445406149	-4.2320976104	 0.8273449933	 0.105947
H	-3.5086414985	-5.7183796626	 1.0246407173	 0.119849
H	-3.0316035788	-4.2502818335	 1.8995525922	 0.125131
H	-2.3679159209	-4.5051258836	-2.3707829856	 0.12731
H	-3.1076446668	-5.873867926	-1.5189377578	 0.118185
H	-4.0391897214	-4.3937548032	-1.7860842743	 0.10516
11.3593	30.0067	69.5608	89.0462	150.0258	225.3376	226.0979	247.2645	259.7655	280.8287	350.7779	418.2692	434.4282	462.3368	468.4772	618.5196	729.2808	755.2385	842.3864	883.1644	906.6721	925.9379	930.8305	948.736	1003.2718	1055.2046	1106.3899	1117.1532	1146.4894	1179.8971	1191.7949	1223.0144	1257.2134	1303.4883	1338.1111	1362.6327	1371.3653	1396.3276	1399.0972	1413.5228	1418.2753	1465.0612	1484.1219	1488.4314	1492.311	1495.1688	1499.9197	1506.1996	1509.6185	1534.7124	1768.25	3013.0672	3024.5213	3026.123	3028.5757	3034.2609	3052.0964	3079.3324	3081.2136	3090.769	3101.108	3104.7641	3108.4263	3116.3103	3119.0889	3627.0289
CCCC(=O)NC(C)C	CCCC(=O)NC(C)C	
InChI=1S/C7H15NO/c1-4-5-7(9)8-6(2)3/h6H,4-5H2,1-3H3,(H,8,9)	InChI=1S/C7H15NO/c1-4-5-7(9)8-6(2)3/h6H,4-5H2,1-3H3,(H,8,9)
