18
gdb 18602	3.22185	2.17687	1.7334	2.5283	66.54	-0.2386	0.0657	0.3043	821.1317	0.155718	-384.928602	-384.921581	-384.920637	-384.959822	27.478	
O	-0.3636755245	 1.4385790595	 0.4144628511	-0.417397
C	-0.0714954704	 0.1018202948	 0.0836747123	 0.10037
C	 0.4199703521	-0.8308200581	 1.2312516178	-0.281704
C	-0.8300427551	-1.7397814061	 1.0366869506	-0.036832
C	-1.9057775048	-1.6567129717	 2.1276577661	-0.231049
C	-2.5964295689	-0.317760584	 1.8174768761	-0.082949
O	-2.5629817564	-0.1988454458	 0.3968223934	-0.242689
C	-1.3636174597	-0.7694152467	-0.068123219	 0.098397
H	 0.4694834651	 1.8919933685	 0.5787765748	 0.283719
H	 0.5663301067	 0.0410753784	-0.8101989127	 0.061842
H	 1.3827549957	-1.3176923375	 1.0569446273	 0.096718
H	 0.4532626417	-0.3261661997	 2.2019787405	 0.095302
H	-0.6114082963	-2.7625448968	 0.7279514435	 0.068742
H	-2.6181150474	-2.4806332536	 2.0189484549	 0.104317
H	-1.4924561465	-1.6938899431	 3.1398858752	 0.099109
H	-3.643679534	-0.2810051276	 2.129022909	 0.104606
H	-2.062690835	 0.5235120146	 2.2800373188	 0.104236
H	-1.5428356622	-1.153156435	-1.0750809397	 0.075263
78.4168	204.4679	267.5754	272.0082	361.8283	408.6073	543.8368	612.8244	648.7773	746.755	798.2196	841.7804	865.0823	902.859	924.0657	954.4203	981.9787	988.292	1034.7319	1092.0948	1124.1487	1139.6414	1147.3488	1191.4551	1211.7581	1229.8198	1239.102	1261.0144	1269.6427	1305.6948	1322.42	1336.0075	1353.8331	1393.4215	1420.555	1472.8075	1485.997	1524.386	2986.7293	3014.6622	3048.6638	3049.6037	3079.8812	3090.7742	3096.815	3101.5593	3112.6596	3813.2117
OC1CC2CCOC12	O[C@H]1C[C@H]2CCO[C@@H]12	
InChI=1S/C6H10O2/c7-5-3-4-1-2-8-6(4)5/h4-7H,1-3H2	InChI=1S/C6H10O2/c7-5-3-4-1-2-8-6(4)5/h4-7H,1-3H2/t4-,5+,6-/m1/s1
