17
gdb 7863	4.46619	1.10231	0.98586	3.1336	64.85	-0.2407	0.0381	0.2788	1182.618	0.140861	-401.013433	-401.004416	-401.003472	-401.048362	32.027	
N	-0.1196153464	 1.1688483257	 0.4722152782	-0.524733
C	 0.0944068516	-0.1326391364	 0.1129419247	 0.414335
O	 1.2040743617	-0.6287610889	 0.1041904956	-0.36191
C	-1.164706546	-0.899169606	-0.2924792812	-0.332678
C	-1.0342032961	-2.3787366938	-0.0137102744	 0.012314
C	-1.5231936984	-2.9577918563	 1.2999375489	-0.321809
C	-2.2496603418	-3.2542227379	 0.0098678531	 0.072259
O	-3.4782675873	-2.6301421206	-0.245927305	-0.420476
H	 0.6842079071	 1.753346306	 0.6347493268	 0.257683
H	-1.0220491265	 1.6031250607	 0.392300361	 0.256461
H	-2.0539275239	-0.489090365	 0.194063901	 0.109182
H	-1.3047199586	-0.7339866824	-1.3701939741	 0.131526
H	-0.1273191512	-2.8135395912	-0.4185962531	 0.111002
H	-0.946555425	-3.7426772366	 1.7767007118	 0.114168
H	-2.0178235152	-2.2757420032	 1.9848333335	 0.108195
H	-2.1565153105	-4.2562342522	-0.4089771612	 0.086582
H	-4.1413261534	-3.043013682	 0.3167813044	 0.287898
31.544	50.3315	131.6645	172.2521	218.535	307.6739	316.8387	405.1548	461.7725	499.5558	546.366	621.92	659.9287	777.4627	836.2732	855.2365	892.7674	919.4691	1001.6841	1036.2625	1054.3928	1083.2852	1128.7889	1145.956	1177.9424	1236.4195	1238.595	1275.072	1299.8294	1363.8019	1407.2146	1429.7825	1466.0681	1491.4656	1616.704	1798.4275	3019.1424	3090.1069	3097.2236	3127.6925	3178.1107	3217.272	3599.6932	3736.9612	3808.3212
NC(=O)CC1CC1O	NC(=O)C[C@H]1C[C@H]1O	
InChI=1S/C5H9NO2/c6-5(8)2-3-1-4(3)7/h3-4,7H,1-2H2,(H2,6,8)	InChI=1S/C5H9NO2/c6-5(8)2-3-1-4(3)7/h3-4,7H,1-2H2,(H2,6,8)/t3-,4-/m1/s1
