15
gdb 54091	1.91869	1.62088	0.94141	2.6824	64.37	-0.2656	-0.0652	0.2004	1175.1475	0.111726	-491.150055	-491.14108	-491.140136	-491.18467	31.358	
N	 1.0623048375	-0.9895831995	 0.0788132119	-0.57527
C	 0.0539856892	-0.0888856674	-0.1087094443	 0.472984
O	 0.2254647368	 1.0935116239	-0.3148538778	-0.375878
N	-1.2534824169	-0.654754584	-0.0913699791	-0.16233
C	-1.4995499645	-2.0975796979	-0.0854561102	-0.261884
C	-1.348397488	-2.6471554491	 1.3292462716	 0.14601
O	-0.3000565984	-3.0676896367	 1.7580067111	-0.231836
C	-2.3538981941	 0.1946976934	-0.1654156526	 0.170788
O	-3.4953014909	-0.2028938466	-0.1711148702	-0.327307
H	 1.9722899618	-0.5643966184	 0.1617857414	 0.272064
H	 0.9124914168	-1.8530095277	 0.5861289637	 0.283871
H	-2.5238934496	-2.2374174793	-0.437555934	 0.164653
H	-0.7928636654	-2.599314241	-0.7504373137	 0.148242
H	-2.2519173808	-2.6009967624	 1.969116897	 0.126356
H	-2.0505135035	 1.2471928828	-0.2171445249	 0.149538
51.6417	93.8751	111.5102	168.6328	238.16	270.2162	314.9373	371.4971	462.3532	521.3359	538.893	566.9863	603.3158	667.6261	776.8387	797.6548	938.0367	1000.1385	1051.8104	1067.1754	1136.8263	1151.9451	1253.6316	1329.7877	1347.1193	1387.6343	1410.7038	1418.4128	1469.5232	1653.5291	1794.4148	1812.6856	1818.8147	2945.9713	3071.9536	3083.3081	3137.36	3523.9194	3681.9078
NC(=O)N(CC=O)C=O	NC(=O)N(CC=O)C=O	
InChI=1S/C4H6N2O3/c5-4(9)6(3-8)1-2-7/h2-3H,1H2,(H2,5,9)	InChI=1S/C4H6N2O3/c5-4(9)6(3-8)1-2-7/h2-3H,1H2,(H2,5,9)
