17
gdb 91454	2.48864	1.72416	1.34398	4.3905	67.98	-0.2351	-0.0072	0.2279	981.9464	0.135896	-458.959867	-458.951903	-458.950959	-458.991944	31.253	
O	-0.140985475	 1.3718903729	-0.0643525138	-0.446088
C	-0.0193308977	-0.0414305031	 0.0231640721	 0.046029
C	 0.4543682695	-0.5931964581	 1.407828469	-0.263236
C	-0.8103190293	-1.384685926	 1.8242745681	-0.152697
C	-1.9402059466	-0.3803007001	 1.4527628971	-0.308694
C	-1.4435695641	-0.6218945343	-0.0311160465	 0.31863
O	-2.188526482	-0.3516787311	-1.1552436722	-0.488333
C	-1.1852071863	-2.0549536884	 0.4824791266	 0.383799
O	-1.3782653613	-3.1631484219	 0.084528851	-0.3176
H	 0.7313140648	 1.749465137	-0.2129546215	 0.291665
H	 0.5860995164	-0.420189177	-0.8102710294	 0.085831
H	 1.3477113506	-1.2186873217	 1.3334097648	 0.112197
H	 0.6567308414	 0.2331425871	 2.0954813612	 0.112727
H	-0.7969947297	-1.9359765761	 2.760378113	 0.090845
H	-2.9464186271	-0.768228345	 1.6147342934	 0.122986
H	-1.8345450527	 0.6383007359	 1.8278689652	 0.12046
H	-1.9876768209	 0.5581983798	-1.4104028479	 0.291479
126.6169	174.2243	224.1182	258.2431	286.922	373.7669	408.7848	439.1957	449.1303	537.1391	603.7573	702.91	707.6963	776.151	834.4103	868.1524	878.1246	928.93	982.6959	1003.5649	1015.8439	1062.4611	1065.8612	1113.2872	1143.1497	1169.141	1217.3006	1227.9165	1234.4847	1287.8601	1309.6268	1332.5379	1400.4465	1436.9248	1479.4317	1498.3178	1907.2267	3020.009	3056.2921	3084.6946	3109.3235	3156.1354	3161.801	3770.6364	3826.0642
OC1CC2CC1(O)C2=O	O[C@H]1C[C@H]2C[C@]1(O)C2=O	
InChI=1S/C6H8O3/c7-4-1-3-2-6(4,9)5(3)8/h3-4,7,9H,1-2H2	InChI=1S/C6H8O3/c7-4-1-3-2-6(4,9)5(3)8/h3-4,7,9H,1-2H2/t3-,4-,6+/m0/s1
