18
gdb 45997	4.71952	0.93315	0.83359	3.5932	83.69	-0.2361	-0.0465	0.1896	1364.2508	0.149011	-401.962323	-401.95419	-401.953246	-401.996038	30.21	
O	-0.0645442833	-0.0160345069	 0.4012785394	-0.337788
C	-0.0188097464	 1.1790547572	 0.2187693986	 0.40059
C	-1.2296158092	 2.0955672626	-0.0297227746	-0.339277
C	-0.6460028522	 3.5134774822	-0.1752827618	-0.343683
C	 0.8570351355	 3.3238653905	-0.0420957356	 0.363734
C	 1.1783267085	 2.0371562068	 0.1864066958	-0.316986
C	 1.8254772583	 4.4271967175	-0.1438416503	-0.092937
C	 1.6205529141	 5.5498406108	-1.1141677141	-0.240067
N	 1.4970101639	 5.7964818799	 0.3195545989	-0.312032
H	-1.7552196117	 1.7604295548	-0.928560319	 0.135466
H	-1.9345815468	 2.0036765766	 0.8009775215	 0.134863
H	-0.9048298555	 3.972705046	-1.136282911	 0.122724
H	-1.0259294353	 4.1900222873	 0.6000385085	 0.121468
H	 2.1772971418	 1.6450049208	 0.3312179441	 0.110004
H	 2.8516234693	 4.1446065212	 0.0747099466	 0.103075
H	 2.4931137105	 5.991771187	-1.5865039351	 0.132588
H	 0.7258532557	 5.5401339681	-1.7297430224	 0.120552
H	 0.5156282229	 5.8483791678	 0.5816424406	 0.237706
47.2871	86.0822	142.4328	189.0631	287.2689	353.3835	497.6897	541.5264	566.417	598.3248	634.5271	805.0625	833.8788	835.3353	842.1624	896.3263	907.4392	959.6664	971.5213	1009.977	1017.0825	1078.2412	1130.8352	1156.1885	1160.1261	1184.1758	1194.7805	1236.4394	1257.032	1262.9725	1296.935	1304.6115	1359.5095	1398.9791	1453.5587	1483.1077	1506.7655	1659.3557	1810.3576	3028.9698	3058.3566	3068.6305	3109.5908	3115.3449	3146.6006	3202.4317	3215.7068	3506.3004
O=C1CCC(=C1)C1CN1	O=C1CCC(=C1)[C@H]1CN1	
InChI=1S/C7H9NO/c9-6-2-1-5(3-6)7-4-8-7/h3,7-8H,1-2,4H2	InChI=1S/C7H9NO/c9-6-2-1-5(3-6)7-4-8-7/h3,7-8H,1-2,4H2/t7-/m1/s1
