16
gdb 6650	7.03931	0.82615	0.75016	3.7019	68.76	-0.2488	-0.014	0.2348	1461.5721	0.125473	-383.70309	-383.69349	-383.692546	-383.738989	32.046	
C	-0.103728646	 1.491317018	-0.0376383891	-0.48379
C	 0.0833489494	-0.0155157567	 0.022449178	 0.359375
O	 1.1660878209	-0.5412122445	 0.038673006	-0.263943
C	-1.2163140219	-0.8185332703	 0.0551146036	-0.144433
O	-0.944602431	-2.1870857212	-0.0057226868	-0.221703
C	-2.1218148045	-2.9720058744	 0.0457696153	-0.204883
C	-1.7805763852	-4.385886062	-0.0238835862	 0.28239
C	-1.5317702617	-5.5589012775	-0.0796718582	-0.407546
H	 0.8519353332	 1.9841282743	 0.1436049476	 0.149691
H	-0.4702675623	 1.7790439479	-1.0301645218	 0.146091
H	-0.8459431703	 1.8338596613	 0.6912215932	 0.134021
H	-1.7602068788	-0.548057303	 0.9800607389	 0.107974
H	-1.8583172142	-0.486991783	-0.7822475553	 0.104887
H	-2.6795446721	-2.7695453621	 0.9765823809	 0.119665
H	-2.7964499518	-2.7114466606	-0.7881805209	 0.119193
H	-1.3001645037	-6.5941528661	-0.1292923353	 0.203013
35.1922	71.9709	87.3815	94.408	128.8674	211.7627	319.7231	333.528	378.516	480.1095	531.862	612.2343	620.9035	680.0305	827.8945	865.7741	939.7518	987.3301	1030.8823	1060.7353	1097.5293	1165.1922	1197.9941	1251.0117	1263.3491	1374.387	1383.8317	1429.7141	1463.2429	1476.5005	1483.5697	1508.6528	1838.9311	2250.4247	2929.62	2949.7551	2951.3799	2968.6274	3036.235	3097.3313	3153.805	3506.3639
CC(=O)COCC#C	CC(=O)COCC#C	
InChI=1S/C6H8O2/c1-3-4-8-5-6(2)7/h1H,4-5H2,2H3	InChI=1S/C6H8O2/c1-3-4-8-5-6(2)7/h1H,4-5H2,2H3
