19
gdb 121041	3.94298	0.83634	0.72492	5.2443	72.33	-0.2887	0.0431	0.3318	1571.8708	0.159494	-460.226238	-460.217268	-460.216324	-460.261056	31.924	
C	-0.0070812323	 1.5700380058	-0.0577457173	-0.384408
C	-0.0381275399	 0.0420510009	 0.0223912478	-0.173635
C	 0.7507917757	-0.5040254225	 1.2178451099	-0.197247
C	 0.7213938694	-2.0196056945	 1.3256184495	 0.097742
C	 1.4914341656	-2.6049506506	 2.5219098939	-0.123141
O	 0.6322892714	-3.6363643383	 3.0102898343	-0.242493
C	-0.6148980317	-3.4764050372	 2.4938943029	 0.500634
O	-1.5649616654	-4.1171188786	 2.809807278	-0.371189
O	-0.6195429734	-2.4837129382	 1.5691629995	-0.257209
H	 1.0181863614	 1.9441559555	-0.156417618	 0.114284
H	-0.5775711404	 1.9317775517	-0.9181637643	 0.119959
H	-0.4392573227	 2.022360683	 0.8415343033	 0.11991
H	-1.0739070166	-0.3072992123	 0.0931637562	 0.127066
H	 0.3688567669	-0.3853732525	-0.9033528169	 0.098794
H	 1.8023515419	-0.1925783426	 1.1465587657	 0.10476
H	 0.3599662462	-0.0823050821	 2.1528650918	 0.110913
H	 1.057370851	-2.4746719474	 0.3847937588	 0.09951
H	 2.4517765819	-3.0441419361	 2.2457767439	 0.133617
H	 1.6469809712	-1.8622970741	 3.3133197811	 0.122133
59.6909	94.1753	97.1825	154.9871	188.9045	247.2187	308.3742	357.6493	470.4384	552.8289	676.6967	724.817	751.4299	777.3202	855.3633	895.3225	906.3652	950.0576	1018.4255	1041.267	1054.8848	1098.9551	1109.7791	1134.3113	1165.7396	1175.2863	1233.4246	1271.5618	1294.7478	1333.707	1371.2798	1377.4365	1408.3691	1415.0424	1423.5419	1472.3176	1493.3529	1500.5435	1510.0498	1523.6562	1927.4365	3012.7682	3020.7066	3025.8216	3031.6051	3039.4551	3055.6096	3074.9997	3100.5215	3108.2072	3115.9627
CCCC1COC(=O)O1	CCC[C@H]1COC(=O)O1	
InChI=1S/C6H10O3/c1-2-3-5-4-8-6(7)9-5/h5H,2-4H2,1H3	InChI=1S/C6H10O3/c1-2-3-5-4-8-6(7)9-5/h5H,2-4H2,1H3/t5-/m0/s1
