13
gdb 16270	3.83595	1.85454	1.40705	2.1106	61.06	-0.2642	-0.0449	0.2194	840.5622	0.094672	-398.575713	-398.568884	-398.56794	-398.606913	24.987	
N	 0.1616871789	 1.2382626166	-0.0447558946	-0.547083
C	 0.0254884968	-0.0008993403	 0.0521938512	 0.392497
O	 0.9825037601	-1.0229352707	 0.0892262331	-0.265464
C	-0.0573916311	-2.0193832058	 0.0020791331	 0.067703
C	-0.9282215253	-1.9739498748	 1.1816680165	-0.32931
C	-1.1450158484	-0.926736817	 0.0695861463	 0.082379
C	-2.4117590938	-0.8251502653	-0.6769945745	 0.066007
O	-3.2556067172	-1.6908716467	-0.6823775888	-0.272233
H	 1.1450727083	 1.5107042396	-0.0790858697	 0.239495
H	 0.063099881	-2.814756207	-0.720244819	 0.148846
H	-1.7378548338	-2.6967187575	 1.2081889398	 0.164188
H	-0.5279883362	-1.64924992	 2.136188325	 0.145777
H	-2.5294391694	 0.1136243388	-1.2551550284	 0.107198
117.1271	157.9866	202.1939	253.9516	362.7243	466.288	578.4241	630.7122	716.45	737.7034	803.0395	866.0762	892.1178	932.478	951.3209	988.8943	1042.5796	1053.8443	1059.6436	1093.5934	1169.5644	1270.0691	1282.4966	1378.9126	1432.0537	1468.8191	1797.1223	1837.4504	2932.6584	3132.0941	3225.5124	3234.7158	3487.5349
N=C1OC2CC12C=O	[NH][C]1O[C@H]2C[C@@]12C=O	
InChI=1S/C5H5NO2/c6-4-5(2-7)1-3(5)8-4/h2-3,6H,1H2	InChI=1S/C5H5NO2/c6-4-5(2-7)1-3(5)8-4/h2-3,6H,1H2/t3-,5-/m0/s1
