20
gdb 103871	3.3539	0.97934	0.95424	1.7418	81.04	-0.2348	0.0327	0.2675	1330.6411	0.168103	-403.075656	-403.065544	-403.064599	-403.110746	37.372	
C	 0.9264409181	 0.5570974973	-1.9720704521	-0.480202
C	 0.3597233197	-0.4811446164	-1.0255146941	 0.30482
C	-1.1598835053	-0.4953134002	-0.949014283	-0.101343
O	-1.6481348477	 0.6572289105	-0.2822229468	-0.42289
C	 1.1061963077	-1.7339769566	-0.7163435142	-0.30348
N	 0.9402045895	-0.7061111191	 0.311393265	-0.135526
C	 2.0973865927	 0.0632250024	 0.797737423	-0.290285
C	 3.3796304732	-0.090333872	 0.1058264309	 0.305352
C	 4.442118012	-0.2439228374	-0.4370396057	-0.461191
H	 2.0160228446	 0.6008890294	-1.9428630425	 0.136376
H	 0.6240799527	 0.3280918127	-2.9997709381	 0.120842
H	 0.523154213	 1.5444924194	-1.7243655642	 0.132739
H	-1.5962476106	-0.4787848574	-1.9536997665	 0.103921
H	-1.4932565498	-1.4153955036	-0.4476407809	 0.086473
H	-1.2581324714	 0.6274676721	 0.5997068473	 0.285077
H	 0.5801973586	-2.668820538	-0.5351679096	 0.109043
H	 2.0930453564	-1.8428824721	-1.1596489049	 0.124896
H	 1.8155576348	 1.1231228001	 0.8117914266	 0.139094
H	 2.2467504402	-0.2262465051	 1.8457388789	 0.143031
H	 5.3820733418	-0.3666029759	-0.916416249	 0.203253
64.0045	73.901	126.9688	184.0057	193.576	232.5549	285.5672	328.3062	345.8265	404.9489	437.0912	474.9808	521.77	615.8165	617.2398	666.2141	719.1827	781.3513	877.1288	913.1175	936.6131	956.0396	995.7788	1005.6343	1061.8644	1099.6195	1108.244	1140.1662	1172.4192	1211.576	1276.0865	1307.5095	1345.9809	1369.9288	1403.4687	1415.4023	1426.692	1469.049	1489.4333	1498.5847	1504.5822	1512.0359	2224.9734	2997.4806	3022.0203	3038.9996	3053.7336	3072.6642	3096.917	3097.441	3141.3564	3183.752	3501.9989	3787.1152
CC1(CO)CN1CC#C	C[C@@]1(CO)CN1CC#C	
InChI=1S/C7H11NO/c1-3-4-8-5-7(8,2)6-9/h1,9H,4-6H2,2H3	InChI=1S/C7H11NO/c1-3-4-8-5-7(8,2)6-9/h1,9H,4-6H2,2H3/t7-,8?/m0/s1
