20
gdb 90482	2.70848	1.46981	1.26314	1.4463	78.46	-0.2252	0.0799	0.3052	1092.3783	0.171244	-403.070784	-403.062475	-403.061531	-403.103624	32.014	
C	-0.2342293721	 1.2951204435	-0.6218393159	-0.420818
C	 0.3194871402	-0.1102537142	-0.456200036	 0.088768
C	 1.6448239286	-0.5529915853	-1.1347196567	-0.280011
C	 2.1045395345	-0.9890882968	 0.2576956964	-0.060555
C	 2.0916574439	 0.0980089836	 1.2532216185	-0.00884
C	 2.4878809243	 1.5328239469	 1.0727432005	 0.032017
C	 3.8891919741	 1.901573081	 0.8187223009	-0.171821
O	 2.9001413622	 2.0272987158	-0.2035247362	-0.222258
N	 0.7981330048	-0.5403542438	 0.9200150012	-0.189597
H	 0.530986481	 2.0683408842	-0.5375575008	 0.146486
H	-0.6933238055	 1.3952164853	-1.6118143968	 0.114397
H	-1.0124396606	 1.4837190548	 0.1259639133	 0.119649
H	-0.4729101266	-0.8239715528	-0.7010024905	 0.086086
H	 1.51166515	-1.3900887408	-1.8223229028	 0.10106
H	 2.246045021	 0.2203866485	-1.6114487246	 0.129471
H	 2.5430265668	-1.9565833926	 0.4853611512	 0.091861
H	 2.3683857587	-0.22943022	 2.2568685872	 0.101264
H	 1.8820913705	 2.2422874996	 1.6391303362	 0.104566
H	 4.282739842	 2.8393695027	 1.2072850512	 0.117761
H	 4.6242034622	 1.1149728503	 0.6559948438	 0.120512
86.809	142.3067	186.4484	212.7682	258.2855	282.512	362.0736	401.0239	526.9375	642.5999	703.3836	746.6095	757.4875	804.4894	853.6649	873.5396	896.1142	935.4921	961.9089	1001.4013	1039.6917	1060.3766	1075.3612	1103.3194	1110.307	1133.9803	1140.9365	1159.7384	1171.1021	1208.7848	1254.0527	1273.491	1290.6885	1308.0786	1354.0327	1389.7949	1411.9244	1418.6447	1455.9459	1490.7889	1492.473	1508.655	1525.2056	3034.8059	3051.4485	3084.3496	3086.8451	3090.7773	3093.7549	3098.8667	3141.7774	3143.9878	3150.2837	3177.2323
CC1CC2C(C3CO3)N12	C[C@H]1C[C@H]2[C@@H]([C@H]3CO3)N12	
InChI=1S/C7H11NO/c1-4-2-5-7(8(4)5)6-3-9-6/h4-7H,2-3H2,1H3	InChI=1S/C7H11NO/c1-4-2-5-7(8(4)5)6-3-9-6/h4-7H,2-3H2,1H3/t4-,5-,6+,7-,8?/m0/s1
