20
gdb 114132	4.36835	0.88149	0.82089	1.4926	76.54	-0.2342	0.0646	0.2988	1452.8509	0.1699	-440.216966	-440.207567	-440.206623	-440.251518	34.426	
C	 0.1265141864	 1.2891212817	 0.1397432521	-0.235992
O	-0.2702937243	-0.0271092865	-0.1717748117	-0.238362
C	 0.4995648057	-0.6099648728	-1.1794790821	 0.183136
C	 1.9630142443	-1.1146808542	-0.8662712687	-0.318857
C	 1.5184369674	-2.5015121788	-1.3531344339	 0.31729
C	 2.3278009374	-3.5094522332	-2.1032623702	-0.181613
O	 3.3615450997	-4.0778066677	-1.3116898114	-0.411085
N	 0.4544367053	-2.9102113613	-0.3964883737	-0.363267
C	 0.1115359547	-2.0360318917	-1.5466065036	-0.173839
H	 1.1573680575	 1.3292763526	 0.5224802619	 0.109664
H	 0.0593266736	 1.9534817689	-0.7370265715	 0.100941
H	-0.550066331	 1.6575879552	 0.9142278697	 0.128797
H	 0.5105513281	 0.0271518585	-2.078296684	 0.066282
H	 2.7268267091	-0.6422416719	-1.4870843089	 0.103525
H	 2.2529362654	-1.0805995715	 0.1854266054	 0.112996
H	 1.6563419781	-4.2844315885	-2.5123082921	 0.081668
H	 2.8349479525	-3.0377316786	-2.9522127937	 0.114027
H	 2.9617936228	-4.3850938578	-0.4908678888	 0.288726
H	 0.1492570355	-3.8476433661	-0.6654002371	 0.22243
H	-0.6383314881	-2.3464260763	-2.2647987678	 0.093533
78.4868	86.2355	128.1411	155.4291	189.9377	274.3901	311.2006	341.495	370.7558	439.4705	455.5993	595.3237	679.2426	699.9589	822.2822	887.2284	912.9951	942.1328	971.1414	998.4397	1029.8525	1051.4746	1064.7017	1071.8567	1130.2212	1160.5263	1169.7165	1183.6072	1192.5182	1215.4934	1241.5725	1258.5372	1309.036	1340.2771	1370.8299	1398.7137	1411.7749	1445.6954	1472.7567	1484.6716	1487.8224	1497.2229	1508.3743	2953.2718	2967.7021	2976.233	3019.7674	3063.8606	3073.7467	3117.0868	3135.5924	3183.4795	3441.8954	3807.7761
COC1CC2(CO)NC12	CO[C@H]1C[C@@]2(CO)N[C@@H]12	
InChI=1S/C6H11NO2/c1-9-4-2-6(3-8)5(4)7-6/h4-5,7-8H,2-3H2,1H3	InChI=1S/C6H11NO2/c1-9-4-2-6(3-8)5(4)7-6/h4-5,7-8H,2-3H2,1H3/t4-,5-,6-/m0/s1
