19
gdb 69439	2.75729	1.31467	1.23375	4.8251	78.96	-0.252	0.0282	0.2801	1122.1862	0.160502	-382.076747	-382.068504	-382.06756	-382.109429	31.897	
C	 0.1515754254	 1.4431076185	 0.2942402636	-0.475539
C	 0.0772372564	-0.0406094546	 0.0354943048	 0.350941
C	-0.9879800757	-0.8797752436	 0.6489032536	-0.298299
N	 0.3923515305	-0.9524259823	 1.1633356367	-0.122315
C	 1.1499148589	-2.0927885037	 0.6098724505	-0.119687
C	 0.9893358441	-2.0684849645	-0.9414017628	-0.262246
C	 0.7094021174	-0.5845939223	-1.2424195653	-0.272789
C	 2.5603149864	-1.9497426596	 1.001808177	 0.294354
N	 3.6775587827	-1.8518171207	 1.2792740462	-0.324711
H	 1.1885280872	 1.7932216866	 0.2534208054	 0.12998
H	-0.4224045249	 1.996009148	-0.4576653389	 0.119891
H	-0.2506690678	 1.6871111549	 1.2804304577	 0.131375
H	-1.6920214542	-0.4308721897	 1.3434128056	 0.122582
H	-1.388604979	-1.7232338181	 0.0921183225	 0.112161
H	 0.7790211061	-3.0281439159	 1.0423474527	 0.128579
H	 1.8729034877	-2.452156062	-1.4533935107	 0.132414
H	 0.1461745509	-2.7004178066	-1.229639843	 0.117542
H	 0.0718717275	-0.4511936474	-2.1213862666	 0.11281
H	 1.6443663702	-0.045498087	-1.431997669	 0.122957
88.6062	145.6328	190.7276	234.5922	290.223	331.1741	387.9862	437.0041	482.1527	540.0206	585.0101	693.6678	743.6412	774.5205	806.7878	866.665	916.7572	948.5063	959.0511	973.4575	1016.3808	1043.611	1067.7563	1107.7097	1116.3637	1153.4822	1185.8923	1203.8717	1264.4926	1275.4791	1314.1347	1339.0415	1352.4374	1387.725	1419.5706	1483.293	1490.6461	1493.2368	1496.8511	1522.6923	2361.094	3033.7411	3047.1565	3057.9941	3077.3665	3092.4467	3097.3866	3109.2306	3122.7059	3129.9155	3192.4773
CC12CN1C(CC2)C#N	C[C@]12CN1[C@@H](CC2)C#N	
InChI=1S/C7H10N2/c1-7-3-2-6(4-8)9(7)5-7/h6H,2-3,5H2,1H3	InChI=1S/C7H10N2/c1-7-3-2-6(4-8)9(7)5-7/h6H,2-3,5H2,1H3/t6-,7-,9?/m0/s1
