19
gdb 107997	2.96853	1.45863	1.29782	2.3016	74.16	-0.2339	0.0698	0.3036	1051.8424	0.160489	-422.969601	-422.961993	-422.961049	-423.001764	30.181	
O	-0.0070812369	 1.4427211084	-0.1819861968	-0.41604
C	 0.0349502258	 0.0327838958	-0.0614603038	-0.199818
C	-1.3460945515	-0.5287358321	 0.0988626488	 0.407411
O	-2.2909296031	-0.2150827819	-0.9981736633	-0.367607
C	-3.0657544388	-0.9924541922	-0.0194995501	 0.044763
C	-1.8869811672	-1.989815145	 0.1860130592	-0.087819
C	-1.8632892394	-2.4603851373	 1.6357190052	-0.249368
C	-2.2657784487	-1.137676552	 2.3640732806	-0.250545
C	-2.4403083956	-0.2101062629	 1.1677675712	-0.061167
H	-0.697663316	 1.6372584218	-0.827242612	 0.29566
H	 0.5157600947	-0.4369232976	-0.9348243587	 0.098716
H	 0.6428229077	-0.2001863512	 0.8199201175	 0.113731
H	-4.1127280344	-1.1934913581	-0.2487273461	 0.089787
H	-1.6467438922	-2.6768174133	-0.6249592028	 0.077668
H	-2.5762454692	-3.2709384217	 1.8149856023	 0.105239
H	-0.8765208074	-2.8238758921	 1.9380950685	 0.105352
H	-3.1873158982	-1.2425686166	 2.9446541993	 0.104731
H	-1.4895265526	-0.7830358833	 3.0489884828	 0.108186
H	-2.7273224972	 0.8305397912	 1.3101865183	 0.081123
85.0675	150.3826	213.3548	243.1978	350.4825	420.8039	455.219	513.8104	655.9289	677.8597	723.5253	750.9944	790.729	835.1944	883.3494	913.7131	927.0516	940.356	969.2732	998.0404	1031.319	1039.0219	1065.8944	1076.4513	1109.5519	1138.1082	1200.193	1205.0537	1223.5229	1243.4532	1251.184	1261.2277	1270.7829	1300.5867	1322.501	1369.8107	1397.5746	1445.1174	1489.5818	1493.5966	1511.4769	2977.573	3047.2697	3056.7553	3068.4818	3080.0148	3099.6591	3110.423	3131.0639	3141.392	3789.6306
OCC12OC3C1CCC23	OC[C@@]12O[C@H]3[C@@H]1CC[C@@H]23	
InChI=1S/C7H10O2/c8-3-7-4-1-2-5(7)6(4)9-7/h4-6,8H,1-3H2	InChI=1S/C7H10O2/c8-3-7-4-1-2-5(7)6(4)9-7/h4-6,8H,1-3H2/t4-,5+,6-,7+
