15
gdb 25245	3.33912	1.66595	1.11926	2.7852	76.33	-0.2164	-0.0091	0.2074	1012.8821	0.116766	-416.858519	-416.851853	-416.850908	-416.889527	26.366	
N	-0.080985281	 1.3139445313	 0.0118843856	-0.583277
C	-0.0643802448	 0.0469249504	 0.0039565995	 0.354577
O	 1.0734020911	-0.7402562929	-0.0069297473	-0.273853
C	 0.7469053941	-2.1545826725	-0.0139379704	-0.203161
C	-0.7488925228	-2.1805781885	-0.0061947726	 0.266306
C	-1.1736376773	-0.878832226	 0.0040937961	 0.22602
N	-2.5358034858	-0.8500107051	 0.0115152404	-0.389702
C	-2.9841688468	-2.1495966491	 0.0059259063	-0.056158
C	-1.8966275271	-3.008922177	-0.0052107279	-0.339715
H	 0.8691787861	 1.6859485549	 0.0091685753	 0.222232
H	 1.1990775779	-2.6019282675	-0.9070525317	 0.129345
H	 1.2084527425	-2.6129006312	 0.868757389	 0.129346
H	-3.1063354	-0.0219437606	 0.0196241756	 0.279798
H	-4.0408157149	-2.366576914	 0.0102285812	 0.130931
H	-1.9514885011	-4.0862569321	-0.0115823289	 0.107309
154.5102	203.1329	251.219	288.5304	513.8573	534.4872	609.8953	629.9425	630.0644	643.2985	729.7369	758.4426	781.5138	828.3674	848.5786	937.0505	961.442	1028.6083	1031.4923	1064.1033	1085.2736	1156.8783	1190.3619	1229.6685	1290.0193	1332.1448	1403.101	1460.3462	1474.8724	1507.3246	1551.7528	1594.8085	1773.9592	3027.5623	3060.1614	3250.2167	3269.0302	3488.7387	3679.6518
N=C1OCC2=C1NC=C2	[NH][C]1OCc2c1[nH]cc2	
InChI=1S/C6H6N2O/c7-6-5-4(3-9-6)1-2-8-5/h1-2,7-8H,3H2	InChI=1S/C6H6N2O/c7-6-5-4(3-9-6)1-2-8-5/h1-2,7-8H,3H2
