25
gdb 78052	2.70197	1.1465	1.05595	0.0661	93.58	-0.2423	0.0899	0.3322	1357.2216	0.227526	-352.341296	-352.331137	-352.330193	-352.375293	39.694	
C	-0.4332001189	 1.4690725084	 0.3928665089	-0.41005
C	-0.1456535448	-0.0160352827	 0.1949616273	-0.009855
C	 0.3288715561	-0.3778370676	-1.2231885265	-0.087613
C	 1.6515238597	-0.9218764607	-0.665011805	-0.087532
C	 1.2138868502	-0.5756679808	 0.7687775174	-0.009892
C	 2.1363139347	 0.4113377759	 1.4775261337	-0.410075
C	 0.688399848	-1.8357498212	-1.3847252852	 0.317571
C	-0.0641003386	-2.9617184879	-0.6988633923	-0.462167
C	 1.1339378722	-2.1987056901	-2.7940962421	-0.45183
H	 0.3793525778	 2.0994903845	 0.0187019371	 0.115047
H	-1.3410125211	 1.7501170538	-0.1527095498	 0.110909
H	-0.5924332068	 1.7129132522	 1.4483887475	 0.111239
H	-1.0228778105	-0.5833051794	 0.5295263807	 0.061894
H	 0.1677395547	 0.2534762444	-2.092032181	 0.069398
H	 2.6593766248	-0.7713716934	-1.0405000753	 0.069392
H	 1.0825395006	-1.4500426314	 1.4180010151	 0.061912
H	 2.3623849278	 1.2832306162	 0.8559422581	 0.115046
H	 1.7011234659	 0.7686087908	 2.4166229077	 0.111227
H	 3.089301927	-0.0735208579	 1.7172917997	 0.110903
H	-0.386561311	-2.7084694549	 0.3130151201	 0.117994
H	-0.9589468294	-3.2317349756	-1.2721906549	 0.110415
H	 0.5635955792	-3.8581776293	-0.6301756863	 0.110412
H	 1.7974976962	-3.0712536679	-2.7836074783	 0.112094
H	 0.2731482708	-2.4443553372	-3.4269125706	 0.11209
H	 1.6737893052	-1.3733124279	-3.2689648159	 0.111471
110.3201	186.1248	190.7822	199.9455	218.0008	227.9556	259.0875	282.9873	289.2377	330.9257	385.0385	432.6836	484.9642	513.2493	682.5399	737.858	765.1832	847.0761	849.4222	915.3455	928.9076	968.3235	971.3206	998.3689	998.9263	1037.5349	1043.7196	1049.3208	1109.3685	1114.8849	1124.0259	1141.652	1164.1714	1216.5995	1248.5464	1255.0284	1296.6777	1297.1351	1367.3942	1371.8428	1401.8683	1402.9192	1412.0164	1416.9678	1426.7022	1483.3772	1485.1598	1491.3138	1491.7333	1501.0648	1503.5385	1512.4514	1513.4019	3013.174	3020.0399	3023.2245	3027.2044	3027.6874	3034.1235	3076.4971	3082.0627	3089.6294	3094.0962	3097.5843	3099.0733	3109.9002	3125.5985	3142.8798	3154.59
CC1C2C(C1C)C2(C)C	C[C@H]1[C@H]2[C@@H]([C@H]1C)C2(C)C	
InChI=1S/C9H16/c1-5-6(2)8-7(5)9(8,3)4/h5-8H,1-4H3	InChI=1S/C9H16/c1-5-6(2)8-7(5)9(8,3)4/h5-8H,1-4H3/t5-,6+,7+,8-
