15
gdb 25028	5.13055	1.04288	0.9066	5.6458	68.42	-0.2052	0.0323	0.2375	1226.5652	0.113633	-453.960045	-453.952453	-453.951509	-453.992565	28.342	
O	-0.0198976742	 0.0601782375	 0.0837280633	-0.403096
C	-0.0903330118	 1.2575279905	 0.0483903309	 0.492952
N	-1.1558436896	 2.0687480057	-0.2873757505	-0.427779
C	-0.7850361199	 3.4125094341	-0.2088083424	 0.324154
C	 0.4942967406	 3.4229323842	 0.2007583331	-0.111136
O	 0.9394352994	 2.1178361518	 0.3619833801	-0.210877
N	-1.6724702116	 4.4099225757	-0.5989110765	-0.168705
C	-2.6794090971	 4.8728418366	 0.3743259805	-0.231119
C	-1.5214961304	 5.7301564562	 0.0035257092	-0.225177
H	-2.0244004086	 1.7117342652	-0.6449635474	 0.278324
H	 1.2046307376	 4.2094658636	 0.3755557468	 0.145869
H	-3.6617191988	 5.0656768437	-0.0437656163	 0.133648
H	-2.6663199948	 4.4200719146	 1.3620416236	 0.135815
H	-0.7447013134	 5.8569242007	 0.753135336	 0.132309
H	-1.6501951274	 6.5638482299	-0.6786963804	 0.134818
75.763	131.0721	182.1795	224.7872	378.2592	409.0883	428.9657	551.8843	581.4679	641.9967	691.0097	747.6492	768.1897	820.9163	876.9652	908.0651	932.1392	1021.0705	1041.955	1097.0203	1112.5979	1138.2978	1169.3938	1173.6623	1178.8032	1210.2751	1328.9585	1348.3841	1435.9181	1486.339	1512.1154	1708.9524	1898.4061	3116.9889	3120.6537	3205.2109	3219.39	3310.798	3693.3248
O=C1NC(=CO1)N1CC1	O=c1[nH]c(co1)N1CC1	
InChI=1S/C5H6N2O2/c8-5-6-4(3-9-5)7-1-2-7/h3H,1-2H2,(H,6,8)	InChI=1S/C5H6N2O2/c8-5-6-4(3-9-5)7-1-2-7/h3H,1-2H2,(H,6,8)
