22
gdb 8312	6.04163	0.81423	0.78023	1.5432	78.8	-0.2543	0.0806	0.3349	1534.4666	0.19976	-350.20203	-350.192772	-350.191828	-350.236275	34.374	
C	 0.0432407309	 1.5651677441	 0.0073307435	-0.379346
C	 0.142100553	 0.0373754559	-0.0094060821	-0.161278
C	 0.6373830622	-0.5498091341	 1.3177702699	-0.187805
C	 0.7443916634	-2.0692421376	 1.3109211236	 0.047806
C	 1.8441247406	-2.7497496336	 0.4423761304	-0.27257
C	 2.0240001962	-3.7882386455	 1.5804484462	 0.171123
O	 3.2938289584	-4.3147445434	 1.8698547828	-0.433256
C	 1.3469018204	-2.7870033121	 2.5524162713	-0.293057
H	 1.0179538162	 2.0227693791	 0.2107650883	 0.112551
H	-0.3128485804	 1.9544080711	-0.9516688838	 0.110871
H	-0.6494481407	 1.9083510434	 0.7839770195	 0.113277
H	-0.8401896637	-0.3914077781	-0.2486283257	 0.093718
H	 0.8144600476	-0.2780648272	-0.8177446086	 0.099098
H	 1.6203967276	-0.1209539747	 1.5609601586	 0.083157
H	-0.0376828738	-0.2375394179	 2.1272683436	 0.091688
H	-0.2335173982	-2.504306647	 1.0718469683	 0.070197
H	 1.5892840828	-3.111636304	-0.5564245147	 0.098619
H	 2.7302584874	-2.1061755544	 0.3673248942	 0.085564
H	 1.3810335784	-4.6579273599	 1.4132777399	 0.091584
H	 3.8909718207	-3.5755113774	 2.0260639754	 0.273983
H	 2.1009276716	-2.1540781341	 3.0376589847	 0.086173
H	 0.6727256794	-3.1773952027	 3.3186557248	 0.097904
65.3871	90.7046	106.4235	170.0984	247.8618	292.9449	308.3505	343.7739	417.3328	430.2351	464.3269	607.1813	746.5294	782.2738	808.1937	862.0369	899.874	921.9643	952.7286	998.2483	1033.7091	1042.2579	1051.8501	1085.0367	1098.0248	1138.6437	1163.2285	1210.7417	1213.6205	1252.095	1263.7957	1274.1712	1289.0032	1314.0625	1331.3231	1337.2444	1375.732	1399.0869	1413.074	1440.7116	1470.8513	1481.8091	1492.5692	1500.1759	1500.2485	1510.4234	2997.3143	3016.0205	3021.2887	3024.9559	3028.544	3029.6949	3037.9393	3054.9062	3065.5062	3094.9451	3099.842	3100.766	3106.3062	3806.4999
CCCC1CC(O)C1	CCC[C@H]1C[C@@H](O)C1	
InChI=1S/C7H14O/c1-2-3-6-4-7(8)5-6/h6-8H,2-5H2,1H3	InChI=1S/C7H14O/c1-2-3-6-4-7(8)5-6/h6-8H,2-5H2,1H3/t6-,7+
