17
gdb 32184	2.12339	1.66842	0.99356	3.6223	78.6	-0.2109	-0.0305	0.1804	1175.2587	0.137129	-418.051629	-418.043158	-418.042214	-418.085194	30.89	
C	 0.3940200943	 0.8134891365	 0.529249195	-0.331231
N	-0.18078121	 0.1007297418	-0.6217722391	-0.387737
C	-1.3906126847	-0.5725607834	-0.3836974708	 0.307307
C	-2.6996962064	-0.1997515108	-0.5108480364	-0.236164
C	-3.5148129722	-1.3238911118	-0.1432955649	-0.158765
C	-2.6863488865	-2.34512949	 0.2106611422	-0.079173
N	-1.3756687984	-1.906312665	 0.0558513595	-0.076082
C	-0.2437485656	-2.7009938127	 0.2104749392	 0.17145
O	-0.2760934492	-3.8431218996	 0.5932584548	-0.303481
H	 1.327857627	 1.2911781109	 0.2203967986	 0.125788
H	-0.2769260216	 1.5771305734	 0.9491710632	 0.116618
H	 0.6282609831	 0.0978321864	 1.3222645778	 0.134332
H	-0.2870999565	 0.7307652574	-1.4068120877	 0.240076
H	-3.0458220438	 0.7734082516	-0.8258123289	 0.099826
H	-4.5936520819	-1.3557696678	-0.1355635758	 0.109013
H	-2.8688365219	-3.3504459214	 0.5491987125	 0.148988
H	 0.6720970143	-2.1586640555	-0.0696495093	 0.119234
65.7617	142.1062	149.7029	168.4934	226.5992	271.8829	363.9654	399.6295	570.5885	622.4433	628.0855	681.5545	738.2699	762.5145	811.9063	831.5522	871.932	908.3956	1016.7874	1051.2796	1053.4096	1083.5464	1137.5792	1154.0045	1207.1888	1258.2218	1316.5747	1354.5748	1419.0625	1434.2944	1452.2938	1479.8152	1488.3363	1512.0162	1539.2632	1627.1023	1813.8398	2995.908	3032.3901	3082.5116	3119.6396	3239.7074	3254.4341	3294.9589	3558.6559
CNC1=CC=CN1C=O	CNc1cccn1C=O	
InChI=1S/C6H8N2O/c1-7-6-3-2-4-8(6)5-9/h2-5,7H,1H3	InChI=1S/C6H8N2O/c1-7-6-3-2-4-8(6)5-9/h2-5,7H,1H3
