21
gdb 84154	2.42241	1.53687	1.06011	1.7476	85.01	-0.2331	0.0278	0.261	1208.4044	0.182719	-387.101673	-387.092956	-387.092012	-387.134815	33.754	
C	 0.3646401587	 1.5620208831	 0.0543938401	-0.388116
C	-0.0164144515	 0.0712259905	-0.0251372728	-0.067597
C	 0.5218020382	-0.5665000628	-1.280338784	-0.139211
C	 1.1614831961	-1.7340594043	-1.3625844639	 0.305476
C	 1.6604456351	-2.2833417105	-2.6718651077	-0.473752
C	 1.4196713537	-2.6034569635	-0.155301029	-0.336686
C	 1.1188270496	-1.9438622839	 1.1686894473	 0.049252
O	 1.8335141837	-0.7373423474	 1.4568151349	-0.263785
C	 0.4206776198	-0.6538679777	 1.2309911002	 0.044349
H	 1.4500282356	 1.6679228002	 0.1339682604	 0.137121
H	 0.0285701629	 2.0987978567	-0.8382975193	 0.110679
H	-0.0918881794	 2.0395371219	 0.9277574253	 0.109862
H	-1.1166895514	 0.0119350564	-0.0531993494	 0.081909
H	 0.3604599839	 0.0049010889	-2.1933784746	 0.073959
H	 1.415875427	-1.6217436107	-3.506911992	 0.120115
H	 2.749517551	-2.4209064415	-2.6528556556	 0.124276
H	 1.2272110871	-3.2703562765	-2.8814032504	 0.119035
H	 0.8196780812	-3.5231012965	-0.2309733294	 0.110175
H	 2.4663318125	-2.9415752061	-0.1576707255	 0.114953
H	 1.038456096	-2.6209468526	 2.0203185841	 0.084691
H	-0.15315503	-0.4145924237	 2.1280620815	 0.083293
81.4204	149.5772	197.1071	214.8302	245.1605	306.9123	346.8037	387.1647	437.7413	473.8821	494.0997	642.5953	686.3662	779.9486	824.2535	849.7738	886.7116	917.0579	932.9713	990.9262	1001.6513	1005.2141	1052.6602	1066.32	1091.9245	1103.6176	1153.6238	1162.0351	1176.2335	1246.3278	1289.4184	1311.0998	1328.7864	1362.9717	1380.1695	1396.133	1411.806	1413.9259	1462.585	1478.0132	1482.2887	1491.2703	1494.7407	1503.4897	1748.4658	2971.0473	2994.7007	3012.5792	3018.9413	3034.4994	3057.1534	3087.7043	3101.0594	3102.4141	3111.0755	3120.7306	3132.4005
CC1C=C(C)CC2OC12	C[C@H]1C=C(C)C[C@H]2O[C@@H]12	
InChI=1S/C8H12O/c1-5-3-6(2)8-7(4-5)9-8/h3,6-8H,4H2,1-2H3	InChI=1S/C8H12O/c1-5-3-6(2)8-7(4-5)9-8/h3,6-8H,4H2,1-2H3/t6-,7+,8-/m0/s1
