16
gdb 17028	4.20973	1.59891	1.34555	1.0803	71.45	-0.2545	0.0441	0.2986	923.6022	0.13024	-346.51255	-346.505367	-346.504423	-346.543605	28.351	
O	-0.0620043726	 1.5166155067	 0.0060531233	-0.441988
C	 0.0125496363	 0.1150215357	 0.0279509049	 0.151202
C	-0.0301932904	-0.6381133278	 1.4006923466	-0.10157
C	-1.5041062987	-0.1548710251	 1.5305469547	-0.243054
C	-1.3529020793	-0.6133495786	 0.0484365904	-0.070927
C	-0.5893957837	-1.8677261774	 0.6045266623	-0.17745
C	 0.2789423755	-2.6460648463	-0.2565491991	 0.308091
C	 0.9841528494	-3.3271260658	-0.9542080796	-0.447104
H	 0.8316689089	 1.8653741277	 0.0744410809	 0.286281
H	 0.7428224042	-0.2633331697	-0.6946330804	 0.081377
H	 0.7379011457	-0.6723418755	 2.1747230738	 0.075169
H	-2.1608430807	-0.758048847	 2.162804391	 0.089076
H	-1.6469038823	 0.9120520444	 1.6876663611	 0.118365
H	-2.1105795984	-0.6164733054	-0.7354479749	 0.081527
H	-1.2221143305	-2.5231824136	 1.2093411697	 0.099743
H	 1.6074807567	-3.9231468324	-1.5736295548	 0.19126
144.182	162.4884	253.2676	317.218	349.2612	431.6298	498.091	511.0149	615.7876	635.6485	645.3843	775.9481	830.5249	850.0307	887.1831	904.0324	918.6169	1019.3501	1020.4175	1067.6272	1088.1473	1094.1787	1108.6473	1160.5582	1194.7731	1195.7248	1221.4508	1231.8919	1257.1218	1310.9022	1371.2919	1442.5636	1514.7794	2228.0593	3057.4984	3067.1772	3069.3409	3104.4764	3116.1611	3165.1446	3503.112	3828.2565
OC1C2CC1C2C#C	O[C@H]1[C@H]2C[C@@H]1[C@H]2C#C	
InChI=1S/C7H8O/c1-2-4-5-3-6(4)7(5)8/h1,4-8H,3H2	InChI=1S/C7H8O/c1-2-4-5-3-6(4)7(5)8/h1,4-8H,3H2/t4-,5-,6+,7-
