20
gdb 65229	2.64058	1.33546	1.13097	3.4514	80.8	-0.2363	0.0374	0.2737	1184.9832	0.170532	-403.162775	-403.153767	-403.152823	-403.197158	33.615	
C	-0.1546411932	 1.4779794995	 0.2602865088	-0.449105
C	 0.0105581465	-0.0059156335	-0.0057632066	 0.337206
C	 1.3537393496	-0.5309920646	-0.4783097337	-0.302055
C	 0.8629207945	-0.8389436603	 0.9147451722	-0.292186
N	-1.1525724299	-0.6492281361	-0.5331137448	-0.120593
C	-1.8120112772	-0.5231837486	-1.8410658127	-0.175527
C	-2.8494830605	-1.5680959337	-1.3471819174	-0.371727
C	-2.0376418656	-1.5826326833	-0.0314667624	 0.404746
O	-2.0989426431	-2.1629605053	 1.0212264328	-0.376404
H	 0.7756025707	 1.9080827376	 0.6425274967	 0.119465
H	-0.4191666383	 2.019932912	-0.6548820695	 0.116925
H	-0.9426271597	 1.6542644532	 0.9998811284	 0.129442
H	 1.3496427041	-1.3360695292	-1.2044079422	 0.115115
H	 2.1602398863	 0.1839747222	-0.5992559866	 0.113257
H	 1.3293979057	-0.32616941	 1.7487667289	 0.116996
H	 0.5216926397	-1.8415933981	 1.136889458	 0.149003
H	-2.2128891547	 0.4752123519	-2.045217119	 0.111677
H	-1.1868564452	-0.840683355	-2.6825901034	 0.11061
H	-3.8725687527	-1.2041875814	-1.2381898978	 0.13185
H	-2.854362087	-2.5188518375	-1.8830293697	 0.131303
36.4014	93.6181	166.244	182.8375	223.5383	290.0176	318.4918	402.7813	427.8358	500.2892	563.2849	612.2232	775.842	781.0818	821.3785	824.9064	868.0849	941.6761	944.2573	946.8118	1032.5103	1040.7024	1043.5467	1068.1246	1083.9193	1114.3872	1151.9819	1156.8294	1186.6294	1189.126	1207.8346	1229.6212	1312.1698	1344.1332	1410.0076	1418.26	1463.2158	1466.2095	1485.5826	1497.4258	1507.3354	1528.4712	1867.4816	3028.9072	3035.1696	3077.1972	3087.9893	3093.1938	3110.7386	3135.0602	3144.8314	3148.8515	3220.9441	3244.8317
CC1(CC1)N1CCC1=O	CC1(CC1)N1CCC1=O	
InChI=1S/C7H11NO/c1-7(3-4-7)8-5-2-6(8)9/h2-5H2,1H3	InChI=1S/C7H11NO/c1-7(3-4-7)8-5-2-6(8)9/h2-5H2,1H3
