23
gdb 60427	4.29908	0.62448	0.57455	3.3245	84.42	-0.2443	-0.0098	0.2345	2024.5133	0.200915	-425.444829	-425.433108	-425.432164	-425.483803	40.149	
C	-0.0495747345	 1.5516074242	 0.0503105203	-0.383345
C	 0.0338254199	 0.0206175567	 0.0246159976	 0.020594
C	 0.7426977318	-0.4905807866	-1.235438035	-0.393708
C	 0.7303874684	-0.5155945686	 1.2741890837	-0.038026
O	-0.0081343535	-0.1257630363	 2.4160554674	-0.227721
C	 0.5568358803	-0.5471519517	 3.6164783236	-0.153784
C	-0.2855255381	-0.074296183	 4.7997146579	 0.358203
C	 0.2831266721	-0.4192726275	 6.1665305211	-0.482858
O	-1.3172023417	 0.5307037073	 4.6557708698	-0.269774
H	 0.9527905206	 1.9965283156	 0.0142667015	 0.103421
H	-0.6102022228	 1.927078025	-0.8117051271	 0.10752
H	-0.5420218328	 1.8965823208	 0.9620252432	 0.141293
H	-0.988378545	-0.3800321271	 0.0380027415	 0.0875
H	 1.7776656372	-0.1305686774	-1.2802872165	 0.112301
H	 0.7674484367	-1.585118581	-1.271834469	 0.110278
H	 0.2332099714	-0.137778386	-2.1372789033	 0.11631
H	 0.8064884758	-1.6157590388	 1.2293873731	 0.081268
H	 1.7610659958	-0.1209543347	 1.3335029174	 0.080275
H	 0.6356058839	-1.6498146416	 3.6714582076	 0.103341
H	 1.5873323714	-0.1657029303	 3.7466320596	 0.101644
H	 1.1918070362	 0.1658277629	 6.3509421825	 0.143518
H	-0.4529694165	-0.1861583398	 6.936516127	 0.147294
H	 0.5643550034	-1.4761059322	 6.226728836	 0.134453
26.9701	46.868	66.3093	89.3805	127.9212	145.1691	209.234	224.003	250.1002	267.6548	370.013	380.8516	440.804	479.3638	492.7699	613.6933	812.8833	853.8869	865.4331	922.0249	933.3904	943.2345	964.9943	978.6894	1063.4039	1096.08	1158.4315	1172.5225	1189.4968	1199.2684	1208.4798	1258.9155	1277.2512	1328.2961	1373.1852	1378.4219	1388.0268	1398.4973	1414.6021	1438.936	1463.444	1476.1961	1484.5038	1489.9754	1491.31	1502.4987	1513.0912	1523.3667	1835.9278	2925.1031	2941.1563	2944.9324	2969.9011	3022.7391	3024.4961	3030.917	3036.5901	3087.8922	3093.4418	3097.5591	3103.0837	3130.0038	3153.821
CC(C)COCC(C)=O	CC(C)COCC(=O)C	
InChI=1S/C7H14O2/c1-6(2)4-9-5-7(3)8/h6H,4-5H2,1-3H3	InChI=1S/C7H14O2/c1-6(2)4-9-5-7(3)8/h6H,4-5H2,1-3H3
