19
gdb 37772	2.68613	2.00521	1.43803	0.6616	86.45	-0.2067	-0.0231	0.1836	953.3565	0.163267	-348.737146	-348.730522	-348.729578	-348.767704	28.254	
C	 0.0449874804	 1.6007619876	 0.0764029809	-0.256446
C	 1.5611135725	 1.5474056545	-0.1210690805	-0.073993
C	 2.2209745861	 0.7819542886	 1.0194277888	-0.051104
C	 1.8244027201	 0.8373484465	 2.4424347634	-0.08194
C	 0.7916952705	 0.2385752821	 3.0620337081	-0.090229
C	-0.2591097569	-0.5975773041	 2.4958473418	-0.078475
C	-0.615091111	-0.713395825	 1.2062277036	-0.092074
C	 0.0098677211	 0.018297702	 0.0601676283	-0.050092
C	 1.5423401984	 0.0232968618	-0.0860650001	-0.10476
H	-0.2988130505	 2.0692140238	 1.0017802361	 0.110353
H	-0.4949692569	 2.0376819948	-0.7661810542	 0.102268
H	 2.1425051039	 2.2055578509	-0.7554991095	 0.084472
H	 3.3027788868	 0.7889319421	 0.8919976529	 0.08965
H	 2.4931644878	 1.4295771433	 3.0654563823	 0.083955
H	 0.720517336	 0.3865426565	 4.1379532437	 0.082425
H	-0.8359674547	-1.1609957038	 3.2265347446	 0.082826
H	-1.444795678	-1.3756376309	 0.9690206872	 0.085268
H	-0.4429024645	-0.3124693642	-0.8774501914	 0.073764
H	 2.0931551788	-0.6874150763	-0.690544906	 0.084132
186.4011	223.5547	311.2773	386.3533	447.1876	452.5877	592.4302	659.1485	702.6152	752.4926	773.6942	793.3953	823.758	828.9923	876.2468	898.5677	925.9763	967.8937	983.4383	998.2856	1004.394	1008.7975	1027.5628	1064.2494	1084.082	1086.7777	1146.2106	1171.1341	1223.6433	1255.1893	1259.4343	1275.4047	1292.0738	1332.5841	1364.2733	1423.167	1436.8758	1470.2247	1488.3643	1667.4397	1704.5507	3063.8611	3072.428	3113.3058	3117.97	3125.2508	3134.1929	3148.4499	3161.1496	3173.0154	3185.5807
C1C2C3C=CC=CC1C23	C1[C@H]2[C@H]3C=CC=C[C@@H]1[C@@H]23	
InChI=1S/C9H10/c1-2-4-7-8-5-6(3-1)9(7)8/h1-4,6-9H,5H2	InChI=1S/C9H10/c1-2-4-7-8-5-6(3-1)9(7)8/h1-4,6-9H,5H2/t6-,7+,8-,9+/m0/s1
