16
gdb 35437	2.43675	1.42269	1.10232	4.1	81.03	-0.2519	0.0121	0.2641	1123.3083	0.123894	-363.567185	-363.559056	-363.558112	-363.599947	30.939	
C	-0.0063277258	-1.1966642415	-0.0228927837	-0.400046
C	 0.0112285303	 0.006761221	-0.0148914796	 0.178762
C	 0.017987618	 1.4268503824	 0.0269710367	 0.209398
C	 0.3039248313	 2.3056091679	-1.1708809154	-0.329788
C	 1.197396815	 2.4300832531	 0.0214722166	-0.10321
C	 0.5271105157	 3.2741441055	 1.1067359346	-0.245098
C	-0.6773151171	 2.2624636658	 1.1344392129	-0.228535
C	-2.0055272442	 2.7806129358	 0.8355480243	 0.282165
N	-3.0472249472	 3.2119854584	 0.5788593359	-0.33116
H	-0.0234505248	-2.2582572125	-0.0395598467	 0.193575
H	 0.7205774353	 1.773391013	-2.018268198	 0.138067
H	-0.3922931067	 3.0993504268	-1.4308460532	 0.135918
H	 2.2520688305	 2.1915802667	-0.0217340468	 0.113959
H	 1.0603275056	 3.277138639	 2.0579861323	 0.125082
H	 0.2806505841	 4.3019906022	 0.8293608243	 0.126198
H	-0.70737734	 1.7133179264	 2.0771129056	 0.134715
90.2213	129.0751	157.2872	211.4057	310.5445	402.3153	459.0272	482.3617	533.6872	546.568	581.1007	646.6442	663.0884	715.2206	804.7967	838.3385	869.4423	949.5061	975.7987	1023.1005	1035.1882	1043.1334	1084.917	1093.5342	1150.4008	1188.8443	1210.2754	1264.5235	1285.2965	1335.6805	1383.8813	1481.0377	1499.8233	2233.796	2352.4329	3072.6593	3099.363	3118.2178	3134.2186	3202.7727	3221.3403	3502.2975
C#CC12CC1CC2C#N	C#C[C@]12C[C@H]1C[C@H]2C#N	
InChI=1S/C8H7N/c1-2-8-4-6(8)3-7(8)5-9/h1,6-7H,3-4H2	InChI=1S/C8H7N/c1-2-8-4-6(8)3-7(8)5-9/h1,6-7H,3-4H2/t6-,7+,8+/m1/s1
