18
gdb 64968	3.71786	0.9705	0.82701	6.1513	77.71	-0.2671	-0.0327	0.2345	1382.4689	0.145549	-401.973043	-401.963612	-401.962668	-402.008264	34.043	
C	 0.0925703464	 1.4747057972	-0.1927682288	-0.48898
C	 0.0749322582	-0.0410204328	-0.1338954037	 0.229235
C	 1.4114538032	-0.7819256213	-0.1850636047	-0.272065
C	 0.6643288036	-0.7231822974	 1.1010324275	-0.272057
C	-1.0581370639	-0.7987558426	-0.7575344456	 0.330236
O	-1.1221857049	-2.0052801409	-0.7393600958	-0.298556
C	-2.1597591996	 0.0404877712	-1.4361848561	-0.485486
C	-3.2237893582	-0.7682837264	-2.0171089949	 0.29436
N	-4.0816312717	-1.3811081198	-2.4872718822	-0.29502
H	 0.9857149472	 1.8579047432	 0.3079588291	 0.126289
H	 0.1161551371	 1.8498047365	-1.221929744	 0.125486
H	-0.7729809842	 1.9196236753	 0.3105299615	 0.125504
H	 1.4142565193	-1.724909366	-0.7184252152	 0.144995
H	 2.2967925767	-0.1680793362	-0.3081797874	 0.120937
H	 1.0211425573	-0.0677686512	 1.8877416305	 0.120933
H	 0.1657628207	-1.6267366747	 1.4307522528	 0.145002
H	-2.5872879965	 0.7367666798	-0.7048342343	 0.174589
H	-1.7097151607	 0.667200846	-2.2153813386	 0.174597
35.8863	55.5062	125.9391	222.6669	248.1675	278.7233	311.7027	346.3424	382.6013	386.17	433.6665	572.2441	580.5587	767.9041	795.2038	817.8044	856.2799	920.3496	953.4697	960.6602	982.0333	1039.0934	1076.8642	1083.8968	1092.2201	1117.5603	1204.7719	1218.0219	1291.5011	1313.9547	1348.4414	1422.8642	1434.0421	1452.1134	1482.7357	1497.2929	1500.5229	1796.4891	2376.266	3029.219	3044.6852	3078.399	3089.5536	3108.5295	3139.8004	3141.6591	3230.4593	3243.7683
CC1(CC1)C(=O)CC#N	CC1(CC1)C(=O)CC#N	
InChI=1S/C7H9NO/c1-7(3-4-7)6(9)2-5-8/h2-4H2,1H3	InChI=1S/C7H9NO/c1-7(3-4-7)6(9)2-5-8/h2-4H2,1H3
