19
gdb 85416	2.43487	1.38809	1.10481	3.0603	70.85	-0.2415	-0.0195	0.222	1146.4008	0.157037	-460.194935	-460.185687	-460.184742	-460.228519	35.586	
C	 0.1856495653	 1.6101741232	 0.0287389952	-0.432892
C	 0.0238710436	 0.0865116831	-0.0489510036	 0.36555
O	-1.3522418131	-0.2583343795	-0.1350403244	-0.486019
C	 0.7637120965	-0.5029233292	-1.2574854281	-0.353919
C	 2.184523871	-0.7899131769	-0.7672765902	 0.405835
O	 3.1344222243	-1.0388513752	-1.4617426864	-0.313254
C	 2.1914089602	-0.7115920063	 0.7660466324	-0.372565
C	 0.7059760037	-0.638120512	 1.1420023548	 0.071221
O	 0.3995125546	 0.0435016324	 2.3461373637	-0.44427
H	 1.2369712152	 1.9146564483	 0.0053332631	 0.116536
H	-0.3226120096	 2.0671218088	-0.8245136778	 0.124796
H	-0.2495202388	 1.9980776432	 0.9530879372	 0.130638
H	-1.7757551167	 0.071759716	 0.6658633067	 0.281993
H	 0.2992863439	-1.4584892569	-1.5328620593	 0.141873
H	 0.7628933833	 0.1298307637	-2.1476635199	 0.130136
H	 2.740408157	-1.5509300626	 1.2009730015	 0.123829
H	 2.7057493248	 0.2095264373	 1.0672140265	 0.140208
H	 0.2815192036	-1.6533941595	 1.1613724565	 0.080228
H	 0.6972981412	-0.4930791278	 3.0866317521	 0.290077
73.1664	125.1394	233.528	250.4099	271.5462	279.4014	341.0341	342.2356	360.413	437.664	468.8539	506.6556	543.5384	559.7042	591.2285	737.5523	781.1132	815.9133	922.6912	955.5495	991.0694	994.5583	1061.694	1101.7101	1126.1497	1134.5811	1181.6799	1194.5268	1201.8114	1247.2582	1280.1942	1300.0152	1352.4191	1386.1917	1404.1701	1426.9651	1444.1963	1457.9885	1492.6213	1498.1399	1851.0171	2988.0386	3041.5327	3043.1562	3046.374	3102.6518	3112.6108	3113.6097	3129.885	3796.706	3830.3102
CC1(O)CC(=O)CC1O	C[C@@]1(O)CC(=O)C[C@H]1O	
InChI=1S/C6H10O3/c1-6(9)3-4(7)2-5(6)8/h5,8-9H,2-3H2,1H3	InChI=1S/C6H10O3/c1-6(9)3-4(7)2-5(6)8/h5,8-9H,2-3H2,1H3/t5-,6-/m1/s1
