19
gdb 47657	2.00424	1.9519	1.26071	2.2431	76.95	-0.249	0.0065	0.2555	1062.8421	0.16082	-423.060021	-423.051904	-423.05096	-423.09294	31.047	
O	 0.8638179903	 0.3418834697	 0.5027221008	-0.341644
C	 0.0888678888	 1.1827180484	 0.1359200959	 0.431954
C	-1.4151451002	 1.0962046289	 0.1360034613	-0.308579
C	-1.9844455565	 2.3145437965	 0.8933370366	-0.200805
C	-1.394905726	 2.5506046767	 2.2992549078	-0.25204
C	-0.0405365057	 3.1986598258	 2.551127609	-0.039387
C	 1.0973730452	 3.3930960223	 1.8762022553	-0.058795
C	 1.5254000117	 3.0055113172	 0.4901523698	-0.144938
O	 0.4541804672	 2.4367992076	-0.256325071	-0.236264
H	-1.7878442294	 1.097159902	-0.8944414669	 0.127944
H	-1.7025748413	 0.1494325522	 0.5998049833	 0.124426
H	-1.8493896651	 3.2101449166	 0.2824336649	 0.120527
H	-3.0637575055	 2.16527426	 1.0096243464	 0.098416
H	-2.1150157375	 3.1772023994	 2.8407259494	 0.11075
H	-1.4007663943	 1.5968848619	 2.8507501369	 0.123537
H	-0.0035334552	 3.57068287	 3.5753126443	 0.091521
H	 1.8962176973	 3.8990791961	 2.4181596504	 0.090618
H	 1.8552268621	 3.8833550598	-0.0752076748	 0.122516
H	 2.364860654	 2.3009260091	 0.5395114308	 0.140245
71.9337	98.1319	209.7691	259.0022	297.0369	358.2129	390.8117	414.2042	525.7978	615.329	674.8495	680.4835	734.3286	780.4322	843.7052	873.6082	881.4961	952.4997	978.3408	1016.3346	1037.0571	1061.7446	1065.0234	1124.2238	1163.0208	1225.5081	1234.7618	1282.818	1292.9872	1304.4673	1356.0868	1381.6832	1394.9736	1406.7727	1438.6621	1462.0125	1470.9068	1477.9084	1486.3816	1730.8323	1841.8723	2990.886	3029.5514	3034.4746	3045.7669	3055.0271	3077.9678	3098.7245	3109.563	3117.5333	3136.2219
O=C1CCCC=CCO1	O=C1CCCC=CCO1	
InChI=1S/C7H10O2/c8-7-5-3-1-2-4-6-9-7/h2,4H,1,3,5-6H2/b4-2-	InChI=1S/C7H10O2/c8-7-5-3-1-2-4-6-9-7/h2,4H,1,3,5-6H2/b4-2-
