20
gdb 75113	2.97938	1.25131	0.97732	3.279	83.2	-0.2384	0.0109	0.2493	1255.1796	0.171897	-403.166274	-403.157523	-403.156578	-403.19983	33.182	
C	-0.1988614614	 1.5664296464	 0.0525753568	-0.482562
C	-0.0347868012	 0.0722562513	 0.0129441578	 0.331815
C	-0.0110898004	-0.6210393198	-1.1256810818	-0.171539
C	 0.1134199959	-2.1282212052	-1.196558068	-0.311611
C	 1.375865001	-2.7152758305	-0.6040249888	 0.364534
N	 2.174138623	-3.384709296	-1.3239090051	-0.476768
O	 1.5511472629	-2.6339359844	 0.7546338254	-0.257865
C	 1.4566041245	-1.3932098706	 1.464666645	-0.065361
C	 0.1298247274	-0.6395027723	 1.3421228002	-0.314112
H	 0.6580062297	 2.0485645275	 0.5414073584	 0.123917
H	-0.3014623156	 1.9902870347	-0.9496489472	 0.124315
H	-1.0852911689	 1.8485780928	 0.6358390424	 0.125799
H	-0.1092591014	-0.0991975515	-2.0736951416	 0.090534
H	-0.7363532429	-2.5913231828	-0.6727979437	 0.123622
H	 0.0790677822	-2.4637253049	-2.232843418	 0.133444
H	 2.9465615898	-3.7261958786	-0.7463835445	 0.215679
H	 1.6241033558	-1.6815348536	 2.5062775204	 0.1147
H	 2.2833960124	-0.7391815794	 1.1554778068	 0.106644
H	 0.0926803845	 0.0857724965	 2.1626551942	 0.104587
H	-0.6940166474	-1.3456745596	 1.5152301314	 0.12023
75.9424	90.1956	194.5808	214.4891	262.4448	315.8546	342.933	360.3783	446.7235	502.4636	536.4927	600.5871	705.2817	741.2369	814.2398	860.2589	887.2846	937.8009	953.5732	989.2788	1014.2006	1020.7099	1056.492	1093.8606	1102.3745	1134.4401	1178.2964	1219.6738	1247.4737	1312.8703	1319.7366	1333.5859	1350.8178	1383.7793	1413.8594	1433.7112	1463.7726	1476.3222	1479.8294	1490.1898	1500.3791	1734.2525	1745.1655	2999.8348	3009.8244	3012.3743	3019.3267	3056.9859	3070.0287	3088.3981	3113.9451	3131.5683	3163.2191	3450.6624
CC1=CCC(=N)OCC1	CC1=CC[C]([NH])OCC1	
InChI=1S/C7H11NO/c1-6-2-3-7(8)9-5-4-6/h2,8H,3-5H2,1H3	InChI=1S/C7H11NO/c1-6-2-3-7(8)9-5-4-6/h2,8H,3-5H2,1H3
