17
gdb 56962	2.29063	1.15658	0.85341	5.1796	74.13	-0.2631	-0.0415	0.2215	1340.3411	0.134519	-418.003158	-417.993841	-417.992897	-418.038245	32.824	
C	 0.0476721343	 1.492050814	 0.0276372939	-0.39868
C	-0.1941936481	-0.0292178042	-0.0374475183	-0.149132
C	-1.6279166621	-0.3325517776	-0.1088675315	 0.270406
N	-2.7588756427	-0.5588116234	-0.1789369605	-0.31242
C	 0.5348385	-0.6394541946	-1.2317860595	-0.006849
N	 1.9579571861	-0.8645918443	-1.0639702985	-0.338008
C	 1.0800227415	-2.0375223232	-1.2753843194	-0.126309
C	 0.9847343271	-2.9874439631	-0.1275050115	 0.176181
O	 0.6993434466	-4.1498092956	-0.2540695923	-0.245565
H	 1.121457591	 1.6784977787	 0.1060810251	 0.142671
H	-0.3325930268	 1.9859520013	-0.8711774343	 0.136607
H	-0.4521024609	 1.9292105928	 0.8948366974	 0.142839
H	 0.1978170334	-0.481182873	 0.8791021968	 0.135581
H	 0.181118936	-0.2625301099	-2.1908421832	 0.116051
H	 2.4800288772	-0.6515340398	-1.908844993	 0.251831
H	 1.0689766774	-2.5266041223	-2.2461496836	 0.116943
H	 1.2208244301	-2.5419529258	 0.8633010524	 0.087854
41.597	81.5993	134.5333	188.8564	210.2973	234.1044	284.4909	314.1818	417.728	434.2649	513.607	538.0028	593.8359	793.2917	847.6569	903.3946	917.5688	958.8946	995.305	1028.59	1055.6001	1082.6979	1113.4982	1147.281	1201.4615	1227.5506	1253.2604	1295.1858	1321.8249	1365.8621	1404.0999	1420.853	1467.2568	1496.5469	1497.4677	1829.0982	2360.2576	2897.4918	3050.3429	3067.616	3117.4093	3128.4765	3137.495	3154.1103	3522.5179
CC(C#N)C1NC1C=O	C[C@@H](C#N)[C@H]1N[C@H]1C=O	
InChI=1S/C6H8N2O/c1-4(2-7)6-5(3-9)8-6/h3-6,8H,1H3	InChI=1S/C6H8N2O/c1-4(2-7)6-5(3-9)8-6/h3-6,8H,1H3/t4-,5-,6+/m0/s1
