12
gdb 21804	6.73338	1.17962	1.08381	2.9073	55.94	-0.2637	-0.0427	0.221	1013.5745	0.083542	-414.66502	-414.658162	-414.657218	-414.697507	23.126	
O	-0.2470826904	 0.0545677743	 0.2764660009	-0.225047
C	-0.0317244208	 1.2086245758	 0.0252711029	 0.157868
C	 1.3618832913	 1.7533435793	-0.2889699921	-0.38576
C	 1.3373445339	 2.8282261734	-1.3219400628	 0.355808
N	 1.974164637	 2.7293631831	-2.4596270952	-0.164923
O	 1.667882449	 3.9324441432	-3.109317304	-0.146804
C	 0.875062341	 4.6092307319	-2.281222753	 0.113054
N	 0.6247119353	 4.002679931	-1.1652134341	-0.305001
H	-0.8364935515	 1.9737275514	 0.0285047259	 0.108778
H	 1.7457613288	 2.17855241	 0.6490936116	 0.159238
H	 2.0148443114	 0.9327726682	-0.588890709	 0.15931
H	 0.5270943851	 5.5771792283	-2.6110771611	 0.173479
51.9009	70.9183	150.8194	310.5651	386.026	447.0993	633.2082	672.2634	769.3188	810.3518	908.7293	909.6732	983.7598	993.0809	1037.8408	1054.4029	1151.5696	1200.1912	1278.3742	1306.8925	1367.0026	1418.923	1439.7793	1520.8373	1603.2956	1842.0061	2916.8692	3027.6636	3138.5942	3268.7051
O=CCC1=NOC=N1	O=CCc1nocn1	
InChI=1S/C4H4N2O2/c7-2-1-4-5-3-8-6-4/h2-3H,1H2	InChI=1S/C4H4N2O2/c7-2-1-4-5-3-8-6-4/h2-3H,1H2
