19
gdb 86597	3.04541	1.10181	0.9167	1.0237	77.35	-0.2463	-0.0291	0.2172	1332.4516	0.157491	-423.01457	-423.00552	-423.004576	-423.049152	32.975	
C	 0.3752000278	 1.5942709463	-0.014925664	-0.401723
C	 0.0431406387	 0.1324856415	 0.2245320883	 0.033871
O	 0.6903141807	-0.7791131875	-0.6980125886	-0.315701
C	 1.3131065085	-1.5773606261	 0.3447765313	 0.007881
C	 2.7993826555	-1.7153280812	 0.2199508635	 0.011775
C	 3.4928922429	-2.8588855238	 0.9225262875	-0.262267
C	 3.3857427716	-2.8563123262	-0.577816804	-0.269863
C	 0.7474294916	-0.5886813834	 1.3834527322	 0.308909
O	 0.8561188268	-0.4211154809	 2.5594745281	-0.278936
H	 1.4561128748	 1.7587076362	 0.0015899713	 0.126484
H	-0.009152186	 1.9153790256	-0.987350878	 0.135087
H	-0.0857642842	 2.211496822	 0.7623651603	 0.135029
H	-1.0459172899	-0.0232003846	 0.2372331131	 0.102992
H	 0.8423163394	-2.5700938026	 0.4187063635	 0.096142
H	 3.333932659	-0.7710024807	 0.1817461061	 0.09002
H	 4.4560005275	-2.6589163938	 1.3771221679	 0.120894
H	 2.879411491	-3.559907568	 1.4783082445	 0.120419
H	 2.6964965658	-3.5529940582	-1.042777956	 0.119714
H	 4.2775423084	-2.6567268646	-1.1606876171	 0.119272
63.5284	65.7855	129.7311	191.7783	193.857	262.7606	291.6334	389.3569	406.398	541.4022	586.9365	708.3929	771.0908	826.3435	843.695	863.2326	886.2069	931.2475	957.2102	996.6214	1037.2745	1059.4314	1064.4429	1081.9939	1094.0336	1127.9018	1130.0763	1194.6746	1195.8298	1223.2591	1239.7638	1280.1145	1298.8673	1352.796	1399.608	1426.4261	1471.6376	1480.9584	1494.1657	1504.7283	1917.6766	2985.7339	2999.0681	3042.6542	3119.3903	3122.4525	3136.8921	3141.1336	3153.9365	3215.9907	3230.4104
CC1OC(C2CC2)C1=O	C[C@H]1O[C@@H](C2CC2)C1=O	
InChI=1S/C7H10O2/c1-4-6(8)7(9-4)5-2-3-5/h4-5,7H,2-3H2,1H3	InChI=1S/C7H10O2/c1-4-6(8)7(9-4)5-2-3-5/h4-5,7H,2-3H2,1H3/t4-,7+/m1/s1
