17
gdb 61723	5.08365	0.57701	0.53648	1.8598	92.99	-0.2458	-0.0344	0.2114	1962.868	0.131715	-384.649059	-384.638819	-384.637875	-384.685422	35.661	
C	-0.0880876089	 1.6248291388	 0.1156834677	-0.384811
C	 0.0419648883	 0.0889782716	 0.0335855956	-0.235804
C	 0.7637566219	-0.3531841545	-1.2667185602	-0.268689
C	-0.0477971512	-0.0332190612	-2.5036902512	 0.156386
O	 0.3747899271	 0.5228942945	-3.4826670398	-0.233052
C	 0.7214257195	-0.4480642543	 1.2060649874	 0.413573
C	 1.296296351	-0.8898048236	 2.1754588422	-0.238711
C	 1.943430342	-1.3834430274	 3.2661052063	 0.293022
C	 2.5168724238	-1.8232058621	 4.2335053212	-0.561658
H	 0.9002110288	 2.0927212464	 0.1350311848	 0.137985
H	-0.6318712993	 2.0097086702	-0.7526394854	 0.129972
H	-0.6252183155	 1.9203393137	 1.019789032	 0.135116
H	-0.9721431305	-0.3378031561	 0.0102995708	 0.118146
H	 1.7497205632	 0.1112296506	-1.3506554713	 0.134707
H	 0.9011801061	-1.4424482952	-1.2416300964	 0.136939
H	-1.1099154655	-0.3747254617	-2.4516665746	 0.074116
H	 3.0231695992	-2.2077131396	 5.083834891	 0.192763
51.9137	57.197	80.3746	122.7561	203.7966	228.3016	236.6682	300.0924	343.0265	427.9269	485.4088	519.1391	546.8949	557.5468	598.1677	605.098	710.503	774.836	897.8369	947.2417	1001.8872	1063.9081	1106.5576	1127.9423	1192.047	1228.372	1269.0246	1328.8388	1359.2731	1412.0634	1429.1032	1457.1825	1488.9032	1500.0111	1838.8839	2181.8836	2362.2692	2842.3936	2992.3442	3031.0206	3044.22	3110.2195	3117.2481	3130.9161	3504.7746
CC(CC=O)C#CC#C	C[C@@H](CC=O)C#CC#C	
InChI=1S/C8H8O/c1-3-4-5-8(2)6-7-9/h1,7-8H,6H2,2H3	InChI=1S/C8H8O/c1-3-4-5-8(2)6-7-9/h1,7-8H,6H2,2H3/t8-/m1/s1
