13
gdb 94154	2.00602	1.62151	1.27048	4.6435	63.72	-0.3091	-0.0507	0.2584	1023.7306	0.087747	-452.723335	-452.714861	-452.713917	-452.757082	29.587	
O	 0.2187345297	 1.2784350488	-0.2207266715	-0.39009
C	 0.1045206928	-0.061665458	 0.0970099067	 0.034381
C	-0.0122549924	-0.3211813391	 1.6044037815	-0.093268
O	-1.2561709331	-1.0529592428	 1.4367393607	-0.284096
C	-1.3486924202	-0.727872363	 0.0436723824	 0.07955
C	-2.4241757058	 0.2251104612	-0.255154284	 0.291852
N	-3.2469333401	 0.9997741702	-0.4920943839	-0.310783
C	-1.4537246067	-1.9197833144	-0.8030995446	 0.269342
N	-1.4671417872	-2.8550656336	-1.4808699885	-0.313294
H	 0.3626773496	 1.3820683295	-1.1677431302	 0.309381
H	 0.8309764971	-0.6967825773	-0.4193568211	 0.125157
H	 0.7607997673	-0.9412468712	 2.0637268248	 0.137395
H	-0.1587106008	 0.6001915598	 2.1761196677	 0.144474
54.4709	128.301	134.3767	164.7797	246.0457	335.4461	336.718	415.7403	508.7413	514.6479	556.8475	587.1328	629.9823	777.7431	917.7512	969.0964	1013.6662	1021.3093	1088.6029	1123.0062	1154.9677	1192.16	1252.7107	1305.0157	1335.6046	1452.6976	1513.8495	2359.9474	2364.0945	3059.1262	3063.1338	3123.0618	3815.5675
OC1COC1(C#N)C#N	O[C@H]1COC1(C#N)C#N	
InChI=1S/C5H4N2O2/c6-2-5(3-7)4(8)1-9-5/h4,8H,1H2	InChI=1S/C5H4N2O2/c6-2-5(3-7)4(8)1-9-5/h4,8H,1H2/t4-/m0/s1
