21
gdb 74581	3.89517	1.30118	1.17405	0.3603	88.39	-0.2056	0.0265	0.2321	1153.8847	0.183237	-349.942225	-349.934108	-349.933164	-349.974258	32.822	
C	 0.019214526	 1.5168449525	 0.0939174057	-0.499133
C	 0.0723999514	 0.0275054452	-0.0126680246	 0.320586
C	-0.08092459	-0.7424090119	-1.0980558939	-0.190537
C	-0.0374159799	-2.1815355304	-0.7122132781	-0.118397
C	 0.5656264842	-2.2808768461	 0.665197096	-0.123169
C	 0.1146136515	-0.884015787	 1.2027789366	-0.146483
C	-1.3296005113	-1.5050630942	 1.3629890167	-0.28198
C	-0.8854128048	-2.6797093339	 0.4942503163	 0.346623
C	-1.526277534	-4.0372762444	 0.4819873248	-0.501409
H	 0.9185279444	 1.914045618	 0.5825742112	 0.121009
H	-0.0684376854	 1.98751612	-0.8894075928	 0.121484
H	-0.8335526704	 1.8477378865	 0.7018770197	 0.123738
H	-0.2599089446	-0.3936293374	-2.1084036086	 0.084781
H	 0.185388481	-2.9501800567	-1.4443998158	 0.074564
H	 1.4402688081	-2.859921081	 0.9398668492	 0.078339
H	 0.5704473737	-0.4758729662	 2.1049029786	 0.060197
H	-1.4940186079	-1.8446286309	 2.3898649335	 0.096239
H	-2.1783483181	-0.8910265153	 1.0396666315	 0.084543
H	-2.5199461646	-4.0035019276	 0.0188492118	 0.119438
H	-0.9238411203	-4.7565562472	-0.0833979195	 0.115346
H	-1.6484450291	-4.4320549719	 1.4977422418	 0.114221
140.9202	177.8801	207.3268	217.6327	298.4863	324.3543	370.5793	451.952	544.1611	575.0926	641.6224	714.9037	762.0195	804.5481	836.2066	853.5412	876.3121	898.2115	911.9295	949.4564	976.6356	1003.6716	1019.7293	1032.6263	1053.7102	1073.8724	1087.2621	1143.3136	1182.9314	1192.3858	1205.3853	1225.1808	1261.798	1285.5541	1303.1739	1337.9805	1407.1323	1412.4223	1423.4037	1477.6882	1486.0571	1488.1789	1490.6898	1499.185	1694.2591	3009.7553	3016.7083	3028.3277	3052.0263	3074.8074	3087.8901	3089.0045	3104.7645	3108.6142	3164.799	3174.4071	3199.3048
CC1=CC2C3C1CC23C	CC1=C[C@H]2[C@H]3[C@@H]1C[C@@]23C	
InChI=1S/C9H12/c1-5-3-7-8-6(5)4-9(7,8)2/h3,6-8H,4H2,1-2H3	InChI=1S/C9H12/c1-5-3-7-8-6(5)4-9(7,8)2/h3,6-8H,4H2,1-2H3/t6-,7+,8-,9+/m1/s1
