15
gdb 123598	4.2462	1.75166	1.51323	3.999	68.97	-0.2454	0.0008	0.2462	856.1308	0.117302	-412.929866	-412.924042	-412.923098	-412.960442	23.309	
C	 0.0072327755	 1.4767116124	-0.1368743483	-0.180431
C	 1.5518050581	 1.2899140722	 0.0019636988	-0.035635
C	 1.144973054	 0.1774651772	 1.0072552462	-0.173205
N	-0.0518690313	-0.0647632554	 0.0603291928	-0.227745
C	 0.7007638499	-0.414082857	-1.1310282203	 0.414136
N	 0.5874553163	-1.1089667816	-2.2353630295	-0.395536
C	 1.6681677338	-0.6292142477	-2.9468262167	 0.010168
N	 2.3949147904	 0.3222229363	-2.3607239562	-0.275025
N	 1.7689127594	 0.4018531479	-1.1633864431	 0.079238
H	-0.477431219	 1.9816004191	 0.7007124802	 0.129552
H	-0.383690038	 1.8254899354	-1.0939665417	 0.142678
H	 2.2964304231	 2.0670202143	 0.1545802735	 0.116117
H	 1.8130764238	-0.6768167048	 1.1252585436	 0.136892
H	 0.7838650786	 0.5443748173	 1.9686383607	 0.129749
H	 1.9269000954	-1.0049881356	-3.9252908599	 0.129048
65.6565	309.8829	440.5551	510.2906	533.0904	662.3126	692.7053	725.507	766.7311	811.5214	819.953	845.2594	876.419	916.7237	974.6821	1012.2837	1019.2401	1060.4612	1086.1021	1125.6175	1160.803	1196.3509	1210.3438	1232.194	1233.0884	1261.2193	1296.0784	1315.1696	1407.3818	1424.1546	1487.1328	1523.0553	1591.4351	3076.412	3085.4936	3151.4058	3158.5797	3161.2789	3263.2152
C1C2CN1C1=NC=NN21	C1[C@H]2CN1c1ncnn21	
InChI=1S/C5H6N4/c1-4-2-8(1)5-6-3-7-9(4)5/h3-4H,1-2H2	InChI=1S/C5H6N4/c1-4-2-8(1)5-6-3-7-9(4)5/h3-4H,1-2H2
