14
gdb 43817	2.09999	1.76443	1.07509	4.6343	66.88	-0.2983	-0.0214	0.2769	1075.1432	0.100267	-436.699667	-436.691948	-436.691004	-436.732324	28.304	
O	-0.2274297219	 0.1395833861	 0.4746699872	-0.298565
C	-0.0973562945	 1.2412820609	 0.0653725503	 0.470922
O	-1.0070699268	 2.0400346989	-0.5666191407	-0.250669
C	-0.0678002907	 3.142670573	-0.6628918016	 0.465081
C	-0.0619606949	 4.0702038906	-1.8201703741	-0.33613
C	-0.4858820921	 4.5454798621	-0.4318029317	-0.329725
C	 1.0404182503	 2.3017127132	-0.0243659972	-0.466372
C	 1.6210398838	 2.7698049321	 1.2179741912	 0.307055
N	 2.0754791014	 3.1697736258	 2.2021382807	-0.315084
H	 0.8941583794	 4.3976302387	-2.2141638285	 0.138116
H	-0.8415121477	 3.9366515737	-2.561905713	 0.14773
H	-1.5423246634	 4.7232361652	-0.2656844273	 0.149097
H	 0.1829337621	 5.189809254	 0.1287138948	 0.150445
H	 1.8213900251	 1.9855338856	-0.7216253	 0.168097
94.9642	117.7569	153.4031	251.0035	294.5047	417.0327	434.955	497.559	519.1316	581.7304	694.4986	760.0403	809.2297	875.7511	878.9874	922.8086	967.2028	1030.2157	1056.3457	1058.7971	1087.1267	1094.6884	1157.0944	1183.5554	1262.4329	1308.986	1391.8965	1450.8874	1504.4694	1962.8507	2365.3311	3085.7164	3138.767	3141.3099	3224.1946	3236.722
O=C1OC2(CC2)C1C#N	O=C1OC2(CC2)[C@H]1C#N	
InChI=1S/C6H5NO2/c7-3-4-5(8)9-6(4)1-2-6/h4H,1-2H2	InChI=1S/C6H5NO2/c7-3-4-5(8)9-6(4)1-2-6/h4H,1-2H2/t4-/m0/s1
