21
gdb 51563	3.92886	0.73491	0.66186	2.9367	85.19	-0.2411	-0.018	0.2231	1709.0219	0.181102	-387.070744	-387.061218	-387.060274	-387.106679	34.591	
O	-0.5747550748	 0.1808258487	-0.046851629	-0.240907
C	-0.1020345956	 1.2856673435	 0.0279590464	 0.164743
C	 1.3318802693	 1.6416251173	-0.3063187053	-0.297219
C	 1.4018303527	 2.7948307791	-1.2912698794	-0.022068
C	 1.2896211396	 4.2318941073	-0.827675785	-0.309769
C	 2.5988420938	 3.7205885263	-1.378194461	-0.018315
C	 3.8059626709	 3.5732448178	-0.5064689933	 0.02707
C	 5.0786065509	 2.9804717811	-1.0633823001	-0.26842
C	 5.012210892	 4.4518343562	-0.7384460897	-0.277707
H	-0.7203983791	 2.1536671995	 0.3556492335	 0.073574
H	 1.8221383492	 1.9237531605	 0.6351146259	 0.115279
H	 1.8319886896	 0.7456020851	-0.6867629361	 0.122599
H	 0.9269359712	 2.5735986405	-2.2439617606	 0.094381
H	 0.7029289461	 4.9292213133	-1.4153034843	 0.114748
H	 1.2418743532	 4.4089813188	 0.2430004787	 0.110882
H	 2.8403557828	 4.0434633264	-2.3885250853	 0.082713
H	 3.5952135321	 3.3439898301	 0.5341698952	 0.078193
H	 5.6718764693	 2.3356115462	-0.4245936863	 0.112765
H	 5.0833229971	 2.6927091999	-2.1096601428	 0.112587
H	 4.9724861477	 5.1530677417	-1.5657253276	 0.112574
H	 5.5584067419	 4.8165057507	 0.124382626	 0.112297
44.4541	59.6843	72.4315	129.1992	184.7926	268.9259	286.7874	346.7783	441.1131	490.6101	559.8916	737.7037	774.402	799.6119	816.8934	832.9233	856.2028	912.0704	936.1973	943.0859	982.9692	1031.2944	1045.5118	1060.3875	1071.1926	1077.7871	1090.3139	1127.3446	1143.844	1165.0109	1198.5153	1210.3195	1221.8434	1245.8772	1257.4006	1289.4045	1321.8087	1402.7749	1425.3279	1451.2582	1459.0055	1470.0552	1494.1802	1509.2038	1834.3129	2862.6919	3025.549	3090.3131	3123.2165	3125.0851	3129.3711	3133.756	3137.5997	3145.7918	3207.419	3209.9877	3222.8991
O=CCC1CC1C1CC1	O=CC[C@H]1C[C@H]1C1CC1	
InChI=1S/C8H12O/c9-4-3-7-5-8(7)6-1-2-6/h4,6-8H,1-3,5H2	InChI=1S/C8H12O/c9-4-3-7-5-8(7)6-1-2-6/h4,6-8H,1-3,5H2/t7-,8-/m0/s1
