17
gdb 47697	2.29509	1.69163	1.0175	3.9327	72.64	-0.2284	0.0248	0.2532	1127.6673	0.140275	-451.379732	-451.371585	-451.370641	-451.413189	30.491	
N	-0.0665767388	 1.1010702639	-0.9499300244	-0.562957
C	-0.0134805451	 0.1322087691	-0.1161377288	 0.414639
N	-1.1547303379	-0.2467190387	 0.5528626809	-0.299127
C	-1.374528305	-1.612786538	 0.9884641545	-0.189123
C	-0.6721070572	-1.8853869691	 2.3110144944	-0.12545
N	 0.7754951131	-1.8515559784	 2.201366696	-0.338316
C	 1.6295839433	-1.3299642806	 1.272110592	 0.441505
O	 2.8329229881	-1.5075684897	 1.3559744007	-0.403981
N	 1.1438801474	-0.6074268462	 0.1690899097	-0.397789
H	 0.8555968398	 1.3567482503	-1.294353061	 0.208062
H	-1.9543726679	 0.2593398027	 0.2041751182	 0.256526
H	-2.4481625957	-1.7458294112	 1.1412683697	 0.122643
H	-1.0545130986	-2.345097393	 0.2337581016	 0.125254
H	-1.0269727869	-1.1512499742	 3.0473505484	 0.118386
H	-0.9580304498	-2.881809242	 2.6691298453	 0.1128
H	 1.2985394921	-2.3129651621	 2.9290987783	 0.258153
H	 1.9371007092	-0.3404693728	-0.3955553956	 0.258775
57.3512	90.8733	122.4033	301.3309	321.2482	383.7707	441.257	517.8244	536.586	542.9723	636.0004	645.7683	687.3918	727.0214	754.2355	781.6192	845.0323	923.1658	952.7747	1007.239	1108.0833	1127.4622	1157.6229	1196.173	1271.0374	1298.0745	1340.6318	1400.3515	1432.1392	1441.7233	1446.3147	1464.52	1489.8917	1502.7937	1527.1036	1732.1111	1789.3925	3003.0246	3012.1575	3052.8909	3104.1033	3515.5182	3620.5313	3628.0316	3636.0606
N=C1NCCNC(=O)N1	[NH][C]1NCCNC(=O)N1	
InChI=1S/C4H8N4O/c5-3-6-1-2-7-4(9)8-3/h1-2H2,(H4,5,6,7,8,9)	InChI=1S/C4H8N4O/c5-3-6-1-2-7-4(9)8-3/h1-2H2,(H4,5,6,7,8,9)
