17
gdb 55434	2.74632	1.56646	1.01678	4.2156	71.37	-0.2371	0.028	0.2651	1120.4271	0.13914	-451.397122	-451.388843	-451.387899	-451.430219	31.12	
N	 0.0238097292	 1.3197024728	 0.2164194326	-0.565265
C	 0.0644586137	-0.0264505335	 0.0935154901	 0.468152
O	 1.0744963746	-0.7057966641	 0.0438349768	-0.412772
N	-1.1968720836	-0.6588731291	 0.0546306168	-0.162593
C	-1.2533289557	-2.1098702412	-0.1154811021	-0.147198
C	-2.739572958	-2.4038125976	 0.1350959966	-0.191767
N	-3.3559536302	-1.1343803214	-0.2483407868	-0.355803
C	-2.4596124495	-0.0868904569	-0.0657283048	 0.477697
N	-2.6866598012	 1.173370884	-0.0354311313	-0.619391
H	 0.9039846074	 1.8001765492	 0.1572216975	 0.257651
H	-0.870258007	 1.7990809352	 0.1408252377	 0.287219
H	-0.9491513553	-2.3920897325	-1.1299658318	 0.126941
H	-0.585524544	-2.606817119	 0.5872989603	 0.14379
H	-3.1088214367	-3.2288846855	-0.4787612569	 0.121966
H	-2.920830056	-2.6466642975	 1.1916231585	 0.113381
H	-4.308872301	-0.9581096522	 0.0306760031	 0.245437
H	-3.6754325769	 1.3802191494	-0.1405257763	 0.212554
84.5328	94.4392	198.4425	218.1406	264.4258	353.845	403.7861	443.7213	497.6097	596.5882	635.1975	669.6383	715.6351	726.0087	748.8917	770.1166	776.7148	907.399	969.6035	1047.4706	1105.3929	1129.8276	1143.6354	1149.309	1210.3625	1239.8707	1259.825	1306.7617	1350.1568	1390.94	1434.6387	1460.791	1526.2325	1531.4973	1606.4207	1732.1896	1800.7312	3002.7714	3042.6538	3092.6393	3136.581	3432.4641	3532.135	3622.7818	3712.6388
NC(=O)N1CCNC1=N	NC(=O)N1CCN[C]1[NH]	
InChI=1S/C4H8N4O/c5-3-7-1-2-8(3)4(6)9/h1-2H2,(H2,5,7)(H2,6,9)	InChI=1S/C4H8N4O/c5-3-7-1-2-8(3)4(6)9/h1-2H2,(H2,5,7)(H2,6,9)
