19
gdb 118714	3.55989	1.00989	0.9025	1.18	71.22	-0.252	0.0727	0.3247	1315.2633	0.158302	-460.081335	-460.072745	-460.071801	-460.114956	33.046	
O	-2.4510099609	 1.5056497676	-1.3393479142	-0.419092
C	-2.3460192782	 0.0912492857	-1.2906328193	-0.061303
C	-1.625886282	-0.393355418	-0.0249659803	-0.297831
C	-1.517334529	-1.9066117838	 0.0399694585	 0.480004
O	-0.7113607276	-2.319189648	-1.0229972607	-0.494325
C	-1.2883673021	-2.6814190335	 1.3868806224	-0.03097
C	-2.7439578849	-2.4162277137	 1.8194569036	-0.236236
C	-2.7505912274	-2.8384360532	 0.3376340443	-0.024376
O	-1.7682919782	-3.9079519735	 0.6837164851	-0.341627
H	-1.5652915228	 1.8605754069	-1.4649453252	 0.281971
H	-3.3770803363	-0.280212513	-1.2982720357	 0.107988
H	-1.8457297422	-0.3128749678	-2.1798106754	 0.114322
H	-0.6043568273	 0.0084589059	-0.0190234539	 0.102952
H	-2.1382111971	 0.016313966	 0.8479877861	 0.109854
H	-0.6789614979	-3.2848437714	-0.9436809764	 0.286672
H	-0.384683703	-2.7799458221	 1.989907934	 0.096728
H	-3.1458478941	-3.1724463709	 2.4929154942	 0.11765
H	-3.0482280221	-1.4053912597	 2.0908817225	 0.108838
H	-3.5844562469	-3.1262551437	-0.3038818998	 0.09878
74.3711	88.5265	135.3245	280.9194	295.6416	318.8666	379.8698	410.0098	435.0379	533.1222	630.5415	678.4858	704.7822	755.2053	792.3301	815.8067	876.0453	900.5239	902.4302	1004.3878	1017.1649	1030.9187	1051.3696	1071.4012	1089.4974	1130.7928	1132.9617	1158.4345	1166.7526	1206.7009	1226.4995	1272.4208	1284.7003	1301.853	1336.4275	1396.8584	1417.4403	1431.6649	1477.4033	1496.8549	1515.9029	3023.9215	3032.0077	3070.0189	3089.1202	3111.1788	3113.6504	3120.0167	3166.0712	3716.5824	3817.6896
OCCC1(O)C2CC1O2	OCC[C@@]1(O)[C@H]2C[C@@H]1O2	
InChI=1S/C6H10O3/c7-2-1-6(8)4-3-5(6)9-4/h4-5,7-8H,1-3H2	InChI=1S/C6H10O3/c7-2-1-6(8)4-3-5(6)9-4/h4-5,7-8H,1-3H2/t4-,5+,6-
