20
gdb 52158	4.0286	0.78651	0.74929	2.8442	79.72	-0.2331	-0.0232	0.2099	1553.1379	0.170438	-403.106024	-403.097123	-403.096179	-403.141175	32.354	
O	-1.5971734555	 2.2435256866	 0.7712017036	-0.235345
C	-0.5238351884	 1.9408255729	 0.3183491603	 0.157432
C	 0.6699869596	 2.8609139588	 0.2175037545	-0.261844
C	 1.150471048	 3.0079687009	-1.2412347021	-0.251231
C	 2.4450518401	 3.7867371155	-1.33383649	 0.024194
C	 2.8777142396	 4.6404238068	-2.4588185438	-0.052289
C	 1.7239438478	 5.3938676938	-3.117614362	-0.251171
C	 1.3868592589	 5.9240198585	-1.7025395614	-0.156792
N	 2.5813788468	 5.2398869921	-1.0830206215	-0.153294
H	-0.3422628934	 0.914661052	-0.0831889375	 0.068471
H	 0.4124569702	 3.8293363916	 0.6540250451	 0.133161
H	 1.4816054567	 2.4232451089	 0.8164725664	 0.120619
H	 1.3227510715	 2.012501768	-1.6714967081	 0.108761
H	 0.3585000504	 3.4647847576	-1.8411195254	 0.11799
H	 3.2699024572	 3.2720790752	-0.8406789201	 0.094492
H	 3.8899353192	 4.5967127093	-2.8503671476	 0.09405
H	 2.065975058	 6.1836019632	-3.7884263897	 0.114901
H	 0.9755268588	 4.7933249862	-3.6437973802	 0.104361
H	 1.5056262721	 7.0041476832	-1.6021744999	 0.116011
H	 0.4241108724	 5.6403064091	-1.2664289406	 0.10752
44.4728	63.5076	87.52	139.2185	260.8224	269.428	335.6573	423.2755	526.3631	557.8318	704.1993	763.3794	777.9366	786.805	796.3127	869.4956	909.1351	958.0429	979.0883	997.8579	1010.5799	1033.3253	1076.1503	1096.8518	1121.1725	1145.7693	1169.0881	1208.7192	1219.3327	1254.0844	1264.6362	1270.5165	1298.3838	1310.1846	1353.6451	1370.2232	1429.2974	1452.2383	1463.3184	1484.6743	1493.4233	1516.432	1837.4662	2842.2711	3016.7646	3026.9145	3050.7514	3058.4254	3087.3939	3106.0106	3106.2614	3112.7063	3123.9772	3152.2353
O=CCCC1C2CCN12	O=CCC[C@H]1[C@H]2CCN12	
InChI=1S/C7H11NO/c9-5-1-2-6-7-3-4-8(6)7/h5-7H,1-4H2	InChI=1S/C7H11NO/c9-5-1-2-6-7-3-4-8(6)7/h5-7H,1-4H2/t6-,7+,8?/m0/s1
