25
gdb 121907	3.34019	0.6196	0.54886	0.1998	86.1	-0.2605	0.0742	0.3347	2070.7173	0.226133	-426.628002	-426.616112	-426.615168	-426.665803	42.73	
C	 0.0913269684	 1.5394205943	 0.0868024441	-0.414567
C	-0.0260468376	 0.0139143763	 0.0645097584	 0.135803
O	 0.6102347421	-0.5409507977	 1.2176327085	-0.430185
C	-1.4747398416	-0.5058812276	-0.0790872576	 0.016404
C	-2.1765100592	 0.0861216982	-1.3107627241	-0.407265
C	-1.4888346766	-2.0474257291	-0.0995659334	-0.188507
C	-2.8631932955	-2.6760870564	 0.1507350754	-0.178909
C	-2.8154475431	-4.1985779168	 0.160244373	-0.073131
O	-4.1312751577	-4.678918018	 0.3970626709	-0.423016
H	 1.1270933394	 1.8216629948	 0.2937267171	 0.123338
H	-0.203820388	 1.9909851526	-0.863744752	 0.121128
H	-0.5436738317	 1.9683245803	 0.8731487655	 0.104463
H	 0.5627964674	-0.3748485658	-0.777353097	 0.084837
H	 0.1673402189	-0.1783086882	 1.9932587584	 0.273743
H	-2.0200111691	-0.1729267235	 0.8198313443	 0.055507
H	-2.3023485184	 1.1692067905	-1.2336211647	 0.115155
H	-1.6021802622	-0.1213606813	-2.2221206089	 0.113162
H	-3.171478166	-0.3467932694	-1.4444346877	 0.120219
H	-1.0974099955	-2.3901046373	-1.0687668911	 0.0854
H	-0.784314234	-2.4023926619	 0.6595621183	 0.111272
H	-3.261680689	-2.3379860392	 1.1157964445	 0.099861
H	-3.5888895122	-2.3671545506	-0.610311591	 0.105132
H	-2.4265820021	-4.5636590845	-0.804879852	 0.082196
H	-2.118233334	-4.5439048712	 0.9412822081	 0.084119
H	-4.1025897428	-5.6399016484	 0.4069633233	 0.283839
52.3265	63.7453	82.374	123.4093	138.7756	202.51	226.1661	263.7291	268.7455	290.7367	300.9467	345.6076	367.8477	439.3554	455.8352	504.4409	539.3399	756.8306	813.4633	858.9049	897.2698	939.7443	973.0033	1005.758	1016.4476	1041.8792	1070.6057	1082.4952	1084.5309	1143.5096	1165.8321	1180.5407	1215.0103	1230.9358	1264.287	1297.7222	1312.4093	1319.0106	1332.8638	1356.9679	1380.0102	1391.077	1404.2119	1413.0812	1421.4587	1461.9491	1488.5976	1492.8622	1495.4577	1500.5286	1503.6532	1515.0169	1529.1523	2957.2746	2965.2049	2982.4863	3004.4675	3020.5742	3028.2739	3030.5534	3033.1721	3063.4984	3085.3015	3099.4922	3100.9943	3115.1493	3126.7714	3794.2705	3830.6387
CC(O)C(C)CCCO	C[C@@H](O)[C@@H](C)CCCO	
InChI=1S/C7H16O2/c1-6(7(2)9)4-3-5-8/h6-9H,3-5H2,1-2H3	InChI=1S/C7H16O2/c1-6(7(2)9)4-3-5-8/h6-9H,3-5H2,1-2H3/t6-,7+/m0/s1
