19
gdb 103380	3.12547	1.40925	1.26948	1.9372	69.98	-0.2501	0.0706	0.3207	1051.4405	0.16081	-460.131723	-460.124025	-460.12308	-460.163636	31.336	
O	 0.1631773498	 1.4099346539	 0.2587339646	-0.423663
C	 0.1131657264	 0.0162396942	 0.0276466826	-0.124
C	-1.3181195937	-0.49428274	 0.1171247251	 0.432995
O	-2.0345532662	 0.2242116655	-0.8632514866	-0.511512
C	-1.5288397507	-2.060013859	 0.2105772599	-0.141387
C	-1.2752500488	-1.9103939579	 1.7431019635	-0.255528
C	-2.0115326752	-0.5788659199	 1.5064837516	 0.033183
O	-3.344270287	-0.9929388037	 1.118148659	-0.306357
C	-3.0584278881	-2.1043323078	 0.2148070384	-0.104226
H	-0.5194574586	 1.7847290311	-0.3119708144	 0.288113
H	 0.5007677981	-0.2399462509	-0.9721144953	 0.094784
H	 0.7667654561	-0.452587873	 0.7655193602	 0.108752
H	-2.9481433894	 0.2662497232	-0.5476354871	 0.295903
H	-0.9976516186	-2.7712894898	-0.4201226032	 0.077584
H	-1.7726173993	-2.6227335825	 2.4038105027	 0.108721
H	-0.227915651	-1.8026803569	 2.0180846736	 0.11565
H	-2.0736001543	 0.2447567646	 2.2144147408	 0.092912
H	-3.5052536091	-1.9085652052	-0.7646400337	 0.108494
H	-3.4705151102	-3.0320951159	 0.6245671181	 0.109581
108.1197	159.8005	269.3174	319.1421	360.5032	379.087	455.454	479.6911	498.578	582.0019	597.6974	699.0315	729.4439	831.7335	845.3004	899.5146	910.9325	934.6837	955.3993	977.9671	1015.1169	1030.1544	1059.8719	1078.8544	1096.1455	1116.7513	1142.5566	1166.8041	1199.5013	1223.9588	1244.0121	1257.9264	1279.0992	1288.5185	1365.0203	1377.6545	1402.9074	1446.2799	1490.2386	1509.8223	1526.8291	2972.8299	3042.4765	3087.3977	3090.2357	3110.8773	3132.3318	3152.7498	3163.2859	3742.7276	3781.2542
OCC1(O)C2CC1OC2	OC[C@@]1(O)[C@H]2C[C@@H]1OC2	
InChI=1S/C6H10O3/c7-3-6(8)4-1-5(6)9-2-4/h4-5,7-8H,1-3H2	InChI=1S/C6H10O3/c7-3-6(8)4-1-5(6)9-2-4/h4-5,7-8H,1-3H2/t4-,5-,6+/m0/s1
