18
gdb 71918	2.54992	1.97228	1.40923	1.4891	75.09	-0.2255	-0.0224	0.2031	959.3419	0.148241	-401.906376	-401.898857	-401.897913	-401.93814	29.473	
C	 0.0183766956	 1.5975370329	-0.028709479	-0.500794
C	 0.0384383407	 0.0909076067	 0.0663419456	 0.186587
C	-1.2783140616	-0.7007425123	 0.3242010418	-0.219539
N	-0.6060544088	-1.6890778072	 1.2260016164	-0.13915
C	 0.124950535	-2.7142716357	 0.4136644829	-0.182228
C	 1.3108261459	-1.7512798272	 0.1327639243	-0.181652
C	 0.6444671136	-0.8182913712	 1.2015591351	-0.055304
C	 0.9260347296	-0.6979210242	-0.9140243404	 0.384201
O	 1.2997312965	-0.4697910408	-2.0299559013	-0.318325
H	 1.0302244187	 2.0144899874	-0.0114886763	 0.128139
H	-0.447079158	 1.9101639687	-0.9695768523	 0.138795
H	-0.5502051236	 2.0392223477	 0.7961703623	 0.12048
H	-1.9858820428	-0.0982002327	 0.9038135181	 0.114941
H	-1.8048510556	-1.130295926	-0.534975102	 0.111155
H	 0.4296109905	-3.5423298496	 1.0600938089	 0.120376
H	-0.4281423629	-3.1179866558	-0.4407754289	 0.113873
H	 2.3315733532	-2.1335324202	 0.131832696	 0.094255
H	 1.0979848141	-0.4729058206	 2.1285202687	 0.08419
123.8599	165.5462	211.3062	244.0194	282.8781	409.2916	454.1825	533.9615	592.5892	695.7507	743.6738	800.2197	829.1894	839.8982	889.886	899.6677	924.8356	951.7372	981.1431	990.548	1033.8995	1059.1155	1133.2976	1151.2138	1171.5229	1181.9469	1191.8708	1194.9737	1213.0145	1252.1046	1258.6965	1317.4098	1347.6352	1407.9409	1485.3795	1488.3155	1495.6902	1509.0554	1874.9489	3029.6775	3032.7591	3042.248	3082.0125	3093.5894	3101.6215	3104.292	3115.4796	3136.5135
CC12CN3CC(C13)C2=O	C[C@]12CN3C[C@H]([C@@H]13)C2=O	
InChI=1S/C7H9NO/c1-7-3-8-2-4(5(7)8)6(7)9/h4-5H,2-3H2,1H3	InChI=1S/C7H9NO/c1-7-3-8-2-4(5(7)8)6(7)9/h4-5H,2-3H2,1H3/t4-,5+,7+/m1/s1
