13
gdb 24506	4.14487	1.75629	1.23359	3.6134	71.3	-0.2505	-0.0459	0.2045	904.7575	0.095174	-411.875924	-411.870244	-411.8693	-411.905892	22.603	
N	-0.0327655352	 1.3276614969	 0.0098472596	-0.370867
C	 1.277308734	 1.7574705249	-0.000309107	 0.021177
N	 2.1543135885	 0.789795942	-0.0143558204	-0.327913
C	 1.3854148084	-0.3637666411	-0.0135540755	 0.213291
C	 0.0111093032	-0.0457872472	 0.0015402737	 0.410296
N	-0.9929264592	-0.9109552422	 0.0062608219	-0.353208
C	-0.5656371091	-2.1776749405	-0.0051427778	 0.056535
N	 0.7002597376	-2.623541	-0.0199253389	-0.259735
C	 1.6847127373	-1.7218200844	-0.0242463965	-0.067355
H	-0.8634248966	 1.8966166766	 0.0211331532	 0.280326
H	 1.5169120729	 2.8117815351	 0.0034382647	 0.147736
H	-1.3386793711	-2.9411162589	-0.0020669651	 0.12013
H	 2.7082992294	-2.0879177814	-0.0362346214	 0.129587
236.4322	248.4454	424.465	445.5922	530.4045	570.2275	627.3336	659.1984	669.4489	806.9865	832.9644	885.0883	909.987	944.1627	953.1854	1004.4267	1081.4311	1133.0538	1203.9664	1277.3332	1294.7052	1315.4307	1366.7457	1412.0044	1427.3827	1482.8658	1524.1111	1612.0702	1649.9125	3165.6276	3176.2947	3243.2765	3662.0908
N1C=NC2=C1N=CN=C2	[nH]1cnc2c1ncnc2	
InChI=1S/C5H4N4/c1-4-5(8-2-6-1)9-3-7-4/h1-3H,(H,6,7,8,9)	InChI=1S/C5H4N4/c1-4-5(8-2-6-1)9-3-7-4/h1-3H,(H,6,7,8,9)
