16
gdb 64545	3.36986	1.22013	1.11684	3.3848	70.98	-0.255	-0.0514	0.2035	1105.1334	0.122664	-437.887217	-437.878837	-437.877893	-437.920348	30.768	
C	-0.0609311516	 1.6717123378	 0.5707709929	-0.490314
C	-0.0496278534	 0.2009044918	 0.2141411963	 0.184025
C	-1.3221970083	-0.3194892212	-0.3826898053	 0.099777
O	-1.552702136	-1.4855187981	-0.595140356	-0.260565
C	 1.1716238358	-0.5304174279	-0.3557287567	-0.025762
N	 2.4318773639	-0.0361400664	 0.1830756495	-0.347844
C	 2.0150666343	-0.2663108735	 1.5126384759	 0.409106
O	 2.5370459758	-0.0386571146	 2.5636103787	-0.331146
C	 0.6971305377	-0.8736428896	 1.0296822081	-0.251097
H	 0.9255424677	 2.0267426783	 0.874777196	 0.1374
H	-0.3855211537	 2.274165407	-0.284793183	 0.127403
H	-0.7485263589	 1.866690203	 1.3999669508	 0.141479
H	-2.0575856182	 0.4702151737	-0.6533938206	 0.084449
H	 1.1258445695	-1.1357770327	-1.2503270579	 0.136002
H	 2.9039287545	 0.8076540578	-0.1213618219	 0.247471
H	 0.1897435411	-1.7615904953	 1.3765935932	 0.139618
89.6111	136.0792	154.5591	190.2578	218.7152	292.3681	376.3934	437.8309	480.7831	574.6157	651.9663	678.9444	716.0649	780.0941	837.773	875.0849	920.6794	953.4213	1011.4902	1025.7213	1041.3253	1076.7711	1113.9527	1125.0714	1178.5958	1243.8796	1276.8984	1314.3317	1350.6945	1422.5093	1433.1176	1490.1668	1497.1255	1805.3579	1904.5124	2887.896	3038.8346	3099.634	3130.2542	3218.8965	3238.2993	3552.7131
CC1(C=O)C2NC(=O)C12	C[C@@]1(C=O)[C@H]2NC(=O)[C@@H]12	
InChI=1S/C6H7NO2/c1-6(2-8)3-4(6)7-5(3)9/h2-4H,1H3,(H,7,9)	InChI=1S/C6H7NO2/c1-6(2-8)3-4(6)7-5(3)9/h2-4H,1H3,(H,7,9)/t3-,4-,6-/m0/s1
