18
gdb 81754	3.15989	1.26227	1.06134	4.4116	77.55	-0.2757	-0.0012	0.2746	1171.4675	0.14632	-401.930619	-401.9218	-401.920856	-401.963914	32.843	
C	-0.3949745191	 1.5643927349	 0.3090300292	-0.409108
C	-0.1471003028	 0.0645386014	 0.2406458416	-0.024822
C	 0.262497443	-0.5126943068	-1.1223941296	-0.059375
O	 1.5360849625	 0.0354933655	-1.4667395554	-0.272014
C	 1.5101670774	-1.0811601147	-0.5655000576	 0.322841
C	 2.2420564833	-2.2581444958	-0.9170542347	 0.197795
N	 2.8339711984	-3.2246117148	-1.1481384866	-0.338965
C	 1.1932763196	-0.5424495469	 0.8447301065	-0.090374
C	 2.2323914588	 0.3691650749	 1.479144145	-0.415057
H	 0.4180089452	 2.1185912175	-0.1659159607	 0.13858
H	-1.3277461259	 1.8254322883	-0.2020249598	 0.121695
H	-0.4807521981	 1.9019563839	 1.3466237291	 0.122861
H	-1.0034884358	-0.4867169876	 0.640601823	 0.090048
H	-0.3531658454	-0.8762483694	-1.9374106798	 0.125903
H	 0.9473649869	-1.3728196519	 1.5124888906	 0.097713
H	 2.5538436801	 1.1472159766	 0.7825603803	 0.138659
H	 1.8303840294	 0.8535092998	 2.3745162275	 0.12289
H	 3.1152469925	-0.204483605	 1.7794487114	 0.130729
98.6542	133.8402	180.6132	212.7399	219.8445	240.5655	278.6841	368.8333	466.1128	532.382	559.8914	609.1228	642.0378	703.9421	754.9448	862.831	863.7713	921.898	1000.2768	1016.0951	1040.5043	1055.0287	1071.8198	1126.9594	1165.855	1178.0414	1211.9335	1259.2626	1280.1935	1353.5179	1357.9684	1405.4217	1407.6586	1428.9629	1485.0863	1496.4895	1499.4115	1510.1978	2355.0273	3039.0905	3042.5074	3060.2337	3077.3737	3101.5954	3105.7067	3123.8855	3130.9141	3189.4516
CC1C2OC2(C#N)C1C	C[C@H]1[C@H]2O[C@@]2(C#N)[C@H]1C	
InChI=1S/C7H9NO/c1-4-5(2)7(3-8)6(4)9-7/h4-6H,1-2H3	InChI=1S/C7H9NO/c1-4-5(2)7(3-8)6(4)9-7/h4-6H,1-2H3/t4-,5+,6-,7+/m1/s1
