17
gdb 53259	3.94388	0.82209	0.77859	3.5554	81.83	-0.2461	-0.0337	0.2125	1509.553	0.131939	-421.800485	-421.790437	-421.789493	-421.836607	34.969	
C	 0.006288265	 1.3393773902	-0.0989663408	-0.502261
C	-0.0226810261	-0.1130570032	-0.0015639141	 0.130562
C	 0.0003395013	-1.3160935592	 0.0956116998	 0.023826
C	-0.0607130768	-2.7429485995	 0.1733770379	-0.265212
C	-0.5990762126	-3.4386567325	 1.4010162487	-0.316436
C	-1.479857783	-3.3614459245	 0.1756395124	 0.297219
O	-2.5841454269	-2.5220471159	 0.1702381613	-0.466973
C	-1.649349623	-4.5950218343	-0.6411839767	 0.106829
O	-0.8337958831	-5.4841198009	-0.7005396572	-0.271704
H	 1.0272796331	 1.7175708667	 0.0216806436	 0.158463
H	-0.3632288425	 1.6846898218	-1.0706217786	 0.153385
H	-0.6120764943	 1.8016582754	 0.67794886	 0.154856
H	 0.6672845023	-3.3019563296	-0.4066906705	 0.137353
H	-0.1747201487	-4.4081907049	 1.635484691	 0.143682
H	-0.9043885633	-2.8199473309	 2.2359143381	 0.13409
H	-2.2915725499	-1.6428969875	-0.1091495718	 0.28959
H	-2.6073901817	-4.6227516311	-1.2024170431	 0.09273
34.1156	73.116	83.684	143.2583	216.7409	238.7148	259.3974	278.3474	337.85	399.7323	416.5971	511.2565	539.3934	637.5084	714.2096	723.9971	804.942	935.8272	958.2158	1009.6467	1048.8408	1052.9427	1054.8508	1076.729	1109.0903	1194.8878	1224.227	1281.2806	1355.3117	1387.2838	1414.8535	1425.6704	1449.4635	1475.2566	1477.9769	1808.0257	2354.7974	2915.8118	3029.8006	3091.5332	3093.7059	3144.2672	3159.0471	3249.2163	3723.2526
CC#CC1CC1(O)C=O	CC#C[C@H]1C[C@]1(O)C=O	
InChI=1S/C7H8O2/c1-2-3-6-4-7(6,9)5-8/h5-6,9H,4H2,1H3	InChI=1S/C7H8O2/c1-2-3-6-4-7(6,9)5-8/h5-6,9H,4H2,1H3/t6-,7-/m0/s1
