21
gdb 59463	2.96842	0.94842	0.91831	2.0823	75.33	-0.262	0.0675	0.3296	1425.3946	0.179594	-461.34073	-461.330355	-461.329411	-461.376369	38.226	
C	 0.0605947004	 1.3131214838	-0.4732173786	-0.409611
C	 0.109624138	-0.0130867564	 0.2825422982	 0.077575
O	 0.5121747874	 0.1548301212	 1.6399708913	-0.428631
C	-1.2418120214	-0.7100200395	 0.2592625094	 0.047179
O	-1.7429364522	-1.2222400689	-0.9902513908	-0.278256
C	-1.4583246744	-2.1496960447	 0.0752806083	 0.026135
C	-0.3644918372	-3.1733434365	-0.2321611961	 0.093737
C	-0.9789153515	-4.5189077117	-0.6321620082	-0.395996
O	 0.5067403954	-2.6957608222	-1.2441577615	-0.426846
H	 1.0343299492	 1.8084140829	-0.4325638255	 0.12742
H	-0.2109070815	 1.1509986101	-1.5205223768	 0.132814
H	-0.6883165632	 1.9862062855	-0.0351736781	 0.103804
H	 0.8597599898	-0.6675829505	-0.1644573346	 0.123603
H	-0.0278828019	 0.8543698495	 2.0249075859	 0.278288
H	-2.0065097487	-0.171858051	 0.8288935299	 0.082556
H	-2.3523558354	-2.5770554387	 0.5321838364	 0.094725
H	 0.2474865745	-3.3107374234	 0.6686439779	 0.103864
H	-1.629963043	-4.4008029091	-1.5053588897	 0.120935
H	-0.1853573537	-5.2250048778	-0.8880403862	 0.127293
H	-1.5728784944	-4.9428315239	 0.184956661	 0.111074
H	-0.0471160062	-2.1648344887	-1.8339513521	 0.288337
42.4716	75.0148	140.7921	183.3904	240.7869	251.8597	274.3445	290.8012	295.1739	365.1952	390.4769	440.8691	475.3202	496.8423	586.7674	654.8848	762.6923	846.2221	881.3532	904.2057	953.3373	969.8381	1023.3786	1060.2805	1081.8962	1100.9906	1117.6868	1139.7703	1164.4846	1192.1463	1268.9776	1284.3867	1308.5257	1340.847	1347.5869	1398.9036	1403.6815	1410.5549	1427.2438	1440.3388	1481.1144	1491.9603	1493.9861	1495.2219	1499.6201	3022.0025	3029.7631	3032.492	3053.8589	3090.8487	3098.4082	3103.7375	3118.0038	3124.9599	3125.6509	3741.2171	3795.3881
CC(O)C1OC1C(C)O	C[C@@H](O)[C@H]1O[C@H]1[C@@H](C)O	
InChI=1S/C6H12O3/c1-3(7)5-6(9-5)4(2)8/h3-8H,1-2H3	InChI=1S/C6H12O3/c1-3(7)5-6(9-5)4(2)8/h3-8H,1-2H3/t3-,4-,5-,6+/m1/s1
