18
gdb 82006	2.58008	1.42802	1.2952	1.7236	77.97	-0.2346	0.0235	0.258	1078.0719	0.145276	-401.862408	-401.853398	-401.852453	-401.895555	34.521	
C	-0.2229814072	 1.5301609676	 0.0454174753	-0.410969
C	 0.045426258	 0.0419996105	-0.057423058	-0.000997
N	 0.7198645595	-0.4675439521	-1.3066695129	-0.140594
C	 2.0955239895	 0.0618901702	-1.3114184982	-0.257902
C	 1.7986408514	-1.0855448849	-0.4358145497	-0.047101
C	 1.1553185227	-0.6084470192	 0.8670562293	 0.186292
O	 2.0012614307	 0.2741393922	 1.5870026333	-0.466587
C	 0.6440087693	-1.6685262008	 1.7245801422	 0.254685
C	 0.2089862959	-2.5122932403	 2.4628950305	-0.438913
H	 0.6954236669	 2.1188689693	 0.0923262043	 0.130676
H	-0.809477094	 1.8611135632	-0.8177398277	 0.130082
H	-0.8014847131	 1.7471699661	 0.9496913069	 0.11833
H	-0.8876292584	-0.5169309655	 0.0426643612	 0.097008
H	 2.6163415365	-0.1531658771	-2.2392925545	 0.12269
H	 2.3192673718	 1.0302145858	-0.877532306	 0.132844
H	 2.1744868892	-2.0884372397	-0.6023357994	 0.103852
H	 1.63246021	 0.3846271306	 2.4702079704	 0.285422
H	-0.1703660087	-3.2668549559	 3.107231683	 0.201181
113.6311	144.6358	170.4991	197.1428	222.0665	267.5106	315.5078	383.6538	476.284	493.2824	532.9343	569.264	623.8074	647.9425	667.7406	743.6658	778.7681	799.1611	906.614	933.996	1003.3008	1048.1239	1068.3215	1073.9187	1104.5169	1105.7363	1115.8165	1170.62	1183.5412	1229.8057	1278.1918	1316.1274	1368.0341	1400.7633	1403.8179	1482.6682	1492.1875	1509.0875	2231.2486	3040.5469	3081.192	3103.9422	3127.9581	3133.3627	3181.1098	3218.3186	3498.8727	3809.5916
CC1N2CC2C1(O)C#C	C[C@H]1N2C[C@H]2[C@]1(O)C#C	
InChI=1S/C7H9NO/c1-3-7(9)5(2)8-4-6(7)8/h1,5-6,9H,4H2,2H3	InChI=1S/C7H9NO/c1-3-7(9)5(2)8-4-6(7)8/h1,5-6,9H,4H2,2H3/t5-,6+,7+,8?/m1/s1
