17
gdb 83072	2.62039	1.54886	1.28278	4.104	74.02	-0.2275	-0.0208	0.2067	1033.9147	0.135947	-418.017501	-418.009201	-418.008257	-418.05028	30.933	
C	-0.0809495624	 1.6217434219	 0.2048076313	-0.415516
C	 0.005784109	 0.1183955346	 0.3047928054	-0.065085
C	 1.1733287024	-0.6827482733	-0.1556429553	-0.074527
N	 2.4346540604	 0.0007884498	-0.2189039871	-0.278596
C	 2.7795648282	 0.3775284083	 1.0659091852	 0.02051
N	 1.9383922649	 0.097954459	 1.9956998553	-0.294157
C	 0.8386991859	-0.588669273	 1.3817842816	 0.204877
C	 0.2185655345	-1.6970126601	 2.140384579	 0.08755
O	-0.6680456902	-2.4013517359	 1.714300293	-0.283788
H	 0.8589633922	 2.10878529	 0.471258465	 0.134317
H	-0.3383179172	 1.9211456345	-0.8167682635	 0.121239
H	-0.8561009443	 2.0038074971	 0.8757012209	 0.128738
H	-0.9300274585	-0.4165920687	 0.1635481886	 0.119886
H	 1.0521316193	-1.5876032061	-0.7398835702	 0.119526
H	 3.1396773127	-0.2815122732	-0.8814070244	 0.255643
H	 3.712176738	 0.9057837153	 1.2350973015	 0.132716
H	 0.652518435	-1.8403310703	 3.1528742035	 0.086667
115.191	124.2007	201.7863	204.9602	236.8051	241.4525	382.271	434.9419	517.6044	560.8707	606.3873	677.1213	721.9222	753.9497	874.0498	900.9099	934.6644	961.132	1003.8875	1013.9746	1067.0361	1090.3773	1116.3556	1128.9015	1145.4911	1232.0521	1252.7386	1324.1193	1370.9631	1400.5014	1411.9653	1427.5417	1457.941	1490.4702	1498.8542	1637.6951	1801.6427	2910.4604	3042.955	3103.849	3129.9763	3152.8393	3181.4145	3198.6205	3630.996
CC1C2NC=NC12C=O	C[C@H]1[C@H]2NC=N[C@@]12C=O	
InChI=1S/C6H8N2O/c1-4-5-6(4,2-9)8-3-7-5/h2-5H,1H3,(H,7,8)	InChI=1S/C6H8N2O/c1-4-5-6(4,2-9)8-3-7-5/h2-5H,1H3,(H,7,8)/t4-,5+,6-/m0/s1
