18
gdb 76528	2.61998	1.2081	1.18635	3.3211	73.9	-0.2417	0.0339	0.2755	1160.9185	0.146652	-439.086914	-439.077655	-439.076711	-439.121003	33.577	
C	-0.0710766217	 1.5520263349	-0.0103253064	-0.420595
C	 0.0441170397	 0.0442687943	 0.0094829027	-0.126738
C	 1.3838310827	-0.6357937669	-0.16755466	 0.01623
O	 2.5535729928	 0.1284587456	-0.2224771852	-0.418411
C	 0.707744665	-0.6623115118	 1.1679144737	 0.146744
C	 1.2401925687	-0.1208773483	 2.5036420414	-0.232683
N	 0.6865935989	-1.344705459	 3.1080942905	-0.35276
C	 0.2353123882	-1.8926468721	 1.9253441246	 0.39095
O	-0.301950779	-2.931921216	 1.6457636656	-0.377296
H	 0.8607524491	 2.0206852774	 0.3160659512	 0.130276
H	-0.2919977691	 1.9112060937	-1.0216008142	 0.118672
H	-0.8769139695	 1.89716997	 0.6454247295	 0.125124
H	-0.8020831333	-0.496519312	-0.4085528586	 0.106091
H	 1.4125545968	-1.5738694153	-0.7216456576	 0.107001
H	 2.6430869278	 0.4758718087	-1.1165697696	 0.293639
H	 2.3294130764	-0.0379614727	 2.5582372044	 0.129108
H	 0.775749033	 0.8014247826	 2.8662101515	 0.113628
H	 0.8013215235	-1.7469069631	 4.0255527163	 0.251019
83.6285	129.7451	153.1627	159.1605	187.1551	218.8862	301.9885	312.4679	347.8942	486.4548	581.5965	593.5186	623.3813	708.3183	789.2487	817.7166	879.1537	941.7527	984.5963	1015.2264	1053.8591	1074.2907	1102.7377	1143.8147	1147.5516	1158.1741	1167.1194	1189.6527	1270.2485	1294.9951	1316.0028	1374.9244	1387.0815	1417.2338	1478.2336	1498.8145	1508.1876	1526.9808	1888.9783	3034.7104	3045.6088	3092.5375	3095.8238	3105.557	3118.3293	3139.6363	3625.4529	3801.2971
CC1C(O)C11CNC1=O	C[C@H]1[C@@H](O)[C@]21CNC2=O	
InChI=1S/C6H9NO2/c1-3-4(8)6(3)2-7-5(6)9/h3-4,8H,2H2,1H3,(H,7,9)	InChI=1S/C6H9NO2/c1-3-4(8)6(3)2-7-5(6)9/h3-4,8H,2H2,1H3,(H,7,9)/t3-,4+,6+/m0/s1
