21
gdb 87995	2.66549	1.24593	1.1946	1.8783	78.57	-0.2473	0.0808	0.3281	1205.5874	0.179047	-424.204273	-424.194389	-424.193444	-424.23867	36.707	
C	 0.007748475	 1.4760767837	-0.1876894665	-0.421626
C	 0.113621617	-0.0155340439	-0.0083612575	-0.016441
O	 1.4447483438	-0.570884925	 0.0663279644	-0.285841
C	 0.6244744751	-0.6324252178	 1.2145674323	 0.315013
C	 0.9877002079	-0.0547507874	 2.5744215428	-0.159023
O	 0.5399269492	-1.2642082491	 3.219514237	-0.332186
C	 0.2442437416	-1.9299372312	 1.9480163669	 0.319923
C	-1.2198455198	-2.3401771032	 1.8876913799	-0.428046
C	 1.1966152024	-3.0917733565	 1.7013901236	-0.415926
H	 0.7008399186	 2.0009698307	 0.4750676646	 0.12863
H	 0.2407970107	 1.7582124869	-1.2194623267	 0.133125
H	-1.0104693174	 1.8153769163	 0.0317153352	 0.125543
H	-0.5645803264	-0.6092622571	-0.6241252081	 0.092663
H	 2.0608844393	 0.1271338882	 2.7148547988	 0.111421
H	 0.424918857	 0.827096645	 2.9054748516	 0.104525
H	-1.8728154625	-1.4804565775	 2.0609465048	 0.116638
H	-1.4639203658	-2.7752282766	 0.9126856064	 0.116957
H	-1.4306089667	-3.0904658027	 2.656530404	 0.126746
H	 1.0324363921	-3.8741870833	 2.4488550692	 0.120712
H	 1.0341720882	-3.5195872894	 0.7072561803	 0.121066
H	 2.2367648508	-2.7630200098	 1.7636553572	 0.126125
73.7597	131.904	169.1699	183.4746	186.4971	224.5392	260.2871	274.1207	343.9737	384.5781	442.5491	491.4306	536.6863	568.4043	683.631	798.0628	853.222	886.4413	931.9669	962.6693	979.259	993.1703	1008.0119	1041.6222	1063.1055	1115.699	1133.8482	1154.2518	1175.5381	1197.4074	1238.1877	1287.0105	1314.9978	1367.6136	1397.6159	1409.8698	1411.7257	1471.9418	1475.3012	1477.8466	1489.4024	1494.4249	1498.726	1515.3238	1538.2489	3010.3957	3034.1372	3037.2294	3042.3935	3053.264	3090.1877	3102.5928	3104.3894	3114.8183	3116.2143	3123.8685	3125.4306
CC1OC11COC1(C)C	C[C@H]1O[C@]21COC2(C)C	
InChI=1S/C7H12O2/c1-5-7(9-5)4-8-6(7,2)3/h5H,4H2,1-3H3	InChI=1S/C7H12O2/c1-5-7(9-5)4-8-6(7,2)3/h5H,4H2,1-3H3/t5-,7+/m1/s1
