16
gdb 44476	3.87632	1.62566	1.49757	1.6859	68.23	-0.2587	0.0175	0.2763	889.8347	0.127855	-437.876797	-437.870835	-437.869891	-437.907002	25.056	
N	-0.0680353139	 1.2589001424	 0.1605291111	-0.551903
C	-0.0166962077	 0.0149138989	-0.0197337989	 0.426031
O	 1.1509782661	-0.7211799309	-0.1791616739	-0.254684
C	 0.7614811491	-2.0290257806	-0.5635796156	 0.077724
C	-0.018621872	-2.9232371142	 0.4677968651	 0.033879
C	-0.9107779308	-1.9039040865	 1.1917006678	-0.223229
C	-1.1517649931	-0.9754757825	-0.0519025524	-0.152857
C	-0.6612416957	-1.9989590797	-1.1383817319	 0.060758
O	-0.8892636494	-3.3288077351	-0.6312562809	-0.295464
H	 0.8707776708	 1.6622121262	 0.1707726933	 0.226101
H	 1.5482929159	-2.5212031557	-1.1291322995	 0.110062
H	 0.4229651016	-3.7530103363	 1.0168555412	 0.090361
H	-1.8292841326	-2.3828099756	 1.5346085568	 0.122874
H	-0.4332066668	-1.3845930174	 2.0248395927	 0.124065
H	-2.1367313197	-0.5305781206	-0.1507255339	 0.103496
H	-0.9232869717	-1.8462013026	-2.1833848908	 0.102786
152.0608	323.8597	376.5466	444.9541	526.2928	552.3158	682.3671	719.6395	786.615	806.7682	822.6359	862.8315	883.1778	900.4234	915.1819	931.9925	960.8972	981.1095	996.9271	1028.7978	1044.0099	1085.8651	1122.6365	1158.3722	1188.4062	1210.2057	1232.6582	1250.2581	1257.0975	1299.4039	1319.4927	1327.1544	1368.8979	1483.2123	1797.2988	3081.205	3137.6873	3141.9235	3146.275	3166.6994	3177.3597	3470.553
N=C1OC2C3CC1C2O3	[NH][C]1O[C@H]2[C@H]3C[C@@H]1[C@@H]2O3	
InChI=1S/C6H7NO2/c7-6-2-1-3-5(9-6)4(2)8-3/h2-5,7H,1H2	InChI=1S/C6H7NO2/c7-6-2-1-3-5(9-6)4(2)8-3/h2-5,7H,1H2/t2-,3-,4+,5+/m1/s1
