16
gdb 81084	1.94438	1.83043	1.16332	3.2187	72.39	-0.2543	-0.0456	0.2087	1075.4397	0.122838	-437.835377	-437.827069	-437.826124	-437.86853	30.33	
C	-0.1204505387	 1.5740789823	-0.0943536616	-0.438045
C	-0.0332390355	 0.0575128609	-0.0257551624	-0.001104
C	 1.2335879905	-0.6426064097	-0.6192519515	-0.159631
N	 1.9994178181	-0.1118037476	 0.590088249	-0.326227
C	 0.698461576	-0.5938916749	 1.2017140737	 0.091919
C	 0.4086914807	-0.525870582	 2.6542254676	 0.036975
O	 1.2463427575	-0.3031941647	 3.4929801988	-0.245964
C	 0.8939855858	-1.853185174	 0.2614799859	 0.402599
O	 0.9530969088	-3.0377284704	 0.3060745833	-0.304209
H	 0.8246241774	 2.0389634074	 0.1881204248	 0.155511
H	-0.3776194563	 1.8888026755	-1.110898058	 0.12533
H	-0.9063640394	 1.9424038264	 0.5724391073	 0.126196
H	-0.9769985127	-0.4240076491	-0.2940633321	 0.096688
H	 1.6386081147	-0.5803622911	-1.6275118287	 0.110091
H	 2.7821678644	-0.7165864451	 0.8498534138	 0.244038
H	-0.6511183915	-0.7328322241	 2.9213000102	 0.085834
77.9758	154.224	179.8863	205.1544	221.6027	234.9939	335.1831	463.6572	537.5006	550.8471	661.3122	731.4911	762.0711	774.7341	811.871	885.2371	946.0505	987.6118	1028.9126	1054.9477	1070.8658	1106.6878	1155.4503	1178.2917	1199.4624	1236.3424	1259.2834	1308.7203	1395.6443	1409.1618	1425.3745	1494.3222	1502.7319	1806.7824	1912.4813	2889.3475	3045.0111	3083.636	3103.1116	3145.6357	3151.521	3434.4721
CC1C2NC1(C=O)C2=O	C[C@H]1[C@H]2N[C@]1(C=O)C2=O	
InChI=1S/C6H7NO2/c1-3-4-5(9)6(3,2-8)7-4/h2-4,7H,1H3	InChI=1S/C6H7NO2/c1-3-4-5(9)6(3,2-8)7-4/h2-4,7H,1H3/t3-,4+,6-/m0/s1
