20
gdb 12072	3.59557	1.59357	1.4566	1.1713	74.21	-0.242	0.0708	0.3128	976.6356	0.17632	-348.977244	-348.968979	-348.968035	-349.009421	32.296	
C	 0.0635970588	 1.5652835945	-0.0395194584	-0.404704
C	 0.0238726104	 0.0403334107	 0.1161852647	-0.218405
C	-1.3805152818	-0.5543335147	 0.0006128931	 0.418299
O	-2.2311693559	-0.0610765533	 1.0286605619	-0.490364
C	-2.098212604	-0.5276854669	-1.4031522942	-0.297673
C	-2.2760237589	-2.0488407401	-1.3151385497	-0.035807
C	-0.9346614	-2.714236801	-1.2148249889	-0.293331
C	-1.5250916589	-2.0813663527	 0.0150050744	-0.068682
H	 1.0906455028	 1.9382270122	 0.0113320134	 0.119051
H	-0.3558855264	 1.8830093543	-1.0008508444	 0.119279
H	-0.4968537042	 2.0678641582	 0.7569141226	 0.110312
H	 0.6700465326	-0.4165551235	-0.6412822564	 0.093837
H	 0.4319891395	-0.2427118247	 1.0941397267	 0.101552
H	-2.3321410622	 0.8879478233	 0.9006282921	 0.274747
H	-3.0380234531	 0.0243908369	-1.3373908484	 0.100551
H	-1.5215719986	-0.1626593228	-2.2607524193	 0.084897
H	-3.1664115795	-2.5929874624	-1.6043378506	 0.083375
H	-0.9484841511	-3.7996800644	-1.2152689017	 0.111744
H	-0.0659182061	-2.2881250943	-1.7114987163	 0.103059
H	-1.7400939534	-2.6432239494	 0.9157116694	 0.088264
95.6646	163.1782	189.9415	246.9108	280.5243	314.9484	376.2747	437.1315	442.7652	491.7178	629.2942	755.3722	777.8039	790.9436	836.3084	892.6219	935.2403	946.0213	963.3207	995.9886	1001.9065	1028.0256	1049.1923	1067.6804	1086.5315	1102.3714	1142.7103	1166.7576	1201.2348	1238.1381	1258.2192	1276.5726	1306.7982	1328.8568	1365.9001	1394.7622	1407.2045	1467.0839	1474.8375	1496.6457	1501.2775	1511.1556	3028.2181	3032.5841	3035.3422	3069.0606	3095.4656	3104.7697	3106.1684	3109.9929	3181.6219	3187.203	3200.2235	3809.0398
CCC1(O)CC2CC12	CC[C@@]1(O)C[C@H]2C[C@@H]12	
InChI=1S/C7H12O/c1-2-7(8)4-5-3-6(5)7/h5-6,8H,2-4H2,1H3	InChI=1S/C7H12O/c1-2-7(8)4-5-3-6(5)7/h5-6,8H,2-4H2,1H3/t5-,6-,7-/m1/s1
