20
gdb 117753	2.51265	0.95268	0.84242	2.6484	75.29	-0.2769	0.0294	0.3064	1447.5219	0.168596	-440.292171	-440.281352	-440.280408	-440.328167	38.361	
C	 0.0694566528	 1.6135706003	 0.0241549433	-0.413497
C	 0.0024954506	 0.0713812003	 0.0038450693	 0.045894
C	 0.702619159	-0.4943806559	 1.2764865089	-0.077169
O	 2.054360367	-0.1144073616	 1.3848745995	-0.418505
C	-1.4469365994	-0.4650732432	-0.0411644568	-0.199134
C	-2.2579233135	-0.0586385912	-1.2678167687	-0.097472
O	-3.5232787647	-0.6881034475	-1.1436088269	-0.417389
C	 0.7649034245	-0.4329470118	-1.1510731316	 0.2679
N	 1.4036593459	-0.8439428942	-2.0236514509	-0.35532
H	 1.0927417266	 1.9356011976	 0.2257168892	 0.149624
H	-0.2549436074	 2.0496148223	-0.9228153145	 0.132448
H	-0.5784133988	 1.9929231724	 0.8208514161	 0.123591
H	 0.1936204789	-0.0808672634	 2.1530990301	 0.120144
H	 0.5811896781	-1.5868334059	 1.2967859702	 0.107212
H	 2.5467523182	-0.5550530326	 0.6823171346	 0.299366
H	-1.4337231681	-1.5595780825	 0.0037345203	 0.123205
H	-1.9674961204	-0.1143968996	 0.857423332	 0.115429
H	-2.3637394221	 1.0357167441	-1.3144236964	 0.092336
H	-1.7357970741	-0.3803598553	-2.1818395552	 0.110884
H	-4.0447281431	-0.4726824823	-1.9222522026	 0.290455
79.5385	84.6677	115.7026	134.597	175.9687	202.3859	248.0414	258.0792	289.266	342.2966	356.5684	368.2505	409.3338	470.7088	586.2521	678.8308	712.4466	800.1892	901.4266	913.9228	981.2136	1016.8111	1045.7662	1074.8918	1096.4922	1160.6322	1167.5954	1193.8545	1225.4194	1259.0383	1291.7631	1333.992	1345.0579	1387.0897	1410.4579	1422.332	1466.0994	1482.5381	1489.7328	1498.9822	1508.0437	1530.6357	2342.2183	2979.461	3003.1504	3009.9324	3039.597	3048.9972	3081.2597	3088.8332	3123.5241	3144.0964	3794.2765	3832.8716
CC(CO)(CCO)C#N	C[C@@](CO)(CCO)C#N	
InChI=1S/C6H11NO2/c1-6(4-7,5-9)2-3-8/h8-9H,2-3,5H2,1H3	InChI=1S/C6H11NO2/c1-6(4-7,5-9)2-3-8/h8-9H,2-3,5H2,1H3/t6-/m1/s1
