19
gdb 97543	3.00337	0.72505	0.69011	2.5876	82.68	-0.2435	-0.0263	0.2172	1717.4727	0.154556	-423.001816	-422.990618	-422.989673	-423.039777	38.219	
C	 0.1395571209	 1.5878415487	 0.0528723573	-0.403383
C	 0.0143029667	 0.0583599058	-0.0413529364	-0.016591
C	 0.6096225459	-0.6324300094	 1.2134025966	-0.412571
C	-1.4647755149	-0.3608531116	-0.123574074	 0.159393
O	-2.3959135392	 0.3922022152	-0.0341368857	-0.246868
C	 0.6625241823	-0.465945835	-1.2452692147	 0.110415
C	 1.1647361127	-0.9228227964	-2.2403228124	 0.036395
C	 1.7772276353	-1.4478874717	-3.4542272028	-0.214791
O	 2.5981337006	-2.563647372	-3.1316965343	-0.408568
H	 1.1906998845	 1.8756576145	 0.1335690243	 0.119533
H	-0.2883912854	 2.0676775907	-0.8296624245	 0.133307
H	-0.400108272	 1.9536391961	 0.9298953328	 0.127987
H	 0.1291231462	-0.2483630879	 2.1185378324	 0.127133
H	 0.4698076358	-1.7163246268	 1.1721711068	 0.132306
H	 1.682394837	-0.4325125	 1.272104087	 0.137669
H	-1.6061320727	-1.4549520815	-0.2688713971	 0.088054
H	 0.9818106823	-1.7287686039	-4.1637749685	 0.119707
H	 2.3619822986	-0.6463184968	-3.934502624	 0.119848
H	 2.9783974054	-2.887012298	-3.9549052526	 0.291024
21.8156	58.1737	87.2801	115.2984	187.6043	206.6708	229.4083	239.6925	273.2888	287.5064	324.0651	338.4386	484.893	495.7284	526.1279	607.8319	722.291	825.835	901.4244	954.8165	1012.9391	1024.3713	1033.6659	1044.1177	1084.8104	1166.6697	1225.6396	1246.0336	1248.4156	1272.2621	1392.4802	1404.2463	1425.4303	1459.2258	1477.7203	1482.0222	1494.4103	1502.3458	1503.6409	1836.0694	2360.2155	2888.5428	2964.066	2982.3202	3040.1212	3053.8254	3117.4002	3124.8459	3131.3198	3136.3873	3818.5558
CC(C)(C=O)C#CCO	CC(C)(C=O)C#CCO	
InChI=1S/C7H10O2/c1-7(2,6-9)4-3-5-8/h6,8H,5H2,1-2H3	InChI=1S/C7H10O2/c1-7(2,6-9)4-3-5-8/h6,8H,5H2,1-2H3
