17
gdb 60950	3.72915	1.05073	0.96558	2.2747	69.1	-0.2442	-0.0359	0.2082	1228.2831	0.134588	-458.913401	-458.90512	-458.904176	-458.947212	30.457	
O	 0.0752317765	 1.6301924315	 0.0429412529	-0.440055
C	 0.0065266229	 0.229110194	 0.1035947189	 0.028731
C	 0.6731606752	-0.386178734	-1.1091957292	 0.131866
O	 1.1720493631	 0.291934903	-1.9753082234	-0.266624
C	 0.6442579032	-0.3145495132	 1.3727104722	-0.071214
C	 0.0642104814	-0.09276882	 2.7588795072	-0.142888
C	-1.45005401	-0.2483953235	 2.7247294522	-0.100238
O	-1.3397209417	-1.5315293683	 2.0409683566	-0.283529
C	 0.0854910929	-1.4747732644	 2.1451492508	 0.07182
H	 0.5242224473	 1.8310144942	-0.7935846776	 0.293222
H	-1.0412258787	-0.1153149753	 0.0805778163	 0.112856
H	 0.6791647942	-1.4937227331	-1.1545746584	 0.10543
H	 1.7316069618	-0.2707654598	 1.3888929239	 0.101552
H	 0.6429467006	 0.3379505685	 3.5637517956	 0.108256
H	-1.8944604187	-0.3878744714	 3.7155014377	 0.116472
H	-2.0306082618	 0.4846901218	 2.1541839283	 0.124671
H	 0.6112004118	-2.3918933798	 2.3855480062	 0.109673
43.6207	95.969	160.2253	190.1517	303.7725	326.5489	367.3441	440.9308	514.9395	567.577	761.1475	777.8214	790.6968	811.2667	853.3587	948.6615	953.9161	976.4892	993.098	1031.897	1049.9323	1058.9036	1071.0382	1119.0507	1151.1722	1163.7713	1187.7777	1260.6321	1269.8891	1306.7149	1321.2309	1362.4643	1393.5746	1418.0287	1450.3034	1516.9789	1810.6281	2937.7736	2976.2948	3036.5162	3087.5587	3134.7459	3178.3565	3214.2199	3690.202
OC(C=O)C1C2COC12	O[C@@H](C=O)[C@H]1[C@H]2CO[C@@H]12	
InChI=1S/C6H8O3/c7-1-4(8)5-3-2-9-6(3)5/h1,3-6,8H,2H2	InChI=1S/C6H8O3/c7-1-4(8)5-3-2-9-6(3)5/h1,3-6,8H,2H2/t3-,4+,5-,6-/m1/s1
