19
gdb 91160	2.65216	1.59406	1.48759	2.7391	79.24	-0.2369	0.0007	0.2376	1002.0876	0.161231	-385.920249	-385.912728	-385.911784	-385.951949	30.273	
C	-0.1959642461	 1.5443544034	-0.0160739155	-0.412034
C	 0.0303189268	 0.0344314084	 0.0115566424	 0.03928
C	 0.8898034861	-0.509342959	-1.1821752753	-0.238293
C	 2.0264894451	-1.3340510172	-0.4941198668	-0.164861
C	 2.901284126	-0.373486429	 0.2779949751	-0.086577
C	 2.1899154513	 0.1239627494	 1.3045146333	-0.08378
C	 0.8079377035	-0.4864083287	 1.2726508309	-0.175926
C	 1.2201656564	-1.8745360104	 0.7178240989	 0.429342
O	 0.9867324938	-2.9835395825	 1.0896065474	-0.324027
H	 0.7557526097	 2.0844423017	 0.0086287792	 0.120625
H	-0.7235388333	 1.83914042	-0.9297144538	 0.116116
H	-0.7972660328	 1.8741643911	 0.8380312997	 0.113311
H	-0.9445496512	-0.4667960288	 0.00519523	 0.083885
H	 0.2950180134	-1.14559849	-1.8438053994	 0.108767
H	 1.3078444595	 0.3026426182	-1.7830811719	 0.105886
H	 2.5234393078	-2.0700517714	-1.1230585886	 0.081217
H	 3.925391058	-0.1387591967	 0.0174573577	 0.104249
H	 2.5259844106	 0.8403514893	 2.042805651	 0.10503
H	 0.2363260054	-0.4794334376	 2.1992317158	 0.077791
123.2065	153.9024	244.224	262.9174	359.9777	403.4276	451.5644	517.0485	612.4642	650.3841	719.9928	737.4159	795.9513	816.0855	838.8928	860.4662	938.2558	949.6643	952.5387	964.1473	981.9244	1043.103	1072.4287	1100.0512	1112.1846	1121.7278	1177.0867	1186.2412	1200.1347	1248.7242	1274.0411	1296.2866	1333.8653	1360.579	1375.8071	1409.319	1492.6045	1495.9936	1501.4915	1620.0352	1896.0264	3028.9703	3031.6594	3055.5517	3094.8462	3100.8655	3106.8673	3133.738	3139.0848	3202.7145	3225.7453
CC1CC2C=CC1C2=O	C[C@H]1C[C@H]2C=C[C@@H]1C2=O	
InChI=1S/C8H10O/c1-5-4-6-2-3-7(5)8(6)9/h2-3,5-7H,4H2,1H3	InChI=1S/C8H10O/c1-5-4-6-2-3-7(5)8(6)9/h2-3,5-7H,4H2,1H3/t5-,6+,7-/m0/s1
