15
gdb 20592	3.24791	1.76338	1.20761	4.2807	64.06	-0.2467	-0.0048	0.2419	967.4195	0.118324	-399.793505	-399.785532	-399.784588	-399.826886	27.748	
C	 0.0428533049	 1.4908731658	-0.1600274571	-0.494378
C	-0.0772041556	 0.0205830766	 0.0324524896	 0.338106
C	-1.134112432	-0.8334458097	 0.1528559818	 0.09591
C	-2.5986115276	-0.5512551609	 0.1307388205	-0.214962
O	-3.2001447774	-1.3785567205	-0.8596007054	-0.413921
C	-0.5060359526	-2.1031422677	 0.3092106989	-0.020033
N	 0.7980277639	-2.0248418175	 0.2905260963	-0.143134
O	 1.0768314106	-0.6677265315	 0.1191756817	-0.214237
H	 0.7044753524	 1.7156177384	-1.0021487031	 0.154582
H	-0.9357466423	 1.9323986502	-0.3584141422	 0.140244
H	 0.4638779992	 1.9735877985	 0.7286041454	 0.151106
H	-3.035695306	-0.7568497506	 1.1212023442	 0.102058
H	-2.7695847903	 0.5164602992	-0.0769864021	 0.09321
H	-4.155134746	-1.2936878985	-0.7754824386	 0.289549
H	-0.9773560313	-3.0692590918	 0.4224069	 0.135899
36.5774	97.1058	167.1357	236.0255	248.6307	286.7462	355.7544	471.9714	633.1094	641.7665	679.7764	748.8768	905.7747	916.2274	959.6694	1002.229	1012.2204	1054.2273	1065.132	1173.5432	1197.7731	1247.3957	1252.933	1278.1113	1402.4511	1421.7395	1465.8261	1472.8293	1485.0152	1516.4671	1524.1373	1680.2672	2965.9028	2992.3942	3041.9481	3100.0671	3135.1097	3246.0514	3819.2528
CC1=C(CO)C=NO1	Cc1c(CO)cno1	
InChI=1S/C5H7NO2/c1-4-5(3-7)2-6-8-4/h2,7H,3H2,1H3	InChI=1S/C5H7NO2/c1-4-5(3-7)2-6-8-4/h2,7H,3H2,1H3
