20
gdb 32892	4.85041	0.82086	0.71364	2.9152	84.72	-0.1757	0.0414	0.2171	1624.7122	0.172014	-399.365029	-399.355492	-399.354548	-399.400043	34.297	
C	-0.0809015066	 1.5541243524	 0.0319156631	-0.398539
C	-0.0616032167	 0.033221162	 0.1444946206	-0.106529
N	-1.3571969508	-0.5277742224	-0.1953030198	-0.382828
C	-1.5328734507	-1.8994973439	-0.0913181791	 0.333803
C	-0.5919076536	-2.9067876806	-0.0959008628	-0.228452
N	-1.3240214353	-4.0863564496	-0.0226021382	 0.023484
C	-0.7868111591	-5.4275945243	-0.0012251916	-0.335984
C	-2.6298978201	-3.7294742804	 0.0316666354	 0.000685
N	-2.8001273234	-2.4241089592	-0.0054707112	-0.347713
H	 0.904354604	 1.9708241931	 0.2590033584	 0.117638
H	-0.3668271594	 1.8644873168	-0.9772759553	 0.129481
H	-0.7969622844	 1.9916885288	 0.7371407079	 0.11649
H	 0.6797057564	-0.3746852128	-0.5553941206	 0.105863
H	 0.267454574	-0.2679378079	 1.1552545426	 0.086312
H	-2.1432770268	-0.0284516257	 0.1994755097	 0.232869
H	 0.4827331429	-2.9110585308	-0.1464590743	 0.111777
H	-0.1220797069	-5.5711114127	 0.8573980363	 0.13924
H	-1.6111551204	-6.1395488504	 0.0751172748	 0.141829
H	-0.2251001483	-5.6419912929	-0.9167107087	 0.14014
H	-3.418313055	-4.4651990496	 0.0997304629	 0.120434
66.6631	89.5932	105.3337	121.6436	176.0188	259.8891	301.9225	343.1914	358.5224	470.8252	575.3101	615.6571	627.4647	664.7184	735.7102	799.7662	805.1838	822.1659	932.349	1013.3495	1049.1033	1080.4878	1088.679	1151.9626	1155.7838	1175.2418	1217.9294	1252.8597	1284.7234	1297.3987	1384.269	1401.2807	1414.7944	1426.96	1454.1652	1479.1512	1488.5406	1498.156	1503.4035	1527.9562	1529.8113	1557.2613	1627.0783	2939.7694	3023.7457	3030.8455	3035.9186	3086.5804	3102.2026	3120.952	3131.8082	3240.97	3282.8322	3577.4539
CCNC1=CN(C)C=N1	CCNc1cn(C)cn1	
InChI=1S/C6H11N3/c1-3-7-6-4-9(2)5-8-6/h4-5,7H,3H2,1-2H3	InChI=1S/C6H11N3/c1-3-7-6-4-9(2)5-8-6/h4-5,7H,3H2,1-2H3
