18
gdb 116130	2.75403	1.3072	1.01803	2.9145	70.05	-0.2652	0.0117	0.2769	1189.4236	0.148556	-476.230679	-476.222255	-476.221311	-476.264187	31.369	
O	 0.0839338294	 1.4410460515	-0.1640458951	-0.413983
C	 0.0334415145	 0.0364897815	-0.1106073799	-0.076096
C	-1.3930506654	-0.4827332848	 0.0089677628	 0.187387
O	-1.9754823374	 0.1463778733	 1.1105818884	-0.25663
C	-3.3417003312	-0.2242913115	 1.2684040501	-0.107161
C	-4.1257693938	 0.2228386012	 0.0368952102	-0.267214
C	-3.4461073874	-0.2266155543	-1.2345087612	 0.374677
N	-4.1001814507	-0.5201350427	-2.2753851597	-0.498436
O	-2.0765417892	-0.2000746894	-1.2182879106	-0.2603
H	-0.4691141519	 1.7611972605	 0.5581859204	 0.291286
H	 0.472421109	-0.3466307823	-1.0358843254	 0.125125
H	 0.6054569925	-0.3705557327	 0.7384638536	 0.096468
H	-1.4030763731	-1.5776651084	 0.1503673331	 0.076317
H	-3.41454017	-1.3136811482	 1.409891608	 0.108177
H	-3.6978303912	 0.2648800582	 2.1772866128	 0.12311
H	-5.1512249612	-0.149954589	 0.0417367062	 0.13687
H	-4.162580226	 1.3187779926	 0.0254596635	 0.138489
H	-3.4588161969	-0.7593504856	-3.0350822472	 0.221916
74.1262	103.3625	133.6877	228.4842	279.9086	331.7702	396.4461	442.9446	455.2346	491.2391	573.9165	678.4137	730.6805	802.7204	891.5271	902.5954	915.4925	934.8073	983.8463	1042.572	1068.5185	1086.0618	1095.5878	1121.8917	1179.7596	1226.0642	1238.0807	1280.0261	1325.558	1353.7073	1370.6098	1398.5013	1406.0051	1416.8505	1446.0613	1462.1477	1492.2879	1508.7121	1758.4353	2953.6047	2986.602	2993.5589	3046.787	3099.5906	3109.4263	3129.4633	3460.755	3800.0585
OCC1OCCC(=N)O1	OC[C@H]1OCC[C]([NH])O1	
InChI=1S/C5H9NO3/c6-4-1-2-8-5(3-7)9-4/h5-7H,1-3H2	InChI=1S/C5H9NO3/c6-4-1-2-8-5(3-7)9-4/h5-7H,1-3H2/t5-/m0/s1
