20
gdb 22094	2.48791	0.9933	0.79572	0.2802	86.67	-0.2379	-0.0345	0.2034	1502.9934	0.16697	-403.082992	-403.072262	-403.071318	-403.119477	38.862	
C	-0.9752405131	 1.343664799	 0.8806672821	-0.386911
C	-0.1287573506	 0.2984598668	 0.1429391924	 0.050357
C	 0.8943035167	-0.341456993	 1.0906587777	-0.391441
C	-0.980349651	-0.8059333604	-0.5278660015	-0.282282
C	-1.8809496201	-0.3193784112	-1.6431453631	 0.165269
N	-1.3944378072	-0.3710017085	-2.8342540805	-0.158718
O	-2.2698588388	 0.1157156939	-3.7958574862	-0.383772
C	-3.191002027	 0.1555026826	-1.3427506446	 0.357151
C	-4.2993290669	 0.5252355622	-1.0507491694	-0.479696
H	-0.3338304529	 2.1070395951	 1.3334668206	 0.108891
H	-1.6790288465	 1.8483124744	 0.2141450612	 0.127058
H	-1.5565336527	 0.8782290544	 1.6858017143	 0.11097
H	 0.4207970509	 0.8057187772	-0.6612647363	 0.085034
H	 0.3932929201	-0.8788838765	 1.9049835325	 0.11261
H	 1.5371397351	-1.0556466241	 0.5654966535	 0.112036
H	 1.5372755749	 0.4198128158	 1.5441948539	 0.111883
H	-0.3071084051	-1.5523476988	-0.9598355051	 0.11911
H	-1.5917539109	-1.30848466	 0.2310136464	 0.106743
H	-1.7707914214	-0.0104177474	-4.6106240136	 0.309702
H	-5.2772484435	 0.8604748887	-0.8066176843	 0.206007
28.4473	68.0799	125.6247	150.0492	220.0123	240.7216	272.6579	283.3411	312.3318	328.3191	405.6242	416.5874	453.8686	463.8768	626.3261	637.1118	659.3606	724.632	791.8237	825.1817	887.0301	930.4574	952.7245	968.9881	1029.764	1113.9874	1139.7503	1190.247	1225.3726	1286.7112	1313.718	1365.0943	1367.9984	1399.769	1402.7633	1423.0251	1469.6564	1486.4023	1492.3711	1503.6765	1507.7956	1670.8281	2216.9288	3015.6497	3023.4014	3028.9955	3040.038	3087.5372	3090.0456	3096.9701	3101.0174	3118.7339	3500.0243	3810.0031
CC(C)CC(=NO)C#C	CC(C)CC(=NO)C#C	
InChI=1S/C7H11NO/c1-4-7(8-9)5-6(2)3/h1,6,9H,5H2,2-3H3	InChI=1S/C7H11NO/c1-4-7(8-9)5-6(2)3/h1,6,9H,5H2,2-3H3
