18
gdb 44390	3.48236	1.58813	1.39755	3.8193	74.88	-0.2358	-0.0312	0.2045	957.6984	0.150153	-401.908149	-401.90158	-401.900636	-401.939032	27.35	
O	 0.0054184216	 0.0175733603	-0.4990283711	-0.289359
C	-0.0177978727	 1.1541935562	-0.1313941814	 0.396468
C	-1.1544186406	 2.1529116507	 0.1874590625	-0.383388
C	-0.07887884	 3.2222854874	 0.5259453518	-0.024158
C	 0.3489712675	 3.4254680122	 1.9907811435	-0.047003
C	 1.8872487773	 3.5668836305	 1.7936165399	-0.171713
N	 1.8628590448	 2.0887236622	 1.408523678	-0.127775
C	 0.7482495553	 1.9979152407	 2.4392890883	-0.199816
C	 1.0787860751	 2.2146752716	 0.1453989039	-0.106099
H	-1.7511363585	 2.382430765	-0.7010529607	 0.133426
H	-1.8377848398	 1.8489218762	 0.9862496933	 0.128715
H	-0.1522863749	 4.1557548176	-0.0322749928	 0.077811
H	-0.241950636	 4.1005249248	 2.6120715444	 0.068533
H	 2.2628934991	 4.2403846299	 1.018000103	 0.104427
H	 2.4504239968	 3.6991080727	 2.7202450031	 0.112849
H	 1.1860125208	 1.9675218629	 3.4387616608	 0.113831
H	 0.0587550468	 1.1589339613	 2.3217378165	 0.11647
H	 1.7401084675	 2.4346493977	-0.6953403629	 0.096781
104.1873	237.8776	306.0171	437.4037	463.5952	525.0865	574.3213	602.2696	732.5952	752.3662	804.6814	835.639	844.1312	855.6671	874.4292	923.6538	932.9823	998.7925	1014.4769	1021.4221	1034.3284	1073.7084	1079.5126	1094.0069	1123.6365	1161.0072	1194.7573	1207.6551	1226.4006	1227.9296	1233.1494	1277.7858	1285.7253	1303.3984	1333.833	1434.8901	1503.3433	1541.6791	1891.4156	3053.5375	3056.6473	3071.6846	3092.0014	3098.5525	3103.6933	3114.4269	3122.1191	3127.2726
O=C1CC2C3CN(C3)C12	O=C1C[C@H]2[C@@H]3CN(C3)[C@@H]12	
InChI=1S/C7H9NO/c9-6-1-5-4-2-8(3-4)7(5)6/h4-5,7H,1-3H2	InChI=1S/C7H9NO/c9-6-1-5-4-2-8(3-4)7(5)6/h4-5,7H,1-3H2/t5-,7+/m0/s1
