13
gdb 7040	7.7294	0.83795	0.76312	7.1831	70.17	-0.2807	-0.0697	0.211	1406.3607	0.092533	-361.466416	-361.457396	-361.456452	-361.503101	28.953	
C	 0.0772989346	 1.4554232246	 0.0089134872	-0.505848
C	 0.021289654	 0.0048272767	 0.0018741917	 0.169675
C	-0.0487187599	-1.2002825951	-0.0037543729	-0.033333
C	-0.1192013823	-2.6413833871	-0.0105911944	 0.22184
O	-1.1552404335	-3.2605560498	-0.0035798441	-0.255458
C	 1.260214289	-3.3265992008	-0.0278173462	-0.443685
C	 1.1870300336	-4.7822047219	-0.0346920507	 0.272209
N	 1.1586203385	-5.9361640449	-0.0404334811	-0.292887
H	 1.1100325509	 1.8178350255	 0.0029379814	 0.163208
H	-0.4341898047	 1.8641447603	-0.8691093196	 0.171586
H	-0.4208613716	 1.8551200645	 0.8986693077	 0.171586
H	 1.8134602839	-2.9751666397	-0.9070609541	 0.180554
H	 1.8307880376	-2.9843078823	 0.8439267149	 0.180554
10.0138	39.5749	76.03	144.1739	163.7456	300.657	368.6345	382.477	386.1324	464.674	572.439	575.3154	800.2298	921.6537	941.0652	999.1983	1042.7145	1053.8708	1190.4036	1211.1198	1328.5838	1408.9888	1432.6813	1467.7793	1470.6633	1784.2138	2339.8204	2376.8063	3034.8224	3044.1997	3079.8157	3099.957	3104.6985
CC#CC(=O)CC#N	CC#CC(=O)CC#N	
InChI=1S/C6H5NO/c1-2-3-6(8)4-5-7/h4H2,1H3	InChI=1S/C6H5NO/c1-2-3-6(8)4-5-7/h4H2,1H3
