18
gdb 32706	3.98238	1.08588	0.91785	2.6446	86.89	-0.2059	-0.0432	0.1627	1302.3952	0.148447	-401.981193	-401.972854	-401.97191	-402.014878	31.07	
C	-0.0379559216	 1.3961360206	-0.3580464481	-0.366271
C	-0.0420755532	-0.0513351647	 0.1516538269	-0.133238
N	-1.3825442569	-0.6167941824	 0.1492063656	-0.323866
C	-1.8320635618	-1.1905436267	-0.8875969281	 0.406537
O	-1.0444901758	-1.29559489	-2.0500328009	-0.248597
C	-1.4972950386	-1.9290794725	-3.1525316074	 0.081982
C	-2.7162987723	-2.4853312247	-3.2394598779	-0.195775
C	-3.5824809063	-2.3984953905	-2.0912846926	-0.073038
C	-3.1553005845	-1.7779823171	-0.9719891471	-0.173033
H	 0.9617845449	 1.8332297762	-0.2668413355	 0.107695
H	-0.3356930223	 1.4379458182	-1.4099983634	 0.117814
H	-0.7372596278	 2.0079286716	 0.2192919936	 0.123359
H	 0.6593835281	-0.6494904238	-0.4456592514	 0.096845
H	 0.3151147288	-0.0658657097	 1.1873009365	 0.097522
H	-0.7567917301	-1.9231306321	-3.9436346547	 0.133862
H	-3.0236418984	-2.9770330387	-4.1522696976	 0.11204
H	-4.5742536784	-2.8357417647	-2.1344863816	 0.112765
H	-3.7627320139	-1.6876408289	-0.0808963161	 0.123398
46.2807	93.3089	159.6893	200.5601	279.6142	344.2027	400.2623	472.1918	545.4499	584.9228	618.8689	724.5051	747.8622	778.5207	815.6175	849.0854	892.9773	932.7173	959.202	994.1241	1004.3673	1051.1184	1098.7537	1117.6014	1131.3733	1181.4983	1216.2071	1278.8708	1308.5724	1368.8451	1397.517	1403.0794	1455.6691	1490.0762	1496.4759	1513.9746	1603.0466	1685.3903	1739.8725	3007.7182	3037.051	3054.5303	3108.8098	3117.3746	3188.0772	3206.1095	3225.6271	3232.9727
CCN=C1OC=CC=C1	CCN=c1occcc1	
InChI=1S/C7H9NO/c1-2-8-7-5-3-4-6-9-7/h3-6H,2H2,1H3	InChI=1S/C7H9NO/c1-2-8-7-5-3-4-6-9-7/h3-6H,2H2,1H3
