14
gdb 31419	3.12758	1.39028	0.96826	5.3315	68.45	-0.2618	-0.0501	0.2117	1138.7386	0.102061	-470.080578	-470.072478	-470.071534	-470.114604	28.214	
C	-0.0412400589	 1.4408910343	 0.0564109632	-0.317206
N	 0.0336086674	-0.0037657318	-0.0558840904	-0.331652
C	 0.6191898213	-0.6375510676	-1.0788430282	 0.471081
N	 1.163486399	 0.0712637426	-2.0465499392	-0.408601
C	 1.7531746806	-0.5700363958	-3.076323803	 0.44566
O	 2.2967788967	-0.1295752094	-4.0390639798	-0.329509
O	 1.7256310945	-2.0478908296	-3.0086311227	-0.207525
C	 1.1427434718	-2.6167975809	-1.9749995928	 0.159836
N	 0.576636949	-2.0220075314	-0.9859739396	-0.350213
H	 0.9593160279	 1.8823159613	 0.0769454556	 0.157003
H	-0.5804792732	 1.8704475661	-0.7928105755	 0.156804
H	-0.5651104431	 1.6897754786	 0.9803924503	 0.132302
H	-0.3656950421	-0.5953078354	 0.6540273047	 0.269771
H	 1.174312649	-3.7044906311	-2.0166795226	 0.15225
32.0449	97.9734	151.3563	196.2658	205.4948	429.233	447.5013	504.3052	520.8366	568.9577	611.7128	634.9561	766.0803	809.7632	849.5527	952.1527	1011.3299	1076.4089	1159.5644	1165.0287	1235.1227	1270.1557	1339.0575	1414.5154	1458.1891	1475.8676	1510.4003	1553.7942	1618.9239	1688.4838	1919.5795	3048.4704	3109.3049	3146.2435	3160.3233	3660.5159
CNC1=NC(=O)OC=N1	CNc1nc(=O)ocn1	
InChI=1S/C4H5N3O2/c1-5-3-6-2-9-4(8)7-3/h2H,1H3,(H,5,7,8)	InChI=1S/C4H5N3O2/c1-5-3-6-2-9-4(8)7-3/h2H,1H3,(H,5,7,8)
