17
gdb 66555	3.07411	1.96625	1.65695	1.1414	74.3	-0.2261	0.0117	0.2378	858.3658	0.137994	-384.633015	-384.626737	-384.625793	-384.663126	27.27	
O	-0.1054152194	 1.3435696231	 0.072044997	-0.467893
C	 0.0287613465	-0.0266470124	 0.0369245815	 0.407876
C	-0.2102987808	-0.8609056679	-1.2296356195	-0.158315
C	-1.0729971897	-1.0375779937	 0.0045082464	-0.167085
C	 0.019322631	-2.0687712925	 0.46587419	-0.063322
C	 0.5984296227	-2.1707628931	-0.9846306488	-0.068862
C	 2.0846969384	-1.9408750078	-0.8443782451	-0.092291
C	 2.3043303889	-1.2109547352	 0.2578651665	-0.104092
C	 0.977287277	-0.9140436042	 0.9091822528	-0.14093
H	 0.5931733246	 1.7298561287	-0.4684728674	 0.285723
H	-0.466494753	-0.3815976595	-2.1662798735	 0.084236
H	-2.1389500319	-0.9672400943	 0.1593412055	 0.09571
H	-0.1306068288	-2.9473201743	 1.0911847481	 0.071087
H	 0.2722626812	-3.018152014	-1.5889207169	 0.063793
H	 2.8261368053	-2.2463053835	-1.5735631072	 0.093228
H	 3.2578069644	-0.8176215867	 0.5907760008	 0.093464
H	 0.9672268233	-0.6462968227	 1.9662042601	 0.067673
224.1634	291.4818	341.1134	405.4292	456.8675	573.8281	595.146	660.3407	736.4743	741.6408	771.7539	824.1453	832.7075	853.6706	892.9236	909.0362	937.403	945.8188	948.0248	973.0188	987.3751	993.345	1021.2018	1096.0657	1119.531	1130.2039	1140.5045	1177.6134	1208.7826	1233.089	1255.1545	1288.699	1293.0057	1314.8372	1358.0903	1453.2188	1634.7338	3102.565	3111.4097	3130.0317	3185.3908	3192.417	3210.7334	3233.6182	3785.7414
OC12C3C1C1C3C=CC21	O[C@]12[C@@H]3[C@H]1[C@H]1[C@@H]3C=C[C@@H]21	
InChI=1S/C8H8O/c9-8-4-2-1-3-5(4)7(8)6(3)8/h1-7,9H	InChI=1S/C8H8O/c9-8-4-2-1-3-5(4)7(8)6(3)8/h1-7,9H/t3-,4+,5-,6-,7+,8+/m0/s1
