13
gdb 8994	5.39926	1.00513	0.85178	2.7609	63.77	-0.2559	-0.0776	0.1783	1233.18	0.092929	-398.600249	-398.591789	-398.590845	-398.635074	28.449	
O	-0.0822730431	-0.0601811801	-0.0010671432	-0.325088
C	-0.016474584	 1.1513569805	 0.0068482582	 0.154083
N	 1.1431151886	 1.8545877802	 0.0038418542	-0.292468
C	 2.4274910406	 1.2081982578	-0.0118135139	-0.227992
C	 3.5273159305	 2.254930851	-0.0193965479	 0.220514
O	 3.2882771628	 3.444542843	-0.0126961554	-0.293474
C	 4.8762763265	 1.7326731568	-0.0352573946	 0.259518
C	 5.9901248639	 1.277725786	-0.048618713	-0.387741
H	-0.9045590783	 1.8125827449	 0.0177834258	 0.082819
H	 1.1519965162	 2.8646889425	 0.008270487	 0.266376
H	 2.5670488005	 0.551884487	 0.8587677124	 0.159161
H	 2.548516363	 0.5582294979	-0.8898677212	 0.159342
H	 6.9800971028	 0.8894198026	-0.0611289985	 0.22495
17.187	91.8264	105.1484	207.1773	248.5756	271.4833	298.1957	473.0089	557.2812	571.1909	599.87	662.0622	715.0043	758.2576	898.1272	991.7541	1036.2308	1045.5007	1137.7246	1225.209	1226.3518	1356.6626	1423.487	1473.1511	1516.3361	1762.2113	1803.6395	2218.5851	2948.6625	3016.9032	3036.2199	3491.7874	3606.3057
O=CNCC(=O)C#C	O=CNCC(=O)C#C	
InChI=1S/C5H5NO2/c1-2-5(8)3-6-4-7/h1,4H,3H2,(H,6,7)	InChI=1S/C5H5NO2/c1-2-5(8)3-6-4-7/h1,4H,3H2,(H,6,7)
