20
gdb 82603	3.33126	1.48245	1.25723	1.0137	78.43	-0.2046	0.0733	0.278	1059.2126	0.172766	-403.084292	-403.076851	-403.075907	-403.115643	30.834	
C	-0.019956929	 1.4686388223	-0.2077914485	-0.327714
N	-0.0140929802	 0.020238419	-0.0442840759	-0.101273
C	-1.214728002	-0.523264617	 0.6898201966	-0.025943
C	-0.9206494355	-2.0299766445	 0.5417954252	-0.21308
C	 0.3697281461	-1.9623355738	 1.3860140453	-0.118806
C	-0.2177463933	-1.5813918885	 2.7733223409	 0.122996
O	 0.7445218614	-1.3468472853	 3.7844354849	-0.45081
C	-0.5383699266	-0.2430074906	 2.0988651306	-0.05362
C	 0.7062899127	-0.4169323778	 1.1756937443	 0.020756
H	 0.9663173781	 1.7935373786	-0.556070987	 0.117963
H	-0.7508624179	 1.7409346002	-0.976378901	 0.115495
H	-0.2582201685	 2.0382400687	 0.7074882726	 0.094683
H	-2.1936286587	-0.1352568094	 0.4079105827	 0.066293
H	-1.674951681	-2.6882062159	 0.9834594226	 0.089095
H	-0.7653811798	-2.2929489257	-0.5050361258	 0.107711
H	 1.1154273194	-2.7500824217	 1.2788321806	 0.059885
H	-1.0438384893	-2.204666598	 3.1459456358	 0.057624
H	 1.1478067785	-2.1916589387	 4.0081687284	 0.281882
H	-0.7893516939	 0.6509224002	 2.6648025212	 0.079123
H	 1.7095288795	-0.0461530023	 1.3728487865	 0.077741
181.872	219.9545	247.3326	298.6907	317.0641	352.983	423.8034	486.2836	528.9573	669.1128	774.2068	793.88	818.9709	840.3612	861.8724	913.8525	929.3529	953.7001	961.1223	982.6947	999.608	1021.9754	1064.4418	1091.0408	1121.2014	1139.0509	1157.6468	1173.7534	1178.3279	1192.1075	1205.0643	1223.4656	1231.2411	1265.6186	1282.4903	1302.3777	1318.905	1334.6487	1419.2011	1455.7628	1486.6796	1494.7784	1502.5572	2953.2486	2987.912	3056.9967	3058.2121	3095.0287	3114.5241	3116.363	3127.7767	3141.8154	3151.6027	3813.8671
CN1C2CC3C(O)C2C13	CN1[C@H]2C[C@@H]3[C@@H](O)[C@H]2[C@H]13	
InChI=1S/C7H11NO/c1-8-4-2-3-6(8)5(4)7(3)9/h3-7,9H,2H2,1H3	InChI=1S/C7H11NO/c1-8-4-2-3-6(8)5(4)7(3)9/h3-7,9H,2H2,1H3/t3-,4-,5+,6+,7+/m0/s1
