17
gdb 92424	2.16701	1.65801	1.35837	3.492	68.53	-0.2494	-0.045	0.2044	1021.8557	0.134872	-458.931254	-458.923086	-458.922142	-458.964419	30.387	
O	 0.6407304303	 0.8241622029	-0.5361054409	-0.43253
C	 0.1280079903	-0.33264854	 0.0492110209	 0.108754
C	 0.0913223028	-0.4471959671	 1.6108612912	-0.281114
C	-1.4437269911	-0.6579136539	 1.5679159955	-0.125933
C	-2.2506829702	 0.6487691094	 1.5716438943	-0.091239
O	-2.0499051392	 0.8391041905	 0.1421861579	-0.344738
C	-1.4244082913	-0.4555418861	 0.0093367501	 0.303308
C	-2.08853499	-1.3513267179	-0.9905753588	 0.069306
O	-1.635548354	-2.4209077057	-1.3150752266	-0.255638
H	-0.0214182951	 1.5147962624	-0.3893342591	 0.289099
H	 0.6010967824	-1.1986796694	-0.420237187	 0.116269
H	 0.6550336805	-1.2958658933	 2.0027459844	 0.116723
H	 0.4104786478	 0.4582992136	 2.1341900291	 0.10635
H	-1.8678166958	-1.5340071842	 2.0536553709	 0.098626
H	-3.3170175397	 0.5328338001	 1.7981016736	 0.116397
H	-1.8415922207	 1.4779970424	 2.1595873459	 0.11336
H	-3.0444373971	-0.9573552036	-1.4012143515	 0.093002
75.6816	92.2556	179.6868	201.2919	264.9854	372.8284	403.5541	456.2749	498.3058	585.2414	635.8116	707.5567	789.7612	839.4237	849.7522	910.3947	952.0086	996.8349	1026.0998	1054.6764	1088.5601	1111.8556	1123.0598	1148.8812	1157.6687	1172.9262	1194.95	1251.3278	1277.4642	1307.5655	1337.7305	1348.5156	1396.5069	1436.1335	1471.9162	1522.7197	1813.8459	2893.1217	3025.0516	3063.8902	3075.7465	3090.114	3122.4265	3140.2866	3737.1342
OC1CC2COC12C=O	O[C@H]1C[C@H]2CO[C@@]12C=O	
InChI=1S/C6H8O3/c7-3-6-4(2-9-6)1-5(6)8/h3-5,8H,1-2H2	InChI=1S/C6H8O3/c7-3-6-4(2-9-6)1-5(6)8/h3-5,8H,1-2H2/t4-,5-,6+/m0/s1
