21
gdb 118671	1.78465	1.16802	0.80169	3.202	76.61	-0.2419	-0.0287	0.2132	1510.7131	0.178169	-461.347407	-461.336261	-461.335317	-461.385129	37.628	
C	-0.639570559	 1.6138969344	 0.298472384	-0.387195
C	-0.3789426114	 0.1732429403	-0.102844641	-0.045806
O	-1.527534939	-0.5995432039	 0.2200764307	-0.255664
C	-1.4099414324	-1.9665184595	-0.112446501	 0.026553
C	-2.5073695581	-2.7639116245	 0.6097081343	-0.101489
O	-3.8018818939	-2.5513688475	 0.0955610562	-0.241018
C	-4.4706405163	-1.4080828836	 0.5989588777	-0.235239
C	-1.5382099445	-2.1828485988	-1.6229661042	 0.148863
O	-1.1157252134	-3.1502288117	-2.1981071355	-0.245883
H	 0.2350712359	 2.2329875842	 0.0788262139	 0.121373
H	-1.496250356	 2.017342233	-0.248688552	 0.12942
H	-0.8531093535	 1.6803047812	 1.3689720751	 0.13003
H	-0.1579473841	 0.1063886052	-1.1802914543	 0.098243
H	 0.4972782834	-0.2298660851	 0.4303925839	 0.096925
H	-0.4356130043	-2.3712057284	 0.2075749234	 0.090031
H	-2.2878521508	-3.8273016568	 0.4685837632	 0.126643
H	-2.4582440624	-2.5301481489	 1.683944739	 0.099796
H	-5.4906442533	-1.4457536413	 0.2084047407	 0.124814
H	-4.5117485935	-1.4249624998	 1.6986400474	 0.1045
H	-3.9903208042	-0.4756047871	 0.2839082182	 0.126149
H	-2.080191229	-1.3646830214	-2.1482466397	 0.088951
59.069	66.3054	69.149	95.834	107.3916	163.3743	216.9908	242.3994	250.8941	292.109	359.5174	386.0545	430.3415	575.1326	622.435	819.7706	838.4688	877.7095	934.7192	974.8412	1028.2761	1076.2454	1096.6593	1140.002	1148.8867	1176.3937	1186.2913	1186.8625	1224.0074	1276.8904	1299.2439	1328.8356	1336.8753	1391.0576	1401.6767	1406.0058	1435.4254	1466.7027	1482.7938	1483.6376	1491.6949	1498.8339	1515.4857	1527.2731	1838.0256	2883.9093	2966.2245	2978.2031	2990.722	2995.7316	2998.7956	3046.5903	3071.6905	3083.8557	3119.2773	3122.3438	3123.2796
CCOC(COC)C=O	CCO[C@@H](COC)C=O	
InChI=1S/C6H12O3/c1-3-9-6(4-7)5-8-2/h4,6H,3,5H2,1-2H3	InChI=1S/C6H12O3/c1-3-9-6(4-7)5-8-2/h4,6H,3,5H2,1-2H3/t6-/m1/s1
