17
gdb 6961	2.62783	2.28924	1.66139	3.5984	63.99	-0.2468	0.0273	0.2741	845.8119	0.142881	-401.052646	-401.044765	-401.043821	-401.084452	29.946	
C	 0.3664102899	 1.4667554764	-0.0592506482	-0.428218
C	-0.1098212416	 0.0066065549	-0.0307303124	 0.307682
O	-1.5197106333	-0.0534557706	 0.036255738	-0.482736
C	 0.4422322653	-0.831025628	-1.1959791244	-0.255952
C	 1.7733896774	-1.403802001	-0.6547383865	-0.176323
N	 1.5480606616	-1.4333535108	 0.7849561941	-0.313625
C	 0.4820666602	-0.7044520084	 1.2010861339	 0.379274
O	 0.030460192	-0.6103281561	 2.326073484	-0.408929
H	 1.4531672173	 1.5413090404	-0.1775794268	 0.111393
H	-0.1136143383	 1.9853259783	-0.8939779115	 0.126063
H	 0.0879811395	 1.968849001	 0.8717321972	 0.131213
H	-1.7315012807	-0.0377751929	 0.9816635812	 0.28783
H	-0.2643992399	-1.6412545798	-1.3928974202	 0.125719
H	 0.581172028	-0.2601605134	-2.1163531005	 0.108841
H	 1.9815452551	-2.4059985249	-1.0412350886	 0.119532
H	 2.6274321836	-0.7632111469	-0.912387067	 0.112941
H	 2.1234365538	-1.9459633282	 1.4342528078	 0.255295
103.5783	177.8282	217.5658	247.1129	296.1443	338.3973	387.6421	438.7604	514.0616	538.5232	603.9712	690.0537	728.5989	761.7496	833.8332	934.7345	954.8697	964.0715	1007.8679	1061.1878	1133.5668	1158.155	1185.27	1237.8073	1247.2311	1277.8973	1318.7176	1369.0177	1396.9654	1409.3906	1449.7449	1482.7161	1492.1099	1497.9231	1534.7477	1822.0216	3012.1141	3032.6382	3067.7307	3077.2425	3105.4706	3121.0552	3124.357	3639.5218	3723.3975
CC1(O)CCNC1=O	C[C@@]1(O)CCNC1=O	
InChI=1S/C5H9NO2/c1-5(8)2-3-6-4(5)7/h8H,2-3H2,1H3,(H,6,7)	InChI=1S/C5H9NO2/c1-5(8)2-3-6-4(5)7/h8H,2-3H2,1H3,(H,6,7)/t5-/m1/s1
