17
gdb 89938	3.24568	1.36314	1.12459	1.0635	75.47	-0.2486	0.0107	0.2593	1107.6808	0.133988	-421.749741	-421.741429	-421.740485	-421.782504	31.596	
C	 0.3478981828	 1.5880046699	-0.0176484497	-0.415413
C	 0.0360188782	 0.1153213204	 0.1073960354	 0.128121
O	 0.7680319966	-0.7146513827	-0.8496123748	-0.347511
C	 1.237750904	-1.6048152447	 0.1872327079	 0.226664
C	 2.5923390087	-1.1434100154	 0.7673509547	-0.124019
O	 1.9300479801	-0.2434979905	 1.6909960003	-0.287388
C	 0.6277299319	-0.6841831193	 1.2833088703	-0.016041
C	 0.9820721488	-3.0000087693	-0.0477125345	 0.241232
C	 0.784773393	-4.1716509109	-0.2308808531	-0.408027
H	 1.3950785241	 1.7794173446	 0.2260378635	 0.137162
H	 0.1500704157	 1.9256333131	-1.0393147644	 0.130427
H	-0.2831245938	 2.1696297108	 0.662727988	 0.120514
H	-1.0407541572	-0.0765356357	-0.0015798954	 0.084218
H	 3.1493342975	-1.9212144629	 1.301724475	 0.114827
H	 3.2372510001	-0.6245485886	 0.0517284942	 0.119907
H	-0.0084315508	-0.9837439785	 2.1171875186	 0.096049
H	 0.6058423001	-5.2052363003	-0.3986355659	 0.199278
96.3133	140.6555	178.6176	213.9375	241.8438	338.3701	399.8307	437.1279	515.0271	550.6525	631.8856	635.3007	668.3683	681.8667	813.7626	873.9727	896.6961	947.745	967.6146	1010.9863	1031.8334	1068.8173	1100.0433	1109.7392	1148.798	1157.7682	1181.6519	1256.2602	1304.9913	1315.2808	1360.4266	1379.419	1407.0894	1483.4771	1493.3782	1500.7359	2237.7993	3006.1385	3032.3077	3043.5097	3098.1682	3107.3037	3111.3153	3137.285	3499.6236
CC1OC2(COC12)C#C	C[C@H]1O[C@]2(CO[C@@H]12)C#C	
InChI=1S/C7H8O2/c1-3-7-4-8-6(7)5(2)9-7/h1,5-6H,4H2,2H3	InChI=1S/C7H8O2/c1-3-7-4-8-6(7)5(2)9-7/h1,5-6H,4H2,2H3/t5-,6+,7+/m1/s1
