18
gdb 37895	3.07493	2.14748	1.71516	1.571	73.34	-0.2141	0.0622	0.2763	839.9493	0.1511	-401.84854	-401.842615	-401.841671	-401.878398	26.052	
C	 0.0283753413	 1.4897015126	 0.0213833264	-0.164315
C	 1.5719917249	 1.9322458136	 0.0259367058	-0.380521
C	 2.1330140177	 0.539741142	-0.056233616	 0.45445
O	 3.269445441	-0.2255567582	-0.590642342	-0.387324
C	 2.2313031339	-1.2371390845	-0.1946473558	 0.003164
C	 1.9401171155	-0.4796087875	 1.1143765597	-0.085867
C	 0.4354798743	-0.4883188621	 1.3691199999	-0.202588
N	-0.0670163675	-0.0152542183	 0.0388890673	-0.137312
C	 1.1166917972	-0.3375727703	-0.7920040201	-0.035061
H	-0.5339310181	 1.9025074096	 0.8614004741	 0.112193
H	-0.4395554287	 1.8409948123	-0.901712957	 0.11659
H	 1.8089627222	 2.5461204532	-0.8467827152	 0.120569
H	 1.852684485	 2.4803726707	 0.9285076381	 0.111481
H	 2.4899774983	-2.280228397	-0.3775416744	 0.093539
H	 2.6678251665	-0.5165721258	 1.923219002	 0.080799
H	 0.0370002951	-1.4840911008	 1.5906734784	 0.108371
H	 0.1210235311	 0.1888571561	 2.1681191613	 0.105288
H	 0.9952329104	-0.2480355857	-1.8698789126	 0.086543
222.9974	347.181	413.2271	438.5513	499.392	583.2915	679.6565	703.7677	730.3601	796.6495	800.9542	816.0609	842.9346	872.8858	907.7924	931.1853	962.9711	976.671	993.5247	1012.8368	1029.1397	1060.3621	1073.2942	1141.6345	1156.0007	1170.9365	1199.4552	1213.4197	1236.9939	1251.0313	1264.7376	1272.8099	1274.6043	1311.8382	1347.4652	1384.6434	1486.7806	1499.0635	1516.3588	3043.5798	3061.5625	3069.9555	3091.7996	3107.3294	3114.0171	3127.0632	3140.5958	3145.8103
C1CC23OC4C2CN1C34	C1C[C@@]23O[C@H]4[C@@H]2CN1[C@@H]34	
InChI=1S/C7H9NO/c1-2-8-3-4-5-6(8)7(1,4)9-5/h4-6H,1-3H2	InChI=1S/C7H9NO/c1-2-8-3-4-5-6(8)7(1,4)9-5/h4-6H,1-3H2/t4-,5-,6+,7+/m0/s1
