17
gdb 106058	2.73151	1.61373	1.30022	2.4295	66.62	-0.2429	0.063	0.3059	997.6914	0.136094	-458.884791	-458.87711	-458.876166	-458.917063	29.948	
O	 0.0626831649	 1.3257898656	 0.2660065476	-0.42131
C	 0.0232342532	-0.0620163772	-0.0374326381	-0.191565
C	-1.3896686728	-0.5574051892	-0.0548277366	 0.232361
C	-2.2012158438	-0.955293892	 1.1805871029	 0.044238
O	-3.5866329146	-0.6721528676	 0.9261881762	-0.30796
C	-3.3534008672	-1.2174445399	-0.408575615	 0.003593
C	-2.0447445878	-1.939349685	 0.071060429	-0.223599
C	-2.4654884665	-0.1191596638	-1.0504631313	 0.107012
O	-2.9171072998	 1.2088504061	-1.0048278013	-0.447091
H	-0.6274945704	 1.7501105596	-0.2587178682	 0.291692
H	 0.5051919076	-0.271369328	-1.0069283981	 0.090896
H	 0.6160818525	-0.5703490827	 0.7319282997	 0.1068
H	-1.833509407	-0.9270849273	 2.1973778752	 0.121946
H	-4.244670975	-1.634008305	-0.8717772999	 0.093703
H	-1.666963964	-2.9489957912	 0.0022905528	 0.111642
H	-2.1888043029	-0.3565233525	-2.0809453674	 0.096574
H	-3.3684584765	 1.2899886703	-0.1514904275	 0.291067
90.2665	124.381	219.0334	262.588	350.8938	382.0903	413.4448	562.3551	572.3315	622.9884	710.1636	768.1254	783.9557	836.0621	851.6792	889.7031	931.8854	950.1711	971.1671	975.3151	1028.731	1043.842	1067.3552	1111.9749	1129.0223	1157.6193	1189.2925	1204.0565	1243.1768	1278.6775	1295.7853	1319.1158	1368.5347	1411.5118	1436.0227	1452.5683	1513.2735	2965.0062	3053.8788	3092.2365	3153.871	3213.7639	3227.924	3733.663	3778.6599
OCC12C3OC(C13)C2O	OC[C@]12[C@H]3O[C@H]([C@@H]13)[C@H]2O	
InChI=1S/C6H8O3/c7-1-6-2-3(4(6)8)9-5(2)6/h2-5,7-8H,1H2	InChI=1S/C6H8O3/c7-1-6-2-3(4(6)8)9-5(2)6/h2-5,7-8H,1H2/t2-,3-,4-,5+,6+/m1/s1
