17
gdb 54463	3.35309	1.45776	1.17216	3.1569	72.84	-0.231	0.0177	0.2488	1048.4264	0.136513	-417.958239	-417.950439	-417.949495	-417.990439	30.708	
N	 0.1383360822	 0.8882272641	-0.8013283906	-0.545182
C	-0.0435968478	 0.0346188413	 0.239364651	 0.334398
O	 0.7415056684	-0.1095610389	 1.1618505697	-0.385682
C	-1.3166220104	-0.7355629431	 0.1533434644	 0.263383
C	-1.9223679046	-1.3963556353	 1.3621572703	-0.349492
C	-1.5020581662	-2.2486175239	 0.2084480212	-0.111637
C	-2.4087771735	-2.0902151449	-1.0247211781	-0.035669
C	-3.5238562329	-1.1310260764	-0.8747310972	-0.255325
N	-2.1635949395	-0.6065853733	-1.1045630916	-0.200454
H	 0.9921704491	 1.4168990849	-0.8538193021	 0.258637
H	-0.5193951596	 0.8864252334	-1.5645457779	 0.269668
H	-1.2140481983	-1.4013033433	 2.1839617754	 0.156876
H	-2.9564158361	-1.2618222833	 1.6571797085	 0.117111
H	-0.7233585592	-2.9954610887	 0.2790106125	 0.116883
H	-2.2948159567	-2.7110690661	-1.9071733868	 0.107048
H	-4.1591705309	-0.9892329141	-1.7445178987	 0.129248
H	-4.0292119241	-0.9666477825	 0.0692701902	 0.130189
84.5405	157.1628	202.0859	280.0465	338.1571	412.1219	440.353	467.6793	546.699	617.5291	654.5238	699.5363	736.5653	769.7812	824.004	836.8954	914.1767	929.4779	952.8228	992.5336	1017.1341	1056.1127	1057.8278	1080.1746	1096.5966	1113.603	1141.7158	1173.1197	1216.115	1252.566	1324.3137	1352.7986	1410.8404	1469.3478	1513.2082	1596.1643	1783.5698	3127.5723	3140.9156	3165.5342	3213.1861	3217.0627	3227.0564	3586.2873	3732.925
NC(=O)C12CC1C1CN21	NC(=O)[C@]12C[C@H]1[C@H]1CN21	
InChI=1S/C6H8N2O/c7-5(9)6-1-3(6)4-2-8(4)6/h3-4H,1-2H2,(H2,7,9)	InChI=1S/C6H8N2O/c7-5(9)6-1-3(6)4-2-8(4)6/h3-4H,1-2H2,(H2,7,9)/t3-,4+,6-,8?/m0/s1
