20
gdb 6413	4.72223	0.97602	0.84912	4.4538	68.1	-0.247	0.0526	0.2997	1360.1054	0.175157	-423.276529	-423.266819	-423.265875	-423.310991	35.622	
C	 0.0300845751	 1.5330283917	-0.0696685907	-0.401898
C	 0.0129846087	 0.0089639686	 0.0176886154	 0.113917
O	 0.6529486977	-0.5689838199	-1.1337078537	-0.434446
C	 0.7463516259	-0.5252172693	 1.2491258533	-0.205544
C	 0.7119039159	-2.0526695512	 1.3711126581	 0.108933
O	 1.5183534139	-2.6879176104	 0.3866383956	-0.461008
C	 1.2537302803	-2.5462836568	 2.7117696569	-0.048828
O	 1.2823739691	-3.9568318139	 2.7583433778	-0.431229
H	 1.059433212	 1.9024891272	-0.1065660197	 0.130336
H	-0.4897899288	 1.8788499331	-0.9704907885	 0.107276
H	-0.4713696182	 1.9793159375	 0.7949583691	 0.121743
H	-1.0317245835	-0.3394121703	 0.05937135	 0.0756
H	 0.1458335827	-0.3339624018	-1.9168973747	 0.2895
H	 1.7914042084	-0.1928420979	 1.2192255832	 0.111339
H	 0.2831616669	-0.0798788487	 2.1381310135	 0.100005
H	-0.3337943011	-2.3975273521	 1.2810774723	 0.060782
H	 1.3219579034	-2.2560380045	-0.4561495541	 0.293821
H	 2.2582462558	-2.1168052067	 2.8667153479	 0.081209
H	 0.6099038671	-2.2051692739	 3.5298693321	 0.095727
H	 1.6621256888	-4.2295367507	 1.9134553762	 0.292766
59.6506	94.1535	148.1438	175.9447	239.2286	284.8943	285.3336	310.3045	348.3375	450.7838	457.799	464.0581	498.1288	535.1091	581.6064	839.1324	869.8715	897.898	943.4986	1002.9818	1039.0467	1062.5744	1087.3966	1107.2475	1140.6928	1150.2212	1200.8984	1231.0035	1281.7587	1305.9862	1330.9738	1368.5563	1381.6678	1390.1606	1408.0464	1419.9203	1443.094	1457.9189	1466.7218	1491.1741	1498.2716	1501.7359	2939.7487	2963.9885	2971.9072	3027.6319	3032.1145	3066.519	3077.9411	3097.3451	3116.912	3734.8305	3779.9286	3824.1205
CC(O)CC(O)CO	C[C@@H](O)C[C@@H](O)CO	
InChI=1S/C5H12O3/c1-4(7)2-5(8)3-6/h4-8H,2-3H2,1H3	InChI=1S/C5H12O3/c1-4(7)2-5(8)3-6/h4-8H,2-3H2,1H3/t4-,5-/m1/s1
