15
gdb 50485	3.94005	0.93685	0.79252	3.3637	76.53	-0.2432	-0.0673	0.1759	1354.0216	0.112681	-416.826788	-416.818421	-416.817477	-416.861007	29.349	
O	-0.1008400126	 0.0278553802	 0.2310256716	-0.236335
C	 0.0626954826	 1.1603971828	-0.1315107539	 0.159133
C	 1.4170414575	 1.8904405574	-0.0892013538	-0.100423
N	 1.4860360266	 2.9275550445	-1.1215529304	-0.329073
C	 1.8810851093	 4.2175938206	-0.5364403835	-0.255733
C	 1.8006794394	 3.9504450298	 0.9524732525	 0.205245
C	 1.55710279	 2.6586433134	 1.1979638588	-0.179952
C	 1.9932122877	 4.9697829454	 1.9214080651	 0.211953
N	 2.158131843	 5.8240547792	 2.6859082902	-0.323582
H	-0.7564793453	 1.7983582287	-0.5301819146	 0.094233
H	 2.1946891971	 1.1146161149	-0.1653030077	 0.110406
H	 2.0701580295	 2.6594221668	-1.8998157699	 0.238818
H	 2.8961628589	 4.533993692	-0.8202437981	 0.12365
H	 1.1998383212	 5.0245613009	-0.8368761836	 0.134946
H	 1.4602218051	 2.1983404834	 2.1720211472	 0.146713
47.0214	83.406	122.4802	161.537	270.4458	305.0218	431.1945	467.9867	526.4289	563.2874	567.1126	605.3815	841.9386	884.5023	911.9078	926.6696	959.5468	1034.0928	1049.0798	1055.2292	1119.1575	1180.79	1205.5013	1248.288	1283.3418	1291.0812	1366.816	1387.3884	1445.0547	1522.0128	1678.3655	1837.4803	2342.5124	2900.2029	2985.759	2990.6778	3026.4281	3236.1695	3599.9101
O=CC1NCC(=C1)C#N	O=C[C@H]1NCC(=C1)C#N	
InChI=1S/C6H6N2O/c7-2-5-1-6(4-9)8-3-5/h1,4,6,8H,3H2	InChI=1S/C6H6N2O/c7-2-5-1-6(4-9)8-3-5/h1,4,6,8H,3H2/t6-/m0/s1
