20
gdb 95568	2.44954	1.59373	1.05129	3.5659	81.39	-0.2283	0.0055	0.2338	1167.6836	0.172524	-403.183672	-403.174928	-403.173984	-403.217416	32.708	
C	-0.078103099	 1.4943225344	-0.0029794752	-0.341111
N	 0.0586506724	 0.0443290268	 0.0731162246	-0.10061
C	-1.2433560357	-0.6291247149	 0.0358848264	-0.117394
C	-1.2979627135	-2.146374892	 0.233282031	-0.282695
C	-0.5471815778	-2.9034881201	-0.8311296824	-0.057101
C	 0.7773341137	-2.8120976842	-0.899966482	-0.060569
C	 1.5545852325	-1.9882682897	 0.0949663242	-0.359438
C	 1.3358062214	-0.4698870403	 0.0378041209	 0.401441
O	 2.314948259	 0.258995975	 0.0004587542	-0.374399
H	 0.9137303272	 1.9389886197	 0.0163546014	 0.170247
H	-0.5924131265	 1.7865907014	-0.9283198389	 0.116936
H	-0.6678985205	 1.8651044672	 0.8443546843	 0.116498
H	-1.8664029907	-0.1599777339	 0.810698929	 0.104324
H	-1.721134053	-0.3890557795	-0.9272178733	 0.106754
H	-0.9130302062	-2.4016648876	 1.2300411889	 0.116474
H	-2.3570815602	-2.4213037331	 0.2340400176	 0.107794
H	-1.1086989673	-3.4981033518	-1.5452894902	 0.094151
H	 1.3370915976	-3.3292091964	-1.6732996312	 0.101445
H	 1.3203957756	-2.319203961	 1.1169842922	 0.126732
H	 2.6290389113	-2.11058813	-0.0380184716	 0.13052
69.9427	84.4104	133.9247	233.6032	271.0236	310.3848	331.6008	387.9043	475.1588	525.1978	576.6375	599.9871	664.5355	715.9479	791.5343	886.2509	920.5594	953.5355	987.3893	989.5774	1032.4494	1058.8117	1085.9777	1131.2395	1158.1428	1201.9549	1221.0389	1246.2711	1251.4347	1293.4707	1316.3108	1360.2392	1367.3814	1410.6499	1426.3989	1462.0904	1468.4986	1490.6553	1499.0419	1503.3207	1542.4902	1722.4552	1742.4674	2975.6259	3003.8127	3008.0782	3011.1165	3022.3927	3057.2773	3081.0876	3133.1959	3164.2508	3182.984	3187.3672
CN1CCC=CCC1=O	CN1CCC=CCC1=O	
InChI=1S/C7H11NO/c1-8-6-4-2-3-5-7(8)9/h2-3H,4-6H2,1H3	InChI=1S/C7H11NO/c1-8-6-4-2-3-5-7(8)9/h2-3H,4-6H2,1H3
