16
gdb 50242	3.6241	1.36818	1.26343	5.267	69.63	-0.2417	0.0225	0.2642	1009.1909	0.124787	-437.833955	-437.826852	-437.825908	-437.866135	27.047	
O	 0.0168098032	 0.0625149757	-0.2571386596	-0.323444
C	 0.0657842412	 1.2623589786	-0.0920715551	 0.140355
N	 1.1989078443	 1.9577325788	 0.173193687	-0.017289
C	 2.5991950637	 1.5169478945	 0.0529497529	-0.190317
C	 3.0158915461	 3.0165611348	 0.000134516	-0.090977
C	 3.0326711887	 3.6846813456	-1.3985158036	 0.014708
O	 2.0610464308	 3.0286209283	-2.2142804949	-0.220942
C	 1.5999554145	 4.0322966566	-1.312748803	 0.014639
C	 1.5039635822	 3.3863922572	 0.1075022626	-0.073517
H	-0.8262848196	 1.9233760933	-0.1151079991	 0.064595
H	 2.9537060872	 0.9734322341	 0.9334686296	 0.120734
H	 2.7932026263	 0.9323832781	-0.8492344976	 0.139711
H	 3.7386159013	 3.3866462729	 0.7232546151	 0.095266
H	 3.8569187055	 4.1721434777	-1.9060271272	 0.11475
H	 1.0272074054	 4.8527431852	-1.7303367032	 0.116145
H	 1.0976317891	 4.0198241786	 0.8980206099	 0.095584
48.4798	178.343	220.166	306.1349	320.725	457.0265	505.8605	649.2312	745.3912	764.1865	821.2038	825.7285	841.6971	884.6759	900.5255	960.9643	981.7909	1014.6129	1032.3269	1034.3447	1060.7666	1119.553	1157.7372	1185.3384	1199.9574	1226.4766	1252.6852	1276.07	1286.7912	1319.9956	1376.5475	1387.756	1436.6878	1497.2433	1797.0651	2911.5601	3055.9872	3097.0728	3114.6723	3150.0619	3177.66	3193.8787
O=CN1CC2C3OC3C12	O=CN1C[C@H]2[C@H]3O[C@H]3[C@@H]12	
InChI=1S/C6H7NO2/c8-2-7-1-3-4(7)6-5(3)9-6/h2-6H,1H2	InChI=1S/C6H7NO2/c8-2-7-1-3-4(7)6-5(3)9-6/h2-6H,1H2/t3-,4+,5-,6+/m1/s1
