18
gdb 46039	2.9411	1.36376	1.15107	2.1344	72.26	-0.2677	0.0202	0.2879	1115.4062	0.148627	-439.085073	-439.077038	-439.076094	-439.118406	30.053	
N	 0.680296972	 0.9896426761	-0.0994599849	-0.537335
C	 0.3223841294	-0.2052302334	-0.271249164	 0.385406
C	-0.6614525575	-0.9805986426	 0.5769818411	-0.169255
O	-0.9157976583	-2.156521995	-0.1723179273	-0.258343
C	 0.1653555003	-2.3370864173	-1.0666438085	 0.177162
O	 0.7515126223	-1.0448250674	-1.2595962236	-0.238524
C	 1.1809436286	-3.3363176332	-0.562412706	-0.018132
C	 2.5848332997	-3.3441065237	-1.1077727167	-0.267809
C	 2.3342623979	-2.9319010194	 0.3211926872	-0.277339
H	 1.3663459573	 1.2724195152	-0.8005484966	 0.228247
H	-0.2268517237	-1.2027053985	 1.5611798902	 0.131694
H	-1.5939862206	-0.4303391996	 0.7210016307	 0.145527
H	-0.252137822	-2.6595310819	-2.0275655496	 0.104224
H	 0.7251752412	-4.3016009552	-0.362925441	 0.101481
H	 3.0525256217	-4.3027490685	-1.3007671215	 0.116734
H	 2.8515460529	-2.5595502862	-1.8068074453	 0.127238
H	 2.460059241	-1.8833385676	 0.5643386886	 0.130855
H	 2.6184892477	-3.6122172116	 1.1158086472	 0.118168
72.7821	86.8482	118.0735	220.8666	258.5706	403.3466	461.7775	520.4848	558.1442	673.2494	774.0669	787.9523	804.4874	844.465	876.8041	890.1494	936.0083	969.695	1000.7334	1030.5958	1033.7651	1059.4755	1067.0126	1091.9783	1116.3149	1136.1796	1179.0901	1201.1033	1206.8301	1229.2887	1289.1237	1347.5484	1371.2642	1392.2292	1411.5683	1463.1183	1503.4784	1504.9883	1796.7911	3016.5916	3046.2319	3104.7602	3140.4024	3144.3541	3158.2345	3221.7663	3235.3558	3481.9751
N=C1COC(O1)C1CC1	[NH][C]1CO[C@@H](O1)C1CC1	
InChI=1S/C6H9NO2/c7-5-3-8-6(9-5)4-1-2-4/h4,6-7H,1-3H2	InChI=1S/C6H9NO2/c7-5-3-8-6(9-5)4-1-2-4/h4,6-7H,1-3H2/t6-/m0/s1
