23
gdb 59939	2.60442	0.95857	0.87251	1.0602	88.2	-0.261	0.039	0.3	1494.1529	0.201304	-388.264868	-388.253505	-388.252561	-388.301104	42.512	
C	 0.3938686361	-0.00153542	 1.5159192927	-0.394222
C	-0.0449919588	 0.0646008345	 0.0444364007	 0.027494
C	 1.0580185879	-0.4967224042	-0.8654326144	-0.388876
C	-1.3978496892	-0.6579693271	-0.1145643443	-0.193398
C	-2.179877529	-0.4721327932	-1.444848599	 0.133987
C	-2.4376631166	 1.0033612986	-1.7814243921	-0.398215
O	-1.4621663079	-0.9935723411	-2.5714011468	-0.437715
C	-3.4637725297	-1.1858649431	-1.3156074301	 0.334508
C	-4.4905027917	-1.8017293465	-1.2033999108	-0.486805
H	 1.3461024843	 0.5182703622	 1.6638155791	 0.109954
H	-0.3469574203	 0.4563540524	 2.1798725296	 0.108367
H	 0.531510938	-1.0410742837	 1.8374420981	 0.111443
H	-0.1872989412	 1.1240206497	-0.2052603303	 0.076102
H	 1.2385071839	-1.5560733632	-0.6418113729	 0.10049
H	 0.7903594038	-0.4193472653	-1.9197928344	 0.136569
H	 2.0004453387	 0.0369618882	-0.7012452096	 0.103126
H	-1.2499029895	-1.7367258962	 0.0359263311	 0.089645
H	-2.0687067637	-0.3364468772	 0.6914697355	 0.104348
H	-1.4914790725	 1.5118916236	-1.9792203724	 0.129463
H	-3.0599110052	 1.0726834276	-2.6758707762	 0.132751
H	-2.9487207396	 1.5048191448	-0.9560014367	 0.121869
H	-1.3949941397	-1.9481800589	-2.4583146944	 0.281938
H	-5.4035212981	-2.3369910119	-1.1133949624	 0.197175
35.534	111.8602	123.8577	175.4529	220.2101	237.8071	245.4364	264.489	300.3238	321.824	341.738	361.7511	403.2444	427.7616	476.8591	566.5253	584.9312	630.1439	660.32	750.7437	821.8462	876.7457	915.0454	930.3059	947.8169	968.3988	981.2412	1037.9119	1102.4536	1146.7866	1187.1461	1188.6457	1197.0696	1272.2268	1325.0551	1358.8325	1371.1245	1389.839	1398.7097	1409.4177	1422.942	1470.1904	1480.6647	1489.8545	1493.4022	1497.8677	1504.4078	1516.5424	2227.2464	3008.6726	3018.949	3022.0285	3028.8743	3055.2246	3058.4211	3082.4164	3091.9557	3099.2852	3135.9968	3138.8317	3144.0474	3499.6748	3807.192
CC(C)CC(C)(O)C#C	CC(C)C[C@@](C)(O)C#C	
InChI=1S/C8H14O/c1-5-8(4,9)6-7(2)3/h1,7,9H,6H2,2-4H3	InChI=1S/C8H14O/c1-5-8(4,9)6-7(2)3/h1,7,9H,6H2,2-4H3/t8-/m0/s1
