22
gdb 58685	2.11874	1.29201	1.12619	3.3299	82.45	-0.2457	0.0301	0.2758	1258.6064	0.192803	-404.367393	-404.357271	-404.356327	-404.402464	37.818	
C	 0.6342583402	-0.2366738295	 1.3281499902	-0.389118
C	 0.0686346037	-0.0844031823	-0.0932040458	-0.021939
C	 1.0456601873	-0.6587739474	-1.1267888765	-0.414141
C	-1.3515315941	-0.6632887141	-0.1710043592	 0.370663
C	-1.9119393302	-1.2821871755	-1.4260757365	-0.288942
C	-1.6039920102	-2.1506134754	-0.2310077809	-0.327447
N	-2.3131098059	 0.0654526102	 0.6270064964	-0.330015
C	-2.8136743561	 1.281709184	 0.2736765283	 0.146951
O	-2.5669330763	 1.8695850888	-0.7571353655	-0.323652
H	 1.5991171213	 0.2718308286	 1.4193641664	 0.114046
H	-0.0378890445	 0.1942971677	 2.076341119	 0.103154
H	 0.7883283122	-1.2926294321	 1.5798231031	 0.110086
H	-0.0416733496	 0.9854318499	-0.3074982906	 0.10612
H	 1.1744046343	-1.7418009864	-1.0166835521	 0.112551
H	 0.7247023582	-0.4531548855	-2.1510355819	 0.125697
H	 2.031924118	-0.2027722945	-0.9952152689	 0.115706
H	-2.9498551408	-1.0730496142	-1.6523671638	 0.125454
H	-1.270117794	-1.361859156	-2.2935442687	 0.120005
H	-0.7455135145	-2.8104057353	-0.2830694382	 0.119179
H	-2.4360032558	-2.5456207822	 0.3423348274	 0.109404
H	-2.5340952911	-0.279992222	 1.5481738339	 0.245615
H	-3.4990971019	 1.6805605232	 1.050257334	 0.070622
59.7654	69.2219	154.0897	199.1681	222.016	242.4725	270.5775	288.5544	353.569	366.4991	416.7459	462.449	511.4543	553.6403	643.115	769.9813	807.3455	872.1775	914.1821	918.8653	936.3342	957.2971	976.8745	1010.9876	1032.2087	1056.2941	1083.9705	1118.2229	1137.9271	1172.0225	1187.2699	1194.3828	1271.9627	1329.4332	1348.4311	1375.0368	1400.0318	1420.4915	1431.509	1460.0897	1487.2185	1494.0552	1501.8448	1503.0778	1507.7886	1516.9846	1806.3367	2916.4129	3028.0623	3033.6096	3040.6245	3093.2068	3100.205	3105.4892	3116.3312	3135.1515	3161.7772	3218.4981	3249.6211	3617.7201
CC(C)C1(CC1)NC=O	CC(C)C1(CC1)NC=O	
InChI=1S/C7H13NO/c1-6(2)7(3-4-7)8-5-9/h5-6H,3-4H2,1-2H3,(H,8,9)	InChI=1S/C7H13NO/c1-6(2)7(3-4-7)8-5-9/h5-6H,3-4H2,1-2H3,(H,8,9)
