15
gdb 25539	3.8118	0.96818	0.81498	4.5742	69.63	-0.2024	-0.0379	0.1646	1330.7574	0.112691	-454.012463	-454.004014	-454.00307	-454.046971	30.054	
O	 0.247815199	-0.2101690947	-0.4590542662	-0.230346
C	 0.0962292172	 0.9625289434	-0.2425294136	 0.158035
C	 1.2382425455	 1.9491511001	-0.0164638617	-0.385181
C	 1.2713444643	 2.9725715615	-1.1006674639	 0.306634
C	 1.0106510154	 4.2983795456	-1.0808148155	-0.185807
N	 1.152272622	 4.7760915763	-2.3793712377	-0.332526
C	 1.5087619881	 3.7573437504	-3.2583851425	 0.445595
O	 1.7181231604	 3.8263969219	-4.4511194031	-0.424277
N	 1.5659295786	 2.64257074	-2.4270481535	-0.395085
H	-0.9141426573	 1.4290947664	-0.2227917867	 0.087411
H	 1.0719279163	 2.4587670251	 0.9397087303	 0.133905
H	 2.1729907165	 1.3812452041	 0.0462467996	 0.132774
H	 0.744160191	 4.9366213114	-0.2559026975	 0.141741
H	 1.0488892064	 5.7266674375	-2.6864618042	 0.27178
H	 1.8069925467	 1.7307271511	-2.7755325438	 0.275347
34.4142	68.376	129.4233	205.8922	274.4202	344.0793	409.4295	465.4419	494.1753	507.6551	622.4129	658.808	714.2527	759.7952	761.5295	844.2747	977.8786	999.9495	1011.0431	1053.5866	1095.4102	1179.3676	1200.4008	1250.4007	1298.4035	1362.5171	1396.4392	1414.2418	1428.3293	1454.1988	1681.8182	1834.6857	1851.5787	2886.1076	3036.4427	3092.3776	3283.2154	3684.2122	3698.7951
O=CCC1=CNC(=O)N1	O=CCc1c[nH]c(=O)[nH]1	
InChI=1S/C5H6N2O2/c8-2-1-4-3-6-5(9)7-4/h2-3H,1H2,(H2,6,7,9)	InChI=1S/C5H6N2O2/c8-2-1-4-3-6-5(9)7-4/h2-3H,1H2,(H2,6,7,9)
