22
gdb 89412	2.71521	1.41858	1.08964	3.0796	81.41	-0.2398	0.0649	0.3047	1199.7602	0.194982	-404.345798	-404.336831	-404.335887	-404.37905	35.46	
C	 0.0011745315	 1.6138410462	 0.003906896	-0.397623
C	 0.0372184513	 0.0894820284	 0.0283092711	 0.017855
C	 0.6750162731	-0.5752903779	-1.2204970217	-0.289577
C	 1.1680570488	-1.9408001603	-0.7305502836	 0.357991
C	 0.8864426936	-3.1802639463	-1.5398723273	-0.500154
N	 2.460364839	-1.8235895174	-0.0115382202	-0.385055
C	 1.1962429271	-1.914038927	 0.7569636692	-0.132648
C	 0.7853629328	-0.5197889603	 1.2534996518	 0.117903
O	 1.9074602417	 0.2334402627	 1.6680086052	-0.43764
H	 1.0150437318	 2.0223641585	 0.0050181255	 0.125984
H	-0.5216254093	 1.9815489385	-0.8854505556	 0.102662
H	-0.5136528802	 2.0121091638	 0.8845566972	 0.111527
H	-0.992061577	-0.291285376	 0.0941332344	 0.064746
H	-0.0491687941	-0.676538379	-2.034737216	 0.094876
H	 1.5164503524	 0.0130440856	-1.602509005	 0.107406
H	 1.403642768	-3.1475834951	-2.5058238266	 0.127744
H	 1.2132464224	-4.0832028863	-1.0124852351	 0.112498
H	-0.1853355754	-3.2799053068	-1.7427923491	 0.127206
H	 2.9354976789	-2.7230785698	 0.0041380201	 0.229416
H	 1.0167767308	-2.7979663354	 1.3606589419	 0.084277
H	 0.1157448792	-0.5828842611	 2.1176900621	 0.073058
H	 2.6360805535	-0.084602185	 1.1116845457	 0.287546
70.9953	173.8879	211.0344	218.2588	245.7418	274.9205	335.8488	385.1741	426.13	486.1063	532.8208	563.3778	581.4017	701.9269	744.9409	798.3699	849.4789	880.9644	917.7881	924.9434	967.3873	977.2684	1004.9829	1025.6615	1042.8594	1097.9637	1104.0543	1123.3821	1150.7319	1175.5382	1201.243	1267.977	1274.4975	1310.6181	1317.5955	1337.3601	1359.1818	1370.3128	1408.6008	1415.6683	1431.1721	1458.4655	1484.5768	1488.3735	1492.6097	1498.7039	1500.102	2997.6998	3023.4283	3035.0438	3042.853	3054.1046	3085.9028	3088.1295	3096.2686	3096.8174	3120.1328	3159.5057	3493.8917	3682.6404
CC1CC2(C)NC2C1O	C[C@H]1C[C@@]2(C)N[C@H]2[C@H]1O	
InChI=1S/C7H13NO/c1-4-3-7(2)6(8-7)5(4)9/h4-6,8-9H,3H2,1-2H3	InChI=1S/C7H13NO/c1-4-3-7(2)6(8-7)5(4)9/h4-6,8-9H,3H2,1-2H3/t4-,5-,6-,7+/m0/s1
