16
gdb 131516	3.11577	1.5714	1.15287	4.3071	70.26	-0.2456	-0.0077	0.2379	1028.1461	0.127396	-434.061502	-434.054193	-434.053249	-434.093478	27.824	
O	-0.452821363	 1.454515346	-0.3285910601	-0.419546
C	 0.045265882	 0.1553545438	-0.0103548486	-0.040568
C	-1.1790458835	-0.7945796005	 0.1811727563	-0.211437
C	-1.3996142575	-1.5964929961	-1.1456793873	-0.343003
C	-0.0598386062	-1.444857488	-1.7988953386	 0.30447
C	 0.7222956398	-0.5187203404	-1.1673456858	 0.33696
N	 1.8589701454	-0.4958820522	-1.8947898324	-0.341661
N	 1.7778993684	-1.3815090638	-2.9258494128	-0.121491
N	 0.6042788486	-1.9545656067	-2.8664149599	-0.290184
H	 0.2934352649	 2.0322546672	-0.5176533267	 0.281834
H	 0.6600236605	 0.2017571954	 0.8990723874	 0.078098
H	-0.955217518	-1.492293626	 0.9927804578	 0.114595
H	-2.0492541871	-0.2050308801	 0.4764184715	 0.12382
H	-1.6770435043	-2.6355131103	-0.9483643973	 0.122505
H	-2.1969995527	-1.1595366056	-1.7565918966	 0.129749
H	 2.7140575329	 0.0231228673	-1.7780306569	 0.275861
90.9349	146.4559	244.0501	252.0035	336.0734	437.8024	462.5839	557.0789	610.1193	706.7063	712.1205	728.407	793.0839	836.1081	907.5485	976.1398	989.5926	1016.4439	1034.1286	1075.5973	1143.9976	1176.1043	1204.4424	1230.9905	1246.9983	1283.8624	1318.2271	1333.2979	1370.4812	1392.6252	1396.7469	1472.9882	1497.8372	1515.1436	1605.7271	3002.124	3049.3927	3069.019	3091.7381	3125.7981	3661.2809	3818.4181
OC1CCC2=C1NN=N2	O[C@H]1CCc2c1[nH]nn2	
InChI=1S/C5H7N3O/c9-4-2-1-3-5(4)7-8-6-3/h4,9H,1-2H2,(H,6,7,8)	InChI=1S/C5H7N3O/c9-4-2-1-3-5(4)7-8-6-3/h4,9H,1-2H2,(H,6,7,8)/t4-/m0/s1
