22
gdb 5993	4.13069	1.00193	0.97778	2.2086	74.65	-0.2537	0.062	0.3157	1328.5921	0.197556	-387.347737	-387.337304	-387.33636	-387.382666	38.13	
C	 0.0899930003	 1.6159837748	-0.0238108314	-0.381665
C	 0.0086664203	 0.08683777	-0.017300387	-0.176749
C	 0.6134735494	-0.5246576388	 1.2523856595	-0.182711
C	 0.6937982381	-2.0589270682	 1.2575364132	 0.361921
C	-0.685561011	-2.7269802561	 1.1258930983	-0.425169
O	 1.5250827352	-2.4324840038	 0.1585067785	-0.477423
C	 1.3832279673	-2.5268035034	 2.5494088896	-0.112
O	 1.6207226129	-3.9275684403	 2.413952976	-0.436092
H	 1.1293730465	 1.9579592819	 0.0354313792	 0.11291
H	-0.3455070834	 2.0336535191	-0.9370482124	 0.109607
H	-0.4475825676	 2.0484086224	 0.8281193978	 0.108472
H	-1.0395939089	-0.2178933435	-0.1170548902	 0.093744
H	 0.5355542179	-0.3196858101	-0.886602689	 0.120272
H	 1.6336199736	-0.1388962813	 1.3758244704	 0.093076
H	 0.0421511355	-0.1961017683	 2.1310459287	 0.085123
H	-1.1142026739	-2.5212739062	 0.1430812873	 0.122266
H	-0.5896254844	-3.8099866064	 1.239706249	 0.124739
H	-1.378635597	-2.3643553502	 1.8930776954	 0.10347
H	 1.7959765927	-3.3420210233	 0.3372797206	 0.281712
H	 2.3304322815	-1.9824039134	 2.6646292885	 0.091995
H	 0.7495202171	-2.3165878108	 3.423825299	 0.088424
H	 2.2635823279	-4.1963809841	 3.0751498289	 0.294078
80.2133	86.2196	140.1204	148.8923	222.288	241.7913	249.6196	280.4933	315.2537	340.3635	369.6339	406.8641	451.7114	465.4775	630.0123	746.2936	774.906	863.3576	890.4524	926.1737	957.5763	968.9227	1044.3294	1053.4056	1073.254	1109.3909	1146.0115	1183.7631	1208.5727	1250.446	1258.2264	1299.0507	1320.3321	1349.4555	1382.4637	1396.4572	1411.2246	1419.3852	1443.8512	1471.2636	1492.6901	1494.7242	1499.8769	1503.1521	1509.1473	1511.685	2986.7008	3011.5795	3026.2215	3031.9096	3038.1115	3040.4276	3051.8401	3075.9539	3099.5865	3100.4837	3111.3312	3132.9219	3772.8696	3848.1393
CCCC(C)(O)CO	CCC[C@@](C)(O)CO	
InChI=1S/C6H14O2/c1-3-4-6(2,8)5-7/h7-8H,3-5H2,1-2H3	InChI=1S/C6H14O2/c1-3-4-6(2,8)5-7/h7-8H,3-5H2,1-2H3/t6-/m1/s1
