14
gdb 133121	2.63677	1.6123	1.00695	3.329	67.24	-0.2499	-0.036	0.2138	1090.2589	0.101773	-478.01192	-478.004544	-478.0036	-478.04412	26.953	
C	-0.0603379435	 1.3855454836	 0.0922983638	-0.253788
O	 0.0018688418	-0.0311952245	 0.0013270874	-0.254454
C	 0.6167782299	-0.5587849646	-1.0762448394	 0.182515
C	 1.2092324295	 0.1270000657	-2.1310119869	-0.095567
N	 1.7979822409	-0.5017208139	-3.1609222717	-0.25071
C	 1.7897001469	-1.8245207935	-3.127825578	 0.060145
N	 1.250797655	-2.5909997579	-2.1666457049	-0.299776
C	 0.684135587	-1.9611724296	-1.1757487801	 0.287979
F	 0.1426306032	-2.6847156609	-0.2102854824	-0.045005
H	 0.9427779793	 1.8276903128	 0.1304284602	 0.135154
H	-0.6136970668	 1.8159639333	-0.7513432356	 0.135152
H	-0.5881393058	 1.6028040847	 1.021075131	 0.149524
H	 1.2162934892	 1.2116634796	-2.1585290948	 0.121555
H	 2.2616876832	-2.3482714647	-3.9534529286	 0.127275
98.1789	160.1112	215.2549	247.8011	328.1266	343.4033	480.8087	521.0182	565.3445	610.1351	621.6553	785.9618	793.2414	895.0059	928.0629	977.0792	1054.2784	1172.5639	1176.8366	1215.322	1235.3146	1288.0598	1331.4286	1345.0083	1439.3243	1482.3779	1492.4773	1504.0061	1527.3534	1594.6867	1635.5361	3013.6657	3077.7082	3149.0899	3181.6073	3185.5312
COC1=CN=CN=C1F	COc1cncnc1F	
InChI=1S/C5H5FN2O/c1-9-4-2-7-3-8-5(4)6/h2-3H,1H3	InChI=1S/C5H5FN2O/c1-9-4-2-7-3-8-5(4)6/h2-3H,1H3
