17
gdb 24555	2.81368	1.77431	1.16771	1.8677	85.74	-0.2018	-0.0515	0.1502	1017.1494	0.138377	-380.824658	-380.817435	-380.81649	-380.855821	29.27	
N	-0.0731695202	 1.369847695	 0.3464439794	-0.288838
C	 0.9356767786	 2.3343184735	 0.0430345459	-0.029521
C	 0.8150644201	 3.2032436976	-0.9839612455	-0.106316
C	-0.2908527735	 2.9379342651	-1.9281124376	-0.158813
C	-0.3929708208	 1.6637145652	-2.3535268592	-0.089987
C	-1.6070233709	 0.853787603	-2.437376534	-0.04009
N	-1.7262472734	-0.2113666322	-1.7222132121	-0.205967
C	-0.6980506924	-0.6677895065	-0.8665506531	-0.034684
C	 0.0646642932	 0.0014201846	 0.0258882584	-0.057022
H	-0.9540470244	 1.6985259982	-0.0243710421	 0.251444
H	 1.7617705509	 2.3827574796	 0.7481685539	 0.112516
H	 1.4736029576	 4.0642710165	-1.0598038322	 0.099266
H	-1.1130667196	 3.6468642988	-2.0291728962	 0.104051
H	 0.4932161855	 1.050422887	-2.2037781389	 0.119915
H	-2.4677788494	 1.1579085794	-3.0354097855	 0.113925
H	-0.6065028062	-1.7516270596	-0.8725982402	 0.103686
H	 0.8044859848	-0.5455762552	 0.6042341193	 0.106437
211.9959	215.7251	245.7531	284.0094	348.0586	405.4928	438.0673	498.5021	580.4968	632.6842	730.4282	747.0826	780.0127	812.2096	820.893	859.7281	906.7351	938.6776	944.5092	958.5772	1017.3704	1068.5002	1082.359	1133.1456	1156.4095	1239.2412	1260.0719	1287.9269	1344.5768	1382.8547	1384.2171	1419.8826	1487.4135	1610.2646	1618.4072	1648.2484	1651.8785	3110.5925	3120.3204	3139.9594	3145.9276	3151.8307	3169.1395	3172.5209	3577.7489
N1C=CC=CC=NC=C1	N1C=C[CH][CH]C=NC=C1	
InChI=1S/C7H8N2/c1-2-4-8-6-7-9-5-3-1/h1-8H/b3-1-,4-2-,7-6-,9-5-	InChI=1S/C7H8N2/c1-2-4-8-6-7-9-5-3-1/h1-8H/b3-1?,4-2-,7-6-,9-5-
