21
gdb 107342	3.25745	1.30534	1.08896	1.2115	83.89	-0.2229	0.0206	0.2435	1187.7205	0.183473	-387.083174	-387.0747	-387.073756	-387.115925	33.322	
C	 0.1716122238	 1.2656031804	-0.2651975832	-0.249869
O	-0.2348627106	 0.0170082192	 0.2601282918	-0.289092
C	 0.621631722	-0.5122802342	 1.2360351923	 0.444771
C	 1.8850349561	-1.158250057	 0.7374804277	-0.352465
C	 0.7052543269	-2.0146184834	 1.2137876679	-0.135157
C	 0.7968113274	-2.7215105134	 2.514149347	-0.039291
C	 1.0652846878	-2.0864488891	 3.656552142	-0.084419
C	 1.2756983551	-0.5939886061	 3.7162158377	-0.276824
C	 0.5282883698	 0.1574979339	 2.5969814932	-0.273945
H	 1.1919032555	 1.22312139	-0.6727743369	 0.105301
H	-0.5229835612	 1.5096783227	-1.0727238592	 0.125259
H	 0.1304227638	 2.0686349321	 0.4838839128	 0.10825
H	 2.065093133	-1.122871495	-0.3312053885	 0.114493
H	 2.7760828176	-1.149866245	 1.3554335448	 0.115362
H	 0.1407576225	-2.5009163477	 0.4258550999	 0.093919
H	 0.6571198684	-3.7990437956	 2.504854829	 0.08582
H	 1.1588840975	-2.6461549526	 4.582836645	 0.085286
H	 0.9452241976	-0.2039391101	 4.6855046038	 0.104367
H	 2.3510362969	-0.3696585177	 3.6668896005	 0.111439
H	 0.8899382084	 1.1906727098	 2.548098138	 0.095283
H	-0.5389566684	 0.2051441289	 2.8459857943	 0.111511
103.0305	151.5005	187.7878	195.4059	278.8529	335.0104	385.6009	402.0265	447.7883	534.076	573.6628	664.9773	719.1708	748.9372	818.5059	881.0797	894.653	917.6893	949.8171	985.5473	993.5095	1010.2077	1051.1071	1057.7484	1079.4519	1092.9733	1123.987	1181.4428	1184.533	1205.9521	1209.1729	1241.796	1269.3892	1304.6228	1346.0381	1380.1602	1400.1761	1420.2813	1470.3664	1480.3581	1483.3196	1490.9259	1501.3741	1510.26	1710.8029	2989.8767	3001.1311	3026.8105	3041.2679	3055.6411	3068.589	3113.8773	3134.8421	3152.1229	3170.2321	3179.3756	3226.4054
COC12CC1C=CCC2	CO[C@]12C[C@H]1C=CCC2	
InChI=1S/C8H12O/c1-9-8-5-3-2-4-7(8)6-8/h2,4,7H,3,5-6H2,1H3	InChI=1S/C8H12O/c1-9-8-5-3-2-4-7(8)6-8/h2,4,7H,3,5-6H2,1H3/t7-,8-/m1/s1
