22
gdb 22774	2.35318	1.07128	0.83681	0.9438	86.61	-0.2385	0.0111	0.2496	1472.2148	0.192165	-404.307592	-404.297343	-404.296399	-404.343035	37.841	
C	-0.1189862668	 1.6852258313	 0.037944018	-0.384882
C	-0.0368731827	 0.165717322	 0.2165315743	-0.17716
C	-1.3764097221	-0.5302305781	-0.0174901664	 0.002742
C	-1.7884878669	-0.63822833	-1.5261950308	-0.335671
C	-1.4648873445	-2.1138746898	-1.4438142361	 0.411218
N	-1.2051687541	-3.0406550678	-2.266181922	-0.245225
O	-1.3526677842	-2.5935202391	-3.5961408286	-0.395678
C	-1.366234598	-2.1086934761	 0.0686700818	-0.080248
C	-0.2251756214	-2.8607832926	 0.7426290596	-0.407091
H	 0.8545658852	 2.1569697406	 0.2027620727	 0.113324
H	-0.4506729516	 1.9529447596	-0.9709511252	 0.119351
H	-0.8285674004	 2.1270833632	 0.7463753488	 0.114389
H	 0.7154831881	-0.2435860592	-0.4706323782	 0.100487
H	 0.3187091118	-0.0623265339	 1.2290520552	 0.097359
H	-2.1385470618	-0.0710364965	 0.6195281867	 0.064905
H	-2.8472254348	-0.4396133517	-1.7204552883	 0.119917
H	-1.1969014644	-0.0662523558	-2.2468328934	 0.12374
H	-1.1062854657	-3.3769019013	-4.099134712	 0.304271
H	-2.3206044648	-2.4447944751	 0.4951559795	 0.091221
H	 0.7478738931	-2.5578303552	 0.3469378001	 0.120982
H	-0.2248331679	-2.6894610338	 1.8242150498	 0.112488
H	-0.3304505861	-3.9360027306	 0.5709777945	 0.129559
44.641	115.253	152.2309	173.0676	186.5815	216.6484	233.6056	283.5171	330.0865	363.4292	411.3486	480.973	503.0109	577.2246	688.3071	771.6784	797.7001	810.4366	881.4176	925.7911	944.8642	969.5715	1013.411	1038.4303	1052.8337	1072.9328	1116.3188	1140.4671	1178.6093	1191.9347	1221.2394	1253.4369	1269.1594	1303.0029	1339.2215	1350.5597	1390.5993	1402.2948	1407.9167	1413.6991	1460.5509	1485.7419	1491.4342	1498.641	1499.3053	1507.8002	1781.9097	3013.9786	3017.0961	3031.7411	3039.3262	3044.8507	3052.4078	3062.05	3097.4335	3100.8376	3104.5596	3106.8023	3117.8095	3818.8319
CCC1CC(=NO)C1C	CC[C@H]1CC(=NO)[C@H]1C	
InChI=1S/C7H13NO/c1-3-6-4-7(8-9)5(6)2/h5-6,9H,3-4H2,1-2H3	InChI=1S/C7H13NO/c1-3-6-4-7(8-9)5(6)2/h5-6,9H,3-4H2,1-2H3/t5-,6-/m0/s1
