17
gdb 55254	2.80311	1.72045	1.41176	2.7158	66.96	-0.245	0.0194	0.2644	950.2952	0.139172	-455.188692	-455.181452	-455.180508	-455.219969	29.365	
O	 0.5314689741	 0.6319285083	 0.2862475546	-0.359774
C	-0.3312453161	 1.4375196021	 0.4917571529	 0.438861
O	-0.4307542133	 2.1734929432	 1.6315823233	-0.294047
C	-1.525743635	 1.833830912	-0.3763019577	-0.186686
C	-2.773586123	 1.2812668968	 0.3670175109	-0.180615
N	-2.8278767101	 2.1262907782	 1.5904188814	-0.294058
C	-1.6934759469	 3.0124154498	 1.4871427919	 0.406644
N	-1.7031482536	 4.0749429625	 2.4119490508	-0.585114
H	-1.8742167037	 3.7446849069	 3.3559911083	 0.240918
H	-0.8114416631	 4.558126789	 2.4055069892	 0.247113
C	-1.6355303327	 3.3262537799	-0.0109951845	-0.249111
H	-1.4302012867	 1.5396428656	-1.4184310641	 0.099831
H	-3.6764223763	 1.4255287146	-0.2366999174	 0.117646
H	-2.6856859684	 0.2163051261	 0.6007707792	 0.124077
H	-2.7704013968	 1.5676406478	 2.4345454886	 0.229005
H	-0.7590683269	 3.9166003902	-0.283533246	 0.118095
H	-2.5478296414	 3.8136880367	-0.3586367814	 0.127216
149.4282	228.8943	256.1182	306.5703	342.3618	445.9149	469.2416	509.8085	552.6305	649.3652	679.8501	757.0846	771.4964	795.9457	837.6395	862.1732	903.9219	907.2323	954.8599	980.7693	1038.6944	1048.2478	1072.0003	1105.8695	1180.0467	1212.6799	1237.8359	1272.8875	1279.9075	1335.9573	1353.6116	1398.6645	1461.6442	1496.2702	1526.188	1661.3101	1880.182	3037.3472	3083.0303	3086.6482	3143.6545	3157.7493	3516.5145	3542.4268	3598.6426
[O-]C(=O)C1CNC(=[NH2+])C1	O=C1O[C@@]2(NC[C@H]1C2)N	
InChI=1S/C5H8N2O2/c6-4-1-3(2-7-4)5(8)9/h3H,1-2H2,(H2,6,7)(H,8,9)	InChI=1S/C5H8N2O2/c6-5-1-3(2-7-5)4(8)9-5/h3,7H,1-2,6H2/t3-,5-/m1/s1
