22
gdb 109655	2.62539	1.02096	0.92858	3.4037	84.77	-0.2281	-0.018	0.2101	1411.9513	0.19062	-404.336707	-404.32579	-404.324846	-404.373038	38.734	
C	-1.5161914687	 0.2671353438	-3.4717054635	-0.380849
C	-0.8289044968	-0.3354543894	-2.2384460773	-0.210262
C	-1.8351560791	-0.8082870559	-1.205777403	-0.028349
N	-2.4521122221	-2.12316287	-1.1840671095	-0.134098
C	-2.1109424208	-3.141235469	-2.1673288641	-0.320445
C	-1.4891518404	-1.7981612517	-0.1101555382	 0.169729
C	-0.1207488248	-2.4328315144	 0.0158387858	-0.480383
C	-2.1927532321	-1.5694396777	 1.1930420846	 0.142889
O	-1.6769370765	-1.6593693919	 2.2792432621	-0.268627
H	-0.777540694	 0.6381596452	-4.1883674556	 0.117675
H	-2.1385356073	-0.4744028371	-3.9825470378	 0.124372
H	-2.1627029197	 1.1056412807	-3.1921447046	 0.122401
H	-0.1644619775	-1.1453587735	-2.5494987277	 0.104215
H	-0.1889371155	 0.4223706373	-1.7693045664	 0.111344
H	-2.5416194677	-0.0194430881	-0.9359378538	 0.08752
H	-1.0643557451	-3.1541449186	-2.4992034849	 0.10773
H	-2.3415481953	-4.1239735334	-1.7450260148	 0.13095
H	-2.7459755248	-2.998840755	-3.0475151936	 0.129871
H	 0.4764720723	-2.3603542665	-0.8928046745	 0.117785
H	 0.4204639547	-1.9414048354	 0.8279729763	 0.147682
H	-0.2095260436	-3.4907159145	 0.2846691026	 0.130161
H	-3.2641154755	-1.2961801849	 1.0673792378	 0.07869
59.5538	80.1579	93.5172	150.4128	162.7347	195.8097	219.539	265.5207	284.6967	308.757	312.1842	411.9251	486.2535	542.6332	590.6339	716.5034	741.5497	774.561	847.9066	928.3975	983.8078	1012.9364	1052.0722	1063.0183	1100.4473	1117.7943	1143.0723	1147.2979	1160.5944	1187.6406	1283.8237	1307.3165	1337.4703	1349.8481	1403.7296	1409.7328	1421.594	1431.7096	1457.0149	1474.841	1482.7459	1495.288	1499.1595	1499.4444	1503.7327	1509.3703	1819.0898	2891.3064	3007.4901	3034.2935	3036.8748	3051.7256	3065.6435	3075.5322	3088.905	3104.3964	3110.9415	3111.5089	3115.6102	3150.6169
CCC1N(C)C1(C)C=O	CC[C@H]1N(C)[C@]1(C)C=O	
InChI=1S/C7H13NO/c1-4-6-7(2,5-9)8(6)3/h5-6H,4H2,1-3H3	InChI=1S/C7H13NO/c1-4-6-7(2,5-9)8(6)3/h5-6H,4H2,1-3H3/t6-,7-,8?/m1/s1
