17
gdb 110745	2.59387	1.27096	1.07385	3.2431	68.85	-0.2566	-0.0081	0.2485	1187.8316	0.134137	-458.954183	-458.945448	-458.944504	-458.987905	32.193	
C	-0.2537335746	 1.4314449037	 0.1170808697	-0.37615
C	 0.193510073	-0.0160498965	-0.1168707663	-0.221619
C	 0.8315635644	-0.6213683084	 1.1170059403	-0.062954
C	 0.0865425079	-1.2874990418	 2.230491564	-0.008889
O	-1.0450560777	-2.023682547	 1.6839269736	-0.261218
C	-0.1884696123	-2.8808051156	 0.9954307781	 0.382591
O	-0.4689197431	-3.8829805102	 0.4249685839	-0.325637
C	 1.0551855122	-2.1079971642	 1.3814632346	 0.161997
O	 2.32018469	-2.6020017902	 1.5465108727	-0.43731
H	 0.5899405851	 2.0689598576	 0.4035361092	 0.115889
H	-0.69781708	 1.8536076192	-0.7889264039	 0.120412
H	-1.0008572023	 1.4873894002	 0.9153663092	 0.125449
H	-0.6657222247	-0.6221295693	-0.4189419324	 0.12664
H	 0.91523379	-0.0570877916	-0.9409600227	 0.112356
H	 1.6989040825	-0.0766413389	 1.493546432	 0.113149
H	 0.0552315565	-1.0470161915	 3.2834117949	 0.132457
H	 2.2703156031	-3.4316006656	 2.0363183131	 0.302834
67.7038	105.6157	168.9692	214.9217	264.4581	285.11	288.0323	352.2875	446.1479	525.2412	587.745	668.5561	747.1313	752.2877	793.0225	830.2806	895.5624	931.0197	938.9731	953.3205	1013.1904	1053.2144	1073.8492	1106.8578	1142.2981	1213.3638	1270.2989	1290.6864	1336.9488	1341.3573	1386.1744	1412.6337	1481.5878	1486.0065	1499.5185	1505.856	1938.6259	3034.5521	3042.5446	3082.3483	3105.0741	3112.2946	3116.2109	3228.1468	3789.1225
CCC1C2OC(=O)C12O	CC[C@H]1[C@H]2OC(=O)[C@@]12O	
InChI=1S/C6H8O3/c1-2-3-4-6(3,8)5(7)9-4/h3-4,8H,2H2,1H3	InChI=1S/C6H8O3/c1-2-3-4-6(3,8)5(7)9-4/h3-4,8H,2H2,1H3/t3-,4+,6+/m0/s1
