18
gdb 92190	2.69663	1.94757	1.74298	2.1383	68.7	-0.2285	0.0571	0.2856	868.2439	0.151543	-439.041003	-439.034662	-439.033718	-439.071328	27.322	
O	 0.0747910891	 1.3844955379	-0.1325994794	-0.441439
C	 0.0257915371	-0.0244210579	 0.0011378209	 0.139765
C	 0.7120563904	-0.5213167874	 1.3074385335	-0.272662
C	-0.3768677738	-0.6020562854	 2.3671470964	 0.081409
O	-1.1961220068	 0.6154111968	 2.2514145706	-0.321545
C	-2.0904093223	-0.116923428	 1.3974982371	 0.108079
C	-1.5895858095	-1.4869870343	 1.8615431999	-0.045983
N	-1.5198391845	-1.9526613568	 0.4731616727	-0.318391
C	-1.4311590812	-0.5295422044	 0.0234905346	-0.07023
H	-0.3054272422	 1.7313280087	 0.6861898269	 0.287324
H	 0.5431278858	-0.4257568387	-0.8769344964	 0.081428
H	 1.1867000183	-1.5001540446	 1.1733867416	 0.099747
H	 1.4956429744	 0.1877380814	 1.5893080937	 0.119195
H	-0.0262821397	-0.7449417058	 3.391538048	 0.081926
H	-3.1149538858	 0.2521512896	 1.405513179	 0.094052
H	-2.0683283185	-2.1394882765	 2.5926685085	 0.08378
H	-0.7256137156	-2.5395920922	 0.2256371417	 0.2136
H	-1.9659813251	-0.3000923524	-0.9006785992	 0.079945
188.6478	289.3857	386.7523	430.9334	448.9213	468.8936	578.4504	619.975	699.9116	734.4314	773.9339	804.0031	824.9128	857.538	873.7928	944.0326	950.486	996.5066	1000.583	1031.8691	1044.9294	1054.4102	1078.5689	1106.2984	1115.393	1175.7955	1205.8349	1226.5638	1237.6066	1272.2622	1290.4452	1314.5605	1317.3312	1346.0101	1352.4413	1359.9067	1370.2441	1451.1411	1476.3883	3038.9274	3053.7209	3084.5741	3086.4908	3097.6911	3104.1924	3130.0279	3473.5427	3750.2233
OC1CC2OC3C2NC13	O[C@H]1C[C@H]2O[C@@H]3[C@H]2N[C@H]13	
InChI=1S/C6H9NO2/c8-2-1-3-5-6(9-3)4(2)7-5/h2-8H,1H2	InChI=1S/C6H9NO2/c8-2-1-3-5-6(9-3)4(2)7-5/h2-8H,1H2/t2-,3+,4+,5-,6-/m0/s1
