15
gdb 34128	3.65611	1.47922	1.40178	4.035	69.89	-0.2557	-0.0053	0.2504	933.4226	0.115043	-416.759457	-416.753101	-416.752157	-416.790173	25.762	
N	-0.0114339195	-1.1168752623	 0.100617092	-0.335549
C	-0.0313438141	 0.0390323802	 0.0731403805	 0.166943
C	-0.0071918398	 1.4760566744	-0.0054693354	 0.304078
C	-0.8648885295	 2.237676107	-1.0362024728	-0.256711
C	-0.0928920734	 3.5591613189	-0.817817126	-0.074434
N	 1.2953967986	 3.2573591316	-1.2610692064	-0.296173
C	 1.3645044472	 2.3629043963	-0.1238721286	-0.097208
C	 0.4160448687	 3.2622374845	 0.6762890185	 0.11078
O	-0.3402156868	 2.1825532614	 1.2224109081	-0.310805
H	-0.7819780115	 1.8714832278	-2.0625066661	 0.11611
H	-1.9093800449	 2.2507731795	-0.7206652808	 0.132669
H	-0.5375312725	 4.499310714	-1.1370194778	 0.092708
H	 1.3784772032	 2.8334545937	-2.1840079397	 0.224363
H	 2.3018025611	 1.9198300985	 0.2053983701	 0.111161
H	 0.6754873532	 4.0642082443	 1.3607963944	 0.112069
149.8038	160.553	397.8663	459.92	490.5324	540.8894	564.876	574.5451	701.1631	717.6464	786.2577	837.6485	855.1775	881.9402	931.6155	961.643	976.6616	1010.696	1027.5481	1045.1159	1072.9543	1096.9436	1146.718	1170.6519	1202.847	1215.1254	1267.2809	1274.2512	1306.2132	1336.7431	1348.9104	1474.1209	2353.7535	3074.9142	3138.6481	3146.4934	3151.7211	3178.589	3468.9322
N#CC12CC3NC1C3O2	N#C[C@]12C[C@@H]3N[C@H]1[C@@H]3O2	
InChI=1S/C6H6N2O/c7-2-6-1-3-4(9-6)5(6)8-3/h3-5,8H,1H2	InChI=1S/C6H6N2O/c7-2-6-1-3-4(9-6)5(6)8-3/h3-5,8H,1H2/t3-,4+,5-,6+/m0/s1
