17
gdb 17558	3.24119	2.1375	1.63655	1.4887	68.47	-0.2284	0.0772	0.3055	840.3348	0.141679	-363.795739	-363.788381	-363.787437	-363.826998	28.421	
C	-0.0545406609	 1.5387787748	-0.0138662771	-0.515621
C	 0.0911157719	 0.0513155812	 0.0012646054	 0.24084
N	-0.8076409498	-0.857623121	 0.7685585706	-0.372687
C	 0.6604576791	-0.9106610408	 0.9932542574	-0.106781
C	 1.2242917091	-1.8165623664	-0.1123399436	-0.316912
C	 0.619935957	-0.8224133687	-1.1292893152	 0.445832
C	 0.1706708967	-0.9692393101	-2.5093194852	-0.265193
O	 1.393101943	-0.2770235287	-2.1822008939	-0.281848
H	 0.814008719	 2.0009813285	-0.4923548935	 0.143568
H	-0.9465650217	 1.8456204497	-0.57270628	 0.12868
H	-0.1422809585	 1.9365110627	 1.0027595136	 0.118226
H	-1.2044431071	-0.2971818221	 1.5243054387	 0.224611
H	 1.0814746507	-0.7229419872	 1.9732782812	 0.095892
H	 2.3155438314	-1.805132109	-0.1688670875	 0.118522
H	 0.8513125113	-2.8432211617	-0.1252464052	 0.111459
H	 0.3028401231	-1.9198651701	-3.0236366857	 0.116997
H	-0.6321146841	-0.340991821	-2.8924000699	 0.114414
123.7661	194.007	214.96	228.5563	336.8782	409.1595	441.8857	491.4849	589.2642	647.5065	755.4647	840.5175	852.5458	870.8836	905.2922	924.1685	957.4701	1017.4291	1029.2712	1067.4988	1101.6279	1116.5413	1124.2051	1146.3009	1161.4633	1180.4121	1229.7923	1303.2803	1330.159	1400.4372	1428.5763	1448.9493	1474.8209	1482.9709	1501.0207	1541.4449	3027.3294	3066.002	3084.5211	3088.1978	3110.349	3127.2655	3171.1774	3191.2997	3453.535
CC12NC1CC21CO1	C[C@]12N[C@H]1C[C@]12CO1	
InChI=1S/C6H9NO/c1-5-4(7-5)2-6(5)3-8-6/h4,7H,2-3H2,1H3	InChI=1S/C6H9NO/c1-5-4(7-5)2-6(5)3-8-6/h4,7H,2-3H2,1H3/t4-,5-,6+/m0/s1
