14
gdb 46236	2.75414	1.38751	1.10485	4.6305	68.73	-0.2713	-0.0546	0.2166	1078.8968	0.099396	-436.672576	-436.664637	-436.663693	-436.70558	28.692	
O	-0.069616564	 0.0220823822	-0.2199236897	-0.266163
C	-0.0592629191	 1.1973600859	-0.034427127	 0.285898
C	-1.0704594073	 2.2912250252	 0.3521806131	-0.190491
O	 0.0106687906	 3.2633717967	 0.3437879752	-0.308896
C	 0.9736497794	 2.2988885816	-0.04802736	 0.334884
C	 2.404302865	 2.3170509751	 0.3605697898	-0.347531
C	 2.0433389914	 2.6086245432	-1.0908636569	-0.26197
C	 2.3465424968	 1.6696914815	-2.1319376732	 0.306512
N	 2.5965087531	 0.9191715604	-2.975836567	-0.325925
H	-1.8355930521	 2.5087969291	-0.4005060011	 0.149903
H	-1.5281639032	 2.1852922283	 1.3409561296	 0.148091
H	 2.7384444621	 3.1609186157	 0.9532483199	 0.154403
H	 2.8688212643	 1.3627314497	 0.5825938975	 0.164526
H	 2.0725985929	 3.6525004855	-1.3875245502	 0.156758
87.2181	97.8172	151.0401	233.6869	243.8798	367.2035	453.0161	485.1096	540.5034	572.9255	658.9676	720.0487	792.3932	863.8945	867.1612	942.4338	991.2945	1010.8755	1019.4758	1068.2441	1079.4088	1111.0985	1137.1205	1200.6943	1296.2302	1319.1187	1388.5026	1457.3754	1483.7905	1930.8337	2356.2939	3044.913	3102.5603	3142.7869	3169.7386	3242.0245
O=C1COC11CC1C#N	O=C1CO[C@]21C[C@H]2C#N	
InChI=1S/C6H5NO2/c7-2-4-1-6(4)5(8)3-9-6/h4H,1,3H2	InChI=1S/C6H5NO2/c7-2-4-1-6(4)5(8)3-9-6/h4H,1,3H2/t4-,6+/m0/s1
