14
gdb 25333	3.87393	1.1729	0.90031	3.5452	75.72	-0.2314	-0.0885	0.1429	1184.9805	0.102825	-436.758594	-436.751371	-436.750426	-436.7905	27.166	
O	 0.0516827982	-0.0584826827	-0.0015573196	-0.284309
C	 0.0156160356	 1.1516090583	 0.0085132791	 0.117488
C	 1.2381567733	 1.9797854743	 0.0016947527	 0.317615
C	 1.2284916014	 3.3388843886	 0.0133648794	-0.338351
C	 2.4739343631	 4.1209986029	 0.0061711072	 0.401695
O	 2.4898760973	 5.3465072261	 0.0159441282	-0.38928
C	 3.6765280201	 3.2840719831	-0.014820846	-0.255928
C	 3.6098245074	 1.9291606656	-0.0256020338	 0.034487
N	 2.4121675153	 1.2779960866	-0.0175762458	-0.379085
H	-0.9355246991	 1.7175713957	 0.0246378596	 0.110107
H	 0.285215147	 3.8741427846	 0.0285203782	 0.123922
H	 4.6387742998	 3.780652897	-0.0215952543	 0.120571
H	 4.4878704003	 1.2941086194	-0.0410407772	 0.143198
H	 2.3356851305	 0.2700853006	-0.0250855175	 0.277871
110.7082	167.2116	203.2964	275.2923	394.7439	429.2694	474.9156	521.6408	582.0196	623.5289	676.535	736.4782	804.1701	846.9965	899.1795	902.3383	972.2037	1011.7012	1028.7999	1095.8889	1173.297	1233.4505	1239.6221	1364.167	1402.8204	1431.3916	1543.0336	1622.9704	1666.0861	1733.1206	1786.3204	2957.0547	3199.3213	3200.5033	3222.0714	3602.6525
O=CC1=CC(=O)C=CN1	O=Cc1cc(=O)cc[nH]1	
InChI=1S/C6H5NO2/c8-4-5-3-6(9)1-2-7-5/h1-4H,(H,7,9)	InChI=1S/C6H5NO2/c8-4-5-3-6(9)1-2-7-5/h1-4H,(H,7,9)
