17
gdb 52481	5.7647	0.55016	0.52296	2.1049	99.33	-0.2314	-0.0168	0.2146	2116.8442	0.132506	-384.631032	-384.620862	-384.619917	-384.668862	34.918	
C	-0.0078030072	 1.4660946469	-0.0030968172	-0.518205
C	 0.0102583824	 0.0148836816	 0.0092862316	 0.228722
C	 0.0238014923	-1.1955399793	 0.019584486	-0.20796
C	 0.0392707815	-2.554233696	 0.0296113483	-0.140397
C	 0.0428548214	-3.7656100625	 0.0481681379	 0.312706
C	 0.0969285345	-5.2061382527	 0.0333857157	 0.135745
C	 1.1990557055	-5.8181030779	-0.807460378	-0.467733
C	-0.4725197335	-5.9547533875	 1.1761114074	-0.207596
O	-1.1813237427	-5.871905166	-0.0542217064	-0.252259
H	 1.0006768501	 1.8747331449	 0.127126707	 0.157765
H	-0.4029880471	 1.8495804791	-0.950560253	 0.15844
H	-0.6342906943	 1.8612986634	 0.8044816339	 0.158162
H	 2.1804831108	-5.4909049407	-0.4516852456	 0.13376
H	 1.1451474545	-6.9083650621	-0.7576004476	 0.129352
H	 1.0949638719	-5.5096116677	-1.8515275913	 0.140201
H	-0.0574190392	-6.93288165	 1.4187164643	 0.116102
H	-0.9091675711	-5.4077594035	 2.0095237168	 0.123197
8.4109	61.186	71.0966	156.3833	178.7435	206.9707	307.6454	323.2249	334.0719	367.9266	479.945	511.2605	531.1111	568.2686	582.0198	753.831	818.0764	913.4102	930.0616	1030.0733	1047.3618	1048.0408	1095.9539	1137.2818	1165.8421	1184.4997	1318.9202	1374.8398	1409.1712	1413.6656	1470.9168	1471.7648	1477.8665	1494.0311	1519.5706	2276.0111	2380.337	3024.0075	3045.0413	3079.8029	3086.4647	3086.8043	3118.0092	3129.6349	3173.7261
CC#CC#CC1(C)CO1	CC#CC#C[C@@]1(C)CO1	
InChI=1S/C8H8O/c1-3-4-5-6-8(2)7-9-8/h7H2,1-2H3	InChI=1S/C8H8O/c1-3-4-5-6-8(2)7-9-8/h7H2,1-2H3/t8-/m0/s1
