13
gdb 42674	2.74659	1.67591	1.20411	4.2191	67.37	-0.2565	-0.0264	0.2301	969.9282	0.089944	-415.53035	-415.523642	-415.522697	-415.561726	25.647	
O	 0.0115802	-0.0854254473	 0.0671663536	-0.30622
C	-0.0151412336	 1.1029752285	 0.0221902818	 0.464408
C	-1.0278756234	 2.2464886814	 0.0167296825	-0.264566
C	-0.0352632685	 3.1097309896	 0.8951546808	-0.031346
N	 0.0129830741	 4.2925078246	-0.0224993633	-0.366594
C	-0.0607872377	 3.0920904131	-0.9163596215	 0.293321
C	-0.0871091768	 3.1578624823	-2.3541830633	 0.1733
N	-0.1249707179	 3.2140284786	-3.5080866507	-0.330037
C	 0.9505244477	 2.2852279755	-0.0111667474	-0.237484
H	-2.114999477	 2.2819060342	 0.0150416619	 0.11892
H	-0.0115226745	 3.1795888276	 1.9797745356	 0.125151
H	-0.885673918	 4.7829008998	-0.0218948453	 0.22915
H	 2.0323721657	 2.3743651321	-0.0422952145	 0.131999
102.3098	179.8142	216.0869	372.2916	503.6054	505.8852	536.4673	579.1116	650.5351	680.9909	789.8677	794.5259	832.6894	860.2843	945.7297	970.7463	999.0985	1058.0234	1085.5488	1102.1185	1116.829	1129.6327	1179.277	1222.2958	1273.9868	1292.3404	1306.8156	1935.2341	2356.7761	3153.0635	3161.0207	3180.4269	3407.2913
O=C1C2C3NC2(C#N)C13	O=C1[C@H]2[C@@H]3N[C@@]2(C#N)[C@H]13	
InChI=1S/C6H4N2O/c7-1-6-2-4(8-6)3(6)5(2)9/h2-4,8H	InChI=1S/C6H4N2O/c7-1-6-2-4(8-6)3(6)5(2)9/h2-4,8H/t2-,3+,4+,6-
