16
gdb 47452	2.92826	1.42242	1.09564	3.8774	64.41	-0.2542	-0.0048	0.2493	1089.6377	0.125542	-475.022967	-475.015232	-475.014288	-475.056019	27.959	
O	-0.174898387	 0.0956552475	 0.3950446722	-0.325767
C	-0.0712168307	 1.2607290729	 0.1641385374	 0.432502
O	-1.1282154159	 2.0966048111	-0.0347043893	-0.216122
C	-0.6325200354	 3.3812460719	-0.3940114393	 0.023167
O	 0.7160456137	 3.4391236742	 0.0084032713	-0.260331
C	 1.2003654596	 2.1038082521	 0.0310283003	-0.081006
C	 2.1716306934	 1.8862791462	 1.1723929161	-0.001163
C	 3.1320684528	 2.9493422861	 1.5438416165	-0.246605
N	 2.0015053727	 2.6121687143	 2.4326246101	-0.312814
H	-0.7323966393	 3.505930906	-1.4824153909	 0.119187
H	-1.2020009141	 4.1489507241	 0.1352095332	 0.140708
H	 1.6844167859	 1.8421285049	-0.9246376479	 0.120813
H	 2.446352522	 0.840010043	 1.2804536788	 0.121796
H	 4.113304088	 2.6831557342	 1.9252976944	 0.125079
H	 3.0874601944	 3.8837758436	 0.991976298	 0.125287
H	 1.2757562398	 3.3152474879	 2.3065110292	 0.235271
82.0359	92.669	161.3241	188.9791	254.2986	343.2262	510.7373	578.2363	591.3758	718.4436	750.0221	812.3891	852.3542	890.8149	952.724	987.7216	992.2982	1030.4982	1074.4523	1100.009	1134.3568	1145.9477	1147.3983	1185.884	1222.62	1228.417	1270.0765	1296.22	1310.6046	1345.8016	1412.46	1443.1771	1507.5979	1545.2738	1905.5673	2973.4414	2999.0859	3104.5334	3116.8881	3148.6198	3205.4966	3492.3338
O=C1OCOC1C1CN1	O=C1OCO[C@H]1[C@H]1CN1	
InChI=1S/C5H7NO3/c7-5-4(3-1-6-3)8-2-9-5/h3-4,6H,1-2H2	InChI=1S/C5H7NO3/c7-5-4(3-1-6-3)8-2-9-5/h3-4,6H,1-2H2/t3-,4+/m1/s1
