13
gdb 33281	3.38123	0.83811	0.7053	5.8999	85.66	-0.266	-0.0529	0.2131	1503.41	0.087893	-378.386071	-378.377511	-378.376567	-378.419869	30.707	
C	 0.0221217882	-1.1685129997	-0.0130894493	-0.442958
C	-0.0129797923	 0.0323031766	 0.0161908665	 0.263774
C	-0.0349588804	 1.4730856781	 0.0359505446	-0.06038
C	 0.5348295737	 2.1737996502	 1.248457891	-0.249988
N	 1.2637081992	 2.2127276353	-0.0084142303	-0.32212
C	-1.1117087854	 2.0922680407	-0.6921201425	 0.103124
C	-2.0310969203	 2.6037915707	-1.285029685	 0.079679
C	-3.0671114673	 3.1856903246	-1.9561626758	 0.199511
N	-3.9504939596	 3.6808733696	-2.52552432	-0.33309
H	 0.0441600196	-2.2304937246	-0.0393976045	 0.21382
H	 0.0874289403	 3.115451587	 1.5505096966	 0.14944
H	 0.8783550984	 1.5316295675	 2.0539602618	 0.143478
H	 2.015501136	 1.5263331039	-0.009026143	 0.25571
68.4212	99.3941	165.05	215.0009	238.0141	254.8653	423.6105	463.1711	515.8505	559.5087	564.9385	592.4816	602.443	620.2282	684.4433	798.7119	841.5532	934.6233	981.4265	1029.3343	1128.9426	1141.2951	1241.919	1303.8774	1360.3732	1498.425	2241.6977	2268.7887	2400.0491	3120.8821	3218.8016	3498.429	3504.0665
C#CC1(CN1)C#CC#N	C#C[C@]1(CN1)C#CC#N	
InChI=1S/C7H4N2/c1-2-7(6-9-7)4-3-5-8/h1,9H,6H2	InChI=1S/C7H4N2/c1-2-7(6-9-7)4-3-5-8/h1,9H,6H2/t7-/m1/s1
