22
gdb 6173	3.18291	1.31794	1.17761	1.3312	78.75	-0.2455	0.0765	0.3219	1164.3905	0.197567	-350.201922	-350.192088	-350.191144	-350.235806	37.147	
C	-1.5663511208	 0.8377254475	-0.6853516234	-0.381287
C	-1.2591192493	-0.5211382825	-1.3328271382	 0.009972
C	-2.0321242664	-0.693396363	-2.6490746447	-0.386217
C	 0.2350073138	-0.6804193309	-1.5528607737	 0.001225
C	 1.1760568386	-1.07740719	-0.4272777978	-0.371121
C	 0.9534219492	-1.9982859875	-1.6069762348	 0.388734
C	 0.2559769068	-3.3277934532	-1.4248361859	-0.452108
O	 1.9656222417	-2.0280261294	-2.5864890083	-0.468788
H	-1.0270321159	 0.9580755862	 0.2593240948	 0.113434
H	-1.2680729308	 1.6601227349	-1.3463932996	 0.111492
H	-2.6371550036	 0.9461435452	-0.4831117091	 0.105963
H	-1.5934039316	-1.3022704321	-0.6371175778	 0.065641
H	-1.7287186267	 0.0661732571	-3.3792069599	 0.11383
H	-1.8467475086	-1.6744482216	-3.0965868787	 0.116719
H	-3.1110145747	-0.5896617993	-2.491389409	 0.106462
H	 0.6542330348	 0.0471688101	-2.2452275789	 0.089494
H	 2.1323614485	-0.5704938667	-0.3598816016	 0.107491
H	 0.7367899361	-1.3539393658	 0.5272364175	 0.102609
H	 0.9674882907	-4.0858394933	-1.0731010218	 0.104862
H	-0.5494568573	-3.2722004788	-0.6884476838	 0.119533
H	-0.1625404855	-3.6779750953	-2.3738852236	 0.125726
H	 2.666411581	-2.6066517716	-2.2647011417	 0.276334
72.2783	133.8664	168.7392	225.3949	226.4781	249.8249	292.6141	309.2105	336.2375	364.5022	418.0988	427.1132	467.2866	524.3659	717.5843	779.0926	877.8412	909.4039	924.5623	930.0636	948.283	969.2856	983.0339	1043.7484	1055.806	1080.9289	1115.5158	1142.1518	1185.0445	1214.6532	1242.2863	1290.3335	1318.2468	1343.1254	1370.585	1398.9106	1411.2266	1418.8441	1428.4655	1480.7383	1485.1391	1488.4326	1491.3327	1501.9234	1506.9286	1515.1903	3013.7568	3023.5122	3024.9136	3029.4873	3084.9933	3088.7498	3095.0662	3103.5999	3106.6115	3117.891	3121.45	3129.856	3211.6157	3785.6572
CC(C)C1CC1(C)O	CC(C)[C@H]1C[C@]1(C)O	
InChI=1S/C7H14O/c1-5(2)6-4-7(6,3)8/h5-6,8H,4H2,1-3H3	InChI=1S/C7H14O/c1-5(2)6-4-7(6,3)8/h5-6,8H,4H2,1-3H3/t6-,7+/m1/s1
