18
gdb 63618	2.84079	1.18307	1.00134	2.6229	75.31	-0.2464	-0.0773	0.1691	1242.9918	0.144253	-439.096788	-439.087052	-439.086108	-439.131568	34.568	
C	-0.20136956	 1.5725554462	-0.0480222829	-0.445389
C	 0.2203308192	 0.1173094348	-0.0302210437	 0.293849
C	-0.8185381078	-0.8572842419	 0.4874137679	-0.444194
C	 1.2257147473	-0.3673466267	-1.0492194343	-0.273568
N	 1.6101366178	-0.1217479595	 0.3231379981	-0.088844
C	 2.1369568132	-0.9666524107	 1.2564349247	 0.277657
O	 1.7405710435	-1.0919197029	 2.3991871573	-0.342241
C	 3.3911670126	-1.7357420668	 0.8204130145	 0.096223
O	 3.8039895722	-1.8046054558	-0.3063666561	-0.231767
H	 0.6125063287	 2.2118580685	-0.3980186192	 0.129152
H	-1.0643426645	 1.711007446	-0.7076262028	 0.123874
H	-0.4871168718	 1.9016494806	 0.9563353189	 0.134835
H	-1.7481241013	-0.7483860407	-0.0802708831	 0.122874
H	-0.4799010796	-1.8926516912	 0.397297988	 0.123223
H	-1.0336627645	-0.6672531919	 1.5426709863	 0.148666
H	 1.1696868957	-1.4008956382	-1.3790489588	 0.135067
H	 1.629373177	 0.3247120997	-1.7834865016	 0.129146
H	 3.8622525923	-2.2584806196	 1.6786486768	 0.111437
68.8505	124.6617	129.4517	138.0112	190.7282	207.2278	238.7375	351.6219	367.6384	398.1071	429.6298	487.5756	597.3317	659.3213	663.4546	772.6394	911.0509	929.653	964.962	998.9512	1026.168	1028.1174	1113.2275	1117.4569	1143.3729	1156.159	1288.4337	1306.298	1370.1431	1410.314	1420.1042	1448.2034	1474.7269	1485.0593	1493.2774	1504.4841	1519.8762	1763.0058	1827.8689	2932.4695	3037.7276	3043.8126	3104.6946	3111.7724	3114.0321	3122.421	3126.2525	3200.72
CC1(C)CN1C(=O)C=O	CC1(C)CN1C(=O)C=O	
InChI=1S/C6H9NO2/c1-6(2)4-7(6)5(9)3-8/h3H,4H2,1-2H3	InChI=1S/C6H9NO2/c1-6(2)4-7(6)5(9)3-8/h3H,4H2,1-2H3
