16
gdb 43916	4.32493	1.1843	1.07528	3.6208	74.25	-0.2521	-0.0447	0.2073	1117.5846	0.125297	-437.879552	-437.8722	-437.871256	-437.911823	27.883	
N	-0.0456289651	 1.3145044451	 0.0098186948	-0.518832
C	 0.0849906875	 0.0556133238	 0.0006755693	 0.359951
O	-1.0303555405	-0.7442088991	 0.0007703678	-0.24765
C	-0.6551519058	-2.1117752419	-0.0103480109	 0.29953
C	-1.3811606452	-3.0145220278	 1.0219136273	-0.121819
O	-1.8213410441	-3.9091916048	-0.0167339042	-0.267837
C	-1.3914177455	-3.0005141533	-1.0474871159	-0.121819
C	 0.8397903267	-2.0977127497	-0.0176560281	-0.13999
C	 1.2626771979	-0.8342668654	-0.0112119668	-0.200117
H	 0.8701811991	 1.7597821251	 0.008262287	 0.224455
H	-0.7613045087	-3.5175421934	 1.7716071773	 0.111209
H	-2.211398448	-2.4909524415	 1.5110675347	 0.123747
H	-2.226428814	-2.470426254	-1.5212539062	 0.123748
H	-0.7790589035	-3.4932985152	-1.8100300232	 0.111209
H	 1.4326259581	-3.0030330348	-0.0267263486	 0.137166
H	 2.2798754511	-0.4685545731	-0.0137931241	 0.127049
81.7703	106.4719	200.4792	322.1321	327.4776	433.328	496.3474	499.1135	703.3834	710.0508	794.8431	822.965	855.9364	856.4125	910.6439	951.2489	961.4297	965.7035	998.5849	1035.4747	1050.2446	1060.0328	1089.9092	1150.1163	1159.8013	1208.3059	1239.7002	1296.0161	1349.4141	1366.653	1374.4835	1498.48	1526.3197	1655.1756	1749.1306	3020.2945	3030.8835	3081.6677	3082.2554	3219.5655	3245.7394	3510.8913
N=C1OC2(COC2)C=C1	[NH]C1=C[CH]C2(O1)COC2	
InChI=1S/C6H7NO2/c7-5-1-2-6(9-5)3-8-4-6/h1-2,7H,3-4H2	InChI=1S/C6H7NO2/c7-5-1-2-6(9-5)3-8-4-6/h1-2,7H,3-4H2
