21
gdb 120386	3.3081	0.90032	0.77217	2.6207	80.4	-0.2466	0.0167	0.2633	1508.6066	0.182298	-424.226859	-424.217363	-424.216418	-424.261629	35.382	
O	-0.0464124767	 1.4862667492	-0.175698976	-0.420011
C	 0.0335842924	 0.0715273205	-0.087912147	-0.082628
C	-1.3876143879	-0.4694437909	 0.0089893969	-0.170855
C	-1.4424873802	-1.9987368843	 0.1137145142	-0.064752
C	-1.0115372933	-2.5996031126	 1.4397246216	-0.071732
C	-1.7582958267	-3.6527640658	 1.7743832853	-0.089021
C	-2.8136575087	-3.9353296157	 0.7292413901	-0.281253
C	-2.868902009	-2.6054976418	-0.0627846174	 0.10306
O	-3.8868205904	-1.7506730036	 0.437822609	-0.426833
H	 0.8475183532	 1.835140793	-0.2363376069	 0.284433
H	 0.5322229524	-0.3553793569	-0.9743405068	 0.0827
H	 0.6225422775	-0.2361471678	 0.7917201271	 0.082491
H	-1.8814993805	-0.0064690569	 0.8693582787	 0.098972
H	-1.943044479	-0.1403716994	-0.8760673293	 0.112437
H	-0.8032522498	-2.4157301759	-0.6822734889	 0.078475
H	-0.1738666888	-2.2209909844	 2.0154458852	 0.093162
H	-1.6212516964	-4.2647835464	 2.6590495753	 0.093135
H	-2.5122455536	-4.7741274842	 0.0857934314	 0.107612
H	-3.7992448793	-4.1848168551	 1.1362881755	 0.108443
H	-3.119685297	-2.7511285073	-1.1166723337	 0.081922
H	-3.7208491883	-1.6270632637	 1.3797837056	 0.280241
78.7779	84.5921	106.7768	143.7266	265.0498	272.3678	295.2888	334.0404	377.4513	421.5031	458.4821	576.2293	717.5104	764.08	778.4714	817.0573	844.9412	871.0443	948.4295	954.9262	972.6942	996.7448	1025.3886	1072.7363	1084.6638	1100.576	1114.3541	1149.3022	1176.2613	1214.672	1219.5273	1243.4447	1267.7718	1301.9297	1308.7116	1315.2622	1330.1246	1366.8619	1387.012	1433.7769	1462.3198	1475.2032	1486.5837	1526.2345	1671.0974	2954.837	2963.5929	2980.16	3010.0333	3048.0519	3070.5212	3083.0502	3090.5328	3179.4569	3204.928	3790.2379	3830.2638
OCCC1C=CCC1O	OCC[C@H]1C=CC[C@H]1O	
InChI=1S/C7H12O2/c8-5-4-6-2-1-3-7(6)9/h1-2,6-9H,3-5H2	InChI=1S/C7H12O2/c8-5-4-6-2-1-3-7(6)9/h1-2,6-9H,3-5H2/t6-,7-/m1/s1
