18
gdb 16375	2.601	2.09075	1.4093	1.0617	67.64	-0.2549	0.0645	0.3193	923.6897	0.153225	-384.908136	-384.900101	-384.899157	-384.94023	31.048	
O	 0.5623726847	 0.8071240985	-0.808345689	-0.4296
C	 0.1717741441	-0.2724880017	 0.0035229901	 0.085929
C	 0.142004345	-0.0989828705	 1.5508868777	-0.312586
C	-1.1983958794	-0.8911381187	 1.5846703106	 0.085929
O	-2.2394009066	-0.4579144943	 2.4248406596	-0.4296
C	-1.3113811254	-0.6738569152	 0.0665012356	 0.270848
C	-2.4249372602	 0.0891860374	-0.599913781	-0.333881
C	-2.1689627655	-1.3597251586	-0.9450061579	-0.334996
H	 0.0272847752	 1.5687897289	-0.559932925	 0.275467
H	 0.8090830637	-1.108170831	-0.3012646918	 0.094063
H	 0.9846547364	-0.4769918632	 2.1331974907	 0.107447
H	-0.0261174686	 0.9519931421	 1.8164097359	 0.087234
H	-1.0435936511	-1.9446791267	 1.8366854065	 0.094063
H	-2.3975530552	 0.4739417813	 2.2383086298	 0.275467
H	-3.3072358814	 0.3199090822	-0.0109306798	 0.113908
H	-2.157348718	 0.8391028609	-1.337888142	 0.113908
H	-1.7341245981	-1.5792780445	-1.915200963	 0.1182
H	-2.8820411697	-2.0975805567	-0.5905289471	 0.1182
84.476	207.5543	218.9806	220.5102	289.5641	326.1283	364.5153	459.4408	507.3749	541.6067	554.2539	698.9764	784.8472	815.0621	864.7832	883.371	938.3841	986.1386	1031.8043	1035.3081	1050.7179	1066.7917	1083.295	1092.9781	1160.0554	1186.1781	1194.8443	1221.4043	1267.7876	1277.6131	1311.181	1312.0198	1374.4775	1426.2861	1446.4214	1453.3287	1474.1992	1497.3913	3036.1113	3064.4522	3068.2568	3115.4089	3119.8052	3122.2037	3199.724	3213.8242	3803.503	3804.475
OC1CC(O)C11CC1	O[C@H]1C[C@@H](O)C21CC2	
InChI=1S/C6H10O2/c7-4-3-5(8)6(4)1-2-6/h4-5,7-8H,1-3H2	InChI=1S/C6H10O2/c7-4-3-5(8)6(4)1-2-6/h4-5,7-8H,1-3H2/t4-,5+
