16
gdb 42753	2.86661	1.34193	1.13741	1.907	75.07	-0.2467	0.0018	0.2485	1102.3497	0.123266	-400.659713	-400.651555	-400.65061	-400.692926	30.579	
O	-0.0405485961	-0.0449621957	-0.0417415353	-0.32215
C	-0.0324139075	 1.1396741113	 0.0776325585	 0.415239
C	-0.9665249657	 2.3711214427	 0.0802824863	-0.152311
C	-0.0100350258	 3.0023425399	 1.1262993281	-0.254253
C	 0.9321692287	 2.3586761062	 0.0686918536	 0.198444
C	 2.4331877998	 2.4565146532	-0.0602914705	-0.481315
C	 2.9224319947	 1.8576077955	-1.2976816013	 0.292839
C	 3.2960974078	 1.3700974852	-2.3300042457	-0.44017
N	-0.0220458855	 2.9471187313	-0.9738018736	-0.329984
H	-2.0466026959	 2.4650412906	-0.0021572178	 0.106192
H	-0.0052378961	 4.0934856547	 1.0962505546	 0.119009
H	-0.0066837083	 2.5906198855	 2.1363133764	 0.1142
H	 2.7289598626	 3.5121010651	-0.0140148024	 0.14755
H	 2.8912810064	 1.9618706639	 0.8055738735	 0.147336
H	 3.6393167809	 0.9309051658	-3.2339069049	 0.203086
H	-0.0198809599	 2.3781751348	-1.8258915196	 0.236287
56.2451	98.4834	195.3687	207.8146	302.6982	333.5853	437.3801	487.8375	533.2881	627.4959	653.235	670.1045	700.9693	800.5223	805.0441	844.9257	880.5166	949.1174	964.25	974.8333	1002.1754	1040.1045	1098.0712	1138.9632	1178.171	1201.9373	1238.6925	1250.0538	1278.4764	1309.6037	1367.4098	1455.4153	1483.5867	1907.1453	2243.7215	3024.9073	3060.0236	3077.2988	3156.7444	3158.2168	3407.5703	3505.4063
O=C1C2CC1(CC#C)N2	O=C1[C@H]2C[C@]1(CC#C)N2	
InChI=1S/C7H7NO/c1-2-3-7-4-5(8-7)6(7)9/h1,5,8H,3-4H2	InChI=1S/C7H7NO/c1-2-3-7-4-5(8-7)6(7)9/h1,5,8H,3-4H2/t5-,7+/m1/s1
