25
gdb 59983	2.54885	0.91838	0.78863	1.9647	85.9	-0.2438	0.0716	0.3154	1610.0103	0.224446	-426.6344	-426.622416	-426.621472	-426.67196	43.531	
C	 0.4288464976	 0.5015760375	-0.9481473432	-0.386626
C	 0.1622167183	-0.2876383709	 0.3369323742	 0.154294
C	 0.5439231142	 0.5015716476	 1.5849250097	-0.387917
O	-1.2222523271	-0.6082796139	 0.4653878845	-0.277529
C	-1.677584952	-1.7592971696	-0.2353374078	 0.121251
C	-1.369582672	-3.0429729762	 0.5366912327	-0.398586
C	-3.1928290722	-1.5732455368	-0.453536392	 0.122842
C	-3.5273520357	-0.2931582518	-1.2136705354	-0.410692
O	-3.748569927	-2.7211177708	-1.0908659536	-0.430219
H	 1.4959702076	 0.7255997272	-1.0487801601	 0.112131
H	 0.1223127928	-0.0596879124	-1.8359315033	 0.112829
H	-0.1233420319	 1.4467758203	-0.9335689504	 0.120809
H	 0.7519072542	-1.2165529358	 0.312206786	 0.068206
H	-0.0566491241	 1.4145476343	 1.6515385747	 0.121595
H	 0.3613138611	-0.092726839	 2.4839444474	 0.119849
H	 1.6006488543	 0.784308189	 1.5589391966	 0.110401
H	-1.2034972544	-1.8082867577	-1.2316968242	 0.049751
H	-0.2920896589	-3.2000614427	 0.6414872056	 0.1083
H	-1.8065273245	-2.9868228432	 1.5390063185	 0.119381
H	-1.7976478328	-3.9041815862	 0.0192950422	 0.127888
H	-3.6675011603	-1.5422777825	 0.5348461844	 0.094222
H	-3.065936455	-0.3033109818	-2.2105228623	 0.097277
H	-4.609637796	-0.2026497298	-1.3401263931	 0.118926
H	-3.1518407285	 0.58176678	-0.680252257	 0.135421
H	-3.4800571775	-2.6974114848	-2.016126924	 0.276196
41.2122	57.178	83.0091	166.1641	211.0857	212.7585	223.5743	237.1363	260.7208	280.1647	315.4352	338.7975	377.3136	418.9871	442.096	452.5262	505.8893	556.3928	818.4565	827.3557	888.1545	923.3351	925.0631	942.3066	981.4142	994.7747	1068.5447	1095.3756	1120.6435	1136.1452	1143.1972	1165.0244	1189.1206	1203.3978	1277.3641	1329.3118	1348.7484	1365.6239	1384.2601	1390.6623	1394.7737	1399.7979	1408.5607	1414.6805	1417.745	1480.6567	1483.1188	1487.7812	1490.3437	1493.0081	1494.742	1498.3855	1508.9624	2944.506	2989.3083	3018.7403	3034.3185	3041.4639	3041.9471	3045.2762	3099.548	3104.6433	3108.9614	3110.2254	3115.1159	3122.2488	3134.6117	3141.893	3796.3156
CC(C)OC(C)C(C)O	CC(C)O[C@@H](C)[C@@H](C)O	
InChI=1S/C7H16O2/c1-5(2)9-7(4)6(3)8/h5-8H,1-4H3	InChI=1S/C7H16O2/c1-5(2)9-7(4)6(3)8/h5-8H,1-4H3/t6-,7+/m1/s1
