14
gdb 8744	3.86292	1.36921	1.18949	0.9869	62.01	-0.2711	-0.0055	0.2656	986.0863	0.107621	-374.90461	-374.896047	-374.895102	-374.937708	30.214	
N	-0.0369192371	 1.5023420553	 0.1669929273	-0.500561
C	-0.0017373716	 0.0586971315	 0.0078603153	-0.135335
C	-1.3600872098	-0.4893380137	 0.1313578439	 0.29034
N	-2.4229928016	-0.9411547567	 0.157442495	-0.308207
C	 0.6000246329	-0.4800335118	-1.3556790185	-0.135334
N	-0.1173499628	-0.1098458404	-2.5635721066	-0.500561
C	 1.9891458012	-0.0061650165	-1.4362935531	 0.290337
N	 3.0663184955	 0.4112647933	-1.4424962736	-0.308205
H	 0.9048018325	 1.8804342254	 0.1271748963	 0.260626
H	-0.5905291273	 1.9406482206	-0.5621176919	 0.239504
H	 0.6053314222	-0.3560294014	 0.8219679401	 0.153633
H	 0.6194201331	-1.5752288735	-1.2967468756	 0.153633
H	-1.0648020249	-0.4741235408	-2.5317292765	 0.260626
H	-0.1638902823	 0.8983811285	-2.670859212	 0.239504
68.8535	126.1067	172.2	224.7936	228.8922	294.5461	297.5405	370.2405	406.8502	519.6877	572.6929	583.2113	684.3318	780.3539	842.3623	857.6191	884.7194	961.2825	1113.6207	1121.7277	1197.5239	1199.558	1296.7354	1303.453	1410.6627	1412.7173	1650.7978	1658.8148	2361.3238	2363.903	3043.7578	3049.9947	3498.7685	3498.8769	3590.0403	3591.5982
NC(C#N)C(N)C#N	N[C@@H](C#N)[C@@H](N)C#N	
InChI=1S/C4H6N4/c5-1-3(7)4(8)2-6/h3-4H,7-8H2	InChI=1S/C4H6N4/c5-1-3(7)4(8)2-6/h3-4H,7-8H2/t3-,4-/m0/s1
