16
gdb 72786	2.68517	1.83448	1.30595	3.1414	71.95	-0.2185	-0.0197	0.1987	963.5902	0.125245	-437.889016	-437.881483	-437.880539	-437.920714	29.616	
O	-0.1286745991	 1.4971891825	 0.2000051641	-0.481466
C	 0.0412768262	 0.1244041583	-0.037228284	 0.286716
C	-1.3347705037	-0.6319405892	-0.2338512133	-0.270254
C	-1.1185874601	-0.6188542538	-1.7915129677	-0.291607
C	 0.3349326521	-0.3883734572	-1.4371860693	 0.058347
C	 1.3938689667	-1.2094886199	-1.3635191286	-0.092432
N	 1.9948906263	-1.1275198351	-0.0891200678	-0.317844
C	 1.2388503822	-0.3722294256	 0.7846885619	 0.33836
O	 1.5503307346	-0.0104933795	 1.8999526006	-0.386306
H	 0.2201484636	 1.6525530192	 1.089862055	 0.293758
H	-1.3400485669	-1.6436440171	 0.1750582449	 0.117596
H	-2.1785225437	-0.0527660311	 0.1469312657	 0.121422
H	-1.3678609625	-1.5267068939	-2.3437698948	 0.107034
H	-1.6060764797	 0.2409008129	-2.2576907181	 0.125587
H	 1.7038556486	-1.9959739308	-2.0394838278	 0.126381
H	 2.9289998055	-1.4285758898	 0.1406287693	 0.264708
111.3928	209.7525	228.5465	308.3037	325.198	366.2909	414.026	519.4128	562.6303	601.029	652.2939	716.1349	737.3223	783.2932	817.0944	835.6349	888.3575	932.0737	977.6401	1036.6959	1075.6878	1095.1986	1116.3687	1166.5266	1205.5758	1227.9858	1243.6929	1255.7877	1345.362	1390.3915	1412.543	1452.6144	1492.6635	1665.7576	1816.7504	3066.8005	3070.782	3120.9602	3145.4033	3214.8709	3640.0547	3731.2431
OC12CCC1=CNC2=O	O[C@@]12CC[C]1[CH]NC2=O	
InChI=1S/C6H7NO2/c8-5-6(9)2-1-4(6)3-7-5/h3,9H,1-2H2,(H,7,8)	InChI=1S/C6H7NO2/c8-5-6(9)2-1-4(6)3-7-5/h3,9H,1-2H2,(H,7,8)/t6-/m0/s1
