18
gdb 71140	3.01936	1.64505	1.33574	2.7931	75.46	-0.2438	-0.0213	0.2225	993.879	0.148417	-401.946029	-401.938674	-401.93773	-401.977495	29.651	
C	 0.0185264304	 1.5042242309	 0.0192873809	-0.471458
C	 0.0014446438	-0.0047379139	-0.0307940409	 0.323608
C	-1.3256535443	-0.7306619844	 0.343804453	-0.299214
C	-0.4837299305	-1.5509057248	 1.3029975832	-0.025543
C	 0.7995653176	-2.0474582123	 0.7078218875	-0.152311
N	 0.7030041196	-0.6493974576	 1.1991403125	-0.1734
C	 0.9395275961	-2.0772263885	-0.7826410231	 0.411036
O	 1.2738950934	-3.0179286979	-1.4563122086	-0.323421
C	 0.6418366253	-0.6520046521	-1.2558505524	-0.371761
H	 1.0416309597	 1.8813478296	-0.079360532	 0.127322
H	-0.5831241289	 1.9246406644	-0.7938781736	 0.12085
H	-0.38540728	 1.8657301727	 0.9693989575	 0.126271
H	-2.0057978365	-0.0693735299	 0.8856490199	 0.115945
H	-1.8793481394	-1.2444946988	-0.4478285341	 0.109145
H	-0.8120389494	-1.9526542748	 2.2569972152	 0.104756
H	 1.3936775943	-2.7324103323	 1.3020887771	 0.115248
H	 0.0190231731	-0.6430993875	-2.1540783131	 0.129382
H	 1.5969416756	-0.1673822228	-1.4973993189	 0.133545
117.4387	212.8694	260.6286	283.592	354.5355	387.8747	469.1629	528.3767	601.7202	633.9643	659.8483	756.2489	799.2012	817.7555	826.4332	878.0101	934.7043	957.9196	986.0429	1000.8711	1028.2757	1061.3391	1084.5359	1134.1737	1149.3026	1170.4631	1194.7303	1222.1367	1257.1964	1277.3149	1331.9238	1335.5404	1363.0392	1414.2809	1448.5109	1483.6337	1489.7564	1498.7936	1842.9645	3031.9624	3034.7804	3052.1873	3102.7023	3105.4158	3108.6419	3113.0353	3155.3868	3188.2043
CC12CC3C(N13)C(=O)C2	C[C@]12C[C@H]3[C@H](N13)C(=O)C2	
InChI=1S/C7H9NO/c1-7-2-4-6(8(4)7)5(9)3-7/h4,6H,2-3H2,1H3	InChI=1S/C7H9NO/c1-7-2-4-6(8(4)7)5(9)3-7/h4,6H,2-3H2,1H3/t4-,6-,7+,8?/m0/s1
