19
gdb 67162	2.7376	1.50419	1.45909	3.1285	78.68	-0.2316	-0.0081	0.2234	1021.7225	0.16042	-385.898805	-385.891215	-385.890271	-385.930618	30.391	
C	 0.0137715811	 1.5375977738	-0.0921715801	-0.516306
C	 0.0024683804	 0.0424993447	 0.0023746082	 0.341678
C	 0.4811404968	-1.0462485036	-0.948339372	-0.114424
C	 1.227886699	-1.7510460163	 0.1806976392	-0.243907
C	 0.4711897484	-0.8285582091	 1.2091433691	-0.207824
C	-0.7614857069	-1.5882209336	 1.6758187367	 0.419583
O	-1.0077413456	-1.965467469	 2.7914486622	-0.327805
C	-1.642642867	-1.7981062701	 0.4264997177	-0.354076
C	-1.0000450776	-0.9037535062	-0.6176161729	-0.096373
H	 1.0125058734	 1.9486894126	 0.09420034	 0.121444
H	-0.2983985614	 1.8632931672	-1.0901398605	 0.121962
H	-0.671823013	 1.9910815953	 0.6336658363	 0.124708
H	 0.826700179	-0.9481191448	-1.9714658885	 0.083971
H	 1.1141304191	-2.8352802154	 0.293910246	 0.102844
H	 2.2926390859	-1.5081171499	 0.172408579	 0.11498
H	 1.0610001411	-0.3913386434	 2.0118815557	 0.085073
H	-1.6766023729	-2.8621798153	 0.1669318056	 0.128171
H	-2.668937029	-1.4921111412	 0.6549596879	 0.128875
H	-1.6098382309	-0.5177162255	-1.4272849894	 0.087426
104.8017	197.4367	213.6845	268.8065	296.2573	426.9804	455.5756	529.1812	569.2106	631.4173	707.1587	712.0141	771.6053	817.604	877.7054	882.6317	934.726	950.3039	959.889	995.0752	1037.9162	1043.0344	1078.8728	1089.5364	1127.5963	1160.772	1174.5097	1175.7636	1216.2273	1227.311	1265.0241	1283.6237	1297.5305	1323.512	1414.986	1455.5795	1457.8965	1484.5787	1497.7547	1502.2409	1846.8433	3020.8286	3035.4489	3046.5955	3079.5209	3085.4905	3094.177	3105.166	3142.8913	3166.1726	3176.636
CC12C3CC1C(=O)CC23	C[C@@]12[C@H]3C[C@@H]1C(=O)C[C@@H]23	
InChI=1S/C8H10O/c1-8-4-2-6(8)7(9)3-5(4)8/h4-6H,2-3H2,1H3	InChI=1S/C8H10O/c1-8-4-2-6(8)7(9)3-5(4)8/h4-6H,2-3H2,1H3/t4-,5+,6+,8-/m0/s1
