18
gdb 73766	2.18829	1.92185	1.10915	4.6429	80.09	-0.2432	-0.0407	0.2025	1103.5454	0.147055	-401.977147	-401.968431	-401.967487	-402.010788	31.932	
C	 0.1446059926	 1.5181044342	 0.1145850945	-0.503506
C	 0.0544228506	 0.0320291948	 0.0022563581	 0.198847
C	-0.0594519284	-0.7385214179	-1.0976106179	 0.105687
C	-0.067812529	-0.3775202435	-2.5468258136	-0.495712
C	-0.0814278626	-2.1679680618	-0.6808126061	 0.319741
O	-0.0567062442	-3.1399722724	-1.3912783324	-0.325534
N	-0.1081476164	-2.2262665593	 0.7679715532	-0.13203
C	 1.1757557656	-1.8236969989	 1.3755596949	-0.242916
C	 0.057435244	-0.843722546	 1.2129047365	-0.125381
H	 1.0616747437	 1.8153870941	 0.6376354862	 0.14036
H	 0.1301512338	 2.0076191337	-0.8612295016	 0.136355
H	-0.6921975384	 1.9129405547	 0.7041858455	 0.141335
H	 0.166523435	 0.676002553	-2.7165456058	 0.120033
H	 0.6555965022	-0.992795885	-3.0917298193	 0.148062
H	-1.0468570262	-0.5870132816	-2.9927762212	 0.143938
H	 1.3791076667	-2.2594608455	 2.3498447396	 0.132378
H	 2.035899317	-1.7223122041	 0.7182568213	 0.131074
H	-0.5122017759	-0.5387132284	 2.0873783279	 0.107268
66.5544	115.1559	135.2691	208.0244	239.7459	261.1165	292.9343	400.8492	501.465	552.521	583.2681	645.0431	714.7628	783.6296	805.8208	873.4446	933.7938	946.8375	996.1183	1033.1655	1059.4887	1061.7919	1075.6766	1113.3148	1134.6858	1157.7008	1201.9311	1260.6129	1305.3107	1377.8097	1414.6688	1417.2006	1472.0011	1477.7731	1482.5878	1485.7649	1498.0087	1707.8574	1829.5307	3025.59	3037.0223	3072.8073	3090.5233	3106.8711	3122.4425	3128.245	3141.9242	3201.2214
CC1=C(C)C(=O)N2CC12	CC1=C(C)C(=O)N2C[C@@H]12	
InChI=1S/C7H9NO/c1-4-5(2)7(9)8-3-6(4)8/h6H,3H2,1-2H3	InChI=1S/C7H9NO/c1-4-5(2)7(9)8-3-6(4)8/h6H,3H2,1-2H3/t6-,8?/m0/s1
