18
gdb 114418	2.981	1.16093	1.1396	3.7076	71.71	-0.2393	-0.0016	0.2377	1157.5137	0.147962	-439.063827	-439.055526	-439.054582	-439.097257	30.912	
O	-0.0932295468	 1.4427519441	-0.2211233572	-0.420592
C	 0.0445210093	 0.0478107579	 0.0000783015	-0.100476
C	-1.3580738746	-0.5302989582	 0.047384333	 0.005817
C	-2.1060353598	-0.6038747251	-1.3202948563	-0.19976
N	-2.1180534551	-2.1033938703	-1.2346236336	-0.132097
C	-1.5106248608	-2.0828506363	 0.143778043	-0.013802
C	-0.3932701479	-3.0399894421	-0.3366928589	-0.392542
C	-0.9763075486	-2.7768335466	-1.7467007619	 0.382394
O	-0.6035438616	-2.9358287427	-2.8721992951	-0.318123
H	 0.7815215954	 1.8165852425	-0.3620286994	 0.291694
H	 0.6267649224	-0.4222610162	-0.8077307005	 0.097508
H	 0.5656252199	-0.1637795036	 0.9485268394	 0.091908
H	-1.9205886881	-0.0014319595	 0.8205913816	 0.092436
H	-3.1163539537	-0.1902893793	-1.3158566742	 0.120828
H	-1.5658805625	-0.2247349533	-2.1914954878	 0.134045
H	-2.1417060213	-2.441176569	 0.958982991	 0.087577
H	 0.6477501874	-2.7346151991	-0.2192729958	 0.13564
H	-0.5021479435	-4.066173123	 0.023621581	 0.137545
59.2682	110.425	183.1836	193.1425	264.2413	298.3998	406.8902	450.156	495.6801	528.6432	677.3964	732.7455	804.2735	840.0066	863.8702	920.4709	951.7176	980.1017	995.4113	1048.1857	1073.5918	1088.1842	1096.9205	1123.9262	1158.204	1184.4737	1206.6242	1229.1793	1241.7805	1267.4236	1280.2508	1302.298	1345.7275	1359.357	1444.7422	1462.9406	1503.8237	1523.1505	1886.8951	2962.5147	2995.9419	3067.5374	3074.8537	3079.5694	3094.9678	3123.4153	3134.7176	3830.7157
OCC1CN2C1CC2=O	OC[C@H]1CN2[C@H]1CC2=O	
InChI=1S/C6H9NO2/c8-3-4-2-7-5(4)1-6(7)9/h4-5,8H,1-3H2	InChI=1S/C6H9NO2/c8-3-4-2-7-5(4)1-6(7)9/h4-5,8H,1-3H2/t4-,5+/m1/s1
