20
gdb 40451	3.26377	1.31129	1.20029	2.1211	77.9	-0.2322	0.0833	0.3155	1122.7727	0.172628	-403.110279	-403.102421	-403.101476	-403.142854	30.776	
C	-0.5305166096	 1.1038143822	-0.532549617	-0.166179
O	 0.6069097915	 1.4492661246	 0.2647115326	-0.243042
C	 0.2613829809	 0.0655138871	 0.1344463889	-0.038432
C	-0.2111880405	-0.6145083755	 1.3798941402	 0.331574
C	-1.3385829937	-1.5857714841	 1.3343126479	-0.294987
N	-1.5369894471	-0.2495431302	 1.9174444323	-0.126619
C	-1.4134266788	-0.2133000704	 3.3876523285	-0.149028
C	-0.1009125217	-0.9338884676	 3.776895132	-0.246156
C	 0.7856975563	-0.75996091	 2.5273026549	-0.278643
H	-1.4928480198	 1.3692320009	-0.1028257091	 0.133554
H	-0.4146141343	 1.2651245898	-1.6036510545	 0.107038
H	 0.9715806275	-0.5103460305	-0.4624830475	 0.089301
H	-1.8697402285	-1.7483174677	 0.4004552637	 0.113005
H	-1.3082189903	-2.4525232603	 1.9905095248	 0.108777
H	-1.3759832055	 0.8420198861	 3.6774758571	 0.114345
H	-2.3013286589	-0.6540199404	 3.8515014184	 0.105123
H	 0.351868371	-0.5090640132	 4.6758887792	 0.106021
H	-0.2799114618	-1.9931732285	 3.9830243949	 0.106554
H	 1.4849834028	-1.5892885835	 2.3833055261	 0.102162
H	 1.3725533304	 0.1627416311	 2.5864054168	 0.12563
73.7739	132.0913	200.0868	235.7696	273.3302	413.8248	463.2821	489.8463	593.8129	639.7748	702.5534	795.7342	817.7013	854.031	884.6464	894.6787	904.739	935.5166	952.8904	995.2025	1021.9653	1038.6503	1087.7175	1108.2451	1121.4248	1158.136	1166.0713	1179.7113	1187.5762	1206.4093	1242.5075	1266.0551	1293.4729	1314.2932	1331.5921	1345.9189	1384.8205	1445.6526	1489.189	1492.3123	1499.6069	1516.0725	1523.1122	3045.5296	3048.9347	3058.3679	3085.2884	3086.9977	3089.6004	3093.2608	3103.6725	3110.6087	3186.7134	3192.0632
C1OC1C12CN1CCC2	C1O[C@H]1[C@]12CN1CCC2	
InChI=1S/C7H11NO/c1-2-7(6-4-9-6)5-8(7)3-1/h6H,1-5H2	InChI=1S/C7H11NO/c1-2-7(6-4-9-6)5-8(7)3-1/h6H,1-5H2/t6-,7+,8?/m1/s1
