20
gdb 59448	2.6375	1.16308	0.91826	4.2852	75.78	-0.2339	0.0316	0.2655	1316.4075	0.170241	-440.309159	-440.29947	-440.298526	-440.344044	36.418	
C	 0.0594582739	 1.4175142109	 0.3062885825	-0.392999
C	-0.0336977039	-0.1036346053	 0.4066925534	 0.092207
O	 0.3197562554	-0.54545229	 1.7316116035	-0.422974
C	-1.3950007246	-0.6271971446	 0.0021397901	-0.029822
C	-1.6972687666	-0.9762279941	-1.4385124488	-0.290137
C	-1.6221174341	-2.0655098902	-0.4083195195	-0.116058
C	-0.5291342378	-3.1178707684	-0.4985575135	 0.339189
N	 0.2051998966	-3.2761831591	 0.6405538811	-0.515538
O	-0.3845751797	-3.808315745	-1.4893566797	-0.365879
H	 1.0469539981	 1.7609780497	 0.6251665224	 0.127022
H	-0.1152724945	 1.749685164	-0.721279662	 0.128895
H	-0.6936965428	 1.8964460578	 0.9441177517	 0.108266
H	 0.7321661673	-0.5551042163	-0.2333005252	 0.101841
H	-0.3438638848	-0.2029200752	 2.3412345753	 0.28184
H	-2.2106723664	-0.1673723889	 0.5602231457	 0.075984
H	-2.6626247702	-0.7062177628	-1.8508286472	 0.115705
H	-0.8792611801	-0.9239566944	-2.1501561174	 0.128165
H	-2.5677973261	-2.5010469612	-0.0961731785	 0.114066
H	 0.2444596191	-2.5280921111	 1.3227804961	 0.269212
H	 0.979144921	-3.9208474258	 0.5885332898	 0.251013
37.2354	103.6005	162.2588	189.9918	242.5564	259.481	297.9854	314.7372	365.1599	458.6574	489.578	497.6093	555.1488	622.8124	669.4062	742.1581	781.4233	798.5238	849.6881	902.39	978.087	987.7757	1007.4254	1061.4116	1074.9138	1101.1134	1113.8149	1127.897	1152.3743	1185.9966	1219.3327	1276.6572	1312.009	1332.9475	1401.2882	1405.8973	1411.3195	1432.4078	1491.3024	1493.67	1497.4163	1639.3971	1792.0133	3029.4785	3056.3786	3098.7468	3105.7361	3124.9713	3134.2094	3143.4383	3219.2201	3509.49	3670.1899	3798.3915
CC(O)C1CC1C(N)=O	C[C@@H](O)[C@H]1C[C@H]1C(=O)N	
InChI=1S/C6H11NO2/c1-3(8)4-2-5(4)6(7)9/h3-5,8H,2H2,1H3,(H2,7,9)	InChI=1S/C6H11NO2/c1-3(8)4-2-5(4)6(7)9/h3-5,8H,2H2,1H3,(H2,7,9)/t3-,4-,5-/m1/s1
