20
gdb 104261	2.18119	1.34067	1.12924	4.8957	79.99	-0.2284	0.0161	0.2445	1210.0951	0.170909	-399.305822	-399.296193	-399.295249	-399.34016	35.508	
C	-0.0119221632	 1.4791181008	 0.1145971769	-0.330985
N	-0.1263644276	 0.0519638302	-0.1657836449	-0.306117
C	 0.6679514126	-0.4461119965	-1.2735917047	 0.314686
C	 0.2490651964	 0.1880271803	-2.5912472189	-0.450912
C	 2.2120822645	-0.5603890905	-1.0017721826	-0.21844
N	 1.9959271448	-1.9517001319	-0.5426134603	-0.310111
C	 0.7028942328	-2.0208304718	-1.252353215	-0.195206
C	-0.3574432254	-2.7476885108	-0.5532939321	 0.31406
N	-1.1870888283	-3.3372353483	-0.0058827967	-0.332164
H	 1.0247810459	 1.8460266466	 0.2116740739	 0.098379
H	-0.5021001181	 2.0642021006	-0.6693253674	 0.128663
H	-0.5317323055	 1.6918083559	 1.0522137429	 0.129372
H	 0.0998472804	-0.4770797691	 0.6699594276	 0.23723
H	 0.5000702453	 1.2526785599	-2.615861693	 0.127083
H	 0.7606352534	-0.2874128547	-3.4325990924	 0.11535
H	-0.8313566834	 0.0889560364	-2.7323703013	 0.138843
H	 2.8095669434	-0.4689100735	-1.9193879102	 0.093323
H	 2.6303423891	 0.1017819709	-0.2373037122	 0.109821
H	 2.6855355623	-2.6377692584	-0.8282308123	 0.229558
H	 0.7637989605	-2.4113154761	-2.2781741375	 0.107568
84.1603	113.8648	127.3914	189.366	203.4774	235.6823	280.3653	324.5131	374.3442	389.881	434.2574	553.5138	579.1561	634.3038	699.3494	784.3252	823.6643	895.8286	934.784	976.1947	995.6253	1025.888	1059.1555	1099.7081	1122.2848	1135.2214	1153.5249	1174.0961	1192.0713	1243.6714	1281.3449	1335.4225	1357.3816	1385.2187	1409.1813	1460.622	1486.7716	1488.7579	1503.4437	1507.2621	1516.8116	1532.6805	2356.8469	2952.5234	2998.4699	3004.6258	3042.5437	3071.4899	3075.8634	3110.9891	3117.3888	3120.2658	3527.7326	3536.909
CNC1(C)CNC1C#N	CN[C@@]1(C)CN[C@H]1C#N	
InChI=1S/C6H11N3/c1-6(8-2)4-9-5(6)3-7/h5,8-9H,4H2,1-2H3	InChI=1S/C6H11N3/c1-6(8-2)4-9-5(6)3-7/h5,8-9H,4H2,1-2H3/t5-,6-/m0/s1
