14
gdb 125506	3.56065	1.19655	0.90058	3.3177	70.42	-0.2554	-0.056	0.1994	1208.1872	0.100968	-470.03422	-470.02615	-470.025206	-470.067217	28.777	
C	-0.0678645346	 1.5046041802	-0.1014923863	-0.495704
C	-0.0046667717	 0.0193373674	-0.0115744106	 0.251675
N	-0.0678808163	-0.7866682803	-1.052681227	-0.267308
N	 0.0249848295	-2.0271738573	-0.5302345612	 0.056788
C	-0.0082810739	-3.1508760709	-1.3692636745	 0.204778
O	 0.0679147853	-4.2827684155	-0.9882969955	-0.262129
N	 0.1472752259	-2.0745435115	 0.8153275431	-0.305235
C	 0.1295999387	-0.8047482785	 1.1499277103	 0.340287
O	 0.225036331	-0.3554326915	 2.4066753949	-0.410562
H	 0.8366332267	 1.9613970882	 0.3136494589	 0.148076
H	-0.1715325904	 1.8127046966	-1.1430826238	 0.152043
H	-0.9167097756	 1.8961940592	 0.4688171331	 0.148082
H	-0.1142069368	-2.8162326742	-2.4136461782	 0.1207
H	 0.3058096222	-1.1189885419	 2.9935566467	 0.318507
100.8401	105.3198	194.7035	232.5038	242.0214	284.7043	392.3801	452.1974	458.0154	553.4041	647.6992	651.7746	749.3699	760.5327	855.5276	992.0253	1025.2177	1026.324	1066.9311	1208.1066	1245.5709	1298.1488	1358.2917	1414.0756	1420.3772	1456.3176	1477.6251	1496.6881	1586.4043	1625.6465	1844.5217	3024.1029	3043.1345	3096.6432	3144.6923	3787.7856
CC1=NN(C=O)N=C1O	Cc1nn(C=O)nc1O	
InChI=1S/C4H5N3O2/c1-3-4(9)6-7(2-8)5-3/h2H,1H3,(H,6,9)	InChI=1S/C4H5N3O2/c1-3-4(9)6-7(2-8)5-3/h2H,1H3,(H,6,9)
