21
gdb 111752	2.60161	1.23688	1.0235	2.4084	79.8	-0.2293	0.0736	0.3029	1291.7848	0.180638	-424.172288	-424.162667	-424.161722	-424.207037	35.024	
C	 0.0875850436	 1.5347651475	 0.0698106138	-0.375615
C	 0.0391650603	 0.009402768	 0.2399143622	-0.290063
C	-1.3305368723	-0.5372276616	-0.0205033211	 0.432267
O	-2.375064528	-0.1198788956	 0.8632107177	-0.316009
C	-2.9695873251	-1.4409403733	 0.8268718746	-0.086053
C	-1.9359464183	-1.9428333717	-0.1753684583	-0.28133
C	-1.8861625248	-0.9683238132	-1.3374115919	 0.068793
O	-3.0211646219	-0.3709022063	-1.8653558622	-0.234894
C	-3.7294768124	-1.2207124516	-2.7463318419	-0.234922
H	 1.084708689	 1.9212415197	 0.3001037858	 0.109287
H	-0.1633488887	 1.8238954036	-0.9555411358	 0.123509
H	-0.6301253811	 2.0170985972	 0.7389939208	 0.140664
H	 0.7468300336	-0.4738904376	-0.4438271308	 0.099905
H	 0.3414509993	-0.2617211537	 1.2587171863	 0.10617
H	-2.8973826154	-1.9215838344	 1.808449	 0.106321
H	-4.0146983442	-1.4122798292	 0.5000626884	 0.109205
H	-1.4793657819	-2.9244608474	-0.1856631756	 0.094487
H	-1.120970184	-1.2253840905	-2.0753877788	 0.084452
H	-3.1245055736	-1.4869420244	-3.6266830295	 0.104937
H	-4.0431030514	-2.1499660079	-2.2494072745	 0.109535
H	-4.6148980324	-0.6740146076	-3.0785568991	 0.129355
70.1044	96.513	127.3146	175.2178	193.2182	220.0687	245.7328	307.2199	323.9362	390.2384	551.4943	567.4113	719.9526	784.6579	791.2582	835.6372	889.5325	964.7203	975.3105	985.0911	988.9083	1017.8494	1025.6254	1059.6441	1102.5761	1120.2072	1161.1465	1167.5869	1182.4001	1209.3118	1229.9199	1259.9553	1289.7632	1329.2729	1347.9828	1362.6792	1407.8049	1457.359	1474.9083	1485.3548	1492.0623	1497.6447	1507.8893	1509.3419	1516.0721	2980.9422	3029.2948	3031.0278	3032.6462	3041.8234	3064.6749	3070.2652	3079.4751	3111.5492	3119.45	3122.5402	3189.4282
CCC12OCC1C2OC	CC[C@]12OC[C@H]1[C@H]2OC	
InChI=1S/C7H12O2/c1-3-7-5(4-9-7)6(7)8-2/h5-6H,3-4H2,1-2H3	InChI=1S/C7H12O2/c1-3-7-5(4-9-7)6(7)8-2/h5-6H,3-4H2,1-2H3/t5-,6+,7-/m0/s1
