15
gdb 28385	3.26801	1.41749	0.98969	4.1387	77.42	-0.1792	-0.0225	0.1568	1118.8994	0.113976	-453.987986	-453.980222	-453.979278	-454.019918	30.502	
N	 0.1164233444	 1.3568069337	 0.1728188991	-0.568517
C	-0.0635052987	-0.0096583187	 0.0508818349	 0.409132
C	-1.2285850705	-0.6955005712	 0.0172012286	-0.247996
C	-1.1930411634	-2.1287418743	-0.0110621205	-0.183173
C	-0.0040517207	-2.7760357298	-0.0175625784	 0.281456
O	 0.1335800315	-4.1203150491	-0.0464703469	-0.434782
C	 1.2352972159	-2.0223654421	 0.0023516802	 0.325552
N	 2.3591910718	-2.626404468	-0.0156363686	-0.589426
O	 1.1381835995	-0.6485986856	 0.0374618815	-0.252104
H	 0.9679531411	 1.6924257014	-0.2570423188	 0.259892
H	-0.688998986	 1.9023685048	-0.0967199571	 0.261057
H	-2.169073835	-0.1614246688	 0.0218133932	 0.095343
H	-2.1155234558	-2.6968542978	-0.0317563528	 0.11325
H	 1.0952771537	-4.2742984985	-0.04894769	 0.305242
H	 3.1509462523	-1.9883754961	 0.0056979055	 0.225075
126.7906	172.6102	256.1949	319.4994	339.3429	372.432	396.5291	474.0578	524.1066	566.092	590.7125	611.0024	679.2955	752.2143	755.9194	778.2653	787.8576	792.847	909.8259	970.3754	1029.7675	1113.0827	1138.8403	1218.5338	1282.2759	1300.5763	1334.8919	1432.3843	1476.3044	1622.891	1652.1783	1695.6871	1738.0122	3202.8969	3221.1217	3528.918	3558.1875	3640.8009	3666.2201
NC1=CC=C(O)C(=N)O1	NC1=CCC(=C([NH])O1)O	
InChI=1S/C5H6N2O2/c6-4-2-1-3(8)5(7)9-4/h1-2,7-8H,6H2	InChI=1S/C5H7N2O2/c6-4-2-1-3(8)5(7)9-4/h2,7-8H,1,6H2
