19
gdb 114293	2.4338	1.39995	1.07918	3.5203	80.49	-0.2202	0.0274	0.2476	1184.549	0.159515	-382.038637	-382.029981	-382.029037	-382.072187	32.316	
C	-0.1756310249	 1.683655407	 0.0455623652	-0.381147
C	 0.0166137581	 0.1839031145	 0.259822546	-0.14767
N	-1.2149544162	-0.5428977992	-0.0290778262	-0.069486
C	-1.7020906016	-0.7396483338	-1.4240600797	-0.200252
C	-1.9481773305	-2.2197871617	-1.1079382673	-0.109087
C	-0.6412089684	-2.9010801306	-0.7371753988	-0.195707
C	 0.595398083	-2.6282100708	-1.4137566864	 0.309021
N	 1.5867986908	-2.4153634183	-1.9727978491	-0.361522
C	-1.3421360247	-1.9525441753	 0.2501203357	-0.027043
H	 0.7401401712	 2.2280124199	 0.2941164341	 0.118246
H	-0.4168208196	 1.9043269039	-0.9999727605	 0.119965
H	-0.991171182	 2.0629028586	 0.6681261971	 0.121873
H	 0.8675907176	-0.1732506916	-0.3393532636	 0.120236
H	 0.2607723424	-0.0141532056	 1.310718516	 0.103712
H	-2.61242009	-0.1693599314	-1.6299125968	 0.118181
H	-0.96451379	-0.5461506333	-2.2129887985	 0.124843
H	-2.8242312575	-2.7940664015	-1.3759772711	 0.111382
H	-0.7638099215	-3.9459033144	-0.4646589207	 0.134273
H	-1.6070715962	-2.3170882164	 1.2376676244	 0.110182
79.7514	119.2361	140.5329	175.3206	222.4786	299.1716	367.979	389.3094	455.4558	578.831	628.7114	689.133	766.0714	788.9026	807.4439	839.8811	909.662	948.7953	967.7593	983.123	1026.5821	1048.7286	1068.9258	1084.4879	1120.6501	1159.6256	1168.3741	1206.2791	1242.7228	1266.5463	1290.3211	1319.6498	1358.3793	1392.4897	1400.5978	1415.0289	1489.4269	1494.1834	1505.7853	1515.5901	2341.5132	2997.5861	3026.7871	3037.8157	3050.2364	3083.2474	3105.5435	3119.3641	3152.0562	3161.6873	3211.3722
CCN1CC2C(C#N)C12	CCN1C[C@H]2[C@@H](C#N)[C@@H]12	
InChI=1S/C7H10N2/c1-2-9-4-6-5(3-8)7(6)9/h5-7H,2,4H2,1H3	InChI=1S/C7H10N2/c1-2-9-4-6-5(3-8)7(6)9/h5-7H,2,4H2,1H3/t5-,6+,7-/m1/s1
