19
gdb 17392	4.4555	1.67792	1.55608	1.5486	75.12	-0.2242	0.0859	0.3102	899.5785	0.167049	-327.867405	-327.860425	-327.859481	-327.89845	27.965	
C	-0.0259772818	 1.549341128	-0.0730516554	-0.209823
C	 1.5182849567	 1.5484665372	 0.1034448628	-0.272376
C	 1.4208052778	 0.0968720697	 0.6271356994	 0.408372
C	 0.004809324	-0.002273706	 0.003445517	-0.291805
C	 2.4888341238	-1.0270213501	 0.4122474518	-0.322823
C	 2.5347761579	-1.2247141743	 1.9303244926	-0.033131
N	 2.942442549	 0.0837168766	 2.5031559866	-0.33862
C	 1.5230804816	-0.1561058902	 2.1387675633	-0.123528
H	-0.5359769481	 1.9910242566	 0.7876325921	 0.100037
H	-0.4325724756	 1.998741767	-0.9818559293	 0.094646
H	 2.0363354131	 1.5942599119	-0.859870036	 0.096223
H	 1.9679724923	 2.2814304092	 0.77669922	 0.106407
H	-0.7698164795	-0.5063328095	 0.5894926025	 0.091928
H	 0.037966962	-0.4590452628	-0.9910061128	 0.097271
H	 2.0708176641	-1.8842021938	-0.1232118303	 0.09831
H	 3.4333245386	-0.726980153	-0.0504065734	 0.102218
H	 2.7033422793	-2.142904475	 2.4797124926	 0.088959
H	 3.0135758596	-0.0438238352	 3.5129908806	 0.224213
H	 0.7360937753	-0.0652539962	 2.8794009059	 0.083523
110.4095	144.6706	231.833	330.9659	400.7686	455.9033	542.2151	679.6545	753.0147	783.6329	811.8571	838.205	849.0675	884.5355	906.9756	928.6518	934.2571	956.4798	974.7638	1006.9312	1052.8945	1075.1426	1100.0775	1135.4192	1167.057	1176.5215	1186.3654	1213.3227	1227.5999	1252.9045	1255.3527	1271.5969	1289.69	1307.9775	1336.912	1379.9799	1469.1399	1473.6385	1482.3533	1503.9644	3040.6987	3050.4167	3052.8593	3058.7227	3087.7296	3105.1548	3107.9308	3118.4871	3168.9192	3188.7867	3463.4574
C1CC2(C1)CC1NC21	C1CC2(C1)C[C@H]1N[C@@H]21	
InChI=1S/C7H11N/c1-2-7(3-1)4-5-6(7)8-5/h5-6,8H,1-4H2	InChI=1S/C7H11N/c1-2-7(3-1)4-5-6(7)8-5/h5-6,8H,1-4H2/t5-,6-/m1/s1
