15
gdb 126476	1.98262	1.74757	0.9904	1.2656	73.1	-0.2831	-0.0491	0.234	1150.249	0.113134	-416.82697	-416.818834	-416.81789	-416.860409	29.077	
C	-0.3014733486	 1.4705330493	 0.1384591741	-0.391519
C	 0.1106657153	-0.005161827	-0.0007141413	-0.303386
C	 0.7763919569	-0.5400833804	 1.2286691823	 0.323582
N	 2.0488941946	-0.8427172906	 1.2320395686	-0.188462
O	 2.3428712377	-1.2936154008	 2.5262008923	-0.156217
C	 1.2399759069	-1.2507842238	 3.2633808447	 0.011068
C	 0.1934561657	-0.783991914	 2.5224143508	-0.02325
C	-1.1483392021	-0.5921144565	 2.9240929548	 0.209902
N	-2.2530102446	-0.4258007282	 3.2293344293	-0.342737
H	 0.5701795477	 2.1019228151	 0.3326599186	 0.133857
H	-0.7749236907	 1.8155708667	-0.7846156694	 0.129069
H	-1.0155523538	 1.6103714754	 0.9549077551	 0.144721
H	-0.7746239229	-0.6153227295	-0.2135800731	 0.132391
H	 0.8023954416	-0.1307748924	-0.8378930057	 0.138294
H	 1.3232583663	-1.5769461333	 4.2885548888	 0.182687
58.0377	121.843	168.0127	183.0616	225.888	335.3606	385.982	530.8162	551.5616	583.8075	614.012	676.4735	749.3674	797.8668	873.0547	888.1562	931.9975	978.6579	1079.0424	1099.8693	1172.5355	1194.288	1279.9144	1305.8272	1351.1291	1404.9532	1420.3157	1479.4282	1499.88	1503.8297	1524.5824	1624.7133	2351.6687	3045.5064	3048.6181	3099.249	3123.0802	3126.991	3270.8163
CCC1=NOC=C1C#N	CCc1nocc1C#N	
InChI=1S/C6H6N2O/c1-2-6-5(3-7)4-9-8-6/h4H,2H2,1H3	InChI=1S/C6H6N2O/c1-2-6-5(3-7)4-9-8-6/h4H,2H2,1H3
