17
gdb 124067	4.44955	1.1275	1.03311	2.7622	74.01	-0.2364	0.0165	0.2529	1163.2616	0.139304	-418.001837	-417.994472	-417.993528	-418.034429	27.518	
C	 0.0348493025	 1.523398992	 0.0259999425	-0.09192
O	 1.2109374268	 1.406423652	 0.858463166	-0.278486
C	 1.398401811	 0.0394745105	 0.4269950428	-0.091922
C	-0.0583045625	-0.0211209665	-0.1083495827	-0.15116
C	-1.0293584636	-0.6623823115	 0.8204560886	 0.409803
C	-2.0115550276	-1.61544577	 0.6323896389	-0.348914
C	-2.5875685097	-1.8001044627	 1.908530123	 0.000298
N	-2.0172873202	-1.0278560049	 2.8277838881	-0.225953
N	-1.0758197819	-0.3474085423	 2.1442660364	-0.25236
H	-0.7883220016	 2.032479075	 0.535910117	 0.117735
H	 0.2578813351	 2.0355241414	-0.919509835	 0.10543
H	 2.1607572399	-0.0353365886	-0.3599114424	 0.10543
H	 1.6561066702	-0.6277332376	 1.2547659683	 0.117734
H	-0.1886697275	-0.4134920379	-1.1170430563	 0.091872
H	-2.26904787	-2.1023297591	-0.2944967855	 0.101993
H	-3.3921209146	-2.4627004591	 2.192245073	 0.111569
H	-0.4919353662	 0.3189496995	 2.6247194272	 0.278852
77.3079	91.136	158.532	245.649	377.2497	400.572	586.3493	641.0042	689.7266	728.3438	804.9603	840.8296	847.1796	891.7402	924.4463	938.601	987.889	1014.4705	1034.5261	1057.2837	1062.8053	1086.0114	1134.4678	1153.6571	1185.293	1214.8497	1236.9608	1301.123	1304.9449	1310.5042	1364.3632	1388.9025	1453.2201	1486.6549	1507.7165	1535.9957	1609.539	3008.5358	3017.6437	3086.3749	3086.4811	3113.0527	3243.7032	3266.3338	3650.5485
C1OCC1C1=CC=NN1	C1OCC1c1ccn[nH]1	
InChI=1S/C6H8N2O/c1-2-7-8-6(1)5-3-9-4-5/h1-2,5H,3-4H2,(H,7,8)	InChI=1S/C6H8N2O/c1-2-7-8-6(1)5-3-9-4-5/h1-2,5H,3-4H2,(H,7,8)
