17
gdb 48847	2.85711	1.46724	1.19887	2.8089	69.93	-0.2437	-0.022	0.2216	1055.1951	0.135324	-458.938905	-458.93104	-458.930096	-458.971584	29.689	
O	 0.0261255103	 0.0399466156	 0.3866000769	-0.261924
C	 0.0947236639	 1.1818387767	 0.0174513077	 0.12394
C	 1.3144609415	 2.0334134997	 0.0726971867	 0.29081
C	 1.0878505235	 3.5397925166	 0.2107941195	-0.371323
C	 1.5250205179	 2.9808828785	-1.1091009321	 0.035935
O	 2.8365945273	 3.2023684801	-1.5251237002	-0.255718
C	 3.6865209941	 2.084376931	-1.27797992	-0.094892
C	 3.6899008854	 1.7615391989	 0.2047154047	-0.083322
O	 2.3924963569	 1.3953254112	 0.6668143743	-0.288621
H	-0.7849508895	 1.7156176318	-0.4140556142	 0.069121
H	 0.0697015134	 3.896844628	 0.3226949091	 0.127052
H	 1.8360991576	 4.0825448282	 0.7763634095	 0.139736
H	 0.8098776734	 2.9466723051	-1.9295763537	 0.107262
H	 3.3582800067	 1.2109678512	-1.8598557787	 0.112056
H	 4.6848846315	 2.3778752251	-1.6117610364	 0.12124
H	 4.3388876195	 0.9081581095	 0.4214180555	 0.123144
H	 4.0623612166	 2.6328959529	 0.7637430314	 0.105506
77.7042	111.4453	222.1428	233.2402	329.6477	358.9682	427.2075	468.946	503.46	540.8297	700.4194	752.2071	772.3305	834.3425	895.7231	915.0071	953.683	1009.7494	1031.2236	1051.8802	1068.3069	1100.8843	1121.6137	1140.3735	1179.5462	1247.1593	1268.5371	1296.4399	1321.9649	1368.7344	1410.8511	1416.1541	1440.7443	1460.7144	1491.4778	1504.2378	1833.1625	2850.7424	2995.8547	3009.9203	3091.2202	3106.7025	3112.8393	3137.2089	3234.6117
O=CC12CC1OCCO2	O=C[C@]12C[C@H]1OCCO2	
InChI=1S/C6H8O3/c7-4-6-3-5(6)8-1-2-9-6/h4-5H,1-3H2	InChI=1S/C6H8O3/c7-4-6-3-5(6)8-1-2-9-6/h4-5H,1-3H2/t5-,6-/m1/s1
