21
gdb 41972	2.38209	2.02321	1.57943	1.3203	79.58	-0.2386	0.0715	0.31	959.1567	0.187529	-387.093679	-387.086831	-387.085887	-387.12456	29.122	
C	-0.0769361863	 1.4716215942	-0.2181331611	-0.245056
C	 1.326218472	 1.9815130133	 0.2022695153	-0.22463
C	 1.9548773849	 0.8838845212	 1.0984535754	 0.095227
O	 1.8027338222	 1.1320667018	 2.4965110318	-0.257893
C	 0.4548008185	 1.2462484999	 2.9130828305	-0.086416
C	-0.3609851684	-0.0281297348	 2.6382729376	-0.235326
C	-0.030831312	-0.696881709	 1.3136570456	-0.024116
C	-0.0072621161	-0.0487442566	-0.0549583406	-0.04835
C	 1.2896109768	-0.4194449983	 0.6401460107	-0.088763
H	-0.8750997966	 1.9165591106	 0.3855742857	 0.101883
H	-0.2977064056	 1.7309568172	-1.2577298851	 0.097525
H	 1.9500387051	 2.0767901887	-0.6928214176	 0.100432
H	 1.3227096235	 2.9574436543	 0.6966057055	 0.103968
H	 3.0378059927	 0.8397525524	 0.9618964229	 0.079481
H	 0.490325738	 1.4423888019	 3.98869414	 0.10315
H	-0.020545716	 2.1200088544	 2.4447323149	 0.089421
H	-0.1416479598	-0.7558417622	 3.4286653818	 0.105485
H	-1.431309281	 0.2023261773	 2.712753658	 0.095688
H	-0.3435812932	-1.7378261151	 1.2830126402	 0.081066
H	-0.3753923289	-0.6586417288	-0.8731156404	 0.078964
H	 1.9179655004	-1.2387902023	 0.3107494288	 0.078259
151.742	211.0902	283.5956	384.419	417.7743	486.6858	504.6826	657.4579	687.7058	701.773	748.7032	774.2789	804.8806	849.5293	890.0294	918.5245	931.9915	956.2044	976.4864	996.9662	1018.5007	1055.2057	1076.1317	1093.3228	1104.826	1111.6978	1139.8177	1201.2984	1204.8054	1222.6088	1262.7544	1286.2777	1293.0995	1312.0296	1319.4953	1348.6905	1364.0858	1371.7699	1386.3968	1415.7044	1444.2728	1480.533	1483.7984	1501.5912	1520.1164	2999.5517	3021.1651	3042.7088	3046.4136	3056.3432	3076.6555	3080.6128	3083.0806	3098.4431	3126.5386	3158.2828	3172.7458
C1CC2OCCC3C1C23	C1C[C@H]2OCC[C@H]3[C@@H]1[C@@H]23	
InChI=1S/C8H12O/c1-2-7-8-5(1)6(8)3-4-9-7/h5-8H,1-4H2	InChI=1S/C8H12O/c1-2-7-8-5(1)6(8)3-4-9-7/h5-8H,1-4H2/t5-,6+,7-,8-/m1/s1
