19
gdb 69200	2.65894	1.54336	1.15805	3.9466	82.39	-0.2322	-0.0424	0.1898	1107.2135	0.16022	-385.924989	-385.916996	-385.916052	-385.95718	31.611	
C	 0.0647467937	 1.5084530004	-0.042161862	-0.467152
C	-0.0316330406	-0.0030824504	 0.0039432869	 0.324564
C	-0.7979429568	-0.6299753552	 1.1270719585	-0.328324
C	 0.7257134509	-0.7292749073	 1.1114866012	-0.180773
C	 1.343690619	-2.0595727366	 0.8476803611	 0.402731
O	 2.1748857905	-2.5422439602	 1.5952622957	-0.352849
C	 0.9066678891	-2.7595461314	-0.3817375266	-0.176691
C	 0.2639055176	-2.1331564927	-1.3733406651	-0.04409
C	-0.0929143589	-0.6745794655	-1.3613499848	-0.339016
H	 0.9730195492	 1.8317238885	-0.5632032839	 0.12189
H	-0.7946293413	 1.9393645702	-0.5696572855	 0.119548
H	 0.0854618253	 1.9359549066	 0.9647747635	 0.120812
H	-1.2333080397	 0.0205192845	 1.8777006754	 0.120018
H	-1.3566227843	-1.5400119106	 0.9368654687	 0.123087
H	 1.2624768885	-0.1381619494	 1.845489379	 0.099872
H	 1.1979747879	-3.802200586	-0.457895307	 0.108563
H	 0.0102384583	-2.6800859112	-2.2792097992	 0.10709
H	-1.0949978668	-0.5393469145	-1.7924393792	 0.117649
H	 0.5859070386	-0.1565363695	-2.0567275367	 0.123071
110.9531	158.8403	223.0474	277.639	323.3366	361.8985	376.1644	445.6539	486.9111	507.2077	652.694	656.9188	733.6381	791.3573	858.3102	882.7521	905.5162	927.7672	956.5074	990.9424	1012.8772	1031.877	1043.1127	1071.9245	1101.3163	1115.4048	1174.5239	1212.7926	1255.8082	1264.2392	1323.4631	1366.9735	1402.6879	1411.1594	1421.7524	1464.7173	1486.0225	1491.4326	1502.5236	1688.7535	1764.3727	2990.9657	3020.6809	3023.86	3084.3796	3104.0978	3134.0529	3148.0768	3173.0766	3191.3504	3222.1909
CC12CC1C(=O)C=CC2	C[C@]12C[C@H]1C(=O)C=CC2	
InChI=1S/C8H10O/c1-8-4-2-3-7(9)6(8)5-8/h2-3,6H,4-5H2,1H3	InChI=1S/C8H10O/c1-8-4-2-3-7(9)6(8)5-8/h2-3,6H,4-5H2,1H3/t6-,8-/m0/s1
