21
gdb 115308	2.57053	1.28244	0.95107	2.6292	78.35	-0.2478	-0.0283	0.2195	1294.6368	0.182403	-424.264967	-424.255683	-424.254739	-424.299369	34.968	
C	-0.1706678222	 1.4881074634	-0.1744846627	-0.391022
C	-0.1186151072	-0.0160329914	 0.1064584342	-0.174039
C	 0.7650850092	-0.4052447791	 1.3140413956	-0.098979
C	 0.6619694763	-1.9068495707	 1.7016627543	-0.248191
C	 1.9171438831	-2.5826056901	 1.1025101415	-0.244368
C	 2.9999556119	-1.5232412783	 1.3263774864	 0.079364
O	 4.1676824285	-1.6591403248	 0.5700284483	-0.444676
C	 2.2549495466	-0.2262686393	 1.0120444093	 0.367905
O	 2.808470968	 0.7253292317	 0.5110870099	-0.340328
H	 0.8244074587	 1.8845242098	-0.3848591606	 0.151055
H	-0.817441255	 1.6977570147	-1.0321298871	 0.11057
H	-0.5739490517	 2.031897965	 0.6874567115	 0.110657
H	-1.1301057115	-0.3889298255	 0.3079855951	 0.100504
H	 0.2309004638	-0.5507356559	-0.7859811113	 0.103796
H	 0.4940913705	 0.2459721537	 2.1540786881	 0.1015
H	 0.6690528433	-2.0181366776	 2.7911925119	 0.105797
H	-0.2650567741	-2.3590845099	 1.3406894133	 0.106974
H	 2.1510610369	-3.5432009433	 1.5659091358	 0.110773
H	 1.8020635178	-2.7478124644	 0.0250503944	 0.114571
H	 3.231142069	-1.4923687318	 2.4101063694	 0.088041
H	 4.3754874881	-0.7667114264	 0.2527491927	 0.290097
43.6429	110.651	161.713	193.8035	251.7978	273.4313	307.8674	365.8664	393.2804	424.2373	501.5172	577.4445	615.8008	672.5526	766.87	793.3518	847.8985	896.4685	934.6315	971.5568	1018.9746	1028.2854	1045.1612	1058.9597	1112.1068	1126.9133	1170.4995	1187.8504	1216.8538	1251.0526	1273.8151	1277.5503	1313.7539	1327.0947	1348.7942	1362.8989	1380.5436	1411.1603	1421.9569	1488.5798	1494.1981	1496.1495	1504.7447	1514.1135	1820.433	2906.625	3020.8095	3031.6127	3035.7805	3048.2636	3050.3607	3059.9203	3097.9849	3098.6485	3113.198	3139.5819	3706.1899
CCC1CCC(O)C1=O	CC[C@H]1CC[C@@H](O)C1=O	
InChI=1S/C7H12O2/c1-2-5-3-4-6(8)7(5)9/h5-6,8H,2-4H2,1H3	InChI=1S/C7H12O2/c1-2-5-3-4-6(8)7(5)9/h5-6,8H,2-4H2,1H3/t5-,6+/m0/s1
