21
gdb 121743	6.3521	0.52993	0.49663	0.7011	76.99	-0.267	0.0184	0.2855	2229.6941	0.179651	-461.40071	-461.389509	-461.388565	-461.439129	37.769	
C	-0.0948302315	 1.4072809012	-0.1278343646	-0.383805
C	 0.0275532025	-0.1115959106	 0.0222513629	-0.189493
C	 0.7689619121	-0.4970457477	 1.291608876	-0.044541
O	 0.8341158412	-1.9353428103	 1.3455590728	-0.248616
C	 1.4632824029	-2.4569261176	 2.415580329	 0.440495
O	 1.9546033995	-1.7915338943	 3.2949936833	-0.360617
C	 1.4659993215	-3.9676327328	 2.3587360922	-0.311645
C	 2.1721645187	-4.5899072105	 3.5548543862	-0.067954
O	 2.1077144317	-5.998130854	 3.387115351	-0.423712
H	 0.8899334182	 1.8850922556	-0.1708267172	 0.120635
H	-0.6303247811	 1.6668933886	-1.0452138876	 0.12053
H	-0.6410653469	 1.8490320666	 0.7126398625	 0.120635
H	-0.9669215567	-0.572117932	 0.0382945965	 0.109392
H	 0.5548846268	-0.5362529544	-0.8396686573	 0.109394
H	 1.7869025564	-0.0924311079	 1.3072630923	 0.118644
H	 0.2592453024	-0.1285650911	 2.1885836573	 0.118657
H	 0.431484236	-4.3239405525	 2.3012625948	 0.139621
H	 1.9440141813	-4.2883955022	 1.4265061521	 0.139587
H	 3.2101805841	-4.2307220497	 3.5985088659	 0.102429
H	 1.6804966881	-4.2660249352	 4.4831452654	 0.102495
H	 2.5499290629	-6.4075190695	 4.1361682564	 0.28787
34.9103	53.519	63.2202	87.545	102.861	194.1748	195.8866	237.9387	270.591	293.3372	332.7272	386.9651	503.0527	589.7692	724.3825	759.3983	808.518	891.2955	906.4754	947.7301	998.7744	1046.5272	1059.9684	1077.8624	1090.7085	1148.4384	1189.3264	1204.5249	1208.8662	1263.682	1270.1318	1301.1436	1312.7932	1331.557	1363.0286	1414.1356	1425.4222	1458.5354	1471.0538	1491.2651	1501.2652	1505.0173	1520.276	1524.3925	1809.353	2996.5594	3026.0235	3034.3	3035.7521	3044.6814	3053.4178	3064.5812	3087.5807	3090.504	3105.4965	3112.2487	3834.3743
CCCOC(=O)CCO	CCCOC(=O)CCO	
InChI=1S/C6H12O3/c1-2-5-9-6(8)3-4-7/h7H,2-5H2,1H3	InChI=1S/C6H12O3/c1-2-5-9-6(8)3-4-7/h7H,2-5H2,1H3
