17
gdb 52197	3.54515	0.73237	0.64547	2.7009	76.44	-0.2524	-0.0239	0.2285	1666.2	0.13224	-421.776015	-421.766468	-421.765524	-421.812037	33.296	
O	-0.2826846005	 0.3888692184	 0.7039584392	-0.234475
C	 0.1269624298	 0.9489628067	-0.2793715514	 0.155533
C	 1.4066705901	 1.7492796709	-0.3527211399	-0.266707
C	 1.1515452996	 3.1879534146	-0.8425474442	-0.2541
C	 2.4453920842	 3.937192519	-1.0436132857	 0.075432
O	 3.2734850332	 3.5078249105	-2.1220983046	-0.244301
C	 2.6960748935	 4.8240832505	-2.2034279818	-0.154926
C	 1.7125918226	 5.0588423076	-3.2260234901	 0.338382
C	 0.9018232811	 5.2916553939	-4.0825446322	-0.427648
H	-0.4425913726	 0.9125639883	-1.2383476374	 0.074048
H	 1.8885076502	 1.730747685	 0.6291832453	 0.121531
H	 2.0716244335	 1.2567136352	-1.0756672632	 0.14039
H	 0.5966337877	 3.171116826	-1.7860987356	 0.12564
H	 0.5380143577	 3.7299881653	-0.1126924047	 0.119832
H	 2.9994691657	 4.1680759317	-0.1311082684	 0.102219
H	 3.4200574327	 5.6281915029	-2.0736742082	 0.120993
H	 0.1875069015	 5.4916939835	-4.8430216072	 0.208155
50.1309	57.5155	78.9973	123.314	170.5168	224.4136	303.3856	345.3713	462.5624	510.0149	555.057	606.1342	633.5205	674.2914	761.1966	809.0655	823.1106	862.6977	969.1943	1001.664	1016.2619	1072.7884	1089.1037	1149.33	1153.6506	1214.1046	1263.2432	1284.1866	1310.1481	1357.7241	1389.3743	1429.3545	1458.9606	1464.3873	1485.0744	1837.4705	2239.7992	2852.7515	3024.0339	3039.8657	3079.3626	3091.6735	3106.3267	3114.8135	3500.8584
O=CCCC1OC1C#C	O=CCC[C@H]1O[C@H]1C#C	
InChI=1S/C7H8O2/c1-2-6-7(9-6)4-3-5-8/h1,5-7H,3-4H2	InChI=1S/C7H8O2/c1-2-6-7(9-6)4-3-5-8/h1,5-7H,3-4H2/t6-,7+/m0/s1
