18
gdb 30790	2.19616	1.3462	0.87074	1.7853	77.09	-0.1812	0.0449	0.2261	1311.4684	0.14711	-439.119613	-439.110042	-439.109098	-439.154216	34.978	
C	-0.2684921708	 1.5012909486	 0.005990289	-0.506803
C	-0.0758452839	 0.01470606	-0.0286988261	 0.215082
C	 0.2495624116	-0.7616220371	-1.1197149615	 0.160124
C	 0.4971902094	-0.4494526157	-2.5535838254	-0.182714
O	-0.2651033231	-1.2788726886	-3.4380331899	-0.421359
N	 0.3597848673	-2.0766180745	-0.6761958816	-0.333467
C	 0.0886634329	-2.1281594461	 0.6550933883	 0.383068
O	 0.1157687805	-3.343045363	 1.2582492393	-0.433573
C	-0.1741575574	-0.8573545973	 1.1067016826	-0.393608
H	-0.2888645151	 1.9335560751	-0.9983153027	 0.118508
H	-1.2101080588	 1.768694681	 0.4995321898	 0.121546
H	 0.5342687515	 2.0038190354	 0.5596583449	 0.125457
H	 0.307458756	 0.6178677352	-2.7324848639	 0.099446
H	 1.5394845645	-0.6410701989	-2.8394192363	 0.112396
H	-1.1887042318	-1.1849960636	-3.1792866241	 0.278036
H	 0.4747443697	-2.8765572975	-1.2751044282	 0.26759
H	-0.1199552689	-3.2247864153	 2.1831895501	 0.307304
H	-0.4063305137	-0.5737272176	 2.1223555857	 0.082967
59.9443	107.2835	132.7399	202.3383	247.3875	251.6037	268.2617	316.214	380.9832	408.7399	478.7409	515.1602	594.0808	629.0808	663.4556	692.7362	728.5821	811.1076	965.2384	991.5996	1017.8998	1047.6409	1059.0973	1141.5768	1167.5424	1189.3042	1207.9297	1255.4779	1330.5776	1362.3484	1412.9948	1421.9333	1453.4857	1482.0443	1493.7725	1502.6348	1542.1608	1588.7042	1650.6648	3006.4573	3021.947	3040.2953	3067.5605	3105.9591	3236.0013	3675.5429	3798.3986	3848.5206
CC1=C(CO)NC(O)=C1	Cc1c(CO)[nH]c(O)c1	
InChI=1S/C6H9NO2/c1-4-2-6(9)7-5(4)3-8/h2,7-9H,3H2,1H3	InChI=1S/C6H9NO2/c1-4-2-6(9)7-5(4)3-8/h2,7-9H,3H2,1H3
