17
gdb 123407	4.88591	0.91425	0.828	3.5931	74.12	-0.2664	-0.0361	0.2303	1372.5992	0.136163	-417.973248	-417.96531	-417.964366	-418.007171	29.132	
C	-0.0702620092	 1.5609026175	-0.0631376924	-0.346482
C	-0.2282342062	 0.0643976147	-0.2827707517	 0.035069
C	-0.0959135517	-0.8898889003	 0.87515364	-0.245116
C	-1.4461000756	-0.6500775828	 0.2446671062	-0.279147
C	 1.3570123927	 2.0076566162	-0.0427346105	 0.262911
C	 2.1161884306	 2.6647531634	-0.9584039625	-0.049997
O	 3.3507370362	 2.8202377027	-0.4849034244	-0.16271
N	 3.351632782	 2.2193424726	 0.8139411253	-0.003171
N	 2.2000877048	 1.7678515962	 1.0280454513	-0.16521
H	-0.6031618566	 2.1124494533	-0.8463473935	 0.111892
H	-0.5386096606	 1.8367496872	 0.8889160741	 0.12275
H	 0.1599873677	-0.2837915331	-1.2363149355	 0.085594
H	 0.3922559743	-1.8423587954	 0.7026419765	 0.115235
H	 0.0932365406	-0.4675197944	 1.8558701953	 0.126774
H	-2.1711853143	-0.0679446066	 0.80439771	 0.111952
H	-1.8829283618	-1.4371807653	-0.3596651178	 0.114029
H	 1.911568947	 3.0633871041	-1.9386526203	 0.165625
40.5124	67.9816	113.3881	288.1748	303.0062	345.5707	416.6285	622.923	637.1374	691.7843	753.3544	772.4289	804.1539	839.7541	852.0025	896.6552	953.4224	977.1959	995.3665	1043.2076	1059.2243	1079.0795	1119.1334	1138.3765	1158.2026	1195.6735	1226.7457	1243.6681	1262.7383	1326.5755	1355.5821	1409.8196	1465.1996	1468.9814	1477.5226	1507.8327	1619.2374	3033.2615	3073.3167	3130.9539	3138.9161	3142.9894	3210.8523	3227.5955	3282.3054
C(C1CC1)C1=CON=N1	C(C1CC1)c1conn1	
InChI=1S/C6H8N2O/c1-2-5(1)3-6-4-9-8-7-6/h4-5H,1-3H2	InChI=1S/C6H8N2O/c1-2-5(1)3-6-4-9-8-7-6/h4-5H,1-3H2
