21
gdb 65927	3.24451	1.07905	1.07503	0.8233	78.21	-0.2506	0.0595	0.3101	1255.6657	0.182397	-424.189768	-424.180902	-424.179958	-424.223625	33.639	
O	-0.0746507172	 1.483569743	-0.0191368194	-0.473914
C	 0.0444224325	 0.0819487169	-0.0053688084	 0.302385
C	 1.0397104805	-0.5738274666	-1.0014521869	-0.129605
O	 1.6316727345	-1.3487037706	 0.0596880696	-0.271659
C	 0.9678688653	-0.5594776789	 1.0664118545	-0.129575
C	-1.350589032	-0.5124876046	-0.0497650226	 0.043954
C	-2.4023686725	-0.0447718313	 0.9981222815	-0.243875
C	-3.4728972631	-0.0725394185	-0.1261101336	-0.211103
C	-2.3271452057	-0.0587307806	-1.1738103449	-0.243859
H	 0.8078744492	 1.8672873895	 0.0084714703	 0.280644
H	 0.629302741	-1.201778847	-1.7999570705	 0.108389
H	 1.7514675483	 0.1449267881	-1.4366904907	 0.08375
H	 1.6480721052	 0.1656180468	 1.5398546871	 0.083768
H	 0.5027918585	-1.1765541297	 1.8431317841	 0.108396
H	-1.2541141635	-1.6031928688	-0.0393326469	 0.077606
H	-2.5644686564	-0.6791365315	 1.8730385915	 0.091434
H	-2.1906372921	 0.9743641563	 1.3296372717	 0.117601
H	-4.0233906961	-1.0177362594	-0.139077569	 0.099472
H	-4.1930167883	 0.7481388136	-0.1563407573	 0.097143
H	-2.0924520196	 0.956207917	-1.5027322046	 0.117626
H	-2.4285916087	-0.7042040039	-2.0497347355	 0.09142
78.9944	90.3069	132.4364	180.6696	278.2306	291.3584	329.8524	350.1741	471.2459	486.3447	599.0327	727.026	768.666	786.0536	867.1078	892.4512	934.846	938.7862	945.9137	965.5154	1003.3404	1018.2586	1028.0621	1031.7927	1104.6002	1105.5801	1132.5435	1144.0865	1164.2691	1205.5964	1220.1171	1254.3484	1260.1297	1265.2476	1284.4021	1290.9201	1294.3684	1348.7203	1368.0037	1426.3706	1478.1011	1486.4872	1501.9161	1511.2706	1529.0179	2975.0154	2986.8592	3051.9349	3055.9507	3060.4445	3064.1599	3064.8533	3068.0163	3101.9281	3119.5514	3129.2292	3812.6345
OC1(COC1)C1CCC1	OC1(COC1)C1CCC1	
InChI=1S/C7H12O2/c8-7(4-9-5-7)6-2-1-3-6/h6,8H,1-5H2	InChI=1S/C7H12O2/c8-7(4-9-5-7)6-2-1-3-6/h6,8H,1-5H2
