17
gdb 26684	2.26578	1.60879	0.95497	0.7649	72.93	-0.1767	0.0382	0.2148	1193.8996	0.135018	-455.165258	-455.155447	-455.154503	-455.199464	35.517	
C	-0.1676944947	 1.5806997964	 0.0858796295	-0.516554
C	-0.0210854785	 0.0946417354	 0.0361451666	 0.22637
C	 0.0748971254	-0.6849280027	-1.0750283306	 0.168573
N	 0.0617688975	-0.3456442086	-2.4303258042	-0.590858
O	 0.1902986913	-2.015347964	-0.7186415279	-0.201956
C	 0.1649432219	-2.0495855385	 0.6457231876	 0.28854
O	 0.3374404522	-3.2447469018	 1.2564137366	-0.432892
C	 0.0311224665	-0.8027128478	 1.1666853195	 0.020605
N	-0.1214093677	-0.4406885301	 2.5194314914	-0.617672
H	 0.6779600015	 2.0573627289	 0.5984946133	 0.114832
H	-0.2186358982	 1.9876366946	-0.9263984764	 0.14029
H	-1.0743476966	 1.8742931876	 0.6277146286	 0.130022
H	 0.8829916319	-0.6899593201	-2.918691617	 0.242605
H	-0.7554560369	-0.7083605369	-2.9127338943	 0.241545
H	-0.3948277085	-3.8329629982	 1.0327917925	 0.302636
H	 0.0815753255	-1.2259523285	 3.1273079773	 0.243431
H	 0.4889117277	 0.3270636844	 2.7774995674	 0.240481
99.8289	141.4826	168.6029	195.4227	204.5067	223.1766	251.7248	288.9459	307.4089	342.0345	356.9385	547.3764	612.1703	623.122	632.1541	673.5583	735.0683	796.5759	826.1244	886.9234	1001.1777	1067.7814	1099.6394	1173.8943	1192.6514	1213.6819	1271.1012	1289.4038	1343.4269	1412.8528	1468.1034	1487.7477	1496.6409	1645.5791	1647.3729	1693.9381	1744.3707	3018.133	3065.8849	3126.6441	3484.8579	3509.2349	3547.4465	3597.9903	3753.498
CC1=C(N)OC(O)=C1N	Cc1c(N)oc(O)c1N	
InChI=1S/C5H8N2O2/c1-2-3(6)5(8)9-4(2)7/h8H,6-7H2,1H3	InChI=1S/C5H8N2O2/c1-2-3(6)5(8)9-4(2)7/h8H,6-7H2,1H3
