16
gdb 20921	3.23737	1.97586	1.3471	5.3217	66.91	-0.2204	0.0148	0.2352	917.5841	0.132035	-376.102223	-376.094304	-376.09336	-376.134957	28.42	
C	-0.0335477642	 1.5294268132	 0.0523390621	-0.380481
C	 0.0016377771	 0.0031568253	-0.0557423954	-0.152269
N	 0.7422936184	-0.4663369123	-1.2127788607	 0.026266
N	 0.1128891348	-0.670211512	-2.402845598	-0.165871
N	 1.0054804844	-1.0918732751	-3.2462834639	-0.187316
C	 2.2187126426	-1.1460839352	-2.6326868465	-0.134943
C	 2.066179231	-0.7420208782	-1.3222512346	 0.308027
N	 2.9307144792	-0.6824260129	-0.2277719949	-0.607364
H	 0.9714802395	 1.9496099407	 0.1639073734	 0.114331
H	-0.4856427466	 1.9624392615	-0.8434767228	 0.151112
H	-0.6238003373	 1.8310629394	 0.9226717158	 0.126797
H	 0.4586215393	-0.4467071099	 0.8312726328	 0.131706
H	-1.0100013122	-0.3957310409	-0.1567780034	 0.145897
H	 3.1092979028	-1.4682514491	-3.147964916	 0.109166
H	 3.8686447158	-0.9653052743	-0.4793970374	 0.259661
H	 2.9682701154	 0.2298045097	 0.2125939096	 0.255281
51.9278	124.305	186.007	202.9359	273.7647	301.2178	404.304	446.8159	654.327	678.9069	714.8595	730.1835	770.4086	793.7597	805.8247	971.0617	990.109	1047.6571	1100.3763	1105.0936	1155.2228	1222.1297	1266.2026	1302.5188	1354.2641	1369.4862	1392.7774	1410.4718	1476.411	1489.3016	1503.5036	1517.67	1607.6424	1659.5394	3040.3798	3062.7113	3103.2518	3122.4959	3134.5099	3264.2891	3526.2644	3621.8663
CCN1N=NC=C1N	CCn1nncc1N	
InChI=1S/C4H8N4/c1-2-8-4(5)3-6-7-8/h3H,2,5H2,1H3	InChI=1S/C4H8N4/c1-2-8-4(5)3-6-7-8/h3H,2,5H2,1H3
