20
gdb 120107	4.10184	1.00554	0.94214	2.7558	79.45	-0.22	0.0595	0.2795	1308.625	0.17109	-403.038416	-403.030187	-403.029243	-403.071563	32.369	
O	-0.6917941917	 1.9049714037	 0.1497482404	-0.419917
C	-0.1018905396	 0.6256078911	 0.2218511276	-0.057867
C	-1.1647958387	-0.4752061751	 0.3150893405	-0.156254
N	-2.084350285	-0.3073980066	-0.8131186473	-0.080519
C	-2.4856181884	-1.2063358856	-1.8537710726	-0.068925
C	-3.0380710855	-2.6047336858	-1.4025844421	-0.074424
C	-3.0873128379	-2.8390000025	 0.0859248464	-0.309842
C	-4.0802280956	-1.9076305618	-0.5414367166	-0.061932
C	-3.4975189336	-0.520582408	-0.979126729	-0.068454
H	-1.3708745343	 1.8178104146	-0.5332662303	 0.279743
H	 0.5410771397	 0.4290092359	-0.6527597677	 0.081211
H	 0.5354924844	 0.60680136	 1.1128540091	 0.100443
H	-0.6722338157	-1.4542445849	 0.3049668407	 0.106929
H	-1.7191571977	-0.3661596342	 1.2536785545	 0.115681
H	-2.2028465053	-1.0040471214	-2.8817784386	 0.097001
H	-3.1956474568	-3.4054780422	-2.1131765674	 0.092988
H	-3.5055784357	-3.8063645525	 0.3516654055	 0.115533
H	-2.3242508976	-2.5039321375	 0.7718894593	 0.119283
H	-5.1474178531	-2.0856866396	-0.5159539713	 0.092136
H	-4.134673832	 0.3315183122	-1.1915953611	 0.097185
62.4676	114.5942	180.6707	203.498	298.5404	369.2534	474.3503	483.7075	523.3912	661.8473	682.9162	700.7084	729.1399	746.7321	850.7324	878.5799	892.2756	919.5473	932.2388	959.493	965.2981	1020.4613	1032.2299	1057.9013	1060.1152	1083.7067	1087.8811	1093.3565	1139.6988	1179.7276	1222.7974	1253.3118	1269.6552	1279.4113	1283.7654	1320.8578	1368.5658	1387.05	1424.6642	1437.932	1471.6642	1498.6528	1506.8313	2962.099	3021.3425	3067.1368	3084.1286	3139.7086	3155.0946	3165.6747	3192.8771	3203.4977	3252.0981	3745.9057
OCCN1C2C3CC3C12	OCCN1[C@H]2[C@H]3C[C@H]3[C@@H]12	
InChI=1S/C7H11NO/c9-2-1-8-6-4-3-5(4)7(6)8/h4-7,9H,1-3H2	InChI=1S/C7H11NO/c9-2-1-8-6-4-3-5(4)7(6)8/h4-7,9H,1-3H2/t4-,5+,6-,7+,8?
