19
gdb 98159	2.24812	1.16601	1.07604	2.5559	78.13	-0.2436	-0.024	0.2196	1285.9022	0.153661	-423.012051	-423.001076	-423.000131	-423.048298	39.22	
C	-0.162585359	 1.5843840898	 0.4049905061	-0.386179
C	-0.2866079291	 0.0705171604	 0.5557989345	-0.273413
C	-1.2679907761	-0.5441453036	-0.421644987	 0.37202
O	-1.8022726924	 0.0762339586	-1.3066449736	-0.305968
C	-1.5956579119	-2.060780704	-0.2207151613	 0.08713
C	-2.0538105321	-2.6887357295	-1.5425111835	-0.411349
O	-0.3942095601	-2.6687928083	 0.2579797365	-0.447424
C	-2.6510908304	-2.1377110464	 0.7974182867	 0.338516
C	-3.5038683047	-2.2141310378	 1.6420757374	-0.506462
H	 0.5693386687	 1.9809394118	 1.1140866822	 0.110176
H	 0.1543710586	 1.8519345692	-0.6060621149	 0.131896
H	-1.1211358802	 2.0784272455	 0.5861014717	 0.127948
H	 0.6763793423	-0.4323400203	 0.4063074241	 0.14443
H	-0.5934372952	-0.2190649161	 1.5683865889	 0.131158
H	-1.228597126	-2.6596636227	-2.2582558635	 0.128828
H	-2.3517023061	-3.7284617698	-1.3807138029	 0.111627
H	-2.8974723544	-2.1334285647	-1.9541311261	 0.150219
H	-0.6251003339	-3.5338799997	 0.6129716216	 0.288814
H	-4.2615431281	-2.2778072825	 2.3841896031	 0.208032
42.1522	73.7332	130.479	172.6585	195.0323	198.2698	217.0633	234.5375	306.7375	308.9972	361.3512	406.8232	466.0157	557.6463	579.9588	619.6136	637.1976	667.0937	724.4913	805.7437	836.2054	939.368	987.928	1030.1185	1080.7002	1096.0181	1127.8517	1156.041	1183.3628	1271.6509	1348.1149	1374.1121	1398.5919	1414.5473	1441.2873	1480.4108	1484.4734	1494.0537	1499.0898	1819.8261	2223.4003	3044.0929	3050.1857	3051.8503	3070.5796	3120.4636	3126.7148	3127.776	3153.5904	3497.9125	3813.3995
CCC(=O)C(C)(O)C#C	CCC(=O)[C@@](C)(O)C#C	
InChI=1S/C7H10O2/c1-4-6(8)7(3,9)5-2/h2,9H,4H2,1,3H3	InChI=1S/C7H10O2/c1-4-6(8)7(3,9)5-2/h2,9H,4H2,1,3H3/t7-/m0/s1
