15
gdb 14116	4.05272	1.75216	1.37937	3.0254	61.79	-0.2456	0.016	0.2616	876.6083	0.118845	-399.78564	-399.778199	-399.777255	-399.817503	27.644	
N	 0.1002475508	 1.1723267006	-0.5250805247	-0.541728
C	 0.0046153963	 0.0235216149	 0.214001161	 0.309699
O	 0.9240384555	-0.3904965788	 0.8977997038	-0.374313
C	-1.282076567	-0.7087875284	 0.092577561	 0.16646
C	-1.7064254155	-1.7011816909	 1.168366044	-0.335951
C	-1.4698350957	-2.1971188735	-0.2065318077	 0.081583
O	-2.5907049396	-1.9565388189	-1.0557577207	-0.279193
C	-2.436859903	-0.5228355323	-0.891644714	-0.161514
H	 0.920765705	 1.7390671861	-0.3818045936	 0.262863
H	-0.7081108895	 1.6108382528	-0.9311409801	 0.258089
H	-0.9109157646	-1.8970762172	 1.8790296239	 0.151569
H	-2.718655511	-1.6669079354	 1.5608094951	 0.118116
H	-0.7498074216	-2.9505957641	-0.5023277965	 0.125175
H	-3.35085716	-0.0450324657	-0.5190464917	 0.110388
H	-2.1384387999	-0.0662118092	-1.8432354298	 0.108758
68.0441	174.7814	203.1058	245.1423	324.6545	404.7751	451.6913	499.7087	557.4373	651.3661	743.0309	765.3216	853.2976	888.4044	937.3709	990.0156	994.3744	1016.3535	1058.9466	1080.638	1089.0502	1107.8262	1168.6838	1228.7977	1239.9614	1306.9519	1361.5158	1419.2679	1467.0735	1515.8053	1618.4849	1779.2336	3016.2871	3065.4722	3122.7876	3194.642	3230.0554	3597.2728	3729.2894
NC(=O)C12CC1OC2	NC(=O)[C@]12C[C@H]1OC2	
InChI=1S/C5H7NO2/c6-4(7)5-1-3(5)8-2-5/h3H,1-2H2,(H2,6,7)	InChI=1S/C5H7NO2/c6-4(7)5-1-3(5)8-2-5/h3H,1-2H2,(H2,6,7)/t3-,5+/m1/s1
