18
gdb 82708	2.29639	2.17577	1.59029	3.9296	74.58	-0.2286	-0.0049	0.2237	915.1833	0.149289	-401.922112	-401.914954	-401.91401	-401.953444	28.626	
C	-0.0983069356	 1.5916496444	 0.0876424286	-0.412477
C	 0.0209304818	 0.0867460691	-0.0388752521	 0.040961
C	 0.7211599684	-0.5894935457	-1.2486951146	-0.078197
C	 2.1372089165	-0.037151892	-1.5710799592	-0.239656
C	 2.7490274166	-0.7898212273	-0.3335942556	-0.197816
C	 1.3911978105	-1.5465833531	-0.2154825036	 0.014422
N	 0.9782300836	-0.6299268783	 0.9133884601	-0.191684
C	 2.2893225659	-0.0184367143	 0.8988586169	 0.412013
O	 2.7415330741	 0.8393251537	 1.5984712378	-0.328844
H	 0.8607313134	 2.0987075506	-0.0427609423	 0.137257
H	-0.7948298242	 1.9693874384	-0.6683485189	 0.119337
H	-0.4851410594	 1.8621032214	 1.0746113768	 0.140872
H	-0.9620491424	-0.3743407372	 0.1086233559	 0.093395
H	 0.102878485	-0.8955455811	-2.0927994766	 0.076018
H	 2.5092125086	-0.5008737337	-2.4876379054	 0.120046
H	 2.2916683554	 1.0432149937	-1.6351984603	 0.116154
H	 3.7532019074	-1.2025115302	-0.417260688	 0.091857
H	 1.2449244545	-2.6177301481	-0.1019435695	 0.086343
148.7041	175.5451	196.6647	271.9148	367.8999	465.3534	524.4765	578.4804	627.4178	719.0223	764.6678	801.6441	853.7876	870.0239	891.567	931.3641	945.3584	953.2729	973.4937	1012.1114	1048.9081	1084.1363	1103.341	1116.7785	1139.8977	1164.6765	1192.6575	1206.1396	1225.1234	1238.0023	1276.5802	1301.978	1321.8321	1382.4288	1415.4568	1481.8386	1487.3956	1501.9718	1887.5812	3037.5289	3043.8526	3062.3455	3105.6373	3111.2281	3116.6873	3125.2227	3128.1242	3150.1664
CC1C2CC3C2N1C3=O	C[C@H]1[C@H]2C[C@@H]3[C@H]2N1C3=O	
InChI=1S/C7H9NO/c1-3-4-2-5-6(4)8(3)7(5)9/h3-6H,2H2,1H3	InChI=1S/C7H9NO/c1-3-4-2-5-6(4)8(3)7(5)9/h3-6H,2H2,1H3/t3-,4+,5+,6-/m0/s1
