14
gdb 133693	2.52875	1.38962	1.22395	2.3552	50.53	-0.2567	0.0525	0.3093	1012.1152	0.096123	-605.300407	-605.292019	-605.291075	-605.334141	30.872	
O	 0.3014860568	 1.3017205961	-0.1255251869	-0.417478
C	 0.0779487965	-0.0571463604	-0.0517363341	 0.121236
C	-0.3771534425	-0.6660938793	 1.241641062	 0.019337
O	-0.6037478238	 0.2798728074	 2.2455146493	-0.424301
C	-1.3219587576	-0.6726229318	 0.046773697	-0.309537
C	-2.5926956572	 0.1215265448	 0.1156014197	 0.308428
F	-2.414458729	 1.4410847675	 0.252862355	-0.075049
F	-3.3424516244	-0.0742594446	-0.975353152	-0.070665
F	-3.3413132347	-0.269513295	 1.1824487061	-0.110405
H	-0.0314828739	 1.6864290898	 0.6971699647	 0.301467
H	 0.7792551718	-0.6120492662	-0.6662216088	 0.121619
H	 0.0314397874	-1.6154026833	 1.5822636678	 0.106657
H	-1.4852416032	 0.1387862649	 2.6100223367	 0.304922
H	-1.475021346	-1.62415646	-0.4505932064	 0.123768
36.5652	146.6412	171.9989	248.1416	297.5292	314.4597	357.5736	459.8006	482.1229	500.5346	532.0556	610.4059	682.9385	728.6359	762.6935	792.3262	876.4116	1014.1939	1039.6903	1052.1485	1116.2652	1130.2019	1169.9357	1190.0142	1237.2422	1271.143	1315.9726	1346.8918	1405.9667	1411.8393	1469.7429	3121.4581	3167.2306	3178.2062	3755.8164	3798.3537
OC1C(O)C1C(F)(F)F	O[C@H]1[C@@H](O)[C@H]1C(F)(F)F	
InChI=1S/C4H5F3O2/c5-4(6,7)1-2(8)3(1)9/h1-3,8-9H	InChI=1S/C4H5F3O2/c5-4(6,7)1-2(8)3(1)9/h1-3,8-9H/t1-,2+,3-
