17
gdb 37675	3.0896	2.50713	2.12698	0.3476	72.19	-0.2031	0.0749	0.278	744.8019	0.140983	-380.807943	-380.802801	-380.801857	-380.837056	23.371	
C	 0.0041012176	 1.5114321748	 0.066473061	-0.195118
C	 1.4461771925	 1.9231202481	-0.1402099407	-0.034689
C	 2.1431210724	 0.8161175384	-0.857447145	-0.047015
C	 1.2431263911	-0.4155375976	-0.7705039738	-0.055535
C	 1.7227118925	-1.2069560117	 0.4744526574	-0.107645
C	 2.0587633623	-0.0218726216	 1.3452258124	-0.02894
C	 0.6251821308	-0.5139228115	 1.236874939	-0.045278
N	 0.0219230568	 0.0420471233	 0.0211267704	-0.115491
N	 2.4903848527	 1.1273963186	 0.5413070056	-0.125297
H	-0.4136874487	 1.8356113504	 1.0267463991	 0.109321
H	-0.6256789745	 1.9231033573	-0.7317637824	 0.105397
H	 1.6986051471	 2.9704586108	-0.2868678947	 0.089289
H	 2.8949542534	 0.9456814334	-1.6304705688	 0.088758
H	 1.0133713378	-0.9336866436	-1.7012241858	 0.077717
H	 2.1229372358	-2.2081016204	 0.5421034949	 0.097353
H	 2.594366422	-0.1636980357	 2.2764578239	 0.097397
H	 0.0166524482	-0.8374484431	 2.0751684075	 0.089776
335.4462	452.0663	546.4192	615.0819	678.1647	701.0734	741.9583	781.8585	798.2732	803.3894	830.0032	853.4023	890.3403	906.7781	923.3304	962.3993	985.2684	999.1102	1023.6786	1036.2796	1055.0298	1073.6199	1079.3196	1102.6476	1113.3177	1148.8714	1208.41	1230.3514	1239.9301	1259.4551	1267.6386	1295.2538	1304.2087	1325.1288	1367.8534	1393.7913	1493.8746	3024.9787	3068.4557	3114.5861	3136.0495	3152.0213	3158.6434	3185.0503	3221.6945
C1C2C3C4C5C(C5N14)N23	C1[C@@H]2[C@@H]3[C@H]4[C@H]5[C@H]([C@H]5N14)N23	
InChI=1S/C7H8N2/c1-2-4-5-3-6(8(1)5)7(3)9(2)4/h2-7H,1H2	InChI=1S/C7H8N2/c1-2-4-5-3-6(8(1)5)7(3)9(2)4/h2-7H,1H2/t2-,3-,4-,5-,6+,7-,9?/m1/s1
