21
gdb 92927	2.69337	1.15718	0.90237	3.0426	85.47	-0.2364	-0.0264	0.21	1343.3106	0.18262	-387.123498	-387.114444	-387.1135	-387.157707	33.974	
C	 0.035804986	 1.60347226	-0.0350558522	-0.4047
C	 0.0241377178	 0.0727016099	-0.0405640308	 0.025754
C	 0.7572827559	-0.499181917	-1.2645538423	-0.239709
C	 0.9938891855	-1.9815097728	-1.1618550884	-0.066003
C	 0.9148743064	-2.6686697935	-0.0225743626	-0.071726
C	 0.5800145308	-2.0429951494	 1.3134539271	-0.125435
C	 0.6279918104	-0.5018285845	 1.2521253424	-0.231765
C	-0.7906040295	-2.5528681058	 1.745501339	 0.160703
O	-0.9715673844	-3.4366361492	 2.5421477535	-0.252007
H	 1.058502574	 1.988197605	 0.0573466613	 0.114542
H	-0.3887076962	 2.0071121277	-0.9604231907	 0.113148
H	-0.5462517888	 2.0020940125	 0.8024387411	 0.113809
H	-1.0219789627	-0.2575674054	-0.1051740269	 0.079787
H	 0.1899858009	-0.2757590567	-2.1771933429	 0.105314
H	 1.7234443242	 0.0139673102	-1.3925829276	 0.10886
H	 1.2634637101	-2.501794485	-2.0782195448	 0.092435
H	 1.088616435	-3.7413993092	-0.0157913762	 0.101768
H	 1.2821008528	-2.4154917158	 2.0683450319	 0.096611
H	 1.6774818531	-0.188718832	 1.3226079179	 0.105025
H	 0.1209335121	-0.0756342268	 2.1266848558	 0.099779
H	-1.6487953433	-2.0520515021	 1.2403699552	 0.07381
55.0331	99.6025	131.3009	233.3925	243.176	288.5601	314.1627	396.2241	410.7743	446.0018	480.8402	595.1865	726.0546	754.2653	822.8144	882.335	901.1706	905.1685	953.4352	992.7184	1006.8967	1010.018	1017.5204	1093.6129	1107.0555	1126.5616	1143.2624	1191.5737	1227.7217	1268.5211	1294.5115	1302.0987	1326.3744	1341.8121	1377.979	1396.4247	1407.1262	1414.3054	1426.0086	1470.8712	1488.7083	1497.3232	1499.5504	1714.8101	1827.7169	2863.1594	2988.0912	3005.3207	3018.9166	3025.7986	3038.7382	3043.7916	3058.6956	3091.5396	3098.7089	3146.0465	3171.6418
CC1CC=CC(C1)C=O	C[C@H]1CC=C[C@@H](C1)C=O	
InChI=1S/C8H12O/c1-7-3-2-4-8(5-7)6-9/h2,4,6-8H,3,5H2,1H3	InChI=1S/C8H12O/c1-7-3-2-4-8(5-7)6-9/h2,4,6-8H,3,5H2,1H3/t7-,8-/m0/s1
