17
gdb 79939	2.97572	1.70011	1.62203	1.3513	71.89	-0.2246	0.0079	0.2325	903.339	0.138653	-417.956934	-417.949921	-417.948977	-417.988055	28.363	
O	-0.199722169	 1.4782153302	 0.0089213147	-0.435198
C	-0.0847021641	 0.0850975286	 0.0509970999	 0.112592
C	-0.4753260186	-0.673655222	 1.2935835707	-0.082803
N	-1.2088102231	 0.1589320252	 2.2380407032	-0.327443
C	-2.3499786158	 0.326931922	 1.6885647885	 0.349658
N	-3.3359010947	 1.3017991395	 1.6117239432	-0.351371
C	-3.3832715003	 1.0780233086	 0.1181945498	-0.212427
C	-2.6644719641	-0.3075134929	 0.3622866587	-0.090311
C	-1.3010599698	-0.8107282707	-0.0383207226	-0.147096
H	-0.1483478382	 1.7822680665	 0.9244023275	 0.29443
H	 0.7885414353	-0.2842681278	-0.483981172	 0.098911
H	 0.1643452733	-1.4527061499	 1.6925377823	 0.091685
H	-3.1632648346	 2.2234831735	 1.9964840799	 0.242748
H	-4.3979168341	 1.039612473	-0.2815887381	 0.115969
H	-2.7564295512	 1.7811431817	-0.4314748389	 0.144664
H	-3.3998323489	-1.113934004	 0.4038873768	 0.106114
H	-1.2226818622	-1.7017225215	-0.6488834736	 0.089877
150.9414	172.133	258.1515	326.617	359.058	439.6336	573.9637	628.8187	640.7689	698.9292	729.0601	738.9985	793.5741	847.0998	854.2018	924.3666	932.2512	974.0793	980.3834	994.793	1060.6924	1077.7961	1091.2724	1113.7465	1151.9988	1189.4163	1207.7035	1214.7047	1288.6536	1313.9752	1329.3129	1337.4021	1358.8935	1372.6852	1410.331	1498.3262	1722.4851	3074.4716	3086.1902	3118.483	3147.9944	3174.3637	3188.5664	3552.3911	3761.8348
OC1C2N=C3NCC3C12	O[C@H]1[C@H]2[N][C]3NC[C@H]3[C@@H]12	
InChI=1S/C6H8N2O/c9-5-3-2-1-7-6(2)8-4(3)5/h2-5,9H,1H2,(H,7,8)	InChI=1S/C6H8N2O/c9-5-3-2-1-7-6(2)8-4(3)5/h2-5,9H,1H2,(H,7,8)/t2-,3+,4-,5+/m0/s1
