17
gdb 36324	2.72032	1.10108	0.93443	4.0994	78.26	-0.2445	0.0179	0.2625	1274.9268	0.135712	-380.826845	-380.818037	-380.817093	-380.861034	32.358	
C	 1.0966810624	-0.7237399303	 0.5857227299	-0.477418
C	 0.4978320193	 0.2841174132	 0.3138111911	 0.335655
C	-0.1988783789	 1.5170413065	-0.0303711794	-0.130086
C	-0.7146476602	 2.3504827959	 1.1883008209	-0.274806
C	 0.4889304535	 3.2949247947	 0.936543304	 0.058236
C	 1.643580559	 3.0881866015	 1.9405538507	-0.360739
C	 2.8735089403	 3.7440782175	 1.5024567791	 0.255317
N	 3.8358593941	 4.2611695308	 1.1250484008	-0.304287
N	 0.6669002709	 2.6742950448	-0.392258763	-0.310244
H	 1.6203278092	-1.6185464231	 0.8174331272	 0.207176
H	-0.9532662427	 1.3058974616	-0.7962156548	 0.1106
H	-1.6781815189	 2.8207083868	 0.990903116	 0.123684
H	-0.7455642086	 1.8335320437	 2.1475253362	 0.119491
H	 0.2599813149	 4.3640119722	 0.8776977305	 0.097061
H	 1.3567763963	 3.4887783466	 2.920258491	 0.151547
H	 1.8410544267	 2.0180388866	 2.0674959548	 0.163883
H	 1.6185239927	 2.453118861	-0.6678524749	 0.23493
50.228	93.1105	132.0894	190.306	227.4038	330.3685	384.742	400.082	481.2475	524.8435	555.1213	633.3823	654.5862	699.1812	783.2762	821.0518	860.5519	934.2305	943.202	984.8164	1030.0195	1048.7742	1087.3356	1113.9816	1150.5103	1220.8753	1230.2529	1268.3298	1278.9734	1324.7102	1334.7883	1376.1246	1406.725	1459.5104	1483.6471	2224.1913	2359.3257	3039.1015	3040.2735	3047.4821	3088.2686	3092.6499	3152.4671	3499.8453	3528.7058
C#CC1CC(CC#N)N1	C#C[C@H]1C[C@@H](CC#N)N1	
InChI=1S/C7H8N2/c1-2-6-5-7(9-6)3-4-8/h1,6-7,9H,3,5H2	InChI=1S/C7H8N2/c1-2-6-5-7(9-6)3-4-8/h1,6-7,9H,3,5H2/t6-,7+/m0/s1
