21
gdb 106629	2.58666	1.46716	1.27259	1.3871	77.93	-0.2394	0.0788	0.3182	1116.8281	0.182536	-424.195452	-424.186743	-424.185799	-424.228674	33.561	
C	-0.0963853628	 1.3645567006	 0.0187473838	-0.263454
O	 0.1487406357	-0.0293925855	 0.0301932286	-0.298701
C	 0.7015109213	-0.5364683336	-1.1332529103	 0.379461
C	-0.0028823702	-0.5296031325	-2.5376159001	-0.307399
C	 1.0378017293	-1.6497620615	-2.7630139749	 0.079887
O	 2.2997350534	-0.9501108185	-2.7127190761	-0.274125
C	 2.1242159782	-0.1048712174	-1.5589266333	-0.143321
C	 0.8026364226	-2.0864553666	-1.291577075	-0.023238
C	 1.8450215893	-2.9027754304	-0.5475892776	-0.443657
H	 0.8322834355	 1.9493402005	-0.0365674864	 0.113657
H	-0.7429211739	 1.6542790365	-0.8214908609	 0.114853
H	-0.605003628	 1.6044853573	 0.9549495487	 0.130621
H	-1.031493151	-0.8898220166	-2.4898345255	 0.105099
H	 0.0844774206	 0.3571767583	-3.1689548344	 0.09706
H	 1.0289004947	-2.3299976962	-3.6117253142	 0.081399
H	 2.1966950119	 0.9492495435	-1.8500108906	 0.097026
H	 2.8831532175	-0.3187717932	-0.7982708848	 0.10307
H	-0.1971059684	-2.5130367303	-1.1728385973	 0.079204
H	 2.8591413765	-2.61440201	-0.8350248747	 0.133363
H	 1.7401913794	-2.7769581601	 0.5352420701	 0.124673
H	 1.7294172385	-3.9686765342	-0.7699371551	 0.114523
72.4274	162.223	176.7023	196.6896	250.0278	281.756	342.4408	378.0367	468.3886	495.0368	582.9738	618.9871	692.5531	764.9817	821.1028	885.0584	900.9317	939.2077	956.5789	1007.1649	1019.1595	1042.466	1067.7887	1094.7086	1112.4375	1138.845	1162.9778	1180.3611	1188.3112	1199.3138	1225.5709	1229.3894	1255.0226	1271.683	1301.0599	1369.3747	1400.4239	1412.6517	1481.3181	1489.7147	1493.1328	1496.9604	1504.2862	1507.311	1532.3482	2993.4149	3025.994	3038.1222	3046.9098	3067.2901	3069.8593	3078.0765	3098.7259	3121.3097	3122.7634	3142.7998	3148.9992
COC12CC(OC1)C2C	CO[C@@]12C[C@@H](OC1)[C@H]2C	
InChI=1S/C7H12O2/c1-5-6-3-7(5,8-2)4-9-6/h5-6H,3-4H2,1-2H3	InChI=1S/C7H12O2/c1-5-6-3-7(5,8-2)4-9-6/h5-6H,3-4H2,1-2H3/t5-,6-,7+/m1/s1
