19
gdb 126711	3.21002	1.10219	0.88096	2.0356	80.33	-0.2053	0.0333	0.2386	1365.1837	0.159336	-419.243564	-419.23406	-419.233116	-419.278755	34.185	
C	-0.0861016778	 1.5626816348	-0.1250571049	-0.370456
C	-0.0596161249	 0.0466200511	 0.0773064546	-0.137237
N	-1.3774931692	-0.5535454682	 0.0154302754	 0.043433
C	-1.9115279211	-1.3181727469	-0.9668967389	-0.108569
C	-3.2173649274	-1.6135334163	-0.6230109336	 0.086576
C	-4.2313238701	-2.4321896517	-1.3572798092	-0.503494
C	-3.3671979229	-0.952617242	 0.6179387055	 0.374707
O	-4.4962829607	-0.9578418556	 1.3620117103	-0.430861
N	-2.2743300735	-0.3135049342	 1.0082060722	-0.385958
H	 0.9247381946	 1.973276822	-0.0392142531	 0.115864
H	-0.4817386029	 1.8184545498	-1.1125288361	 0.123017
H	-0.7189182766	 2.0316361656	 0.6319597306	 0.145728
H	 0.5488865115	-0.4392687136	-0.6911870497	 0.115491
H	 0.3790114909	-0.1971702492	 1.0506845707	 0.125518
H	-1.3320688363	-1.6022556219	-1.832663242	 0.125939
H	-4.563746991	-3.2925764309	-0.7653461911	 0.131425
H	-5.1267727485	-1.8474943645	-1.5965110084	 0.131402
H	-3.8217961074	-2.8132746077	-2.297024481	 0.117101
H	-4.3145214069	-0.4368879006	 2.1539368186	 0.300375
37.4255	81.4793	100.7398	202.1673	232.8383	239.7888	298.5575	320.9957	387.8734	418.8086	518.9643	599.809	630.3092	652.6705	726.3565	792.4993	795.5049	812.8698	956.31	1004.2658	1031.9986	1067.0218	1094.5173	1118.0438	1192.4453	1206.0183	1263.1704	1285.7647	1365.4191	1390.7589	1407.2987	1420.6083	1443.9157	1474.9561	1481.4853	1485.1195	1487.6795	1504.9222	1508.646	1565.4901	1642.1384	3028.4515	3043.8275	3047.917	3076.9247	3093.4296	3107.8748	3116.1748	3135.4362	3244.5852	3798.0655
CCN1C=C(C)C(O)=N1	CCn1cc(C)c(O)n1	
InChI=1S/C6H10N2O/c1-3-8-4-5(2)6(9)7-8/h4H,3H2,1-2H3,(H,7,9)	InChI=1S/C6H10N2O/c1-3-8-4-5(2)6(9)7-8/h4H,3H2,1-2H3,(H,7,9)
