23
gdb 61405	2.41776	1.06236	0.91055	2.2823	82.85	-0.2385	-0.0242	0.2143	1430.1953	0.200239	-425.442325	-425.430924	-425.42998	-425.479072	41.388	
C	-1.1411472398	 1.0524116188	 0.5875703003	-0.404738
C	 0.0047844198	 0.1948422632	 0.039508543	 0.03688
O	 0.830963788	-0.1622626688	 1.1294927405	-0.297834
C	 2.240966015	-0.3771934114	 0.9010228052	 0.358585
C	 2.9290903795	 0.9528065532	 0.5561052385	-0.407857
C	 2.7420984496	-0.8962977191	 2.2517566464	-0.398406
C	 2.4893834614	-1.4231440107	-0.1956745452	-0.423431
C	-0.5908471901	-1.0502025704	-0.615834608	 0.149693
O	-0.9384705151	-1.1154534281	-1.7657592941	-0.251431
H	-0.7340074643	 1.953856584	 1.0522763975	 0.128663
H	-1.8243424472	 1.3371707195	-0.2169601285	 0.133946
H	-1.699972495	 0.4989911653	 1.3486676616	 0.130144
H	 0.5417817905	 0.7583583629	-0.7328401186	 0.092673
H	 2.7167698109	 1.6988439652	 1.3271710861	 0.120683
H	 4.013403774	 0.816992521	 0.4963817819	 0.116593
H	 2.5981405385	 1.3486613063	-0.4087326228	 0.116855
H	 2.2341581153	-1.8291326379	 2.5116144752	 0.118476
H	 3.8197122755	-1.0814510299	 2.2207702136	 0.111564
H	 2.5358768053	-0.1650951861	 3.038106614	 0.120701
H	 2.1368490594	-1.0861325524	-1.1750333844	 0.128391
H	 3.5614868682	-1.6229984595	-0.2867972994	 0.118381
H	 1.9900637027	-2.3659561598	 0.0476108391	 0.120833
H	-0.7057063322	-1.9038708854	 0.092279748	 0.080635
43.848	58.7154	104.1111	183.234	202.9295	225.7217	256.7978	270.4569	279.7467	304.2695	324.9559	363.2531	382.5763	412.2371	467.414	505.3849	573.1712	747.8655	859.743	886.3933	909.4449	919.475	924.9279	957.9655	1027.529	1042.3302	1046.2612	1103.4733	1145.1503	1157.1758	1221.8525	1254.1695	1277.1201	1303.2285	1345.9863	1388.7608	1395.1412	1398.5952	1404.2793	1424.7402	1472.8578	1482.6152	1484.0383	1485.9464	1496.735	1499.2939	1503.3377	1517.9684	1834.4838	2867.8733	3035.0465	3037.2754	3042.5766	3044.4357	3047.5208	3104.5213	3110.0296	3113.2332	3116.0798	3120.4462	3122.0065	3123.7571	3132.0969
CC(OC(C)(C)C)C=O	C[C@@H](OC(C)(C)C)C=O	
InChI=1S/C7H14O2/c1-6(5-8)9-7(2,3)4/h5-6H,1-4H3	InChI=1S/C7H14O2/c1-6(5-8)9-7(2,3)4/h5-6H,1-4H3/t6-/m1/s1
