15
gdb 25905	2.81323	1.54019	0.9961	5.5558	70.56	-0.1952	-0.01	0.1851	1103.7382	0.11457	-454.022035	-454.014108	-454.013164	-454.054419	30.591	
N	 0.0482504693	 1.2772584924	-0.0496692492	-0.546417
C	-0.0006855797	-0.0900943735	-0.0793445172	 0.35389
O	 1.0377238191	-0.7544152033	-0.1638226871	-0.421864
C	-1.3047804961	-0.7409695339	-0.0394874271	 0.048767
C	-2.5968700413	-0.2316806879	-0.0072075345	-0.184905
N	-3.4507822776	-1.2822611203	 0.0311001459	-0.241823
C	-2.7593502726	-2.4848642396	 0.021617956	-0.184804
C	-1.4213097075	-2.1737665079	-0.0256324846	 0.267776
O	-0.3879565227	-3.0315046874	-0.0530699722	-0.440155
H	 0.9625699793	 1.6828714611	 0.0741518756	 0.260381
H	-0.7372675902	 1.8070853682	 0.2872414676	 0.255941
H	-2.9638746026	 0.7821614635	-0.0292755268	 0.123525
H	-4.4522978863	-1.2052872419	 0.0478570436	 0.268066
H	-3.2680982961	-3.4325293264	 0.046389879	 0.129121
H	 0.4087221351	-2.460651093	-0.1137424592	 0.312502
81.9953	172.5067	214.0494	313.8203	330.394	354.0619	462.7101	464.5906	517.6719	535.1716	618.7421	637.8208	674.973	693.8992	725.1088	729.8923	734.1434	803.0147	904.2051	1075.1142	1078.0975	1115.337	1190.3451	1236.6011	1315.9604	1329.3573	1435.5852	1485.0803	1500.1356	1551.1423	1612.7047	1643.472	1733.1621	3254.2605	3286.7066	3470.2507	3595.5827	3688.418	3724.4463
NC(=O)C1=CNC=C1O	NC(=O)c1c[nH]cc1O	
InChI=1S/C5H6N2O2/c6-5(9)3-1-7-2-4(3)8/h1-2,7-8H,(H2,6,9)	InChI=1S/C5H6N2O2/c6-5(9)3-1-7-2-4(3)8/h1-2,7-8H,(H2,6,9)
