21
gdb 39594	3.16626	1.48276	1.07487	1.1489	83.37	-0.2392	0.0205	0.2597	1145.3424	0.186259	-387.108433	-387.101177	-387.100233	-387.139773	30.268	
C	-0.0636864264	 1.5278230698	 0.0287896704	-0.327278
C	 1.4128972739	 1.8840365907	-0.0464289453	-0.067899
C	 2.1888234131	 0.8854194879	 0.3876526889	-0.122611
C	 1.3325372576	-0.2605108718	 0.8768578807	 0.019953
C	 1.7050288122	-1.7352121913	 0.7389009386	-0.252631
C	 0.4787316859	-2.5455406028	 1.2156892764	-0.20451
C	-0.8264287869	-2.0952771391	 0.5338952331	-0.073351
O	-1.0634624863	-0.6927625626	 0.6264360612	-0.26497
C	 0.0371179646	 0.0000507324	 0.0865260473	 0.170427
H	-0.525324195	 1.9207899688	 0.9463660095	 0.114686
H	-0.6527435866	 1.8955775219	-0.8166380315	 0.10357
H	 1.7652220749	 2.8498352952	-0.3906250942	 0.093119
H	 3.2710626519	 0.9094362117	 0.4547742567	 0.090429
H	 1.1013850294	-0.0833936343	 1.9415506382	 0.082843
H	 1.93309189	-1.970712875	-0.3092952337	 0.096064
H	 2.5902490601	-2.0004847736	 1.3277545324	 0.092007
H	 0.6183916955	-3.6164701923	 1.0291728394	 0.094462
H	 0.3700941995	-2.4202160919	 2.3001345544	 0.10474
H	-0.8036089455	-2.3903072164	-0.529715721	 0.085491
H	-1.6894895804	-2.5819734926	 0.9967667702	 0.104272
H	 0.2149537586	-0.3552178047	-0.9459307316	 0.061186
164.4164	182.2619	313.8858	324.9278	356.0418	431.4538	453.1149	498.2742	537.7442	605.8654	723.1448	756.1195	827.0287	854.0378	878.9445	905.0415	940.7404	954.1842	964.1379	1003.9742	1049.8864	1081.2697	1083.4304	1100.7876	1117.6671	1144.8887	1164.4781	1187.5899	1209.1937	1226.2849	1279.373	1290.574	1306.5035	1332.1729	1341.1245	1370.5731	1374.2842	1385.5097	1410.3248	1425.7309	1477.5193	1488.6244	1494.2476	1501.4051	1656.4801	2923.3817	2953.9887	2956.4364	3011.1365	3018.735	3028.0874	3063.1376	3075.2557	3079.1092	3087.581	3180.379	3205.7798
C1C=CC2CCCOC12	C1C=C[C@@H]2CCCO[C@@H]12	
InChI=1S/C8H12O/c1-3-7-4-2-6-9-8(7)5-1/h1,3,7-8H,2,4-6H2	InChI=1S/C8H12O/c1-3-7-4-2-6-9-8(7)5-1/h1,3,7-8H,2,4-6H2/t7-,8+/m1/s1
