17
gdb 31743	6.13917	0.82931	0.74207	1.8855	72.51	-0.1959	0.0334	0.2294	1490.2413	0.135075	-458.971141	-458.962042	-458.961098	-459.006227	32.188	
C	-0.1960919708	 1.4663090733	-0.0174182471	-0.245588
O	-0.0358672936	 0.0667972297	-0.2424224273	-0.268136
C	-1.1092019518	-0.7084206141	-0.0669599064	 0.488124
C	-1.2616503783	-2.0473605522	-0.2545610829	-0.465477
C	-2.6269137955	-2.3301147353	 0.1058970926	 0.231464
C	-3.3185833419	-3.6611073638	 0.0799051075	-0.164052
O	-4.5218753803	-3.6721679945	 0.8311221248	-0.410821
C	-3.1813243609	-1.1492278592	 0.4806182689	-0.13525
O	-2.2493252868	-0.1360871402	 0.3796442803	-0.196611
H	 0.7775684276	 1.9105712776	-0.225399589	 0.1386
H	-0.9501612866	 1.8913617306	-0.6877571565	 0.135585
H	-0.4848379947	 1.6709288369	 1.0184403556	 0.135723
H	-0.5064611424	-2.73455536	-0.5981457518	 0.110232
H	-3.6109307085	-3.9233991609	-0.9440938167	 0.127246
H	-2.6232400304	-4.4473955939	 0.4161174232	 0.097146
H	-4.2934482516	-3.4224540895	 1.7330732737	 0.281391
H	-4.1616305934	-0.8531123645	 0.807859651	 0.140424
28.7167	73.8349	148.5131	162.6658	203.0035	264.6805	316.4702	368.8301	384.6207	554.0351	613.2487	652.6777	663.9373	698.8018	741.6337	756.6602	951.2033	983.4359	1006.2675	1055.1605	1071.2691	1126.015	1176.63	1180.4911	1195.1876	1209.8277	1241.467	1317.3296	1366.2531	1405.2958	1442.7069	1480.9808	1485.3545	1502.27	1502.6799	1610.0448	1666.0419	2972.1125	3033.6899	3048.4583	3101.0812	3150.6561	3268.9755	3302.095	3805.6837
COC1=CC(CO)=CO1	COc1cc(CO)co1	
InChI=1S/C6H8O3/c1-8-6-2-5(3-7)4-9-6/h2,4,7H,3H2,1H3	InChI=1S/C6H8O3/c1-8-6-2-5(3-7)4-9-6/h2,4,7H,3H2,1H3
