21
gdb 72740	2.48995	1.68014	1.4922	1.8731	81.78	-0.2354	0.0721	0.3074	1023.6125	0.182985	-387.044992	-387.036982	-387.036038	-387.077132	32.18	
C	 0.0212524998	 1.5762123474	-0.0411619621	-0.497383
C	 0.0146946396	 0.0666810334	 0.0530163107	 0.324117
C	 0.9240720876	-0.6995686987	-0.9704821287	-0.279933
C	 1.8277918474	-1.2210793932	 0.1922962748	-0.343389
C	 0.7705951043	-0.7407760633	 1.1785824612	 0.286276
C	 0.7480876521	-0.3313585076	 2.6424351854	-0.183231
O	-0.6055464525	-0.8369950593	 2.7834445844	-0.298291
C	-0.567368776	-1.4661046821	 1.4780242715	 0.083757
C	-1.3195860694	-0.662299313	 0.3930939389	-0.310825
H	 1.0407339985	 1.972377321	-0.1162086546	 0.111002
H	-0.529123254	 1.9139042687	-0.9281279169	 0.118046
H	-0.4542841768	 2.031646511	 0.8345527354	 0.121292
H	 0.400401434	-1.4910130294	-1.5133976709	 0.100563
H	 1.4279853057	-0.0606794718	-1.6997509142	 0.101344
H	 2.0808096378	-2.2854186112	 0.2043089825	 0.099712
H	 2.7581149294	-0.6489492873	 0.2701071188	 0.104587
H	 1.4492994575	-0.8823745845	 3.286305082	 0.096366
H	 0.8194149618	 0.739268339	 2.8733268693	 0.099719
H	-0.6970701887	-2.5520032489	 1.5407530666	 0.066622
H	-2.0954663161	-0.0233352774	 0.823792657	 0.107232
H	-1.7530635119	-1.2492913428	-0.423119321	 0.092417
96.7792	189.2878	220.7254	234.0034	325.9846	331.1668	389.3421	449.0937	494.2903	601.9061	670.5152	718.5165	772.0017	825.9781	847.1916	865.1747	923.6909	940.3508	953.7172	971.7406	992.6652	1005.4225	1028.149	1105.7231	1108.8919	1126.4983	1164.9639	1179.9565	1205.4809	1223.7443	1227.3107	1246.2352	1260.1188	1270.2528	1294.4534	1315.9791	1319.7564	1376.607	1406.2657	1459.8989	1476.4571	1489.6567	1491.9314	1495.4416	1521.8891	2989.7874	3016.522	3038.3489	3040.7514	3042.4867	3049.9643	3057.5186	3078.318	3086.3039	3090.0458	3103.2834	3112.6197
CC12CCC11COC1C2	C[C@@]12CC[C@]31CO[C@H]3C2	
InChI=1S/C8H12O/c1-7-2-3-8(7)5-9-6(8)4-7/h6H,2-5H2,1H3	InChI=1S/C8H12O/c1-7-2-3-8(7)5-9-6(8)4-7/h6H,2-5H2,1H3/t6-,7-,8-/m0/s1
