16
gdb 129838	4.26117	0.87982	0.77591	4.6628	73.45	-0.2145	-0.0167	0.1979	1420.369	0.124839	-434.09446	-434.085664	-434.08472	-434.129272	31.291	
N	-0.1059017598	 1.3792194565	-0.1814480457	-0.604949
C	-0.0908953202	-0.0062742169	-0.0265250413	 0.407017
C	-1.07324095	-0.9681643529	-0.1708880158	-0.365371
C	-0.4525291998	-2.1782336707	 0.2298770464	 0.330473
C	-1.0459929423	-3.5555845886	 0.2268916667	-0.370377
C	-1.1583704422	-4.1003534053	-1.1885090112	 0.159361
O	-2.1680696493	-4.5298943408	-1.6821692463	-0.241875
N	 0.8145827591	-1.9939905389	 0.5823958068	-0.29618
N	 1.0120311089	-0.6580336757	 0.4202393767	-0.246411
H	 0.6875588044	 1.7401967353	-0.6976059383	 0.25244
H	-0.9610023744	 1.7009352297	-0.6140913001	 0.259862
H	-2.0819592588	-0.8213710725	-0.521908514	 0.102703
H	-0.3746444336	-4.2179856591	 0.7869532582	 0.138321
H	-2.037436502	-3.5807248455	 0.6872034005	 0.123287
H	-0.2018664713	-4.0651629687	-1.7579486025	 0.082229
H	 1.8858754213	-0.2528960359	 0.7093244498	 0.26947
38.2907	58.88	134.7286	177.4192	258.3072	280.7153	393.0889	416.9154	448.2745	480.8273	621.093	666.3177	717.4784	743.5962	753.6776	783.4332	847.2234	1001.5187	1007.1503	1049.8193	1058.8539	1104.8465	1153.8201	1181.1003	1206.9406	1287.5864	1341.8776	1418.6027	1440.4646	1451.0135	1489.2788	1535.7908	1620.7194	1661.8185	1833.7701	2877.9677	3041.5635	3107.8559	3261.7405	3535.8731	3633.0398	3674.8325
NC1=CC(CC=O)=NN1	Nc1cc(CC=O)n[nH]1	
InChI=1S/C5H7N3O/c6-5-3-4(1-2-9)7-8-5/h2-3H,1H2,(H3,6,7,8)	InChI=1S/C5H7N3O/c6-5-3-4(1-2-9)7-8-5/h2-3H,1H2,(H3,6,7,8)
