18
gdb 40517	3.23843	1.37271	1.17304	2.5248	71.57	-0.2421	0.0561	0.2982	1087.466	0.14845	-439.004254	-438.996562	-438.995618	-439.036848	29.281	
C	 0.1805357205	 1.5483261568	 0.1045353424	-0.237476
N	 1.3003117419	 0.6113019392	-0.0610935953	-0.313595
C	-0.0736361045	 0.086939291	-0.0100983289	-0.13394
C	-0.4335121299	-0.7419379966	 1.1764599844	 0.445721
C	 0.2645633558	-0.5499410902	 2.535906219	-0.137483
O	 0.3963764598	-1.9874486101	 2.7083406463	-0.293349
C	-0.190976192	-2.2525425665	 1.4275866683	 0.001651
C	-1.7208533436	-2.3605778179	 1.4726065208	-0.103939
O	-1.8636252121	-0.9248703835	 1.3040442239	-0.338369
H	 0.1312678967	 2.031737732	 1.0762013732	 0.126392
H	-0.1100472445	 2.1793037153	-0.7306115937	 0.119959
H	 1.6346302893	 0.6223869657	-1.0203292104	 0.238735
H	-0.5283936538	-0.2538205264	-0.9381870334	 0.089329
H	 1.2458976603	-0.0680969325	 2.4795628747	 0.126394
H	-0.3577958194	-0.0878525161	 3.309290859	 0.106979
H	 0.391478941	-2.9469033336	 0.819081807	 0.087951
H	-2.1787528505	-2.9038321476	 0.6358851268	 0.10161
H	-2.1304193052	-2.7198578291	 2.422335226	 0.113429
74.4347	131.6646	170.0541	237.1737	317.7251	381.1236	429.1359	476.1457	625.0889	717.553	834.4169	852.4054	883.5337	899.8226	914.8177	931.9199	967.4664	987.7614	995.8469	1020.6327	1072.744	1076.6111	1102.7146	1113.2664	1128.6705	1151.2191	1167.0741	1184.6839	1217.0436	1245.5285	1279.0756	1286.976	1315.8955	1337.7472	1376.7258	1454.8818	1499.9176	1503.7987	1518.0029	3015.5187	3035.87	3080.3806	3095.7508	3097.8257	3113.4995	3127.2599	3199.151	3515.512
C1NC1C12COC1CO2	C1N[C@H]1[C@]12CO[C@H]1CO2	
InChI=1S/C6H9NO2/c1-4(7-1)6-3-8-5(6)2-9-6/h4-5,7H,1-3H2	InChI=1S/C6H9NO2/c1-4(7-1)6-3-8-5(6)2-9-6/h4-5,7H,1-3H2/t4-,5+,6-/m1/s1
