15
gdb 131544	3.11943	1.60805	1.11189	3.4429	67.43	-0.2103	-0.0114	0.1989	1019.7605	0.116185	-450.100223	-450.093109	-450.092165	-450.132102	27.211	
O	 0.1601721974	 1.3831869695	 0.343276334	-0.418751
C	 0.0789321618	-0.0020848261	 0.0636057678	-0.015604
C	-1.4040415789	-0.5140640825	-0.1535002527	-0.191634
N	-1.3829916805	-1.518791611	-1.2514228302	-0.401836
C	-0.1752680458	-1.2861018188	-1.912616879	 0.348627
C	 0.6810342216	-0.4764484764	-1.2194511461	 0.277587
N	 1.8107556209	-0.5048302104	-1.9651428493	-0.329284
N	 1.6287909388	-1.253259479	-3.075518361	-0.122719
N	 0.4079359234	-1.7485698365	-3.0401758844	-0.298879
H	-0.1598913825	 1.8569050115	-0.4337758331	 0.277225
H	 0.5296501726	-0.4800757632	 0.9404632912	 0.116941
H	-1.8212146879	-0.9468576896	 0.7585290721	 0.125367
H	-2.0100858991	 0.3634067009	-0.4203486539	 0.104378
H	-2.2092462498	-1.5215088172	-1.8359608001	 0.24558
H	 2.6946663279	-0.0399911312	-1.8350122154	 0.283001
73.2947	163.1498	273.4325	318.8134	377.0551	455.3103	514.6708	547.2253	569.9302	652.2554	691.0853	718.0288	773.5105	808.7536	964.1731	979.4134	1027.8666	1039.9533	1056.059	1079.8692	1179.1654	1193.1602	1208.7717	1267.0297	1296.9625	1323.4151	1349.3354	1373.0319	1429.2011	1441.7551	1505.4545	1557.5132	1623.7706	3006.7544	3047.2969	3099.5373	3563.6795	3663.6199	3785.8964
OC1CNC2=C1NN=N2	O[C@H]1CNc2c1[nH]nn2	
InChI=1S/C4H6N4O/c9-2-1-5-4-3(2)6-8-7-4/h2,9H,1H2,(H2,5,6,7,8)	InChI=1S/C4H6N4O/c9-2-1-5-4-3(2)6-8-7-4/h2,9H,1H2,(H2,5,6,7,8)/t2-/m0/s1
