21
gdb 103941	3.05174	1.07812	0.95372	1.9549	78.7	-0.2582	0.0629	0.3211	1312.8638	0.180579	-424.192596	-424.18318	-424.182235	-424.226709	35.95	
C	-0.5384066155	 1.6720905633	-0.0046780492	-0.480127
C	 0.0682488236	 0.2738307527	 0.042885185	 0.322952
C	-0.9919334226	-0.8116006841	-0.1799805948	-0.111634
O	-1.5733896765	-0.7809102213	-1.4733194491	-0.422164
C	 1.3242348398	 0.0342631902	-0.8605471405	-0.360899
C	 2.0104345449	-0.5969704789	 0.3507067663	 0.477659
C	 2.7814537933	-1.8388146253	 0.4364669104	-0.267518
O	 3.4012813606	-0.5550034362	 0.604296839	-0.273532
C	 0.9383249039	-0.061908372	 1.301751011	-0.37205
H	 0.2211746065	 2.4386289044	 0.1769928645	 0.121243
H	-0.9784659443	 1.8834027532	-0.9868348025	 0.110406
H	-1.3225261812	 1.7931278715	 0.7529319629	 0.114007
H	-0.5305222043	-1.8012916018	-0.0911749222	 0.107688
H	-1.7604388889	-0.7387097827	 0.6074157302	 0.085468
H	-2.1058151072	 0.0170840011	-1.5422900069	 0.285444
H	 1.1708223283	-0.5848308344	-1.7472442798	 0.117078
H	 1.8139467349	 0.9670276047	-1.156568075	 0.106611
H	 2.7280775674	-2.451172515	 1.3363710949	 0.112851
H	 3.0541127483	-2.3726362578	-0.473491697	 0.115855
H	 1.277129096	 0.8358744747	 1.8273006584	 0.110309
H	 0.513481363	-0.7586598562	 2.0310964944	 0.100352
56.5657	113.9933	200.8404	224.905	266.7933	292.2775	309.0225	329.9498	341.3186	379.4545	421.0578	478.1007	571.9814	709.3299	813.2725	847.1855	867.3537	885.374	904.2634	914.083	963.9023	971.434	994.8108	1063.2633	1083.8029	1126.7605	1127.7259	1138.3641	1156.9805	1174.6534	1204.8794	1230.6596	1239.1005	1294.4587	1323.3689	1378.6003	1408.6208	1420.7198	1433.749	1465.5451	1487.9415	1491.2297	1500.2212	1507.4892	1537.2432	2967.6984	3017.2819	3046.3865	3056.3424	3066.7979	3075.7096	3078.7507	3096.8407	3101.133	3114.8866	3162.0232	3828.6885
CC1(CO)CC2(CO2)C1	C[C@@]1(CO)C[C@]2(CO2)C1	
InChI=1S/C7H12O2/c1-6(4-8)2-7(3-6)5-9-7/h8H,2-5H2,1H3	InChI=1S/C7H12O2/c1-6(4-8)2-7(3-6)5-9-7/h8H,2-5H2,1H3/t6-,7-
