18
gdb 77961	3.43807	1.25008	1.02923	1.7291	80.01	-0.223	0.0355	0.2585	1165.5521	0.146171	-401.826759	-401.818368	-401.817424	-401.859314	32.987	
C	 0.0778707265	 1.4558179563	-0.0018225262	-0.34821
N	 0.0811958417	-0.0038767376	-0.002920294	-0.142404
C	-1.0930186832	-0.7970457071	 0.5409606951	-0.096148
C	-0.0995362239	-2.0112701736	 0.5107903365	 0.195947
O	 0.3401806698	-2.4778044826	-0.7095493414	-0.447768
C	 0.6429254024	-0.7935623067	 1.16513475	-0.096152
C	-0.6478683347	-0.5796562606	 2.0276781187	-0.174964
C	-0.9184941103	 0.6294755575	 2.7734200432	 0.283863
C	-1.1781997759	 1.5609271184	 3.4902827085	-0.409112
H	 1.0948113091	 1.7974481445	-0.2224440555	 0.121807
H	-0.5674735606	 1.7940879544	-0.8195240065	 0.121813
H	-0.2560228036	 1.9301513805	 0.925118262	 0.134842
H	-2.0956827439	-0.7118978689	 0.119023717	 0.091774
H	-0.3313439276	-2.8557839789	 1.1602474113	 0.091168
H	 0.519010039	-1.6636379986	-1.211296913	 0.280936
H	 1.6843394232	-0.7043369897	 1.4783682398	 0.091771
H	-0.8773841602	-1.4387417465	 2.6708160145	 0.107518
H	-1.3971199177	 2.4065750791	 4.0941007301	 0.193319
121.1871	161.3714	161.9488	245.1957	291.078	339.6679	361.0695	440.5572	493.3243	535.9722	629.2139	632.1352	653.5688	683.7987	726.6396	781.4631	799.4739	841.0971	891.6046	909.6813	1041.8853	1062.4642	1094.5342	1094.5484	1129.2868	1141.117	1174.0688	1197.4835	1200.7343	1200.8317	1233.3929	1282.22	1321.425	1387.3521	1444.8642	1470.7932	1491.8867	1508.123	2225.0226	3021.5215	3030.7961	3095.5811	3106.3191	3108.2726	3109.8256	3125.83	3502.446	3658.9087
CN1C2C(O)C1C2C#C	CN1[C@H]2[C@@H](O)[C@@H]1[C@H]2C#C	
InChI=1S/C7H9NO/c1-3-4-5-7(9)6(4)8(5)2/h1,4-7,9H,2H3	InChI=1S/C7H9NO/c1-3-4-5-7(9)6(4)8(5)2/h1,4-7,9H,2H3/t4-,5+,6-,7+
