18
gdb 98095	4.21509	0.90972	0.79838	0.961	76.53	-0.2375	-0.0588	0.1787	1461.0768	0.147029	-439.12698	-439.117456	-439.116512	-439.162382	33.363	
C	-0.0679356742	 1.4117340066	 0.0683116457	-0.334199
N	 0.0819586648	-0.0200712667	-0.0712272642	-0.303159
C	 0.6246370805	-0.6068710514	-1.1577139286	 0.319474
O	 1.053365184	-0.0360259298	-2.1475773289	-0.372968
C	 0.6537504856	-2.1485489252	-1.024162891	 0.292802
O	 0.2162186618	-2.6798938346	-0.0201778729	-0.351245
C	 1.2310646844	-2.8778773256	-2.1669338098	-0.103105
C	 1.9858232138	-4.1686744029	-1.8592287059	-0.24972
C	 0.6422490412	-4.249493738	-2.4865978139	-0.249771
H	 0.4884368669	 1.786464035	 0.9345352914	 0.132213
H	 0.3271132052	 1.8752375361	-0.837012476	 0.168305
H	-1.1210217829	 1.6911124683	 0.1834447643	 0.132213
H	-0.2200983376	-0.6530663216	 0.6559721408	 0.26593
H	 1.5747734991	-2.2578359335	-2.9825437402	 0.126713
H	 2.8644912971	-4.3690903364	-2.4609700796	 0.125728
H	 2.0659289072	-4.4258114116	-0.8090920297	 0.137534
H	-0.1862081239	-4.5612803288	-1.8606746922	 0.137542
H	 0.562129997	-4.50771319	-3.5359897991	 0.125714
51.7504	78.2355	94.7909	144.1009	152.5056	252.6178	266.9097	308.6903	367.1017	513.5042	518.8965	650.6062	713.5107	798.9242	803.6807	832.1809	833.3017	893.4298	916.9285	998.8768	1064.8982	1097.2915	1109.0427	1146.6467	1148.8632	1152.5922	1183.2785	1212.4058	1213.7689	1252.4775	1413.0142	1444.1653	1457.299	1487.3755	1495.3091	1498.0426	1570.8039	1768.5549	1783.2795	3029.7635	3082.6649	3141.6682	3143.2575	3148.1821	3223.9735	3228.7301	3244.7878	3605.4742
CNC(=O)C(=O)C1CC1	CNC(=O)C(=O)C1CC1	
InChI=1S/C6H9NO2/c1-7-6(9)5(8)4-2-3-4/h4H,2-3H2,1H3,(H,7,9)	InChI=1S/C6H9NO2/c1-7-6(9)5(8)4-2-3-4/h4H,2-3H2,1H3,(H,7,9)
