18
gdb 23301	2.86774	1.29965	0.95622	1.7015	85.93	-0.2115	-0.0262	0.1853	1234.1896	0.147704	-401.918929	-401.910651	-401.909707	-401.951546	32.098	
C	-0.0247132629	 1.4796662289	 0.0819475455	-0.49501
C	-0.0054205701	-0.0100209166	-0.0197684227	 0.321978
C	 0.0498356064	-0.7531143649	-1.143042408	-0.283885
C	 0.0372998189	-2.1809913179	-0.8135858031	 0.41004
N	-0.0122098504	-3.2120969555	-1.5715132809	-0.259732
O	-0.0177723262	-2.8460906533	-2.930670422	-0.395346
C	 0.0601296709	-2.3071954842	 0.6768502724	-0.123738
C	 1.254957117	-1.7065443732	 1.3921626972	-0.285283
C	-0.0048759226	-0.8858163863	 1.1966459765	-0.138614
H	 0.8352900353	 1.8448715112	 0.6575653965	 0.135053
H	-0.0082156946	 1.9532951801	-0.9026247964	 0.13047
H	-0.9210557567	 1.8242281011	 0.6133124344	 0.132543
H	 0.1175591388	-0.379223269	-2.1545898454	 0.113242
H	-0.067383299	-3.702262521	-3.3675900823	 0.304597
H	-0.4660256409	-3.1268524137	 1.1478817672	 0.103975
H	 1.4588054067	-2.0840342682	 2.3888449306	 0.116555
H	 2.1325308205	-1.4413212962	 0.8126106408	 0.122173
H	-0.5934831912	-0.6082109712	 2.0643055395	 0.090981
128.4714	172.4356	183.4899	194.2033	271.7757	334.9498	364.6072	414.3874	482.8523	554.9111	581.9552	690.2605	704.0706	795.8008	807.8754	865.6708	884.631	928.1032	934.0635	985.1318	1009.5104	1023.9522	1055.2069	1063.1215	1082.8149	1093.7823	1170.2311	1191.8525	1223.9439	1308.087	1327.5365	1370.197	1407.8343	1417.2843	1476.1839	1476.5602	1483.219	1660.5891	1722.3713	3019.093	3065.0666	3118.6672	3128.6657	3168.2706	3202.991	3221.771	3240.5922	3825.7028
CC1=CC(=NO)C2CC12	CC1=CC(=NO)[C@H]2C[C@@H]12	
InChI=1S/C7H9NO/c1-4-2-7(8-9)6-3-5(4)6/h2,5-6,9H,3H2,1H3	InChI=1S/C7H9NO/c1-4-2-7(8-9)6-3-5(4)6/h2,5-6,9H,3H2,1H3/t5-,6-/m0/s1
