16
gdb 89323	2.01152	1.78207	1.12369	4.4364	70.94	-0.2725	-0.0082	0.2643	1091.985	0.12261	-437.86463	-437.856104	-437.85516	-437.8977	31.766	
C	 0.0719104252	 1.5079569521	-0.0357455516	-0.495139
C	-0.1323110354	 0.0396003097	 0.1299243069	 0.327611
C	-1.4216066596	-0.7838752145	 0.0261640713	-0.33328
C	-0.799986383	-1.8253930991	 1.0344612312	 0.080282
O	-0.5957853587	-3.1341136808	 0.609719786	-0.423548
C	 0.4574087703	-0.9234178558	 1.0990325468	 0.218986
O	 0.9338838741	-0.846523247	-0.2579293876	-0.315317
C	 1.3908208203	-0.7361060341	 2.1633077241	 0.188226
N	 2.1089941536	-0.5899671205	 3.0583674238	-0.338652
H	 1.0772817994	 1.7938509944	 0.2824331238	 0.153613
H	-0.053744078	 1.7924756464	-1.085900438	 0.143936
H	-0.6607448	 2.0650816434	 0.5554791907	 0.139156
H	-2.2999555886	-0.279249082	 0.434833849	 0.122075
H	-1.6452275174	-1.1692206238	-0.9710909665	 0.11864
H	-1.3411138345	-1.8648287133	 1.9815748934	 0.118576
H	-0.0220806078	-3.0903413652	-0.1662671631	 0.294836
110.5913	122.9216	165.6008	199.0319	236.2341	332.7754	387.6427	418.4103	472.5041	506.4029	562.5788	578.1394	595.2773	717.042	758.6241	846.5648	872.4505	915.8234	969.2781	1040.2532	1062.3186	1147.434	1152.4606	1167.1844	1195.7238	1218.9932	1286.1666	1317.6909	1403.3138	1428.4365	1451.1185	1476.2027	1483.6513	1497.4034	2352.3058	3042.8143	3071.2421	3107.1476	3109.0571	3132.2702	3133.581	3775.0445
CC12CC(O)C1(O2)C#N	C[C@]12C[C@@H](O)[C@]1(O2)C#N	
InChI=1S/C6H7NO2/c1-5-2-4(8)6(5,3-7)9-5/h4,8H,2H2,1H3	InChI=1S/C6H7NO2/c1-5-2-4(8)6(5,3-7)9-5/h4,8H,2H2,1H3/t4-,5+,6-/m1/s1
