18
gdb 71733	2.62841	2.03343	1.49886	1.5403	73.57	-0.2219	0.0657	0.2876	924.6794	0.148058	-401.88583	-401.878417	-401.877472	-401.917087	30.222	
C	 0.0797995303	 1.4567311004	 0.0467448378	-0.503561
C	 0.0552080374	-0.0458723326	-0.0425513004	 0.221265
C	 0.2080295624	-0.807273056	-1.348197571	-0.219389
N	 0.1386385	-2.2107850184	-0.9165530441	-0.12402
C	-0.7611946405	-2.3023923732	 0.250932145	-0.05465
C	 0.714884853	-2.3291357218	 0.4344481225	-0.149301
C	 0.6546970038	-0.8977492102	 1.0615576089	 0.347291
O	 1.3717601829	-0.442089276	 2.1449554523	-0.463733
C	-0.8408434605	-0.8808735144	 0.8733269474	-0.196916
H	 0.9918497679	 1.8635887104	-0.4058715514	 0.115121
H	-0.7739894388	 1.9038967958	-0.4736492197	 0.123166
H	 0.0529775649	 1.7866374184	 1.0892922225	 0.132035
H	-0.5970788337	-0.603199347	-2.0623585752	 0.104328
H	 1.1694034672	-0.6177357545	-1.8397111105	 0.09826
H	-1.5067767972	-3.0856603206	 0.2967699999	 0.094274
H	 1.4047210906	-3.1293618892	 0.6733120305	 0.094279
H	 2.2369484066	-0.1467201987	 1.8373792378	 0.287554
H	-1.6202933364	-0.4765354224	 1.5030455876	 0.093997
179.3509	200.8314	229.4775	288.8787	324.0277	374.229	429.1868	548.0858	603.9483	625.901	737.4841	749.2081	771.9241	790.6477	835.9935	881.1932	921.3836	935.7178	942.9555	976.9963	1001.4254	1032.2242	1048.0449	1076.8887	1129.2148	1155.8726	1174.0661	1206.1339	1223.8329	1251.4133	1271.9156	1295.9813	1314.8285	1372.4956	1416.2052	1460.7392	1492.4188	1497.4393	1505.7878	3026.3018	3036.4666	3080.3966	3083.7585	3108.5727	3184.3039	3197.8949	3222.0954	3775.6236
CC12CN3C4C3C1(O)C24	C[C@@]12CN3[C@H]4[C@@H]3[C@]1(O)[C@@H]24	
InChI=1S/C7H9NO/c1-6-2-8-3-4(6)7(6,9)5(3)8/h3-5,9H,2H2,1H3	InChI=1S/C7H9NO/c1-6-2-8-3-4(6)7(6,9)5(3)8/h3-5,9H,2H2,1H3/t3-,4-,5-,6+,7-,8?/m1/s1
