23
gdb 117929	2.55542	0.77433	0.66406	3.2482	82.94	-0.2383	-0.0066	0.2317	1793.1779	0.202244	-425.449842	-425.438128	-425.437184	-425.488365	40.469	
C	-0.0903668648	 1.4517685441	-0.3914713642	-0.377085
C	-0.2157242317	-0.068920915	-0.3596971459	-0.285573
C	-1.3246120751	-0.5766841395	 0.5515946997	 0.383785
O	-1.934590988	 0.1613960962	 1.2919950302	-0.317968
C	-1.6455566719	-2.0742933567	 0.4735010785	-0.08502
C	-2.0135206972	-2.6183395963	 1.8594669256	-0.39495
C	-2.7769893437	-2.2512347107	-0.5660823686	-0.164355
C	-3.0558321633	-3.7027249197	-0.9420125823	-0.085797
O	-4.0171481411	-3.6899043039	-1.9865501596	-0.420225
H	 0.7484771491	 1.7599588014	-1.0217871413	 0.108641
H	-1.0022938891	 1.9108659609	-0.7829129718	 0.128725
H	 0.0644421427	 1.8478278368	 0.6149194319	 0.134426
H	-0.3730225321	-0.4837122864	-1.3643454376	 0.119899
H	 0.7176358154	-0.5339708486	-0.0084618967	 0.123325
H	-0.7544340939	-2.5936441262	 0.0950656334	 0.072512
H	-2.2565401272	-3.6834455472	 1.8213125179	 0.110668
H	-1.1842456386	-2.4903894648	 2.5620106112	 0.115697
H	-2.8718902665	-2.0737524072	 2.2602623498	 0.140825
H	-3.6957038624	-1.7928503048	-0.1835949058	 0.122788
H	-2.5246654491	-1.720558347	-1.4923295263	 0.10816
H	-2.1193353582	-4.1867593205	-1.2672758469	 0.08273
H	-3.4275027193	-4.2621733432	-0.0708339769	 0.092235
H	-4.2561829138	-4.5993404918	-2.1874685046	 0.286556
31.1787	62.7465	67.2456	98.0468	141.7151	188.1408	196.5278	224.2041	256.7685	265.3582	311.628	330.6301	383.4471	488.3124	574.1476	651.0112	783.6449	799.8935	808.9284	884.8446	971.057	989.7469	1014.7034	1028.5882	1037.333	1072.5631	1099.8828	1122.1224	1135.8303	1181.2637	1233.1945	1240.0061	1277.0025	1306.1314	1318.3662	1354.3347	1356.8465	1385.8324	1409.5228	1412.4799	1449.2051	1458.5514	1487.5174	1492.4667	1494.7691	1497.9454	1503.6547	1528.3402	1805.2611	2957.7333	3001.0399	3006.7353	3015.4158	3033.836	3042.6457	3047.3373	3050.8568	3083.3368	3111.5306	3119.8504	3129.2866	3131.5249	3830.6726
CCC(=O)C(C)CCO	CCC(=O)[C@@H](C)CCO	
InChI=1S/C7H14O2/c1-3-7(9)6(2)4-5-8/h6,8H,3-5H2,1-2H3	InChI=1S/C7H14O2/c1-3-7(9)6(2)4-5-8/h6,8H,3-5H2,1-2H3/t6-/m0/s1
