21
gdb 59778	3.16537	1.15221	0.89977	1.4732	81.3	-0.2405	0.0231	0.2636	1332.695	0.182465	-424.233831	-424.224713	-424.223769	-424.267638	34.879	
C	-0.0041719257	 1.5332939612	-0.0391900986	-0.41069
C	-0.0168765004	 0.0093577551	 0.0240000104	 0.112278
O	 0.7116186195	-0.4806814064	 1.1455295796	-0.430307
C	-1.4493406386	-0.5672348953	 0.0404825846	 0.07275
O	-2.1339646323	-0.024764429	-1.0765677208	-0.269117
C	-3.3688510245	-0.6705286465	-1.3437025875	-0.074245
C	-3.1528357132	-2.1275558892	-1.7555716135	-0.255224
C	-2.1941607055	-2.7856974112	-0.7988462367	-0.078864
C	-1.4420928137	-2.0735106476	 0.0366068005	-0.065514
H	 1.0259503855	 1.8997840043	-0.050419103	 0.1191
H	-0.5241117227	 1.8878761978	-0.9311210662	 0.141426
H	-0.5123734295	 1.9597980155	 0.8360149939	 0.100478
H	 0.4970249469	-0.4007639358	-0.8525457786	 0.097826
H	 0.3968096358	-0.0097759238	 1.9253042752	 0.278095
H	-1.9298083565	-0.2094579238	 0.9756768664	 0.054662
H	-4.0163272701	-0.6289081069	-0.4525233821	 0.089893
H	-3.8496405624	-0.0924177087	-2.1377927442	 0.104184
H	-4.1149951661	-2.6558133361	-1.7644183625	 0.102356
H	-2.7644646003	-2.1793025467	-2.7820706819	 0.114639
H	-2.1345937821	-3.8710172553	-0.8028221292	 0.088883
H	-0.7659043743	-2.5404999514	 0.7445959642	 0.10739
80.5984	89.6214	181.0914	236.0652	271.7784	299.7894	306.8911	339.4951	415.1299	455.7745	488.8277	498.6592	594.4891	687.6582	786.1055	869.967	872.7088	912.0838	918.7221	986.6559	1006.652	1014.248	1059.7389	1067.533	1085.841	1114.8244	1126.1445	1162.5295	1208.4647	1232.8591	1247.6625	1298.7418	1316.4217	1340.8776	1364.9125	1379.1459	1394.8515	1396.9244	1416.8606	1422.861	1470.8218	1489.9292	1495.1192	1499.6389	1723.0809	2874.2118	2973.1285	3012.7083	3022.0385	3046.7034	3056.0379	3086.5736	3101.2462	3141.6829	3155.6973	3196.6452	3797.2306
CC(O)C1OCCC=C1	C[C@@H](O)[C@H]1OCCC=C1	
InChI=1S/C7H12O2/c1-6(8)7-4-2-3-5-9-7/h2,4,6-8H,3,5H2,1H3	InChI=1S/C7H12O2/c1-6(8)7-4-2-3-5-9-7/h2,4,6-8H,3,5H2,1H3/t6-,7+/m1/s1
