21
gdb 41970	2.41043	2.02753	1.60927	1.314	80.13	-0.2361	0.0772	0.3133	951.1413	0.187391	-387.095351	-387.088474	-387.08753	-387.126304	29.002	
C	-0.0526126308	 1.5131097223	-0.1919484382	-0.229122
C	 1.4053441505	 1.9779414814	 0.0483663618	-0.191761
C	 2.0603926805	 0.893035171	 0.9440832243	-0.032133
C	 1.8711118272	 1.1973185895	 2.4336088179	-0.084107
O	 0.4950461476	 1.3083617946	 2.7606504603	-0.245178
C	-0.1967893854	 0.0767461771	 2.6388529139	-0.108155
C	 0.0478835766	-0.6489260835	 1.329847767	-0.038846
C	-0.0058748947	-0.0106348037	-0.0413721085	-0.047915
C	 1.3274049477	-0.4051312237	 0.5637729886	-0.08679
H	-0.7363528007	 1.9758171754	 0.5244081868	 0.11306
H	-0.4009459627	 1.7873686765	-1.1922631412	 0.089827
H	 1.9346820711	 2.0089493547	-0.9103081585	 0.092797
H	 1.4684404005	 2.9786551008	 0.4876144094	 0.093618
H	 3.1332602948	 0.8061923962	 0.7435476886	 0.066097
H	 2.3507290272	 0.4170265925	 3.0491884513	 0.079952
H	 2.3190870579	 2.160945555	 2.6976026015	 0.100408
H	 0.096888301	-0.5946636622	 3.4652981506	 0.086674
H	-1.2578952225	 0.3164958172	 2.7708177668	 0.106355
H	-0.2938388694	-1.6811008864	 1.361801774	 0.080959
H	-0.4398392911	-0.61413562	-0.8314917168	 0.077679
H	 1.9013274547	-1.2465038348	 0.1924375404	 0.076582
136.4179	219.4266	261.5797	374.8753	422.2878	458.2481	514.4774	657.3663	696.0893	739.5144	767.8161	772.7954	808.7115	849.7347	890.7213	921.5491	951.063	964.034	984.4103	1007.781	1047.5596	1053.9466	1083.4915	1092.5079	1103.648	1128.473	1132.6903	1196.119	1199.5102	1222.1653	1254.2053	1291.3116	1306.9453	1314.1613	1336.9138	1339.0827	1342.7566	1365.1581	1388.0912	1414.7985	1444.2545	1482.1542	1494.4922	1502.227	1504.6541	2945.9402	2960.008	3035.1736	3052.9285	3056.4106	3058.0261	3071.3066	3078.824	3099.4211	3129.0707	3157.6205	3170.1261
C1CC2COCC3C1C23	C1C[C@H]2COC[C@H]3[C@@H]1[C@@H]23	
InChI=1S/C8H12O/c1-2-6-7-4-9-3-5(1)8(6)7/h5-8H,1-4H2	InChI=1S/C8H12O/c1-2-6-7-4-9-3-5(1)8(6)7/h5-8H,1-4H2/t5-,6+,7-,8+/m0/s1
