18
gdb 35944	3.39117	1.1761	0.91534	2.582	79.8	-0.2491	0.0112	0.2603	1252.6641	0.147961	-401.915317	-401.906878	-401.905933	-401.948915	31.808	
C	 0.1791056699	-1.2480645365	 0.2540217243	-0.426731
C	 0.0887603564	-0.0606072178	 0.0975993816	 0.323488
C	-0.0732354645	 1.3909567088	-0.0602232126	-0.156871
C	-0.885874945	 1.9493113766	 1.1292465706	-0.201998
C	-1.291070863	 3.4096332027	 0.9460984337	-0.226843
C	-0.1181301639	 4.3728972066	 1.0435244794	-0.061977
O	 0.8099340524	 4.3387791285	-0.0457533692	-0.22729
C	 1.5096704061	 3.2136415194	-0.3519369867	 0.127615
N	 1.2296487187	 1.9853276643	-0.3377857247	-0.252475
H	 0.2755988296	-2.2982411636	 0.3773417833	 0.191095
H	-0.6841999774	 1.5550818772	-0.9635890489	 0.120244
H	-1.7771887234	 1.3236053721	 1.2398517877	 0.115194
H	-0.2986659312	 1.828812878	 2.0477556654	 0.111537
H	-1.8035951493	 3.5512947352	-0.014095643	 0.109267
H	-2.0049471541	 3.6906915799	 1.7299744211	 0.105979
H	-0.4696771693	 5.4076092168	 1.0577592755	 0.119149
H	 0.4350982692	 4.1889724839	 1.9752408915	 0.109604
H	 2.4922693288	 3.5111397479	-0.7223008491	 0.121013
40.9478	141.6832	151.174	215.8605	327.8734	337.3685	364.5526	451.9079	503.2418	523.3541	576.5281	624.8444	652.5248	759.9299	774.0495	846.2864	909.0999	919.8935	957.357	981.9047	1036.2516	1066.4134	1090.7929	1119.8731	1158.9966	1206.8301	1257.9296	1295.9032	1323.1699	1339.0687	1373.9977	1389.9563	1420.4855	1435.6408	1473.7036	1481.4586	1498.5884	1753.6046	2242.6355	2965.2653	3010.9044	3026.067	3036.7951	3069.7718	3085.7568	3098.8255	3122.7328	3505.4199
C#CC1CCCOC=N1	C#C[C@H]1CCCOC=N1	
InChI=1S/C7H9NO/c1-2-7-4-3-5-9-6-8-7/h1,6-7H,3-5H2	InChI=1S/C7H9NO/c1-2-7-4-3-5-9-6-8-7/h1,6-7H,3-5H2/t7-/m0/s1
