17
gdb 74840	2.49065	1.73186	1.1188	1.9599	75.28	-0.2361	-0.0085	0.2276	1079.6976	0.13781	-418.060287	-418.052546	-418.051601	-418.092478	29.893	
C	-0.0218538574	 1.4948058053	 0.0097077998	-0.478935
C	-0.0633011446	-0.0070899298	-0.0082340675	 0.370065
N	-1.161942981	-0.6362067661	 0.1430296966	-0.274719
C	-1.1516452481	-2.0568166541	 0.057750437	 0.005597
C	-0.7719802096	-2.7207488276	-1.2305053805	-0.30045
C	 0.1834365412	-2.8165555498	-0.054389792	-0.16736
C	 1.4127023591	-1.9932499096	-0.0442931907	 0.415895
O	 2.5387607465	-2.4216996575	 0.0969567762	-0.366468
N	 1.1778250661	-0.6258963636	-0.1902472393	-0.377005
H	 0.6373335691	 1.8594794477	 0.8060477418	 0.137132
H	 0.3620254393	 1.8848647379	-0.9398428891	 0.139441
H	-1.0280457488	 1.8781668837	 0.1734422132	 0.157613
H	-1.9363946271	-2.5283996678	 0.639471696	 0.106503
H	-1.2879523268	-3.6330089487	-1.5058091336	 0.130439
H	-0.4937410877	-2.0837598752	-2.0628245444	 0.131912
H	 0.3032592423	-3.7810967935	 0.4232386258	 0.115768
H	 2.0137219673	-0.0588360712	-0.1579760491	 0.254573
127.1477	143.3914	171.2354	242.4111	308.8842	413.8849	467.7853	508.026	539.3553	606.4887	654.0148	677.4518	766.578	775.1867	799.541	878.5112	957.9412	965.4068	999.5724	1013.2332	1059.1678	1063.9155	1078.1105	1120.5627	1182.3128	1218.0422	1242.0356	1285.943	1359.3673	1392.4162	1404.4842	1457.5572	1476.4008	1482.3338	1483.9589	1739.4334	1805.9708	3034.9001	3089.5504	3140.0123	3164.9974	3165.46	3193.0766	3232.0518	3603.4753
CC1=NC2CC2C(=O)N1	CC1=N[C@H]2C[C@H]2C(=O)N1	
InChI=1S/C6H8N2O/c1-3-7-5-2-4(5)6(9)8-3/h4-5H,2H2,1H3,(H,7,8,9)	InChI=1S/C6H8N2O/c1-3-7-5-2-4(5)6(9)8-3/h4-5H,2H2,1H3,(H,7,8,9)/t4-,5+/m1/s1
