15
gdb 6062	5.2155	1.03458	0.87053	7.53	61.15	-0.2435	0.0213	0.2648	1232.211	0.119309	-433.168202	-433.159786	-433.158842	-433.201838	30.369	
N	 0.1578034502	 1.4306479457	-0.0441139691	-0.548711
C	 0.0177661434	 0.0567148495	 0.0007047658	 0.419873
N	 1.2224844275	-0.6189373828	 0.1309931166	-0.549646
N	-1.0828834208	-0.5955570491	-0.0662861159	-0.317801
H	-2.1125488007	-2.1213693161	 0.0234393605	 0.300091
C	-2.3494032941	 0.1036036232	-0.0523579222	-0.320664
C	-3.5046662908	-0.9067539434	 0.0477492595	 0.416665
O	-3.0942990089	-2.1786293044	 0.0745826757	-0.360577
O	-4.6589587559	-0.5757074551	 0.0937505917	-0.345264
H	 0.9475085593	 1.8081094531	 0.4580830793	 0.261875
H	-0.6872054279	 1.96535007	 0.0800132466	 0.268828
H	 1.9868731873	-0.2322152147	-0.4056338931	 0.255624
H	 1.1146079162	-1.6130202202	-0.011928406	 0.260838
H	-2.462986947	 0.7962272997	 0.7968898939	 0.123754
H	-2.5251686179	 0.6916646546	-0.9654724133	 0.135114
52.5828	75.727	144.0063	230.4027	289.8259	370.8056	393.4861	429.6503	522.0084	537.7676	580.0074	612.2144	644.3989	653.5682	756.3253	824.7567	884.6651	958.1065	1004.0122	1062.736	1099.4141	1226.3692	1230.3565	1237.7423	1343.505	1438.3905	1454.9216	1463.5625	1634.0754	1647.4165	1757.2036	1875.9602	2976.0182	3014.6368	3442.6275	3560.0771	3584.2571	3665.7977	3691.2388
NC(N)=[NH+]CC([O-])=O	NC(=NCC(=O)O)N	
InChI=1S/C3H7N3O2/c4-3(5)6-1-2(7)8/h1H2,(H,7,8)(H4,4,5,6)	InChI=1S/C3H7N3O2/c4-3(5)6-1-2(7)8/h1H2,(H,7,8)(H4,4,5,6)
