19
gdb 110123	2.14482	1.3791	1.04565	1.5642	79.67	-0.222	0.0471	0.2692	1245.4043	0.155496	-422.94255	-422.93242	-422.931476	-422.977643	36.123	
C	 0.1119516604	 1.097081377	 0.6167704064	-0.23723
O	-0.1531418718	 0.183473042	-0.4349869281	-0.221055
C	-1.3562329099	-0.4675198466	-0.2911275524	 0.073302
C	-1.5071917254	-1.7895648859	-0.956936191	 0.073309
O	-0.4331831052	-2.2689896785	-1.6700740385	-0.221058
C	-0.4337822007	-3.6820541252	-1.7900659998	-0.237231
C	-1.4460514293	-1.7362886687	 0.5859769047	-0.342814
C	-0.2857508045	-2.2130075833	 1.2695048142	 0.36251
C	 0.67243619	-2.6251869501	 1.8705155373	-0.461972
H	 1.0718701493	 1.566108994	 0.3917489569	 0.131374
H	-0.6631500546	 1.8764256335	 0.6732848448	 0.103676
H	 0.1750178899	 0.5850018613	 1.5845973093	 0.127193
H	-2.2335593505	 0.1829247566	-0.2623902987	 0.091505
H	-2.4863412941	-2.0307914963	-1.3772726279	 0.091505
H	-0.3675646716	-4.16655804	-0.8083506526	 0.127199
H	-1.338579412	-4.0384334604	-2.3055161562	 0.103674
H	 0.4422341041	-3.9477426528	-2.3851034945	 0.131374
H	-2.3890651894	-1.8896283627	 1.1041900009	 0.111201
H	 1.5243977755	-2.984518924	 2.3917277152	 0.193537
103.1606	104.9064	108.452	144.6238	158.461	205.589	211.4388	273.1058	329.9528	382.4709	390.6454	565.4637	647.6663	648.336	650.6891	676.5222	732.9071	790.4674	885.7155	985.0759	1054.9511	1073.1259	1074.5801	1122.8981	1129.2832	1173.0493	1182.1963	1189.3657	1218.4384	1256.9648	1286.7497	1352.1438	1367.1494	1439.5313	1483.71	1486.8579	1487.3839	1495.2058	1503.979	1507.8977	2230.108	2988.5896	2989.4499	3060.0644	3060.8793	3065.4527	3076.9983	3129.0131	3129.2341	3138.2805	3505.5963
COC1C(OC)C1C#C	CO[C@H]1[C@@H](OC)[C@H]1C#C	
InChI=1S/C7H10O2/c1-4-5-6(8-2)7(5)9-3/h1,5-7H,2-3H3	InChI=1S/C7H10O2/c1-4-5-6(8-2)7(5)9-3/h1,5-7H,2-3H3/t5-,6+,7-
