13
gdb 132433	3.27756	1.39858	0.98622	2.5107	63.75	-0.2617	-0.0664	0.1953	1088.1183	0.088537	-497.920106	-497.912627	-497.911683	-497.95238	27.108	
C	-0.02929773	 1.517867122	 0.0052877057	-0.478552
C	-0.0071960749	 0.0184216436	-0.0386402388	 0.088887
C	-0.0406374694	-0.7182790032	-1.1772653173	-0.061525
N	-0.0206279424	-2.0974589625	-1.2284808962	-0.373531
C	 0.0337359262	-2.6651660099	-0.0899373437	 0.420614
F	 0.0581198409	-3.9672939528	 0.0048676462	-0.029644
O	 0.0722730497	-2.1110978637	 1.1064026496	-0.219721
C	 0.0542031547	-0.6774389641	 1.2318857378	 0.399607
O	 0.0913704825	-0.2333916118	 2.3390579919	-0.309796
H	 0.8627712461	 1.9069235111	 0.5068684355	 0.150794
H	-0.0754494619	 1.9364173063	-1.0028186753	 0.128863
H	-0.891306978	 1.8790649203	 0.5755714612	 0.150777
H	-0.0868458535	-0.2299358655	-2.1462513867	 0.133227
115.297	143.8513	166.5119	270.0808	333.5408	370.3272	426.2224	471.778	528.6994	610.0298	747.9028	750.9352	783.0335	784.2034	926.9188	969.1171	1018.8684	1041.2898	1073.704	1224.8183	1288.699	1378.7143	1413.1772	1421.4251	1471.1002	1488.4479	1626.3332	1696.9417	1875.9108	3040.9505	3097.7587	3127.7168	3179.073
CC1=CN=C(F)OC1=O	Cc1cnc(F)oc1=O	
InChI=1S/C5H4FNO2/c1-3-2-7-5(6)9-4(3)8/h2H,1H3	InChI=1S/C5H4FNO2/c1-3-2-7-5(6)9-4(3)8/h2H,1H3
