13
gdb 10478	3.44214	1.29147	1.00745	4.4489	68.89	-0.2727	-0.0204	0.2522	1137.1806	0.092997	-361.418538	-361.41012	-361.409176	-361.4533	28.258	
C	-0.0135709478	 1.4535595118	-0.0224811631	-0.505501
C	 0.0135290103	 0.0008282131	 0.0136040722	 0.157168
C	 0.0307613927	-1.2022704319	 0.0382794419	-0.018247
C	 0.075717622	-2.6393309494	 0.0585019819	 0.133759
C	-0.585616603	-3.4195009023	 1.1386428659	-0.198839
O	-1.1590883701	-3.348288875	-0.1553525919	-0.240955
C	 1.2284629214	-3.2402877434	-0.5972620512	 0.229882
N	 2.1524034488	-3.7107628084	-1.1066502952	-0.328298
H	 0.8402738476	 1.8446116098	-0.5854368566	 0.165089
H	-0.9275649536	 1.8140966073	-0.5061067795	 0.163774
H	 0.0240545203	 1.8771797251	 0.9865657389	 0.158919
H	-0.1678159146	-4.3835679954	 1.4220874321	 0.143979
H	-1.1003832741	-2.8626054413	 1.9186511845	 0.13927
16.7985	81.2791	127.3624	195.0704	234.874	308.4748	327.4662	465.3761	490.1689	540.4906	596.8944	611.3535	829.6181	860.8286	935.8952	1041.7379	1049.5601	1053.1755	1136.4465	1169.6155	1271.997	1342.9336	1412.3447	1472.2654	1473.7644	1512.2006	2364.1649	2376.1152	3034.0018	3093.9915	3098.8092	3100.9394	3194.9433
CC#CC1(CO1)C#N	CC#C[C@]1(CO1)C#N	
InChI=1S/C6H5NO/c1-2-3-6(4-7)5-8-6/h5H2,1H3	InChI=1S/C6H5NO/c1-2-3-6(4-7)5-8-6/h5H2,1H3/t6-/m1/s1
