21
gdb 67681	2.13415	2.07077	1.6127	0.4877	87.99	-0.2196	0.0005	0.2201	988.5026	0.184831	-349.928051	-349.920514	-349.919569	-349.959415	31.259	
C	 0.060949826	 1.6435382833	-0.204948942	-0.505047
C	-0.0393923955	 0.1483384964	-0.0626818614	 0.303797
C	 0.5546387654	-0.9052517402	-0.9475305989	-0.089714
C	 1.5928210227	-1.7140161788	-0.1204240762	-0.216585
C	 1.621069734	-1.0218358999	 1.299325415	-0.270162
C	 0.179186509	-0.5817094081	 1.2594321005	 0.078304
C	-0.8414962876	-1.405140129	 1.5386225147	-0.116409
C	-1.7867406219	-1.519331851	 0.3557745504	-0.268723
C	-0.9952025137	-0.7883932235	-0.7314712866	-0.100053
H	 1.0328164892	 2.0170462136	 0.1390587954	 0.114477
H	-0.0540605384	 1.9412351857	-1.2524225351	 0.114248
H	-0.7144510556	 2.1562307135	 0.3758529432	 0.118589
H	 0.8431021654	-0.6550517916	-1.9656432554	 0.076439
H	 1.3245037414	-2.7690802344	-0.0049362381	 0.102784
H	 2.568413168	-1.6741913602	-0.6182622203	 0.095025
H	 1.8590789446	-1.7185148536	 2.1061410022	 0.098573
H	 2.3441603504	-0.1995460635	 1.3155229208	 0.098494
H	-0.8156310095	-2.158607865	 2.3204189366	 0.08672
H	-1.964319643	-2.5816452402	 0.1391850096	 0.104922
H	-2.779242684	-1.062595686	 0.4849727569	 0.102481
H	-1.5269714368	-0.4702999472	-1.6256325412	 0.07184
190.5446	199.5815	215.7891	247.6207	287.824	400.0324	468.6607	573.3845	611.9443	643.4249	674.3633	745.5665	811.8576	834.6379	843.0267	853.2787	892.3015	900.052	934.1716	956.7202	988.0073	1021.2548	1046.6523	1062.358	1076.7037	1098.7377	1132.7465	1147.7081	1168.4592	1197.3034	1238.0124	1242.9534	1272.776	1298.4091	1308.111	1321.8372	1339.9788	1412.9386	1445.7109	1476.0464	1481.6995	1487.2387	1495.3927	1500.1638	1659.716	2993.8963	3020.6087	3027.9253	3033.5476	3046.1898	3077.8254	3079.2178	3094.6414	3112.2313	3128.148	3140.7088	3170.7542
CC12C3CCC1=CCC23	C[C@@]12[C@H]3CC[C]1[CH]C[C@@H]23	
InChI=1S/C9H12/c1-9-6-2-4-7(9)8(9)5-3-6/h2,7-8H,3-5H2,1H3	InChI=1S/C9H12/c1-9-6-2-4-7(9)8(9)5-3-6/h2,7-8H,3-5H2,1H3/t7-,8+,9-/m1/s1
