21
gdb 90471	3.01904	1.06595	1.00383	3.5442	83.73	-0.2394	-0.0167	0.2227	1304.9875	0.183216	-387.106489	-387.097752	-387.096808	-387.140107	33.209	
C	-0.7623168655	 1.0589847886	-0.071835091	-0.411199
C	 0.260792629	-0.0758607836	 0.0144811119	 0.029511
C	 1.2730792211	-0.0851455166	-1.1655237625	-0.234712
C	 2.6187728957	-0.5040516458	-0.5892435381	-0.064673
C	 2.5326089763	-0.4681266633	 0.9048557628	-0.064661
C	 1.1308291719	-0.0257155357	 1.3020115304	-0.234707
C	 2.766491377	-1.8086603297	 0.2005972366	-0.111073
C	 1.8187038644	-2.9444594571	 0.1731782018	 0.147036
O	 2.1746761112	-4.0995270332	 0.2216565719	-0.275891
H	-0.2647284269	 2.0357732578	-0.0666718943	 0.114278
H	-1.3554227845	 0.9904898255	-0.9899582622	 0.116522
H	-1.4571349728	 1.0329762073	 0.7743141592	 0.116522
H	-0.297702857	-1.0173763446	 0.0049658123	 0.08604
H	 0.9345325522	-0.7168512107	-1.9934992033	 0.107058
H	 1.3818141391	 0.9287995427	-1.5704864524	 0.103174
H	 3.5131466394	-0.1859173399	-1.1138766307	 0.096049
H	 3.3616970118	-0.1228241904	 1.5129131867	 0.096051
H	 1.1951906744	 1.006804369	 1.6676221712	 0.103175
H	 0.6976739184	-0.6178559946	 2.1150004392	 0.107061
H	 3.7900566028	-2.1655080519	 0.2682277377	 0.105471
H	 0.7396695321	-2.6971413036	 0.1046973327	 0.068968
87.1772	102.4214	150.9724	170.9068	251.9187	309.1254	373.57	381.4252	436.2618	507.4347	626.2346	661.7283	743.0138	817.1528	845.8469	892.2839	900.6379	937.1204	938.3225	983.9238	994.6983	1047.4861	1061.2074	1071.1725	1089.6454	1121.9079	1138.4	1160.7273	1188.3286	1234.9464	1259.4523	1301.7196	1310.7831	1318.4442	1343.6469	1353.1166	1373.442	1399.9786	1417.0806	1456.4518	1490.2748	1494.8522	1498.9143	1503.4855	1799.0823	2918.3218	3024.6568	3027.6862	3030.7708	3040.9304	3070.1626	3075.0831	3096.4237	3097.8273	3156.1574	3162.4812	3175.4069
CC1CC2C(C1)C2C=O	C[C@H]1C[C@H]2[C@@H](C1)[C@H]2C=O	
InChI=1S/C8H12O/c1-5-2-6-7(3-5)8(6)4-9/h4-8H,2-3H2,1H3	InChI=1S/C8H12O/c1-5-2-6-7(3-5)8(6)4-9/h4-8H,2-3H2,1H3/t5-,6-,7+,8-
