23
gdb 121151	3.1796	0.90228	0.77903	1.5843	86.74	-0.2387	0.0771	0.3158	1584.852	0.204827	-388.264074	-388.25432	-388.253375	-388.299317	36.154	
C	 0.0748957458	 1.5247981426	 0.278186881	-0.382474
C	-0.00566978	 0.0065882555	 0.1017981948	-0.164573
C	-1.438087619	-0.4977821918	-0.11123669	-0.184504
C	-1.5095968108	-2.0092637298	-0.2433059932	 0.069637
O	-1.0751365214	-2.692571287	 0.9648758049	-0.300816
C	-2.3239242041	-3.4068537702	 1.0841396835	-0.134698
C	-2.8729177641	-2.7003841601	-0.1490489049	 0.292049
C	-4.2388800531	-2.1255179693	-0.3649211868	-0.323208
C	-3.7320085719	-3.2493556983	-1.2428639306	-0.325969
H	 1.107323449	 1.853769778	 0.4326490797	 0.111577
H	-0.3133983469	 2.0497462478	-0.60217551	 0.109788
H	-0.5117644278	 1.854308792	 1.1429934711	 0.114017
H	 0.6160088135	-0.2990068308	-0.7503659592	 0.091575
H	 0.4111978743	-0.4956320747	 0.9818434645	 0.119497
H	-2.0735559377	-0.1848099219	 0.7268385786	 0.095463
H	-1.8629409887	-0.0456648335	-1.0191402201	 0.087924
H	-0.9063031442	-2.3419558072	-1.1025045673	 0.068161
H	-2.1859406493	-4.492597966	 0.988606973	 0.097952
H	-2.8309979999	-3.1933780182	 2.0345269235	 0.099701
H	-5.0079012653	-2.3533294614	 0.3668340539	 0.113969
H	-4.3190242727	-1.1339454017	-0.7985412189	 0.117007
H	-3.4643979883	-3.0143957992	-2.2686515433	 0.114259
H	-4.1596497971	-4.2384661048	-1.1106854245	 0.113664
65.0972	89.4986	107.6131	112.2873	235.5163	240.8299	253.8758	323.8368	330.0617	432.444	519.0336	568.563	746.6122	773.8756	821.0051	864.0568	871.2342	891.61	902.9356	947.6407	955.8615	987.4329	1023.6345	1046.2852	1057.0778	1075.9462	1082.1495	1098.7944	1122.6811	1151.3929	1165.1681	1187.8661	1246.1956	1256.467	1268.3177	1304.9568	1323.7912	1333.0602	1380.5954	1397.9282	1411.2535	1419.364	1464.3636	1472.3685	1493.8276	1499.3207	1509.3102	1509.976	1525.963	2975.9719	2997.5889	3006.403	3020.2979	3027.5165	3036.7359	3051.287	3070.218	3096.4665	3100.7301	3119.9312	3125.4022	3197.791	3213.2614
CCCC1OCC11CC1	CCC[C@H]1OCC21CC2	
InChI=1S/C8H14O/c1-2-3-7-8(4-5-8)6-9-7/h7H,2-6H2,1H3	InChI=1S/C8H14O/c1-2-3-7-8(4-5-8)6-9-7/h7H,2-6H2,1H3/t7-/m1/s1
