16
gdb 127046	6.72756	0.83414	0.7494	1.6821	68.68	-0.2341	0.0199	0.254	1485.2332	0.124545	-471.21526	-471.206646	-471.205702	-471.249	31.106	
C	 0.0366326447	 1.4909007218	-0.0767148928	-0.3933
C	 0.0112742498	-0.022868504	-0.0081689144	-0.046624
O	 0.6632391959	-0.520277882	-1.1930852786	-0.255058
C	 0.7327065234	-1.837884973	-1.3076904022	 0.459772
N	 0.2526884128	-2.6769939964	-0.4179116279	-0.256408
O	 0.5792051336	-3.9393856891	-1.0043381768	-0.223266
C	 1.2023022581	-3.6573862836	-2.1518355257	 0.512652
N	 1.5759445959	-4.6997864255	-2.9351420773	-0.591829
N	 1.3389963074	-2.3857128173	-2.4068439529	-0.406148
H	 1.064856393	 1.8610183855	-0.1140487228	 0.133079
H	-0.4914301838	 1.848349373	-0.964948701	 0.133689
H	-0.4508023589	 1.9094487368	 0.8085825106	 0.123331
H	 0.5401433422	-0.4032933962	 0.8727185652	 0.125647
H	-1.0109315964	-0.4157091598	 0.0243152485	 0.12664
H	 1.6786062563	-5.5933037286	-2.4814060033	 0.276259
H	 2.256419506	-4.4828118515	-3.6452410386	 0.281564
58.7567	100.9268	146.3088	227.1456	263.6746	340.0498	348.4797	384.1439	389.877	466.7332	525.7372	717.8882	725.5506	784.1966	793.0095	813.7792	915.8869	925.4279	1027.3346	1042.8324	1079.4242	1136.1655	1153.871	1183.4116	1293.4601	1371.3879	1394.4509	1417.9116	1484.2869	1486.0827	1498.263	1522.2434	1596.4881	1614.8398	1698.1283	3039.8882	3048.4965	3079.1409	3123.9746	3128.1926	3602.4328	3718.5593
CCOC1=NOC(N)=N1	CCOc1noc(N)n1	
InChI=1S/C4H7N3O2/c1-2-8-4-6-3(5)9-7-4/h2H2,1H3,(H2,5,6,7)	InChI=1S/C4H7N3O2/c1-2-8-4-6-3(5)9-7-4/h2H2,1H3,(H2,5,6,7)
