17
gdb 52809	1.97639	1.1143	0.80852	2.9954	80.57	-0.2371	-0.0201	0.217	1449.1723	0.132038	-421.795225	-421.785176	-421.784232	-421.831703	35.041	
C	 0.1019261609	 1.5148978438	 0.0355577163	-0.501071
C	 0.0707069747	 0.0607139718	 0.0712977911	 0.031016
C	 0.0420995469	-1.1433868539	 0.1124033296	 0.055882
C	 0.0514922594	-2.5834731749	 0.1021472732	 0.239266
O	 1.1606714351	-3.1769190745	-0.5093544924	-0.438337
C	-0.5002180811	-3.3635222713	 1.2436875757	-0.331355
C	-1.2866944285	-3.3572819212	-0.0592886799	-0.172873
C	-2.5687204894	-2.6256270353	-0.1426259018	 0.156958
O	-3.4796077976	-2.9323409477	-0.8734232945	-0.270441
H	 1.0686005517	 1.8750992591	-0.3327343404	 0.156192
H	-0.6766245124	 1.9162797893	-0.6221662843	 0.155738
H	-0.0503567019	 1.938997559	 1.033958822	 0.155434
H	 1.2403747172	-2.8050014856	-1.395339069	 0.290694
H	 0.0158510391	-4.282881826	 1.493046605	 0.143992
H	-0.9105241582	-2.8113915777	 2.0816671886	 0.13586
H	-1.2128903572	-4.23905958	-0.6853956433	 0.118619
H	-2.6403631787	-1.7428605648	 0.5317552441	 0.074426
26.6341	64.3204	107.6535	120.7807	196.2524	241.8211	307.5355	329.4329	345.8983	382.5055	415.5896	465.0585	553.1674	594.5328	612.2233	807.5167	858.0367	898.1318	954.0877	1045.5226	1050.8511	1052.2718	1053.723	1072.5119	1090.9685	1166.1122	1212.7939	1277.082	1327.7397	1402.8454	1413.9303	1441.5616	1472.1207	1474.4408	1477.5949	1811.4213	2363.6464	2879.8152	3030.112	3092.5299	3094.0075	3143.8922	3189.6636	3240.4003	3799.4192
CC#CC1(O)CC1C=O	CC#C[C@@]1(O)C[C@H]1C=O	
InChI=1S/C7H8O2/c1-2-3-7(9)4-6(7)5-8/h5-6,9H,4H2,1H3	InChI=1S/C7H8O2/c1-2-3-7(9)4-6(7)5-8/h5-6,9H,4H2,1H3/t6-,7+/m0/s1
