21
gdb 82811	2.28392	1.92094	1.45764	1.5768	80.98	-0.2494	0.0677	0.3171	1010.6238	0.183477	-387.05641	-387.048415	-387.047471	-387.088226	32.685	
C	 0.0948232599	 1.5268443625	 0.0017186956	-0.507636
C	-0.011264937	 0.0190252075	-0.0048367782	 0.318065
C	 0.4598496098	-0.744498076	-1.2711740179	-0.292063
C	-0.7016025279	-1.7553291219	-1.118639603	-0.024223
C	-0.4379854486	-2.8160202847	-0.0224012374	-0.245769
C	-0.7644098884	-1.774523219	 1.0746722378	-0.084332
C	 0.3658495313	-0.7395651019	 1.3019425344	 0.111649
O	 1.6889540057	-1.1541068609	 1.5344410154	-0.438992
C	-1.3494832693	-0.8200896361	-0.0320871027	-0.093876
H	 1.1449854172	 1.8395492007	 0.055419151	 0.123556
H	-0.3371526921	 1.9665048104	-0.9044800598	 0.109761
H	-0.4239020089	 1.9608542557	 0.8642100047	 0.112328
H	 0.3287328207	-0.1210657314	-2.1611705053	 0.099226
H	 1.4849545857	-1.1366508928	-1.2856166211	 0.078131
H	-1.2033828364	-2.0843783254	-2.0291111976	 0.064066
H	-1.1983599601	-3.6018587905	-0.0427549953	 0.103892
H	 0.5456910147	-3.3034857861	-0.0028908612	 0.078268
H	-1.3036125429	-2.1218495315	 1.956507156	 0.063795
H	 0.1038841575	-0.106992164	 2.1574561579	 0.083032
H	 1.9386959984	-1.7686898097	 0.8367021594	 0.281164
H	-2.3557571295	-0.4087588449	-0.0518657028	 0.059956
165.9077	198.5436	230.3853	246.235	267.2391	296.3982	388.1067	461.5819	561.4453	571.985	609.4489	716.483	785.8769	829.3293	835.9236	842.7697	883.5875	926.7496	934.7367	951.9753	989.7505	1017.5498	1040.5645	1064.254	1104.4629	1115.3483	1122.9082	1145.9589	1162.5997	1189.9961	1201.7027	1230.1791	1241.9302	1260.0837	1268.2407	1294.3138	1314.6987	1322.3575	1357.9241	1408.8952	1433.7307	1483.1093	1490.846	1493.0132	1497.705	3013.1593	3016.0745	3019.938	3048.7809	3075.031	3081.4958	3081.9929	3086.4959	3096.7339	3100.5542	3143.8633	3815.9244
CC12CC3CC(C1O)C23	C[C@@]12C[C@H]3C[C@@H]([C@H]1O)[C@@H]23	
InChI=1S/C8H12O/c1-8-3-4-2-5(6(4)8)7(8)9/h4-7,9H,2-3H2,1H3	InChI=1S/C8H12O/c1-8-3-4-2-5(6(4)8)7(8)9/h4-7,9H,2-3H2,1H3/t4-,5-,6+,7-,8+/m1/s1
