16
gdb 35040	3.28187	1.46038	1.41654	3.908	67.56	-0.2729	0.0216	0.2945	956.6148	0.127256	-437.901385	-437.894558	-437.893614	-437.932692	26.57	
N	-0.0629996171	-1.1532922163	-0.0998051473	-0.329265
C	-0.0229281623	-0.0000908504	-0.0326864327	 0.286744
C	 0.0077652329	 1.4502051498	 0.043317948	-0.211673
C	-0.2891859075	 2.0653427165	 1.4425085353	-0.1011
C	 0.9266651113	 1.544131885	 2.2296255597	-0.087756
O	 1.9953803011	 1.5916052624	 1.2558387248	-0.264011
C	 1.4178899731	 2.099891849	 0.0779064594	 0.226699
O	 1.1162835779	 3.4722959051	 0.2059369028	-0.268429
C	-0.0091041668	 3.5414465966	 1.1112061639	-0.091859
H	-0.6134989078	 1.8799679849	-0.7456855172	 0.135063
H	-1.262334748	 1.8551976891	 1.8824995581	 0.105081
H	 1.1756904802	 2.1844285817	 3.0821794735	 0.116783
H	 0.8000903991	 0.513386295	 2.5765682186	 0.132351
H	 2.0969614191	 1.9498392023	-0.7580479742	 0.118812
H	-0.8504435978	 4.0325186466	 0.608017478	 0.112969
H	 0.2647465525	 4.1245446028	 1.9968543494	 0.119591
141.5239	153.8409	206.4607	384.1642	398.5937	456.2933	523.2678	563.1925	635.1038	792.9884	836.5165	863.4908	914.173	921.6919	933.6873	947.0474	970.0961	1014.0003	1038.0633	1062.9074	1089.443	1114.9862	1166.1592	1194.7306	1202.0225	1259.4659	1275.6113	1298.7617	1320.0795	1353.3704	1382.3835	1394.066	1518.0751	1532.8181	2359.6864	3029.2891	3041.4519	3075.4108	3087.8978	3095.5517	3143.2642	3167.1818
N#CC1C2COC1OC2	N#C[C@H]1[C@H]2CO[C@@H]1OC2	
InChI=1S/C6H7NO2/c7-1-5-4-2-8-6(5)9-3-4/h4-6H,2-3H2	InChI=1S/C6H7NO2/c7-1-5-4-2-8-6(5)9-3-4/h4-6H,2-3H2/t4-,5-,6+/m0/s1
