21
gdb 52128	5.05997	0.6615	0.61639	2.6944	87.04	-0.2337	-0.021	0.2126	1812.7346	0.182142	-387.120627	-387.111155	-387.110211	-387.15664	33.723	
O	-0.8266197589	 1.013585927	 0.7293667264	-0.235058
C	 0.0728663248	 1.049034956	-0.069929622	 0.157705
C	 1.2521373606	 1.9915360267	-0.0115924315	-0.2653
C	 1.3652768777	 2.8412277548	-1.3008924008	-0.330262
C	 2.5886168613	 3.7098936204	-1.328530503	 0.356422
C	 3.6162075312	 3.6117842294	-2.1750978136	-0.173577
C	 4.6586438998	 4.6811160728	-1.9583451527	-0.242792
C	 4.250754196	 5.2912159513	-0.5919324926	-0.203164
C	 2.7693812608	 4.8882175889	-0.3885199818	-0.300583
H	 0.0841955419	 0.3589618998	-0.9475724937	 0.069155
H	 1.1553704069	 2.6156019329	 0.880421279	 0.124651
H	 2.1629867512	 1.3848565269	 0.0876718707	 0.121918
H	 1.3682806885	 2.1748579225	-2.1716335152	 0.106239
H	 0.4644772219	 3.4650444487	-1.3834661785	 0.115947
H	 3.6887396643	 2.8767711877	-2.9708236338	 0.082156
H	 5.6818853316	 4.2884095924	-1.9525329262	 0.101532
H	 4.6231780914	 5.4256315719	-2.7669030918	 0.104855
H	 4.8593933171	 4.8438758185	 0.2001939003	 0.105073
H	 4.40636291	 6.3718310394	-0.5452511887	 0.097742
H	 2.0797083264	 5.698634113	-0.6676636128	 0.10438
H	 2.5431432456	 4.646991919	 0.6562940925	 0.10296
49.8102	53.2594	84.7937	100.4701	153.7697	279.2561	284.1709	326.4942	472.6441	535.4842	602.4151	688.7011	768.1221	806.2727	837.0518	860.8398	884.3557	908.7102	917.3045	956.6104	990.509	1037.9636	1057.0707	1076.1922	1087.45	1151.2776	1169.8007	1193.8353	1230.2285	1245.7344	1261.7375	1281.7374	1312.5524	1322.3704	1329.1659	1362.0304	1372.0911	1429.2733	1463.463	1483.2897	1487.4455	1488.0863	1506.7852	1717.3561	1836.1217	2845.7612	2999.2585	3003.0145	3009.334	3024.0451	3043.3889	3051.4005	3058.3222	3063.03	3102.3288	3108.6069	3178.7169
O=CCCC1=CCCC1	O=CCCC1=CCCC1	
InChI=1S/C8H12O/c9-7-3-6-8-4-1-2-5-8/h4,7H,1-3,5-6H2	InChI=1S/C8H12O/c9-7-3-6-8-4-1-2-5-8/h4,7H,1-3,5-6H2
