25
gdb 112959	3.76347	0.73922	0.66067	1.2764	89.89	-0.2608	0.0775	0.3383	1796.7212	0.227602	-389.486904	-389.476167	-389.475223	-389.522951	39.904	
C	 0.0664853921	 1.4744516018	-0.1562627076	-0.388686
C	 0.0651188627	-0.0443976661	 0.0645817186	 0.020496
C	 0.7720093611	-0.4129861171	 1.3761355052	-0.389038
C	-1.3543411778	-0.6078304555	 0.0263017672	 0.075155
C	-2.1660924211	-0.5310541916	-1.3002095678	-0.28112
C	-2.7222606382	-1.9492092202	-1.0011803682	 0.050733
C	-2.8604901954	-2.92187236	-2.1524334877	-0.096307
O	-3.25916332	-4.1787581053	-1.6220364118	-0.422823
C	-1.5623369819	-2.1497750388	 0.0107701298	-0.24914
H	 1.086822405	 1.8719729842	-0.1730387724	 0.10733
H	-0.4131045637	 1.7436555783	-1.1029189148	 0.11323
H	-0.4749970134	 1.9862336638	 0.6486559705	 0.109515
H	 0.6239898877	-0.5076695743	-0.7628837416	 0.061209
H	 0.25633776	 0.0322446563	 2.2357047655	 0.109495
H	 0.7965673203	-1.4967782434	 1.5281053541	 0.115567
H	 1.8050249872	-0.0494497219	 1.3856494691	 0.106973
H	-1.9394908526	-0.1627762163	 0.8419372251	 0.061645
H	-2.8835247428	 0.2841158624	-1.4225262592	 0.094562
H	-1.4992823278	-0.5394003813	-2.1713366853	 0.090805
H	-3.6807155617	-1.8875874781	-0.4750406637	 0.077056
H	-3.6003541432	-2.5400438155	-2.8763769982	 0.081312
H	-1.8962744568	-3.0016145906	-2.6826760046	 0.075939
H	-3.3226140374	-4.8060141849	-2.3480179241	 0.285226
H	-0.7135649238	-2.6616246135	-0.458361309	 0.09136
H	-1.7901074785	-2.6515456623	 0.953259761	 0.099507
58.5295	74.1586	98.8076	180.295	213.0628	227.7738	239.071	262.2461	296.6678	325.572	404.5541	409.4566	446.3806	484.4786	618.8895	766.7614	816.2951	875.3083	909.2264	927.6071	938.9507	954.6194	975.7053	991.4941	1030.9566	1045.1782	1064.1048	1092.225	1120.2092	1148.4218	1175.8867	1194.2754	1228.1457	1233.8162	1243.1821	1267.8173	1271.6216	1284.3555	1300.3924	1322.7874	1351.3204	1366.6428	1397.0075	1398.317	1419.9512	1461.5287	1475.6682	1487.4421	1491.9731	1499.0221	1504.4813	1510.1173	1520.0717	2948.844	2975.1993	2984.0314	3016.1378	3021.6366	3026.8698	3029.605	3038.2477	3054.2548	3085.5554	3091.3998	3095.563	3098.2473	3100.2978	3108.1681	3828.7502
CC(C)C1CC(CO)C1	CC(C)[C@H]1C[C@@H](CO)C1	
InChI=1S/C8H16O/c1-6(2)8-3-7(4-8)5-9/h6-9H,3-5H2,1-2H3	InChI=1S/C8H16O/c1-6(2)8-3-7(4-8)5-9/h6-9H,3-5H2,1-2H3/t7-,8+
