18
gdb 28305	4.9503	1.22851	0.99645	1.6211	89.46	-0.1813	-0.0083	0.1729	1188.6818	0.149938	-364.866113	-364.858497	-364.857553	-364.898178	29.656	
C	-0.0174905778	 1.5004025385	-0.0096406463	-0.494404
C	 0.0035030469	 0.0008140526	 0.0179985655	 0.302186
C	-0.0285073078	-0.8324746242	-1.0883065829	-0.224514
N	 0.0074673931	-2.1243570464	-0.6400184525	-0.021048
C	 0.0036838075	-3.4662827179	-1.1972595728	-0.241785
C	 0.0650275243	-4.3152958996	 0.0588192837	-0.108279
C	 0.0973184816	-3.5277388991	 1.1491553638	-0.202539
C	 0.0619879354	-2.1380404954	 0.7375762506	 0.39202
C	 0.0609485984	-0.8302568345	 1.1790269144	-0.44193
H	 0.8831231392	 1.9296207577	 0.4456587628	 0.121909
H	-0.0767942647	 1.8747978807	-1.0360010936	 0.114981
H	-0.8758654721	 1.9061448494	 0.5389705041	 0.121829
H	-0.0736208444	-0.5930297454	-2.1393289414	 0.111019
H	-0.903115119	-3.65801527	-1.7859729998	 0.131439
H	 0.8659359239	-3.6338828811	-1.8560908989	 0.131427
H	 0.0787672171	-5.3952498852	 0.0300192538	 0.10628
H	 0.1424950702	-3.8584328521	 2.1775234416	 0.110562
H	 0.0965907683	-0.496390448	 2.2050397777	 0.090848
97.8888	123.9602	227.9717	263.5759	283.9324	437.9147	476.9878	545.5405	621.8532	654.8905	707.6938	740.3838	746.0303	772.1168	781.6832	885.2324	938.9685	942.7793	986.7941	991.2093	1008.4152	1060.6048	1084.9287	1152.9048	1167.5036	1185.6805	1221.5391	1282.4093	1342.31	1376.8772	1402.2845	1410.8668	1433.4583	1482.5578	1484.5758	1502.8191	1541.227	1601.5108	1627.386	3015.1885	3021.1583	3042.24	3067.7828	3101.2649	3226.5276	3243.2753	3248.8821	3251.7957
CC1=CN2CC=CC2=C1	Cc1cn2CC=Cc2c1	
InChI=1S/C8H9N/c1-7-5-8-3-2-4-9(8)6-7/h2-3,5-6H,4H2,1H3	InChI=1S/C8H9N/c1-7-5-8-3-2-4-9(8)6-7/h2-3,5-6H,4H2,1H3
