25
gdb 121841	3.67175	0.68614	0.672	0.4501	86.28	-0.2451	0.0717	0.3167	1852.3637	0.224876	-426.626734	-426.614636	-426.613692	-426.664584	43.177	
C	-0.1191653551	 1.4334536968	 0.1930947457	-0.383043
C	 0.0120599244	-0.0781829007	-0.0058600722	-0.174063
C	 0.7394129966	-0.436558329	-1.2968692837	-0.049414
O	 0.8040832129	-1.8460255962	-1.3796090445	-0.300648
C	 1.4495111135	-2.4281764544	-2.5180924277	 0.371247
C	 0.7244397166	-2.0800899484	-3.8254650811	-0.423753
C	 2.9359499065	-2.0513860757	-2.5864426478	-0.423768
C	 1.3044084076	-3.9306870311	-2.2242393208	-0.103422
O	 1.9048711921	-4.6675479748	-3.2787673959	-0.421646
H	 0.8626425174	 1.9179866595	 0.2372966699	 0.115051
H	-0.6799589102	 1.8976793254	-0.6258515007	 0.115054
H	-0.6436513759	 1.6637009726	 1.1250371405	 0.115586
H	 0.5540445799	-0.5274359077	 0.8343160391	 0.102836
H	-0.9783192487	-0.5475583382	-0.0234436428	 0.102837
H	 0.200443311	-0.0111158172	-2.1578255741	 0.08453
H	 1.7464641649	 0.009029597	-1.2923888397	 0.084536
H	 0.8848272868	-1.0388125619	-4.1189701301	 0.109356
H	 1.0938374723	-2.7203697165	-4.6298216994	 0.136244
H	-0.3516868302	-2.2479587261	-3.7155466255	 0.112511
H	 3.4072424939	-2.1991093756	-1.6095246332	 0.112526
H	 3.4416821917	-2.6899553061	-3.314362929	 0.136271
H	 3.0819681975	-1.0103274241	-2.8881065886	 0.109356
H	 1.7844913697	-4.1404879098	-1.2575235834	 0.090396
H	 0.2336263214	-4.1606623622	-2.1264981318	 0.090398
H	 1.8063523336	-5.6032922255	-3.0845910533	 0.291023
42.5508	60.1667	112.0984	122.0138	141.97	208.0763	225.9844	234.8322	236.5927	250.5537	309.0711	336.1251	338.1319	379.3212	453.5929	482.9335	583.4255	752.2306	766.0146	888.8769	902.265	910.4899	910.6715	959.8554	984.7042	1038.0439	1049.2704	1077.2386	1117.7817	1145.6284	1178.5703	1191.0121	1196.6366	1244.6555	1269.6603	1292.1604	1295.4668	1318.4052	1336.2865	1389.7354	1399.7321	1411.9416	1432.3057	1451.6503	1481.2347	1489.5835	1492.0238	1499.4318	1500.213	1505.5983	1508.9513	1523.6398	1531.6871	2974.8839	2988.374	3003.1812	3026.9593	3030.6988	3037.5975	3039.937	3044.7411	3070.3893	3098.6653	3106.3902	3108.3744	3112.0938	3128.4841	3132.9501	3844.2609
CCCOC(C)(C)CO	CCCOC(C)(C)CO	
InChI=1S/C7H16O2/c1-4-5-9-7(2,3)6-8/h8H,4-6H2,1-3H3	InChI=1S/C7H16O2/c1-4-5-9-7(2,3)6-8/h8H,4-6H2,1-3H3
