19
gdb 77653	2.05338	1.54905	1.22422	2.8899	78.65	-0.2375	-0.0199	0.2176	1124.084	0.157547	-423.011576	-423.0025	-423.001555	-423.044973	34.155	
C	-0.0115578612	 1.5609557262	 0.0690407171	-0.493282
C	 0.0223381875	 0.0610497838	 0.0238142399	 0.264561
C	 0.5931490436	-0.7659315377	-1.136243612	-0.28408
C	 1.2109764262	-1.7913626087	-0.1327827494	-0.303378
C	 0.6670405464	-0.9773494279	 1.0364349336	 0.176766
C	 1.369189427	-0.7033404189	 2.2872327167	 0.040132
O	 2.4593088202	-1.1579487844	 2.5655631299	-0.281468
C	-0.8450711063	-0.7957490167	 0.8671477918	 0.001001
O	-1.5349093675	-0.1115148687	 1.8669051136	-0.421898
H	 0.9816041591	 1.9865208255	-0.1065826811	 0.124578
H	-0.6781617691	 1.9399382446	-0.7157985954	 0.126724
H	-0.3868201026	 1.9227061834	 1.0278693724	 0.145341
H	-0.1470424988	-1.1521884979	-1.8450304828	 0.101604
H	 1.3558152096	-0.2185781311	-1.6944846349	 0.114538
H	 0.8423050858	-2.8199052941	-0.2023795475	 0.10014
H	 2.3013591718	-1.8087608362	-0.1464405182	 0.132275
H	 0.8359849654	-0.0238142779	 2.9865348692	 0.069229
H	-1.3944399287	-1.6278550371	 0.4166177379	 0.089393
H	-1.6922858284	-0.7180865565	 2.5980601691	 0.297825
97.4548	164.4444	192.8957	200.9924	218.8796	266.3008	278.4878	346.8198	361.8677	420.0011	526.8563	549.3454	630.7614	691.9472	774.5529	782.1368	808.7539	948.0968	956.2753	995.8039	1030.6827	1062.384	1066.9588	1106.9062	1159.4705	1165.2545	1218.8806	1239.4653	1243.8478	1257.5611	1283.0651	1334.0305	1372.6668	1411.7727	1435.363	1460.4553	1481.275	1491.1385	1495.5195	1507.3064	1778.2609	2895.2466	3028.4938	3044.4499	3048.367	3054.1579	3087.0502	3104.4082	3130.0812	3136.8412	3811.193
CC12CCC1(C=O)C2O	C[C@@]12CC[C@]1(C=O)[C@H]2O	
InChI=1S/C7H10O2/c1-6-2-3-7(6,4-8)5(6)9/h4-5,9H,2-3H2,1H3	InChI=1S/C7H10O2/c1-6-2-3-7(6,4-8)5(6)9/h4-5,9H,2-3H2,1H3/t5-,6-,7-/m0/s1
