16
gdb 7308	2.94957	1.71742	1.21593	2.382	62.36	-0.2411	0.0065	0.2476	983.5233	0.130439	-417.126672	-417.118032	-417.117088	-417.159982	30.965	
C	 0.9442816376	 1.9473059025	-0.0398581564	-0.412239
C	 0.2029486605	 0.6173479532	-0.0548944518	-0.056154
N	 0.4540610198	-0.0892086205	-1.3157030141	-0.266928
C	-0.3902414872	-1.0055034381	-1.836650037	 0.159246
O	-1.4233970364	-1.3829348264	-1.3067397393	-0.343546
C	 0.6143836074	-0.2656686899	 1.1529134062	 0.392617
N	-0.2293226885	-1.3065857956	 1.3705280253	-0.522048
O	 1.594431085	-0.0222501069	 1.8305046047	-0.36404
H	 2.0254003632	 1.7838517078	-0.0385295022	 0.139747
H	 0.6631071113	 2.5539537929	-0.9051699015	 0.115306
H	 0.7040583517	 2.4994714697	 0.8707046204	 0.143521
H	-0.879420752	 0.7756924094	-0.0062704631	 0.122065
H	 1.3152055635	 0.1056965284	-1.8030893959	 0.257527
H	-0.0516759552	-1.386243927	-2.817778964	 0.095062
H	-0.935324304	-1.5378072522	 0.6815529679	 0.283934
H	 0.0315634035	-1.9844671772	 2.0687815407	 0.255928
60.43	114.6287	191.4483	213.0479	235.6053	276.5178	327.7011	354.4296	475.5686	497.3739	526.8959	595.2155	664.6643	730.4512	809.332	827.0174	908.8702	1026.5345	1038.9169	1105.983	1145.2103	1158.3244	1226.3329	1295.7866	1349.9784	1391.8315	1412.382	1423.3736	1484.6476	1491.866	1519.9721	1629.074	1770.2877	1803.8787	2968.1293	3052.1913	3062.8027	3127.7429	3138.5601	3512.4309	3626.1451	3684.5376
CC(NC=O)C(N)=O	C[C@@H](NC=O)C(=O)N	
InChI=1S/C4H8N2O2/c1-3(4(5)8)6-2-7/h2-3H,1H3,(H2,5,8)(H,6,7)	InChI=1S/C4H8N2O2/c1-3(4(5)8)6-2-7/h2-3H,1H3,(H2,5,8)(H,6,7)/t3-/m1/s1
