20
gdb 107190	3.39355	1.18893	1.04304	1.0061	80.21	-0.202	0.0761	0.2781	1238.28	0.168889	-403.039005	-403.030226	-403.029282	-403.072177	33.855	
C	 0.0899048278	 1.3063465996	 0.2762443321	-0.255991
O	 0.0303424945	-0.0593966617	-0.1069213278	-0.275796
C	-1.24975238	-0.5621943278	-0.1131807845	 0.428788
C	-2.0000410905	-0.975142842	 1.1241503245	-0.352635
C	-1.6770252076	-2.0006701876	 0.0469998084	-0.18715
C	-2.5943314652	-1.8458255773	-1.2011918415	-0.029741
C	-2.1838730457	-0.4336472047	-1.3674306956	-0.129729
N	-3.5701548975	-0.7570423225	-0.9807753119	-0.101247
C	-4.5225716304	-0.6089477282	-2.0774841256	-0.32101
H	 1.1413761321	 1.600201056	 0.2455738337	 0.125664
H	-0.4803280324	 1.9459338583	-0.4122283153	 0.110522
H	-0.3009649593	 1.4535293831	 1.2920380408	 0.114936
H	-1.3583955329	-1.0669563609	 1.9957293084	 0.109867
H	-3.0195295778	-0.6650162329	 1.3124639331	 0.133337
H	-1.0702903613	-2.8748925111	 0.2414413616	 0.09914
H	-2.7768947694	-2.6052293461	-1.9510546485	 0.091945
H	-1.9579070269	 0.1242582554	-2.2679020379	 0.092233
H	-4.1044639915	-0.8507791477	-3.0697516217	 0.097833
H	-5.3789489488	-1.2665755851	-1.898122601	 0.125125
H	-4.8822540173	 0.4245750632	-2.1017831913	 0.123908
89.2352	151.492	169.9839	221.5941	239.5039	277.4387	349.296	395.6344	418.6218	436.7164	531.934	654.2805	757.1501	795.9951	817.0436	841.0315	866.8209	890.8932	930.7517	979.8876	992.1473	1010.0131	1055.1742	1069.4325	1088.8112	1122.8766	1138.3876	1149.6836	1177.9388	1181.4911	1211.1569	1224.9186	1270.7977	1281.8623	1331.7386	1379.522	1448.3817	1457.5283	1486.4032	1491.0556	1493.267	1499.3872	1506.4548	2955.9969	2994.7337	3049.9209	3065.4537	3103.4914	3122.7361	3135.0368	3184.627	3196.8629	3206.5601	3234.6715
COC12CC1C1C2N1C	CO[C@]12C[C@H]1[C@@H]1[C@H]2N1C	
InChI=1S/C7H11NO/c1-8-5-4-3-7(4,9-2)6(5)8/h4-6H,3H2,1-2H3	InChI=1S/C7H11NO/c1-8-5-4-3-7(4,9-2)6(5)8/h4-6H,3H2,1-2H3/t4-,5+,6+,7+,8?/m0/s1
