19
gdb 120402	3.07233	0.9111	0.79076	2.8467	72.38	-0.2652	-0.0022	0.263	1499.136	0.157445	-460.19026	-460.180455	-460.179511	-460.225885	34.38	
C	-0.2791175531	 1.4587334723	-0.1510985073	-0.38263
C	-0.0258597651	-0.0492977374	-0.0873654628	-0.176933
C	 0.8430429853	-0.5522475422	-1.2465172967	-0.176204
C	 1.080798518	-2.0456629209	-1.1955430283	 0.097176
O	-0.1745028201	-2.8170541239	-1.3764859098	-0.252174
C	 0.2598841087	-3.3538045272	-2.554435933	 0.415225
O	-0.3385021307	-4.0328731162	-3.327054669	-0.330498
C	 1.662455348	-2.732466859	-2.4522590115	-0.077117
O	 2.0564490657	-1.8728442371	-3.4871625743	-0.420505
H	 0.6596269662	 2.0225409747	-0.1111950412	 0.11475
H	-0.7906790096	 1.7344235637	-1.079664327	 0.119325
H	-0.9031397176	 1.7907916674	 0.6840317951	 0.116093
H	 0.4573462907	-0.3027103464	 0.8656338075	 0.095029
H	-0.9799534432	-0.5883807266	-0.1003147108	 0.120621
H	 0.3859539137	-0.296993069	-2.2083973763	 0.115203
H	 1.8228383395	-0.057217033	-1.2313224563	 0.112155
H	 1.5452517084	-2.3557480196	-0.2554192721	 0.098323
H	 2.4301974757	-3.4833772444	-2.2186851467	 0.107026
H	 1.9518955596	-2.3462443751	-4.3202649195	 0.305137
61.9765	87.9667	115.184	121.9906	133.4657	244.7755	258.3546	270.1777	323.1463	429.9914	505.2005	568.8249	707.02	736.9745	782.4001	835.9295	879.4448	901.1035	912.0579	953.5583	1049.0845	1069.4673	1112.8667	1135.4511	1146.7157	1184.3435	1201.103	1258.7519	1276.7035	1317.3806	1327.6542	1340.3513	1381.7014	1407.0972	1411.3579	1417.9346	1472.8738	1493.3284	1499.7086	1510.2171	1931.4021	3009.4172	3020.425	3030.2699	3033.7393	3061.5958	3073.6746	3089.9726	3101.1385	3106.2231	3809.0542
CCCC1OC(=O)C1O	CCC[C@H]1OC(=O)[C@H]1O	
InChI=1S/C6H10O3/c1-2-3-4-5(7)6(8)9-4/h4-5,7H,2-3H2,1H3	InChI=1S/C6H10O3/c1-2-3-4-5(7)6(8)9-4/h4-5,7H,2-3H2,1H3/t4-,5+/m1/s1
