16
gdb 12641	3.26496	1.99557	1.32611	0.6854	67.32	-0.2366	-0.0529	0.1837	917.3701	0.131329	-379.96868	-379.960773	-379.959828	-380.001012	29.209	
C	-0.1199040693	 1.5579941522	 0.0248304893	-0.401814
C	 0.072647498	 0.0383431876	-0.0058490139	-0.109555
C	 0.8779605253	-0.5294152007	-1.1983958058	-0.185347
N	 1.9508112589	-1.391535907	-0.6774321258	-0.281683
C	 1.9532815005	-1.3335739323	 0.6042864882	 0.283609
N	 2.8329727349	-1.9283697713	 1.4497495412	-0.567611
C	 0.86805387	-0.4708211741	 1.1887668066	 0.345027
O	 0.6910599054	-0.2643670674	 2.3655836754	-0.336003
H	 0.8412604062	 2.0757389329	-0.0603026866	 0.12519
H	-0.7554323787	 1.8886224776	-0.8016738367	 0.120983
H	-0.5864080982	 1.8624057609	 0.9659879952	 0.138048
H	-0.9119296835	-0.4442275036	 0.0473879235	 0.112406
H	 0.2527338301	-1.1102473049	-1.8856936009	 0.11128
H	 1.3279513862	 0.2744701268	-1.795386642	 0.113218
H	 3.4227631771	-2.6642005981	 1.0985923762	 0.263631
H	 2.5677539671	-1.9571299384	 2.4214145961	 0.268619
52.3053	215.3165	222.7064	226.2184	270.8295	329.5249	371.4028	442.6474	528.5866	542.8063	599.3558	689.9346	723.967	798.197	908.7385	927.6424	957.5814	1010.8214	1092.1803	1120.9526	1139.64	1166.7705	1226.394	1262.5054	1304.6693	1348.1286	1407.7099	1419.3472	1495.8435	1497.4164	1501.5945	1606.7501	1723.7754	1825.7717	3022.9819	3026.5796	3038.2736	3058.8499	3108.5028	3119.1277	3594.7135	3719.5753
CC1CN=C(N)C1=O	C[C@H]1CN=C(N)C1=O	
InChI=1S/C5H8N2O/c1-3-2-7-5(6)4(3)8/h3H,2H2,1H3,(H2,6,7)	InChI=1S/C5H8N2O/c1-3-2-7-5(6)4(3)8/h3H,2H2,1H3,(H2,6,7)/t3-/m0/s1
