17
gdb 46624	2.71796	1.72442	1.15389	4.0129	74.78	-0.2209	-0.0268	0.1941	1044.7262	0.136894	-421.847891	-421.840421	-421.839477	-421.880425	28.299	
O	 0.0566131907	 0.0174065219	-0.0304291449	-0.297268
C	 0.0217303396	 1.2152412432	 0.0254235042	 0.365742
C	-1.2236933101	 2.0689868514	 0.3634495397	-0.321326
C	-0.7221463995	 3.5326583175	 0.5787285516	-0.338625
C	 0.7597938227	 3.3442218286	 0.6978974441	 0.296868
C	 1.7465357299	 3.6634193313	 1.5257952381	-0.256385
C	 2.9355070906	 2.7753537168	 1.2367877645	-0.109463
O	 2.4731642537	 1.8074398104	 0.2812459411	-0.270892
C	 1.1963739795	 2.197717071	-0.1674300114	-0.024234
H	-1.9737603405	 1.9765432709	-0.4276307272	 0.135105
H	-1.6716325716	 1.65262007	 1.2708287712	 0.144613
H	-0.9696391952	 4.1495207481	-0.2935947753	 0.121543
H	-1.1692361131	 4.0110449079	 1.4526556634	 0.121577
H	 1.7297767007	 4.3840760296	 2.3336468988	 0.108571
H	 3.7945072718	 3.3252632487	 0.8197226039	 0.108897
H	 3.2879088338	 2.2530076692	 2.1370035393	 0.117831
H	 1.2213362971	 2.4589699735	-1.2439177211	 0.097446
64.9171	100.5695	233.3209	237.7275	325.6252	452.0952	544.006	563.4968	631.345	640.5655	725.2646	782.4182	813.9876	856.8519	928.6808	951.3389	958.2715	971.4709	1004.7059	1038.7797	1049.6529	1148.9209	1152.4145	1179.1179	1192.9531	1210.3555	1242.5425	1265.4538	1296.1582	1316.4751	1345.7047	1378.7917	1448.1283	1487.6102	1516.8517	1746.0768	1862.9258	2906.7098	2974.7755	3020.2757	3034.9326	3062.5842	3097.8311	3111.426	3215.2418
O=C1CCC2=CCOC12	O=C1CCC2=CCO[C@@H]12	
InChI=1S/C7H8O2/c8-6-2-1-5-3-4-9-7(5)6/h3,7H,1-2,4H2	InChI=1S/C7H8O2/c8-6-2-1-5-3-4-9-7(5)6/h3,7H,1-2,4H2/t7-/m1/s1
