18
gdb 31734	6.23842	0.85287	0.75878	0.8485	77.13	-0.1763	0.0519	0.2282	1498.2797	0.147001	-439.090383	-439.081036	-439.080092	-439.125322	33.477	
C	-0.0484305911	 1.4275439768	-0.064214707	-0.324313
N	 0.015952904	-0.0046224583	 0.1600446106	-0.383467
C	-1.1735406433	-0.7195291513	 0.0697331875	 0.309918
C	-2.4484964932	-0.2349471285	 0.0496196242	-0.137684
O	-3.3453271927	-1.2993367739	 0.0244239943	-0.205369
C	-2.6063174351	-2.4225867766	 0.0131734616	 0.497042
O	-3.2386728514	-3.6000722161	-0.02582468	-0.270706
C	-4.6638847599	-3.5724620655	-0.0012987232	-0.244431
C	-1.2729384728	-2.1575593493	 0.0408632953	-0.463439
H	 0.9587177621	 1.8481136915	-0.0171427805	 0.121057
H	-0.5032551034	 1.7006919907	-1.0306970187	 0.109062
H	-0.6435810351	 1.8946232002	 0.7286548979	 0.131945
H	 0.7768997116	-0.4523157979	-0.3302921224	 0.233961
H	-2.8908175164	 0.7432938566	 0.070457115	 0.119773
H	-4.97893684	-4.6159492277	-0.0310782862	 0.135277
H	-5.0357328763	-3.0971910272	 0.9122575575	 0.134135
H	-5.0655994023	-3.0375026903	-0.8678523911	 0.134268
H	-0.4723993346	-2.8781515932	 0.0538696352	 0.102969
30.9216	93.6728	157.3524	168.3078	202.0855	251.7362	265.2893	363.2694	380.576	519.0777	552.9166	579.7018	646.5991	668.0036	686.404	735.5185	747.7648	952.1011	991.5204	1055.7111	1087.5619	1113.0415	1148.9901	1165.7645	1176.5574	1203.5489	1221.8331	1270.1948	1339.7448	1405.1859	1457.7227	1476.632	1481.9703	1484.1951	1502.8838	1512.2584	1528.6172	1627.5777	1680.2863	2968.7926	3032.7605	3059.1325	3099.3847	3118.1821	3148.3224	3269.1349	3309.8418	3587.2451
CNC1=COC(OC)=C1	CNc1coc(OC)c1	
InChI=1S/C6H9NO2/c1-7-5-3-6(8-2)9-4-5/h3-4,7H,1-2H3	InChI=1S/C6H9NO2/c1-7-5-3-6(8-2)9-4-5/h3-4,7H,1-2H3
