18
gdb 111479	2.77124	1.50955	1.10367	3.7918	72.24	-0.2236	-0.0197	0.2039	1116.56	0.147586	-439.069961	-439.061672	-439.060728	-439.10309	31.02	
C	 0.0399094057	 1.3002946225	-0.20491713	-0.243218
O	-0.1283234428	-0.0895424975	 0.0229031308	-0.244401
C	 0.6251395415	-0.5985099216	 1.0868291938	 0.06326
C	 0.152597289	-1.9648675135	 1.5214103076	-0.086532
N	 0.542580939	-3.0311131899	 0.5778699001	-0.322708
C	 1.3299985442	-2.8317457614	 1.8089504195	-0.0463
C	 2.6115672982	-2.0748721655	 1.5253187473	-0.313409
C	 2.1308895422	-0.8273606239	 0.7709701167	 0.365831
O	 2.7974056455	-0.1352926416	 0.0488510835	-0.307349
H	 1.0616633478	 1.5409249149	-0.5126235177	 0.143326
H	-0.6561822979	 1.5716502212	-1.0020399039	 0.125196
H	-0.2104001665	 1.882186393	 0.6969539887	 0.096095
H	 0.5823690179	 0.0851412826	 1.9581274597	 0.078366
H	-0.7746516094	-2.0578930929	 2.0756790397	 0.094719
H	-0.0847935977	-3.8235062993	 0.6859694161	 0.237944
H	 1.2943936808	-3.5790587679	 2.5941296232	 0.094116
H	 3.1099626708	-1.7619028133	 2.4522190207	 0.125344
H	 3.3352530219	-2.6296331459	 0.9230904243	 0.13972
77.2029	120.1376	170.5079	189.5812	262.8945	335.1283	376.7289	453.8821	479.1421	582.47	627.9207	684.0803	757.0636	829.0095	869.4148	881.0031	949.0342	967.6473	1022.1345	1043.4228	1060.1752	1094.0581	1138.8017	1152.8944	1172.1859	1181.3353	1191.9155	1230.4	1237.4535	1289.9313	1310.6775	1341.2315	1393.1342	1430.2923	1447.1651	1476.6376	1482.4535	1519.1435	1854.9829	2910.4571	2977.2593	3035.867	3082.4575	3106.9332	3127.6196	3167.1674	3177.8853	3513.8319
COC1C2NC2CC1=O	CO[C@H]1[C@H]2N[C@H]2CC1=O	
InChI=1S/C6H9NO2/c1-9-6-4(8)2-3-5(6)7-3/h3,5-7H,2H2,1H3	InChI=1S/C6H9NO2/c1-9-6-4(8)2-3-5(6)7-3/h3,5-7H,2H2,1H3/t3-,5-,6+/m0/s1
