17
gdb 39904	2.76031	1.80005	1.59928	1.6746	66.92	-0.2462	0.0789	0.3251	904.0556	0.137544	-458.924664	-458.917841	-458.916897	-458.955716	27.262	
C	 0.0516328852	 1.4687917587	-0.0017859183	-0.29482
O	 1.1880370572	 0.5785828094	 0.0025112363	-0.296355
C	-0.1073939723	 0.0229521773	 0.0082713946	 0.509165
C	-0.5952352347	-0.9133224569	 1.1036074439	-0.030662
C	-2.0662926893	-1.0390226487	 0.6933721292	-0.08168
O	-2.0003189314	-1.0341156923	-0.7569663113	-0.288515
C	-0.6131672325	-0.9028988303	-1.0913368811	-0.029136
C	 0.104344539	-2.1938858995	-0.6809210333	-0.082404
O	 0.0568394046	-2.1457330185	 0.7672781409	-0.288179
H	-0.0880111988	 2.0403094465	 0.9145652091	 0.122801
H	-0.1016901345	 2.0242413814	-0.9253759669	 0.125321
H	-0.3878247924	-0.6589645654	 2.1414959523	 0.095925
H	-2.5020845142	-1.9805606821	 1.0424666097	 0.115207
H	-2.6841606985	-0.1995274351	 1.0372098738	 0.102521
H	-0.5092813839	-0.5906683124	-2.1289909769	 0.094542
H	-0.4232781057	-3.082588394	-1.0408661549	 0.111597
H	 1.148691462	-2.2191050583	-1.015493377	 0.114672
153.4624	200.408	270.7561	300.0223	383.2884	401.7784	540.2682	599.7066	653.2614	762.9275	854.3589	867.6188	887.9424	901.7343	934.3254	942.5233	971.1785	1012.238	1019.3903	1046.8367	1086.1589	1091.2234	1117.6816	1163.73	1186.8396	1187.7975	1208.2722	1247.6234	1250.3233	1289.9574	1306.2248	1367.1712	1372.1284	1467.1423	1503.9429	1511.4378	1552.0976	3019.0966	3027.8637	3077.4631	3084.5151	3087.8963	3142.5441	3146.1755	3175.508
C1OC11C2COC1CO2	C1O[C@]21[C@H]1CO[C@@H]2CO1	
InChI=1S/C6H8O3/c1-4-6(3-9-6)5(7-1)2-8-4/h4-5H,1-3H2	InChI=1S/C6H8O3/c1-4-6(3-9-6)5(7-1)2-8-4/h4-5H,1-3H2/t4-,5-/m1/s1
