21
gdb 54257	2.30376	1.37749	1.336	2.0325	77.93	-0.2272	-0.0116	0.2156	1140.389	0.180765	-424.263578	-424.253843	-424.252899	-424.298835	35.628	
C	-0.2339332658	 1.4641751643	-0.0613309687	-0.470539
C	-0.0131879325	-0.0318307065	 0.0236834673	 0.353774
O	 0.1481700414	-0.6042338285	 1.0778220938	-0.317612
C	 0.0380200564	-0.8204610752	-1.3077310355	 0.288462
C	 1.5142752029	-1.0239690656	-1.668577071	-0.433638
C	-0.7588040293	-2.1339964706	-1.2008199359	-0.260115
C	-2.1487471573	-1.7222305295	-1.7033870705	-0.236106
C	-1.7916244444	-0.7007346049	-2.7868592568	-0.069987
O	-0.5972667566	-0.054029515	-2.3436277841	-0.305248
H	 0.4107935437	 1.9161623611	-0.8204044132	 0.144567
H	-1.261496146	 1.6665516079	-0.3803168669	 0.145965
H	-0.0557613498	 1.9126038763	 0.9167580455	 0.132735
H	 2.0170147028	-1.6029998825	-0.8891511308	 0.136573
H	 1.590783191	-1.5581362177	-2.6198741423	 0.120148
H	 2.028316622	-0.0638829584	-1.7753258758	 0.123672
H	-0.3190800413	-2.8892516719	-1.8609549984	 0.097296
H	-0.7460071153	-2.5170825246	-0.1801329494	 0.132348
H	-2.7389071126	-2.557488171	-2.0873449508	 0.105837
H	-2.7216174952	-1.2458346439	-0.9001655553	 0.111674
H	-1.606068391	-1.1979405457	-3.7507931478	 0.095308
H	-2.5622400432	 0.0612428519	-2.9434680036	 0.104886
44.568	54.7387	130.6567	178.9601	223.0339	230.8904	269.1264	317.3699	355.7415	465.7046	499.2735	562.8741	618.9369	631.6907	717.1768	838.4706	879.3968	892.6497	919.5753	934.606	972.7345	1002.566	1014.2735	1044.4297	1069.4104	1124.1753	1158.753	1190.3992	1196.1814	1217.671	1253.4842	1289.9623	1323.0001	1339.2213	1379.9116	1388.9383	1398.172	1452.1981	1465.2609	1483.1949	1487.7898	1493.9008	1500.2589	1531.1992	1803.6841	2990.5287	3040.2651	3045.0579	3049.6604	3052.9142	3068.7645	3109.7091	3111.6945	3114.1165	3126.5705	3135.2663	3155.7494
CC(=O)C1(C)CCCO1	CC(=O)[C@@]1(C)CCCO1	
InChI=1S/C7H12O2/c1-6(8)7(2)4-3-5-9-7/h3-5H2,1-2H3	InChI=1S/C7H12O2/c1-6(8)7(2)4-3-5-9-7/h3-5H2,1-2H3/t7-/m1/s1
