23
gdb 122652	5.29533	0.66996	0.62327	0.8331	89.44	-0.241	0.0225	0.2635	1886.9439	0.205521	-388.301421	-388.29152	-388.290576	-388.337634	35.792	
C	 0.0028283111	 1.4832032704	-0.128650824	-0.382457
C	-0.0642533173	-0.0333816104	 0.0655972366	-0.180197
C	 0.8219292509	-0.5158370489	 1.2068362815	-0.04042
O	 0.6945725842	-1.9180254406	 1.3134650265	-0.26073
C	 1.4019237108	-2.4974965234	 2.4016494475	 0.115976
C	 0.9004348758	-3.9445549902	 2.6068290929	-0.24217
C	 2.1567839087	-4.7977771312	 2.9088651805	-0.256376
C	 3.2893244942	-3.9158761534	 2.4406004614	-0.060418
C	 2.8887690039	-2.6761203578	 2.1687842699	-0.089271
H	 1.0223318519	 1.8122449924	-0.3587970578	 0.115223
H	-0.6417159196	 1.8032363302	-0.9524234037	 0.116317
H	-0.3210394649	 2.0165375316	 0.7720793257	 0.115148
H	-1.0943348344	-0.3468517059	 0.2704692356	 0.104846
H	 0.2412201301	-0.5483759931	-0.8524245833	 0.106375
H	 1.8690629364	-0.224945571	 1.0174060379	 0.082219
H	 0.5234384048	-0.0323684665	 2.1541930909	 0.080108
H	 1.2275094795	-1.8748716756	 3.2973475224	 0.061885
H	 0.1339072221	-4.0178430923	 3.3813195063	 0.097099
H	 0.447701423	-4.2561592412	 1.6613299535	 0.121036
H	 2.2526918065	-5.013458465	 3.9818444733	 0.10702
H	 2.1411740533	-5.7707350865	 2.4043539701	 0.104648
H	 4.3125131718	-4.2710621662	 2.3730380237	 0.092201
H	 3.5310508173	-1.8632722454	 1.8495750728	 0.091937
50.1888	52.8381	75.9229	124.7059	163.8528	232.0074	286.8759	296.2944	341.9775	459.8704	548.1214	639.8813	753.3768	763.5051	778.0839	847.2074	888.5655	901.0288	914.2664	930.0872	969.701	982.591	1016.3115	1043.0123	1062.4471	1084.7259	1119.0077	1143.6659	1155.596	1189.4459	1193.8533	1235.0649	1267.28	1290.222	1308.0156	1314.0357	1329.0274	1332.5163	1357.531	1390.7592	1412.534	1440.06	1482.0153	1491.9785	1499.0452	1500.8707	1507.3558	1527.1713	1687.6334	2932.6732	2945.2595	2972.2176	3014.56	3031.2846	3038.9192	3050.5641	3068.9906	3071.1744	3099.205	3107.1735	3115.51	3177.6861	3205.9055
CCCOC1CCC=C1	CCCO[C@H]1CCC=C1	
InChI=1S/C8H14O/c1-2-7-9-8-5-3-4-6-8/h3,5,8H,2,4,6-7H2,1H3	InChI=1S/C8H14O/c1-2-7-9-8-5-3-4-6-8/h3,5,8H,2,4,6-7H2,1H3/t8-/m1/s1
