19
gdb 81866	2.75135	1.52491	1.13549	4.1389	75.15	-0.2645	0.0111	0.2755	1122.6266	0.158742	-423.071895	-423.063395	-423.062451	-423.1047	32.697	
C	 0.0688643873	 1.6260813768	 0.0431202139	-0.393713
C	 0.0777870594	 0.098841628	-0.0644747317	-0.153337
C	 0.8308159099	-0.526523456	-1.2204844294	-0.115762
C	 2.3473430919	-0.3950143235	-1.2365450052	-0.350074
C	 1.6975671418	-1.6056704774	-0.6297089584	 0.422291
C	 1.8639364877	-3.0070119222	-1.1369796789	-0.46941
O	 1.5751598083	-1.5459394955	 0.790444677	-0.251213
C	 0.7182182382	-0.5547175817	 1.1713665425	 0.410277
O	 0.5367700025	-0.2737069613	 2.3199041413	-0.337769
H	 1.0837682157	 2.0317629208	-0.005123246	 0.122645
H	-0.5124486775	 2.0692585853	-0.770133276	 0.117627
H	-0.3726473232	 1.9270596269	 0.9965160288	 0.144634
H	-0.9623426493	-0.2537762071	-0.0829632705	 0.113666
H	 0.318282173	-0.684293178	-2.1622217583	 0.098391
H	 2.8394126777	-0.5147038275	-2.1956069356	 0.121582
H	 2.8261015637	 0.3136026673	-0.5679301236	 0.127654
H	 1.9290614172	-3.0071333806	-2.2285265399	 0.123547
H	 2.7782780015	-3.4592680226	-0.7400454601	 0.137829
H	 1.0165408342	-3.6328527515	-0.8398376301	 0.131136
101.6387	157.3978	207.9619	218.924	232.5615	286.522	327.3839	433.4594	468.0717	511.2704	588.8852	623.2094	708.1176	753.8128	789.1962	842.0237	880.4198	953.9853	971.9917	983.6913	1017.6015	1040.4494	1053.4158	1083.2494	1120.9688	1129.235	1143.7319	1176.711	1250.0657	1288.7549	1312.9903	1343.5719	1397.1474	1408.3363	1431.6806	1478.1437	1483.9959	1497.1461	1498.3812	1503.9907	1878.2633	3022.3584	3039.5034	3045.4592	3106.9081	3115.9412	3119.4152	3128.2929	3128.9482	3175.9368	3218.432
CC1C2CC2(C)OC1=O	C[C@H]1[C@H]2C[C@@]2(C)OC1=O	
InChI=1S/C7H10O2/c1-4-5-3-7(5,2)9-6(4)8/h4-5H,3H2,1-2H3	InChI=1S/C7H10O2/c1-4-5-3-7(5,2)9-6(4)8/h4-5H,3H2,1-2H3/t4-,5+,7+/m0/s1
