16
gdb 74233	2.74013	1.31548	0.96176	3.9462	78.	-0.2202	-0.0044	0.2159	1213.8969	0.12284	-400.764407	-400.755634	-400.75469	-400.797953	32.58	
C	 0.0865317363	 1.5442850452	 0.0540585352	-0.498161
C	-0.0444021905	 0.0603602209	 0.0114372612	 0.365572
C	-1.1251756198	-0.7071766959	-0.16539919	-0.230382
C	-0.7206405842	-2.1673896919	-0.1181082991	-0.331422
C	-1.0930315246	-2.9487771534	-1.2885423955	 0.348103
C	-1.4103947377	-3.5783063763	-2.2610593948	-0.472133
C	 0.8268806494	-2.0886905731	 0.0856819163	 0.409885
O	 1.6170440741	-2.9941191339	 0.1654148298	-0.356805
N	 1.1031649849	-0.7404148462	 0.1814411601	-0.376131
H	 0.7708251634	 1.9033013527	-0.7242167336	 0.139764
H	-0.8855280315	 2.0161014164	-0.0999413422	 0.14537
H	 0.4848093208	 1.8811448949	 1.0186391476	 0.139034
H	-2.1337995348	-0.3607785488	-0.3275094856	 0.113976
H	-1.1194521886	-2.6598876235	 0.7816246326	 0.143558
H	-1.6829840766	-4.1433246066	-3.1176497888	 0.199053
H	 2.0427179493	-0.3945905105	 0.2902448369	 0.260719
72.0481	131.5846	139.5169	185.4785	271.8235	289.4156	387.061	414.0875	470.2654	536.5186	583.7871	599.4747	624.6847	635.729	678.0462	707.3623	749.4475	866.5635	969.6182	1005.127	1017.172	1056.7271	1067.51	1171.4151	1196.5085	1226.1661	1274.0067	1324.8584	1410.6341	1423.9747	1475.8239	1490.9785	1719.8187	1850.8828	2242.037	2998.2563	3027.1704	3077.1391	3136.0718	3255.7555	3505.6238	3654.4502
CC1=CC(C#C)C(=O)N1	CC1=C[C@@H](C#C)C(=O)N1	
InChI=1S/C7H7NO/c1-3-6-4-5(2)8-7(6)9/h1,4,6H,2H3,(H,8,9)	InChI=1S/C7H7NO/c1-3-6-4-5(2)8-7(6)9/h1,4,6H,2H3,(H,8,9)/t6-/m1/s1
