16
gdb 83149	2.16079	1.84192	1.46061	2.3834	65.75	-0.2405	0.0044	0.2449	958.0213	0.124098	-475.013283	-475.005066	-475.004122	-475.045846	31.075	
O	 0.0946068447	 1.3949994176	 0.1148652246	-0.423211
C	-0.0110590014	 0.010662076	-0.0188047021	 0.053011
C	-1.327986169	-0.7273830642	 0.0265789423	-0.199966
C	-2.5343927348	 0.1291930663	-0.3003181704	-0.121178
O	-2.2670785135	 0.7402000743	-1.5933577323	-0.255573
C	-1.2593416513	 0.0723238812	-2.2240311076	 0.340743
N	-0.9902446791	 0.0949362213	-3.4572275891	-0.573415
C	-0.480444576	-0.7320234672	-1.2474034039	 0.300736
O	 0.2093446826	-1.817955049	-1.7473585065	-0.468087
H	-0.4516162261	 1.824881769	-0.5529923558	 0.299722
H	 0.8127915421	-0.4843967574	 0.484967948	 0.129023
H	-1.450364011	-1.6043215791	 0.6503484692	 0.116254
H	-3.4524465153	-0.4610004114	-0.3817039144	 0.130055
H	-2.6921687976	 0.9458039678	 0.4096662459	 0.135073
H	-1.6627457899	 0.6433984633	-3.9919995244	 0.234676
H	 0.2710961156	-1.6645365884	-2.7024671933	 0.302138
112.3857	137.5654	197.0134	241.116	279.3003	294.4389	335.8887	443.1282	468.819	557.4818	600.9279	690.4839	708.1396	777.2686	833.2321	874.0596	905.1276	926.9227	958.1953	1027.617	1039.4455	1070.5961	1085.3794	1112.4853	1190.4697	1225.9988	1232.0401	1304.9625	1314.1013	1363.4624	1404.7507	1425.319	1485.8594	1516.6033	1777.5295	3052.9663	3101.7281	3176.2406	3195.0432	3503.3692	3723.3601	3801.8887
OC1C2COC(=N)C12O	O[C@H]1[C@H]2CO[C]([NH])[C@@]12O	
InChI=1S/C5H7NO3/c6-4-5(8)2(1-9-4)3(5)7/h2-3,6-8H,1H2	InChI=1S/C5H7NO3/c6-4-5(8)2(1-9-4)3(5)7/h2-3,6-8H,1H2/t2-,3+,5+/m1/s1
