15
gdb 125756	4.60504	0.87782	0.78447	2.1735	68.75	-0.2683	-0.0452	0.2232	1413.5244	0.111009	-453.967067	-453.958477	-453.957533	-454.002172	29.246	
C	-0.2788387612	 1.4434075376	 0.0944517551	-0.489025
C	 0.0203110345	-0.0142029998	 0.0469274426	 0.356086
N	 1.134899301	-0.4863863985	-0.4475818421	-0.167184
O	 1.0007125926	-1.8752510611	-0.2923586043	-0.192463
C	-0.1922427176	-2.0777029329	 0.276364016	 0.404877
C	-0.601151947	-3.4737333481	 0.5911967842	-0.408986
C	-0.9425946261	-3.6565809052	 2.0739348897	 0.159505
O	-0.7039571563	-4.6628443951	 2.6815064242	-0.220911
N	-0.8473118756	-0.9819120778	 0.5149844523	-0.34658
H	-0.4447429035	 1.7617419655	 1.1279081211	 0.151568
H	 0.5483084307	 2.0140623919	-0.3296259067	 0.153614
H	-1.1927063935	 1.6604570377	-0.4664238534	 0.151571
H	-1.5177458915	-3.7064059892	 0.0320025971	 0.169587
H	 0.1687709593	-4.1896536228	 0.3007412065	 0.161802
H	-1.4515629555	-2.7855547221	 2.5359242077	 0.116539
29.9756	61.9219	123.5062	140.8771	221.6581	291.5836	373.0662	399.8528	457.5489	635.5245	682.0325	705.8772	769.0188	827.9657	923.068	992.5743	1017.8572	1039.5064	1051.3014	1072.1556	1076.7369	1174.3083	1257.6299	1333.0965	1382.3864	1412.2954	1423.4628	1447.086	1473.7263	1475.6742	1564.7196	1623.0899	1844.5667	2928.8931	3033.1255	3053.4889	3114.0288	3138.5427	3153.5914
CC1=NOC(CC=O)=N1	Cc1noc(CC=O)n1	
InChI=1S/C5H6N2O2/c1-4-6-5(2-3-8)9-7-4/h3H,2H2,1H3	InChI=1S/C5H6N2O2/c1-4-6-5(2-3-8)9-7-4/h3H,2H2,1H3
