20
gdb 92141	2.74397	1.75123	1.54731	2.3288	76.66	-0.2239	0.0698	0.2937	957.1484	0.174976	-403.144529	-403.137378	-403.136434	-403.17624	29.459	
O	 0.1537329234	 1.3246164654	-0.4111829708	-0.434627
C	 0.0304831305	-0.0352278272	 0.0107181042	 0.094582
C	 0.7659840662	-0.3090180395	 1.3510086714	-0.249797
C	-0.2344822554	-0.7170345964	 2.441683574	-0.041308
C	-1.3260397459	 0.3671241829	 2.572574315	-0.233853
C	-2.1950315539	 0.0740151787	 1.3593805539	-0.024777
C	-1.4657216761	-0.2811655691	 0.114766201	-0.008121
N	-2.0327993328	-1.3482832195	 0.9637937298	-0.134796
C	-1.0520269742	-1.9124552952	 1.9145017586	-0.155838
H	 1.075758109	 1.4785185682	-0.6415856734	 0.280178
H	 0.4342234934	-0.6943385113	-0.7727243579	 0.069216
H	 1.5157402795	-1.0977455962	 1.2218929031	 0.093041
H	 1.297792829	 0.6037388483	 1.6412274857	 0.096218
H	 0.2764576496	-0.9270631463	 3.3846006676	 0.065817
H	-1.9070342286	 0.240896289	 3.4930063674	 0.098957
H	-0.916901044	 1.3820429598	 2.5666124497	 0.10996
H	-3.1995840194	 0.4821326346	 1.3077971152	 0.084825
H	-1.986835904	-0.1696865891	-0.8325953258	 0.090183
H	-0.4340524819	-2.67281706	 1.424378775	 0.097671
H	-1.6168290343	-2.402643587	 2.7150078361	 0.10247
52.3642	279.8456	286.4389	339.8812	382.401	425.4197	487.5314	517.916	637.3709	705.5173	751.743	775.7518	826.706	860.8696	887.7064	910.6394	923.5265	935.8341	986.9692	1024.0191	1039.1183	1050.8999	1090.8786	1106.2306	1108.7734	1128.8544	1177.6172	1192.0696	1206.1139	1239.0314	1256.4462	1292.7997	1304.3827	1323.5352	1343.5356	1346.2104	1367.9394	1385.3723	1430.4459	1434.6005	1478.3738	1489.1832	1509.3799	2973.1561	3030.4058	3036.0443	3041.0919	3073.1784	3077.6634	3080.627	3088.7086	3136.6918	3157.3551	3810.4797
OC1CC2CC3C1N3C2	O[C@H]1C[C@H]2C[C@H]3[C@@H]1N3C2	
InChI=1S/C7H11NO/c9-6-2-4-1-5-7(6)8(5)3-4/h4-7,9H,1-3H2	InChI=1S/C7H11NO/c9-6-2-4-1-5-7(6)8(5)3-4/h4-7,9H,1-3H2/t4-,5+,6+,7+,8?/m1/s1
