23
gdb 37066	2.9991	1.58154	1.32837	0.2254	87.89	-0.2409	0.0836	0.3245	1079.5923	0.210145	-351.180242	-351.172832	-351.171888	-351.211445	31.818	
C	 0.1019954488	 1.3209243135	-0.1543880071	-0.394346
C	 1.4240021667	 0.607098126	 0.0261989839	 0.346779
C	 2.0082910636	 0.5819155186	 1.4285174417	-0.299605
C	 0.8222613509	 0.1596740477	 2.3385526551	-0.221241
C	-0.108398581	-0.7022788242	 1.441875648	-0.299605
C	 0.1261875429	-0.1802881686	 0.0343876085	 0.346779
C	 0.0761866684	-1.0342174326	-1.221332668	-0.299606
C	 1.1344872851	-0.4018189134	-2.1664160834	-0.221239
C	 2.1928652237	 0.2499807669	-1.2346928596	-0.299606
H	-0.2665022223	 1.936761231	 0.6591811289	 0.103286
H	-0.1420964806	 1.7130458968	-1.1360182228	 0.103286
H	 2.8054969961	-0.1718803618	 1.4670443032	 0.092075
H	 2.4517530589	 1.5311782447	 1.7498969827	 0.092279
H	 1.1538347822	-0.3775566399	 3.2315138555	 0.09504
H	 0.2868359181	 1.0458908347	 2.693842871	 0.103811
H	 0.192305568	-1.7573005799	 1.4835376856	 0.092075
H	-1.152156869	-0.6553072536	 1.7726405072	 0.092279
H	 0.3618768711	-2.0621939886	-0.9627291043	 0.092075
H	-0.9120144442	-1.0871804607	-1.6921793325	 0.092279
H	 1.575152109	-1.1352300189	-2.8474893918	 0.09504
H	 0.6673714583	 0.3615467271	-2.7967860321	 0.10381
H	 2.6918896037	 1.0993292501	-1.7149269297	 0.092279
H	 2.9750319613	-0.4767807449	-0.9792265799	 0.092075
190.6405	208.1126	240.0338	319.4664	325.3443	433.1399	492.084	540.5367	573.9181	631.979	683.5314	724.3012	808.6445	843.0315	865.7964	892.9942	900.932	903.5091	925.4566	936.4869	952.5108	996.0524	1003.5842	1041.6532	1044.4272	1065.9249	1113.8917	1123.9868	1168.3363	1211.7718	1229.3033	1241.9552	1249.6448	1252.2799	1264.1101	1308.4829	1319.1931	1329.6864	1343.2235	1343.7091	1377.8443	1388.3549	1480.6298	1489.1037	1489.7182	1496.1174	1498.8682	1509.0686	1523.5772	3016.7949	3017.5946	3020.5529	3024.1221	3046.0117	3046.8304	3058.1957	3060.5927	3063.3595	3066.0902	3094.1997	3095.0901	3128.6837	3208.1253
C1C23CCCC12CCC3	C1[C@@]23CCC[C@@]12CCC3	
InChI=1S/C9H14/c1-3-8-5-2-6-9(8,4-1)7-8/h1-7H2	InChI=1S/C9H14/c1-3-8-5-2-6-9(8,4-1)7-8/h1-7H2/t8-,9+
