22
gdb 118716	3.854	0.89224	0.85572	2.2029	82.11	-0.2256	0.0829	0.3085	1453.6404	0.193996	-404.29775	-404.288291	-404.287347	-404.332021	35.898	
C	-0.1062153077	 1.6878224946	-0.2988488536	-0.483061
C	-0.082681511	 0.1778069727	-0.1475832845	 0.330223
C	-1.2991545452	-0.4015976158	 0.5643555152	-0.266716
C	-1.4364123163	 0.0642939068	 2.0179775687	-0.063818
O	-2.5420203745	-0.538135892	 2.6747352637	-0.419593
C	 0.55041273	-0.7296065011	-1.13549772	-0.071231
C	 1.7953720533	-0.1466338427	-1.7998787296	-0.267965
C	 2.3331313401	 0.0947259063	-0.3677928258	-0.156664
N	 1.1368592948	-0.5667489377	 0.2664525504	-0.177856
H	 0.637770462	 2.0638076298	-1.0026498251	 0.12256
H	-1.088680773	 2.0047515521	-0.6638210149	 0.124019
H	 0.0637036284	 2.184021782	 0.6628503279	 0.129593
H	-2.2132475795	-0.1468023989	 0.0143238287	 0.100094
H	-1.2129546823	-1.4952467577	 0.5625041602	 0.091229
H	-0.492980562	-0.1288696723	 2.5487621395	 0.105633
H	-1.626370309	 1.1414668219	 2.0637864351	 0.106493
H	-2.3664641243	-1.4829118138	 2.729891515	 0.280402
H	 0.0670054198	-1.653306104	-1.443064682	 0.085743
H	 2.3717194876	-0.8997095017	-2.3401380144	 0.112397
H	 1.6517552807	 0.71588034	-2.4579009319	 0.103531
H	 3.229245018	-0.4833247762	-0.1341912723	 0.111253
H	 2.4943350002	 1.1299192877	-0.0527054703	 0.103734
77.3062	100.461	136.0853	173.6999	272.5941	292.8784	306.6001	325.2584	351.8488	376.6982	453.6231	567.1649	673.2851	752.5586	783.9271	789.4278	834.7086	867.9038	954.602	963.5376	986.9146	992.3057	1018.3496	1054.3595	1068.9582	1075.073	1102.8537	1123.3563	1147.7809	1170.7121	1217.0049	1227.0853	1264.9253	1293.1923	1301.8375	1318.3078	1338.8665	1398.8023	1419.306	1423.5895	1424.2856	1473.6776	1483.4674	1498.8834	1507.4234	1515.6223	1517.6034	3003.7553	3024.1615	3040.1772	3051.3227	3059.5943	3060.8769	3085.1736	3096.7702	3102.8304	3120.5389	3133.97	3141.4165	3814.9872
CC1(CCO)C2CCN12	C[C@@]1(CCO)[C@H]2CCN12	
InChI=1S/C7H13NO/c1-7(3-5-9)6-2-4-8(6)7/h6,9H,2-5H2,1H3	InChI=1S/C7H13NO/c1-7(3-5-9)6-2-4-8(6)7/h6,9H,2-5H2,1H3/t6-,7-,8?/m1/s1
