18
gdb 12886	2.5921	2.26418	1.73673	1.507	67.11	-0.2467	0.0741	0.3208	850.6599	0.154063	-384.92671	-384.918963	-384.918018	-384.958207	29.742	
C	-0.1918110807	 1.5472184535	-0.0277149395	-0.428743
C	 0.0175416804	 0.0492404052	 0.0614000873	-0.076976
C	 1.3406670031	-0.6595734291	-0.1982910997	-0.129514
C	 2.6239024996	 0.1379224734	-0.0867889825	-0.094
O	 2.546597712	 0.8506779546	 1.1512665188	-0.254568
C	 1.7035912798	 0.1348825338	 2.0458496284	-0.145936
C	 0.7365219749	-0.6640552683	 1.1812206611	 0.34457
O	 0.22013567	-1.8419023093	 1.7229866941	-0.464569
H	 0.6627550564	 2.100243761	 0.3662610469	 0.146209
H	-0.3435737126	 1.8539258957	-1.0685594243	 0.11648
H	-1.0827151089	 1.8499249651	 0.5341650713	 0.110873
H	-0.8225740304	-0.5379673275	-0.3046945909	 0.087802
H	 1.3352943181	-1.5612480228	-0.7992146609	 0.097466
H	 3.4892839162	-0.5434621854	-0.0963477204	 0.098119
H	 2.769253381	 0.8841181826	-0.8755771219	 0.107667
H	 2.2695526186	-0.5768027166	 2.6675481813	 0.101101
H	 1.2308848805	 0.8723835202	 2.705181552	 0.099253
H	-0.5702230078	-1.618349926	 2.2257827292	 0.284768
179.1337	192.0779	222.3985	226.8983	239.155	303.4172	365.673	468.5985	504.5758	579.7274	688.6259	718.5528	812.5593	881.7989	928.3307	932.8166	997.5428	1001.096	1062.0043	1070.3501	1090.6218	1121.4079	1131.7576	1148.2933	1206.4384	1237.4863	1245.7432	1277.2289	1328.5224	1341.9639	1364.0629	1377.3799	1415.8458	1470.8618	1501.029	1505.1562	1516.9211	1526.3556	2979.5467	2985.5247	3031.5014	3052.6194	3060.7653	3084.2361	3121.5095	3139.0011	3185.7476	3802.8358
CC1C2COCC12O	C[C@H]1[C@H]2COC[C@@]12O	
InChI=1S/C6H10O2/c1-4-5-2-8-3-6(4,5)7/h4-5,7H,2-3H2,1H3	InChI=1S/C6H10O2/c1-4-5-2-8-3-6(4,5)7/h4-5,7H,2-3H2,1H3/t4-,5+,6+/m0/s1
