19
gdb 99120	3.51133	0.92253	0.85263	2.1648	72.32	-0.2608	-0.0305	0.2303	1405.3474	0.156275	-460.157828	-460.148053	-460.147109	-460.193755	35.686	
O	-1.4194189992	 1.8965187893	-0.9957039787	-0.420338
C	-1.1842427277	 0.539399277	-0.7775964961	-0.139855
C	-1.9866094675	 0.0112419216	 0.3975154229	 0.346243
O	-2.6950219735	 0.7719825289	 1.0254642601	-0.328747
C	-1.9064567577	-1.4734366536	 0.7015521061	-0.353902
C	-3.165443102	-2.1905721505	 0.2231757765	 0.42515
O	-3.3535282413	-2.1259636927	-1.1692388029	-0.47382
C	-3.5621775036	-3.48710845	 0.8627804862	-0.306349
C	-4.3864680602	-2.2340580892	 1.0991097965	-0.311292
H	-2.023885224	 2.1611970533	-0.283094318	 0.292348
H	-1.4501134145	-0.0716312193	-1.6571342868	 0.124824
H	-0.1172882586	 0.335156235	-0.5787734094	 0.116582
H	-1.0338848617	-1.9171629471	 0.2095528918	 0.116844
H	-1.8011044502	-1.5977529955	 1.783116969	 0.128122
H	-3.8616419006	-1.3317848	-1.3681570673	 0.291583
H	-3.9768983275	-4.2375536661	 0.2003391373	 0.12867
H	-2.9583692631	-3.8748643471	 1.6757524414	 0.116366
H	-4.3452074605	-1.7513800179	 2.0684852744	 0.129648
H	-5.3495339064	-2.1760686663	 0.6038212869	 0.117922
24.5714	60.5997	102.9735	174.9474	248.5152	289.1642	318.7423	346.8075	391.0789	416.9142	433.2664	470.3491	523.5309	679.3544	731.607	773.4445	819.8038	888.6992	924.0811	931.6575	967.0274	996.1939	1021.4864	1048.1076	1078.7028	1094.6837	1140.6372	1185.1488	1209.4904	1244.0239	1269.3652	1304.5174	1318.351	1333.6681	1372.5525	1447.746	1455.273	1467.2554	1491.8477	1498.9805	1791.1893	2960.7709	2982.8822	3045.1737	3104.1442	3138.7419	3142.0902	3223.7374	3237.1057	3676.5861	3799.1559
OCC(=O)CC1(O)CC1	OCC(=O)CC1(O)CC1	
InChI=1S/C6H10O3/c7-4-5(8)3-6(9)1-2-6/h7,9H,1-4H2	InChI=1S/C6H10O3/c7-4-5(8)3-6(9)1-2-6/h7,9H,1-4H2
