14
gdb 43034	2.93631	1.68949	1.23302	2.4486	74.1	-0.2435	-0.0187	0.2248	977.1027	0.100032	-399.45648	-399.449322	-399.448378	-399.488011	27.827	
O	-0.0807372062	 0.0521396024	 0.0947336338	-0.312532
C	-0.0705212796	 1.2459992258	 0.0991035676	 0.385957
C	-1.1417900051	 2.3393392696	-0.0857091246	-0.220975
C	-0.874743079	 3.2313853288	 1.1370940779	-0.161196
N	 0.4788980729	 3.5848515797	 0.5606084594	-0.169652
C	 0.0236738152	 3.1565788414	-0.763570793	-0.094578
C	 1.0259265127	 2.2886832664	-0.0075799005	 0.096085
C	 2.4241686966	 2.1241903915	-0.1664546345	 0.128078
C	 3.6037433165	 1.9385694251	-0.3040005984	-0.341799
H	-2.124724584	 2.0927614069	-0.4757705378	 0.108027
H	-1.468725852	 4.1474696803	 1.1599969951	 0.129834
H	-0.8559187151	 2.7635384564	 2.1266236569	 0.124004
H	 0.1628332277	 3.6768966593	-1.7007096773	 0.13588
H	 4.6471334795	 1.7795343865	-0.4224567246	 0.192868
131.3637	147.8497	183.7681	366.2563	392.5621	483.4704	511.0727	588.4417	617.005	629.0755	658.0857	742.4677	777.3108	798.0956	839.5229	876.3488	894.1996	958.7962	979.2853	1014.9879	1055.6898	1136.9637	1145.4849	1169.8744	1202.8792	1220.7376	1304.3802	1366.4008	1507.071	1892.8903	2245.8994	3053.2083	3119.4286	3170.9561	3226.166	3501.012
O=C1C2CN3C2C13C#C	O=C1[C@H]2CN3[C@H]2[C@]13C#C	
InChI=1S/C7H5NO/c1-2-7-5-4(6(7)9)3-8(5)7/h1,4-5H,3H2	InChI=1S/C7H5NO/c1-2-7-5-4(6(7)9)3-8(5)7/h1,4-5H,3H2/t4-,5+,7+,8?/m0/s1
