20
gdb 96532	2.35181	1.57823	1.02215	3.6603	76.25	-0.2551	0.0143	0.2695	1178.2321	0.17279	-440.299635	-440.291164	-440.29022	-440.332782	32.784	
O	-0.390625419	 1.4293806927	-0.0953844493	-0.444808
C	-0.1637311944	 0.0436918171	-0.1024518984	 0.085515
C	-1.5051854315	-0.686109424	-0.2851930446	-0.227028
C	-1.5335012245	-2.1033489805	 0.3068083364	-0.209904
C	-0.268661615	-2.9340309983	 0.0178759784	-0.214399
C	 0.3414476616	-2.6899050123	-1.360031137	-0.069792
O	 1.2397390662	-1.5673545259	-1.4389603383	-0.252743
C	 0.8810921954	-0.2900236627	-1.1704570863	 0.35576
N	 1.4806321519	 0.6841862219	-1.719978884	-0.526122
H	 0.3072629611	 1.8043393515	-0.6605776947	 0.293668
H	 0.2729119494	-0.2702463415	 0.8640075844	 0.086202
H	-2.2602584874	-0.0657569329	 0.2048655279	 0.121105
H	-1.7686851721	-0.6977380952	-1.3495116993	 0.102897
H	-1.6739082469	-2.0439703115	 1.3919357065	 0.108543
H	-2.4121808416	-2.6281953803	-0.0848998812	 0.102741
H	 0.509956512	-2.7390263346	 0.7639133762	 0.11855
H	-0.5054114798	-4.0008806874	 0.1002039085	 0.106946
H	 0.9781165939	-3.5301816569	-1.6457995505	 0.122267
H	-0.434430427	-2.5845186118	-2.1291453235	 0.114393
H	 2.1682933978	 0.3646723925	-2.4012748612	 0.226209
78.7403	107.738	198.6023	263.2866	308.2088	331.9719	361.8855	391.4686	483.1906	521.3294	551.4719	578.7994	660.3482	783.4201	797.3062	845.5971	886.4509	906.5879	974.9266	985.1739	1007.4211	1051.8094	1107.6341	1121.1746	1129.9154	1152.8646	1201.4936	1221.9501	1276.0497	1292.2548	1297.2596	1336.325	1338.378	1376.7237	1387.6407	1393.7901	1431.1458	1466.8011	1477.5282	1489.965	1499.4991	1510.6423	1722.8731	2925.2798	3024.2202	3031.9543	3038.1503	3042.6065	3064.4115	3083.3367	3097.5411	3103.9954	3497.5756	3629.5128
OC1CCCCOC1=N	O[C@H]1CCCCO[C]1[NH]	
InChI=1S/C6H11NO2/c7-6-5(8)3-1-2-4-9-6/h5,7-8H,1-4H2	InChI=1S/C6H11NO2/c7-6-5(8)3-1-2-4-9-6/h5,7-8H,1-4H2/t5-/m0/s1
