19
gdb 37169	3.4041	1.72307	1.58014	1.9274	77.74	-0.2419	0.0699	0.3117	916.4051	0.162491	-385.789229	-385.783045	-385.782101	-385.819265	27.448	
C	 0.0296436116	 1.528276138	 0.1220911057	-0.311237
C	 1.3539761234	 0.8299525336	-0.106160479	-0.026668
C	 0.0496546301	 0.0201281907	 0.0471919881	-0.16213
C	 0.0965329087	-0.6086293477	-1.3334331817	 0.279619
C	-0.7168203731	-1.1406998925	-2.5114159453	-0.201488
O	 0.1666323534	-0.3962137654	-3.411584193	-0.316398
C	 0.5662920377	 0.4853916383	-2.3141751645	 0.122982
C	 1.8811517765	 0.3927921887	-1.5222296583	-0.106221
C	 1.5993960291	-1.1285554818	-1.3961138008	-0.238324
H	-0.0945214922	 1.9398850974	 1.1195928062	 0.111475
H	-0.4570812951	 2.1231360988	-0.6402943093	 0.11734
H	 2.0885530462	 0.8534568636	 0.6908388409	 0.093651
H	-0.142803966	-0.5738820745	 0.9332779569	 0.089533
H	-0.693066908	-2.2165985265	-2.7116313765	 0.107741
H	-1.7470127442	-0.7665606698	-2.5781874061	 0.103814
H	 0.089721982	 1.4573066543	-2.4464148501	 0.074745
H	 2.841046167	 0.8123467215	-1.829267762	 0.061795
H	 1.9751676992	-1.6271517508	-0.5000015373	 0.086688
H	 1.8236991738	-1.7025492762	-2.294754144	 0.113083
263.4624	312.0994	377.0007	418.96	439.1157	536.7965	569.1093	674.9813	723.2679	759.9534	797.2215	834.6716	863.4159	883.3123	896.3624	916.7406	931.6003	970.4764	992.3968	1018.9996	1031.6974	1054.9689	1081.5425	1088.0693	1090.8898	1102.7691	1120.8169	1156.9557	1182.2076	1187.1161	1227.7903	1243.5195	1247.4436	1259.5811	1314.5325	1327.9029	1363.7713	1370.4476	1490.2723	1492.9677	1513.4226	3012.8016	3072.2858	3080.8202	3087.7392	3097.7437	3135.6621	3148.1406	3168.1537	3177.1341	3216.0333
C1C2C1C13COC1C2C3	C1[C@H]2[C@@H]1[C@@]13CO[C@@H]1[C@@H]2C3	
InChI=1S/C8H10O/c1-4-5-2-8(6(1)4)3-9-7(5)8/h4-7H,1-3H2	InChI=1S/C8H10O/c1-4-5-2-8(6(1)4)3-9-7(5)8/h4-7H,1-3H2/t4-,5-,6-,7-,8-/m1/s1
