21
gdb 41928	3.29586	1.44122	1.05241	0.4049	94.6	-0.2059	-0.0111	0.1948	1172.1684	0.186507	-350.00033	-349.992926	-349.991982	-350.031943	30.47	
C	-0.077789419	 1.5289282176	-0.0082055486	-0.253213
C	 1.4261173565	 1.9113293955	-0.0034124631	-0.238981
C	 2.1396633425	 0.6888000277	 0.6134572558	-0.063113
C	 3.5467795198	 0.3581975414	 0.1064084991	-0.224175
C	 4.022111899	-0.9890928962	 0.6824189719	-0.269647
C	 2.9690637693	-2.0664231657	 0.5901063556	-0.067216
C	 1.6653698638	-1.8094668037	 0.399741964	-0.157962
C	 1.1774088294	-0.4480083065	 0.3103565868	 0.377846
C	-0.0379723904	 0.0183818805	-0.008367292	-0.222992
H	-0.594926011	 1.9099416524	 0.8855982792	 0.102909
H	-0.6152180057	 1.9435629594	-0.8687990621	 0.10032
H	 1.7681229139	 2.041945402	-1.0371333773	 0.098466
H	 1.6310396128	 2.8441122362	 0.5292310054	 0.09113
H	 2.1950855169	 0.8058311082	 1.7081831329	 0.072937
H	 3.520973158	 0.2901118374	-0.9889494467	 0.098277
H	 4.2578549043	 1.1520217448	 0.3614445118	 0.089759
H	 4.9301895673	-1.3195667883	 0.1628641459	 0.102583
H	 4.3219216846	-0.8641286222	 1.7345513624	 0.109647
H	 3.30774099	-3.0958298332	 0.6766655631	 0.087825
H	 0.9523851738	-2.6245647126	 0.3031907247	 0.081503
H	-0.9051583157	-0.5968826545	-0.2249624289	 0.084098
118.8428	185.1284	232.0905	330.7018	345.7258	415.3727	475.1293	531.3382	612.7673	636.514	736.871	757.0489	799.0755	836.0671	869.9913	887.876	891.8148	926.1822	971.8799	993.2294	1001.9843	1010.2283	1056.2227	1078.6048	1101.2699	1149.1412	1160.1967	1189.2189	1213.7577	1242.9293	1248.7182	1286.7506	1305.9281	1322.7101	1337.9127	1359.5799	1375.8722	1380.8295	1422.2819	1472.3121	1481.6932	1492.4974	1498.2077	1660.551	1708.2562	2964.852	2989.3788	2991.3732	3020.2238	3034.0036	3042.6558	3053.0893	3067.3732	3092.1961	3147.1995	3169.4283	3183.9648
C1CC2CCC=CC2=C1	C1C[C@@H]2CCC=CC2=C1	
InChI=1S/C9H12/c1-2-5-9-7-3-6-8(9)4-1/h1,4,6,9H,2-3,5,7H2	InChI=1S/C9H12/c1-2-5-9-7-3-6-8(9)4-1/h1,4,6,9H,2-3,5,7H2/t9-/m0/s1
