17
gdb 82013	2.50476	1.46216	1.29135	3.2755	73.17	-0.2459	0.0112	0.257	1050.2972	0.136111	-417.979713	-417.97113	-417.970185	-418.012534	32.769	
N	-0.0189217344	 1.4772018578	 0.22190686	-0.500481
C	-0.0746164748	 0.0572125333	 0.028285559	-0.03693
C	-1.4481198025	-0.6087615527	-0.0002043243	-0.020728
C	-2.2199356702	-0.2509905856	-1.2371573264	-0.309173
C	-1.1403134631	-1.2901100765	-1.3395938135	-0.107074
C	 0.225703018	-0.5873759904	-1.4155324587	 0.211111
O	 0.3981958407	 0.4201532164	-2.3880939883	-0.457924
C	 1.3556636382	-1.518616127	-1.415932344	 0.227455
N	 2.2483360928	-2.2543457977	-1.4179684699	-0.33965
H	 0.9421809391	 1.8036171198	 0.228318984	 0.239821
H	-0.4867965212	 1.964083201	-0.5352731097	 0.240712
H	 0.5726766895	-0.4262741699	 0.7629790507	 0.108445
H	-1.9353747577	-1.0324730054	 0.868412612	 0.100139
H	-3.2315848269	-0.6407836097	-1.2725965651	 0.123008
H	-2.0948800273	 0.7070117081	-1.731041227	 0.122736
H	-1.3213936623	-2.3128877028	-1.6428975125	 0.106003
H	 0.4073048121	 0.0111447213	-3.2614428762	 0.29253
115.6936	144.0787	187.9783	221.4633	259.136	270.1009	318.3169	415.2725	473.2749	512.2643	564.7301	596.6754	651.1307	743.9027	793.9216	838.4265	870.2959	897.4985	943.0252	965.0405	1008.7327	1029.5636	1064.8125	1088.7179	1118.1497	1141.2611	1154.6638	1194.996	1241.8014	1259.2253	1315.6054	1319.07	1358.3513	1432.7748	1488.571	1669.0946	2342.0757	3092.1618	3132.2746	3194.8997	3202.8645	3217.9933	3510.5441	3587.458	3798.1485
NC1C2CC2C1(O)C#N	N[C@H]1[C@H]2C[C@H]2[C@]1(O)C#N	
InChI=1S/C6H8N2O/c7-2-6(9)4-1-3(4)5(6)8/h3-5,9H,1,8H2	InChI=1S/C6H8N2O/c7-2-6(9)4-1-3(4)5(6)8/h3-5,9H,1,8H2/t3-,4+,5-,6+/m0/s1
