18
gdb 8921	2.40737	1.7268	1.28705	4.8427	68.33	-0.2549	0.0244	0.2792	1027.0181	0.153183	-381.122537	-381.113329	-381.112385	-381.156347	32.942	
C	 0.3139042696	 1.0564715285	 0.4789252224	-0.339261
N	-0.1274973874	 0.0387692032	-0.4779854035	-0.306694
C	-1.4429072464	-0.5571566987	-0.2205698544	 0.024191
C	-2.1469579722	-0.8735937676	-1.5410856528	-0.42671
C	-1.2142188445	-1.8836738688	 0.573054063	-0.002757
O	-0.1825543198	-2.6261997141	-0.0201874498	-0.409749
C	-0.9342918763	-1.6157636487	 2.0052281738	 0.274433
N	-0.7215182013	-1.4021077173	 3.1212889534	-0.334428
H	 1.2816752316	 1.4513669525	 0.1582510307	 0.126064
H	-0.3922362322	 1.8966845825	 0.5748716447	 0.108698
H	 0.4440414575	 0.6116562454	 1.4676526532	 0.165081
H	-0.1073913097	 0.4200589507	-1.4155432008	 0.229114
H	-2.076545032	 0.1107330561	 0.3818064775	 0.087063
H	-1.5530313234	-1.5801714727	-2.128259179	 0.142876
H	-3.129216736	-1.3195225657	-1.362704548	 0.12992
H	-2.2939460336	 0.0384386719	-2.1282448251	 0.119192
H	-2.1289999831	-2.4859112854	 0.5360146065	 0.126978
H	 0.4491228491	-1.9411515519	-0.3105263618	 0.285989
73.4505	106.0404	150.4429	197.218	228.2443	234.31	277.4039	324.4837	353.582	427.0217	518.3734	580.4722	619.6644	711.0463	767.7741	813.2315	903.958	969.108	1009.1393	1070.5941	1083.9923	1118.4721	1149.3594	1157.1783	1237.4068	1251.238	1315.983	1365.016	1368.3537	1407.5801	1448.8448	1470.8566	1480.6657	1494.8974	1501.7125	1504.7528	1523.7702	2347.167	2980.3784	2993.3534	3041.331	3054.9602	3089.5085	3112.9123	3124.0029	3135.2017	3549.4136	3595.8999
CNC(C)C(O)C#N	CN[C@@H](C)[C@@H](O)C#N	
InChI=1S/C5H10N2O/c1-4(7-2)5(8)3-6/h4-5,7-8H,1-2H3	InChI=1S/C5H10N2O/c1-4(7-2)5(8)3-6/h4-5,7-8H,1-2H3/t4-,5-/m0/s1
