19
gdb 72544	2.63937	1.72917	1.7213	0.7094	70.17	-0.2518	0.0842	0.336	934.0211	0.160581	-460.170508	-460.162843	-460.161899	-460.202476	30.202	
C	-0.0380226407	 1.5018972657	 0.0563365396	-0.447551
C	 0.0094816693	-0.0092208309	-0.0124559735	 0.417127
C	 0.718496455	-0.5497525197	-1.2638599757	-0.100393
O	 0.7123864145	-1.9827692031	-1.2359833129	-0.281685
C	 0.0522171336	-2.4480555815	-0.0631984332	 0.035918
C	 0.782857877	-1.9034711165	 1.1626214334	-0.072373
O	 0.7014602657	-0.4726746495	 1.1384437914	-0.296102
C	-1.379519386	-1.9159284144	-0.0591842995	-0.072517
O	-1.3293055408	-0.4844327184	-0.0070483563	-0.296117
H	 0.9745485226	 1.9107981967	 0.0734365161	 0.127562
H	-0.5780604543	 1.9020808244	-0.8044822117	 0.127515
H	-0.5562768856	 1.8001629694	 0.9698766044	 0.138917
H	 0.2006613159	-0.2038407484	-2.166998899	 0.104871
H	 1.7557398082	-0.1936415368	-1.2905982165	 0.104933
H	 0.0757166234	-3.5399982083	-0.0936835932	 0.088141
H	 0.3265579749	-2.2707444264	 2.0913568987	 0.103492
H	 1.8363276111	-2.2090889068	 1.1438793614	 0.107362
H	-1.9039520718	-2.2296306488	-0.970310159	 0.107334
H	-1.9367544418	-2.2847273867	 0.8120680157	 0.103565
81.9755	179.7358	269.2078	271.3903	332.8623	355.2745	424.8488	452.4613	562.6206	583.8555	601.398	760.0296	843.6098	844.1397	887.0569	927.2995	941.3434	954.0146	961.5856	1015.8173	1059.4626	1110.3297	1117.2559	1142.8819	1153.0417	1222.4204	1223.6827	1248.188	1252.0381	1266.8495	1331.4451	1345.0753	1387.6066	1405.1318	1409.293	1419.0057	1481.0603	1487.4843	1508.0817	1509.0681	1519.9582	3007.9317	3012.2965	3015.3377	3049.5275	3054.441	3057.5938	3061.1022	3092.2959	3142.2921	3144.3784
CC12COC(CO1)CO2	C[C@@]12CO[C@@H](CO1)CO2	
InChI=1S/C6H10O3/c1-6-4-7-5(2-8-6)3-9-6/h5H,2-4H2,1H3	InChI=1S/C6H10O3/c1-6-4-7-5(2-8-6)3-9-6/h5H,2-4H2,1H3/t5-,6+
