18
gdb 26690	2.28303	1.55171	0.93721	2.3607	77.69	-0.1739	0.0467	0.2205	1238.0367	0.145556	-439.122593	-439.112315	-439.111371	-439.157454	36.589	
C	-0.0283887128	 1.5151739765	 0.0997216329	-0.511689
C	 0.0076323059	 0.0290143719	-0.0019763213	 0.228102
C	-0.0071836436	-0.7892214614	-1.11096976	 0.072375
O	-0.1161778743	-0.4293201867	-2.4423969918	-0.459748
C	 0.0221752241	-2.1418300165	-0.6712196462	 0.198546
O	 0.0103294241	-3.2387852965	-1.4843498519	-0.463694
C	 0.0650522667	-2.1437475617	 0.7025866847	 0.211673
C	 0.1086834212	-3.2735879058	 1.6730127017	-0.510983
N	 0.0627443949	-0.8100396623	 1.0865668524	-0.379171
H	 0.8978705103	 1.9361015363	 0.5128439104	 0.122266
H	-0.1710841676	 1.9387203292	-0.8977397792	 0.138117
H	-0.8554921664	 1.8676027119	 0.7287083975	 0.125985
H	 0.7508080051	-0.1626222397	-2.7661455487	 0.296777
H	-0.1479309514	-2.9094458623	-2.3772944395	 0.293401
H	 1.0334634476	-3.2875896248	 2.26534725	 0.119138
H	-0.7313076971	-3.2508859193	 2.3798283426	 0.119004
H	 0.0540371339	-4.2178405011	 1.1262801498	 0.149122
H	 0.0823920794	-0.4996179077	 2.0417772367	 0.25078
96.5074	109.3924	156.5178	167.2043	175.9725	223.0313	253.5748	259.3291	267.5936	319.4109	395.4635	410.8618	547.9439	592.2699	598.9473	630.2705	691.1616	757.3815	902.6085	967.8394	1029.8698	1054.8235	1065.7532	1113.8767	1208.1142	1245.3606	1262.1507	1323.9498	1343.0699	1412.2075	1416.6493	1482.801	1483.7305	1483.9434	1493.5685	1507.8503	1513.6714	1611.6025	1698.0869	3004.9496	3009.8105	3044.6068	3053.1439	3116.6833	3123.3121	3682.5338	3789.5512	3792.9563
CC1=C(O)C(O)=C(C)N1	Cc1c(O)c(O)c(C)[nH]1	
InChI=1S/C6H9NO2/c1-3-5(8)6(9)4(2)7-3/h7-9H,1-2H3	InChI=1S/C6H9NO2/c1-3-5(8)6(9)4(2)7-3/h7-9H,1-2H3
