22
gdb 118820	2.42546	0.90698	0.75488	3.39	84.79	-0.2442	-0.026	0.2183	1607.0266	0.191896	-404.344441	-404.333968	-404.333024	-404.38056	37.797	
C	-0.0286032027	 1.5966213262	-0.0095387991	-0.382912
C	-0.0186999782	 0.0697147964	 0.1026903552	-0.170264
C	-1.3766287177	-0.5548953895	-0.2506332563	-0.225713
C	-1.4219479783	-2.0646563939	-0.05284299	 0.31534
C	-0.4933371919	-2.8712732923	-0.9437834407	-0.464077
N	-1.6102631066	-2.5029034579	 1.3280756787	-0.361907
C	-2.7006232642	-2.7575381203	 0.3589751696	-0.173018
C	-3.9832844377	-2.0443939157	 0.6093667581	 0.165634
O	-5.0390222901	-2.3919132075	 0.1401656745	-0.261907
H	 0.9472535962	 2.0197041157	 0.2478193237	 0.113477
H	-0.2729200827	 1.918931918	-1.0279282736	 0.114832
H	-0.7713668455	 2.0385540516	 0.6635826544	 0.118377
H	 0.7637847384	-0.3337464228	-0.5510665719	 0.09645
H	 0.24582818	-0.22610376	 1.1251811076	 0.111095
H	-2.1440705082	-0.0865451331	 0.372418263	 0.102976
H	-1.6338431259	-0.3242590301	-1.2930155078	 0.099863
H	 0.5546374249	-2.6325413003	-0.7355020537	 0.131604
H	-0.6308176332	-3.9459208326	-0.7889175706	 0.117442
H	-0.6791098442	-2.6569033542	-2.0014649221	 0.131573
H	-1.1078279663	-3.3675286287	 1.5140347795	 0.235926
H	-2.8402883568	-3.762734082	-0.0325930168	 0.0989
H	-3.9015815194	-1.163868507	 1.2821062882	 0.086309
59.6483	77.5219	90.7387	134.1735	194.107	236.285	247.7439	258.2359	319.6065	370.1571	415.0592	431.9202	470.2852	552.293	730.6191	744.8314	816.7561	876.5346	895.3477	946.0937	966.7882	1001.9186	1014.4741	1038.2249	1053.4589	1071.2434	1115.1584	1119.346	1147.0793	1221.4848	1249.0637	1291.6485	1314.9325	1338.2925	1351.3846	1383.9474	1398.3116	1413.708	1418.7675	1450.0215	1473.1349	1490.7173	1493.3971	1500.061	1503.3984	1509.7603	1817.356	2901.8076	3022.8752	3028.8861	3032.004	3034.4555	3059.3944	3087.0338	3100.1463	3102.2183	3104.2789	3106.0859	3139.2513	3498.9258
CCCC1(C)NC1C=O	CCC[C@@]1(C)N[C@H]1C=O	
InChI=1S/C7H13NO/c1-3-4-7(2)6(5-9)8-7/h5-6,8H,3-4H2,1-2H3	InChI=1S/C7H13NO/c1-3-4-7(2)6(5-9)8-7/h5-6,8H,3-4H2,1-2H3/t6-,7+/m0/s1
