21
gdb 76882	2.27765	1.82453	1.50257	1.0795	76.25	-0.2436	0.0636	0.3072	1003.8227	0.184839	-424.237251	-424.229223	-424.228279	-424.269389	32.385	
C	-0.2266919631	 1.5474446874	-0.0171337391	-0.426094
C	-0.0042490176	 0.036459414	-0.0085804355	-0.025241
C	 0.8729585994	-0.4867217468	-1.1680085277	 0.104545
C	 1.2987061055	-1.8724206719	-0.6639080016	-0.24405
C	 1.9771792273	-1.2786629113	 0.5877303257	-0.069018
C	 2.8942789565	-0.2525502773	-0.0873078499	-0.088707
O	 2.1079060232	 0.2526940099	-1.1841758327	-0.282777
C	 0.7876373161	-0.5223175695	 1.2434389558	 0.135704
O	 1.1480550821	 0.4286683579	 2.2253873145	-0.440194
H	 0.7169931706	 2.0868800435	-0.1453346069	 0.122831
H	-0.8725839663	 1.8345558898	-0.8530501254	 0.113949
H	-0.7014832791	 1.8820700258	 0.9091947131	 0.12491
H	-0.9800992901	-0.4603357149	-0.0578905788	 0.071487
H	 0.4288146736	-0.4177442871	-2.1622838214	 0.070739
H	 0.456850642	-2.531593373	-0.4358372036	 0.099684
H	 1.9899983566	-2.3807949548	-1.3406439255	 0.103781
H	 2.4934283366	-1.9656293803	 1.2589289225	 0.070278
H	 3.1871197018	 0.5721635817	 0.5739136835	 0.08907
H	 3.8140410236	-0.7117115424	-0.4730057716	 0.099003
H	 0.1665146006	-1.2424123747	 1.7840307254	 0.085319
H	 1.5387902007	 1.1924598038	 1.7901183591	 0.284782
94.4807	219.7517	232.8403	265.5376	279.5469	300.6141	422.2026	446.8968	492.3553	549.6452	612.5647	725.6985	778.3328	823.9519	837.079	896.3676	914.1095	934.1169	952.0645	970.2103	1002.4196	1023.1266	1037.6854	1059.5883	1095.78	1121.6364	1142.8923	1159.1247	1182.3018	1212.2881	1237.9191	1270.4118	1280.679	1299.2838	1321.8355	1327.7584	1348.7638	1362.3951	1383.9672	1404.2195	1440.2487	1491.5543	1493.9089	1512.7683	1538.9859	3011.5688	3029.4494	3038.4894	3043.4833	3060.7629	3065.5443	3101.7568	3107.0408	3115.4599	3116.8169	3117.8118	3826.8927
CC1C2CC(CO2)C1O	C[C@H]1[C@@H]2C[C@@H](CO2)[C@H]1O	
InChI=1S/C7H12O2/c1-4-6-2-5(3-9-6)7(4)8/h4-8H,2-3H2,1H3	InChI=1S/C7H12O2/c1-4-6-2-5(3-9-6)7(4)8/h4-8H,2-3H2,1H3/t4-,5-,6-,7-/m0/s1
