19
gdb 26387	4.2298	0.91271	0.89983	3.1271	79.17	-0.1971	0.0211	0.2182	1388.2682	0.159595	-419.238277	-419.229255	-419.228311	-419.273181	33.087	
C	 0.1242082613	 1.5079027165	-0.0552285112	-0.398517
C	 0.0134474553	-0.0159156469	-0.0181077608	 0.049222
C	 0.5167473637	-0.5999676266	 1.3093529621	-0.386365
N	-1.3836487731	-0.3891152265	-0.3138972081	-0.405664
C	-1.6927054135	-1.7084065391	-0.566677897	 0.404953
C	-2.7114899398	-2.5456535026	-0.2247555934	-0.219953
N	-2.5485782146	-3.7540830756	-0.8992885019	-0.247305
C	-1.4671178144	-3.6026296363	-1.5791666713	 0.062087
O	-0.879795082	-2.3754215959	-1.4385008759	-0.179104
H	 1.159674961	 1.822875831	 0.1018320871	 0.121422
H	-0.2205373837	 1.8993641052	-1.0156014716	 0.128895
H	-0.4827362353	 1.9629374676	 0.7373708401	 0.111269
H	 0.6127798362	-0.4309028041	-0.8344319521	 0.111443
H	-0.0504672084	-0.1911776756	 2.1540463367	 0.110085
H	 0.4110942611	-1.6885904318	 1.324156869	 0.130204
H	 1.5730200664	-0.3584776792	 1.4659488075	 0.11828
H	-2.039015762	 0.0192770774	 0.3409774567	 0.236942
H	-3.5380117003	-2.3687548414	 0.4436281373	 0.108276
H	-0.9604755077	-4.3038498861	-2.2218599831	 0.14383
30.6851	65.0844	126.7452	223.4935	253.2321	285.5132	323.9832	391.7354	434.8348	454.0868	613.8358	667.8	704.7075	769.6874	780.8694	782.5983	848.3155	929.1586	935.6698	947.8187	955.3889	1000.9626	1099.9307	1123.1	1145.0736	1166.8054	1187.6353	1253.9192	1292.3482	1336.3033	1360.294	1387.0737	1398.4799	1418.7108	1470.3037	1483.6804	1487.2851	1503.3967	1507.2072	1573.6031	1651.4976	3027.0857	3031.4178	3064.8553	3094.8945	3105.9048	3113.104	3126.2918	3267.0521	3284.1872	3566.5675
CC(C)NC1=CN=CO1	CC(C)Nc1cnco1	
InChI=1S/C6H10N2O/c1-5(2)8-6-3-7-4-9-6/h3-5,8H,1-2H3	InChI=1S/C6H10N2O/c1-5(2)8-6-3-7-4-9-6/h3-5,8H,1-2H3
