19
gdb 82798	3.79787	1.6146	1.49548	1.3463	78.77	-0.2379	0.0079	0.2458	949.9619	0.161794	-385.871933	-385.865193	-385.864249	-385.902604	28.542	
C	-0.121883261	 1.6025414227	-0.0217711962	-0.431803
C	 0.0380948374	 0.0922177613	 0.0171282062	 0.023929
C	 1.1913225258	-0.5900395262	-0.7628726466	 0.06447
O	 2.3387561595	 0.0980635968	-0.299463446	-0.276988
C	 2.2237258808	-0.1615078445	 1.1546693723	 0.040937
C	 3.0135305313	-1.4329044952	 1.3607314911	-0.086301
C	 2.3243057548	-2.4136009576	 0.7598135224	-0.084227
C	 1.0443606031	-1.833958223	 0.2646057501	-0.088102
C	 0.7388803424	-0.6201017727	 1.2014984739	-0.081506
H	 0.8434722654	 2.1028953417	 0.0852380223	 0.13154
H	-0.5624296316	 1.9263067904	-0.9712381412	 0.11282
H	-0.7820513802	 1.9476596706	 0.7816280595	 0.111106
H	-0.9112612592	-0.4134386407	-0.1896108256	 0.070476
H	 1.226008568	-0.7146306568	-1.8442783844	 0.077768
H	 2.5216598793	 0.73175063	 1.7014167339	 0.074172
H	 4.0197433156	-1.4767257705	 1.7567960497	 0.099795
H	 2.6576621381	-3.4284523404	 0.5803894381	 0.100396
H	 0.2149049192	-2.4976119212	 0.0271075567	 0.070635
H	 0.2916609514	-0.7571752346	 2.1863024039	 0.070884
184.7077	211.6563	238.0156	396.6613	423.8871	511.0647	566.6836	668.0808	699.0859	740.9761	766.176	783.4574	813.3382	845.7303	880.5232	894.4182	935.6837	947.1327	950.6548	976.2116	1019.6847	1026.6448	1050.1503	1075.0612	1102.1972	1127.8703	1136.6153	1164.3492	1195.3318	1209.4458	1246.1568	1273.6671	1281.4549	1306.6711	1335.6242	1358.7253	1396.5568	1413.3349	1491.3017	1505.2857	1628.5828	3033.0711	3052.6752	3090.3376	3115.4916	3124.4947	3130.4049	3130.9656	3138.381	3198.6985	3226.0924
CC1C2OC3C=CC2C13	C[C@H]1[C@H]2O[C@@H]3C=C[C@H]2[C@H]13	
InChI=1S/C8H10O/c1-4-7-5-2-3-6(7)9-8(4)5/h2-8H,1H3	InChI=1S/C8H10O/c1-4-7-5-2-3-6(7)9-8(4)5/h2-8H,1H3/t4-,5+,6-,7+,8-/m1/s1
