21
gdb 39218	2.55258	1.89531	1.41711	1.3097	80.78	-0.236	0.0791	0.3151	995.3825	0.186253	-387.061232	-387.054214	-387.05327	-387.092138	30.036	
C	-0.073722095	 1.4834765676	 0.064409582	-0.322043
C	 1.2962381806	 0.8320198691	 0.0374931362	-0.034536
C	 2.1747550988	 0.8478102173	 1.2854934925	-0.099365
O	 2.5122077455	-0.4218844543	 1.8249164701	-0.270881
C	 1.4552542341	-1.2475443461	 2.2925260468	 0.141759
C	 0.7816172589	-2.0961934955	 1.1752400778	-0.226137
C	-0.3169586428	-0.9917301097	 1.0682525463	-0.034708
C	 0.0758232165	-0.5650906211	 2.5110841458	-0.278289
C	 0.0401765304	-0.0118238809	-0.031490634	 0.006359
H	-0.3915888109	 1.9150350562	 1.0088068473	 0.111105
H	-0.4109806043	 2.0362551999	-0.8057666853	 0.109817
H	 1.8470077305	 0.9121459071	-0.8949376967	 0.085771
H	 3.1393448592	 1.3017721678	 1.0397032357	 0.106967
H	 1.7215805999	 1.4789273658	 2.0618251236	 0.091943
H	 1.8695821922	-1.8012833348	 3.1397320269	 0.074454
H	 1.3874998831	-2.2907878303	 0.287353518	 0.098574
H	 0.3921374963	-3.0405201303	 1.5680240785	 0.09059
H	-1.34812757	-1.3356789526	 0.9412228119	 0.062905
H	-0.49818017	-1.1352897748	 3.2465064958	 0.101876
H	 0.0322018476	 0.4865334374	 2.7974406298	 0.099108
H	-0.1577442305	-0.4242682777	-1.018904089	 0.084731
186.2932	218.263	314.256	367.8547	382.7158	416.5664	461.1999	492.5871	641.7619	730.0957	777.5332	790.2779	809.0209	848.8309	879.1719	914.3138	919.7701	938.1603	962.922	995.833	1005.6065	1055.3931	1064.7282	1077.7342	1089.1135	1124.0073	1127.7137	1147.0252	1170.8041	1181.7311	1217.9396	1242.3325	1254.245	1277.258	1281.1526	1309.5326	1358.3904	1378.449	1388.3268	1413.0706	1415.8952	1463.4817	1487.3204	1495.2549	1519.0076	3007.6043	3045.5785	3054.1059	3060.7943	3076.6362	3077.9426	3115.7144	3119.748	3122.1833	3126.7839	3147.4609	3208.2471
C1C2COC3CC(C3)C12	C1[C@H]2CO[C@@H]3C[C@@H](C3)[C@@H]12	
InChI=1S/C8H12O/c1-5-2-7(1)9-4-6-3-8(5)6/h5-8H,1-4H2	InChI=1S/C8H12O/c1-5-2-7(1)9-4-6-3-8(5)6/h5-8H,1-4H2/t5-,6-,7+,8+/m0/s1
