18
gdb 39057	2.48664	1.99953	1.34877	2.5397	75.76	-0.2312	0.003	0.2342	967.1237	0.150558	-401.902547	-401.895621	-401.894677	-401.933504	28.573	
C	-0.009639693	 1.4795705967	-0.1518370422	-0.297784
C	 1.3680307487	 2.101362041	-0.0470262759	-0.098775
C	 2.1561171786	 2.0297666851	 1.0292197175	-0.007674
C	 1.8362802924	 1.3779272851	 2.3272913949	-0.074354
N	 0.4320538065	 1.3685396096	 2.7810376554	-0.323336
C	 1.0552622895	 0.0913492482	 2.447894864	-0.076322
C	 0.5663069119	-0.6629083776	 1.2478037726	 0.083653
O	-0.8316150572	-0.6662898638	 0.9367820514	-0.256966
C	 0.0641298303	-0.0305005317	 0.0191421583	 0.044994
H	-0.6609706582	 1.8771762702	 0.6281701343	 0.15772
H	-0.458883284	 1.7126430302	-1.1214759501	 0.09431
H	 1.746814359	 2.6239157685	-0.9216202522	 0.090795
H	 3.1406846667	 2.4887525474	 0.9834949738	 0.085137
H	 2.5938724608	 1.5227639436	 3.0945314749	 0.084101
H	 0.3784028252	 1.4881331507	 3.7878599775	 0.238132
H	 1.3461615655	-0.552298589	 3.2765558922	 0.085605
H	 1.0404795059	-1.6410723455	 1.1458731875	 0.082118
H	 0.2090393213	-0.5908197086	-0.9060024139	 0.088645
180.0562	218.6749	287.9436	329.2902	337.3161	433.2475	514.0147	577.0655	671.8541	707.4557	748.7521	780.6902	810.2002	826.7906	869.4534	911.7525	929.6841	974.12	988.8812	998.7485	1033.6461	1038.7891	1099.4117	1111.0871	1150.4593	1171.3354	1202.2512	1218.3768	1239.6879	1271.4798	1308.4899	1338.9818	1382.4716	1414.1118	1434.0292	1461.0708	1474.4131	1490.2629	1713.692	3061.0239	3080.6745	3092.841	3115.0773	3124.4749	3127.0124	3147.9531	3169.9388	3518.3222
C1C=CC2NC2C2OC12	C1C=C[C@H]2N[C@H]2[C@H]2O[C@@H]12	
InChI=1S/C7H9NO/c1-2-4-6(8-4)7-5(3-1)9-7/h1-2,4-8H,3H2	InChI=1S/C7H9NO/c1-2-4-6(8-4)7-5(3-1)9-7/h1-2,4-8H,3H2/t4-,5+,6-,7+/m1/s1
