21
gdb 87219	4.21899	0.85595	0.80533	2.36	79.21	-0.2328	0.0643	0.2971	1491.9932	0.180776	-424.188621	-424.179049	-424.178105	-424.223311	36.546	
O	-0.0428722532	 1.3554051615	 0.0488285792	-0.431792
C	-0.0281196786	-0.0406772049	 0.2018503838	 0.001547
C	-0.8406321516	-0.6701473908	 1.3156872676	-0.388302
C	-1.3383792387	-0.7063421525	-0.1217585253	 0.448218
O	-2.3870689447	 0.1531030132	-0.4595678363	-0.477302
C	-1.3790009886	-2.0122737426	-0.8841787617	-0.276541
C	-2.5832153946	-2.8700938395	-0.5505809754	 0.04641
C	-3.904173979	-2.6257072411	-1.2306494808	-0.237059
C	-3.1077967301	-3.8653767324	-1.5557992031	-0.287399
H	 0.2880124617	 1.7578970408	 0.8580464617	 0.295613
H	 0.902867723	-0.5170322208	-0.1021431536	 0.092504
H	-0.4600712307	-1.5746783766	 1.7791560065	 0.112285
H	-1.36639369	 0.0056529325	 1.9825662326	 0.112181
H	-2.0083426806	 1.0439642994	-0.4632769173	 0.287168
H	-1.377114282	-1.7839837383	-1.9577354394	 0.098401
H	-0.4563505443	-2.570150461	-0.67625532	 0.089912
H	-2.6352200479	-3.1743660343	 0.4919289763	 0.077208
H	-4.8116323332	-2.7343238375	-0.6471689889	 0.105956
H	-3.9443813335	-1.832464834	-1.9681911867	 0.1199
H	-2.6162202897	-3.9153457364	-2.5224423826	 0.105715
H	-3.4689218636	-4.8223758347	-1.1951123267	 0.105376
56.9407	75.7645	118.1405	237.4103	251.3391	289.5765	295.9745	340.3505	404.6626	418.1456	460.8853	485.9127	646.4114	721.8601	770.6233	802.2768	822.4938	848.8871	869.0667	922.7789	928.9189	954.2555	986.6313	1015.8845	1039.7907	1057.195	1073.1299	1087.8241	1133.9806	1150.0921	1163.5838	1195.7184	1223.2	1232.8555	1246.6397	1290.2808	1316.089	1347.489	1389.4045	1413.874	1433.7372	1467.17	1473.6854	1486.1707	1508.1669	3013.2964	3054.6447	3110.3851	3124.5568	3126.1834	3133.9169	3140.5537	3205.569	3217.5137	3226.0497	3729.9219	3813.7422
OC1CC1(O)CC1CC1	O[C@H]1C[C@]1(O)CC1CC1	
InChI=1S/C7H12O2/c8-6-4-7(6,9)3-5-1-2-5/h5-6,8-9H,1-4H2	InChI=1S/C7H12O2/c8-6-4-7(6,9)3-5-1-2-5/h5-6,8-9H,1-4H2/t6-,7+/m0/s1
