19
gdb 62804	2.56107	1.42746	1.16153	3.2466	75.66	-0.2414	-0.0225	0.2189	1117.9469	0.15695	-422.997484	-422.988519	-422.987574	-423.030954	33.963	
C	-0.1237094766	 1.5482941409	-0.0303041145	-0.455961
C	 0.0452213633	 0.0532921708	 0.1105882584	 0.413276
O	-1.1355348605	-0.6579653048	-0.1932430402	-0.470978
C	 1.2878967994	-0.7252252066	-0.2460499309	-0.123299
C	 2.5744038219	 0.0017305166	 0.1669393517	-0.290709
C	 2.0605002941	-0.0145812764	 1.6582735745	-0.104853
C	 2.048920681	 1.2635144299	 2.4549247377	 0.142693
O	 1.0744195557	 1.7709186435	 2.9495994305	-0.245331
C	 0.7619368804	-0.6778937468	 1.2076115205	-0.093947
H	 0.7940432397	 2.1045883457	 0.1649252439	 0.118359
H	-0.4418961859	 1.7905029633	-1.0527191907	 0.097469
H	-0.8871175296	 1.9080655361	 0.6641815446	 0.143672
H	-1.3367453936	-0.5037518003	-1.1229258555	 0.280346
H	 1.236145773	-1.5479717923	-0.9488635701	 0.089337
H	 3.4754548739	-0.5991129902	 0.0340324965	 0.113914
H	 2.7453293612	 0.9838061706	-0.2852671769	 0.105603
H	 2.6835023912	-0.7190603743	 2.2244381275	 0.107892
H	 3.0578827136	 1.7274152315	 2.5751060846	 0.070766
H	 0.2299749478	-1.4430542473	 1.7581806885	 0.10175
85.0334	117.4684	167.1306	223.2758	257.6168	279.5816	321.184	348.3185	407.5568	443.4916	485.1072	630.938	670.9917	735.688	809.1989	840.7458	866.1484	916.5942	955.643	990.4028	998.1929	1010.0204	1027.4491	1056.234	1091.6593	1094.622	1141.824	1179.3049	1223.6627	1247.9813	1260.0825	1274.2343	1319.6455	1345.7582	1417.6004	1422.43	1441.7545	1484.6979	1493.9275	1502.6271	1825.8349	2839.6803	3024.5222	3027.9011	3051.8602	3104.0731	3114.4054	3140.018	3183.7411	3199.2156	3796.1723
CC1(O)C2CC(C=O)C12	C[C@@]1(O)[C@H]2C[C@@H](C=O)[C@@H]12	
InChI=1S/C7H10O2/c1-7(9)5-2-4(3-8)6(5)7/h3-6,9H,2H2,1H3	InChI=1S/C7H10O2/c1-7(9)5-2-4(3-8)6(5)7/h3-6,9H,2H2,1H3/t4-,5-,6+,7+/m0/s1
