22
gdb 122394	5.12573	0.59251	0.56083	3.9851	84.52	-0.2455	0.0384	0.284	2019.7467	0.193512	-404.385337	-404.375266	-404.374321	-404.421468	36.378	
C	-0.1636600633	 1.576578983	-0.0195534116	-0.381045
C	 0.0467308057	 0.0617209644	 0.0461756285	-0.163429
C	 0.6755610032	-0.5150591395	-1.2270196151	-0.16535
C	 0.8803563485	-2.0329537899	-1.1710310954	-0.195065
C	 1.5240562286	-2.6059687755	-2.4274692168	 0.059112
C	 1.537833822	-4.156693573	-2.5839854486	-0.412237
C	 0.7035240964	-3.9276791135	-3.8683872882	 0.430417
O	 0.2465687664	-4.6137830912	-4.7420548883	-0.358662
N	 0.6903977778	-2.5713176513	-3.6427850097	-0.325039
H	 0.7859402785	 2.102704321	-0.1682999774	 0.114221
H	-0.8249551217	 1.8488200037	-0.8497266058	 0.114707
H	-0.6138114606	 1.9574661952	 0.9022980865	 0.114295
H	 0.683839875	-0.1844087806	 0.9059117753	 0.096553
H	-0.9146787371	-0.435422333	 0.2302035268	 0.098697
H	 0.0376272361	-0.2661679304	-2.0866640509	 0.090736
H	 1.6409956343	-0.0225080781	-1.410730686	 0.093147
H	 1.517473395	-2.2867101	-0.3130230424	 0.100432
H	-0.0838519606	-2.5321806447	-1.0088266657	 0.099781
H	 2.5109844282	-2.1529860416	-2.5882550413	 0.081797
H	 2.5147819841	-4.6085142677	-2.7634210486	 0.130466
H	 1.0159688387	-4.7061460224	-1.7978289837	 0.128432
H	 0.3791543648	-1.8094488149	-4.2272440415	 0.248033
50.1502	68.2962	98.4213	115.5017	155.5465	248.1381	266.9015	295.8517	377.3326	421.9579	477.7227	514.7764	565.1458	722.2766	741.9156	799.3292	826.4783	899.7631	911.2392	941.5424	977.4757	1009.913	1026.2517	1066.3118	1084.6181	1086.6053	1127.4946	1171.0194	1190.036	1202.9468	1242.8468	1258.1055	1294.9217	1319.1845	1335.1571	1357.5256	1383.7299	1397.74	1408.7284	1416.1858	1459.8456	1475.256	1485.847	1497.8199	1500.5712	1511.9341	1895.5013	3000.6537	3012.5696	3017.1702	3020.7645	3027.0496	3030.159	3049.1575	3066.5015	3084.4097	3096.3211	3103.3724	3143.2331	3608.8176
CCCCC1CC(=O)N1	CCCC[C@H]1CC(=O)N1	
InChI=1S/C7H13NO/c1-2-3-4-6-5-7(9)8-6/h6H,2-5H2,1H3,(H,8,9)	InChI=1S/C7H13NO/c1-2-3-4-6-5-7(9)8-6/h6H,2-5H2,1H3,(H,8,9)/t6-/m0/s1
