16
gdb 93124	2.12064	1.76514	1.28884	1.4203	70.16	-0.2488	0.0148	0.2636	1018.7251	0.123825	-437.848892	-437.8405	-437.839555	-437.881833	31.257	
O	-0.0454522734	 1.4140741902	 0.0054732894	-0.428653
C	 0.0144347447	 0.0035859487	 0.0244743289	 0.078112
C	 0.7756876599	-0.5708980309	 1.2196704665	-0.198905
N	 0.588331944	-2.0120538658	 1.3649449951	-0.265291
C	-0.4136668141	-2.538046304	 0.805586178	 0.137733
O	-1.4062891151	-1.9610196368	 0.073965075	-0.229052
C	-1.4327860472	-0.5180855419	 0.0735987357	-0.085259
C	-2.1866274543	-0.0205912508	 1.2218843894	 0.381836
C	-2.8146440479	 0.372138679	 2.1671309158	-0.47573
H	 0.8553801127	 1.753245714	-0.0027763509	 0.292089
H	 0.4527043705	-0.3896669276	-0.9062597083	 0.086775
H	 1.8501791814	-0.3745626666	 1.1183690099	 0.102875
H	 0.4425562999	-0.0638854406	 2.1337351789	 0.13465
H	-0.582514198	-3.6118166187	 0.8556489245	 0.130195
H	-1.9500766232	-0.2410330394	-0.8494137632	 0.13156
H	-3.3710409399	 0.724985571	 3.0004370452	 0.207065
89.5806	142.8878	165.6631	213.035	245.136	314.3623	389.4895	447.8198	469.7288	510.4639	603.7352	637.375	646.2118	675.8331	776.9192	897.5024	930.332	956.1833	984.0792	1010.3643	1069.0078	1103.1208	1132.4625	1138.1943	1222.8947	1250.3928	1308.7142	1332.5812	1359.0941	1398.2007	1404.6734	1429.6875	1487.203	1737.7706	2241.2364	2980.754	3025.0253	3062.2974	3074.3887	3165.4059	3502.0379	3820.8985
OC1CN=COC1C#C	O[C@H]1CN=CO[C@H]1C#C	
InChI=1S/C6H7NO2/c1-2-6-5(8)3-7-4-9-6/h1,4-6,8H,3H2	InChI=1S/C6H7NO2/c1-2-6-5(8)3-7-4-9-6/h1,4-6,8H,3H2/t5-,6-/m0/s1
