21
gdb 116018	2.76592	1.28474	0.94438	3.4439	85.66	-0.2355	-0.0467	0.1888	1295.4067	0.183461	-387.13936	-387.130501	-387.129557	-387.172984	33.749	
C	 0.0759573299	 1.5664512024	-0.1835746389	-0.392257
C	 0.0189573667	 0.0566933269	 0.0719228256	-0.179431
C	-1.4035058568	-0.5213816833	 0.1272585177	-0.086421
C	-1.442921837	-2.0454978462	-0.0952198142	-0.226423
C	-2.8791318425	-2.5815188325	-0.1269279758	-0.273679
C	-3.7012817245	-2.0504201483	 1.0119189859	-0.040461
C	-3.35172431	-0.9723896948	 1.7240690006	-0.133038
C	-2.1353222903	-0.1799990938	 1.4307136504	 0.37548
O	-1.7664372137	 0.7000702957	 2.1850280352	-0.338105
H	 1.1131600185	 1.912079394	-0.2394242172	 0.106746
H	-0.4086856336	 1.8233292903	-1.1329915292	 0.102509
H	-0.4249903327	 2.1123609017	 0.6175200634	 0.146972
H	 0.568983271	-0.4657846509	-0.7210601645	 0.0851
H	 0.5317321148	-0.1748862524	 1.0128687843	 0.105489
H	-2.0028464512	-0.0590538498	-0.6755660519	 0.091823
H	-0.9250856349	-2.2958070263	-1.0271086582	 0.101248
H	-0.8914148994	-2.5404379606	 0.7149717017	 0.108744
H	-3.3670800583	-2.3035353306	-1.0745464331	 0.121122
H	-2.8854039065	-3.6778789364	-0.1080330638	 0.113155
H	-4.6193090266	-2.5819689285	 1.2544274667	 0.106116
H	-3.9421866629	-0.6222834866	 2.5652280254	 0.105312
74.7113	105.2436	173.3631	206.0834	258.4466	292.5588	337.3479	373.4731	435.3248	486.3828	537.9405	637.9399	701.9182	731.7191	780.0591	830.513	877.3258	893.8507	964.0044	992.2626	1016.7587	1028.9942	1055.1756	1082.8405	1118.5435	1129.7894	1149.8012	1184.6973	1229.2599	1248.6322	1285.4714	1297.8272	1361.2694	1364.4837	1377.569	1388.3735	1406.4489	1407.4959	1467.8387	1479.565	1495.4544	1497.5238	1516.5329	1685.7076	1768.4244	2967.546	2991.0351	3020.0256	3025.9954	3032.5257	3051.4045	3062.5409	3073.4144	3094.2104	3141.727	3148.4643	3186.0936
CCC1CCC=CC1=O	CC[C@H]1CCC=CC1=O	
InChI=1S/C8H12O/c1-2-7-5-3-4-6-8(7)9/h4,6-7H,2-3,5H2,1H3	InChI=1S/C8H12O/c1-2-7-5-3-4-6-8(7)9/h4,6-7H,2-3,5H2,1H3/t7-/m0/s1
