21
gdb 58698	1.91195	1.71992	1.13473	1.6276	84.12	-0.2516	0.0275	0.2791	1185.6612	0.179842	-387.042811	-387.03282	-387.031876	-387.077677	37.306	
C	 0.1886700639	 1.562854205	-0.0386912639	-0.39693
C	 0.0512348069	 0.0334461114	 0.0261591065	-0.016914
C	 0.6545396338	-0.6049943229	-1.232479772	-0.419062
C	 0.6909610076	-0.5043788573	 1.32720392	 0.21927
C	 0.9036866425	-2.0450162336	 1.4745187632	-0.345543
C	 2.4012454736	-1.6977106261	 1.5223970086	-0.064127
O	 2.1362669743	-0.2923910951	 1.3293196434	-0.312953
C	 0.0644948443	 0.0860117665	 2.5107173336	 0.319397
C	-0.4619940871	 0.5348960769	 3.4943724244	-0.435689
H	 1.245655814	 1.8471909478	-0.0424617197	 0.133614
H	-0.2715148091	 1.9495189932	-0.9529189025	 0.106653
H	-0.2897405112	 2.0451986466	 0.8168454078	 0.127299
H	-1.0155906517	-0.2233257302	 0.0805971668	 0.081676
H	 1.7346439658	-0.434644132	-1.2673280021	 0.133486
H	 0.472332993	-1.6817051457	-1.2925465263	 0.109901
H	 0.2138019888	-0.1527823317	-2.1259728372	 0.112879
H	 0.4864573727	-2.4696937988	 2.3865112911	 0.122351
H	 0.583900556	-2.6367338861	 0.6177776776	 0.115887
H	 2.8951256065	-1.888780498	 2.4823384807	 0.108853
H	 3.0183821484	-2.1072999029	 0.7146983004	 0.10495
H	-0.9193110228	 0.9421242429	 4.3623041197	 0.195003
58.0752	78.1173	150.1567	183.8255	201.9217	234.4774	262.4846	307.5658	371.6952	400.5463	489.2249	526.0662	549.7985	618.973	625.6315	660.9164	781.9039	850.2175	869.8468	927.3723	928.5641	949.2644	965.7837	987.1221	1020.2885	1084.0416	1128.9263	1157.486	1168.483	1198.2127	1204.9538	1231.6604	1257.2258	1331.125	1345.5799	1359.2744	1395.0953	1417.0284	1479.961	1493.1724	1494.3581	1509.445	1516.7574	1529.4995	2226.4292	3016.5068	3023.6108	3040.6192	3044.7819	3065.1767	3100.1826	3106.8994	3110.9337	3119.1961	3126.7033	3158.8943	3499.3888
CC(C)C1(CCO1)C#C	CC(C)[C@]1(CCO1)C#C	
InChI=1S/C8H12O/c1-4-8(7(2)3)5-6-9-8/h1,7H,5-6H2,2-3H3	InChI=1S/C8H12O/c1-4-8(7(2)3)5-6-9-8/h1,7H,5-6H2,2-3H3/t8-/m1/s1
