21
gdb 41903	2.12824	1.99929	1.73224	1.959	76.35	-0.2398	0.0711	0.3109	956.3527	0.187046	-424.241318	-424.234025	-424.233081	-424.272781	29.906	
C	 0.0163447555	 1.5617552421	-0.0938978717	-0.210626
C	 1.4440228101	 2.1020175079	 0.1553109796	-0.233761
C	 2.4785522461	 0.9959899311	-0.0414068864	 0.214438
O	 2.2841306921	-0.0693385052	 0.8520662852	-0.264487
C	 0.9190581115	-0.4360497906	 1.0987600697	-0.082278
C	-0.0200205883	 0.0158647284	-0.0240352699	-0.017737
C	 0.3367969634	-0.6497603429	-1.3735933117	-0.221481
C	 1.842560962	-0.6602189276	-1.6749369744	-0.061303
O	 2.4826943101	 0.577349066	-1.4105099887	-0.283509
H	-0.6644945117	 1.9736006091	 0.6581815744	 0.096735
H	-0.3578486824	 1.8917036566	-1.0670120095	 0.103518
H	 1.6829001334	 2.9320559123	-0.5143083327	 0.109757
H	 1.5472761537	 2.4732697037	 1.1811779593	 0.1017
H	 3.4909640191	 1.3628827396	 0.1591533611	 0.082108
H	 0.9137003651	-1.5257692544	 1.214326207	 0.105631
H	 0.5942041187	 0.0015888841	 2.0546192674	 0.095452
H	-1.0348233362	-0.2971905417	 0.2470902607	 0.070319
H	-0.0177034824	-1.6885105539	-1.3806249228	 0.091905
H	-0.2028574591	-0.1279799651	-2.1722700705	 0.098946
H	 2.3288502633	-1.4637443453	-1.1084445688	 0.103924
H	 2.016049386	-0.8524361143	-2.7378894473	 0.100749
100.8	231.9886	291.9007	293.222	356.498	391.3647	460.2457	496.3599	574.9401	693.4246	749.7974	786.7042	808.7864	851.6267	877.5537	897.6862	925.7258	970.0311	988.6822	1025.5625	1031.3488	1064.1883	1086.4768	1108.178	1141.2905	1175.6986	1210.0256	1228.7421	1240.7064	1275.0691	1296.2179	1307.9471	1350.9573	1353.578	1363.6022	1376.0815	1391.2165	1395.0511	1417.178	1422.7627	1476.177	1483.7693	1500.7329	1503.3037	1519.7424	2989.9474	3019.2877	3027.25	3033.8905	3040.2753	3048.9623	3055.5248	3058.0689	3063.6959	3082.1296	3087.8693	3103.8212
C1CC2OCC1CCO2	C1C[C@H]2OC[C@@H]1CCO2	
InChI=1S/C7H12O2/c1-2-7-8-4-3-6(1)5-9-7/h6-7H,1-5H2	InChI=1S/C7H12O2/c1-2-7-8-4-3-6(1)5-9-7/h6-7H,1-5H2/t6-,7+/m0/s1
