15
gdb 7886	3.72305	1.73842	1.24625	3.5307	63.84	-0.2243	-0.0124	0.2119	944.7047	0.11861	-399.844132	-399.836391	-399.835446	-399.876056	28.635	
C	 0.0318695323	 1.5116854164	 0.0244318276	-0.497817
C	-0.0680840893	 0.0260359391	-0.0190769196	 0.359996
C	-1.1240954901	-0.7670244056	-0.2384671424	-0.239599
C	-0.703247341	-2.2029519267	-0.0958618345	 0.004613
O	-1.0206247981	-3.0249996927	-1.1996271345	-0.433276
C	 0.8283956397	-2.0881650979	 0.0739485541	 0.378123
O	 1.6197105575	-3.0024622596	 0.0256850865	-0.376278
N	 1.0952218117	-0.7475510839	 0.2307645148	-0.37744
H	 0.7619847577	 1.8804362766	-0.7067611907	 0.137026
H	-0.9351019421	 1.9651866247	-0.2004284434	 0.14592
H	 0.3576188731	 1.8595352247	 1.0119422951	 0.140849
H	-2.1370256319	-0.4355308718	-0.4094512692	 0.109427
H	-1.111307101	-2.6311808685	 0.838490955	 0.097776
H	-0.3792379903	-3.7487320039	-1.1814987896	 0.292697
H	 2.0347543316	-0.3820192609	 0.2054992109	 0.257981
108.0582	156.4005	192.1433	234.4718	288.4723	366.1824	406.0142	485.8082	532.3842	585.7466	609.4591	666.8806	739.1706	772.9282	883.7795	968.4321	1005.4534	1026.3506	1067.4362	1106.6045	1185.0251	1217.7693	1232.8237	1306.7124	1350.8674	1400.8812	1411.3305	1428.4503	1476.3102	1489.8958	1717.7929	1839.0438	2931.0928	3026.1186	3075.8775	3136.0926	3249.1575	3632.5854	3753.9673
CC1=CC(O)C(=O)N1	CC1=C[C@@H](O)C(=O)N1	
InChI=1S/C5H7NO2/c1-3-2-4(7)5(8)6-3/h2,4,7H,1H3,(H,6,8)	InChI=1S/C5H7NO2/c1-3-2-4(7)5(8)6-3/h2,4,7H,1H3,(H,6,8)/t4-/m1/s1
