18
gdb 47599	2.2793	1.88502	1.14396	2.4953	70.46	-0.217	-0.0284	0.1886	1054.0176	0.149583	-439.075048	-439.067313	-439.066369	-439.108365	29.21	
O	-0.2191313768	 0.4269671666	 1.1026516897	-0.312216
C	-0.1489632716	 1.3232563886	 0.2946711983	 0.353925
C	-1.3996282369	 1.8680577446	-0.4112026931	-0.273264
N	-1.2248074477	 3.0771698541	-1.211633837	-0.288618
C	-0.312874992	 4.0279681777	-0.5701086755	-0.205061
C	 1.1104957975	 3.4671072327	-0.487939391	 0.12043
O	 1.8581830771	 3.8701891932	 0.6809871529	-0.290082
C	 2.0237227547	 2.5019179156	 1.116790273	-0.077192
C	 1.172887839	 1.981077541	-0.0622524574	-0.177622
H	-1.8138988025	 1.0667818567	-1.0332531675	 0.135938
H	-2.1424596562	 2.0509609174	 0.3776156118	 0.143036
H	-0.8865059591	 2.8443781352	-2.1396531878	 0.221397
H	-0.337980415	 4.9789898806	-1.1104970307	 0.111836
H	-0.6751223546	 4.2218498423	 0.446905235	 0.120092
H	 1.6680685096	 3.6932176192	-1.4074866286	 0.074676
H	 3.0750644777	 2.1930703156	 1.1058371292	 0.108865
H	 1.606136269	 2.3227445517	 2.1132985853	 0.122154
H	 1.7075969978	 1.3207228871	-0.7512399164	 0.111705
37.7056	75.9929	232.1448	267.8025	352.2139	434.499	449.1459	473.3402	555.6116	643.7687	685.2611	765.476	797.0458	880.6533	906.0283	959.5515	962.9179	992.2239	1025.9062	1051.3549	1099.49	1123.2823	1145.4819	1152.1907	1173.4673	1181.5148	1224.8735	1266.6046	1313.1937	1323.9665	1327.8611	1344.0168	1372.4591	1387.2265	1440.9237	1482.2247	1490.7104	1530.8789	1809.4844	3001.1278	3019.6556	3030.0822	3037.4598	3067.1414	3075.5864	3081.1956	3090.268	3518.3988
O=C1CNCC2OCC12	O=C1CNC[C@H]2OC[C@@H]12	
InChI=1S/C6H9NO2/c8-5-1-7-2-6-4(5)3-9-6/h4,6-7H,1-3H2	InChI=1S/C6H9NO2/c8-5-1-7-2-6-4(5)3-9-6/h4,6-7H,1-3H2/t4-,6+/m0/s1
