20
gdb 36399	4.9135	0.78698	0.73922	4.0159	84.39	-0.2762	0.0345	0.3106	1551.4234	0.171196	-366.007323	-365.998544	-365.9976	-366.0415	33.104	
N	 0.0074989873	-1.1488137041	-0.1955098061	-0.308688
C	 0.0006296281	-0.0044145892	-0.0343343075	 0.261231
C	 0.0232873739	 1.4440670188	 0.166401932	-0.3651
C	 1.4425469584	 2.0209250163	 0.1222128567	 0.048349
C	 2.2019341891	 2.0199431624	-1.2374945442	-0.309798
C	 2.6340927734	 3.4613000185	-0.9348289723	 0.38461
C	 4.0531373337	 3.9419686334	-0.8372950751	-0.314931
C	 3.1173710035	 4.5175863311	-1.8785852847	-0.331069
C	 1.5817577327	 3.5713422537	 0.1770853096	-0.331683
H	-0.5972380604	 1.9116920813	-0.6078043332	 0.146571
H	-0.4505612366	 1.6694046128	 1.1295248936	 0.150806
H	 2.0483700082	 1.5498827924	 0.9006305837	 0.096183
H	 2.9867133496	 1.2707245408	-1.3655622613	 0.113006
H	 1.5162805437	 1.9560121939	-2.0902268675	 0.103135
H	 4.3260121862	 4.5693795442	 0.0056629618	 0.112287
H	 4.8432861479	 3.2774834712	-1.1727277364	 0.114778
H	 3.2762604639	 4.2423599992	-2.9165962109	 0.114137
H	 2.7595928747	 5.5328381526	-1.7377581642	 0.112001
H	 0.6686904244	 4.0782949029	-0.156980627	 0.09891
H	 1.8938969484	 4.0074089478	 1.1298506829	 0.105266
54.5443	69.0849	132.1503	244.9274	279.846	309.5985	372.7308	398.5964	409.194	474.2476	578.0823	737.183	774.1241	818.6492	848.0571	883.0317	904.044	913.8636	930.4253	936.7424	993.1474	1032.6641	1052.4851	1076.2148	1078.953	1088.475	1129.7735	1187.3974	1189.1753	1238.9139	1245.1714	1249.4577	1259.7541	1288.8272	1325.7128	1369.8951	1393.9565	1463.9003	1464.3338	1478.151	1499.6723	1504.9303	2360.3827	3031.8853	3033.8861	3040.561	3063.7878	3078.6013	3095.5041	3105.5053	3120.4478	3124.4405	3198.2566	3213.1998
N#CCC1CC2(CC2)C1	N#CCC1CC2(CC2)C1	
InChI=1S/C8H11N/c9-4-1-7-5-8(6-7)2-3-8/h7H,1-3,5-6H2	InChI=1S/C8H11N/c9-4-1-7-5-8(6-7)2-3-8/h7H,1-3,5-6H2
