21
gdb 69302	2.38786	1.49115	1.26178	2.9633	83.43	-0.2295	-0.005	0.2245	1144.4484	0.180239	-387.098901	-387.089174	-387.08823	-387.132801	36.603	
C	-0.0300083315	 1.594863566	 0.0260611982	-0.497358
C	 0.0557220064	 0.0953635457	-0.003691754	 0.224087
C	-0.8714816245	-0.8098066878	 0.8005455314	-0.346954
C	 0.5940982539	-0.9545899488	 1.0128855586	-0.129918
C	 1.2387178736	-1.7989054696	-0.1119134915	 0.184711
C	 2.7704164302	-1.6958428536	-0.1113939272	-0.433543
C	 0.7920061916	-3.2484991286	-0.2908134563	-0.448343
C	 0.6772297548	-0.7241328745	-1.0959448722	 0.330645
O	 0.8755082557	-0.5211243132	-2.2630561614	-0.33466
H	 0.9170749106	 2.0521309293	-0.277559782	 0.129814
H	-0.8050902144	 1.9544955467	-0.6591967111	 0.13658
H	-0.2784357096	 1.9561915585	 1.0290405543	 0.119702
H	-1.4176344656	-0.2804171363	 1.5759182387	 0.121111
H	-1.4518880121	-1.5892281783	 0.3162940169	 0.120449
H	 1.0720324959	-0.7362044663	 1.9605042372	 0.096778
H	 3.1956731938	-2.3049265306	 0.6940105075	 0.113859
H	 3.1757446128	-2.0523640834	-1.062661418	 0.133702
H	 3.1053591276	-0.6633249642	 0.0310478374	 0.117362
H	-0.2947910653	-3.3612233966	-0.2528004817	 0.11519
H	 1.1303386433	-3.6278466506	-1.2605571731	 0.131671
H	 1.2228454627	-3.8876655638	 0.4882825582	 0.115116
95.843	153.945	174.2839	181.2723	204.2211	221.717	262.2887	294.3156	332.1107	344.4723	472.7745	514.8467	565.09	666.8993	721.6818	759.4717	832.4215	849.7598	916.3498	949.702	956.4527	975.4464	995.8164	1018.5134	1025.2236	1077.392	1094.7232	1110.6655	1184.9909	1206.0677	1221.7249	1278.4913	1314.8579	1374.3738	1396.2226	1414.9896	1420.7666	1480.6349	1482.0212	1482.6584	1496.0203	1498.4292	1504.9314	1508.0946	1864.7965	3029.0241	3032.0808	3032.9471	3095.2081	3096.589	3097.9057	3104.7563	3110.4083	3114.3605	3119.671	3185.3377	3199.6399
CC12CC1C(C)(C)C2=O	C[C@]12C[C@H]1C(C)(C)C2=O	
InChI=1S/C8H12O/c1-7(2)5-4-8(5,3)6(7)9/h5H,4H2,1-3H3	InChI=1S/C8H12O/c1-7(2)5-4-8(5,3)6(7)9/h5H,4H2,1-3H3/t5-,8-/m0/s1
