13
gdb 42551	2.78216	1.71207	1.29083	4.0321	65.73	-0.272	-0.0389	0.2331	935.8609	0.090212	-415.568301	-415.561604	-415.56066	-415.599761	25.22	
O	 0.0224521645	 0.0709351708	 0.0644750739	-0.309913
C	-0.0011670675	 1.2622897697	 0.1159864565	 0.479125
C	-1.064646594	 2.3138413809	 0.0611729436	-0.176582
C	-0.4729454362	 3.5502664199	 0.6650690695	-0.043989
C	 0.9373200858	 3.2656236501	 1.187200344	-0.162164
C	 1.1508572374	 2.6861282119	 2.5072753791	 0.273576
N	 1.31129297	 2.2271708634	 3.5554207493	-0.310046
C	 1.0419807608	 2.3737104088	-0.0774551636	-0.152821
N	-0.1096426219	 3.2137705072	-0.7329404142	-0.149286
H	-2.1154684345	 2.2300640823	-0.182241245	 0.139156
H	-1.0944616066	 4.4049374789	 0.904967207	 0.133265
H	 1.5503680773	 4.1636410234	 1.0703218227	 0.150456
H	 1.9822256648	 2.2111557526	-0.5957708928	 0.129225
97.3411	148.0778	220.5513	369.7043	447.2887	512.0535	540.9184	634.2164	707.8399	750.8095	760.5164	825.2363	832.1462	928.4215	944.216	988.4618	1035.1807	1043.7467	1083.1154	1085.2364	1134.9653	1145.9777	1167.8378	1247.0077	1296.7743	1335.6764	1366.6889	1910.8594	2361.4418	3081.7886	3180.3227	3192.1941	3222.0805
O=C1C2C3C(C#N)C1N23	O=C1[C@H]2[C@H]3[C@@H](C#N)[C@@H]1N23	
InChI=1S/C6H4N2O/c7-1-2-3-5-6(9)4(2)8(3)5/h2-5H	InChI=1S/C6H4N2O/c7-1-2-3-5-6(9)4(2)8(3)5/h2-5H/t2-,3-,4+,5-,8?/m1/s1
