15
gdb 18564	3.83102	2.05697	1.66061	4.4706	60.66	-0.2354	0.0208	0.2561	787.0349	0.121248	-399.821742	-399.815302	-399.814358	-399.852467	24.602	
O	-0.016057862	-0.0094148678	 0.0353313424	-0.354179
C	-0.0031339057	 1.1900882355	 0.0198379312	 0.388153
N	-1.0015427923	 2.1386853771	-0.0141398631	-0.32508
C	-0.1320276544	 3.3167886065	 0.0676599041	-0.002138
C	-0.0139399304	 3.9805161918	 1.4437513384	-0.235428
C	 0.8992980282	 3.0063851059	 2.2132767526	-0.093933
O	 1.8050587135	 2.4882673588	 1.2361776514	-0.244464
C	 1.0836169698	 2.3265886577	 0.0456914424	-0.03905
H	-2.0069215702	 2.04648607	 0.0133031725	 0.249581
H	-0.2460965411	 4.01422186	-0.7644372692	 0.091044
H	 0.4747023222	 4.9538045135	 1.3335919596	 0.11565
H	-0.9792298324	 4.13402808	 1.9331125534	 0.108229
H	 1.4934344262	 3.4803156377	 2.9969677655	 0.118602
H	 0.3141814745	 2.1924271644	 2.6642788505	 0.113142
H	 1.7691169543	 2.337027429	-0.8023118718	 0.10987
94.0572	196.0754	279.4054	376.8891	410.413	500.326	619.6486	651.8609	727.1588	806.0095	837.6561	853.3116	902.8368	934.8048	972.039	990.0397	1035.6967	1096.4784	1132.3448	1152.1236	1170.5068	1203.3757	1237.6488	1272.3989	1308.9177	1332.9238	1362.9021	1374.4089	1395.4049	1476.1025	1520.2054	1896.6405	3008.5557	3056.6895	3091.7781	3107.3695	3115.541	3119.4851	3601.8353
O=C1NC2CCOC12	O=C1N[C@H]2CCO[C@@H]12	
InChI=1S/C5H7NO2/c7-5-4-3(6-5)1-2-8-4/h3-4H,1-2H2,(H,6,7)	InChI=1S/C5H7NO2/c7-5-4-3(6-5)1-2-8-4/h3-4H,1-2H2,(H,6,7)/t3-,4+/m0/s1
