21
gdb 115778	3.22517	0.82366	0.72279	2.0317	79.79	-0.2485	-0.0208	0.2277	1580.8594	0.180877	-424.216521	-424.206592	-424.205648	-424.252546	35.391	
O	-0.1082718247	 1.4977047854	-0.2648397443	-0.423411
C	 0.0301838077	 0.117301963	 0.0400390664	-0.083318
C	-1.3656019358	-0.4864022072	 0.0312986961	-0.006323
C	-1.9747804823	-0.599073056	-1.3960242664	-0.216279
C	-1.5863369756	-2.1021047712	-1.42114027	-0.230691
C	-1.4254767743	-2.0462946338	 0.124646345	 0.008847
C	-0.2916176959	-2.8320145005	 0.7926239734	-0.307291
C	-0.55960521	-4.3193920485	 0.7487648292	 0.163959
O	 0.1612777096	-5.1396149878	 0.242052921	-0.239738
H	 0.7695536719	 1.8887161187	-0.298302643	 0.286819
H	 0.6715333817	-0.3870237334	-0.7011045839	 0.085434
H	 0.4976877812	-0.0262978346	 1.0276621565	 0.084291
H	-1.9705206925	 0.0508618763	 0.7675555328	 0.07482
H	-3.0577016973	-0.452016258	-1.3937725432	 0.101083
H	-1.5376431076	 0.0525014761	-2.1549572723	 0.110188
H	-2.3134702349	-2.8104699883	-1.8250427931	 0.100869
H	-0.6289271048	-2.2749052071	-1.9221108992	 0.108204
H	-2.3734352586	-2.3274424494	 0.5988262359	 0.078914
H	 0.6767134825	-2.6431829467	 0.3206622376	 0.117562
H	-0.2238497175	-2.5417880899	 1.8517765189	 0.116793
H	-1.5206218228	-4.622266067	 1.2297800025	 0.069266
51.9305	65.2295	99.0057	136.4347	142.6944	231.1652	265.1194	295.3873	355.4182	408.6504	490.1002	543.4447	671.6552	747.9625	821.2944	853.377	891.9256	918.0148	935.3279	955.0043	994.1216	1024.5587	1069.2837	1089.8287	1114.3871	1134.8459	1161.274	1188.5346	1220.5287	1234.3539	1248.9397	1262.477	1263.604	1287.6115	1289.6326	1313.945	1365.3777	1383.9824	1428.9207	1460.1385	1461.617	1485.8391	1500.9769	1523.5049	1834.5856	2844.7175	2959.7866	2986.4636	3006.9999	3029.0037	3055.9493	3061.7303	3072.2577	3095.929	3104.5793	3125.4563	3831.0143
OCC1CCC1CC=O	OC[C@H]1CC[C@H]1CC=O	
InChI=1S/C7H12O2/c8-4-3-6-1-2-7(6)5-9/h4,6-7,9H,1-3,5H2	InChI=1S/C7H12O2/c8-4-3-6-1-2-7(6)5-9/h4,6-7,9H,1-3,5H2/t6-,7+/m0/s1
