16
gdb 53847	3.4675	0.8853	0.80884	3.1694	71.75	-0.2632	-0.0649	0.1983	1424.7961	0.122709	-434.100536	-434.090818	-434.089874	-434.136724	33.335	
C	-0.0376881273	 1.2941383012	 0.4005370196	-0.471489
C	-0.084875381	-0.0522499298	-0.2676714769	 0.386845
O	 0.831518444	-0.5172446404	-0.9119764827	-0.317265
C	-1.3629557407	-0.8710211311	-0.1030931299	 0.258558
N	-2.2989708183	-0.4045733204	 0.6320554659	-0.515205
N	-1.3044022649	-2.0364615039	-0.8194995914	-0.294699
C	-2.3197054154	-3.0525063422	-0.7781807124	-0.320934
C	-2.3425900403	-3.837162219	 0.47429898	 0.268239
N	-2.3563575008	-4.4487144754	 1.454023844	-0.290874
H	 0.9237528877	 1.7659860329	 0.1973505637	 0.138576
H	-0.85975461	 1.9198884467	 0.041449217	 0.160203
H	-0.193031896	 1.1809762485	 1.4771272218	 0.166278
H	-3.0964257216	-1.0360849005	 0.7181315335	 0.221585
H	-0.3973169122	-2.242611071	-1.2149596978	 0.271911
H	-3.3110976899	-2.6028047995	-0.917845094	 0.166323
H	-2.1683010132	-3.7409378761	-1.6142957504	 0.171947
41.7897	49.0554	78.3781	116.8196	205.5296	230.402	318.4564	361.1864	372.436	412.8115	516.5095	542.4198	570.7762	641.5212	704.0712	783.2512	862.2245	899.0019	951.504	1007.6889	1049.4489	1063.019	1186.8211	1200.8796	1284.4296	1337.3874	1378.6002	1389.4538	1451.7031	1457.3452	1458.6006	1531.5598	1711.6654	1794.8375	2360.9219	3034.0032	3057.9201	3097.3548	3122.429	3164.7131	3469.6542	3594.526
CC(=O)C(=N)NCC#N	CC(=O)C(=N)NCC#N	
InChI=1S/C5H7N3O/c1-4(9)5(7)8-3-2-6/h3H2,1H3,(H2,7,8)	InChI=1S/C5H7N3O/c1-4(9)5(7)8-3-2-6/h3H2,1H3,(H2,7,8)
