16
gdb 71151	3.01236	1.67521	1.32988	2.8128	68.38	-0.2456	-0.0312	0.2145	949.6696	0.124558	-437.857733	-437.850593	-437.849648	-437.88905	28.58	
O	-0.088519001	 1.3771394211	 0.1073077318	-0.490012
C	 0.029433717	-0.010178512	 0.0126250449	 0.375928
C	 0.2975482096	-0.665539213	-1.3700341247	-0.212648
N	-0.8800928967	-1.5876273457	-1.1976251057	-0.141158
C	-0.8529440106	-2.1842052629	 0.188986597	-0.143953
C	-1.317582162	-0.7890620321	-0.0214779912	-0.089302
C	 0.4225505854	-2.1710102203	 0.9843997536	 0.411056
O	 0.9450191609	-3.1223952586	 1.5061116352	-0.321012
C	 0.8854268121	-0.7091361065	 1.0714428639	-0.401396
H	 0.7931331414	 1.7593249522	 0.173725967	 0.28584
H	 0.0642493824	 0.0133195372	-2.192885856	 0.125574
H	 1.2609945711	-1.1583073648	-1.5436531153	 0.105968
H	-1.5272448481	-3.0260651188	 0.2869163674	 0.120699
H	-2.3218737803	-0.4075626449	 0.1172517737	 0.114347
H	 1.9653248387	-0.6210405657	 0.9162765406	 0.121381
H	 0.6411821802	-0.3252713152	 2.0698460577	 0.138689
119.7605	217.9976	283.5353	314.312	376.1084	411.7569	469.7614	528.8908	596.0027	640.3954	657.6141	770.5368	786.7976	820.7312	874.3254	909.1402	943.3035	975.5363	999.3873	1031.2639	1045.2936	1113.6529	1154.8778	1170.5586	1188.4662	1203.972	1225.954	1252.3173	1279.5073	1300.7036	1341.2234	1389.43	1453.1255	1496.5753	1837.3393	3036.9045	3039.6394	3095.1199	3118.9292	3191.3379	3202.2019	3810.191
OC12CN3C(C13)C(=O)C2	O[C@]12CN3[C@H]([C@@H]13)C(=O)C2	
InChI=1S/C6H7NO2/c8-3-1-6(9)2-7-4(3)5(6)7/h4-5,9H,1-2H2	InChI=1S/C6H7NO2/c8-3-1-6(9)2-7-4(3)5(6)7/h4-5,9H,1-2H2/t4-,5-,6+,7?/m0/s1
