21
gdb 90038	2.66446	1.47561	1.15273	3.0256	78.52	-0.2377	0.0587	0.2964	1131.1217	0.182705	-424.201583	-424.193004	-424.192059	-424.234256	34.456	
O	 0.1363546602	 1.4338496182	-0.0550939727	-0.450929
C	 0.0433708332	 0.0292733344	-0.0153110161	 0.150948
C	 0.2106060178	-0.5815587362	 1.4057364484	-0.306254
C	-1.3419654893	-0.6308803889	 1.5169807825	 0.332923
C	-2.0255409851	-1.6632761485	 2.4464493497	-0.316185
C	-2.1350903879	-0.5552317969	 3.5337236918	-0.261145
C	-1.974475643	 0.4760086699	 2.3905933175	 0.079997
O	-1.1669829383	 1.6279573326	 2.5712588754	-0.428502
C	-1.4150653544	-0.526931167	-0.0225561861	-0.332699
H	-0.2638484632	 1.7794965333	 0.7570083249	 0.28725
H	 0.7092627995	-0.3456184651	-0.7965371187	 0.073312
H	 0.6329164136	-1.5908860536	 1.3739933759	 0.094171
H	 0.7644893481	 0.0225150873	 2.1274830384	 0.111926
H	-3.0075373811	-1.9696686949	 2.0729593913	 0.103095
H	-1.4501913664	-2.5580057983	 2.6946372374	 0.102108
H	-3.0388329325	-0.5109743464	 4.146017388	 0.093343
H	-1.2560222749	-0.5422962586	 4.1833799077	 0.113604
H	-2.9559129067	 0.7575944767	 1.9822713346	 0.073399
H	-1.6881112619	 2.3174005657	 2.9940668659	 0.292312
H	-2.1801496249	 0.1283498549	-0.4503064269	 0.093064
H	-1.4770814128	-1.5115452686	-0.4979511188	 0.09426
111.8607	149.0571	206.6437	244.8933	292.5548	315.5614	381.3197	417.3812	433.9253	502.6046	531.6934	546.7609	675.4587	762.0056	813.0459	838.7855	846.7581	881.6607	914.8652	940.2904	952.2501	971.3907	994.4305	1068.6796	1099.9199	1118.3455	1135.0665	1150.7987	1184.175	1198.9332	1200.4585	1224.2621	1248.6651	1259.2683	1265.4934	1279.6425	1292.7287	1332.9399	1350.7769	1419.8439	1454.4937	1473.1355	1478.8278	1485.7283	1496.5433	2995.2311	3039.1897	3051.3494	3054.2028	3062.9186	3078.1243	3097.6618	3105.2629	3118.1783	3122.8956	3702.9391	3826.1353
OC1CC2(CCC2O)C1	O[C@H]1C[C@]2(CC[C@H]2O)C1	
InChI=1S/C7H12O2/c8-5-3-7(4-5)2-1-6(7)9/h5-6,8-9H,1-4H2	InChI=1S/C7H12O2/c8-5-3-7(4-5)2-1-6(7)9/h5-6,8-9H,1-4H2/t5-,6-,7+/m1/s1
