16
gdb 130940	6.18351	0.66904	0.63677	1.653	71.67	-0.2554	-0.0327	0.2227	1657.3975	0.123598	-437.885832	-437.877407	-437.876463	-437.921007	29.022	
O	-0.5898277193	 0.6674690492	 0.7544235542	-0.229311
C	 0.0396256725	 0.9944264902	-0.217092233	 0.158655
C	 1.3315702415	 1.7805573927	-0.1897576045	-0.264469
C	 1.2364672436	 3.0647908431	-1.0459748617	-0.352892
C	 2.5352216693	 3.8063324711	-1.1351538904	 0.156429
C	 2.9012352842	 4.9717167667	-0.536935523	-0.007393
O	 4.160227416	 5.3034492024	-0.8571593721	-0.159955
N	 4.6787680829	 4.3322141457	-1.7052774959	-0.126946
C	 3.7155237347	 3.4594974281	-1.8592886471	-0.037819
H	-0.3113563372	 0.7291644772	-1.2432441184	 0.072329
H	 1.5872667755	 2.0120953448	 0.8473083453	 0.131382
H	 2.1217389551	 1.135530568	-0.5991833327	 0.126123
H	 0.8922044643	 2.7993321918	-2.0536435346	 0.122188
H	 0.4701497769	 3.7225585125	-0.6226615058	 0.126319
H	 2.3858237964	 5.6567590559	 0.1189239871	 0.154119
H	 3.8874580737	 2.6000938107	-2.4933522473	 0.131243
42.1445	60.5901	70.7523	119.0755	278.0537	309.6578	357.6506	514.6347	619.9176	660.0307	718.6987	765.5928	848.4751	852.4832	904.7453	911.1356	937.8915	986.5704	1024.0417	1067.1904	1086.8143	1152.948	1184.3182	1211.3564	1266.1188	1284.4264	1306.8351	1369.7442	1403.6169	1429.4053	1462.7437	1477.5635	1495.1499	1652.0759	1839.8307	2846.1638	3020.893	3028.8842	3075.2738	3111.9073	3235.4507	3262.2695
O=CCCC1=CON=C1	O=CCCc1conc1	
InChI=1S/C6H7NO2/c8-3-1-2-6-4-7-9-5-6/h3-5H,1-2H2	InChI=1S/C6H7NO2/c8-3-1-2-6-4-7-9-5-6/h3-5H,1-2H2
