20
gdb 116619	2.41873	1.08284	0.80646	1.2327	79.78	-0.2435	0.0182	0.2617	1482.2914	0.169293	-440.266464	-440.25649	-440.255546	-440.302665	34.659	
C	 0.2498779546	-0.00621527	-0.8309356295	-0.362151
C	 0.0094886509	 0.5464033052	 0.573888211	-0.14881
N	 0.7447800095	-0.2435649115	 1.5607729652	-0.337986
C	 0.1659147002	-0.6280782299	 2.5996199306	 0.444321
O	-1.1303511045	-0.4168648743	 3.0499119654	-0.267905
C	-0.9241737012	-1.3027409852	 4.1928283605	-0.11018
C	 0.5497303078	-1.4985986128	 3.7949836993	-0.027462
O	 0.8881075125	-2.8292051751	 3.5454105863	-0.239705
C	 2.2130094878	-2.9834928538	 3.0586209621	-0.248628
H	-0.1376445731	-1.0258973846	-0.9187853353	 0.119132
H	-0.250284576	 0.615560536	-1.5801720822	 0.108931
H	 1.3199712013	-0.0314741962	-1.0558365247	 0.122869
H	 0.3859984654	 1.5761574532	 0.6274397373	 0.109501
H	-1.0658805074	 0.5848069063	 0.7911060142	 0.111912
H	-1.1250610821	-0.7870802527	 5.1339382777	 0.121317
H	-1.5208437671	-2.2132035707	 4.1047245198	 0.132065
H	 1.2753340509	-1.0152022796	 4.4663392079	 0.092153
H	 2.9490721415	-2.6201959487	 3.7922145722	 0.106276
H	 2.366999991	-4.0526662457	 2.8989968474	 0.128758
H	 2.3579377679	-2.44359506	 2.1158874547	 0.145593
36.9668	75.8435	109.9398	133.5925	174.174	190.285	248.0303	266.1209	332.0054	377.613	451.809	547.3896	691.1677	749.8377	804.2748	835.4399	911.9928	947.5889	968.4419	1035.9646	1070.4265	1088.4895	1107.0325	1126.5179	1156.5642	1166.5738	1180.5058	1186.1849	1243.6344	1257.9528	1302.061	1328.2733	1382.1561	1390.0684	1407.4435	1480.156	1485.2914	1488.4898	1491.8786	1507.2659	1509.179	1513.9501	1837.2415	2987.5231	2995.2841	3011.645	3038.9962	3047.24	3068.8893	3071.3621	3110.6507	3118.2193	3129.157	3136.3226
CCN=C1OCC1OC	CCN=C1OC[C@H]1OC	
InChI=1S/C6H11NO2/c1-3-7-6-5(8-2)4-9-6/h5H,3-4H2,1-2H3	InChI=1S/C6H11NO2/c1-3-7-6-5(8-2)4-9-6/h5H,3-4H2,1-2H3/t5-/m1/s1
