19
gdb 72814	2.68582	1.59042	1.26055	4.4647	74.26	-0.2585	0.0115	0.2699	1055.6339	0.160415	-423.069169	-423.0612	-423.060255	-423.101628	30.828	
C	-0.3068440693	 1.4931996456	 0.1231273324	-0.482098
C	 0.0631657543	 0.0249771346	-0.0144253047	 0.324137
C	-1.1071065955	-0.9767380128	 0.2670701702	-0.278361
C	-0.4291495542	-1.3823397083	 1.6056160978	-0.221872
C	 0.8560204607	-0.6425119476	 1.1428689745	-0.21746
C	 1.8380100332	-1.5661083756	 0.4362599351	 0.435883
O	 2.5688507172	-2.3779108832	 0.9252873678	-0.344938
O	 1.768366407	-1.3777152102	-0.9139585851	-0.226093
C	 0.9027449871	-0.2844705406	-1.2592704166	-0.140357
H	 0.5846112384	 2.1298307164	 0.1412423465	 0.121411
H	-0.9357911397	 1.8192219863	-0.7136843856	 0.122858
H	-0.8683051666	 1.6750643185	 1.0451770094	 0.123487
H	-2.1013950737	-0.5303724367	 0.3403549307	 0.104637
H	-1.1483638508	-1.7953841914	-0.4567023746	 0.113516
H	-0.883303968	-0.8985639852	 2.4730344138	 0.111361
H	-0.3219816495	-2.4478491991	 1.8171625019	 0.124375
H	 1.3799853398	-0.02635993	 1.8765337762	 0.09972
H	 0.3013429917	-0.5912332022	-2.1203422742	 0.119942
H	 1.5266497379	 0.5682714715	-1.5549610256	 0.10985
86.183	155.4511	215.3878	239.1216	277.7601	324.1607	364.19	498.4542	550.693	614.3653	692.903	729.366	745.9738	812.9862	869.8116	899.4839	947.6392	955.5144	964.1659	992.7091	1017.0677	1064.581	1081.3067	1152.9652	1165.7868	1182.7689	1211.2231	1233.0001	1246.32	1262.7103	1280.3051	1288.896	1320.1815	1402.4104	1418.3592	1479.8702	1494.7213	1496.5404	1498.3205	1517.6872	1875.794	3022.4441	3027.4252	3059.4813	3072.185	3083.6584	3089.5989	3093.2977	3099.7418	3109.3603	3129.6194
CC12CCC1C(=O)OC2	C[C@]12CC[C@H]1C(=O)OC2	
InChI=1S/C7H10O2/c1-7-3-2-5(7)6(8)9-4-7/h5H,2-4H2,1H3	InChI=1S/C7H10O2/c1-7-3-2-5(7)6(8)9-4-7/h5H,2-4H2,1H3/t5-,7+/m0/s1
