23
gdb 104204	2.4957	1.25318	1.18047	1.251	85.45	-0.2603	0.0743	0.3346	1223.5938	0.204574	-388.264881	-388.255118	-388.254173	-388.299	37.688	
C	-0.4566999577	 1.5187752235	 0.2696582099	-0.46469
C	-0.0544267925	 0.0645639974	 0.0530004316	 0.264935
C	-1.2435919883	-0.7690769229	-0.4229205624	-0.115334
O	-1.6822618084	-0.2560649932	-1.6748111864	-0.4269
C	 1.2056146132	-0.1837728226	-0.8397852379	-0.250398
C	 1.7709164705	-1.162174167	 0.2294883916	-0.307939
C	 0.698510166	-0.6541673781	 1.2012692973	 0.341266
C	 0.9724624247	-0.0969914877	 2.5678512993	-0.326489
C	 0.1397859072	-1.3488534961	 2.4102037114	-0.334366
H	 0.4003764367	 2.1209663759	 0.5856302047	 0.107891
H	-0.8595214481	 1.9431006502	-0.6541129532	 0.133052
H	-1.2326535463	 1.6073719507	 1.0404980119	 0.102604
H	-0.9436358161	-1.8248013798	-0.5132040838	 0.082024
H	-2.0497301769	-0.7212801743	 0.3275439561	 0.07947
H	-2.4287035852	-0.7838553517	-1.9719319486	 0.286432
H	 1.005826581	-0.5882725732	-1.8336958732	 0.105503
H	 1.8153766592	 0.7169663285	-0.945993754	 0.095903
H	 1.6448225117	-2.2151691498	-0.0421391911	 0.097556
H	 2.8112141933	-1.0093158722	 0.5298969983	 0.095556
H	 1.9790682139	-0.1964645886	 2.9626094025	 0.107408
H	 0.4657356609	 0.8144965082	 2.8685080635	 0.111163
H	-0.9249870668	-1.2750052019	 2.6091068368	 0.107499
H	 0.5782538881	-2.2994989155	 2.6984045756	 0.107856
75.3238	122.9117	163.2943	216.23	243.0925	252.1115	265.83	299.6033	348.8938	366.8527	449.8561	481.5312	561.0081	689.2212	744.731	781.5717	858.0768	884.2797	891.1867	912.2675	941.5555	956.0183	969.3088	990.9096	1014.0689	1050.9626	1067.9728	1076.0545	1131.775	1135.4723	1188.7552	1191.8353	1203.4102	1221.459	1247.1651	1250.6715	1275.044	1285.0476	1328.742	1368.6839	1400.8679	1452.2946	1464.0269	1480.2714	1490.6914	1495.8693	1496.9655	1506.8468	1517.4374	2961.1213	2994.2061	3024.0038	3043.3993	3065.4237	3089.2989	3089.9575	3117.5162	3118.3151	3123.1458	3123.8313	3194.804	3210.601	3833.8205
CC1(CO)CCC11CC1	C[C@@]1(CO)CCC21CC2	
InChI=1S/C8H14O/c1-7(6-9)2-3-8(7)4-5-8/h9H,2-6H2,1H3	InChI=1S/C8H14O/c1-7(6-9)2-3-8(7)4-5-8/h9H,2-6H2,1H3/t7-/m0/s1
