18
gdb 74890	2.76094	1.57601	1.1217	4.1255	79.69	-0.2369	-0.0473	0.1896	1099.8652	0.148829	-401.965443	-401.957452	-401.956507	-401.998028	30.729	
C	-0.0013605696	 1.4859735271	-0.1661722509	-0.474555
C	-0.0100940777	-0.0085189541	-0.0125438635	 0.19876
C	-1.1278008278	-0.752808014	-0.0412315272	-0.109646
C	-1.1202116148	-2.2295189158	 0.0130490202	-0.087743
N	-0.3009636008	-2.9199942141	-1.0270990188	-0.32891
C	 0.1472273532	-2.9285719126	 0.3682818685	-0.041116
C	 1.3636054119	-2.0941709617	 0.6829850162	-0.326536
C	 1.3190277753	-0.6588030459	 0.1544216055	 0.322371
O	 2.3489792376	-0.0453302352	-0.043835963	-0.324369
H	 0.5986613119	 1.7752808669	-1.0346526136	 0.14818
H	-1.0141957398	 1.8781530662	-0.2871431634	 0.112915
H	 0.4640633239	 1.9688541426	 0.6997439922	 0.134305
H	-2.0952115029	-0.265902319	-0.1450233176	 0.097778
H	-2.0584881256	-2.7012736844	 0.2899843456	 0.089714
H	-0.7326658894	-3.8125131762	-1.2569351592	 0.234474
H	 0.0622914582	-3.8614667017	 0.9217092866	 0.090889
H	 1.4748502635	-2.0154569564	 1.7736132122	 0.127974
H	 2.2795980729	-2.5604219318	 0.3084451603	 0.135515
80.5104	138.2419	171.0223	294.1679	316.8188	344.436	407.9665	436.5731	527.4454	591.3027	639.7104	687.2058	763.1363	789.8664	819.1703	887.2564	906.6216	964.146	987.7162	998.7226	1039.9454	1070.1228	1093.9374	1127.2032	1163.829	1175.7386	1218.1489	1251.0348	1271.8824	1343.3222	1379.4381	1402.6324	1414.1633	1445.4545	1461.7827	1470.7558	1486.3242	1701.5858	1767.4555	3023.7027	3039.5776	3091.1336	3096.6036	3123.5441	3124.5525	3143.0375	3157.3887	3491.8927
CC1=CC2NC2CC1=O	CC1=C[C@H]2N[C@H]2CC1=O	
InChI=1S/C7H9NO/c1-4-2-5-6(8-5)3-7(4)9/h2,5-6,8H,3H2,1H3	InChI=1S/C7H9NO/c1-4-2-5-6(8-5)3-7(4)9/h2,5-6,8H,3H2,1H3/t5-,6+/m1/s1
