15
gdb 97620	2.96507	0.70104	0.59778	2.385	72.83	-0.2564	-0.0504	0.2059	1772.6744	0.107949	-457.731466	-457.721176	-457.720232	-457.769841	33.31	
O	 0.4523622039	 0.8787731701	-0.6364503535	-0.395717
C	-0.0061097511	 0.0734915928	 0.4365102505	-0.195963
C	-1.4042759907	-0.340373638	 0.3008577871	 0.071387
C	-2.5477072247	-0.6803140991	 0.1264071851	 0.019194
C	-3.9265187676	-1.1231079373	-0.0207274948	-0.322846
C	-4.0006703416	-2.6347643787	-0.2927297082	 0.183338
O	-4.5340098457	-3.1049613845	-1.2572826802	-0.232067
C	-4.733424748	-0.771299997	 1.24279431	 0.158639
O	-5.4499869261	-1.5528971784	 1.804292448	-0.222426
H	 0.3067385034	 0.3897350277	-1.4532577251	 0.291843
H	 0.6208551092	-0.8221917217	 0.5711297411	 0.127152
H	 0.115615868	 0.6810022251	 1.3399691401	 0.148749
H	-4.4090279568	-0.6107211883	-0.8653784318	 0.152547
H	-3.5014126702	-3.2557398091	 0.4781578259	 0.105447
H	-4.5923912221	 0.2718812864	 1.5939453358	 0.110723
15.3868	51.1471	68.2481	99.3414	124.1025	197.2836	220.4248	257.8144	335.6601	408.4971	451.6004	491.3687	565.144	616.7247	775.2037	841.5435	978.672	1001.4756	1045.124	1056.6292	1071.2267	1158.1882	1213.5721	1223.9727	1261.0947	1363.2843	1401.5128	1416.0105	1419.7318	1486.4677	1825.7842	1850.2931	2350.7369	2922.7824	2932.5507	2981.9332	3020.8981	3067.4655	3815.3087
OCC#CC(C=O)C=O	OCC#CC(C=O)C=O	
InChI=1S/C6H6O3/c7-3-1-2-6(4-8)5-9/h4-7H,3H2	InChI=1S/C6H6O3/c7-3-1-2-6(4-8)5-9/h4-7H,3H2
