18
gdb 73857	2.76338	1.39674	0.95868	4.9	76.64	-0.2157	0.0087	0.2245	1215.9285	0.14761	-439.150928	-439.141882	-439.140938	-439.184834	32.884	
C	 0.1266660009	 1.5738059717	 0.1915364918	-0.494844
C	-0.0114634559	 0.0866032549	 0.0604150664	 0.161221
C	-1.1443592394	-0.6095598982	-0.0899096161	 0.279314
C	-2.5489014156	-0.0917515462	-0.1715174811	-0.502535
N	-1.047539933	-2.0136162677	-0.185302042	-0.428108
C	 0.0068712144	-2.7521510564	 0.3210573513	 0.4593
O	-0.0482767625	-3.9392695603	 0.5123602677	-0.385183
O	 1.1098028712	-2.0345403162	 0.6221458404	-0.236435
C	 1.262318526	-0.717571396	 0.0611061836	-0.160713
H	 0.7890440224	 1.9799084664	-0.5849784051	 0.128212
H	-0.8281801307	 2.0958573419	 0.1095726285	 0.126733
H	 0.5739114843	 1.8477357445	 1.1561690043	 0.131095
H	-3.0279550399	-0.4282391681	-1.0994959908	 0.137627
H	-3.1547881068	-0.4685655913	 0.6616400663	 0.14006
H	-2.5855000146	 0.9967481743	-0.153182958	 0.140883
H	-1.8928589206	-2.5529955798	-0.28607201	 0.259235
H	 1.6687780332	-0.8221770224	-0.9578051646	 0.117663
H	 2.0333829766	-0.2404992812	 0.6726588874	 0.126475
81.9668	133.8406	142.1184	153.0809	189.8627	294.8683	318.8649	331.93	457.3748	480.5274	549.176	564.39	583.4899	729.2552	764.8636	773.0938	887.7969	964.7832	981.108	1020.1855	1061.7961	1076.8498	1094.8518	1167.5143	1219.6037	1252.9897	1271.8857	1292.7011	1407.6908	1422.9997	1437.2606	1468.6109	1476.136	1481.0048	1490.2392	1499.5339	1504.8615	1770.1688	1853.7254	2974.1813	3010.9387	3025.2288	3050.0406	3071.8666	3082.7445	3126.2485	3155.7098	3643.3976
CC1=C(C)NC(=O)OC1	CC1=C(C)NC(=O)OC1	
InChI=1S/C6H9NO2/c1-4-3-9-6(8)7-5(4)2/h3H2,1-2H3,(H,7,8)	InChI=1S/C6H9NO2/c1-4-3-9-6(8)7-5(4)2/h3H2,1-2H3,(H,7,8)
