19
gdb 34674	4.98879	1.07409	1.07133	1.1733	86.78	-0.2397	0.049	0.2887	1188.6058	0.161149	-348.680855	-348.673686	-348.672741	-348.712154	30.129	
C	 0.0691929214	-1.1735480435	 0.031673125	-0.409373
C	 0.0120186201	 0.0281678475	 0.0098710866	 0.26809
C	-0.049941175	 1.4620108005	-0.0118104442	-0.257715
C	 0.4169873081	 2.2063686506	 1.2360742827	-0.033456
C	 1.2721348191	 2.2245177368	-0.0082211578	-0.033456
C	 1.2907134515	 3.7374823744	-0.3044504233	-0.052201
C	 1.5689622712	 4.2862042373	 1.1419692935	-0.207708
C	 0.1265461043	 3.7127776749	 1.3894942762	-0.0522
C	-0.1696095458	 4.2025286936	-0.0540877315	-0.228459
H	 0.1136307687	-2.2339793913	 0.0467021734	 0.187974
H	-0.8853594857	 1.8544558863	-0.5802324987	 0.110995
H	 0.6753136497	 1.622295666	 2.1107922688	 0.100006
H	 2.1891803368	 1.6544175545	-0.0919875566	 0.100005
H	 1.857580147	 4.072211378	-1.1730390914	 0.064616
H	 2.3942268112	 3.8386516498	 1.7026073241	 0.092026
H	 1.6161977853	 5.377482763	 1.1903480782	 0.093756
H	-0.4855589437	 4.0224895456	 2.2363909766	 0.064616
H	-0.248613896	 5.2906595599	-0.0925133071	 0.09511
H	-0.9915328982	 3.7691381559	-0.6252794644	 0.097373
135.4737	143.8516	326.0367	339.9616	451.3484	477.9765	509.6384	575.2401	582.9709	640.2141	663.0361	796.2455	811.9312	837.8635	838.7239	874.0794	915.1148	915.5405	963.262	966.0812	994.4249	1028.4481	1031.6168	1050.1153	1072.5974	1090.1632	1104.1016	1109.8544	1122.3014	1186.4563	1217.6059	1237.2114	1237.8299	1265.2056	1276.1132	1311.029	1314.5077	1403.9892	1493.1324	1537.1061	2235.2133	3052.9442	3077.3397	3114.496	3114.7104	3119.0333	3124.6643	3165.0872	3184.4925	3193.7895	3505.9326
C#CC1C2C1C1CC2C1	C#C[C@H]1[C@H]2[C@@H]1[C@@H]1C[C@H]2C1	
InChI=1S/C9H10/c1-2-7-8-5-3-6(4-5)9(7)8/h1,5-9H,3-4H2	InChI=1S/C9H10/c1-2-7-8-5-3-6(4-5)9(7)8/h1,5-9H,3-4H2/t5-,6+,7-,8-,9+
