16
gdb 107611	2.78474	1.62464	1.15856	5.2734	64.92	-0.2517	-0.0014	0.2503	1034.23	0.125356	-475.038146	-475.030362	-475.029418	-475.070438	29.497	
O	-0.0044990633	 1.3779141981	 0.2974998441	-0.420227
C	 0.0643296568	-0.0036811575	 0.0255153764	-0.16208
C	-1.3085961226	-0.6073374593	-0.0999332516	 0.271091
O	-2.0162870309	-1.0214024296	 1.0892104312	-0.278093
C	-1.7460925803	-1.9970795081	 0.0862741746	-0.050203
C	-2.9401429326	-2.2594634049	-0.8219295146	-0.193408
N	-3.1771913263	-0.9534310819	-1.4239381634	-0.331956
C	-2.275458638	 0.0132579905	-1.0959240911	 0.418805
O	-2.2298451039	 1.1522155066	-1.526428107	-0.401022
H	-0.609773753	 1.7542551359	-0.3599101557	 0.302301
H	 0.6249218359	-0.2142569364	-0.9015637276	 0.093409
H	 0.5967326322	-0.4807371067	 0.8543977658	 0.117421
H	-1.0815729225	-2.8090382048	 0.365757113	 0.115025
H	-2.6959097422	-3.0148333411	-1.5793972713	 0.122776
H	-3.8073100188	-2.6078229455	-0.2492891029	 0.134773
H	-3.9893693707	-0.7373067752	-1.97973932	 0.261387
112.4358	143.0691	192.7029	266.0519	275.1664	365.9821	452.4001	492.3622	506.6641	562.8818	638.6526	719.4922	732.2814	793.2094	821.0408	911.1321	962.1422	1009.9237	1028.3907	1052.5328	1078.1993	1106.9675	1161.1278	1225.7676	1248.4772	1273.9646	1324.1545	1352.841	1380.1092	1441.8239	1459.8595	1481.5648	1491.5752	1511.4584	1803.6926	2958.5271	3024.6024	3066.6613	3079.9068	3166.7119	3643.4178	3705.0127
OCC12OC1CNC2=O	OC[C@]12O[C@H]1CNC2=O	
InChI=1S/C5H7NO3/c7-2-5-3(9-5)1-6-4(5)8/h3,7H,1-2H2,(H,6,8)	InChI=1S/C5H7NO3/c7-2-5-3(9-5)1-6-4(5)8/h3,7H,1-2H2,(H,6,8)/t3-,5-/m0/s1
