17
gdb 71325	3.88001	1.52743	1.35761	3.1853	73.88	-0.2321	-0.0087	0.2234	972.6288	0.136551	-417.941681	-417.934473	-417.933529	-417.973012	28.704	
C	-0.0450957835	 1.4711354661	-0.1370203015	-0.491202
C	 0.0195463798	-0.0125661593	 0.0853803044	 0.42584
C	-1.2444427569	-0.8527936156	 0.3957922077	-0.225822
N	-0.4244399028	-1.8221263551	 1.2295623668	-0.202101
C	 0.7270884133	-0.8153786772	 1.2087027895	-0.103186
C	 1.3921982789	-1.6107817181	 0.0604232455	 0.015841
O	 0.8289658156	-0.6892959852	-0.9188746715	-0.336692
C	 0.3554251526	-2.6843705077	 0.3423232406	 0.395777
N	 0.218719409	-3.8796815765	-0.01630895	-0.53388
H	 0.9589728178	 1.9030791377	-0.1651840487	 0.133531
H	-0.5331961737	 1.6845214136	-1.0943128414	 0.138686
H	-0.6185438119	 1.9589475488	 0.6570320513	 0.124599
H	-1.9572908125	-0.3306766008	 1.0417194954	 0.115616
H	-1.7664500558	-1.3045835856	-0.4515806867	 0.12549
H	 1.1618147181	-0.4721486717	 2.1438131468	 0.094689
H	 2.4436161612	-1.8323924002	-0.122768684	 0.096558
H	-0.6372773891	-4.2773034632	 0.3814723859	 0.226257
132.8501	201.5679	223.8912	274.8101	369.2186	417.2731	439.373	555.4552	682.3392	687.629	767.1708	801.0233	843.3496	857.9248	860.2296	911.3476	919.8017	954.0242	974.1175	983.8064	1002.7306	1018.3509	1147.0029	1150.8967	1166.4072	1185.8596	1201.097	1226.5432	1251.8751	1278.7734	1294.2594	1353.6562	1414.0222	1479.8969	1482.2705	1490.441	1803.546	3037.6541	3048.1623	3107.6095	3114.5586	3116.8661	3121.0373	3153.2008	3435.0953
CC12CN3C1C(O2)C3=N	C[C@]12CN3[C@H]1[C@H](O2)[C]3[NH]	
InChI=1S/C6H8N2O/c1-6-2-8-4(6)3(9-6)5(8)7/h3-4,7H,2H2,1H3	InChI=1S/C6H8N2O/c1-6-2-8-4(6)3(9-6)5(8)7/h3-4,7H,2H2,1H3/t3-,4-,6-/m0/s1
