19
gdb 79395	2.18744	1.72922	1.56397	2.2528	75.33	-0.2245	0.0727	0.2972	1001.5329	0.156872	-422.945274	-422.936596	-422.935651	-422.977848	33.705	
C	 0.0606366286	 1.4620444868	-0.134839014	-0.530772
C	 0.0241917969	-0.0270918735	-0.0300798541	 0.438105
O	 0.5609641866	-0.8371950357	-1.1298127588	-0.364136
C	 0.0991508549	-1.8100675706	-0.1500416988	 0.02633
C	 0.5555480639	-0.9887494147	 1.0881614814	-0.193881
C	-0.8428301531	-1.0999686189	 1.7292985793	 0.042495
O	-1.3258583479	-0.004396013	 2.4807336662	-0.439686
C	-1.1863374192	-1.0090352461	 0.2357537252	 0.252934
C	-2.5192022406	-1.0135774808	-0.4517831516	-0.535619
H	 1.091232652	 1.8152192528	-0.2418522362	 0.129111
H	-0.5101910671	 1.8003204627	-1.0055919752	 0.129751
H	-0.3757660685	 1.897539112	 0.7671813233	 0.144444
H	 0.2200422994	-2.8705818181	-0.3675097398	 0.089426
H	 1.5467618156	-0.9831652201	 1.5422797272	 0.076139
H	-1.0740926834	-2.0562849681	 2.2195105498	 0.064816
H	-0.9581918639	-0.0589429618	 3.3682401476	 0.285448
H	-3.1436880117	-0.1867182169	-0.0983443053	 0.132541
H	-2.3840707859	-0.9082659329	-1.5332587986	 0.13319
H	-3.0616703165	-1.9467610933	-0.2644640476	 0.119363
169.409	181.3202	195.3906	203.614	218.3283	273.0677	296.0214	337.2251	408.4951	540.8507	569.2658	655.5975	686.1001	742.1168	788.2962	792.113	840.0896	882.2285	916.0579	941.9104	960.2322	1037.5976	1088.5752	1099.5736	1116.4581	1130.5606	1144.7791	1160.5059	1199.1127	1239.3762	1256.9389	1288.8589	1339.705	1366.2463	1400.7868	1415.3568	1447.1309	1482.0372	1486.7636	1490.1432	1493.8738	3000.9922	3030.5344	3039.7655	3096.2256	3105.9192	3106.1903	3113.7216	3128.8364	3134.5449	3820.1026
CC12OC3C1C(O)C23C	C[C@@]12O[C@H]3[C@@H]1[C@@H](O)[C@@]23C	
InChI=1S/C7H10O2/c1-6-4(8)3-5(6)9-7(3,6)2/h3-5,8H,1-2H3	InChI=1S/C7H10O2/c1-6-4(8)3-5(6)9-7(3,6)2/h3-5,8H,1-2H3/t3-,4+,5-,6+,7+/m0/s1
