19
gdb 55404	2.52876	1.39242	1.02671	2.5087	76.64	-0.2458	-0.0326	0.2132	1203.2584	0.158395	-423.089559	-423.080671	-423.079727	-423.123723	32.821	
C	-0.1611622163	 1.5051196419	-0.0764740308	-0.487444
C	 0.0149900868	 0.0147244065	 0.0937891659	 0.37861
O	 0.1054591383	-0.521493787	 1.1734699515	-0.296
C	 0.0395302862	-0.8055991593	-1.2035340012	-0.199012
C	 0.5506803198	-2.2442822222	-1.0561324925	-0.234341
C	-0.2663584914	-3.0748119401	-2.0692464921	-0.226209
C	-1.6584926185	-2.4312513857	-2.0386008081	-0.302849
C	-1.3956869875	-0.9494959215	-1.7858090836	 0.392305
O	-2.1539137889	-0.0408157796	-2.0055059854	-0.312021
H	 0.7113209403	 1.9241484613	-0.5919264456	 0.135988
H	-1.031213717	 1.6942190547	-0.7143440107	 0.172851
H	-0.277139603	 1.985133321	 0.8957880867	 0.137962
H	 0.6006991705	-0.2378752096	-1.9571385566	 0.111306
H	 1.6280107218	-2.3251568854	-1.2177484617	 0.106275
H	 0.348741626	-2.5732217825	-0.0321403534	 0.134299
H	 0.1634976047	-2.9817311243	-3.073426101	 0.106896
H	-0.2819104958	-4.1383861371	-1.8203506051	 0.110042
H	-2.2713252119	-2.5718680525	-2.9313192186	 0.130125
H	-2.2394802839	-2.8004217386	-1.1816637676	 0.141218
62.5703	72.4692	170.2967	185.6221	191.0065	277.9935	349.5046	439.6915	482.2759	558.1437	572.1787	591.3549	642.1993	714.148	830.8029	865.1908	893.5802	918.5478	961.1358	977.4194	1006.2453	1027.6838	1099.9197	1127.7783	1150.8123	1176.0892	1193.0864	1215.1681	1257.7468	1299.3664	1316.2699	1338.3136	1351.525	1384.1163	1448.8692	1468.3108	1476.6338	1497.0802	1508.5562	1806.533	1835.9393	3025.2238	3030.8559	3036.2848	3042.2694	3064.7143	3100.4982	3100.8357	3112.8182	3116.2283	3155.5383
CC(=O)C1CCCC1=O	CC(=O)[C@H]1CCCC1=O	
InChI=1S/C7H10O2/c1-5(8)6-3-2-4-7(6)9/h6H,2-4H2,1H3	InChI=1S/C7H10O2/c1-5(8)6-3-2-4-7(6)9/h6H,2-4H2,1H3/t6-/m1/s1
