18
gdb 8500	3.89642	2.02152	1.59598	1.7982	72.17	-0.2277	0.0856	0.3132	863.0188	0.152508	-347.724848	-347.71746	-347.716516	-347.755818	29.179	
C	-0.0040790881	 1.477192438	-0.0185549141	-0.524096
C	 0.0407897193	-0.0215623417	-0.0882983669	 0.307807
C	 0.5591958164	-0.9633817254	-1.2012902333	-0.362438
C	 0.0731879773	-1.9607296611	-0.1225813586	 0.307804
C	 0.0783960352	-3.4616750336	-0.1058827658	-0.524096
C	 0.5115778134	-1.0037082702	 1.0352804339	 0.011078
O	-0.7787444451	-1.0373423256	 1.7182381169	-0.333899
C	-1.103720308	-1.0176223512	 0.2946714835	 0.011095
H	 0.9996705633	 1.9095190105	-0.0931370106	 0.120027
H	-0.6082365863	 1.8957171073	-0.8308425806	 0.120026
H	-0.4434581917	 1.7936297193	 0.933215768	 0.134763
H	 0.0048660015	-0.9559341221	-2.1456206776	 0.092826
H	 1.6362725614	-0.9419282361	-1.3976132964	 0.092825
H	 1.0958409842	-3.8573890332	-0.1964053733	 0.120025
H	-0.3484634846	-3.8260290125	 0.8343784089	 0.134763
H	-0.5130061437	-3.8711367582	-0.932060049	 0.120028
H	 1.4224058982	-0.9990984674	 1.6360228175	 0.085732
H	-2.1532585727	-1.029901207	-0.0033874025	 0.085732
201.4087	212.0842	228.0398	233.8688	259.4747	366.1607	401.1128	544.7765	584.4817	712.3422	722.7761	772.9089	828.7608	830.9801	875.1593	889.4209	931.5141	999.1138	1017.08	1047.7684	1064.2032	1090.91	1137.8764	1155.2563	1162.2038	1164.6944	1184.3355	1236.9841	1286.1271	1322.5325	1384.6469	1405.5942	1417.8695	1489.7972	1490.2158	1491.154	1492.2047	1517.7387	3028.3966	3028.5095	3035.9723	3088.6404	3093.1568	3093.3295	3103.0782	3103.316	3103.7758	3111.5317
CC12CC3(C)C1OC23	C[C@@]12C[C@@]3(C)[C@@H]1O[C@@H]23	
InChI=1S/C7H10O/c1-6-3-7(2)4(6)8-5(6)7/h4-5H,3H2,1-2H3	InChI=1S/C7H10O/c1-6-3-7(2)4(6)8-5(6)7/h4-5H,3H2,1-2H3/t4-,5+,6-,7+
