13
gdb 128264	4.05144	1.21411	0.93971	6.5146	67.21	-0.2688	-0.1022	0.1666	1159.1824	0.088665	-486.048449	-486.040413	-486.039468	-486.081989	27.851	
C	 0.0068144611	 1.4791741776	 0.0554342862	-0.338583
N	-0.104376064	 0.0343604596	 0.1657509121	-0.331727
C	-1.2070733887	-0.7137739575	 0.0384580189	 0.517906
N	-1.1288101164	-2.0096862587	 0.1693154019	-0.408251
C	-2.2739370505	-2.7281513355	 0.0317289902	 0.465128
O	-2.4189157786	-3.9078899099	 0.112582472	-0.324049
O	-3.4704632284	-1.9738512836	-0.2478492025	-0.236087
N	-3.4564891641	-0.6062731267	-0.3688780771	 0.089518
N	-2.3858596453	 0.0130519976	-0.2355601527	-0.193232
H	 0.6934872162	 1.7473787594	-0.7538285871	 0.147572
H	-0.9746453927	 1.8977037612	-0.1567677999	 0.18802
H	 0.3832107551	 1.9046025366	 0.9912280746	 0.147571
H	 0.7284025462	-0.50336764	 0.3615537735	 0.276215
70.5403	94.1632	114.658	172.1699	233.3771	418.0965	432.7072	486.2992	566.1532	615.5349	643.7709	705.325	758.1467	777.0115	804.6788	907.4275	1016.9985	1074.1636	1140.4074	1155.3142	1242.3927	1418.8338	1467.6501	1475.7388	1495.6083	1514.8712	1587.9961	1691.0949	1907.1442	3041.507	3096.9593	3182.315	3610.5215
CNC1=NC(=O)ON=N1	CNc1nc(=O)onn1	
InChI=1S/C3H4N4O2/c1-4-2-5-3(8)9-7-6-2/h1H3,(H,4,5,8)	InChI=1S/C3H4N4O2/c1-4-2-5-3(8)9-7-6-2/h1H3,(H,4,5,8)
