13
gdb 21959	7.06973	1.0637	0.98647	2.3369	55.71	-0.2871	-0.0734	0.2136	1108.8661	0.094864	-431.857319	-431.84997	-431.849026	-431.890141	25.142	
O	 0.1091911907	 1.4172085053	-0.0047950731	-0.407041
C	 0.0783471611	 0.0063493536	 0.0264925046	-0.068679
C	-1.3583253808	-0.5372246636	-0.1303314842	-0.309666
C	-1.4033074468	-2.0234794444	-0.102487515	 0.402923
N	-1.6249235832	-2.7986440789	-1.1265421493	-0.143662
O	-1.5446923297	-4.0558842758	-0.6326796281	-0.13581
N	-1.2646657335	-3.9878479099	 0.728327237	 0.049909
N	-1.1794372814	-2.7749383352	 1.043130143	-0.203037
H	-0.2590798634	 1.7467417273	 0.8211620329	 0.289113
H	 0.6879123094	-0.3324246771	-0.8170155559	 0.132111
H	 0.528790502	-0.3980714778	 0.9441369918	 0.116373
H	-1.9782845182	-0.1533333054	 0.6882423459	 0.128546
H	-1.7809421662	-0.179813398	-1.0716437796	 0.14892
50.4478	94.9926	121.8121	303.0907	338.4599	357.9271	383.9215	674.7427	697.8687	728.295	779.2559	809.3985	956.3981	1013.2281	1031.4915	1063.7207	1078.3313	1105.095	1159.9304	1292.2753	1297.8028	1333.4975	1403.2371	1415.4717	1468.3474	1487.961	1511.1175	1596.3494	3007.6927	3047.1507	3086.3192	3125.4187	3819.3353
OCCC1=NON=N1	OCCc1nonn1	
InChI=1S/C3H5N3O2/c7-2-1-3-4-6-8-5-3/h7H,1-2H2	InChI=1S/C3H5N3O2/c7-2-1-3-4-6-8-5-3/h7H,1-2H2
