18
gdb 6788	6.98445	0.69005	0.65422	2.5595	66.11	-0.2434	0.0596	0.303	1663.4015	0.153426	-418.292213	-418.282464	-418.28152	-418.328205	33.692	
N	-0.0492138956	 1.3326379682	 0.026577911	-0.565404
C	-0.004891339	-0.046297578	-0.1720918767	 0.449309
O	 0.9254342723	-0.5965359573	-0.731662918	-0.389763
N	-1.0939161669	-0.7126345884	 0.342602884	-0.341829
C	-1.1406123633	-2.1644127905	 0.378041822	-0.152604
C	-2.5121318336	-2.7013895395	-0.0354274521	-0.173061
C	-2.5741515917	-4.2227932957	-0.0035787358	-0.070653
O	-3.8949603301	-4.6100264766	-0.3500604257	-0.421207
H	 0.6273071352	 1.8147914536	-0.5463509151	 0.25923
H	-0.9595381608	 1.769381121	 0.02477382	 0.244635
H	-1.676583397	-0.217618854	 0.999132644	 0.236808
H	-0.3588984054	-2.5063486929	-0.3043717292	 0.149957
H	-0.8777289712	-2.5370423824	 1.3797199653	 0.099168
H	-3.2910448755	-2.3121569895	 0.6330504239	 0.09738
H	-2.7562413027	-2.3509790386	-1.043917158	 0.115113
H	-1.8364720907	-4.6393031358	-0.708548829	 0.092169
H	-2.3030474249	-4.5869068543	 1.0015781434	 0.084476
H	-3.9339980891	-5.5707142391	-0.357884204	 0.286277
27.9602	77.3872	82.7004	115.4494	203.3137	262.6601	271.2885	319.03	367.6619	443.0545	462.279	538.5063	574.959	666.2322	767.9474	778.0982	869.896	953.2482	1031.6457	1044.1424	1085.8308	1094.9728	1151.9914	1171.2481	1224.7282	1242.4161	1297.4282	1309.784	1322.7942	1335.3176	1411.7582	1465.9241	1494.6948	1508.7673	1530.1476	1546.4028	1628.4218	1803.4611	2957.7373	2984.6836	2989.4934	3029.4289	3081.4917	3114.0125	3568.0676	3625.7193	3680.8327	3831.3529
NC(=O)NCCCO	NC(=O)NCCCO	
InChI=1S/C4H10N2O2/c5-4(8)6-2-1-3-7/h7H,1-3H2,(H3,5,6,8)	InChI=1S/C4H10N2O2/c5-4(8)6-2-1-3-7/h7H,1-3H2,(H3,5,6,8)
