23
gdb 103653	3.33178	0.98946	0.97062	1.1741	87.75	-0.2448	0.014	0.2588	1402.3828	0.204577	-388.311927	-388.301912	-388.300968	-388.346539	38.223	
C	 0.0900848014	 1.5766492254	 0.2653754864	-0.408436
C	-0.0611065708	 0.073773075	 0.012677492	-0.204218
C	 0.6073001157	-0.4264739151	-1.2797859202	 0.365044
O	 2.007329974	-0.0748992794	-1.2719840803	-0.483076
C	 0.5416024509	-1.9629448622	-1.4324279286	-0.253715
C	 0.3728144089	-2.2509055566	-2.9455605082	-0.018142
C	-0.5286841863	-3.4506351766	-3.2574493758	-0.400776
C	-0.1504514623	-0.9288414306	-3.4624907593	-0.067553
C	-0.050153582	 0.0484492267	-2.5644807643	-0.149946
H	 1.1461217458	 1.8553228748	 0.3352015403	 0.117209
H	-0.3701684076	 2.1758871459	-0.5282796913	 0.112784
H	-0.3880617218	 1.8634407077	 1.2066397122	 0.115684
H	 0.3799682532	-0.4776806029	 0.85232108	 0.099911
H	-1.1242330608	-0.1945488593	-0.0199840544	 0.092868
H	 2.08561524	 0.8397046259	-1.5608186458	 0.274593
H	 1.4306895076	-2.4259933947	-0.9980722799	 0.107879
H	-0.3336986591	-2.343483097	-0.8940851171	 0.092691
H	 1.356024595	-2.4386155617	-3.4010165255	 0.088599
H	-1.5314590429	-3.3063328875	-2.8398365432	 0.114018
H	-0.6334638565	-3.5999198324	-4.3375743742	 0.110387
H	-0.1167876717	-4.3723189983	-2.833012691	 0.1149
H	-0.5380722384	-0.8158043302	-4.4707791681	 0.090994
H	-0.3392115223	 1.0823347332	-2.7247682837	 0.088301
59.4985	107.4372	175.21	205.438	216.6262	244.7284	266.1599	297.0304	332.4998	375.8654	410.6406	460.1961	563.7165	618.6958	689.3424	777.2209	795.5289	819.3668	849.7894	878.6028	930.3914	968.5728	975.2819	979.1763	1018.3247	1047.9167	1077.9057	1095.5641	1124.4707	1145.6245	1165.8828	1187.5197	1236.115	1293.7742	1304.6657	1315.009	1330.5189	1346.5721	1382.5354	1390.534	1406.8093	1411.6312	1474.5423	1477.6493	1497.3236	1499.445	1502.9671	1511.6481	1681.9943	2996.4703	3022.8445	3025.8234	3034.2639	3046.582	3060.9377	3094.3712	3097.5328	3099.9778	3108.2816	3109.6879	3165.1519	3192.0737	3821.0502
CCC1(O)CC(C)C=C1	CC[C@@]1(O)C[C@@H](C)C=C1	
InChI=1S/C8H14O/c1-3-8(9)5-4-7(2)6-8/h4-5,7,9H,3,6H2,1-2H3	InChI=1S/C8H14O/c1-3-8(9)5-4-7(2)6-8/h4-5,7,9H,3,6H2,1-2H3/t7-,8-/m0/s1
