24
gdb 6614	3.19453	1.43037	1.30715	0.0453	84.73	-0.2806	0.0762	0.3568	1119.089	0.222383	-314.272878	-314.263348	-314.262404	-314.30651	36.673	
C	 0.1616210768	 1.55867985	 0.3322424506	-0.413832
C	 0.0090865071	 0.0520772629	 0.055458585	 0.234975
C	 0.6765888483	-0.7374987821	 1.197790106	-0.403037
C	-1.4903234559	-0.298135435	 0.0003977541	-0.403035
C	 0.6591201417	-0.3725188899	-1.2767070305	 0.083594
C	 0.2844010613	 0.3084637136	-2.6266781245	-0.248099
C	 1.7549596625	 0.1108752718	-3.0825461255	-0.212276
C	 2.154120507	-0.0705822967	-1.5935389209	-0.248099
H	 1.2123337993	 1.8574570873	 0.3990149008	 0.110478
H	-0.3131272202	 2.1667764802	-0.444002688	 0.110478
H	-0.312285384	 1.8186073749	 1.2851603459	 0.107566
H	 0.2238820637	-0.4899394142	 2.1643404532	 0.105085
H	 0.570467541	-1.81768652	 1.0466036068	 0.105316
H	 1.7465540374	-0.5129102629	 1.2641426637	 0.111751
H	-1.9964916342	 0.2460543498	-0.8041638403	 0.111751
H	-1.6400476039	-1.3694767292	-0.1749169786	 0.105316
H	-1.9893582907	-0.0412125479	 0.9413565358	 0.105085
H	 0.5007794513	-1.4535487892	-1.386769465	 0.061939
H	-0.5044322804	-0.151508335	-3.2272251876	 0.092033
H	 0.0474153693	 1.369113652	-2.5001401094	 0.099178
H	 1.8810621313	-0.8154107987	-3.6506032739	 0.099625
H	 2.2272147267	 0.9240637668	-3.6388582495	 0.092997
H	 2.4846937122	 0.8750081002	-1.1533890095	 0.099178
H	 2.8914395822	-0.8399473187	-1.3507897386	 0.092032
62.2966	130.2564	186.6447	212.3523	250.0362	252.9854	285.6147	321.152	349.0332	376.6248	452.4759	500.6293	586.5149	722.5581	787.0784	814.7206	891.7465	930.6181	932.0439	936.0693	953.2772	955.3469	961.3877	1004.0711	1017.1849	1060.3118	1074.1163	1125.3644	1201.0742	1218.7741	1244.7614	1249.0181	1255.7545	1265.343	1275.6061	1289.9552	1300.2798	1374.178	1396.4914	1396.9275	1430.253	1473.1044	1483.1778	1483.6187	1485.514	1488.7146	1503.7767	1505.4495	1511.168	1518.4225	3010.5174	3019.5093	3023.7324	3034.8635	3050.8952	3053.0674	3059.3542	3086.1174	3089.4176	3091.4016	3093.4727	3094.6507	3098.4096	3100.2402	3108.1115	3117.1847
CC(C)(C)C1CCC1	CC(C)(C)C1CCC1	
InChI=1S/C8H16/c1-8(2,3)7-5-4-6-7/h7H,4-6H2,1-3H3	InChI=1S/C8H16/c1-8(2,3)7-5-4-6-7/h7H,4-6H2,1-3H3
