16
gdb 132604	3.10487	1.31155	0.92401	2.4588	78.37	-0.1774	0.0082	0.1856	1191.5169	0.125564	-442.096962	-442.088858	-442.087914	-442.129094	31.916	
N	-0.0006246906	 1.4299446953	 0.1234542466	-0.594853
C	 0.0017199929	 0.0274762362	 0.0460264416	 0.312446
C	-1.1925107031	-0.7010610984	 0.04732678	-0.179935
C	-1.1843726456	-2.092317293	 0.0433956103	-0.168055
C	 0.0088903515	-2.8178319872	 0.0309337519	 0.147157
N	 0.0600126704	-4.2200832369	 0.0860160357	-0.600216
C	 1.1859911954	-2.066718958	 0.0222177355	 0.270879
F	 2.3539328718	-2.7400742285	-0.0097917706	-0.100424
C	 1.2072069883	-0.6851031621	 0.0316174074	-0.326562
H	 0.8167584266	 1.8627204267	-0.2842441831	 0.24275
H	-0.8403566704	 1.8530328746	-0.2472137452	 0.242431
H	-2.1410623493	-0.1730405086	 0.0581693549	 0.080588
H	-2.1263836633	-2.6325375586	 0.0503913457	 0.087988
H	-0.7057987094	-4.6694435163	-0.3970164759	 0.24316
H	 0.9461517204	-4.5867536483	-0.2336828743	 0.248454
H	 2.1655529943	-0.1772364369	 0.0271654896	 0.094194
147.1016	232.7097	245.9474	251.4213	294.8581	317.3527	357.2357	451.9931	453.805	509.7304	580.8715	611.4484	654.5255	702.5597	723.057	753.403	810.3954	824.6163	852.2435	908.0153	969.6242	1076.4443	1125.1286	1172.7789	1189.7067	1263.5983	1324.0791	1346.8959	1374.768	1495.7904	1556.5913	1632.6661	1641.5181	1655.2875	1685.2535	3163.8196	3180.7019	3188.8667	3549.0453	3549.5793	3644.2568	3646.4622
NC1=CC=C(N)C(F)=C1	Nc1ccc(N)c(F)c1	
InChI=1S/C6H7FN2/c7-5-3-4(8)1-2-6(5)9/h1-3H,8-9H2	InChI=1S/C6H7FN2/c7-5-3-4(8)1-2-6(5)9/h1-3H,8-9H2
