22
gdb 107468	2.17349	1.5876	1.27062	2.5411	81.71	-0.224	0.0654	0.2894	1145.6897	0.19248	-404.309305	-404.299595	-404.298651	-404.343273	37.337	
C	 0.1787758442	 1.5953274834	 0.1622203507	-0.376234
C	-0.03054498	 0.0859194206	-0.0228532099	-0.297381
C	 0.6355869884	-0.48615765	-1.2530702236	 0.313068
C	 1.6799639544	-1.5345491872	-1.2158918836	-0.296387
N	 2.0790395329	-0.1839623871	-1.6496946222	-0.16386
C	 1.6256943487	-0.0953339294	-3.0816631584	-0.21521
C	 0.1301997964	-0.3082798049	-2.6971169408	 0.338139
C	-0.6564266256	-1.4424755936	-3.3432270039	-0.457117
O	-0.6203580004	 0.8978186282	-2.7610431667	-0.466643
H	 1.247272438	 1.8256712507	 0.2008149049	 0.12881
H	-0.2581926469	 2.1535589435	-0.6671913144	 0.137729
H	-0.2818566425	 1.9350004935	 1.0953124181	 0.099552
H	 0.3428734719	-0.4436443546	 0.8612663779	 0.096737
H	-1.1030180539	-0.1386021914	-0.0841444109	 0.104759
H	 2.0705754148	-1.8000661949	-0.2375284632	 0.118218
H	 1.6996148362	-2.3483164994	-1.9385581157	 0.103019
H	 1.8008750151	 0.9098776023	-3.4700449628	 0.108965
H	 2.0956304094	-0.836985777	-3.7384407457	 0.09214
H	-0.1292110303	-2.3978985937	-3.2859497955	 0.119664
H	-1.6307342311	-1.5509033671	-2.8565478938	 0.127937
H	-0.8301257567	-1.2290258899	-4.4060866087	 0.106654
H	-0.870675813	 1.0429740181	-3.6797235719	 0.277441
71.7245	130.1692	202.037	210.6263	222.6517	249.8169	260.2267	286.5389	379.9502	420.5398	457.4967	486.8244	544.4146	626.9593	654.2553	740.211	798.3565	850.3169	881.2567	889.5831	948.4715	971.8202	979.693	1022.6624	1056.7665	1097.5265	1100.7326	1110.997	1133.408	1177.2679	1206.072	1231.8277	1239.4744	1285.5891	1304.8489	1336.1698	1384.6672	1401.5315	1406.8631	1411.0723	1474.4526	1481.3863	1488.963	1492.3081	1495.2806	1513.2405	1515.3189	3021.7592	3025.7873	3031.9235	3045.705	3060.618	3089.6547	3096.0481	3112.5949	3113.8274	3122.0246	3145.0286	3185.3116	3806.1053
CCC12CN1CC2(C)O	CC[C@]12CN1C[C@]2(C)O	
InChI=1S/C7H13NO/c1-3-7-5-8(7)4-6(7,2)9/h9H,3-5H2,1-2H3	InChI=1S/C7H13NO/c1-3-7-5-8(7)4-6(7,2)9/h9H,3-5H2,1-2H3/t6-,7+,8?/m0/s1
