20
gdb 122407	4.92528	0.61674	0.58025	1.3089	77.8	-0.2624	0.0273	0.2897	1894.066	0.170267	-440.284369	-440.274757	-440.273812	-440.320089	34.502	
O	 0.0137644058	 1.5491127182	 0.0120008058	-0.41699
C	 0.014131828	 0.1549139782	-0.243388157	-0.058884
C	-1.3364523603	-0.502787784	 0.0430154723	-0.201859
C	-1.3515860952	-1.9985458158	-0.2912007535	-0.210502
C	-2.6686591712	-2.6661301607	 0.0479103456	 0.132045
C	-2.7259085606	-4.209115885	 0.0704832675	-0.386364
C	-3.0039540292	-4.0234972423	 1.5468880345	 0.440998
N	-3.2256743756	-4.7945695989	 2.5095730199	-0.538511
O	-2.9416033713	-2.6450764459	 1.4964522911	-0.265981
H	-0.1577890699	 1.6759339487	 0.9506533508	 0.281834
H	 0.2653036125	 0.0507444833	-1.3052592457	 0.110358
H	 0.8077129935	-0.3577198343	 0.3251973451	 0.087757
H	-1.5862669992	-0.3755715879	 1.1045141726	 0.109432
H	-2.1105531373	 0.0226788863	-0.5294923718	 0.107412
H	-1.1607078226	-2.1497992715	-1.3625179516	 0.107834
H	-0.546434771	-2.5139488994	 0.2487068838	 0.105904
H	-3.5035966179	-2.1902292881	-0.476822374	 0.094459
H	-3.5363714337	-4.6733800909	-0.4931081185	 0.138444
H	-1.7860809147	-4.7165206172	-0.1565099348	 0.135515
H	-3.37837688	-4.2727083028	 3.3743575076	 0.227099
49.9982	73.5444	102.2596	122.7175	161.0267	271.4911	297.7208	317.5147	425.4925	474.6812	501.0315	511.1339	711.3836	759.0112	827.6353	850.1946	867.8819	922.5569	950.6676	999.0017	1019.872	1030.0441	1059.4313	1078.7268	1084.3736	1103.3318	1147.4127	1193.0978	1226.7818	1244.4461	1258.6533	1293.7764	1322.9601	1333.9106	1365.9335	1399.654	1412.7318	1424.5582	1465.9555	1473.5959	1493.7107	1516.2152	1826.535	2967.8562	3013.9013	3024.9312	3044.6657	3053.6907	3064.2155	3080.7675	3085.2633	3140.7569	3475.4627	3814.369
OCCCC1CC(=N)O1	OCCC[C@H]1C[C]([NH])O1	
InChI=1S/C6H11NO2/c7-6-4-5(9-6)2-1-3-8/h5,7-8H,1-4H2	InChI=1S/C6H11NO2/c7-6-4-5(9-6)2-1-3-8/h5,7-8H,1-4H2/t5-/m0/s1
