15
gdb 18232	4.33163	1.69347	1.38954	4.0751	61.33	-0.2402	-0.0237	0.2165	875.067	0.119327	-399.775675	-399.768736	-399.767791	-399.807451	25.328	
O	-0.7893746991	 0.8868138992	 0.4201439953	-0.250983
C	 0.2720274933	 0.7442650029	-0.1274666362	 0.152189
C	 1.4238111878	 1.7319498074	 0.0108699674	 0.048402
O	 2.6412758912	 1.0351213683	-0.2146639371	-0.275682
C	 3.5681372353	 1.859722381	-0.922889535	-0.075028
C	 2.7305629884	 2.8984794049	-1.6354989961	-0.053335
N	 1.6257998546	 2.2944077072	-2.4037918174	-0.33122
C	 1.3748397804	 2.8262427802	-1.0467274261	-0.083079
H	 0.4962803481	-0.1072603414	-0.8025097768	 0.101922
H	 1.3819732815	 2.185921134	 1.0121590645	 0.094565
H	 4.2684232015	 2.3527028618	-0.2316036426	 0.09888
H	 4.1336762604	 1.211130053	-1.5988768343	 0.121116
H	 3.1739139279	 3.8350402346	-1.9556130973	 0.102811
H	 1.2847865494	 2.9636046313	-3.0896646033	 0.239156
H	 0.7363888893	 3.6890417254	-0.8991815149	 0.110284
63.4821	118.4924	214.5726	290.6267	381.7881	448.8413	501.6375	679.0395	762.06	804.2795	862.2308	870.5759	910.5831	951.6657	984.3793	1015.5187	1052.0391	1086.3382	1096.3258	1105.7981	1156.5378	1159.4811	1230.8545	1248.3509	1298.8203	1304.3648	1347.1385	1387.6368	1395.2316	1426.2599	1508.568	1836.141	2928.9831	2993.2598	3002.386	3081.3109	3174.886	3192.1679	3505.8961
O=CC1OCC2NC12	O=C[C@H]1OC[C@H]2N[C@@H]12	
InChI=1S/C5H7NO2/c7-1-4-5-3(6-5)2-8-4/h1,3-6H,2H2	InChI=1S/C5H7NO2/c7-1-4-5-3(6-5)2-8-4/h1,3-6H,2H2/t3-,4-,5-/m1/s1
