17
gdb 130453	6.2979	0.78559	0.71744	20.3686	86.77	-0.1198	-0.0597	0.06	1531.9659	0.13801	-451.222784	-451.214157	-451.213213	-451.25707	31.157	
N	-0.0292342727	 0.9787650898	 0.0603252271	-0.424152
H	-0.112152359	-0.0390257434	 0.0127164842	 0.333087
H	 0.9544777011	 1.2165879205	 0.2112399535	 0.334971
H	-0.3050748394	 1.3697018031	-0.8443817827	 0.332744
C	-0.8863393898	 1.5809779588	 1.1961007612	-0.206744
C	-0.7136274233	 3.0885182292	 1.2301923285	-0.34028
C	-1.3418450019	 3.5632643064	 2.5132353678	 0.38424
N	-1.2949398892	 2.7482627444	 3.5491389981	-0.297702
O	-1.9833578082	 3.502362251	 4.5308215188	-0.273718
C	-2.3761167713	 4.7216004585	 3.9381610136	 0.400839
N	-3.0226126952	 5.6239363706	 4.5764255142	-0.621319
N	-1.9528177744	 4.7344939565	 2.6286488161	-0.433753
H	-1.9117055918	 1.2716084988	 0.9917780181	 0.177059
H	-0.5450216722	 1.1293174961	 2.1279876564	 0.202887
H	 0.3545455217	 3.3524080054	 1.1942032377	 0.112747
H	-1.2070447526	 3.5749681982	 0.3823234054	 0.132164
H	-3.1798235817	 5.3017268061	 5.530730602	 0.186931
40.5928	91.087	136.4924	205.891	222.6922	311.7994	330.6548	363.6174	514.0992	648.4536	704.8027	727.6068	761.5796	773.8432	778.6776	802.7588	873.361	890.1988	929.932	939.8153	1053.2097	1076.953	1092.9268	1123.6998	1254.3668	1282.0713	1287.0385	1292.6516	1360.5525	1451.7423	1457.4775	1471.214	1486.7856	1572.1202	1647.7059	1658.1628	1722.7993	2989.4382	3077.2048	3107.6491	3177.2164	3397.1961	3487.4537	3495.0162	3508.8444
[NH3+]CCC1=NOC(=N)[N-]1	[NH3]CCc1noc([NH])n1	
InChI=1S/C4H7N4O/c5-2-1-3-7-4(6)9-8-3/h1-2,5H2,(H-,6,7,8)/q-1/p+1	InChI=1S/C4H8N4O/c5-2-1-3-7-4(6)9-8-3/h6H,1-2H2,5H3
