18
gdb 88037	2.36927	1.35622	1.05687	3.757	76.76	-0.2736	0.022	0.2956	1195.3086	0.146707	-401.942019	-401.933258	-401.932314	-401.975709	32.304	
C	-0.0515925788	 1.5270683842	-0.1264845766	-0.420598
C	 0.0095275448	 0.0306744655	 0.0170678665	-0.020653
O	 1.3165713841	-0.5820548563	-0.077825176	-0.287753
C	 0.6458452127	-0.6378981209	 1.1548902325	 0.426146
C	 1.1490271735	-0.0716709069	 2.4842255385	-0.322454
C	 0.3550974162	-1.1975272307	 3.20877916	-0.235936
C	 0.219708137	-1.9567222977	 1.8446008498	-0.234638
C	-1.0643280503	-2.5361794427	 1.4950858086	 0.279442
N	-2.0996160031	-2.9674565429	 1.212252668	-0.335101
H	 0.741311651	 2.0116551805	 0.4487896555	 0.128347
H	 0.0634751349	 1.814082129	-1.1764706161	 0.137954
H	-1.0203012174	 1.9030942093	 0.2196379963	 0.130118
H	-0.7648430324	-0.5279898557	-0.510283749	 0.117373
H	 2.231591509	-0.1908391647	 2.5834282508	 0.125849
H	 0.8829751619	 0.9599393675	 2.722039423	 0.119363
H	 0.8686256166	-1.7415706354	 4.0011689012	 0.124292
H	-0.614449783	-0.8575651255	 3.5750320362	 0.132301
H	 1.0070745934	-2.7078364266	 1.7280373909	 0.135948
83.3647	103.8671	162.6547	176.8886	209.7018	259.5504	363.3054	432.3792	457.6638	507.0213	571.4113	592.5791	703.6115	790.2571	799.9094	858.9078	935.8138	943.2655	976.6208	1021.2314	1066.3577	1071.4855	1099.1169	1118.264	1136.6016	1190.0588	1217.6837	1226.4152	1257.3088	1270.9621	1335.9939	1358.6537	1410.8909	1468.9628	1477.5181	1488.9204	1495.0461	1523.9274	2351.6845	3039.8533	3066.4193	3070.4924	3091.4893	3105.3634	3105.6211	3120.5406	3129.2373	3152.013
CC1OC11CCC1C#N	C[C@H]1O[C@]21CC[C@H]2C#N	
InChI=1S/C7H9NO/c1-5-7(9-5)3-2-6(7)4-8/h5-6H,2-3H2,1H3	InChI=1S/C7H9NO/c1-5-7(9-5)3-2-6(7)4-8/h5-6H,2-3H2,1H3/t5-,6+,7+/m1/s1
