21
gdb 103729	2.10521	1.42551	0.99807	2.7088	80.05	-0.2495	-0.0283	0.2212	1257.9744	0.179351	-424.226461	-424.215967	-424.215023	-424.261499	38.352	
C	-0.1469377915	 1.5423787969	 0.0624391666	-0.462605
C	-0.0432548254	 0.0262885387	 0.0655400954	 0.277454
C	-1.3104208254	-0.6380572263	-0.4606860574	-0.153242
O	-1.5743022531	-0.253111309	-1.8068231738	-0.416185
C	 1.2741196511	-0.6218638112	-0.2398420226	-0.36652
C	 0.7744746082	-0.6539742122	 1.196085801	 0.178817
C	 1.4345608327	 0.1908056894	 2.2739191514	-0.483685
C	 0.3212888992	-1.9813630583	 1.7050237322	 0.103085
O	 0.0703427951	-2.9570703999	 1.0356610633	-0.271357
H	 0.8182797412	 2.0372643376	 0.1864999214	 0.113482
H	-0.5676738913	 1.8555256548	-0.8971158582	 0.143566
H	-0.8176521391	 1.8972918781	 0.8532307505	 0.118693
H	-1.2517110969	-1.7254270799	-0.3658266926	 0.128822
H	-2.1774490956	-0.2917135566	 0.1134792202	 0.106174
H	-0.8831144073	-0.6383390781	-2.3555891439	 0.28405
H	 1.2710906568	-1.5815980333	-0.7484168683	 0.130221
H	 2.1300196421	 0.0114340086	-0.4506663607	 0.114302
H	 1.8489283827	 1.1169488839	 1.8747828251	 0.127576
H	 0.7240468142	 0.4576370269	 3.0646601098	 0.126024
H	 2.2589841368	-0.3586882175	 2.7419939757	 0.126666
H	 0.2379306356	-2.0289691026	 2.8150648447	 0.074663
100.8029	112.5041	132.0473	149.4653	183.9329	208.6708	259.9455	297.5022	310.994	334.7399	360.0335	387.6356	428.3102	507.6482	620.582	702.2402	752.4528	847.5754	924.102	940.5624	948.4044	965.9435	1016.694	1028.3865	1053.0868	1079.349	1091.1799	1115.8662	1163.3907	1214.4939	1254.9537	1304.9009	1362.3256	1400.8058	1414.1732	1417.7122	1426.0717	1438.8036	1472.27	1483.4702	1493.1916	1498.5779	1512.7554	1516.7525	1800.2956	2868.2542	3032.6782	3037.9782	3043.5909	3086.8612	3102.0918	3105.6171	3119.1788	3127.2991	3144.0868	3210.2155	3812.333
CC1(CO)CC1(C)C=O	C[C@@]1(CO)C[C@]1(C)C=O	
InChI=1S/C7H12O2/c1-6(4-8)3-7(6,2)5-9/h4,9H,3,5H2,1-2H3	InChI=1S/C7H12O2/c1-6(4-8)3-7(6,2)5-9/h4,9H,3,5H2,1-2H3/t6-,7+/m1/s1
