16
gdb 97041	3.02796	1.29396	0.95221	2.6882	69.03	-0.2546	-0.053	0.2015	1198.5968	0.122254	-475.036008	-475.027032	-475.026088	-475.070372	31.535	
C	 0.0896369159	 1.4218306392	 0.0732805207	-0.334508
N	 0.0078095516	-0.0275104067	-0.0085895748	-0.290501
C	 0.5192520508	-0.6361931133	-0.9736309893	 0.394171
O	 1.1437876462	-0.0380885467	-2.0605907315	-0.26003
C	 1.9138170078	-0.9765291412	-2.8150128748	-0.18573
C	 1.7153473579	-2.3121568894	-2.1145436064	 0.332868
O	 2.3933199343	-3.3023146368	-2.1899510267	-0.304643
C	 0.5185387805	-2.1382273096	-1.1925300798	-0.048153
O	 0.5678237333	-2.9264631456	-0.0476974615	-0.414616
H	 0.8396891885	 1.8666910075	-0.5900873398	 0.122837
H	-0.8881809178	 1.8519112421	-0.1738878907	 0.132481
H	 0.3096406397	 1.7019456902	 1.1078034866	 0.131234
H	 1.5542452256	-1.0103687162	-3.8506162762	 0.14905
H	 2.9704445631	-0.6891327141	-2.8207024618	 0.152643
H	-0.3761883628	-2.3649656536	-1.8082025922	 0.124292
H	 1.1638918454	-3.661593236	-0.252320302	 0.298604
64.5043	82.337	141.4652	168.3108	209.7716	243.3345	323.6022	336.3415	422.9316	520.2351	571.601	619.1456	660.6742	711.0082	777.4439	868.9846	995.5513	1038.4321	1069.2615	1096.435	1122.8304	1129.2404	1173.1527	1186.1861	1219.1685	1239.0491	1341.1909	1359.2825	1406.3796	1438.1748	1483.2997	1489.9931	1498.8281	1821.6981	1871.4498	2901.9072	3020.7265	3036.5016	3082.1633	3085.3791	3099.7184	3735.5989
CN=C1OCC(=O)C1O	CN=C1OCC(=O)[C@H]1O	
InChI=1S/C5H7NO3/c1-6-5-4(8)3(7)2-9-5/h4,8H,2H2,1H3	InChI=1S/C5H7NO3/c1-6-5-4(8)3(7)2-9-5/h4,8H,2H2,1H3/t4-/m1/s1
