18
gdb 67311	3.23756	1.44265	1.22394	1.9393	83.08	-0.231	0.044	0.275	1066.7071	0.14645	-364.683667	-364.675703	-364.674758	-364.715809	31.46	
C	-0.0659047475	 1.4794640759	 0.049814545	-0.521538
C	-0.0339656285	-0.0149251581	-0.0404600915	 0.363823
C	 0.826021676	-0.9513985192	-0.9533100043	-0.119666
C	 1.9548477819	-0.8870660601	 0.0682941664	-0.199144
N	 0.7444221293	-0.8902857986	 0.9968357234	-0.177277
C	 0.0331032164	-1.8624646765	 0.0238036107	-0.011192
C	-1.2364547486	-0.9939256204	-0.0281706978	-0.260158
C	-2.1432911939	-0.9796970182	 1.1005892831	 0.312795
C	-2.9183336429	-0.9559843576	 2.0197148267	-0.43569
H	 0.9445945491	 1.8974756726	 0.0982064441	 0.127605
H	-0.5700177825	 1.9073037454	-0.8232308524	 0.125377
H	-0.6099266869	 1.7880581782	 0.9476212752	 0.145833
H	 0.8449144035	-0.9906607866	-2.0483452045	 0.064526
H	 2.5912826426	-1.7699412958	 0.1864992552	 0.102527
H	 2.5570303447	 0.0248421834	 0.1288661055	 0.101904
H	 0.120268413	-2.9410523857	 0.1604628348	 0.089665
H	-1.7760341518	-1.0462935623	-0.9802836389	 0.097263
H	-3.5900961739	-0.9411674662	 2.8418225994	 0.193346
121.8181	130.3051	200.3755	271.5535	292.1297	363.5692	405.1774	515.6366	542.5298	626.9711	631.8867	640.7133	728.0531	767.862	844.7312	850.3021	881.0271	900.3428	930.6979	962.0451	1024.4699	1040.7267	1065.0809	1086.773	1103.2047	1142.8945	1152.9966	1167.8171	1187.3671	1239.0841	1261.6251	1278.9338	1314.7187	1378.3256	1412.3286	1480.3209	1485.5074	1521.7959	2234.5505	3033.6299	3035.8082	3045.9153	3049.4405	3097.7916	3105.4504	3111.575	3113.8015	3504.5428
CC12C3CN1C3C2C#C	C[C@@]12[C@H]3CN1[C@H]3[C@H]2C#C	
InChI=1S/C8H9N/c1-3-5-7-6-4-9(7)8(5,6)2/h1,5-7H,4H2,2H3	InChI=1S/C8H9N/c1-3-5-7-6-4-9(7)8(5,6)2/h1,5-7H,4H2,2H3/t5-,6+,7+,8-/m1/s1
