16
gdb 66663	4.22082	1.27365	1.19286	2.1053	81.17	-0.2215	0.0152	0.2366	1073.231	0.122295	-363.462447	-363.45478	-363.453836	-363.494246	30.27	
C	-0.0956898159	 1.4687028788	 0.0359638735	-0.523182
C	 0.080857493	-0.0093406702	 0.0019623106	 0.35687
C	 0.2831910006	-0.9849636171	-1.1042161404	-0.116302
C	 0.8848699526	-2.016450131	-0.123223271	-0.167213
C	 0.6824739056	-1.0236662136	 1.0156790846	-0.230673
C	-0.4362292416	-1.9777195071	 0.629015445	 0.369823
C	-1.1466510917	-2.9539389923	 1.3582949802	 0.02996
C	-1.7537592467	-3.7872897969	 1.9805030693	-0.363263
N	-1.0327939846	-0.9618450471	-0.3615966147	-0.252924
H	 0.8711556045	 1.9838508751	 0.0283964251	 0.124952
H	-0.6674900888	 1.79470785	-0.8382908278	 0.137913
H	-0.6429074258	 1.7779556254	 0.9332151345	 0.132144
H	 0.3362400071	-0.8655561668	-2.1797044959	 0.101118
H	 1.5970978412	-2.8229429699	-0.2187612098	 0.109439
H	 1.2109123894	-0.9294366435	 1.9536629663	 0.108186
H	-2.2920587189	-4.5211026238	 2.5272614104	 0.18315
122.3155	150.6295	207.8821	269.6373	287.8442	475.9356	488.0871	508.2625	565.2317	620.9873	674.5427	682.8806	757.0191	786.3052	816.7497	839.8837	856.5536	898.5093	917.3093	953.3502	967.4336	1007.3541	1030.4686	1082.0862	1096.0107	1141.261	1172.1057	1240.5912	1263.0978	1392.4041	1398.394	1446.1277	1477.9695	1490.7291	2227.526	3029.5361	3094.1866	3110.5595	3183.3154	3217.8455	3229.8218	3502.7127
CC12C3C4C1C4(C#C)N23	C[C@@]12[C@H]3[C@H]4[C@@H]1[C@@]4(C#C)N23	
InChI=1S/C8H7N/c1-3-8-4-5(8)7(2)6(4)9(7)8/h1,4-6H,2H3	InChI=1S/C8H7N/c1-3-8-4-5(8)7(2)6(4)9(7)8/h1,4-6H,2H3/t4-,5+,6-,7+,8+,9?/m1/s1
