17
gdb 131477	3.87186	1.1927	0.99093	4.3262	75.53	-0.218	0.029	0.247	1179.5469	0.138419	-418.00928	-418.001574	-418.00063	-418.041867	29.654	
O	-0.0186267479	 1.4627951124	 0.2385444236	-0.419635
C	-0.0150217821	 0.0729080956	 0.0408610527	 0.088303
C	-0.4869139668	-0.8323070041	 1.1423610809	-0.334309
C	-1.3489385914	-0.6141837851	-0.1023186986	-0.146798
C	-2.6429376793	 0.0935182066	-0.0396044064	 0.407325
C	-3.9157798731	-0.347123522	-0.3619917639	-0.318019
C	-4.7572647236	 0.7496032736	-0.0854476265	-0.006335
N	-4.075495935	 1.7975946241	 0.3690018643	-0.235386
N	-2.7982683179	 1.3712548535	 0.3957179577	-0.261334
H	 0.6920076727	 1.6770321474	 0.8523615983	 0.296722
H	 0.7888779814	-0.2782894868	-0.6044112245	 0.101812
H	-0.0078350616	-1.7948551814	 1.2831126961	 0.121011
H	-0.8344384201	-0.3507653829	 2.0502460533	 0.127024
H	-1.360344514	-1.4411292017	-0.8044851485	 0.106187
H	-4.1869489759	-1.322373375	-0.7333983051	 0.094536
H	-5.8294572354	 0.8176059702	-0.1991289499	 0.104929
H	-2.04444332	 2.0004635256	 0.6201035665	 0.273966
60.9146	149.9074	187.8305	281.9958	334.9076	352.705	447.3947	524.3943	608.9181	677.2798	700.1625	729.7446	776.7667	799.5038	846.4072	889.0708	935.9205	940.6279	992.6185	1029.9642	1054.7225	1063.7216	1079.1601	1130.8065	1131.2228	1173.3851	1225.3675	1248.3976	1292.6653	1309.9642	1333.6197	1385.0819	1421.0049	1446.6198	1481.7553	1498.7497	1607.5672	3111.1508	3133.9915	3164.3103	3227.553	3240.6788	3264.7123	3659.1814	3806.5578
OC1CC1C1=CC=NN1	O[C@H]1C[C@H]1c1ccn[nH]1	
InChI=1S/C6H8N2O/c9-6-3-4(6)5-1-2-7-8-5/h1-2,4,6,9H,3H2,(H,7,8)	InChI=1S/C6H8N2O/c9-6-3-4(6)5-1-2-7-8-5/h1-2,4,6,9H,3H2,(H,7,8)/t4-,6-/m0/s1
