18
gdb 77356	2.99842	1.22986	0.95772	1.3908	73.71	-0.2491	-0.0384	0.2107	1217.1963	0.147277	-439.144074	-439.135227	-439.134282	-439.178466	31.847	
C	-0.1031184784	 1.593456997	-0.0019667381	-0.38853
C	 0.0075735985	 0.0630726519	-0.029028156	-0.097642
N	 0.7278148729	-0.4774449521	-1.1757933486	-0.052996
C	 2.0747903266	-0.9537670143	-0.8370038306	-0.183812
C	 1.9635548961	-1.3268421237	 0.6455094781	-0.332411
C	 0.8270276115	-0.4520604424	 1.1711251711	 0.393987
O	 0.5976823516	-0.1744054402	 2.3170075088	-0.304007
C	 0.1778262615	-0.7023748475	-2.397755623	 0.142845
O	 0.7560514692	-1.2076608366	-3.337591574	-0.337085
H	 0.8828032895	 2.0590637024	-0.0936124786	 0.126927
H	-0.7281125908	 1.9495291949	-0.8252267865	 0.127418
H	-0.5489389881	 1.9076199293	 0.9453967406	 0.146645
H	-0.9980894108	-0.3725305105	 0.0325051549	 0.122216
H	 2.3276786162	-1.7839554983	-1.4969122521	 0.15118
H	 2.8196317524	-0.1633306316	-0.9941146091	 0.122878
H	 1.6589751798	-2.374035424	 0.7652192084	 0.147226
H	 2.8742330399	-1.1778765854	 1.2277808933	 0.14166
H	-0.8796362474	-0.3728681689	-2.4437386586	 0.073501
39.9627	91.8359	152.1567	212.3666	225.2468	250.8018	316.2461	402.9024	435.7536	492.6898	557.6783	648.5167	714.6916	777.9633	811.7396	854.314	965.1867	982.3627	1002.0909	1032.9279	1083.7293	1111.2536	1148.1087	1177.6178	1207.6538	1250.3813	1272.1162	1284.7439	1337.2686	1368.0079	1399.8171	1406.4139	1442.2949	1451.8976	1490.8341	1494.9311	1522.63	1791.5737	1857.7387	2930.3813	3024.6377	3026.8959	3044.1586	3045.9209	3119.4716	3125.4693	3131.6382	3132.2061
CC1N(CCC1=O)C=O	C[C@H]1N(CCC1=O)C=O	
InChI=1S/C6H9NO2/c1-5-6(9)2-3-7(5)4-8/h4-5H,2-3H2,1H3	InChI=1S/C6H9NO2/c1-5-6(9)2-3-7(5)4-8/h4-5H,2-3H2,1H3/t5-/m1/s1
