20
gdb 59675	2.50306	1.38592	0.99639	1.5226	75.19	-0.2401	0.0534	0.2935	1227.1327	0.169802	-440.233054	-440.223736	-440.222792	-440.267237	34.692	
C	-0.0641925533	 1.5245413264	-0.1697001472	-0.414578
C	 0.0165663724	 0.014152284	 0.017529083	 0.105914
O	 0.8148517297	-0.3587059394	 1.1425707032	-0.432177
C	-1.3632660148	-0.6231567999	 0.1605378702	 0.05505
O	-2.2064904404	-0.4171462549	-0.9962084804	-0.304312
C	-2.4406720545	-1.839892489	-1.1585921855	-0.12909
C	-1.4841899422	-2.1374551152	-0.0107021706	 0.270316
C	-0.4534261222	-3.179539054	 0.1615709818	-0.305072
N	-1.6737771276	-3.1596514285	 1.0020856542	-0.365493
H	 0.9349826621	 1.9508281394	-0.2940640188	 0.123562
H	-0.667455303	 1.7638410135	-1.049517214	 0.145924
H	-0.5372951656	 1.9991195558	 0.6999830312	 0.10537
H	 0.5147026843	-0.4370644526	-0.8477081172	 0.094091
H	 0.5267209967	 0.1713216325	 1.8942087133	 0.280966
H	-1.8473005945	-0.2418441866	 1.076914564	 0.061122
H	-3.4851635893	-2.1110774714	-0.9630954798	 0.111618
H	-2.1483805707	-2.1906920676	-2.1551133715	 0.108054
H	-0.400160726	-4.0105101276	-0.5371106171	 0.117199
H	 0.4900337328	-2.8819853823	 0.6083920005	 0.139829
H	-1.4503897137	-2.7830742227	 1.9212482407	 0.231709
73.5745	92.1209	147.5605	219.7901	250.822	271.004	282.2909	321.1608	363.6594	433.3511	457.1883	511.2986	597.6319	817.6249	852.6821	884.7335	914.2537	933.3527	968.5517	978.1617	1009.4296	1032.1153	1051.6969	1060.8129	1085.182	1115.3501	1132.897	1148.4971	1182.8306	1252.7562	1257.3446	1272.5796	1292.9121	1322.1902	1329.4936	1396.3291	1401.4856	1411.2399	1440.6516	1491.5432	1494.0308	1514.5411	1518.7519	2947.1922	3020.738	3022.9527	3055.8902	3069.1945	3100.0819	3111.939	3129.6976	3206.3734	3487.2981	3797.6992
CC(O)C1OCC11CN1	C[C@@H](O)[C@H]1OC[C@]21CN2	
InChI=1S/C6H11NO2/c1-4(8)5-6(2-7-6)3-9-5/h4-5,7-8H,2-3H2,1H3	InChI=1S/C6H11NO2/c1-4(8)5-6(2-7-6)3-9-5/h4-5,7-8H,2-3H2,1H3/t4-,5-,6+/m1/s1
