19
gdb 72695	2.64164	1.96934	1.62599	0.8907	74.23	-0.2453	0.0592	0.3044	914.9514	0.159765	-422.939715	-422.932497	-422.931553	-422.970761	30.155	
C	-0.093672477	 1.4952605131	 0.1206037476	-0.44532
C	 0.0279786603	-0.0213934689	 0.0921551306	 0.446477
C	-1.355338707	-0.7058787348	 0.2832775139	-0.351318
C	-0.9963060955	-1.3402393258	 1.6831749942	 0.060789
C	 0.2427747274	-2.1400625911	 1.2876930486	-0.247076
C	 0.7591350719	-0.6936066268	 1.2244773264	 0.361231
C	 2.0428882263	-0.4095360565	 0.4283878555	-0.228054
O	 1.184338385	-0.4008425965	-0.7651304353	-0.36064
O	-0.0817302771	-0.3859673416	 2.3886503453	-0.377121
H	 0.8787882803	 1.988478641	 0.191205151	 0.115979
H	-0.5789828764	 1.8389927018	-0.7991971665	 0.122264
H	-0.7025988014	 1.8104999562	 0.9718573877	 0.133079
H	-2.1706758428	 0.0191695947	 0.3061164331	 0.106921
H	-1.6047767351	-1.4919664263	-0.4325978359	 0.121643
H	-1.7954492751	-1.7024875845	 2.3278589491	 0.088309
H	 0.6915123847	-2.6686424008	 2.1298149784	 0.109067
H	 0.2303479627	-2.7431051779	 0.3781737441	 0.10954
H	 2.525271467	 0.5595230299	 0.5897136187	 0.117664
H	 2.788562092	-1.207660765	 0.3902786136	 0.116566
179.204	188.7341	284.8102	337.2527	381.8065	412.249	460.3607	522.24	597.6277	599.5908	710.3492	775.0706	801.8972	813.7103	835.2355	890.9846	900.3923	922.9613	943.2199	971.048	994.7385	1021.1729	1074.964	1093.0532	1124.9592	1141.9196	1186.2111	1195.0584	1206.8124	1225.8529	1248.8702	1274.8186	1292.244	1301.5343	1333.896	1401.4792	1477.3012	1483.7765	1495.0664	1501.1187	1514.6038	3041.1178	3048.5952	3075.3239	3079.8422	3108.2041	3111.3768	3125.7106	3131.693	3140.2438	3148.3298
CC12CC3CC1(CO2)O3	C[C@]12C[C@H]3C[C@]1(CO2)O3	
InChI=1S/C7H10O2/c1-6-2-5-3-7(6,9-5)4-8-6/h5H,2-4H2,1H3	InChI=1S/C7H10O2/c1-6-2-5-3-7(6,9-5)4-8-6/h5H,2-4H2,1H3/t5-,6-,7+/m0/s1
