25
gdb 119374	2.99057	0.95434	0.84173	0.2028	93.97	-0.2763	0.092	0.3683	1545.9932	0.229078	-352.320522	-352.310788	-352.309844	-352.355302	37.426	
C	 0.7990570921	 0.9604455664	 0.5256645249	-0.379357
C	 0.5527424556	-0.5369082952	 0.3231013691	-0.162376
C	-0.9367486551	-0.9064203939	 0.3304425977	-0.330563
C	-1.2044332455	-2.3789963748	 0.1330851861	 0.366091
C	-0.8200958772	-3.2646218591	-1.096797936	-0.256545
C	-1.5576921882	-4.2175129229	-0.1163598867	-0.061763
C	-0.7132662835	-3.5731917574	 1.018067015	-0.266639
C	-2.6098786006	-3.0792849871	 0.0696072101	 0.016752
C	-3.5773486512	-3.0539730094	 1.2441135425	-0.444654
H	 1.868144235	 1.1951763349	 0.5155203443	 0.109415
H	 0.3210558658	 1.5508862585	-0.2641245673	 0.112722
H	 0.3920281703	 1.3027592025	 1.4837556991	 0.112599
H	 0.9993448121	-0.8572966114	-0.6266506704	 0.098541
H	 1.069067943	-1.1036747292	 1.1082460947	 0.098391
H	-1.3856419369	-0.5841023331	 1.2807865336	 0.093324
H	-1.4556507843	-0.3416417539	-0.4572897651	 0.091733
H	-1.3272841611	-3.0379552592	-2.039972963	 0.082048
H	 0.2457419936	-3.455150551	-1.2503540428	 0.084029
H	-1.7568330849	-5.2804394036	-0.2632198454	 0.063433
H	 0.3602730481	-3.7824189863	 0.9949832221	 0.085484
H	-1.0934534482	-3.6385884589	 2.0390702146	 0.086994
H	-3.1543274881	-2.8465255121	-0.8548057266	 0.054379
H	-3.1066833491	-3.2870650519	 2.2025929677	 0.115703
H	-4.0437396213	-2.066494364	 1.3371857404	 0.115069
H	-4.3842527905	-3.7791633579	 1.0893765414	 0.11519
70.9543	87.5836	114.6266	172.7448	220.1141	247.409	304.0449	315.3431	351.097	419.5993	544.7261	581.3163	678.6182	738.0482	769.5945	788.5123	805.2458	872.961	899.8112	911.9502	943.5294	956.6916	997.7088	1007.2868	1045.6134	1047.0752	1055.6918	1098.6527	1119.1572	1126.1897	1146.1449	1151.7627	1171.8743	1192.4019	1221.9872	1231.806	1248.2078	1277.2495	1301.0684	1330.9038	1334.468	1395.1086	1404.9326	1413.3919	1423.109	1477.4847	1490.8524	1492.6485	1495.7541	1499.9776	1509.8657	1511.2038	1544.9868	2999.0135	3015.189	3022.9426	3027.9552	3028.5429	3031.4943	3040.2567	3055.5765	3058.4322	3085.3832	3095.6172	3096.05	3100.0549	3104.7688	3110.295	3123.1628
CCCC12CC(C1)C2C	CCC[C@@]12C[C@@H](C1)[C@H]2C	
InChI=1S/C9H16/c1-3-4-9-5-8(6-9)7(9)2/h7-8H,3-6H2,1-2H3	InChI=1S/C9H16/c1-3-4-9-5-8(6-9)7(9)2/h7-8H,3-6H2,1-2H3/t7-,8-,9+/m1/s1
