18
gdb 36163	3.70076	1.24686	1.13902	1.9695	81.73	-0.231	0.0525	0.2835	1121.5118	0.146973	-364.678062	-364.670298	-364.669354	-364.710543	30.601	
C	-0.0129668579	-1.1986200314	-0.0186271182	-0.453273
C	 0.0155389725	 0.0012697275	 0.0324812135	 0.318872
C	 0.0654611943	 1.4582498471	 0.0771017814	-0.494374
C	 1.4693127817	 2.0075590275	-0.0621891385	 0.384824
C	 2.5225212246	 1.706071305	-1.1339873535	-0.298693
C	 3.2088157568	 2.6074202981	-0.1068082667	-0.006131
C	 1.9479955471	 3.4830197277	 0.1519306908	-0.115056
C	 2.0925249452	 3.2105779236	 1.6438308333	-0.195122
N	 2.5299260414	 1.8632390173	 1.0759129772	-0.175349
H	-0.0404756329	-2.2593749784	-0.0532823681	 0.19723
H	-0.5508596479	 1.8732248387	-0.7320118011	 0.136372
H	-0.376786735	 1.8196342933	 1.0145339424	 0.136046
H	 2.8710627042	 0.671728012	-1.1814719823	 0.118474
H	 2.3500396263	 2.1275099072	-2.1278289384	 0.097017
H	 4.2525401448	 2.91459372	-0.0271340731	 0.084733
H	 1.6246276006	 4.3793097943	-0.3896390818	 0.06368
H	 2.8909973606	 3.7285640866	 2.1849444441	 0.101392
H	 1.1901934436	 3.1604212037	 2.2619061289	 0.099358
61.3986	112.8752	258.2657	287.3932	339.2849	404.2866	433.1872	485.073	619.8779	637.1595	666.9583	715.3183	762.4598	829.1283	855.6448	881.5034	909.2537	925.5867	948.9292	971.8409	1008.7309	1026.8825	1062.6022	1082.3529	1098.1228	1138.8533	1155.6198	1169.9	1211.6869	1227.8076	1249.9865	1269.4149	1286.9379	1317.9532	1351.0592	1455.2063	1495.1665	1520.172	2242.7827	3015.1928	3031.5044	3044.1805	3048.5068	3060.208	3094.237	3107.9673	3128.2028	3507.1311
C#CCC12CC3C1CN23	C#CC[C@@]12C[C@H]3[C@@H]1CN23	
InChI=1S/C8H9N/c1-2-3-8-4-7-6(8)5-9(7)8/h1,6-7H,3-5H2	InChI=1S/C8H9N/c1-2-3-8-4-7-6(8)5-9(7)8/h1,6-7H,3-5H2/t6-,7-,8+/m0/s1
