14
gdb 130356	3.58967	1.06899	0.82379	11.8056	80.59	-0.1832	-0.0547	0.1285	1292.638	0.101898	-466.146313	-466.137827	-466.136883	-466.179756	30.367	
N	-0.1238498185	 1.3870597784	 0.0439424395	-0.522841
C	-0.0324758248	 0.0439346421	-0.0088933207	 0.175186
N	 1.0872117476	-0.6249684526	 0.0253240805	-0.333939
H	 1.9715161739	-0.1291080134	 0.0684995728	 0.284421
C	 1.1876655906	-2.0184960799	 0.0146824064	 0.297027
C	 2.327461519	-2.8094398609	 0.0387747252	 0.243433
O	 3.6172261077	-2.3886890499	 0.0829290641	-0.461118
N	 1.9321388326	-4.0761366473	 0.0108719225	-0.30988
N	 0.5739188244	-4.061305637	-0.0302109906	-0.155502
N	 0.1055776824	-2.8234973445	-0.0284794082	-0.308641
H	 0.6886578345	 1.9777244978	-0.0305881563	 0.281794
H	-1.013630403	 1.8188440421	-0.1341543572	 0.296837
H	-0.9392946178	-0.5486326621	-0.0504009328	 0.209777
H	 4.1590896213	-3.1880022027	 0.0917055849	 0.303447
98.6333	111.7154	130.4286	222.1524	290.992	292.9239	354.4035	405.617	410.6177	449.3364	537.9881	686.4606	707.9424	711.6242	772.0823	838.008	988.6141	992.8724	1069.373	1083.9735	1159.3514	1220.5582	1234.0629	1300.6481	1366.9512	1392.2428	1455.2017	1496.9114	1628.9447	1657.3436	1752.3396	3223.8744	3553.2668	3609.6213	3732.5455	3788.4752
NC=[NH+]C1=C(O)N=N[N-]1	[NH2]=CNc1c(O)nnn1	
InChI=1S/C3H4N5O/c4-1-5-2-3(9)7-8-6-2/h1H,(H3-,4,5,6,7,8,9)/q-1/p+1	InChI=1S/C3H6N5O/c4-1-5-2-3(9)7-8-6-2/h1H,4H2,(H3,5,6,7,8,9)
