14
gdb 56411	4.16003	0.66635	0.60579	3.5929	73.04	-0.2808	-0.0247	0.2561	1741.0891	0.098818	-436.620415	-436.61126	-436.610316	-436.6564	31.096	
O	-0.6168577733	 1.0081631216	 0.1580164796	-0.381243
C	 0.0833999107	-0.1878839723	-0.1276513448	-0.187513
C	 1.083222138	 0.0192781238	-1.205352373	 0.281504
N	 1.8545506357	 0.2079856333	-2.0439102442	-0.313901
C	 0.7243623465	-0.7903503969	 1.0439096261	 0.116344
C	 1.2345900161	-1.2644855247	 2.0258150402	 0.098578
C	 1.8735788868	-1.8408082689	 3.1779069151	-0.118225
C	 1.3490990747	-1.6182828278	 4.5414526862	-0.158394
O	 1.1566819303	-2.8627666354	 3.8851195237	-0.206309
H	 0.0000679213	 1.6220248555	 0.5745554498	 0.300659
H	-0.6768278059	-0.8766842607	-0.5167182752	 0.176309
H	 2.9385781811	-2.0397471787	 3.0670016175	 0.131323
H	 2.0461595529	-1.6246376833	 5.3780004573	 0.129145
H	 0.455837565	-1.0104762456	 4.6700907817	 0.131722
22.867	68.3111	102.8898	148.2823	225.6205	228.2773	312.6568	372.4186	429.1109	520.2292	549.9175	574.8377	621.3069	762.8552	843.8153	870.4895	932.4959	1003.6778	1049.2736	1083.5719	1151.76	1158.7761	1183.4181	1262.6997	1280.6457	1309.9124	1403.9163	1412.968	1518.7499	2360.8431	2366.1801	3045.7827	3090.2103	3123.4283	3185.2037	3798.6043
OC(C#N)C#CC1CO1	O[C@@H](C#N)C#C[C@H]1CO1	
InChI=1S/C6H5NO2/c7-3-5(8)1-2-6-4-9-6/h5-6,8H,4H2	InChI=1S/C6H5NO2/c7-3-5(8)1-2-6-4-9-6/h5-6,8H,4H2/t5-,6+/m1/s1
