23
gdb 116194	2.16694	1.37597	1.062	1.9643	81.37	-0.2449	0.0712	0.3161	1279.5601	0.204659	-425.441762	-425.431632	-425.430688	-425.476984	37.969	
C	-0.0289282615	 1.6227445549	-0.1141867646	-0.388776
C	-0.087169235	 0.0932996155	-0.0506164228	-0.208078
C	 0.7136647498	-0.5689009401	-1.1597788373	 0.132358
O	 2.0980838267	-0.3095933725	-0.9783206087	-0.266772
C	 2.7928294861	-1.1355669158	-1.9083488978	-0.07329
C	 1.9314844257	-2.4083788685	-2.0935189929	-0.30089
C	 0.6324257038	-2.1098766597	-1.288708147	 0.369476
C	 0.6350032506	-2.8298584043	 0.0608733386	-0.448402
O	-0.5574353551	-2.4007323799	-2.0144582257	-0.479519
H	 1.0043210962	 1.9721055701	-0.0384955332	 0.133168
H	-0.4403200989	 1.9944367027	-1.0591940403	 0.112551
H	-0.6039523233	 2.073505811	 0.700386997	 0.106781
H	 0.2891064431	-0.2496716726	 0.9193052756	 0.099949
H	-1.1243487679	-0.2513128228	-0.1388555219	 0.107901
H	 0.375366716	-0.1657758089	-2.1321855298	 0.065224
H	 2.9190608801	-0.605708513	-2.864276572	 0.09316
H	 3.7866534629	-1.3340216755	-1.4979867183	 0.10446
H	 1.667799255	-2.5652581668	-3.1419099517	 0.108873
H	 2.4392891083	-3.307006285	-1.7330594675	 0.097648
H	 1.4987069956	-2.5252899868	 0.6594229153	 0.13169
H	-0.2764591257	-2.6158880837	 0.6250451335	 0.123839
H	 0.7003617613	-3.9147804648	-0.0876155255	 0.102017
H	-0.7021951238	-3.3517496135	-1.9851192632	 0.276631
39.5951	98.7727	150.5868	176.3465	227.6809	263.4504	274.7776	296.0212	311.806	342.091	408.5378	493.4778	523.0854	590.4258	679.5395	759.5235	798.3781	816.8415	913.7333	942.147	952.914	973.8838	993.3252	998.8305	1055.9594	1069.7288	1112.0698	1138.8582	1162.2253	1180.8605	1202.1643	1244.6651	1258.7756	1273.3513	1302.9575	1335.6813	1349.8298	1389.1041	1391.0924	1406.2017	1408.5877	1426.2404	1476.3614	1488.7914	1496.4526	1497.2905	1502.8632	1509.0069	1523.9793	2934.4316	2988.9708	3025.8376	3035.5493	3036.0032	3060.0049	3075.9514	3081.3885	3094.1307	3102.1233	3112.3092	3120.0839	3123.1693	3815.9927
CCC1OCCC1(C)O	CC[C@H]1OCC[C@]1(C)O	
InChI=1S/C7H14O2/c1-3-6-7(2,8)4-5-9-6/h6,8H,3-5H2,1-2H3	InChI=1S/C7H14O2/c1-3-6-7(2,8)4-5-9-6/h6,8H,3-5H2,1-2H3/t6-,7+/m1/s1
