19
gdb 76743	2.01085	1.78062	1.15296	1.0491	71.6	-0.2245	0.064	0.2884	1108.6718	0.15606	-460.120773	-460.110896	-460.109951	-460.154953	36.85	
C	-0.1362334913	 1.6064475906	 0.0397852038	-0.417104
C	 0.0184264471	 0.0920291867	 0.0178057509	-0.062352
C	 1.1105001852	-0.5468216711	-0.938829171	 0.011546
O	 1.9991606673	 0.3197441119	-1.6163888801	-0.431921
C	 1.7327982134	-1.2432562088	 0.2577206872	 0.311772
O	 2.2247841164	-2.5365792637	 0.2529295102	-0.471292
C	 2.1427721188	-0.2220815045	 1.3083589366	-0.429098
C	 0.6928108487	-0.6169385908	 1.1872642379	 0.359631
O	-0.0867741793	-1.1283325933	 2.2068548117	-0.465113
H	 0.822268107	 2.110964369	 0.1856908995	 0.125865
H	-0.5605246314	 1.9693543916	-0.9035990971	 0.103179
H	-0.8110071408	 1.9154572255	 0.8442527098	 0.125329
H	-0.9484315247	-0.3846581431	-0.1736020498	 0.081379
H	 0.6592242615	-1.2728570323	-1.6271106362	 0.075368
H	 1.5233731312	 0.7339676635	-2.3434219631	 0.284609
H	 3.1556887624	-2.5050009943	 0.0039198973	 0.288253
H	 2.6461237684	-0.6877486468	 2.1528163181	 0.101353
H	 2.5229359379	 0.7605845586	 1.0436404504	 0.120546
H	 0.4700735221	-1.6609604089	 2.784891264	 0.288051
97.5203	113.2782	158.976	212.4676	218.056	249.0815	260.7355	286.3115	316.0407	370.8939	415.1565	489.5251	500.5005	636.9003	655.0577	716.6927	754.7526	822.9394	838.4677	909.8767	976.1502	1003.1787	1028.0705	1056.3834	1113.5231	1131.8316	1142.7535	1158.4007	1199.6864	1224.4715	1272.1035	1285.3625	1333.3524	1347.2463	1393.3795	1414.5725	1419.7547	1437.9331	1493.6338	1497.3216	1521.3089	3019.4944	3032.8785	3056.9925	3094.0028	3105.415	3120.2158	3190.113	3783.4554	3811.6987	3814.635
CC1C(O)C2(O)CC12O	C[C@H]1[C@@H](O)[C@@]2(O)C[C@@]12O	
InChI=1S/C6H10O3/c1-3-4(7)6(9)2-5(3,6)8/h3-4,7-9H,2H2,1H3	InChI=1S/C6H10O3/c1-3-4(7)6(9)2-5(3,6)8/h3-4,7-9H,2H2,1H3/t3-,4+,5+,6-/m0/s1
