20
gdb 63152	2.29677	1.67346	1.33885	1.8578	78.98	-0.2252	-0.0244	0.2007	1070.3601	0.169709	-403.127068	-403.118088	-403.117144	-403.16089	33.802	
C	 0.1384610736	 1.5524871044	 0.0886581862	-0.446976
C	 0.0492540575	 0.0317383612	 0.0482105356	 0.175541
C	-1.4000252699	-0.4410608434	 0.2152015405	-0.40854
N	 0.6603037562	-0.7035382919	-1.1343327539	-0.165785
C	 1.9073192745	-0.1081430291	-1.7242731422	-0.171815
C	 2.822731819	-1.0167086719	-0.8608910045	-0.254097
C	 1.5215485051	-1.5514437903	-0.2133398215	-0.103281
C	 1.0021388634	-0.7477150728	 0.9859383249	 0.359853
O	 1.2618485225	-0.7013770794	 2.1526251756	-0.302774
H	 1.167011102	 1.9197780129	 0.1217034561	 0.123638
H	-0.3587538816	 1.98692552	-0.7855974142	 0.127848
H	-0.3667252644	 1.9225147541	 0.9852026775	 0.136135
H	-2.0201031329	-0.0123648529	-0.5783105927	 0.124199
H	-1.4700366521	-1.5297176109	 0.1425743482	 0.123001
H	-1.796618293	-0.1295059899	 1.1865510761	 0.124233
H	 1.9593650573	-0.3023321346	-2.7991490405	 0.112751
H	 2.024725049	 0.9674890457	-1.5714724704	 0.106413
H	 3.3750215883	-1.7705603442	-1.4242981906	 0.11808
H	 3.513287446	-0.5148519277	-0.1796222866	 0.120396
H	 1.3614497295	-2.6328754993	-0.1895639836	 0.10118
44.8746	141.0608	176.6624	198.6614	225.7786	273.112	288.6284	351.8967	424.9525	479.0607	618.8125	659.6023	699.5564	742.3089	772.7422	829.3428	900.4794	925.0512	947.3069	968.2346	980.0555	996.2871	1020.4761	1058.4297	1081.3496	1151.075	1176.8166	1200.4475	1202.4771	1221.621	1251.2337	1268.4066	1289.7164	1313.962	1390.7055	1410.1421	1475.1374	1479.5582	1486.8151	1494.3491	1501.6368	1522.4245	1888.8598	3035.4882	3039.318	3056.6471	3068.3509	3075.4767	3097.4275	3109.399	3113.7213	3117.6241	3120.6358	3129.4222
CC1(C)N2CCC2C1=O	CC1(C)N2CC[C@H]2C1=O	
InChI=1S/C7H11NO/c1-7(2)6(9)5-3-4-8(5)7/h5H,3-4H2,1-2H3	InChI=1S/C7H11NO/c1-7(2)6(9)5-3-4-8(5)7/h5H,3-4H2,1-2H3/t5-/m0/s1
