15
gdb 30981	3.26696	1.2657	0.92209	4.9366	64.49	-0.1992	0.0462	0.2455	1194.6757	0.112649	-491.117174	-491.108442	-491.107497	-491.150969	31.371	
C	-0.2803445334	 0.5793921355	-0.6666572156	-0.23795
O	 0.1263474404	 0.8068142179	 0.6828001472	-0.265314
C	 0.6613684574	-0.2287837767	 1.3382787529	 0.394416
C	 0.9415357582	-1.5150814333	 1.0538771861	 0.122663
N	 0.7730733632	-2.2925882724	-0.0833652724	-0.60071
O	 1.5182007045	-2.0896233266	 2.2172762806	-0.23769
C	 1.5848713624	-1.1442094155	 3.204547792	 0.48046
O	 2.0234862077	-1.3210711864	 4.3092533919	-0.407311
N	 1.0525036512	 0.0041833106	 2.6526749496	-0.439822
H	-1.0466822615	-0.1992538571	-0.7177314379	 0.138488
H	-0.6833054692	 1.530632159	-1.0157056542	 0.136832
H	 0.5695098602	 0.2771498399	-1.2851576488	 0.138542
H	 0.1608300214	-3.0876458872	 0.0760202984	 0.249634
H	 1.6534608058	-2.646615372	-0.4466084681	 0.249632
H	 0.9675961517	 0.8760234343	 3.1450910285	 0.278131
48.2053	147.839	185.9115	217.4718	220.5694	314.3755	323.1831	349.4875	383.8693	439.7713	576.9266	634.467	643.4553	701.8599	766.9114	810.4022	834.3615	982.127	993.8983	1070.605	1179.893	1214.1414	1226.281	1226.3462	1307.9471	1332.9353	1446.9716	1482.1306	1492.6009	1508.0937	1665.2639	1799.7827	1895.5399	3042.8373	3115.9526	3151.8639	3480.6228	3538.9959	3693.2396
COC1=C(N)OC(=O)N1	COc1c(N)oc(=O)[nH]1	
InChI=1S/C4H6N2O3/c1-8-3-2(5)9-4(7)6-3/h5H2,1H3,(H,6,7)	InChI=1S/C4H6N2O3/c1-8-3-2(5)9-4(7)6-3/h5H2,1H3,(H,6,7)
