21
gdb 115356	2.2986	1.3026	1.03944	2.2403	73.14	-0.2484	0.048	0.2964	1232.0946	0.183182	-461.363451	-461.354078	-461.353134	-461.397991	35.722	
O	 0.2412748181	 1.1616851905	-0.5615031117	-0.423707
C	 0.0722363873	-0.2191655421	-0.2661458488	-0.064641
C	-1.385705117	-0.5760523046	 0.0339985698	-0.053087
C	-2.3514473711	-0.1685853718	-1.112062254	-0.22797
C	-3.3380426943	-1.3465150916	-1.2542929196	-0.250411
C	-2.4897373724	-2.5745552099	-0.9340892478	 0.096291
O	-1.6468934738	-2.9745699156	-2.0233498969	-0.450697
C	-1.6092917576	-2.117003657	 0.256212005	 0.106338
O	-0.4296796238	-2.8840031256	 0.358375682	-0.437191
H	 0.0203233655	 1.6597173394	 0.2321101567	 0.279562
H	 0.4132607926	-0.7507309972	-1.1618763484	 0.09132
H	 0.7198738705	-0.5425793443	 0.5584221371	 0.108368
H	-1.671680405	-0.0484844226	 0.953129516	 0.062
H	-2.8602754709	 0.779335055	-0.92464495	 0.103601
H	-1.7837721565	-0.0172224815	-2.0395325804	 0.10031
H	-4.1379027271	-1.2652480115	-0.508793908	 0.10784
H	-3.8134855537	-1.4130500286	-2.2372160074	 0.106219
H	-3.076300907	-3.4636377759	-0.6891447573	 0.087539
H	-1.3828667026	-2.187015769	-2.5116016845	 0.290554
H	-2.1686949739	-2.2658214695	 1.1870554909	 0.081601
H	-0.2705627073	-3.2202471766	-0.5362026629	 0.28616
35.1397	119.753	181.5534	195.2314	281.9958	286.2226	300.7276	307.4528	391.2539	450.97	502.6887	535.548	572.5152	634.9088	754.5566	812.7802	830.117	859.4937	884.0511	950.2036	999.3974	1011.4752	1036.3887	1062.8595	1095.8915	1109.9104	1125.548	1154.0457	1200.0505	1212.298	1251.5987	1267.7859	1289.3679	1320.7291	1329.8698	1336.9475	1359.2061	1367.5721	1388.479	1417.2269	1422.8134	1451.8854	1484.4395	1497.3325	1509.1088	3006.4798	3023.2302	3024.8051	3036.9169	3042.2221	3070.2344	3085.3692	3092.39	3100.9164	3715.8252	3807.7294	3812.2526
OCC1CCC(O)C1O	OC[C@H]1CC[C@@H](O)[C@H]1O	
InChI=1S/C6H12O3/c7-3-4-1-2-5(8)6(4)9/h4-9H,1-3H2	InChI=1S/C6H12O3/c7-3-4-1-2-5(8)6(4)9/h4-9H,1-3H2/t4-,5-,6+/m1/s1
