19
gdb 59636	3.12252	1.1346	1.02613	2.5398	73.01	-0.2282	0.0501	0.2783	1241.9968	0.160208	-456.373948	-456.364868	-456.363924	-456.407896	34.164	
C	 0.1096045277	 1.518728973	-0.1234208839	-0.402823
C	 0.0004806023	 0.0138103436	 0.1222610003	 0.129635
O	 0.5860174865	-0.3619094472	 1.3602826028	-0.441595
C	-1.4592169017	-0.4780172578	 0.0690345344	 0.003341
C	-1.5782233704	-2.0223358694	 0.1754794528	-0.129049
O	-2.51258103	-2.2330320341	 1.2597823726	-0.249856
C	-2.7237152307	-1.0049414454	 1.7919761706	 0.473266
N	-3.4698933745	-1.0181259956	 2.9351070968	-0.57461
N	-2.2064569532	 0.0222967431	 1.2325275337	-0.377191
H	 1.1495756542	 1.839091024	-0.0196832941	 0.117344
H	-0.2367305567	 1.7803951516	-1.129316721	 0.105782
H	-0.5028191486	 2.0659707289	 0.5994936286	 0.132213
H	 0.5749888544	-0.5216466062	-0.6451137472	 0.078488
H	-0.0110216269	-0.0203133487	 2.0401143116	 0.283193
H	-1.9203890793	-0.1059259334	-0.8558252457	 0.07277
H	-1.9827542298	-2.5020152447	-0.7182650474	 0.113247
H	-0.6278534776	-2.4875753913	 0.4522295253	 0.130031
H	-4.0582384369	-1.8256520733	 3.0643078159	 0.266117
H	-3.8863903287	-0.1334848972	 3.1770405238	 0.269699
66.3375	88.5279	172.928	229.3488	244.0729	290.8519	336.3791	383.2361	435.8023	452.5633	494.6095	514.7989	621.9641	700.4181	725.2806	751.777	831.9144	909.1443	943.2428	980.238	999.0533	1035.8818	1045.7489	1063.4763	1111.6347	1150.2772	1181.0407	1236.9973	1268.8799	1301.1623	1339.7971	1354.659	1386.2857	1399.9803	1427.0211	1440.1599	1490.3327	1500.5481	1514.0472	1619.9368	1742.7224	3004.6709	3025.0785	3036.9765	3061.2034	3107.4506	3116.4531	3124.4362	3599.7717	3715.136	3748.8843
CC(O)C1COC(N)=N1	C[C@@H](O)[C@H]1COC(=N1)N	
InChI=1S/C5H10N2O2/c1-3(8)4-2-9-5(6)7-4/h3-4,8H,2H2,1H3,(H2,6,7)	InChI=1S/C5H10N2O2/c1-3(8)4-2-9-5(6)7-4/h3-4,8H,2H2,1H3,(H2,6,7)/t3-,4-/m1/s1
