20
gdb 120468	3.57284	0.88035	0.76485	2.8045	78.56	-0.2417	0.0351	0.2768	1537.2619	0.169688	-440.293945	-440.283794	-440.28285	-440.330272	34.629	
C	 0.6063288025	 0.7780806917	-0.5067158694	-0.239571
O	 1.0014323675	 0.4224366125	 0.7994128178	-0.231253
C	 0.0046983432	-0.2466086881	 1.5475421206	-0.078378
C	-0.1333425772	-1.7229743484	 1.1883800243	-0.174561
C	 1.0454676117	-2.6527054916	 1.5998377021	-0.185541
N	 0.1144777409	-3.3276429402	 2.5084264662	-0.069816
C	 0.2693060995	-4.4343853206	 3.4145818926	-0.343924
C	-0.9755921982	-2.5595445574	 2.1868685544	 0.39567
O	-2.116205807	-2.5660640616	 2.5745745722	-0.380857
H	-0.2982562341	 1.4057119063	-0.4984783521	 0.109221
H	 1.4280097248	 1.3491207015	-0.9457964914	 0.129941
H	 0.4114232676	-0.0961027895	-1.1457747712	 0.105846
H	 0.3058982864	-0.1530748828	 2.5970972873	 0.110852
H	-0.9712342641	 0.2505018807	 1.4364194927	 0.107383
H	-0.4583227238	-1.8559498726	 0.1534197225	 0.100652
H	 1.4383311174	-3.2972291289	 0.805470856	 0.108194
H	 1.8777874868	-2.1472125732	 2.1021755818	 0.117554
H	 1.0144132983	-4.2189764141	 4.1903302331	 0.128794
H	-0.6975363813	-4.6079237472	 3.8932719375	 0.16195
H	 0.5720914289	-5.3481455866	 2.8881518629	 0.127843
47.6087	73.6225	105.2024	131.5948	153.2551	167.4818	204.9959	243.3625	288.2585	406.1472	444.2904	541.7958	649.8457	756.4885	795.5771	865.5809	921.1283	959.1882	993.0318	1047.1909	1098.3564	1118.7094	1126.9065	1147.0166	1174.8169	1182.3507	1191.9476	1225.6572	1257.6265	1283.177	1310.7513	1355.198	1401.3794	1424.9571	1448.5042	1476.0607	1482.1087	1489.4012	1493.7614	1509.4027	1512.7689	1535.0853	1871.4361	2977.1209	2992.9465	3013.0922	3024.7186	3030.1463	3061.8687	3063.5179	3072.5292	3092.6289	3114.3096	3128.5584
COCC1CN(C)C1=O	COC[C@H]1CN(C)C1=O	
InChI=1S/C6H11NO2/c1-7-3-5(4-9-2)6(7)8/h5H,3-4H2,1-2H3	InChI=1S/C6H11NO2/c1-7-3-5(4-9-2)6(7)8/h5H,3-4H2,1-2H3/t5-/m1/s1
