20
gdb 52145	5.35139	0.71601	0.70919	2.977	82.09	-0.2246	-0.0197	0.2049	1625.8245	0.170146	-403.07363	-403.065037	-403.064092	-403.1083	31.813	
O	-1.3062553676	 1.3777865969	-3.3411590525	-0.237459
C	-0.4012496131	 1.4290860475	-2.5488264067	 0.157561
C	 0.7931339396	 2.3474489205	-2.6466616329	-0.265065
C	 0.968519941	 3.1991332732	-1.3793478769	-0.169988
N	 2.2815097262	 3.8396642927	-1.3987712912	-0.103797
C	 2.5966463692	 4.8933707121	-0.3477253021	-0.010699
C	 3.7382956806	 5.3437938558	-1.2951302784	-0.206213
C	 2.4597617614	 5.1555125401	-2.1514450006	-0.012068
C	 1.6723857788	 5.9277670711	-1.0537287109	-0.240152
H	-0.3919564387	 0.7661813281	-1.6502354994	 0.069051
H	 1.6933636407	 1.7276358183	-2.7588501819	 0.129599
H	 0.6878412056	 2.9677554667	-3.5411976032	 0.118657
H	 0.1092107448	 3.8810377865	-1.2836906015	 0.096074
H	 0.9492040388	 2.5439900287	-0.4981291248	 0.104498
H	 2.6563233975	 4.6398477772	 0.7124240857	 0.081367
H	 4.1057259766	 6.363888086	-1.1753481705	 0.096063
H	 4.5279536078	 4.611173449	-1.4614442799	 0.105463
H	 2.3605066582	 5.2164593774	-3.236287821	 0.084667
H	 0.5958938087	 5.7708597375	-0.9933195262	 0.104973
H	 1.9153588439	 6.9853923146	-0.920753135	 0.097468
52.8302	65.329	82.4307	152.3597	280.999	343.4515	352.7724	523.8201	555.3367	596.2685	738.2159	783.7452	786.025	804.8724	867.3134	885.8969	899.1592	906.0308	997.2966	999.0891	1008.3919	1057.1327	1069.6486	1094.9902	1114.888	1122.3324	1143.4935	1180.4708	1184.8612	1192.722	1218.8595	1225.1483	1264.9607	1268.1815	1279.6989	1319.6447	1388.4971	1431.0825	1465.4023	1479.2054	1498.9218	1530.5529	1836.4024	2844.0581	2976.301	3026.0439	3032.6285	3067.5943	3079.5777	3097.2509	3102.4384	3108.1529	3141.2319	3161.2884
O=CCCN1C2CC1C2	O=CCCN1[C@H]2C[C@@H]1C2	
InChI=1S/C7H11NO/c9-3-1-2-8-6-4-7(8)5-6/h3,6-7H,1-2,4-5H2	InChI=1S/C7H11NO/c9-3-1-2-8-6-4-7(8)5-6/h3,6-7H,1-2,4-5H2/t6-,7+
