16
gdb 71279	2.68121	2.01798	1.42942	1.5648	67.11	-0.2396	-0.0331	0.2066	901.5596	0.125192	-437.861284	-437.854379	-437.853435	-437.89233	28.005	
O	 0.0412178488	 1.395697597	 0.0649877939	-0.492637
C	-0.0174697873	 0.0215032514	-0.0043517282	 0.310032
C	 0.2627707589	-0.6969282858	-1.3587011884	-0.218241
N	-0.9060343391	-1.6220300547	-1.1723518859	-0.145124
C	-0.8678582481	-2.1542437894	 0.2230062786	-0.027184
C	 0.4211341972	-2.1569811285	 1.0320870483	-0.369477
C	 0.8116361268	-0.6814502481	 1.0580452214	 0.365919
O	 1.5901351164	-0.1109222502	 1.7803711263	-0.342026
C	-1.3612232968	-0.7767117791	-0.020514661	-0.126959
H	 0.6776100772	 1.6006254274	 0.7689570513	 0.294028
H	 0.0413037122	-0.0236925529	-2.189118138	 0.13611
H	 1.2335913253	-1.178836188	-1.523276219	 0.106069
H	-1.5659824207	-2.9723303463	 0.357921197	 0.110985
H	 0.2503435451	-2.5194115349	 2.050679697	 0.144388
H	 1.2245916597	-2.7665329715	 0.603486511	 0.144178
H	-2.3668323955	-0.3895860963	 0.0904567959	 0.109941
113.4365	268.9007	312.5162	346.2433	388.7804	449.3499	497.3728	500.3406	646.5505	653.5039	706.6393	743.1043	775.9913	791.8536	907.5168	922.3712	970.8655	997.2136	1017.1967	1035.6339	1053.5386	1073.1759	1130.1161	1163.4636	1178.3804	1198.0252	1244.5956	1272.3815	1279.2935	1365.41	1378.3442	1417.8816	1447.6844	1501.1923	1842.3153	3035.6412	3051.6459	3093.9571	3119.155	3179.4685	3193.2906	3688.6627
OC12CN3C(CC1=O)C23	O[C@@]12CN3[C@@H](CC1=O)[C@@H]23	
InChI=1S/C6H7NO2/c8-4-1-3-5-6(4,9)2-7(3)5/h3,5,9H,1-2H2	InChI=1S/C6H7NO2/c8-4-1-3-5-6(4,9)2-7(3)5/h3,5,9H,1-2H2/t3-,5-,6-,7?/m0/s1
