18
gdb 46923	3.37171	1.38077	1.07851	5.228	71.99	-0.2475	0.0497	0.2972	1107.7205	0.150674	-439.111088	-439.103439	-439.102495	-439.143413	29.752	
O	-0.0392266413	-0.0992951436	 0.3044149866	-0.383308
C	-0.0066360119	 1.0787682236	 0.0411686156	 0.452009
N	-1.1415257234	 1.8558427043	 0.1213061829	-0.353491
C	-1.4199520269	 3.2509351795	-0.2122208634	-0.203224
C	-0.8716293631	 3.6579066658	-1.5641858402	-0.001611
C	-0.0368717162	 4.9072359728	-1.6892703597	-0.319583
C	 0.624558574	 3.5515992832	-1.7300201299	-0.015799
C	 1.3873097673	 3.0309755918	-0.5420082376	-0.095961
O	 1.1792504946	 1.6250819192	-0.3411493333	-0.244346
H	-1.9136067734	 1.2992924946	 0.4497785632	 0.25661
H	-2.5084217531	 3.3580123969	-0.2019574413	 0.117717
H	-1.0462618534	 3.9266020097	 0.56806265	 0.11255
H	-1.4788527558	 3.370037595	-2.4161487437	 0.098848
H	-0.0902991008	 5.4718490664	-2.6126664835	 0.123587
H	 0.0988186936	 5.5191738928	-0.8026292725	 0.117438
H	 0.9906220033	 3.2051144247	-2.6910936871	 0.102654
H	 2.4662189515	 3.1178349349	-0.6926440047	 0.124777
H	 1.142004635	 3.5833171784	 0.3714699584	 0.111134
75.4311	136.14	255.3099	281.5921	348.	373.8496	438.5122	494.7366	508.0936	634.2102	715.7494	758.9638	764.557	813.9872	832.9367	865.951	954.4231	972.8363	1003.9466	1031.0362	1067.5788	1076.7026	1135.0376	1136.8807	1168.0881	1183.6835	1227.3076	1279.4627	1285.6091	1298.7107	1380.1689	1386.0696	1427.7633	1438.5297	1474.5289	1493.2451	1506.0829	1526.005	1821.4495	3010.695	3049.1509	3079.4969	3099.8337	3132.2293	3157.5717	3166.8731	3220.2172	3649.0311
O=C1NCC2CC2CO1	O=C1NC[C@H]2C[C@H]2CO1	
InChI=1S/C6H9NO2/c8-6-7-2-4-1-5(4)3-9-6/h4-5H,1-3H2,(H,7,8)	InChI=1S/C6H9NO2/c8-6-7-2-4-1-5(4)3-9-6/h4-5H,1-3H2,(H,7,8)/t4-,5+/m1/s1
