13
gdb 10015	4.25495	1.22955	0.9643	2.1855	59.59	-0.2622	-0.0996	0.1626	1115.8027	0.091693	-435.755724	-435.747021	-435.746077	-435.790337	28.097	
C	-0.0519899733	 1.5256910295	 0.1777312647	-0.316982
N	 0.1140951871	 0.0806965592	 0.1569427985	-0.279147
C	 0.5965997986	-0.5291808846	-0.8323814085	 0.340921
O	 0.7454005841	-1.9021985144	-0.8388318654	-0.224391
C	-0.0131381866	-2.6691687339	 0.0156329876	 0.176988
O	 0.1798578321	-3.8383794823	 0.1154908468	-0.247055
C	 1.1252176679	 0.0146591101	-2.137539584	 0.096035
O	 1.1815617732	 1.1909068385	-2.3867980697	-0.231511
H	 0.9205675845	 2.0295905765	 0.1917998681	 0.150454
H	-0.5912861489	 1.9000020459	-0.6976300366	 0.147651
H	-0.5982651272	 1.7938725621	 1.0843323521	 0.131835
H	-0.7768830982	-2.0792236496	 0.5379847127	 0.132492
H	 1.4612780868	-0.768087567	-2.8461983462	 0.12271
43.3981	79.2575	106.159	158.1964	184.5638	231.5648	295.945	387.9661	437.269	511.25	527.1793	811.5937	856.0956	1021.6746	1042.2355	1059.7433	1094.4784	1105.0501	1159.7424	1220.4736	1392.6155	1414.468	1430.8654	1477.9945	1498.5167	1728.4534	1823.935	1874.8166	2946.3185	3033.8774	3073.7278	3097.0871	3121.935
CN=C(OC=O)C=O	CN=C(OC=O)C=O	
InChI=1S/C4H5NO3/c1-5-4(2-6)8-3-7/h2-3H,1H3	InChI=1S/C4H5NO3/c1-5-4(2-6)8-3-7/h2-3H,1H3
