18
gdb 13353	4.86872	1.15394	1.07774	4.0933	69.21	-0.2737	0.0124	0.2861	1134.4655	0.154664	-384.983098	-384.97516	-384.974216	-385.017209	28.242	
O	 0.9491757776	-0.0613871397	 0.1877656567	-0.280797
C	 0.5726472485	 1.057067406	-0.000624626	 0.166101
O	 1.2553349945	 2.1373244472	 0.4102665975	-0.192052
C	 0.7299914746	 3.4492913389	 0.1019672651	 0.114783
C	 0.7132051877	 4.2892031968	 1.4006178328	-0.218873
C	 1.9421919777	 5.2372997971	 1.3204629251	-0.198564
C	 2.7776183156	 4.7162946638	 0.1339341832	-0.198113
C	 1.7146543079	 4.1676811218	-0.8293383165	-0.212111
H	-0.3701241318	 1.3172285673	-0.5223904355	 0.072959
H	-0.2652113949	 3.3268038093	-0.3389130372	 0.079893
H	-0.2224517429	 4.8483614143	 1.4863022885	 0.105796
H	 0.7658894908	 3.6139211279	 2.2574275915	 0.124172
H	 1.6118810965	 6.2623327273	 1.1204394307	 0.101432
H	 2.5085472825	 5.2623334017	 2.2543971503	 0.105734
H	 3.4091704526	 5.4868519098	-0.3153514034	 0.097903
H	 3.429705708	 3.8982396124	 0.4577755962	 0.120375
H	 2.1054041397	 3.5026406433	-1.6033774773	 0.109482
H	 1.1907708953	 4.9940082248	-1.3261178317	 0.101878
32.1235	43.3687	151.6685	194.8178	290.085	359.639	429.1499	562.334	625.2094	711.6067	798.0897	862.8328	894.6921	902.2906	909.8884	943.9303	995.8417	1016.4828	1046.0587	1050.1542	1095.3776	1171.3329	1186.1326	1220.6567	1226.0564	1253.6595	1294.3927	1313.3625	1340.6926	1350.1641	1357.2599	1384.3862	1442.3732	1476.6556	1479.9074	1494.029	1511.9353	1861.2951	2936.1153	3031.7852	3045.3169	3048.3471	3053.7963	3069.8283	3094.6521	3102.5342	3108.1563	3119.402
O=COC1CCCC1	O=COC1CCCC1	
InChI=1S/C6H10O2/c7-5-8-6-3-1-2-4-6/h5-6H,1-4H2	InChI=1S/C6H10O2/c7-5-8-6-3-1-2-4-6/h5-6H,1-4H2
