20
gdb 7494	3.7769	1.1826	1.08307	0.7855	71.02	-0.2511	0.0609	0.3121	1191.7591	0.175616	-386.121956	-386.112954	-386.11201	-386.155716	32.936	
C	-0.0474503801	 1.5665175066	 0.076268432	-0.382372
C	-0.002715731	 0.0363523786	 0.0992924338	-0.173032
C	-1.3880873045	-0.5957113702	-0.0758494088	-0.193762
C	-1.3802387744	-2.1199832013	-0.0799961129	 0.331624
O	-0.5594594484	-2.5374856208	-1.1442277244	-0.472935
C	-1.1585630794	-2.779298881	 1.3102936554	-0.126686
O	-2.5599614178	-3.0937780703	 1.4183234088	-0.270721
C	-2.7891487569	-2.7602597433	 0.0353768499	-0.130744
H	 0.951328799	 1.9957294019	 0.2024185257	 0.111879
H	-0.4502914963	 1.9358223881	-0.87343197	 0.115022
H	-0.6824974388	 1.9596067297	 0.8783235435	 0.112367
H	 0.6560462894	-0.332220454	-0.6931443164	 0.118552
H	 0.4372567008	-0.3010013011	 1.0470617979	 0.091977
H	-2.0605377604	-0.2598000657	 0.7233176027	 0.103764
H	-1.828608994	-0.2581710196	-1.0232176314	 0.101519
H	-0.526642962	-3.4999355312	-1.1476539464	 0.280021
H	-0.5317749485	-3.6834781883	 1.2660826143	 0.08557
H	-0.8109835166	-2.143992398	 2.1324113598	 0.107094
H	-3.6585367166	-2.1064257561	-0.0981160801	 0.105724
H	-2.9107045536	-3.6551578338	-0.5941700733	 0.085139
79.0673	103.2369	121.9181	170.161	251.6444	301.6547	317.207	345.0846	364.8211	441.7474	484.4357	697.4686	753.6012	833.5118	871.1908	889.9637	942.8937	949.9591	1004.2322	1019.0336	1029.1801	1051.9069	1085.2804	1129.9154	1146.8338	1156.6307	1164.0455	1228.0183	1284.5219	1294.339	1314.0257	1338.4393	1371.0282	1388.4382	1413.7471	1420.7415	1475.2022	1493.9963	1501.0533	1503.5584	1510.9555	1529.4904	2977.5197	2989.5345	3017.5995	3026.0689	3029.858	3057.8549	3060.0982	3063.6707	3078.9564	3100.8108	3102.8446	3807.5789
CCCC1(O)COC1	CCCC1(O)COC1	
InChI=1S/C6H12O2/c1-2-3-6(7)4-8-5-6/h7H,2-5H2,1H3	InChI=1S/C6H12O2/c1-2-3-6(7)4-8-5-6/h7H,2-5H2,1H3
