20
gdb 72913	2.64705	1.78555	1.40886	1.2781	77.2	-0.2363	0.0736	0.3099	990.4654	0.173089	-403.122138	-403.11458	-403.113636	-403.153673	31.32	
O	 0.0384506635	 1.2836043925	-0.418520847	-0.489237
C	 0.0350437468	-0.0556513667	 0.0426490227	 0.416468
C	 0.3354194665	-1.0984543979	-1.0785679577	-0.274474
C	-1.1777752796	-1.4498842113	-1.1476842371	-0.219149
C	-1.4221454921	-0.6116864179	 0.1416892486	-0.043746
C	-1.4696344441	-1.363169015	 1.456633913	-0.057315
N	-0.4530464917	-2.4374012055	 1.5617949027	-0.339429
C	-0.2077482713	-1.1372503935	 2.2171577867	-0.028816
C	 0.7135072383	-0.2257755077	 1.4258208145	-0.297945
H	 0.9298269013	 1.4879865359	-0.7218816493	 0.27291
H	 0.7705129631	-0.6662614451	-1.9844255914	 0.081027
H	 0.9504072699	-1.9307600903	-0.7336472924	 0.113038
H	-1.6775876104	-1.0293958818	-2.0228158903	 0.098043
H	-1.4211629509	-2.5103784337	-1.0695892869	 0.10212
H	-2.2045829867	 0.1484827095	 0.0882960222	 0.073794
H	-2.4187755025	-1.5070304239	 1.9630007966	 0.080782
H	-0.7534270453	-3.1151423058	 2.2574403152	 0.229073
H	-0.1956416988	-1.0982975734	 3.3022193876	 0.082888
H	 1.7309434462	-0.6255821494	 1.3507058577	 0.097281
H	 0.763231598	 0.7566475512	 1.9077571944	 0.102685
120.9903	219.144	269.9124	272.5687	359.3878	374.4168	418.6124	480.4128	620.7878	631.419	669.4887	735.8782	796.499	834.4779	856.2002	859.8381	897.1546	920.9201	956.7783	964.0596	985.4549	1006.5555	1047.9072	1071.6584	1099.1675	1121.2492	1128.8236	1165.8951	1185.0908	1201.2714	1224.0658	1234.6095	1263.5276	1275.3463	1283.0985	1305.8036	1326.5011	1361.5189	1386.1121	1420.119	1457.3282	1474.9157	1481.7514	3036.7792	3054.9853	3072.5206	3084.6436	3088.3995	3121.4097	3137.0652	3150.744	3162.1865	3503.6226	3798.0259
OC12CCC1C1NC1C2	O[C@]12CC[C@H]1[C@H]1N[C@H]1C2	
InChI=1S/C7H11NO/c9-7-2-1-4(7)6-5(3-7)8-6/h4-6,8-9H,1-3H2	InChI=1S/C7H11NO/c9-7-2-1-4(7)6-5(3-7)8-6/h4-6,8-9H,1-3H2/t4-,5-,6+,7-/m0/s1
