18
gdb 7787	3.25452	1.83122	1.23308	4.2369	68.87	-0.2344	0.0597	0.2941	984.0066	0.156577	-381.184301	-381.17648	-381.175536	-381.216444	29.573	
C	 0.0008907934	 1.5675612761	 0.0039340756	-0.405155
C	 0.0530143509	 0.0403730305	-0.013582166	 0.065474
C	 0.700996226	-0.509235311	-1.2865220095	-0.189321
C	 0.8537202725	-2.0263623223	-1.1897891495	-0.17006
N	 1.5615365083	-2.3602559256	 0.0341989136	-0.335657
C	 1.421324783	-1.6796669389	 1.2254517104	 0.432817
O	 1.8489283361	-2.116210299	 2.2807623061	-0.417878
N	 0.8198703159	-0.4412711917	 1.1293894992	-0.343838
H	 1.0084754613	 1.9884971918	-0.0702108617	 0.128524
H	-0.5990345006	 1.9417894968	-0.8312411918	 0.119547
H	-0.4539144096	 1.9343325057	 0.9305514426	 0.116982
H	-0.9828267161	-0.3388384378	 0.0315349937	 0.076248
H	 0.0893019756	-0.2505414654	-2.155819205	 0.10337
H	 1.6872370457	-0.0489967969	-1.4147578864	 0.11501
H	-0.1400326931	-2.5016767383	-1.2303864136	 0.101336
H	 1.424628855	-2.4062089915	-2.0437914074	 0.110888
H	 1.900991311	-3.2998863144	 0.1623509013	 0.248241
H	 0.6431885247	-0.0284857181	 2.0321650684	 0.243472
87.6451	124.2955	234.086	250.9702	282.3114	429.1123	436.6195	461.7032	492.0441	556.3227	563.8448	676.3199	762.0365	813.9499	900.2428	930.4024	980.0611	988.5573	1017.8527	1090.9906	1149.5354	1155.6099	1197.5795	1213.8828	1262.1822	1330.9964	1353.5338	1377.1647	1387.4398	1410.6766	1429.2254	1453.3424	1475.9362	1485.4296	1495.1204	1499.9057	1530.2137	1802.8274	2940.1041	2967.1594	3033.1019	3043.7102	3061.6926	3098.3211	3101.4178	3115.7025	3631.5712	3646.447
CC1CCNC(=O)N1	C[C@H]1CCNC(=O)N1	
InChI=1S/C5H10N2O/c1-4-2-3-6-5(8)7-4/h4H,2-3H2,1H3,(H2,6,7,8)	InChI=1S/C5H10N2O/c1-4-2-3-6-5(8)7-4/h4H,2-3H2,1H3,(H2,6,7,8)/t4-/m0/s1
