22
gdb 78537	2.27528	1.54429	1.2156	1.8528	87.52	-0.1956	0.0816	0.2772	1179.4752	0.192577	-367.135126	-367.125714	-367.12477	-367.16854	36.612	
C	-0.1550711501	 1.6335686142	-0.0750829869	-0.428191
C	 0.1332254081	 0.1453910501	 0.0344729674	-0.049703
C	 1.3973996197	-0.6529458601	-0.2172561987	-0.181651
C	 2.701938093	-0.1661724908	 0.4830070324	 0.354749
C	 4.0738443867	-0.5946484296	 0.0706838811	-0.506471
N	 2.4386617642	 1.1279668932	 1.1624135146	-0.379497
C	 2.0192807571	-0.1571730744	 1.7919465686	-0.181024
C	 0.6998130173	-0.691000181	 1.1553595282	 0.323139
C	-0.0338907436	-1.8263973432	 1.811680808	-0.487422
H	-0.2647813555	 1.9093768308	-1.1308686117	 0.103808
H	-1.1080236314	 1.85819109	 0.4193153102	 0.101571
H	 0.6263725977	 2.2423879888	 0.3671451056	 0.155377
H	-0.6902588494	-0.4244641856	-0.4046004136	 0.079233
H	 1.4282483761	-1.4445808079	-0.9584644746	 0.078182
H	 4.3896038716	-0.08698386	-0.8491225467	 0.127627
H	 4.8078488391	-0.3662315876	 0.8515434152	 0.113936
H	 4.109044298	-1.673470259	-0.1175817632	 0.125176
H	 3.3115145169	 1.3952819452	 1.6206933707	 0.219395
H	 2.380406398	-0.439058316	 2.7742131411	 0.084603
H	-0.5950893905	-1.4860681731	 2.6914978808	 0.118222
H	-0.7482744548	-2.2848573039	 1.12035505	 0.116827
H	 0.6562415617	-2.6108888102	 2.1467836515	 0.112114
121.7266	137.0561	187.528	205.3354	216.5108	264.4762	284.3201	317.1613	338.3952	422.119	500.8441	567.6522	575.4501	672.719	718.1166	784.0765	844.411	865.7021	901.5165	915.7802	924.1107	944.3313	997.9803	1010.3497	1055.0988	1085.6879	1095.2459	1109.9228	1112.8339	1130.3268	1170.9347	1220.8566	1231.4816	1290.17	1341.3161	1347.551	1396.3346	1410.4001	1414.2963	1440.4758	1472.3744	1480.9467	1483.8168	1493.9148	1499.4168	1501.0536	1515.7378	3011.2955	3018.1823	3024.6119	3063.9538	3066.6398	3074.1786	3078.9592	3092.7018	3094.7575	3163.262	3177.876	3202.9976	3444.3903
CC1C2C3(C)NC3C12C	C[C@H]1[C@H]2[C@@]3(C)N[C@H]3[C@@]12C	
InChI=1S/C8H13N/c1-4-5-7(4,2)6-8(5,3)9-6/h4-6,9H,1-3H3	InChI=1S/C8H13N/c1-4-5-7(4,2)6-8(5,3)9-6/h4-6,9H,1-3H3/t4-,5+,6-,7-,8+/m0/s1
