21
gdb 105198	1.99846	1.54583	1.10014	3.2002	79.48	-0.2286	0.0295	0.258	1211.6046	0.18141	-420.420922	-420.410818	-420.409874	-420.455557	37.707	
C	-0.3427311856	 1.2407740864	-0.4285803938	-0.3926
C	-0.3558760945	-0.1828226537	 0.1431513269	-0.258589
C	 0.6677969489	-0.4133363541	 1.2428812365	 0.215301
C	 1.2597993215	-1.7815073401	 1.4290357308	-0.279934
N	 2.0947087099	-0.6769134054	 0.9850413776	-0.129659
C	 2.6149530242	-0.7113718803	-0.3749887212	-0.32201
C	 0.4036866162	 0.401066914	 2.5039388244	 0.368068
N	 1.5037686133	 0.619185421	 3.269749286	-0.534336
O	-0.7176900558	 0.7808843392	 2.7940822234	-0.380173
H	 0.6223589657	 1.4888804563	-0.8820154163	 0.109446
H	-1.1105805955	 1.3508670594	-1.2002775022	 0.113104
H	-0.550734964	 1.9700695263	 0.3582213487	 0.144246
H	-1.3372112745	-0.3822033059	 0.5833734466	 0.131168
H	-0.2128000674	-0.9157507803	-0.6566833569	 0.089616
H	 1.4610711373	-2.1663663843	 2.4253472991	 0.122584
H	 0.9777634767	-2.534658489	 0.6935548367	 0.112351
H	 1.931503161	-1.1591746344	-1.1101409217	 0.111114
H	 2.8565063225	 0.3049775021	-0.6997676625	 0.13056
H	 3.5402159698	-1.2962593825	-0.3749965959	 0.127592
H	 2.4076204319	 0.407084802	 2.8760349272	 0.265438
H	 1.4130337384	 1.2023252533	 4.0841674367	 0.256713
72.4738	109.9005	168.1694	182.8528	203.7855	214.3105	268.4483	311.8021	359.8844	362.4145	413.1933	475.4238	484.2155	548.356	660.296	683.5154	724.0876	769.7714	845.9498	870.2737	919.178	998.4733	1031.6245	1070.0124	1092.8551	1111.7349	1124.6068	1153.1838	1159.3708	1206.7125	1236.1058	1295.532	1340.8334	1377.9318	1399.578	1409.5835	1448.3722	1470.1522	1491.3681	1498.7608	1503.0224	1509.802	1511.7035	1576.7618	1786.432	2999.713	3042.4271	3055.2037	3075.9745	3086.9127	3092.9471	3106.0261	3110.0156	3128.5118	3178.0176	3575.6278	3725.6011
CCC1(CN1C)C(N)=O	CC[C@]1(CN1C)C(=O)N	
InChI=1S/C6H12N2O/c1-3-6(5(7)9)4-8(6)2/h3-4H2,1-2H3,(H2,7,9)	InChI=1S/C6H12N2O/c1-3-6(5(7)9)4-8(6)2/h3-4H2,1-2H3,(H2,7,9)/t6-,8?/m0/s1
