21
gdb 74396	2.77467	1.47171	1.14703	1.5818	84.07	-0.2246	0.0214	0.246	1147.8685	0.183234	-387.097885	-387.089631	-387.088687	-387.129938	33.821	
C	 0.0040125899	 1.5145382095	 0.0496863976	-0.480831
C	 0.0106027981	 0.0157926911	-0.0214900791	 0.31923
C	 0.0083115076	-0.6880950369	-1.1563092755	-0.24888
C	 0.0080457362	-2.2054150599	-1.0927780152	 0.402096
O	-0.0622018291	-2.8312493872	-2.3471025173	-0.495475
C	-1.060701272	-2.6450237059	-0.0629134053	-0.246265
C	 0.003288166	-2.2792511968	 1.0161524051	-0.033676
C	 1.0816768777	-2.6442339872	-0.046291094	-0.276142
C	 0.0062696281	-0.7638941102	 1.2815166991	-0.292896
H	 0.8798823594	 1.8907681806	 0.5944642208	 0.121143
H	 0.0038304854	 1.9659003764	-0.9463210975	 0.119939
H	-0.8775004261	 1.8828154231	 0.5906427031	 0.12249
H	-0.0145968107	-0.2154774756	-2.1356895597	 0.074771
H	 0.6410314007	-2.4749437597	-2.9010958486	 0.2726
H	-2.015778194	-2.1144558594	-0.0654399081	 0.091713
H	-1.2247085769	-3.7247262438	-0.1091771495	 0.101217
H	-0.0045937143	-2.8501877321	 1.9461890526	 0.064398
H	 1.2502043755	-3.7234140238	-0.0912913533	 0.097375
H	 2.0343070296	-2.107673553	-0.0307888241	 0.083883
H	 0.8807291021	-0.484928569	 1.8877574453	 0.101119
H	-0.8715833533	-0.4793460002	 1.8801867535	 0.102191
153.6161	193.3691	247.5927	262.23	281.6483	374.7479	389.4345	422.9589	436.2682	472.6943	514.6182	580.3856	656.0679	806.3726	818.3824	858.406	877.963	880.7333	912.2429	967.8506	972.7388	1017.8225	1028.3509	1039.0685	1041.6747	1094.172	1109.8078	1126.7096	1154.9479	1197.1383	1215.4239	1246.3408	1254.1242	1275.0343	1323.5646	1339.6656	1367.0574	1385.5537	1413.9633	1471.2071	1473.4493	1479.2118	1489.8142	1508.154	1724.2652	2994.7243	3012.9544	3019.2192	3049.6643	3057.2073	3059.0688	3089.3703	3107.9861	3113.5662	3120.2114	3151.0148	3798.6855
CC1=CC2(O)CC(C2)C1	CC1=C[C@]2(O)C[C@@H](C2)C1	
InChI=1S/C8H12O/c1-6-2-7-4-8(9,3-6)5-7/h3,7,9H,2,4-5H2,1H3	InChI=1S/C8H12O/c1-6-2-7-4-8(9,3-6)5-7/h3,7,9H,2,4-5H2,1H3/t7-,8-
