15
gdb 35123	2.49197	1.5654	1.36859	3.8729	70.38	-0.2651	-0.0358	0.2294	987.6681	0.114392	-416.807283	-416.79965	-416.798706	-416.83979	28.065	
N	 0.8423327854	-0.3789492742	 1.2719623942	-0.332915
C	 0.3611102661	 0.4104569308	 0.5780228557	 0.296465
C	-0.2558027604	 1.4328444797	-0.2931846682	-0.172863
C	-1.3448006923	 2.1870468071	 0.4635026422	-0.057508
C	-1.070734262	 3.1012749533	 1.3885316624	-0.070745
C	 0.3455985175	 3.4425952354	 1.7632080823	-0.145735
O	 1.1068286092	 3.9985129476	 0.6709631976	-0.214181
C	 1.2718888001	 3.308503828	-0.472352716	 0.160374
N	 0.7787244443	 2.2407590445	-0.9424432853	-0.265232
H	-0.7391968789	 0.8765444349	-1.1043507996	 0.141809
H	-2.3700364241	 1.9452323596	 0.2014871398	 0.118719
H	-1.8737640669	 3.6279603905	 1.8945805995	 0.117238
H	 0.3809797062	 4.2175114564	 2.5295773733	 0.133129
H	 0.8755008789	 2.5615156435	 2.1458606928	 0.154494
H	 1.9930617768	 3.8457840829	-1.0890275008	 0.136952
67.8625	140.688	200.6041	225.1129	323.3063	368.1296	435.6591	500.0089	582.63	612.0711	701.2987	763.1349	768.5141	893.1338	917.3073	957.4938	979.4466	993.7474	1018.4126	1031.7263	1084.8918	1185.2494	1242.3205	1286.8903	1323.2721	1342.2434	1389.7327	1415.6709	1438.4151	1502.5956	1726.1352	1737.079	2350.1966	3037.123	3041.1982	3126.7902	3140.0457	3170.2674	3192.058
N#CC1C=CCOC=N1	N#C[C@H]1C=CCOC=N1	
InChI=1S/C6H6N2O/c7-4-6-2-1-3-9-5-8-6/h1-2,5-6H,3H2	InChI=1S/C6H6N2O/c7-4-6-2-1-3-9-5-8-6/h1-2,5-6H,3H2/t6-/m1/s1
