21
gdb 101276	2.63167	0.98312	0.85517	2.0901	85.51	-0.24	0.0496	0.2896	1465.0075	0.179662	-387.04582	-387.035432	-387.034488	-387.081436	38.393	
C	 0.0601855861	 1.5631698594	-0.0479711417	-0.382061
C	 0.2350653956	 0.0431595641	-0.0296381503	-0.183555
C	 0.5578949813	-0.5070201304	 1.3673908072	 0.118486
O	-0.4504828421	-0.1576377905	 2.3132659484	-0.431878
C	 0.7893290396	-2.0040553167	 1.3400562051	-0.022
C	 2.1193024211	-2.5788388285	 0.947470617	-0.299878
C	 1.6486348181	-2.695182232	 2.3908827624	-0.2049
C	 2.3082271209	-1.9501834848	 3.4232671186	 0.342974
C	 2.873127222	-1.3421660507	 4.2942235709	-0.470386
H	 0.9907439767	 2.0680724605	 0.2339375237	 0.115242
H	-0.2248216801	 1.9182296254	-1.0428495935	 0.107398
H	-0.7101226218	 1.8700606145	 0.6641317505	 0.127963
H	-0.6818973072	-0.4444190994	-0.3936437316	 0.080868
H	 1.0325718609	-0.2582555274	-0.7195672475	 0.099834
H	 1.4639852173	-0.0191648398	 1.745811322	 0.096304
H	-1.2725799487	-0.5743913868	 2.0310521175	 0.273238
H	-0.0839897805	-2.5762208338	 1.0297227763	 0.080626
H	 2.1489033689	-3.4828853324	 0.3498600077	 0.117708
H	 2.9323254188	-1.8857692984	 0.7602391559	 0.127449
H	 1.3054722272	-3.6792580888	 2.6971317963	 0.111952
H	 3.3588214561	-0.7991044735	 5.066240185	 0.194616
53.8471	83.2254	108.6952	166.4911	212.4733	223.477	259.1784	272.8098	302.9197	396.523	444.8869	489.6366	538.4556	579.7826	625.0318	652.8356	774.2715	779.4709	828.5255	855.9961	895.1627	971.6427	985.8264	1005.7398	1053.3495	1068.4345	1097.4159	1111.7995	1126.3049	1135.8466	1167.4624	1219.5729	1259.5205	1286.3087	1327.1309	1374.4563	1379.7068	1405.5615	1414.4585	1432.7028	1480.5966	1486.7715	1496.348	1509.2482	2236.5889	2997.5469	3037.7893	3045.17	3058.3545	3101.9773	3114.5278	3123.3574	3136.3966	3145.8466	3225.2013	3505.6348	3794.204
CCC(O)C1CC1C#C	CC[C@@H](O)[C@H]1C[C@H]1C#C	
InChI=1S/C8H12O/c1-3-6-5-7(6)8(9)4-2/h1,6-9H,4-5H2,2H3	InChI=1S/C8H12O/c1-3-6-5-7(6)8(9)4-2/h1,6-9H,4-5H2,2H3/t6-,7+,8-/m1/s1
