21
gdb 70824	2.27727	1.68308	1.46168	1.6596	83.4	-0.2155	0.0736	0.2892	1065.3675	0.181562	-383.181898	-383.172894	-383.17195	-383.214671	35.225	
C	 0.0341889874	 1.4360746818	-0.0798225803	-0.534005
C	 0.0201963279	-0.0608723601	-0.0537554701	 0.334872
N	 0.6475138714	-0.9335740025	-1.1049007919	-0.413123
C	 0.0711050171	-1.9201354931	-0.1285199347	 0.300063
C	 0.1764507265	-3.4067177588	-0.2888128798	-0.531479
C	 0.4686033394	-1.0190785895	 1.0847411691	-0.099804
N	-0.8872723938	-0.9969900164	 1.7224767263	-0.384483
C	-1.1825652593	-1.031640279	 0.2487223337	 0.248059
C	-2.5680150221	-1.0361334668	-0.3242288296	-0.53281
H	 1.0589572443	 1.8119572677	-0.1605599231	 0.130802
H	-0.5371021133	 1.8246467216	-0.9305243503	 0.116152
H	-0.4124347402	 1.8258691535	 0.8398900648	 0.140711
H	 0.0849714529	-0.9134732026	-1.9619597694	 0.195434
H	 1.2223045506	-3.7104185611	-0.3977578273	 0.135934
H	-0.2412764898	-3.9197874977	 0.5850008454	 0.117523
H	-0.3714754935	-3.7515193163	-1.1730150445	 0.121119
H	 1.4040532005	-1.0057835423	 1.6451561243	 0.079467
H	-1.0925096699	-1.9064769652	 2.1472597946	 0.200464
H	-3.1427491191	-0.1805572749	 0.0446449087	 0.135419
H	-2.5330404844	-0.9798520383	-1.4185139558	 0.11735
H	-3.1092743925	-1.94997904	-0.0542785801	 0.122334
175.6683	194.7886	206.0649	208.4479	216.8619	220.6532	269.6614	271.7703	432.5197	506.6869	537.2439	590.2672	663.8583	700.0418	724.719	768.7978	818.8285	834.7307	876.0004	915.5742	957.5742	1024.6823	1055.3273	1082.4845	1089.4445	1109.2972	1131.5562	1155.1589	1178.8403	1231.9686	1251.7415	1264.972	1280.2399	1310.0434	1323.7283	1390.9781	1404.0238	1405.0086	1439.1812	1478.1191	1480.6366	1484.7537	1490.675	1491.8291	1497.6088	3024.397	3026.6174	3031.7697	3087.9396	3089.9311	3096.4985	3101.4269	3104.2571	3113.2569	3115.8408	3375.4121	3385.9748
CC12NC3(C)C1NC23C	C[C@@]12N[C@@]3(C)[C@@H]1N[C@@]23C	
InChI=1S/C7H12N2/c1-5-4-6(2,9-5)7(5,3)8-4/h4,8-9H,1-3H3	InChI=1S/C7H12N2/c1-5-4-6(2,9-5)7(5,3)8-4/h4,8-9H,1-3H3/t4-,5-,6+,7+
