21
gdb 108232	2.1743	1.47204	1.14353	0.8203	79.27	-0.2171	0.059	0.2761	1201.7344	0.180267	-424.187434	-424.177589	-424.176645	-424.221839	36.626	
C	-0.1272150016	 1.5143086203	-0.0573680495	-0.373649
C	 0.0208823983	-0.0113853189	 0.045104546	-0.303091
C	 0.6424394271	-0.6011347088	-1.1801576219	 0.404386
O	 1.9536686677	-0.1581656319	-1.5648762942	-0.332113
C	 2.2952902177	-1.5027834528	-2.0023858524	-0.131825
C	 0.8900496137	-2.0103688266	-1.7064341862	 0.154187
C	 0.5242777855	-3.3782831465	-1.2123521277	-0.498043
C	-0.076269538	-1.0803558004	-2.4204453428	-0.026205
O	-1.4120342511	-1.4738466044	-2.2813209397	-0.425131
H	 0.8453691704	 1.9834501737	-0.2293981957	 0.140841
H	-0.7831492474	 1.7963346207	-0.8881857348	 0.106274
H	-0.550221477	 1.9289063478	 0.8622824888	 0.111584
H	 0.6315484944	-0.2634664743	 0.9205683995	 0.106489
H	-0.9562626293	-0.4848505682	 0.1920329175	 0.10794
H	 2.6413574507	-1.5253769378	-3.0433656701	 0.10037
H	 3.0630718793	-1.9380057933	-1.3502990465	 0.104783
H	 1.1013976837	-3.649395346	-0.3214683804	 0.115543
H	-0.5384557088	-3.4255764752	-0.9657650111	 0.142266
H	 0.7195181021	-4.1370617306	-1.9800262275	 0.120335
H	 0.1943458709	-0.6511639133	-3.3889678681	 0.082123
H	-1.9556881485	-0.6794557036	-2.2576515132	 0.292935
74.5264	117.0093	168.2274	180.458	215.0942	248.4211	262.4657	287.7029	332.1226	347.5398	419.654	505.156	540.4877	650.5987	703.6963	749.4365	798.8858	892.507	944.7358	964.8697	987.2185	993.266	1008.6105	1060.1535	1095.7663	1114.6359	1147.6378	1154.0344	1190.0506	1233.1817	1243.7496	1281.9058	1312.0302	1333.3532	1357.0492	1382.7299	1409.1692	1415.8131	1474.2264	1477.9118	1492.9509	1496.0112	1499.5479	1508.8195	1519.8177	3009.7988	3025.9644	3031.5994	3037.2578	3056.6834	3060.3423	3072.5507	3080.1157	3104.0878	3121.2608	3128.7261	3806.6443
CCC12OCC1(C)C2O	CC[C@@]12OC[C@]1(C)[C@H]2O	
InChI=1S/C7H12O2/c1-3-7-5(8)6(7,2)4-9-7/h5,8H,3-4H2,1-2H3	InChI=1S/C7H12O2/c1-3-7-5(8)6(7,2)4-9-7/h5,8H,3-4H2,1-2H3/t5-,6-,7+/m1/s1
