24
gdb 100049	2.49888	1.14091	1.0037	0.598	86.07	-0.2426	0.0739	0.3165	1366.486	0.214891	-405.515768	-405.504813	-405.503869	-405.551796	40.67	
C	-1.7590085055	 0.7594811551	 1.1168386992	-0.24084
O	-1.4032359981	-0.2140253162	 0.1627935493	-0.280924
C	-0.1093365215	-0.8259707065	 0.2887921456	 0.370093
C	 1.0185111908	 0.2146566642	 0.1559916177	-0.429276
C	 0.0342490697	-1.5807457707	 1.6167480537	-0.447288
C	-0.0490288013	-1.709689857	-0.9585249853	-0.019451
N	 0.9199012722	-2.8098439078	-1.0196179417	-0.352649
C	-0.5162837285	-3.1081765032	-1.1737692372	 0.000701
C	-1.1742310139	-4.0384700966	-0.1812592524	-0.405324
H	-1.7674230192	 0.3658889011	 2.1430972932	 0.104251
H	-1.1043367824	 1.6421855011	 1.0911517838	 0.103593
H	-2.773725481	 1.0806400749	 0.8660119243	 0.123692
H	 1.055668937	 0.8896192771	 1.0155000884	 0.110584
H	 1.9826479406	-0.2987641309	 0.0944249019	 0.12907
H	 0.884979132	 0.8144213102	-0.7496559367	 0.113107
H	-0.8791632156	-2.1311102063	 1.8509270625	 0.122103
H	 0.8673044703	-2.2843589348	 1.5532056223	 0.142061
H	 0.2363788016	-0.8892937002	 2.4398727754	 0.105743
H	-0.1366366984	-1.0843606451	-1.8477421349	 0.078036
H	 1.4048948203	-2.8255198907	-1.9116599026	 0.229213
H	-0.8562252508	-3.2818457544	-2.1958355851	 0.079001
H	-0.6722031406	-4.0225997213	 0.785140976	 0.130006
H	-2.2263685746	-3.7714840865	-0.0359692127	 0.122207
H	-1.1389401531	-5.0670445156	-0.5571427348	 0.11229
38.8847	81.4025	131.8761	189.3543	194.824	235.1336	257.7995	278.1688	306.0058	316.0596	377.5502	395.5569	398.7438	438.5728	519.1088	609.4538	712.4826	787.4905	817.9247	872.9994	924.196	952.0889	971.79	1005.1226	1025.688	1034.8215	1075.1177	1115.3422	1137.884	1172.7886	1181.4704	1191.5447	1209.3217	1225.4297	1253.7745	1274.6976	1330.4397	1387.2448	1398.5453	1405.536	1434.0477	1471.4887	1476.7639	1480.6559	1484.2203	1495.469	1498.0431	1504.9189	1510.6568	1513.7422	1524.7539	2991.4346	3035.5907	3038.6545	3042.4127	3051.0393	3084.0273	3093.8406	3098.7491	3103.241	3111.8249	3115.8201	3119.0531	3141.4769	3162.3718	3509.717
COC(C)(C)C1NC1C	COC(C)(C)[C@H]1N[C@H]1C	
InChI=1S/C7H15NO/c1-5-6(8-5)7(2,3)9-4/h5-6,8H,1-4H3	InChI=1S/C7H15NO/c1-5-6(8-5)7(2,3)9-4/h5-6,8H,1-4H3/t5-,6-/m0/s1
