19
gdb 40031	3.50121	1.53237	1.42913	2.0476	77.64	-0.2281	0.0735	0.3016	980.2893	0.162662	-382.010117	-382.003351	-382.002407	-382.041103	28.241	
C	 0.0403607804	 1.5356181911	-0.0056092623	-0.29526
N	 1.2566122953	 0.7007686749	 0.0304572475	-0.373899
C	-0.0601236183	 0.0550075347	 0.029695458	 0.369839
C	-0.459796715	-0.7831008753	 1.246140977	-0.287481
C	-1.484630769	-1.7447670334	 0.6538996084	 0.000646
C	-2.7180399183	-1.0154954812	 0.0557320898	-0.25476
C	-1.9886096406	-1.0967659303	-1.2756548599	-0.035622
C	-0.548527667	-0.7381661736	-1.1565893914	-0.121745
N	-0.9797690672	-2.0975894929	-0.7559666474	-0.153598
H	-0.1400857591	 2.1181297389	 0.894400626	 0.116939
H	-0.2206831819	 2.0439480313	-0.9312674637	 0.110035
H	 1.6786276886	 0.6537546189	-0.8944542117	 0.229168
H	 0.4169190995	-1.3248746182	 1.6159346579	 0.120636
H	-0.8673382256	-0.1879518772	 2.0687094697	 0.105116
H	-1.6850363744	-2.6307514082	 1.2547779474	 0.082538
H	-3.6071344585	-1.6496488486	 0.0594337101	 0.111708
H	-2.9795127238	-0.0289109966	 0.4521622297	 0.099131
H	-2.4576806074	-1.2230624216	-2.247391661	 0.090023
H	 0.0272828224	-0.6999176929	-2.0782245339	 0.086586
104.2487	248.8446	323.2973	353.4599	374.3344	502.9576	519.4431	637.2999	752.9668	789.5748	800.0709	813.27	840.0541	853.5142	880.9769	932.2468	947.5305	973.127	986.9276	1006.1179	1034.6782	1045.943	1065.224	1071.7335	1100.3297	1137.2722	1140.0024	1170.2629	1174.5909	1251.5143	1263.5244	1266.4167	1285.7028	1304.712	1330.6827	1344.9509	1373.886	1427.2932	1481.7922	1496.7191	1514.1153	3045.2317	3049.8915	3097.3861	3097.5542	3106.6616	3123.4622	3137.4704	3151.359	3181.7026	3488.2433
C1NC11CC2CC3C1N23	C1N[C@]21C[C@H]1C[C@H]3[C@@H]2N13	
InChI=1S/C7H10N2/c1-4-2-7(3-8-7)6-5(1)9(4)6/h4-6,8H,1-3H2	InChI=1S/C7H10N2/c1-4-2-7(3-8-7)6-5(1)9(4)6/h4-6,8H,1-3H2/t4-,5+,6+,7+,9?/m1/s1
