17
gdb 28051	6.25846	0.81229	0.73888	5.1381	80.28	-0.2045	0.0251	0.2296	1513.5299	0.136061	-418.040503	-418.031593	-418.030649	-418.074991	31.996	
C	-0.2613534254	 1.4527218791	 0.0044289559	-0.502338
C	-0.0197095324	-0.0199428367	-0.042376137	 0.340652
C	 0.041840588	-0.888199203	-1.1112008	-0.351883
C	 0.2939018703	-2.1815513692	-0.5836704314	 0.340997
O	 0.4607128961	-3.3039153167	-1.359212947	-0.21291
C	-0.2025816511	-4.4261405558	-0.9906298019	 0.107007
N	 0.0662418278	-5.5232402107	-1.5508183977	-0.436509
C	 0.3849526836	-2.0870348108	 0.7860842143	-0.204213
N	 0.1838604816	-0.7598588927	 1.0963429643	-0.295195
H	 0.5744361194	 1.9936678536	 0.4652400279	 0.129866
H	-0.386327573	 1.8403981985	-1.0087580049	 0.142811
H	-1.16694267	 1.7055557317	 0.5697959271	 0.129204
H	-0.0793910577	-0.6362659756	-2.1526848496	 0.106205
H	-0.9481277936	-4.2374263958	-0.207996216	 0.091657
H	-0.5411317691	-6.2535101975	-1.1846940683	 0.229217
H	 0.5983146133	-2.8255939605	 1.5399778594	 0.124801
H	 0.1973090821	-0.3841123478	 2.0283214248	 0.26063
48.1972	84.4614	110.9388	155.3214	226.3682	287.6762	377.4813	427.5752	451.4732	486.3299	635.1757	656.3773	674.9298	703.0473	789.3872	807.9419	828.6808	973.0986	997.5096	1011.1681	1051.7804	1061.7731	1062.302	1134.7906	1179.6714	1263.4851	1284.879	1332.7381	1403.6932	1417.9299	1440.9289	1450.5265	1480.9111	1504.8829	1554.8737	1632.2425	1742.1232	3019.3231	3043.6451	3064.472	3127.461	3261.6952	3276.3065	3517.678	3680.6726
CC1=CC(OC=N)=CN1	Cc1cc(O[CH][NH])c[nH]1	
InChI=1S/C6H8N2O/c1-5-2-6(3-8-5)9-4-7/h2-4,7-8H,1H3	InChI=1S/C6H8N2O/c1-5-2-6(3-8-5)9-4-7/h2-4,7-8H,1H3
