13
gdb 132692	3.22171	1.35338	0.95303	0.849	64.38	-0.2203	-0.0239	0.1963	1102.1634	0.089724	-497.913609	-497.906447	-497.905503	-497.945088	27.801	
O	 0.0330984409	 1.3461466785	 0.1151473253	-0.422926
C	 0.0527046324	-0.0042779863	 0.057264602	 0.449519
N	 0.0709357876	-0.5711987523	-1.1402748733	-0.362492
C	 0.0904780004	-1.9078283066	-1.2132874235	-0.06957
C	 0.0926282336	-2.731329356	-0.0969521861	 0.214666
O	 0.1128765424	-4.0864411757	-0.2192261476	-0.44298
C	 0.073002094	-2.0942815255	 1.147487413	 0.220661
F	 0.0747416222	-2.874554745	 2.2381267026	-0.086623
C	 0.0526310623	-0.7225507949	 1.2586671412	-0.362346
H	 0.036641716	 1.6488546997	-0.8034411481	 0.299119
H	 0.1052369639	-2.3550298668	-2.2028570446	 0.127989
H	 0.1105680134	-4.4670266966	 0.6670356191	 0.304827
H	 0.0374542409	-0.2308637125	 2.2219713701	 0.130155
151.8106	232.7068	287.3377	349.6685	365.1295	393.3055	454.7453	461.3296	518.358	532.5087	600.9848	679.548	752.5764	773.126	805.4216	865.4733	937.6825	978.1618	1139.5303	1200.8681	1217.022	1265.5082	1328.6252	1337.2098	1413.6678	1502.6286	1542.2803	1646.9703	1671.5638	3176.0251	3226.47	3772.0893	3803.7617
OC1=NC=C(O)C(F)=C1	Oc1ncc(O)c(F)c1	
InChI=1S/C5H4FNO2/c6-3-1-5(9)7-2-4(3)8/h1-2,8H,(H,7,9)	InChI=1S/C5H4FNO2/c6-3-1-5(9)7-2-4(3)8/h1-2,8H,(H,7,9)
