24
gdb 60398	3.6869	0.77417	0.71598	1.1788	87.39	-0.2347	0.0762	0.3109	1720.7479	0.215354	-405.52348	-405.512593	-405.511649	-405.560168	39.68	
C	-1.0309108892	 1.2679180833	 0.1626009674	-0.402444
C	-0.1353526178	 0.0410139181	-0.0250672767	 0.148727
C	 0.867501514	-0.1212746839	 1.1129377477	-0.383421
O	-0.880294412	-1.1754957595	-0.0707860459	-0.262842
C	-1.576090395	-1.4570528842	-1.2731980261	-0.081863
C	-3.0682261714	-1.239884412	-1.1368556522	-0.021099
N	-3.6331067203	 0.0420326476	-1.5945536166	-0.328757
C	-4.0107054797	-1.2015140333	-2.289374563	-0.003575
C	-3.6011908277	-1.3394201226	-3.7377242181	-0.392675
H	-0.4235275374	 2.178886943	 0.2005931997	 0.103428
H	-1.749262707	 1.3625929755	-0.6555581141	 0.148375
H	-1.5862578504	 1.1863513077	 1.10358123	 0.107467
H	 0.4172190668	 0.1485577154	-0.9736825456	 0.063342
H	 0.3419331252	-0.2530120876	 2.0642408036	 0.119417
H	 1.4985524677	-0.9983837539	 0.9470399667	 0.116317
H	 1.5073824894	 0.7626452341	 1.1926998196	 0.109325
H	-1.1815632326	-0.860805168	-2.1053241634	 0.097148
H	-1.3941875828	-2.5166456512	-1.5016881387	 0.098972
H	-3.4623871734	-1.6544990768	-0.2098847358	 0.087303
H	-4.3744405536	 0.3505626873	-0.9719828613	 0.23077
H	-5.007480946	-1.5886944205	-2.0782079881	 0.082182
H	-2.616379809	-0.90369275	-3.9186342612	 0.126746
H	-3.5754859523	-2.3927910841	-4.0374734986	 0.116795
H	-4.3167932755	-0.8236035545	-4.3869800493	 0.120361
41.0361	62.2619	90.4797	148.5895	195.7225	212.1489	235.2333	267.614	310.5417	343.5541	388.6259	440.6061	445.7249	468.91	562.8196	767.6189	802.7919	849.15	875.6819	924.5141	933.6253	944.2545	963.0341	985.1192	1034.8127	1055.9925	1099.685	1105.6305	1150.942	1153.7855	1163.4521	1199.9134	1223.0468	1258.0341	1277.1444	1308.5934	1365.1365	1371.1243	1386.7824	1398.6345	1412.5498	1415.8794	1429.3797	1466.6744	1479.8216	1486.4145	1490.5552	1492.2401	1495.8075	1505.9559	1515.2602	2957.5826	3001.5498	3028.6574	3036.6803	3040.7623	3051.9793	3095.4335	3096.9663	3098.9315	3113.1051	3119.3471	3120.5349	3124.2383	3132.8366	3507.8528
CC(C)OCC1NC1C	CC(C)OC[C@H]1N[C@H]1C	
InChI=1S/C7H15NO/c1-5(2)9-4-7-6(3)8-7/h5-8H,4H2,1-3H3	InChI=1S/C7H15NO/c1-5(2)9-4-7-6(3)8-7/h5-8H,4H2,1-3H3/t6-,7+/m0/s1
