19
gdb 91444	2.40809	1.71918	1.32118	2.901	75.17	-0.2334	-0.0027	0.2307	1028.2746	0.159191	-423.036155	-423.027699	-423.026755	-423.068774	32.711	
C	-0.0050415552	 1.5392063202	 0.0556884379	-0.508208
C	 0.0012665045	 0.0335081959	 0.0064327438	 0.208409
C	 0.7162645916	-0.8166784865	-1.1115084171	-0.281386
C	-0.2463983977	-1.9646724054	-0.6641410869	-0.145932
C	 0.2328561041	-2.2211544942	 0.7812298292	-0.26671
C	 0.4322381841	-0.7414554467	 1.2683714299	 0.089561
O	 1.7784875198	-0.4120663826	 1.5684655114	-0.439598
C	-1.2263033915	-0.8043636971	-0.4203684634	 0.395038
O	-2.3764842379	-0.5692273542	-0.6463738783	-0.328263
H	 0.9899133525	 1.9232712219	 0.2979338524	 0.13584
H	-0.3212686859	 1.9654208923	-0.9009839106	 0.122306
H	-0.7002481837	 1.8955925874	 0.8236253136	 0.125497
H	 0.5122437697	-0.4468464096	-2.1177623996	 0.11331
H	 1.782805857	-0.9873479048	-0.959453812	 0.122191
H	-0.4886393805	-2.817351305	-1.2947473715	 0.083615
H	-0.4956451787	-2.7750819989	 1.3797666435	 0.109208
H	 1.1870454198	-2.7560545703	 0.8035671406	 0.106266
H	-0.217516646	-0.4978396105	 2.120503553	 0.07428
H	 2.043280014	-0.9092183219	 2.3490226741	 0.284572
125.0834	161.353	185.3064	209.2756	249.5356	282.7939	332.0609	436.0441	448.6143	525.7781	610.3277	683.2959	701.3179	784.5883	794.5353	855.3761	867.2234	925.1247	942.1247	990.7213	996.805	1021.5532	1068.1433	1080.8423	1108.2227	1151.6114	1159.9577	1209.2733	1232.0518	1238.1799	1244.9935	1285.1647	1311.244	1359.1809	1412.3924	1429.2009	1479.9177	1487.3173	1493.5412	1499.975	1894.3597	3000.9292	3037.6624	3052.159	3079.3572	3102.6258	3103.7348	3116.3036	3145.3883	3148.2923	3815.8849
CC12CC(CC1O)C2=O	C[C@@]12C[C@@H](C[C@H]1O)C2=O	
InChI=1S/C7H10O2/c1-7-3-4(6(7)9)2-5(7)8/h4-5,8H,2-3H2,1H3	InChI=1S/C7H10O2/c1-7-3-4(6(7)9)2-5(7)8/h4-5,8H,2-3H2,1H3/t4-,5-,7-/m1/s1
