21
gdb 88668	4.28153	0.79231	0.73386	1.3769	79.98	-0.2559	0.073	0.3289	1588.3181	0.181114	-424.195216	-424.185713	-424.184769	-424.230283	35.271	
C	 0.0855270561	 1.524568835	-0.3586528151	-0.42207
C	-0.0650876908	 0.0744559105	 0.0253728869	 0.076504
O	 1.1140656366	-0.7382319588	 0.02175036	-0.269061
C	 0.440707788	-0.5310534381	 1.271221913	 0.049773
C	 1.1812956079	 0.2008650396	 2.3525340171	 0.009171
C	 0.3819278315	 0.6135060702	 3.6241235458	-0.26327
C	 1.6073142684	 0.2244754942	 4.4727550154	 0.145971
O	 1.2827737052	-0.4162440467	 5.6834939462	-0.430631
C	 2.124753473	-0.6243940023	 3.2783883059	-0.280871
H	 0.9485752258	 1.9876229839	 0.1232420342	 0.127843
H	 0.2163208319	 1.6146800845	-1.4422081249	 0.129403
H	-0.8134719317	 2.0867009772	-0.083104484	 0.12176
H	-0.9275846873	-0.4174997747	-0.431086084	 0.084724
H	-0.0882632034	-1.4187846104	 1.6304016741	 0.081227
H	 1.7167364982	 1.0541588327	 1.9310861092	 0.073562
H	 0.0000854855	 1.6340956358	 3.6933689428	 0.100497
H	-0.433512338	-0.0895724563	 3.823045769	 0.11243
H	 2.2583794005	 1.0942857657	 4.6443574623	 0.065913
H	 2.1003227042	-0.6171155294	 6.1500862671	 0.281901
H	 1.7725116001	-1.6561556477	 3.3791432806	 0.106585
H	 3.193948608	-0.6259801951	 3.0549764084	 0.098638
42.5622	78.1822	136.0128	177.8447	204.0132	267.8527	343.6193	350.2615	392.8152	411.2047	461.8352	538.8666	632.4623	771.3979	791.9575	809.6196	872.6071	925.6128	946.1566	971.332	999.7121	1023.0862	1027.9858	1070.4919	1099.047	1116.7032	1152.0833	1175.5296	1189.1622	1214.8294	1219.1975	1250.0941	1259.3908	1272.4486	1303.22	1326.555	1330.5283	1403.184	1419.6592	1433.1597	1469.354	1470.5791	1489.1213	1498.8223	1513.0411	2990.3698	3038.8447	3051.6805	3056.9077	3060.0543	3078.2089	3084.6374	3098.7756	3114.4762	3120.1697	3136.1821	3816.1299
CC1OC1C1CC(O)C1	C[C@H]1O[C@H]1[C@H]1C[C@@H](O)C1	
InChI=1S/C7H12O2/c1-4-7(9-4)5-2-6(8)3-5/h4-8H,2-3H2,1H3	InChI=1S/C7H12O2/c1-4-7(9-4)5-2-6(8)3-5/h4-8H,2-3H2,1H3/t4-,5-,6+,7-/m1/s1
