22
gdb 103900	3.35932	0.79587	0.7218	3.1251	84.3	-0.236	-0.0213	0.2147	1647.1925	0.190745	-404.332443	-404.321836	-404.320892	-404.368918	37.955	
C	 0.3036902673	 1.6369930946	 0.1981646078	-0.388792
C	-0.1095695945	 0.1845573039	-0.0755189292	-0.238987
C	 0.603485873	-0.4386538012	-1.2686542809	 0.344916
C	 0.3338053269	 0.2234532449	-2.6075009276	-0.4462
C	 1.9258529565	-1.1010550077	-1.0466528193	-0.296419
N	 0.7439503162	-1.8996522061	-1.3689585748	-0.135482
C	 0.2119344469	-2.7905280143	-0.3540539081	-0.232295
C	 0.6402911152	-4.2214926683	-0.6509747635	 0.156329
O	 0.7582461595	-5.0773971266	 0.185912293	-0.240627
H	 1.3831944445	 1.7130840283	 0.3655261911	 0.120032
H	 0.0475958276	 2.2974908594	-0.6351164331	 0.123171
H	-0.2024861289	 2.0199458113	 1.089384127	 0.11662
H	 0.083025115	-0.4098498537	 0.8225543723	 0.100184
H	-1.1937207865	 0.1426852682	-0.2484567366	 0.099433
H	 0.72222291	 1.2463814845	-2.6356521458	 0.119213
H	 0.8053508188	-0.3475433916	-3.4103521978	 0.126305
H	-0.7427206556	 0.2664481086	-2.8103059705	 0.114967
H	 2.702048109	-1.0671855749	-1.8074013613	 0.113297
H	 2.2992495443	-1.143595527	-0.0233999681	 0.108653
H	 0.4901194863	-2.5622323196	 0.6850547158	 0.116176
H	-0.8870304126	-2.7761965662	-0.408378502	 0.131319
H	 0.8238913412	-4.4154620564	-1.7308944584	 0.088188
49.3797	71.0257	87.2631	118.6866	186.7719	222.9264	232.6276	264.2217	307.6719	367.6779	384.1523	446.6141	530.2305	568.9753	683.6161	730.0167	790.4688	818.5443	895.2626	918.7944	979.6782	1018.1867	1035.1763	1056.3243	1060.7284	1079.5906	1121.4388	1124.2977	1144.447	1204.673	1252.4108	1275.8531	1303.554	1330.2224	1361.3811	1395.9342	1404.8942	1411.5533	1420.0799	1453.4009	1480.1553	1488.6268	1497.551	1502.2538	1510.4784	1518.1412	1838.2513	2896.6264	2987.8066	3016.656	3032.5402	3033.1981	3039.4569	3076.9375	3084.2358	3096.7168	3106.7551	3115.563	3127.0679	3169.619
CCC1(C)CN1CC=O	CC[C@@]1(C)CN1CC=O	
InChI=1S/C7H13NO/c1-3-7(2)6-8(7)4-5-9/h5H,3-4,6H2,1-2H3	InChI=1S/C7H13NO/c1-3-7(2)6-8(7)4-5-9/h5H,3-4,6H2,1-2H3/t7-,8?/m0/s1
