16
gdb 11839	5.93861	1.24296	1.22226	1.6797	71.66	-0.2337	0.0224	0.2561	1027.0961	0.128797	-346.530478	-346.522866	-346.521922	-346.562758	28.891	
C	-0.5819050039	-1.1457551454	-0.6436063065	-0.455333
C	-0.2340747021	-0.0442451616	-0.3114035731	 0.333652
C	 0.1655786161	 1.2916157474	 0.0940297103	-0.04006
C	-0.1100015544	 1.7061197837	 1.567781252	-0.377127
C	 1.4008344609	 1.8786579051	 1.6392216607	 0.472738
C	 2.216587866	 2.9820486946	 2.224914097	-0.33514
C	 2.366085143	 1.5481008199	 2.7245474572	-0.329179
O	 1.5994965549	 1.4325906433	 0.2934366871	-0.308535
H	-0.8828381289	-2.1201122537	-0.9404137381	 0.202676
H	-0.1879108552	 2.0262718926	-0.6399225648	 0.1084
H	-0.7054983702	 2.6124532273	 1.6876019853	 0.11756
H	-0.5178196401	 0.905925122	 2.1863875908	 0.12574
H	 3.0183327927	 3.3807845118	 1.6125356616	 0.126633
H	 1.7272532176	 3.7093901223	 2.8651599578	 0.11412
H	 1.9786013109	 1.2936189905	 3.7060185139	 0.115445
H	 3.2642016627	 1.0122989701	 2.4365820887	 0.128411
41.0254	150.8258	221.9803	281.5301	299.6922	420.6969	470.0675	520.7382	607.2298	621.7843	669.9241	754.2892	768.1861	837.298	891.1393	900.4441	916.7654	977.7953	988.8524	1048.948	1056.081	1068.3051	1074.1847	1156.9789	1186.2933	1216.7233	1242.2854	1283.4469	1353.0314	1393.8079	1447.7837	1486.3825	1505.4543	2236.4583	3024.8611	3081.5806	3125.7965	3128.8979	3140.7854	3209.834	3223.9877	3503.3191
C#CC1CC2(CC2)O1	C#C[C@H]1CC2(CC2)O1	
InChI=1S/C7H8O/c1-2-6-5-7(8-6)3-4-7/h1,6H,3-5H2	InChI=1S/C7H8O/c1-2-6-5-7(8-6)3-4-7/h1,6H,3-5H2/t6-/m0/s1
