19
gdb 73360	2.52924	1.99749	1.62387	1.762	73.17	-0.2351	0.0843	0.3194	923.0488	0.16099	-423.021252	-423.014021	-423.013077	-423.052521	29.418	
C	 0.0301257767	 1.4950470292	 0.0893002378	-0.465201
C	-0.0133421885	-0.0174594029	-0.0338052464	 0.359624
C	 0.5537319403	-0.5738915546	-1.3554888417	-0.102834
O	 0.0242074561	-1.8982784177	-1.4742068892	-0.26548
C	-1.208021568	-1.9247193566	-0.7931571765	 0.086555
C	-1.16426494	-1.981426272	 0.7193590913	-0.112872
C	 0.2120365012	-1.8858940814	 1.3609965363	-0.102162
O	 0.7123043151	-0.5820723159	 1.0661219477	-0.299153
C	-1.4092061004	-0.6735680598	 0.0017135804	-0.16654
H	 1.06393122	 1.8511354507	 0.0540677972	 0.129221
H	-0.5265171262	 1.9699029554	-0.7237185079	 0.117911
H	-0.401846856	 1.8075862416	 1.0433539943	 0.128517
H	 0.23304247	 0.0401139863	-2.2110213755	 0.086537
H	 1.6445108265	-0.6361601028	-1.3395734242	 0.115603
H	-2.0024829627	-2.4241164211	-1.3372975343	 0.097227
H	-1.9627856919	-2.491673909	 1.245951653	 0.092634
H	 0.1557934561	-1.9935125085	 2.4498393788	 0.102226
H	 0.8927346346	-2.6524292254	 0.9676523079	 0.107758
H	-2.3201202829	-0.0914097555	 0.0521582608	 0.09043
151.2011	200.9146	232.0929	273.1521	329.1608	413.974	506.1328	596.8137	615.9029	721.6075	737.9627	786.1731	806.0903	820.6507	865.7934	907.1733	955.1111	966.7086	992.4654	1013.587	1030.8285	1057.6055	1069.4024	1097.7708	1128.1924	1147.9155	1168.5737	1199.3028	1212.8851	1238.3493	1242.1199	1292.3471	1329.3743	1363.5859	1388.027	1406.6786	1411.2469	1483.2982	1494.6221	1499.6148	1518.8716	2987.1415	3015.259	3045.3377	3061.2557	3103.6415	3116.8571	3124.7731	3165.8137	3177.8048	3195.0628
CC12COC3C(CO1)C23	C[C@@]12CO[C@H]3[C@@H](CO1)[C@@H]23	
InChI=1S/C7H10O2/c1-7-3-8-6-4(2-9-7)5(6)7/h4-6H,2-3H2,1H3	InChI=1S/C7H10O2/c1-7-3-8-6-4(2-9-7)5(6)7/h4-6H,2-3H2,1H3/t4-,5+,6-,7-/m0/s1
