27
gdb 58240	2.48762	1.03211	0.82771	0.1663	96.16	-0.2605	0.085	0.3455	1564.6484	0.250479	-353.557401	-353.546176	-353.545232	-353.593348	42.61	
C	-0.8411412958	 0.3666051876	 3.5152950352	-0.401023
C	-0.7473091897	-0.9186964205	 2.6767499016	 0.052659
C	-0.7538303666	-2.1374945051	 3.6122475047	-0.389971
C	-1.850603359	-0.9923620708	 1.5854219419	 0.021332
C	-1.8158581104	 0.2356596492	 0.6564567147	-0.405885
C	-1.7381986751	-2.2600254495	 0.7474034367	 0.018298
C	-2.4093661759	-3.5607970231	 1.1231730654	-0.305123
C	-2.8730695669	-2.8067479304	-0.0981793844	-0.012987
C	-4.2563136565	-2.1922219287	-0.1442342824	-0.407452
H	-0.0812696576	 0.3656767293	 4.3037627938	 0.10725
H	-0.6921817645	 1.2703324272	 2.9196430473	 0.113372
H	-1.8204577828	 0.4442834014	 4.0039575361	 0.10835
H	 0.2208234529	-0.905573329	 2.1527096319	 0.065367
H	-0.5865148713	-3.0722889494	 3.0740614109	 0.121584
H	 0.0295066361	-2.0405987105	 4.3715286442	 0.103135
H	-1.7122714044	-2.2222398082	 4.1392224101	 0.105019
H	-2.8193519009	-1.0012441717	 2.1052409912	 0.062125
H	-2.5549010511	 0.1385596041	-0.1429240122	 0.11598
H	-2.025696514	 1.1662534549	 1.1895376191	 0.11181
H	-0.8310402883	 0.3363633493	 0.1837138017	 0.108317
H	-0.7554336344	-2.3676906486	 0.2892888715	 0.073345
H	-1.8656515022	-4.4918988981	 1.0008916671	 0.104063
H	-3.0676978677	-3.5476732602	 1.9870342718	 0.106477
H	-2.5601770876	-3.2305254708	-1.0496431827	 0.077872
H	-4.5491310179	-1.7676983952	 0.8203956182	 0.116693
H	-4.3218263048	-1.3939633514	-0.8919929038	 0.11576
H	-5.0040232834	-2.9494230518	-0.4064543996	 0.113633
60.752	79.5337	147.4923	185.4609	206.3979	208.5719	219.6697	256.4791	296.3422	337.6528	357.4372	368.5946	400.7646	447.1404	492.1697	546.8882	763.7494	799.3213	813.4145	856.2625	912.9945	923.2501	930.9271	946.1926	966.5558	980.8319	1022.4343	1039.0926	1067.8673	1082.0042	1113.8592	1138.6669	1152.4881	1179.7727	1191.8125	1201.8731	1206.6282	1249.776	1286.0406	1320.9735	1351.4526	1370.4162	1392.6525	1399.3125	1408.2822	1417.676	1422.7063	1430.3882	1487.0356	1490.2032	1492.0938	1493.5706	1497.2872	1503.3611	1507.7414	1509.0573	1520.4691	2983.7602	3004.7509	3024.9163	3028.3512	3030.6605	3033.5861	3082.9191	3084.0793	3091.385	3100.7536	3102.7485	3105.9805	3114.0883	3120.4958	3124.5564	3128.5679	3132.0722	3202.2248
CC(C)C(C)C1CC1C	CC(C)[C@@H](C)[C@H]1C[C@H]1C	
InChI=1S/C9H18/c1-6(2)8(4)9-5-7(9)3/h6-9H,5H2,1-4H3	InChI=1S/C9H18/c1-6(2)8(4)9-5-7(9)3/h6-9H,5H2,1-4H3/t7-,8-,9+/m1/s1
