15
gdb 71111	2.54916	2.19576	1.63584	2.4314	62.84	-0.2301	-0.0282	0.202	849.957	0.112521	-457.761882	-457.755013	-457.754069	-457.793022	27.148	
C	 0.0775821198	 1.4811990028	 0.0271254736	-0.504085
C	 0.0221664909	-0.0105455451	 0.0221013218	 0.285064
O	 0.6423730996	-0.6191080102	-1.1156626049	-0.277654
C	 0.5083330587	-1.9805980611	-0.7341383714	 0.051216
C	 0.5219508785	-1.9860595677	 0.754862998	 0.05136
O	 0.6626756149	-0.6274419784	 1.1440408063	-0.277631
C	-0.8182221857	-2.1592756373	 0.021922255	-0.326305
C	-1.3504346131	-0.7587459527	 0.0313951045	 0.502491
O	-2.4621398376	-0.3139220712	 0.0442655218	-0.333418
H	 1.114742149	 1.8225983602	 0.0189557862	 0.143363
H	-0.4394011874	 1.8681906374	-0.8532805679	 0.149347
H	-0.4232694024	 1.8616199258	 0.9196368133	 0.149372
H	 0.9479088977	-2.7018674027	-1.4062387651	 0.13209
H	 0.9737230378	-2.7121903252	 1.4135070545	 0.132111
H	-1.4185084705	-3.0553089447	 0.0242962243	 0.122677
128.5507	172.5279	229.8391	321.4024	433.5104	515.4848	545.957	661.6858	680.2487	704.7496	767.7266	770.3956	793.5049	819.2272	853.607	858.7705	937.4424	971.4227	994.1865	1042.3817	1058.7562	1074.6771	1114.3969	1115.1741	1193.8515	1236.3537	1286.336	1344.0771	1376.2445	1440.7247	1476.9519	1482.0799	1892.905	3065.9227	3147.7929	3148.2302	3237.3692	3243.1185	3253.2724
CC12OC3C(O1)C3C2=O	C[C@@]12O[C@H]3[C@@H](O1)[C@H]3C2=O	
InChI=1S/C6H6O3/c1-6-5(7)2-3(8-6)4(2)9-6/h2-4H,1H3	InChI=1S/C6H6O3/c1-6-5(7)2-3(8-6)4(2)9-6/h2-4H,1H3/t2-,3+,4-,6+
