17
gdb 97314	5.12322	0.58742	0.53047	2.9389	90.58	-0.2475	-0.0423	0.2052	2068.2004	0.133502	-418.019491	-418.009	-418.008055	-418.057608	34.83	
C	-0.1413851042	 1.6578924603	-0.8396142681	-0.314027
N	-0.3278998546	 0.2388753577	-1.0632773798	-0.248117
C	 0.1595605325	-0.5539321442	-0.2060147241	 0.126407
N	 0.01954087	-1.9261819944	-0.3547693456	-0.341658
C	 0.5256163036	-2.8502684544	 0.541606992	 0.270529
O	 1.1401721714	-2.5374385341	 1.5424760342	-0.346408
C	 0.2488546943	-4.2216899569	 0.1657955026	-0.074139
C	 0.0393099171	-5.3759741049	-0.1116837416	 0.180734
C	-0.205986415	-6.7713634855	-0.432293312	-0.506364
H	 0.4199927378	 1.8944565246	 0.0777540098	 0.104443
H	 0.3877701354	 2.0970805501	-1.6933151164	 0.129017
H	-1.1184424895	 2.1520220558	-0.7857525902	 0.129019
H	 0.7128399571	-0.2756748447	 0.6955966771	 0.133272
H	-0.4831157203	-2.2486906501	-1.1692833491	 0.267336
H	-0.8594653865	-7.2314471786	 0.3167739493	 0.165507
H	-0.6843597053	-6.8793199754	-1.4110874914	 0.158787
H	 0.7317288861	-7.3370235352	-0.4476347168	 0.165663
12.9736	61.6212	66.3584	129.1638	164.9949	166.2852	213.6406	301.033	332.198	362.0905	395.5515	420.7887	517.21	627.9036	637.8928	761.3771	857.7737	1008.9309	1038.2794	1046.1287	1054.2286	1085.4689	1142.6199	1151.2555	1219.0611	1251.5246	1357.1032	1410.5699	1446.1264	1470.8799	1472.7196	1478.6482	1488.4491	1512.6311	1750.2315	1769.35	2354.4192	2979.5371	3033.6881	3061.4008	3075.814	3095.4085	3098.061	3101.2301	3618.0932
CN=CNC(=O)C#CC	CN=CNC(=O)C#CC	
InChI=1S/C6H8N2O/c1-3-4-6(9)8-5-7-2/h5H,1-2H3,(H,7,8,9)	InChI=1S/C6H8N2O/c1-3-4-6(9)8-5-7-2/h5H,1-2H3,(H,7,8,9)
