19
gdb 86238	2.49988	1.19507	0.86435	2.8118	77.47	-0.253	0.0546	0.3076	1324.2519	0.157893	-422.996026	-422.986512	-422.985567	-423.031173	35.574	
O	-0.0832455147	 1.4779957685	 0.0300924649	-0.434499
C	 0.0449572948	 0.065739998	 0.0504830362	 0.132321
C	 0.6191932759	-0.5128448326	 1.3526974629	-0.29368
C	 0.1112248836	-1.9601049271	 1.3512776322	 0.118202
O	 0.1094329795	-2.5998210992	 2.6122768032	-0.434269
C	-1.3551620812	-1.8232175586	 0.8603104738	-0.154931
C	-1.3597424967	-0.5657538224	-0.0661441776	-0.239568
C	-1.8789544419	-3.0308487007	 0.2407808631	 0.311888
C	-2.301139633	-4.0224300199	-0.292334856	-0.46129
H	 0.8002430642	 1.8596585587	 0.03192722	 0.281409
H	 0.6655655382	-0.266841097	-0.7964131616	 0.067991
H	 1.7100836704	-0.4378159832	 1.4204128609	 0.082039
H	 0.1826571861	 0.0183750329	 2.2066416742	 0.114151
H	 0.6762470276	-2.554177015	 0.6171342861	 0.077754
H	 1.0186026683	-2.8066996586	 2.8486053083	 0.284395
H	-1.9428184566	-1.6106316966	 1.7614719244	 0.118188
H	-2.0954691865	 0.1654236192	 0.2771812672	 0.123252
H	-1.6070680519	-0.8238732723	-1.0967373768	 0.115511
H	-2.680622826	-4.901005694	-0.7517623656	 0.191138
21.8789	127.2302	136.7164	205.345	237.391	271.1103	304.8744	377.4442	441.4439	448.7297	490.0261	504.9381	553.23	602.8851	623.6102	629.1556	800.1757	874.5204	933.6775	945.4502	1004.5766	1046.6328	1068.5009	1090.147	1101.4207	1125.642	1150.2808	1190.7277	1229.2796	1254.8829	1279.9168	1289.8484	1305.2024	1340.7049	1361.5223	1384.5962	1429.9417	1432.1733	1488.0452	1501.1321	2236.3808	2968.1577	2986.2557	3033.0738	3036.6511	3076.9498	3086.3343	3127.4357	3505.8514	3817.7059	3827.0211	21.8825	127.2304	136.7166	205.3455	237.3916	271.1112	304.8748	377.4444	441.4439	448.7299	490.0261	504.9382	553.23	602.8854	623.6103	629.1559	800.1758	874.5205	933.6776	945.4502	1004.5767	1046.6329	1068.501	1090.147	1101.4208	1125.6421	1150.2808	1190.7276	1229.2795	1254.883	1279.9166	1289.8482	1305.2021	1340.7048	1361.5224	1384.5962	1429.9417	1432.1733	1488.045	1501.1319	2236.3808	2968.1578	2986.2557	3033.0738	3036.6511	3076.9498	3086.3343	3127.4357	3505.8515	3817.7063	3827.0212
OC1CC(O)C(C1)C#C	O[C@H]1C[C@@H](O)[C@@H](C1)C#C	
InChI=1S/C7H10O2/c1-2-5-3-6(8)4-7(5)9/h1,5-9H,3-4H2	InChI=1S/C7H10O2/c1-2-5-3-6(8)4-7(5)9/h1,5-9H,3-4H2/t5-,6-,7-/m1/s1
