18
gdb 41685	3.84798	1.5225	1.28319	1.9667	74.39	-0.2357	0.0185	0.2542	999.5391	0.151311	-401.962188	-401.955559	-401.954615	-401.992933	27.247	
C	 0.2457891177	 1.3379023566	-0.4529765998	-0.223047
C	 1.4381170279	 1.9659988679	 0.3195604837	-0.225875
C	 2.1228237378	 0.805561119	 1.0316291643	-0.123219
C	 2.4921995319	-0.4044246568	 0.1928157301	-0.091929
N	 3.2499636839	-1.4285458599	 0.8813156734	-0.265853
C	 2.4812883629	-1.8847059819	 1.7872370278	 0.078883
O	 1.2179391417	-1.3903647714	 1.8950609494	-0.259268
C	 1.1609912583	-0.354998861	 0.9322815609	 0.44159
C	-0.1527828709	 0.0710834251	 0.3411285695	-0.314087
H	-0.5867225082	 2.0352848211	-0.5694813101	 0.105107
H	 0.5630030758	 1.0502455749	-1.4604367546	 0.112353
H	 2.1062423754	 2.5230891548	-0.3457240712	 0.104476
H	 1.0734319221	 2.6711265277	 1.0752705878	 0.10685
H	 2.7056217523	 0.9899194451	 1.9281803412	 0.094001
H	 2.6434329459	-0.329524106	-0.8794674227	 0.097012
H	 2.7270917098	-2.6617385361	 2.5003647053	 0.141552
H	-0.8560245839	 0.3116990007	 1.1475633612	 0.112557
H	-0.6177244806	-0.6929181998	-0.289275836	 0.108896
191.9791	220.2269	261.4285	318.7995	418.7208	468.5397	594.4728	615.2008	666.3958	756.4119	823.5835	859.5169	881.3373	902.148	915.1141	945.5166	958.1127	971.6562	1019.1629	1026.9178	1055.7883	1071.5049	1112.1391	1132.9495	1175.306	1177.7055	1220.1515	1244.5075	1266.1811	1280.8006	1321.5876	1325.0624	1342.5002	1365.2838	1404.178	1490.7343	1496.3637	1513.071	1661.1342	3035.6475	3037.2424	3053.441	3075.1372	3084.8135	3108.9957	3154.1137	3164.5832	3231.628
C1CC2C3N=COC23C1	C1C[C@@H]2[C@H]3N=CO[C@@]23C1	
InChI=1S/C7H9NO/c1-2-5-6-7(5,3-1)9-4-8-6/h4-6H,1-3H2	InChI=1S/C7H9NO/c1-2-5-6-7(5,3-1)9-4-8-6/h4-6H,1-3H2/t5-,6-,7+/m1/s1
