12
gdb 132389	2.03085	1.80554	0.95592	1.6373	60.39	-0.2417	-0.0205	0.2211	1071.7707	0.07795	-518.137029	-518.129921	-518.128977	-518.168697	26.722	
N	-0.0155194156	 1.3212488955	 0.0865144775	-0.553069
C	 0.0025703489	-0.0308976271	 0.0311951596	 0.462436
N	-1.1890137588	-0.6555324638	 0.02226178	-0.369192
C	-1.1293518301	-1.9666725209	-0.0007482363	 0.359657
F	-2.2904729305	-2.6007993096	-0.0103964278	-0.057839
C	 0.0388376918	-2.7177312548	-0.0178062121	-0.453582
C	 1.1862941755	-1.9351923723	-0.0129823196	 0.359657
F	 2.3640571794	-2.5375229562	-0.0349874293	-0.057839
N	 1.2105325859	-0.6229116467	 0.0095843786	-0.369192
H	 0.8467648181	 1.8184031448	-0.0495184323	 0.273543
H	-0.8923885465	 1.7947594687	-0.0403306375	 0.273543
H	 0.053392792	-3.7962995175	-0.0381640409	 0.131874
186.2822	214.2856	235.0732	246.3025	336.514	357.5581	525.1039	541.103	559.1831	599.8777	647.1077	709.4535	710.3056	801.2774	818.9258	988.1903	991.0811	1115.7172	1131.468	1175.3497	1327.2467	1442.1728	1491.2355	1506.3157	1605.3659	1636.8172	1672.4585	3254.1804	3627.0572	3763.0041
NC1=NC(F)=CC(F)=N1	Nc1nc(F)cc(F)n1	
InChI=1S/C4H3F2N3/c5-2-1-3(6)9-4(7)8-2/h1H,(H2,7,8,9)	InChI=1S/C4H3F2N3/c5-2-1-3(6)9-4(7)8-2/h1H,(H2,7,8,9)
