12
gdb 130470	2.42971	1.80552	1.03581	1.2399	78.1	-0.2517	-0.0962	0.1556	1029.4336	0.07805	-431.677395	-431.670169	-431.669225	-431.709526	25.662	
O	-0.0607885162	 1.9414839585	 0.0135857637	-0.311294
C	 1.1052068134	 2.2884555021	 0.0040076097	 0.05994
C	 2.2183722911	 1.3648552685	-0.0118347431	 0.077367
C	 3.5810407758	 1.5947324946	-0.0239313927	-0.096334
N	 4.3265010183	 0.4383899917	-0.0374257288	-0.241664
C	 3.4737637326	-0.5683569086	-0.0344904122	-0.078284
C	 2.1288899393	-0.0769996454	-0.0186843724	 0.28296
N	 1.0339136628	-0.8085683726	-0.0119287007	 0.118173
N	 0.1290814196	-1.474053037	-0.0064049961	-0.165873
H	 1.3887741654	 3.361933143	 0.0069771998	 0.085584
H	 4.0717835291	 2.5593243936	-0.0235520355	 0.131237
H	 3.7794235188	-1.6062348282	-0.0430564418	 0.138188
121.2776	123.8707	181.355	226.9535	294.8148	455.6083	543.9177	548.999	614.3997	635.9761	641.5906	775.7971	852.5078	885.1728	886.5859	1034.1829	1128.7361	1203.4716	1240.5648	1277.7608	1364.1848	1387.2207	1430.5363	1456.2441	1563.5884	1759.3854	2262.9264	2911.365	3224.1162	3226.9388	121.2775	123.8718	181.3548	226.9547	294.8151	455.6083	543.9179	548.9998	614.399	635.9754	641.5907	775.7972	852.5079	885.1728	886.588	1034.1828	1128.7358	1203.4716	1240.5656	1277.7604	1364.1845	1387.2198	1430.5355	1456.2434	1563.5877	1759.386	2262.9278	2911.3649	3224.1163	3226.9389
O1C=C2C=NC=C2N=N1	O=Cc1cncc1[N][N]	
InChI=1S/C5H3N3O/c1-4-3-9-8-7-5(4)2-6-1/h1-3H	InChI=1S/C5H4N3O/c6-8-5-2-7-1-4(5)3-9/h1-3,7H
