22
gdb 82534	2.26208	1.60073	1.32857	1.6393	86.25	-0.2162	0.0827	0.2989	1120.8773	0.193424	-367.160844	-367.15175	-367.150806	-367.193938	35.632	
C	-0.0479242714	 1.5918360867	 0.0580343357	-0.430138
C	 0.045600556	 0.0862663591	 0.1590250079	-0.02515
N	 1.2162450516	-0.7200856746	-0.2730158279	-0.193658
C	 2.4564929964	 0.0375476495	 0.127280487	-0.247642
C	 2.0489705539	 0.0166131352	 1.600454292	 0.324161
C	 2.9300691588	-0.3371361433	 2.7592407291	-0.342535
C	 2.2766003149	 1.0247700744	 2.6919444962	-0.329332
C	 0.7693957199	-0.6917359248	 1.1941374432	 0.252247
C	 0.1954245919	-1.889149929	 1.8935855757	-0.497057
H	 0.7797180423	 2.1078388486	 0.5472769816	 0.130359
H	-0.0784883931	 1.9059364156	-0.9914574846	 0.123443
H	-0.9745993279	 1.9337842107	 0.5312058181	 0.119096
H	-0.8596141398	-0.4097642765	-0.19035464	 0.087792
H	 3.3369442602	-0.5708372949	-0.0952695473	 0.108629
H	 2.5677566387	 1.0126211719	-0.3591914226	 0.099033
H	 2.5562335531	-1.0439666613	 3.4932811437	 0.114521
H	 3.999372202	-0.4041990525	 2.583523853	 0.113006
H	 2.9041593598	 1.8823070082	 2.4695668035	 0.112069
H	 1.4625219077	 1.2354334303	 3.3783517803	 0.111904
H	-0.3005410085	-1.5996357299	 2.8283229652	 0.117069
H	-0.5463642534	-2.3844080833	 1.2607234187	 0.128495
H	 0.9757350269	-2.6178063502	 2.1372111117	 0.123688
122.233	162.9691	175.7979	203.9604	228.3341	234.9	305.7088	356.9603	386.8207	508.4778	518.2293	583.3795	637.5947	708.7367	777.0582	812.1921	852.8859	863.1789	906.5615	932.44	948.2019	987.8043	1019.8832	1053.6659	1074.3013	1079.0677	1083.0003	1115.239	1135.1673	1148.1082	1185.4604	1188.9643	1194.5841	1285.6944	1300.6749	1322.7826	1399.2967	1408.6513	1411.006	1454.9719	1463.1557	1480.8681	1490.2581	1492.8444	1503.4305	1504.9248	1512.3412	3025.0156	3035.2942	3040.9623	3086.3344	3091.77	3093.393	3105.9607	3113.0367	3119.9163	3123.6399	3135.9107	3197.0281	3212.1417
CC1N2CC3(CC3)C12C	C[C@H]1N2CC3(CC3)[C@@]12C	
InChI=1S/C8H13N/c1-6-7(2)8(3-4-8)5-9(6)7/h6H,3-5H2,1-2H3	InChI=1S/C8H13N/c1-6-7(2)8(3-4-8)5-9(6)7/h6H,3-5H2,1-2H3/t6-,7-,9?/m1/s1
