14
gdb 132653	3.24703	1.3413	0.94992	1.4914	68.86	-0.212	-0.0095	0.2026	1124.8612	0.102199	-478.034204	-478.026782	-478.025838	-478.065818	29.151	
N	-0.047183798	 1.3843262868	 0.2092936126	-0.566248
C	 0.018202393	 0.0074789987	 0.0776434269	 0.398196
N	-1.1550669486	-0.6370731987	 0.0707035542	-0.3496
C	-1.1317369983	-1.9728496567	 0.0056935189	-0.100848
C	 0.0373661229	-2.6939399908	-0.0633968197	 0.098177
F	 0.0528260047	-4.0433758882	-0.1361203033	-0.102359
C	 1.2695231065	-2.0295260327	-0.0654989121	 0.316282
O	 2.4312374189	-2.7145023301	-0.1363527399	-0.432475
C	 1.2600405751	-0.6476968813	 0.0095238607	-0.297292
H	 0.7163741924	 1.9127107319	-0.1827745322	 0.250003
H	-0.9593801346	 1.7605483013	-0.0032516564	 0.25493
H	-2.0861692681	-2.4929172277	 0.0030190536	 0.120407
H	 2.2165499024	-3.6553198192	-0.1771987167	 0.30769
H	 2.1962803516	-0.1023228634	 0.0228328633	 0.103137
148.0013	222.9363	287.7049	333.5083	364.2856	386.6256	448.2457	460.4902	490.3511	532.606	565.0996	598.4095	688.5125	754.4376	779.0218	795.0035	859.8333	942.2808	977.0919	1088.7728	1182.9812	1214.961	1294.4866	1306.5141	1357.5066	1388.2129	1489.4112	1546.2119	1629.8595	1635.3487	1675.2885	3164.1849	3198.3159	3576.8261	3689.9962	3786.6641
NC1=NC=C(F)C(O)=C1	Nc1ncc(F)c(O)c1	
InChI=1S/C5H5FN2O/c6-3-2-8-5(7)1-4(3)9/h1-2H,(H3,7,8,9)	InChI=1S/C5H5FN2O/c6-3-2-8-5(7)1-4(3)9/h1-2H,(H3,7,8,9)
