23
gdb 103933	3.11312	1.16711	1.07292	1.1506	86.43	-0.2375	0.0868	0.3244	1283.5475	0.203677	-388.264101	-388.254287	-388.253342	-388.298028	37.842	
C	-0.1214482706	 1.3246834531	-0.0668472897	-0.247452
O	 0.1267909229	-0.0628619023	-0.0581285672	-0.28608
C	 0.7184870066	-0.5785931997	 1.1243953919	 0.437555
C	 2.109495505	-0.0001320754	 1.3750297881	-0.45669
C	-0.1938262059	-0.5924483906	 2.4098897737	-0.363204
C	-0.1325705518	-2.1272586556	 2.4046114647	 0.373242
C	 0.0032569252	-2.9774445779	 3.6347076429	-0.497354
C	-0.7004859232	-2.6276862414	 1.1062010772	-0.335771
C	 0.7106654475	-2.1068095584	 1.1223135412	-0.137088
H	 0.8005720814	 1.9208774563	-0.1224391332	 0.105341
H	-0.7198052302	 1.5341168257	-0.9575603069	 0.123819
H	-0.6880825959	 1.6500475275	 0.8184898918	 0.103898
H	 2.0715901329	 1.0673937185	 1.6129889206	 0.113958
H	 2.5861399329	-0.5110558002	 2.2165488743	 0.118528
H	 2.7384477531	-0.135894238	 0.4888728061	 0.120564
H	 0.2947230487	-0.1359156286	 3.275309842	 0.094956
H	-1.1922516635	-0.1581115976	 2.2953485356	 0.092454
H	-0.923303196	-2.9774110207	 4.2222028008	 0.118717
H	 0.2270754568	-4.0174082933	 3.3744314518	 0.116455
H	 0.8062890969	-2.6150197598	 4.2873993478	 0.112619
H	-0.7853867124	-3.7070942876	 1.0231515855	 0.103613
H	-1.4715564949	-2.0728311769	 0.5795713681	 0.113095
H	 1.5593537344	-2.7223649569	 0.844231803	 0.074824
102.3001	126.1268	168.9614	205.8517	209.7318	254.084	308.5169	316.9183	327.0316	374.1851	414.8094	464.2942	516.454	586.3291	675.0964	794.0061	813.1302	877.5449	907.3304	922.3893	949.0795	976.4394	981.9444	1014.8889	1042.5723	1067.0521	1090.4288	1105.1859	1142.6586	1159.008	1182.1397	1192.4068	1215.1393	1232.0772	1250.3287	1287.8124	1316.6243	1393.4338	1401.7564	1425.2202	1473.2384	1475.9915	1484.9232	1485.6391	1490.9795	1496.3424	1502.962	1506.1028	1512.5459	2984.2541	3016.9352	3030.2619	3037.3162	3042.6001	3073.2954	3092.399	3095.7763	3104.5107	3107.4174	3112.9237	3116.7358	3167.3981	3202.1362
COC1(C)CC2(C)CC12	CO[C@@]1(C)C[C@@]2(C)C[C@@H]12	
InChI=1S/C8H14O/c1-7-4-6(7)8(2,5-7)9-3/h6H,4-5H2,1-3H3	InChI=1S/C8H14O/c1-7-4-6(7)8(2,5-7)9-3/h6H,4-5H2,1-3H3/t6-,7-,8+/m1/s1
