27
gdb 60340	2.84117	0.81512	0.75689	0.9611	93.42	-0.2472	0.0776	0.3247	1740.4036	0.248042	-390.708086	-390.695999	-390.695055	-390.745558	44.703	
C	-0.1648039215	 1.5415993258	 0.2169805658	-0.388865
C	-0.0208345556	 0.0398611794	-0.0066734922	 0.164218
C	 0.9057927863	-0.6081467599	 1.0272478386	-0.392469
O	-1.3350322463	-0.5028288305	 0.043650915	-0.266661
C	-1.489571877	-1.7861811957	-0.5257384866	-0.059301
C	-2.9801553128	-2.1642032983	-0.5490799355	 0.242768
C	-3.7604788264	-1.1427382911	-1.3949572995	-0.398752
C	-3.1059886455	-3.5634884662	-1.1748022954	-0.41143
C	-3.5288481095	-2.1840036654	 0.8888808933	-0.397453
H	 0.8088517383	 2.0375136698	 0.1619674417	 0.110552
H	-0.823893149	 1.9788229424	-0.5376465578	 0.11945
H	-0.5972694066	 1.7371746599	 1.2035234456	 0.121618
H	 0.3945903243	-0.1342246949	-1.0143706227	 0.061518
H	 1.9043503305	-0.1620870102	 0.9780266772	 0.112716
H	 0.5089645371	-0.4573681037	 2.0365252337	 0.120893
H	 1.0148820616	-1.6831530273	 0.8585510814	 0.116318
H	-1.087113339	-1.7923639864	-1.5538904404	 0.075765
H	-0.9313676874	-2.5442802104	 0.0475136552	 0.079685
H	-3.4031021994	-1.1364007585	-2.4312057438	 0.101143
H	-4.8281706372	-1.386383384	-1.4121831235	 0.103427
H	-3.6421290196	-0.1344180605	-0.9915274876	 0.126138
H	-2.5538192171	-4.3127612244	-0.5963794156	 0.107699
H	-4.1545659895	-3.8773866073	-1.2085841029	 0.111573
H	-2.7215498735	-3.5792496816	-2.2009618606	 0.107614
H	-3.4025384777	-1.2091888495	 1.365915291	 0.126856
H	-4.5944023127	-2.4375976139	 0.8949625747	 0.103183
H	-3.0055134048	-2.9285624477	 1.4998756509	 0.101799
30.8302	65.3799	125.7591	155.6082	208.2721	219.7911	243.8774	262.8271	263.3685	268.9614	294.9203	332.3885	371.5689	394.6289	414.9078	446.9371	492.4134	530.9742	756.9411	837.6355	923.5456	925.9709	930.9442	935.3	943.2701	948.9305	959.9944	965.7443	1050.6878	1085.8562	1116.5377	1151.5997	1168.6535	1198.6352	1232.0158	1247.8573	1285.0711	1314.3911	1362.051	1369.0426	1395.0055	1395.5327	1397.3076	1411.367	1414.6335	1442.7759	1478.5026	1480.1859	1485.1675	1487.9309	1491.8628	1495.3071	1497.603	1504.8652	1509.4672	1521.2444	1525.0641	2944.4041	2953.7525	2982.8294	3022.4125	3026.748	3033.0323	3036.3707	3042.0133	3087.1133	3090.2693	3091.7013	3097.4951	3106.9396	3112.1027	3115.635	3120.9892	3121.5098	3124.8394
CC(C)OCC(C)(C)C	CC(C)OCC(C)(C)C	
InChI=1S/C8H18O/c1-7(2)9-6-8(3,4)5/h7H,6H2,1-5H3	InChI=1S/C8H18O/c1-7(2)9-6-8(3,4)5/h7H,6H2,1-5H3
