16
gdb 102005	2.48845	1.36906	0.94944	5.0287	74.57	-0.2787	-0.0712	0.2075	1213.0978	0.123696	-434.100848	-434.091581	-434.090637	-434.135595	32.316	
C	 0.0159185584	 1.5234026635	-0.066690759	-0.380409
C	-0.0225834752	-0.0007217912	 0.0445372488	-0.163692
N	 0.6920018603	-0.514688156	 1.2244857268	-0.126034
C	-0.0296447922	-0.8383034536	 2.3675153804	 0.158134
O	 0.4338748903	-1.228149054	 3.4073936251	-0.282361
C	 2.0765713748	-0.6388010137	 1.1462755113	 0.329365
N	 2.6871748231	-0.3024079653	 0.0748779524	-0.503668
C	 2.8064206497	-1.1628474538	 2.2857857969	 0.259406
N	 3.5812680995	-1.5545315533	 3.0502265717	-0.331078
H	 1.0440512875	 1.87616628	-0.1658628879	 0.154058
H	-0.5431094464	 1.8409515019	-0.951886065	 0.128983
H	-0.4373065522	 1.9951477181	 0.8105202197	 0.124704
H	-1.0539361176	-0.3558261085	 0.1219154429	 0.120721
H	 0.4274992108	-0.4597215779	-0.8371371056	 0.15332
H	-1.1123236143	-0.69297569	 2.2027471995	 0.103608
H	 3.6880384835	-0.4653581963	 0.164296562	 0.254943
43.1717	93.9818	147.5745	184.5957	224.6911	246.8616	258.549	328.0106	380.8737	428.3429	460.48	581.4394	644.4312	740.4623	777.6702	816.8122	873.1944	947.715	1031.3712	1035.8783	1109.3582	1117.0259	1188.9653	1276.299	1374.7831	1396.5005	1407.1044	1415.3795	1450.4427	1488.8689	1493.6734	1507.4581	1657.4055	1822.672	2342.6284	2974.3323	3048.2578	3069.8974	3112.3316	3129.1113	3146.4234	3521.3569
CCN(C=O)C(=N)C#N	CCN(C=O)C(=N)C#N	
InChI=1S/C5H7N3O/c1-2-8(4-9)5(7)3-6/h4,7H,2H2,1H3	InChI=1S/C5H7N3O/c1-2-8(4-9)5(7)3-6/h4,7H,2H2,1H3
