17
gdb 43362	2.44989	1.80341	1.18374	3.6878	83.51	-0.2252	-0.0648	0.1604	1039.571	0.138463	-384.711171	-384.703932	-384.702987	-384.742953	28.606	
O	 0.0382198954	-0.0321787932	-0.2183978234	-0.346077
C	 0.0240853398	 1.1517424829	 0.0818455796	 0.36116
C	-1.2699486946	 1.8119064006	 0.3446885048	-0.189323
C	-1.6043194787	 3.1163859463	 0.2646101521	-0.061633
C	-0.8103692438	 4.2757470872	-0.0951831339	-0.107847
C	 0.5239409773	 4.3764968454	-0.2276064035	-0.053617
C	 1.5625651366	 3.3813229484	 0.0749507623	-0.084058
C	 1.6386284089	 2.7147991301	 1.4285442705	-0.292849
C	 1.3295323147	 1.8665705032	 0.2214189056	-0.126524
H	-2.0593601122	 1.0904184502	 0.5355048666	 0.111704
H	-2.6568538697	 3.3409006544	 0.4283659604	 0.104818
H	-1.3909811663	 5.1709714025	-0.300993286	 0.096864
H	 0.9131853769	 5.3328381188	-0.5697730933	 0.10399
H	 2.5255270539	 3.6141764352	-0.3682301346	 0.102915
H	 2.6125349697	 2.601758347	 1.8903981902	 0.130763
H	 0.8248180891	 2.9160163626	 2.1158695713	 0.137261
H	 2.141236173	 1.2473196186	-0.1451139088	 0.112453
76.801	207.0658	227.1324	354.003	364.1119	418.7646	459.1139	525.6346	651.2523	690.9568	722.6866	756.3659	820.7108	844.4653	861.155	874.6212	927.7606	940.9482	999.6284	1010.1392	1023.7319	1035.3982	1077.7678	1140.1753	1152.2002	1214.3718	1234.9003	1281.8529	1301.789	1384.5001	1409.6226	1431.8878	1470.0192	1480.2279	1643.269	1697.2465	1729.3588	3136.7821	3141.1741	3144.3047	3157.8474	3170.3654	3173.7641	3178.6887	3233.4922
O=C1C=CC=CC2CC12	O=C1C=CC=C[C@H]2C[C@@H]12	
InChI=1S/C8H8O/c9-8-4-2-1-3-6-5-7(6)8/h1-4,6-7H,5H2	InChI=1S/C8H8O/c9-8-4-2-1-3-6-5-7(6)8/h1-4,6-7H,5H2/t6-,7+/m0/s1
