15
gdb 131160	3.00053	1.14808	0.88331	2.5705	69.45	-0.2197	-0.0304	0.1893	1245.4134	0.112491	-453.964775	-453.956157	-453.955213	-453.999661	30.101	
O	-0.2017007146	 1.4464135221	 0.1157476308	-0.448063
C	-0.046066514	 0.0934909598	 0.0744456357	 0.162182
C	 0.0538738638	-0.6361457744	-1.0962122954	 0.269251
C	 0.0453792146	-0.2073836672	-2.5275562808	-0.391203
C	 1.4279149998	-0.371398958	-3.1468318721	 0.156112
O	 1.6758905233	-1.1077370585	-4.0652749935	-0.236413
N	 0.2104215391	-1.9312318245	-0.6882832204	-0.248486
N	 0.2029967525	-2.0839934239	 0.641527383	-0.213414
C	 0.0490812536	-0.8490881628	 1.1201523521	-0.114284
H	-0.3249945471	 1.7193879775	 1.029453477	 0.304009
H	-0.6727253133	-0.7724421278	-3.1308334463	 0.130753
H	-0.2289042196	 0.8534158522	-2.5581998789	 0.149804
H	 2.2205217737	 0.2327942862	-2.6521792307	 0.090012
H	 0.313376642	-2.7432427067	-1.2742341799	 0.280884
H	 0.0087374062	-0.6810633339	 2.1869090591	 0.108858
32.7049	53.5916	147.6609	197.372	218.8618	295.2488	376.1066	447.6487	476.9162	491.7458	648.5534	694.2509	704.1708	741.354	839.8822	845.4133	945.827	1010.0573	1054.0971	1113.8779	1156.1427	1182.544	1255.5254	1274.2845	1301.0231	1339.8905	1400.544	1418.9721	1450.6703	1459.8327	1534.8884	1663.6917	1831.3533	2890.3544	3041.0554	3097.0247	3236.2832	3664.3867	3843.8823
OC1=C(CC=O)NN=C1	Oc1c(CC=O)[nH]nc1	
InChI=1S/C5H6N2O2/c8-2-1-4-5(9)3-6-7-4/h2-3,9H,1H2,(H,6,7)	InChI=1S/C5H6N2O2/c8-2-1-4-5(9)3-6-7-4/h2-3,9H,1H2,(H,6,7)
