12
gdb 11631	3.56644	1.92326	1.52359	2.6252	63.32	-0.2558	-0.0233	0.2325	813.7189	0.081579	-381.241224	-381.234448	-381.233504	-381.272173	25.37	
O	-0.0649594323	-0.0525575991	-0.0988438501	-0.292251
C	-0.0461801115	 1.1212124846	 0.0342349694	 0.440385
C	-0.9351658389	 2.3905170336	 0.0486492295	-0.080474
C	-0.0243655196	 2.9728863822	 1.152499958	-0.258047
C	 0.937151579	 2.3567973139	 0.0966753764	 0.200127
O	 0.0228713228	 2.9057070483	-0.9619543837	-0.322183
C	 2.3469841	 2.4684431873	-0.0446508567	 0.060403
C	 3.5442637182	 2.519734912	-0.1386385412	-0.330681
H	-1.9942812214	 2.5403701802	-0.1400408319	 0.127009
H	-0.0001387434	 4.0633010036	 1.1505118634	 0.133518
H	-0.0473512733	 2.5348262425	 2.1527440383	 0.123434
H	 4.6021962404	 2.5686186908	-0.2277771515	 0.19876
127.9374	170.1975	182.7128	342.9778	482.2641	498.6968	523.008	612.0107	622.9759	699.6632	703.085	772.6343	807.1909	817.731	910.4982	941.4573	987.404	1036.0445	1095.5337	1174.2494	1204.3717	1208.8896	1323.3707	1472.3598	1944.8831	2240.4253	3073.7694	3160.0692	3177.3033	3495.1588
O=C1C2CC1(O2)C#C	O=C1[C@H]2C[C@@]1(O2)C#C	
InChI=1S/C6H4O2/c1-2-6-3-4(8-6)5(6)7/h1,4H,3H2	InChI=1S/C6H4O2/c1-2-6-3-4(8-6)5(6)7/h1,4H,3H2/t4-,6+/m1/s1
