19
gdb 114767	2.9519	1.47572	1.24023	0.4349	77.01	-0.2356	0.0104	0.2461	1080.9922	0.159885	-423.006679	-422.998577	-422.997633	-423.039312	31.293	
C	-0.6182813113	 1.0753490539	 0.4562067121	-0.240827
O	-0.3126595523	-0.3031949443	 0.5864214861	-0.238403
C	 0.9967234127	-0.5506496729	 1.0542913466	 0.153882
O	 1.1877324877	-0.0767780041	 2.3748637813	-0.264539
C	 0.7684762319	-0.8895067329	 3.4342936921	 0.122024
C	-0.512347688	-1.6582082634	 3.4371293136	-0.326794
C	 0.8285651859	-2.3940917046	 3.2807105964	-0.124726
C	 1.2213786327	-2.8549039807	 1.9355993592	-0.048548
C	 1.2854609108	-2.0162421632	 0.900593957	-0.108415
H	 0.0723701037	 1.5716593823	-0.2425148325	 0.104665
H	-1.6328681915	 1.139428083	 0.0572517059	 0.124869
H	-0.5720997987	 1.594388508	 1.4203428392	 0.124931
H	 1.7044174094	 0.0502847078	 0.4623845603	 0.078446
H	 1.1081080989	-0.4492939168	 4.3650972627	 0.10329
H	-1.034208724	-1.7613710749	 4.3828165416	 0.109595
H	-1.1380229833	-1.6098949904	 2.5549532329	 0.145818
H	 1.1678844733	-2.9903025088	 4.1208977575	 0.088979
H	 1.4693012289	-3.9048953262	 1.8075024948	 0.096108
H	 1.5567288033	-2.3530542218	-0.0935103266	 0.099646
96.181	135.4728	167.2464	204.4041	298.429	349.6368	400.5055	492.0947	527.8564	608.7301	653.4902	722.8932	758.6313	796.976	820.8599	879.3492	950.6429	972.4256	979.2367	1000.6428	1005.6791	1049.5697	1086.6477	1098.1783	1114.2081	1128.0071	1178.9288	1186.9785	1197.4917	1209.6624	1241.3395	1350.9369	1380.86	1384.1399	1422.5847	1438.8051	1469.6474	1475.0734	1483.652	1512.8816	1711.2468	2984.5169	2991.8499	3065.7489	3124.8358	3135.0821	3155.9601	3167.1443	3175.2824	3197.5873	3241.2186
COC1OC2CC2C=C1	CO[C@H]1O[C@H]2C[C@H]2C=C1	
InChI=1S/C7H10O2/c1-8-7-3-2-5-4-6(5)9-7/h2-3,5-7H,4H2,1H3	InChI=1S/C7H10O2/c1-8-7-3-2-5-4-6(5)9-7/h2-3,5-7H,4H2,1H3/t5-,6+,7+/m1/s1
