22
gdb 6767	6.99289	0.64447	0.60318	2.5125	79.84	-0.2411	-0.0067	0.2343	1899.8104	0.197116	-350.243088	-350.232447	-350.231503	-350.280639	36.322	
C	 0.0007011121	 1.5992674595	 0.0800673024	-0.37976
C	 0.0030765454	 0.0724968534	-0.0327190313	-0.163209
C	-1.3980348218	-0.5421056677	 0.056878444	-0.167575
C	-1.3965483966	-2.0696188662	-0.0558812939	-0.168162
C	-2.7953662499	-2.6780299461	 0.0339693455	-0.303335
C	-2.8203677105	-4.1979577607	-0.0757654376	 0.376578
C	-4.1886447444	-4.8548069952	 0.0084867244	-0.472313
O	-1.8104667594	-4.8480053847	-0.2216214194	-0.289939
H	 1.0140627198	 2.0072821423	 0.0125756888	 0.111371
H	-0.5950779242	 2.0547743727	-0.7189823645	 0.112139
H	-0.4261752004	 1.9254503277	 1.0352118215	 0.112138
H	 0.4671354772	-0.2252113519	-0.9822075782	 0.096216
H	 0.6346853409	-0.3534965037	 0.7579199631	 0.096213
H	-1.8637724488	-0.2436460847	 1.0071379109	 0.08849
H	-2.0314275972	-0.1152804649	-0.734080802	 0.088492
H	-0.9345729624	-2.3751665377	-1.0017864148	 0.108758
H	-0.7677472767	-2.5028642082	 0.7305263803	 0.108727
H	-3.2856884223	-2.4003106768	 0.9786599281	 0.115744
H	-3.4521011885	-2.2728705196	-0.7499570814	 0.115778
H	-4.8433375108	-4.4785794004	-0.785703586	 0.136105
H	-4.0867173292	-5.9368396936	-0.0822060637	 0.141387
H	-4.6729602724	-4.6090231635	 0.9603106437	 0.136158
23.716	54.5637	93.9694	94.9925	127.1559	134.7906	223.132	247.3343	286.8577	397.3331	457.4207	477.6356	597.655	721.2898	745.6395	819.8693	820.8181	908.0211	928.6146	935.1443	1005.8373	1025.4647	1060.8216	1069.8143	1133.4302	1148.8746	1177.557	1227.8237	1270.7519	1290.6114	1324.4209	1332.7442	1341.5061	1380.8952	1391.943	1401.6034	1413.4502	1448.9868	1465.5788	1477.605	1482.0229	1487.1895	1499.9585	1500.4612	1512.7953	1811.1363	2996.8903	3004.8167	3016.0513	3022.1748	3027.818	3029.3264	3035.8944	3040.5699	3050.0199	3080.2897	3093.8961	3095.8824	3100.2693	3150.7735
CCCCCC(C)=O	CCCCCC(=O)C	
InChI=1S/C7H14O/c1-3-4-5-6-7(2)8/h3-6H2,1-2H3	InChI=1S/C7H14O/c1-3-4-5-6-7(2)8/h3-6H2,1-2H3
