14
gdb 67502	2.6074	1.69867	1.29207	4.8927	65.76	-0.2583	0.0143	0.2726	960.6076	0.099561	-436.600323	-436.59293	-436.591986	-436.631986	28.583	
O	-0.0838665494	 1.3959936451	 0.0063071308	-0.444583
C	-0.0054009779	 0.0272616663	-0.0454007311	 0.337863
C	 0.5942921141	-0.7470262436	-1.2749540203	-0.065142
O	 0.802327579	-2.1094285181	-0.906750824	-0.213748
C	-0.5239662756	-1.6840908272	-1.2400348434	 0.031484
C	-1.1575064428	-0.9494859006	-0.0186556043	-0.181013
C	-0.2091590514	-0.8574452616	 1.1755460182	-0.241099
C	 0.653388531	-1.8800630346	 1.7101143647	 0.309877
N	 1.3238744245	-2.6501073449	 2.2537814173	-0.357591
H	 0.7563036974	 1.7427809997	 0.3309718175	 0.29998
H	 1.1751085625	-0.3226594997	-2.0847937628	 0.127211
H	-1.0500239361	-2.2182032892	-2.0203843475	 0.127907
H	-2.2154778594	-0.7575685097	 0.0977955457	 0.121748
H	-0.6723115057	-0.268545132	 1.9649411493	 0.147107
129.4161	164.0938	253.2875	309.9271	339.6998	369.6674	423.697	478.4218	557.7606	626.9258	687.3555	762.4332	782.6477	825.9321	870.7145	889.3977	933.7707	961.2882	989.8377	1009.5751	1046.0507	1072.8729	1174.9674	1185.0503	1234.8994	1264.8082	1290.6257	1329.3364	1376.1239	1469.4756	2351.7067	3141.1629	3194.6697	3209.9873	3217.8774	3776.9364
OC12C3OC3C1C2C#N	O[C@]12[C@H]3O[C@H]3[C@H]1[C@H]2C#N	
InChI=1S/C6H5NO2/c7-1-2-3-4-5(9-4)6(2,3)8/h2-5,8H	InChI=1S/C6H5NO2/c7-1-2-3-4-5(9-4)6(2,3)8/h2-5,8H/t2-,3-,4+,5+,6+/m1/s1
