18
gdb 80075	2.53108	1.8972	1.56323	1.8243	76.34	-0.2221	-0.0119	0.2103	932.7852	0.149063	-401.900781	-401.893442	-401.892498	-401.932227	29.353	
C	-0.3976298728	 1.4504714598	-0.2206182163	-0.306687
N	-0.010803655	 0.0633908701	 0.0174691939	-0.105047
C	 1.3348925012	-0.4403843003	-0.2839482313	-0.086125
C	 2.4783835726	 0.4431345786	-0.6055152699	-0.074055
C	 3.081873039	 1.2464330608	 0.28188415	-0.081507
C	 2.6685557189	 1.3081396266	 1.6999411385	-0.007143
O	 1.3952683082	 1.9109891117	 2.0214301381	-0.24807
C	 1.5055632326	 0.495635971	 2.12600055	 0.031701
C	 0.798761991	-0.3861492395	 1.1315207064	-0.059256
H	 0.4168721265	 2.1770812686	-0.1734983304	 0.12986
H	-0.8647532791	 1.4934148738	-1.2105060663	 0.111832
H	-1.1477237983	 1.7350868177	 0.5220142572	 0.125743
H	 1.3238093084	-1.3856903329	-0.8244368352	 0.090495
H	 2.851794573	 0.4021216392	-1.6256090564	 0.100485
H	 3.9357656263	 1.8466875884	-0.0180212385	 0.098896
H	 3.4432799621	 1.5481330109	 2.4261140177	 0.095758
H	 1.4863202609	 0.1224694078	 3.1498005891	 0.094103
H	 0.4433886144	-1.3150478221	 1.5758751233	 0.089018
144.8278	154.2166	243.6873	303.8456	316.685	422.3602	491.9277	540.021	583.8422	662.1874	707.3708	761.6513	781.6737	833.5404	852.3504	889.4788	935.3041	967.259	986.5181	1004.223	1053.5888	1055.9335	1104.932	1133.7767	1141.4147	1160.4141	1177.0724	1218.3196	1281.7187	1343.9016	1353.2095	1379.4053	1394.316	1426.6973	1446.1981	1460.9879	1488.3458	1500.1662	1686.3441	3033.6603	3099.1215	3102.1367	3108.7127	3117.3852	3119.196	3126.7616	3155.2453	3179.1241
CN1C2C=CC3OC3C12	CN1[C@H]2C=C[C@H]3O[C@H]3[C@@H]12	
InChI=1S/C7H9NO/c1-8-4-2-3-5-7(9-5)6(4)8/h2-7H,1H3	InChI=1S/C7H9NO/c1-8-4-2-3-5-7(9-5)6(4)8/h2-7H,1H3/t4-,5+,6-,7+,8?/m0/s1
