18
gdb 8183	2.72185	2.56241	1.7482	1.2472	66.94	-0.2396	0.063	0.3026	815.9125	0.154067	-384.920762	-384.913473	-384.912529	-384.951691	29.174	
C	-0.060617989	 1.5271150817	-0.0001644653	-0.408928
C	 0.0638855343	 0.0148073467	 0.0493866838	 0.095016
O	 0.9196035203	-0.4965242341	-0.998511513	-0.293975
C	 1.8764736344	-1.2739344222	-0.2516462671	 0.106947
C	 2.2722132134	-0.3392339251	 0.9175942008	-0.273788
C	 0.7848115721	-0.5930666728	 1.2803278794	 0.359562
O	 0.3227086107	-0.2649545454	 2.549198262	-0.481173
C	 1.0038388608	-2.0567017049	 0.7566871346	-0.302886
H	 0.9092292527	 2.0184174116	 0.1096349558	 0.123223
H	-0.4929488445	 1.8386303965	-0.9554661098	 0.124732
H	-0.7161869179	 1.8753864523	 0.8048486439	 0.113954
H	-0.937229213	-0.4319593797	-0.0589368203	 0.061794
H	 2.5902590205	-1.7362901434	-0.9290099408	 0.084481
H	 2.9500589416	-0.8065874971	 1.6334078487	 0.107119
H	 2.5953204296	 0.6734510606	 0.6730719468	 0.103095
H	-0.6071366272	-0.5115699334	 2.6102177244	 0.282515
H	 0.1464757861	-2.6039434301	 0.3560454673	 0.094131
H	 1.5783623252	-2.6667213712	 1.4553156788	 0.104182
171.5201	205.6835	233.5377	257.9723	362.2958	389.5933	483.1457	502.0139	547.0343	598.9517	671.9778	805.5754	829.161	857.6536	919.1112	925.253	946.3602	968.5104	988.8537	1022.5887	1089.658	1100.5617	1117.1414	1139.4329	1148.4747	1183.9588	1228.9372	1233.6651	1271.1758	1301.7476	1333.8324	1380.8794	1397.7081	1411.8947	1470.6218	1486.3991	1494.6233	1515.858	2970.9788	3042.3568	3064.3297	3083.5866	3111.7264	3124.0937	3137.5005	3148.7325	3154.0367	3796.8486
CC1OC2CC1(O)C2	C[C@H]1O[C@H]2C[C@]1(O)C2	
InChI=1S/C6H10O2/c1-4-6(7)2-5(3-6)8-4/h4-5,7H,2-3H2,1H3	InChI=1S/C6H10O2/c1-4-6(7)2-5(3-6)8-4/h4-5,7H,2-3H2,1H3/t4-,5-,6-/m1/s1
