13
gdb 21858	3.94702	1.90455	1.28466	3.4887	66.	-0.2072	-0.0483	0.1589	869.1387	0.097719	-394.790343	-394.783767	-394.782823	-394.820915	25.37	
O	-0.0107707135	 1.3606948358	 0.0081035058	-0.428816
C	-0.0195717962	 0.0062644613	 0.0009451481	 0.384974
C	-1.1905269923	-0.6745240854	 0.003896805	-0.228395
C	-1.1968528643	-2.1216613377	-0.0037752797	 0.402462
N	-2.2777022983	-2.8142178084	-0.0013784026	-0.56686
N	 0.1030581693	-2.6711238483	-0.013989245	-0.297392
N	 1.2701870678	-2.0210479234	-0.0170849118	-0.169409
C	 1.2226218247	-0.7260525785	-0.0099298645	-0.108037
H	 0.8975450063	 1.6806992926	 0.0046950752	 0.305878
H	-2.14621565	-0.1679524211	 0.0119605982	 0.132303
H	-2.0852179542	-3.8169050343	-0.0077888614	 0.193997
H	 0.1962351587	-3.6762086526	-0.0198560516	 0.264827
H	 2.1792704421	-0.2108149003	-0.0125611357	 0.114468
151.8015	208.1509	334.49	343.7551	412.9855	477.4002	519.6567	562.2823	603.1766	675.6654	718.548	744.7283	773.9564	844.6684	902.8862	947.0481	1017.0996	1116.3439	1175.8475	1198.8391	1265.1687	1321.7708	1385.3029	1434.497	1461.9332	1600.3654	1679.8128	1723.6857	3164.9876	3232.3269	3459.4896	3613.1852	3821.8025
OC1=CC(=N)NN=C1	O[C@H]1C=C([NH])NN=C1	
InChI=1S/C4H5N3O/c5-4-1-3(8)2-6-7-4/h1-2H,(H3,5,7,8)	InChI=1S/C4H6N3O/c5-4-1-3(8)2-6-7-4/h1-3,5,7-8H/t3-/m0/s1
