19
gdb 90241	3.73998	1.39163	1.32209	0.6555	75.61	-0.248	0.0266	0.2746	1038.6185	0.159282	-422.891983	-422.884577	-422.883633	-422.923402	30.342	
C	-0.0469561188	 1.5898903735	 0.0388055633	-0.416584
C	 0.0158393737	 0.0644212279	-0.0060731563	 0.046413
C	 1.015198034	-0.5255113181	-1.0446427829	-0.258738
C	 1.9283617637	-1.3219977743	-0.0925113565	 0.328366
C	 2.2897177194	-2.740691064	-0.6187460953	-0.199913
O	 0.9332333794	-3.1424921246	-0.1473476222	-0.324395
C	 1.0803177796	-2.0427874977	 0.8504030656	 0.113742
C	 0.6759284521	-0.5592616531	 1.2243212853	-0.021526
O	 2.1412487134	-0.2931358902	 0.9969640217	-0.367362
H	 0.9452120868	 2.0030191304	 0.2427906895	 0.132466
H	-0.3965966529	 1.9939643172	-0.9167388402	 0.115716
H	-0.7317520487	 1.9407169006	 0.818521588	 0.111218
H	-0.9891276487	-0.3487299307	-0.1443641345	 0.081496
H	 0.5342738529	-1.1606646913	-1.790164873	 0.116032
H	 1.5943041969	 0.2492005261	-1.5552157647	 0.105926
H	 2.3968554197	-2.8816877422	-1.6971381489	 0.123721
H	 3.0678826167	-3.2715603096	-0.0620379286	 0.124019
H	 1.6267772759	-2.4532979522	 1.7035299478	 0.101254
H	 0.357143045	-0.2754866776	 2.228589942	 0.088148
132.8669	234.0002	244.2016	292.396	310.1667	411.3498	466.6911	508.09	573.7958	649.5809	703.6917	772.5842	798.1129	829.6192	838.8593	873.383	893.3414	920.4297	936.7154	963.6772	1034.9622	1047.2816	1071.8139	1100.8167	1113.4485	1134.7451	1184.0194	1208.9122	1214.9162	1244.1071	1265.9051	1289.4176	1310.0318	1347.3383	1372.2334	1397.3248	1407.1681	1474.4818	1496.3462	1499.6934	1505.9215	3032.7608	3048.2587	3048.4233	3064.9969	3070.6476	3097.1235	3115.8757	3116.674	3120.8691	3126.4438
CC1CC23COC2C1O3	C[C@H]1C[C@]23CO[C@@H]2[C@H]1O3	
InChI=1S/C7H10O2/c1-4-2-7-3-8-6(7)5(4)9-7/h4-6H,2-3H2,1H3	InChI=1S/C7H10O2/c1-4-2-7-3-8-6(7)5(4)9-7/h4-6H,2-3H2,1H3/t4-,5-,6+,7-/m0/s1
