17
gdb 96756	3.43271	0.80202	0.70327	2.2216	76.07	-0.2335	-0.0783	0.1552	1568.8181	0.131701	-455.14708	-455.136598	-455.135654	-455.184594	34.804	
C	-0.585454477	 1.1463185911	-0.0686341284	-0.310072
N	-0.0531590821	-0.2036363877	-0.0144066592	-0.306564
C	 0.7759314971	-0.6463678675	-0.8765884287	 0.304708
N	 1.3277085077	-1.906868207	-0.743218025	-0.341882
C	 0.9105450781	-2.8116263118	 0.3028644457	-0.242377
C	-0.3135640838	-3.6399342626	-0.076195146	 0.153578
O	-0.5059555071	-4.763438297	 0.3056734547	-0.229799
C	 1.3095633127	 0.0726150817	-2.0937580829	 0.10679
O	 1.0114242201	 1.1927012323	-2.4138620539	-0.233236
H	 0.1979296271	 1.9129433995	-0.0489578062	 0.130324
H	-1.1759621182	 1.325128301	-0.9751750969	 0.130575
H	-1.2347415439	 1.2910957123	 0.799022542	 0.116604
H	 1.7919362344	-2.3010677716	-1.5451195106	 0.250798
H	 1.7239517555	-3.4869322911	 0.5819491936	 0.132673
H	 0.6407575859	-2.201904884	 1.1732213168	 0.170492
H	-1.0253050077	-3.1143414709	-0.7512518697	 0.089614
H	 2.026114191	-0.5264710865	-2.7055042254	 0.077774
30.2818	46.5152	75.6349	100.4518	165.0865	213.5858	238.0101	246.2179	342.5549	346.4646	383.096	425.231	536.5944	571.1707	686.1028	776.3638	847.7426	1003.1775	1040.7559	1045.247	1088.7366	1105.9054	1126.8694	1161.7751	1267.0957	1281.5859	1342.5997	1411.8929	1428.3736	1435.6258	1446.5838	1480.0094	1500.4654	1530.2941	1697.0018	1831.6171	1837.4952	2841.0406	2890.6513	3016.0355	3047.7122	3071.4644	3098.856	3109.708	3640.1991
CN=C(NCC=O)C=O	CN=C(NCC=O)C=O	
InChI=1S/C5H8N2O2/c1-6-5(4-9)7-2-3-8/h3-4H,2H2,1H3,(H,6,7)	InChI=1S/C5H8N2O2/c1-6-5(4-9)7-2-3-8/h3-4H,2H2,1H3,(H,6,7)
