20
gdb 95855	2.38904	1.33793	1.08277	4.4925	78.81	-0.264	0.0362	0.3002	1206.9748	0.172549	-403.179448	-403.170839	-403.169894	-403.212614	32.745	
C	 0.0093178518	 1.5825870145	-0.0188017097	-0.409035
C	 0.0208020464	 0.0526520204	-0.025016442	 0.012425
C	 0.7565841893	-0.4950603619	-1.2546356122	-0.071638
O	 0.7930869676	-1.9143467988	-1.2738792456	-0.238287
C	 1.4669049321	-2.4539102364	-0.1640389093	-0.080099
C	 0.7865959346	-2.0633769237	 1.1681519715	-0.177565
C	 0.6678349709	-0.5215875875	 1.2452624728	-0.217947
C	-0.524166001	-2.7069520641	 1.2986556918	 0.284089
N	-1.5566128541	-3.2130074786	 1.4168929235	-0.330517
H	 1.0272907523	 1.9876543971	 0.0229199664	 0.116012
H	-0.4712483375	 1.9790529557	-0.9191826889	 0.120606
H	-0.5373970124	 1.9674506573	 0.8477058449	 0.122429
H	-1.0134989956	-0.3115430224	-0.0760512894	 0.106997
H	 0.2541468708	-0.1944208832	-2.1784399812	 0.114496
H	 1.7854646409	-0.0924909264	-1.2815149494	 0.083373
H	 1.476146957	-3.5384565338	-0.2964298186	 0.128158
H	 2.5105612854	-2.0973402993	-0.1253151017	 0.093319
H	 1.410600141	-2.4253311678	 1.9945485527	 0.123236
H	 1.6828516561	-0.1166573646	 1.3538310251	 0.101711
H	 0.1064012045	-0.2270486166	 2.1371177994	 0.118237
99.0978	115.7006	200.4957	222.6556	269.1418	295.5501	349.6367	403.9761	412.3703	439.5722	528.4774	607.1369	729.9686	774.3593	867.872	877.5733	914.473	932.224	969.5528	985.6502	1005.4327	1087.0451	1111.3487	1124.8612	1159.4908	1177.7457	1223.8211	1260.9449	1275.6848	1325.5438	1330.3296	1345.6213	1356.3862	1386.3503	1402.1868	1413.0261	1425.1263	1483.1494	1486.9391	1497.7734	1501.1195	1502.0925	2355.9115	2945.8125	2962.7466	3020.2112	3027.5201	3034.3809	3042.8807	3082.6743	3087.6273	3096.4627	3101.9758	3104.7539
CC1COCC(C1)C#N	C[C@H]1COC[C@@H](C1)C#N	
InChI=1S/C7H11NO/c1-6-2-7(3-8)5-9-4-6/h6-7H,2,4-5H2,1H3	InChI=1S/C7H11NO/c1-6-2-7(3-8)5-9-4-6/h6-7H,2,4-5H2,1H3/t6-,7+/m1/s1
