25
gdb 113542	2.75437	0.99821	0.90883	0.1267	93.8	-0.2558	0.0888	0.3445	1491.3634	0.228216	-352.34431	-352.33418	-352.333236	-352.379438	38.523	
C	 0.2784248009	 1.5212313715	 0.2407409823	-0.371672
C	-0.1793127187	 0.1028277224	-0.1195122754	-0.196164
C	 0.5791526336	-0.476941597	-1.2956850511	-0.039896
C	 1.9078100047	-1.1728369197	-1.0867391593	-0.363623
C	 0.7039439888	-1.9620441774	-1.5119089314	 0.336653
C	-0.0474858475	-3.0587814386	-0.7423593982	-0.299789
C	-0.5791098142	-3.5860417879	-2.1057141813	-0.224486
C	 0.4738206426	-2.7059846338	-2.8448651958	-0.019904
C	 0.0306309549	-1.9305474586	-4.0764438033	-0.411623
H	 1.3423985766	 1.5358593506	 0.4990963294	 0.117763
H	 0.1340190439	 2.207899469	-0.6007759358	 0.112225
H	-0.282563576	 1.9168612558	 1.0934121692	 0.107619
H	-0.0554434798	-0.5522280839	 0.751602428	 0.094619
H	-1.255116768	 0.1115662746	-0.3421914522	 0.092056
H	 0.5070353199	 0.1215467068	-2.2025925458	 0.075498
H	 2.7013989908	-1.0107245925	-1.8106373088	 0.102103
H	 2.25778407	-1.29448984	-0.0646828485	 0.10227
H	 0.6274794445	-3.7664545471	-0.2501585553	 0.097255
H	-0.7976344609	-2.7369340138	-0.0151357845	 0.097316
H	-0.533938148	-4.6642323589	-2.2763783398	 0.092448
H	-1.5994387685	-3.2452110604	-2.3068130007	 0.096575
H	 1.359088058	-3.3066978623	-3.0896683021	 0.066972
H	-0.8597216925	-1.3281908193	-3.8651989017	 0.112569
H	 0.8155707472	-1.253961901	-4.4341733238	 0.111748
H	-0.2138610224	-2.6121242085	-4.8988829938	 0.111467
68.0185	83.9453	139.0223	140.2061	211.6958	229.9275	248.4298	288.4907	360.3769	418.7779	447.2294	489.6042	556.925	698.0679	770.501	775.4748	811.5089	865.567	886.2197	906.7619	923.1633	944.157	951.0931	973.8337	1020.3333	1048.3502	1063.6569	1091.7933	1109.3017	1128.8312	1146.2103	1176.3727	1186.6199	1199.2591	1234.0043	1255.942	1269.4433	1285.9155	1296.1508	1325.1474	1356.8899	1369.4624	1407.4932	1408.0193	1430.1941	1477.7787	1483.7359	1491.0477	1495.1687	1496.9227	1497.4578	1502.1062	1507.2575	3011.5176	3017.8398	3022.44	3030.3967	3044.2844	3048.7998	3052.6502	3085.7702	3090.6604	3094.2667	3097.3015	3103.5938	3108.0408	3110.7278	3116.3634	3190.7706
CCC1CC11CCC1C	CC[C@H]1C[C@]21CC[C@H]2C	
InChI=1S/C9H16/c1-3-8-6-9(8)5-4-7(9)2/h7-8H,3-6H2,1-2H3	InChI=1S/C9H16/c1-3-8-6-9(8)5-4-7(9)2/h7-8H,3-6H2,1-2H3/t7-,8+,9-/m1/s1
