20
gdb 31132	1.97321	1.65922	0.96684	1.3747	83.04	-0.1705	0.0592	0.2298	1251.5981	0.171871	-399.360185	-399.350074	-399.34913	-399.395179	37.214	
C	 0.189984206	 1.6140234497	 0.1561080552	-0.365449
C	-0.0794401666	 0.1161931801	-0.0786206289	-0.317443
C	 0.6508618347	-0.448153096	-1.2610822657	 0.211818
C	 0.0959351991	-0.8469961905	-2.4657455368	 0.153529
N	-1.2317335673	-0.8753616161	-2.9606855523	-0.615248
N	 1.1072288748	-1.2806439639	-3.2782085064	-0.255914
C	 2.3160599894	-1.1804336061	-2.6223473185	-0.172098
C	 2.0619302179	-0.6615797077	-1.3710907599	 0.149938
N	 3.006728937	-0.3157221232	-0.3774718553	-0.607083
H	 1.2600389649	 1.7955227966	 0.2913423378	 0.1363
H	-0.1384341287	 2.2065010558	-0.7039723583	 0.108827
H	-0.3384461833	 1.9782234562	 1.0438648174	 0.099099
H	 0.188391863	-0.4375110063	 0.8336237523	 0.087522
H	-1.1562734511	-0.0453295412	-0.2133840334	 0.079189
H	-1.8023653136	-1.5645428147	-2.4801440587	 0.240249
H	-1.6913988856	 0.0217070357	-2.8480892369	 0.242348
H	 0.9585239365	-1.5960057517	-4.2202113428	 0.254675
H	 3.240729207	-1.4730479732	-3.0925372215	 0.100485
H	 3.906931619	-0.7481320213	-0.5473382376	 0.233282
H	 2.6971508467	-0.5907154923	 0.5482017603	 0.235972
69.5705	81.1948	134.9663	181.9634	193.2526	215.8117	285.8724	295.4148	309.3137	394.7478	467.2671	515.7267	571.5255	625.2491	648.4467	684.7821	722.9809	752.2659	797.8813	807.7811	823.1518	964.4135	993.9495	1079.3576	1089.887	1100.6623	1163.7874	1203.479	1228.2177	1282.1551	1295.7412	1346.3947	1359.5086	1405.6164	1451.3612	1482.6891	1493.75	1504.1608	1513.4873	1560.5711	1629.234	1654.0005	1668.2472	2990.0576	3031.5952	3040.7332	3098.795	3116.0188	3260.9208	3493.7813	3509.5091	3562.2189	3598.2311	3690.9276
CCC1=C(N)NC=C1N	CCc1c(N)[nH]cc1N	
InChI=1S/C6H11N3/c1-2-4-5(7)3-9-6(4)8/h3,9H,2,7-8H2,1H3	InChI=1S/C6H11N3/c1-2-4-5(7)3-9-6(4)8/h3,9H,2,7-8H2,1H3
