15
gdb 124976	3.08561	1.25582	0.95056	2.3945	71.33	-0.2637	-0.0249	0.2388	1178.8003	0.112459	-416.822095	-416.813644	-416.8127	-416.856738	29.29	
C	 0.3939533827	 1.4614157389	-0.0372365773	-0.525666
C	 0.1319196508	-0.0125754254	-0.0149451021	 0.074294
C	 0.0052048896	-0.8983996108	-1.043034263	 0.36052
C	 0.0524880154	-0.7953717148	-2.5403950789	-0.458308
C	 1.1477802114	 0.0396218352	-3.0352873212	 0.278404
N	 2.0027187536	 0.7077840187	-3.4310381812	-0.306544
O	-0.2481626024	-2.1364626572	-0.5742287365	-0.213913
N	-0.2972167246	-2.0961480148	 0.8129620018	-0.136882
C	-0.0711018154	-0.8459044835	 1.1252046784	-0.017364
H	 1.1123598111	 1.7406247349	 0.7394582735	 0.142695
H	 0.802698528	 1.7840075767	-0.9969800714	 0.158881
H	-0.5228090239	 2.0330097478	 0.1474198689	 0.140242
H	 0.1596325154	-1.803739867	-2.9532618779	 0.188052
H	-0.8910473051	-0.3948216766	-2.9329398187	 0.179123
H	-0.0539044066	-0.5609721521	 2.1685840956	 0.136464
34.0096	57.2639	116.3561	232.2606	246.7924	296.3755	372.2508	385.1585	473.2304	638.5141	655.3653	676.4395	766.3004	914.2191	918.9464	937.7368	955.4659	967.1635	1010.4856	1069.044	1170.8826	1196.2051	1212.7663	1267.3844	1338.7747	1405.5477	1429.0767	1452.0484	1490.4821	1492.3737	1513.1363	1677.7861	2368.9149	3033.5596	3038.1552	3088.4422	3094.4029	3133.0874	3237.2507
CC1=C(CC#N)ON=C1	Cc1c(CC#N)onc1	
InChI=1S/C6H6N2O/c1-5-4-8-9-6(5)2-3-7/h4H,2H2,1H3	InChI=1S/C6H6N2O/c1-5-4-8-9-6(5)2-3-7/h4H,2H2,1H3
