18
gdb 53133	3.71395	1.05572	0.93433	1.8752	85.68	-0.1969	0.0516	0.2485	1315.1423	0.146744	-364.687829	-364.679336	-364.678392	-364.7221	31.709	
C	 0.1906154661	 1.6313877186	-0.1457274508	-0.501094
C	 0.0463805898	 0.1863772751	-0.0528290852	 0.087858
C	-0.123855924	-1.0007406968	 0.0621202018	 0.105304
C	-0.1715441383	-2.4377581554	 0.0829774753	-0.214445
C	-0.4495292344	-3.393573616	 1.2320890829	-0.086044
C	-1.6720007165	-3.0265962793	 2.118825888	-0.062231
N	-2.2528918342	-1.7493719544	 1.6445578781	-0.314544
C	-2.5552990259	-3.014434751	 0.9361500841	-0.062231
C	-1.3616489465	-3.3810223546	 0.0108251757	-0.086044
H	 1.1649737429	 1.9630667201	 0.2317563636	 0.139789
H	 0.1076577109	 1.9776592111	-1.1825972995	 0.139792
H	-0.5816723914	 2.1473013368	 0.4369179538	 0.143318
H	 0.6316940884	-2.8627120433	-0.5212963741	 0.110878
H	 0.2752688755	-4.1439670652	 1.5223766597	 0.091756
H	-1.8424249812	-3.3899443255	 3.1235012559	 0.093966
H	-3.0523090262	-1.5428874881	 2.2437332217	 0.22825
H	-3.5705532806	-3.3661441036	 0.8096662978	 0.093966
H	-1.4416137043	-4.1203456483	-0.7763828187	 0.091756
31.5971	96.926	98.2227	242.5307	243.8771	358.1476	386.1311	433.5235	588.8166	608.3128	706.9813	711.2376	740.9335	816.0223	854.1718	864.0491	877.7275	908.4677	928.2511	990.8255	993.5032	1033.3398	1051.7287	1053.8498	1069.49	1071.4065	1118.4379	1126.5696	1218.0008	1247.1637	1256.0396	1314.0043	1335.6596	1365.3033	1413.231	1431.4623	1478.665	1479.6717	2365.8296	3018.3204	3075.9405	3076.2338	3091.9285	3179.7842	3190.3049	3196.1357	3208.9631	3465.6471
CC#CC1C2C3NC3C12	CC#C[C@H]1[C@H]2[C@H]3N[C@H]3[C@@H]12	
InChI=1S/C8H9N/c1-2-3-4-5-6(4)8-7(5)9-8/h4-9H,1H3	InChI=1S/C8H9N/c1-2-3-4-5-6(4)8-7(5)9-8/h4-9H,1H3/t4-,5+,6-,7+,8-
