19
gdb 109848	3.44853	0.86604	0.80682	4.5763	73.4	-0.2382	-0.0136	0.2247	1468.5424	0.156148	-460.131569	-460.121548	-460.120604	-460.167705	35.022	
C	 0.4777164707	 1.112982546	 0.4170510483	-0.24708
O	-0.1814424291	-0.0145900137	-0.1449536731	-0.25335
C	 0.4571958536	-0.494327528	-1.2933400843	 0.040658
C	 1.3440699122	-1.6977579838	-1.0823002123	 0.084649
O	 1.484297823	-2.1741636062	 0.2226422766	-0.428081
C	 0.0062359783	-1.8472410658	-1.7961649527	-0.137191
C	-1.148844231	-2.588148892	-1.1452139931	-0.298939
C	-0.9063827192	-4.0851541998	-1.1397331593	 0.159831
O	-1.6644865083	-4.9021323256	-1.5965712596	-0.24455
H	 1.5141118217	 0.8811403524	 0.6966199473	 0.124448
H	 0.4841980775	 1.9560141396	-0.287551846	 0.121766
H	-0.084731387	 1.3978907625	 1.3085755195	 0.136987
H	 0.7213858422	 0.2771076213	-2.0156197795	 0.0952
H	 2.2591780285	-1.8117882366	-1.6545209161	 0.106255
H	 0.9237478793	-1.6169531219	 0.7793763776	 0.293707
H	 0.0670490349	-1.9699724354	-2.8742527581	 0.1032
H	-1.2568725099	-2.263404314	-0.1043702166	 0.126266
H	-2.0930483528	-2.3831012243	-1.6572622462	 0.121799
H	 0.0549450455	-4.3832710946	-0.6672660923	 0.094424
50.6427	65.7884	89.0212	119.7923	171.8284	203.3089	269.2477	283.6483	310.5471	440.1051	487.2872	572.0614	592.4144	659.9749	748.4147	788.3261	832.254	896.5505	983.5921	1029.0137	1064.8081	1088.9856	1097.4059	1125.4008	1133.8281	1149.6502	1182.5886	1205.6739	1239.5216	1250.2884	1282.4692	1326.1692	1358.7518	1384.3213	1420.8054	1454.3123	1463.6704	1483.2267	1487.344	1508.2735	1832.2418	2903.7482	2998.1468	3052.0168	3055.7148	3104.8229	3106.8906	3128.4095	3143.9559	3162.5144	3751.4075
COC1C(O)C1CC=O	CO[C@H]1[C@@H](O)[C@H]1CC=O	
InChI=1S/C6H10O3/c1-9-6-4(2-3-7)5(6)8/h3-6,8H,2H2,1H3	InChI=1S/C6H10O3/c1-9-6-4(2-3-7)5(6)8/h3-6,8H,2H2,1H3/t4-,5+,6-/m1/s1
