19
gdb 71132	2.77963	1.8368	1.57411	1.2073	72.92	-0.2235	0.0681	0.2916	921.388	0.161929	-423.025737	-423.018671	-423.017727	-423.056749	29.531	
O	-0.089186488	 1.3746261549	-0.0450867411	-0.490304
C	 0.0054854017	-0.0326110578	 0.0173673393	 0.312811
C	 0.6325494839	-0.6006246384	 1.3116464013	-0.269404
C	 0.1865802852	-2.0532106991	 1.2656120073	-0.106556
C	-1.0977324865	-2.0951059045	 0.4222630501	-0.110141
C	-1.3955930693	-0.6670766135	-0.0048058288	-0.234982
C	 0.1973110479	-2.6352895337	-0.122130199	 0.130681
O	 0.8777871871	-2.0023628197	-1.1742684892	-0.274921
C	 0.7949060942	-0.5785536621	-1.1836753009	-0.095208
H	 0.8015236467	 1.7388592607	 0.0047326497	 0.277874
H	 1.7228312373	-0.4807147998	 1.3267995358	 0.091647
H	 0.2171618686	-0.0827777798	 2.1832985894	 0.104896
H	 0.3335646236	-2.6956371539	 2.1266329036	 0.083081
H	-1.9125275534	-2.7734514011	 0.6485780005	 0.08336
H	-2.0440977645	-0.1612402113	 0.7186057197	 0.106669
H	-1.8599721535	-0.5897715443	-0.9932146533	 0.104357
H	 0.3007433922	-3.7091523526	-0.2277486201	 0.101219
H	 0.3135764109	-0.2501582302	-2.1146268414	 0.10317
H	 1.8190252959	-0.1732731838	-1.1710551329	 0.08175
133.7966	271.6706	292.6439	322.1635	416.7178	432.6924	483.6137	499.3448	559.8397	667.3369	677.4531	768.6798	787.6459	826.8886	913.2065	923.3153	950.4797	960.5656	991.7688	1030.1446	1042.3528	1045.5577	1079.2598	1096.9717	1125.5008	1138.5279	1172.5965	1188.3363	1194.8696	1233.9891	1281.5713	1289.4244	1305.3548	1318.7921	1345.9156	1384.9457	1415.3074	1437.7644	1489.1628	1504.9115	1524.2416	2975.6371	3025.9197	3028.2451	3043.0198	3072.6505	3086.5587	3165.3447	3170.1863	3184.3945	3801.3786
OC12CC3C(C1)C3OC2	O[C@@]12C[C@H]3[C@@H](C1)[C@H]3OC2	
InChI=1S/C7H10O2/c8-7-1-4-5(2-7)6(4)9-3-7/h4-6,8H,1-3H2	InChI=1S/C7H10O2/c8-7-1-4-5(2-7)6(4)9-3-7/h4-6,8H,1-3H2/t4-,5+,6-,7-
