20
gdb 126753	3.0469	1.13707	0.90338	0.2273	83.76	-0.2327	0.0114	0.2441	1376.8127	0.170659	-399.362297	-399.352367	-399.351423	-399.398309	34.595	
C	-0.0151134956	 1.5119952292	 0.0050770634	-0.377994
C	 0.022294985	-0.0162522617	-0.0312407909	-0.125753
N	 0.6948530712	-0.5296703367	-1.2132180358	 0.13798
N	 0.0537088967	-0.73674603	-2.35890864	-0.29489
C	 1.0161682168	-1.1120312899	-3.2062238173	 0.243238
C	 0.7286041059	-1.4672619015	-4.6282319908	-0.5004
C	 2.2442070816	-1.1060668354	-2.5100602638	 0.243127
C	 3.6147051266	-1.4528179455	-2.9922490865	-0.500412
N	 2.0086102164	-0.7278814774	-1.250469006	-0.294716
H	 0.9986084259	 1.921640184	 0.0078664067	 0.137606
H	-0.5483582179	 1.9044549304	-0.8650042341	 0.137836
H	-0.5289838542	 1.8525927953	 0.9091166409	 0.120494
H	 0.5593520216	-0.415432535	 0.8319014379	 0.134677
H	-0.9874972784	-0.4323676131	-0.0397739365	 0.134483
H	 1.2978794505	-0.8386959531	-5.3224131011	 0.129407
H	 0.9943128698	-2.5081948417	-4.8459040239	 0.13024
H	-0.3344235397	-1.3354008708	-4.8396383488	 0.142718
H	 3.915631753	-0.8213406097	-3.8359304159	 0.129456
H	 4.340188033	-1.3178177254	-2.1875393805	 0.142725
H	 3.6713798916	-2.4929454221	-3.3334121772	 0.130177
38.1789	73.5379	98.4288	100.3564	208.4254	229.4608	255.3453	282.4409	300.6547	407.7705	488.5511	622.4583	645.4816	691.0378	718.7296	786.4983	797.3542	962.8948	1008.5546	1030.0063	1039.0562	1052.1393	1081.3033	1104.3025	1114.5174	1232.8959	1265.0713	1351.7774	1388.6004	1398.8295	1400.8848	1409.7814	1413.9549	1419.4776	1474.0957	1475.0193	1481.0312	1486.4371	1489.1757	1497.3271	1505.7611	1535.3548	1557.398	3031.1298	3031.2166	3045.6186	3078.035	3078.2369	3080.2678	3118.1849	3120.823	3132.215	3132.7583	3141.7834
CCN1N=C(C)C(C)=N1	CCn1nc(C)c(C)n1	
InChI=1S/C6H11N3/c1-4-9-7-5(2)6(3)8-9/h4H2,1-3H3	InChI=1S/C6H11N3/c1-4-9-7-5(2)6(3)8-9/h4H2,1-3H3
