21
gdb 88008	2.81812	1.31906	1.1078	1.6889	83.49	-0.2517	0.0734	0.3251	1209.0983	0.181284	-387.054381	-387.045474	-387.04453	-387.087924	34.341	
C	-0.0239797467	 1.440287667	-0.1903682501	-0.417486
C	 0.0063187946	-0.0478631892	 0.0385722396	-0.028365
O	 1.2998744312	-0.6849709329	-0.0014942046	-0.298163
C	 0.5971030598	-0.6661187287	 1.2303102659	 0.388583
C	 1.1037575908	-0.0156926274	 2.5250251349	-0.322649
C	 0.4193835954	-1.1739398932	 3.322125248	-0.322684
C	 0.1833376699	-1.9087012626	 1.9918473305	 0.295225
C	-0.8285849869	-2.9528581036	 1.6268017467	-0.341354
C	 0.641874689	-3.2961553975	 1.6410639654	-0.30815
H	 0.7551594542	 1.9424376991	 0.388712763	 0.126989
H	 0.1354659433	 1.6703455745	-1.2491432789	 0.12904
H	-0.996937945	 1.8527446205	 0.0991752044	 0.119899
H	-0.7680987404	-0.6123843623	-0.4851122479	 0.0848
H	 2.1944663124	-0.0402149558	 2.5889609836	 0.118341
H	 0.7589402785	 0.9990900744	 2.7370440197	 0.104184
H	 1.049008459	-1.6884516314	 4.0516808173	 0.104117
H	-0.5058470285	-0.8610316544	 3.8141664573	 0.10426
H	-1.4557287513	-3.3471450709	 2.4202958611	 0.111964
H	-1.3260823883	-2.8734707044	 0.665077812	 0.1134
H	 1.1456596679	-3.4180171669	 0.6880421713	 0.127967
H	 1.0150904309	-3.9274843644	 2.4411047307	 0.110081
68.6167	135.2068	171.5521	182.8025	236.5222	261.0153	328.4653	418.3108	462.0905	502.7736	558.2977	620.3403	751.6312	779.6609	791.8466	858.2415	875.2573	902.608	926.4313	932.8795	965.8328	982.756	1032.5178	1052.6635	1072.2995	1089.7382	1116.8894	1125.3719	1141.9302	1187.2535	1191.3468	1197.3119	1232.0343	1254.4883	1266.2715	1345.0663	1379.7654	1407.263	1460.0475	1469.1509	1474.9827	1488.6453	1495.0245	1499.4103	1526.5442	3034.7299	3055.7199	3065.7927	3083.4243	3097.7056	3102.6883	3121.2021	3122.1407	3124.4415	3127.3658	3200.7125	3219.5815
CC1OC11CCC11CC1	C[C@H]1O[C@]21CCC12CC1	
InChI=1S/C8H12O/c1-6-8(9-6)5-4-7(8)2-3-7/h6H,2-5H2,1H3	InChI=1S/C8H12O/c1-6-8(9-6)5-4-7(8)2-3-7/h6H,2-5H2,1H3/t6-,8+/m1/s1
