17
gdb 109414	2.29886	1.51679	1.09823	2.757	69.84	-0.225	-0.0185	0.2065	1132.7131	0.133459	-458.930015	-458.92101	-458.920065	-458.963902	32.661	
C	 0.1593174516	 1.324998344	 0.15620558	-0.246696
O	-0.2924784572	 0.0294920743	-0.2059297035	-0.2561
C	 0.509995209	-0.5803093859	-1.1760675105	-0.074344
C	 1.8954833721	-1.1947414217	-0.7831753173	 0.414456
O	 2.9149758034	-0.7152278288	-0.3696501333	-0.326392
C	 1.4779986575	-2.5552152311	-1.2427566561	-0.25314
C	 0.2007899038	-2.9401258354	-0.4781883105	-0.338425
C	 0.0821463078	-1.9846948592	-1.6087837062	 0.379783
O	-0.6122006649	-2.2522179691	-2.7673538585	-0.459655
H	 1.1754916517	 1.2992392887	 0.5674137537	 0.139957
H	 0.1485155493	 2.0056970827	-0.7088227084	 0.108465
H	-0.5305987547	 1.7025695075	 0.9140268418	 0.1276
H	 0.6502372351	 0.0660640585	-2.0591881312	 0.096341
H	 2.0768982798	-3.3087133569	-1.7377028909	 0.121784
H	-0.1276068071	-3.9503352526	-0.7019779768	 0.128957
H	 0.0518706056	-2.6224232635	 0.5480439126	 0.140119
H	-1.5479627826	-2.3302892315	-2.5515561448	 0.29729
83.2487	107.4209	156.9619	184.6774	215.4023	244.8149	284.952	352.0882	417.6062	502.2714	530.5246	585.0257	661.2406	753.0478	796.923	856.2134	940.4127	968.8808	994.594	1018.1975	1051.0098	1082.9768	1112.2977	1147.6623	1168.772	1185.2817	1217.7006	1237.1143	1269.2817	1316.1424	1354.2431	1419.795	1479.7393	1487.1127	1497.6136	1513.263	1877.2726	2971.6646	2989.2965	3062.7524	3124.8258	3130.4786	3206.745	3221.2179	3803.0129
COC1C(=O)C2CC12O	CO[C@H]1C(=O)[C@H]2C[C@@]12O	
InChI=1S/C6H8O3/c1-9-5-4(7)3-2-6(3,5)8/h3,5,8H,2H2,1H3	InChI=1S/C6H8O3/c1-9-5-4(7)3-2-6(3,5)8/h3,5,8H,2H2,1H3/t3-,5+,6+/m1/s1
