13
gdb 49906	3.786	1.05056	0.90323	5.5323	66.8	-0.2807	-0.0629	0.2178	1214.9471	0.088762	-452.788636	-452.780502	-452.779558	-452.822264	27.789	
O	-0.1681037171	-0.0273059719	-0.1123809968	-0.250041
C	-0.0668932483	 1.1665015524	-0.0556761967	 0.158721
N	 1.1390015817	 1.8567523788	 0.0051548556	-0.132575
C	 1.4178749028	 3.3043678319	 0.0706732073	-0.190955
C	 2.9409987923	 2.9601880412	 0.0470994715	-0.311
C	 3.7337876811	 3.3904706247	 1.1805710849	 0.290194
N	 4.3527085821	 3.7353127203	 2.0934326583	-0.302992
C	 2.4860753192	 1.4577216794	 0.0312755783	 0.448743
O	 3.0333870232	 0.4054650948	 0.0256861896	-0.285461
H	-0.9256097818	 1.8664953962	-0.0460040012	 0.101362
H	 1.065553343	 3.8640241278	-0.7978948194	 0.14737
H	 1.0776615206	 3.7755615767	 0.9944759339	 0.158554
H	 3.4335832113	 3.2319223077	-0.8897427952	 0.16808
56.1225	126.5566	164.4845	179.5179	197.9285	254.9878	407.2737	452.0321	510.5432	573.8275	661.9651	761.4941	822.1769	877.5491	981.9024	1029.3184	1047.5698	1082.0357	1142.1259	1165.8921	1186.3633	1262.4827	1328.8828	1365.0135	1432.8889	1517.2506	1820.7213	1935.9646	2364.615	2943.512	3075.9719	3095.9225	3137.2261
O=CN1CC(C#N)C1=O	O=CN1C[C@@H](C#N)C1=O	
InChI=1S/C5H4N2O2/c6-1-4-2-7(3-8)5(4)9/h3-4H,2H2	InChI=1S/C5H4N2O2/c6-1-4-2-7(3-8)5(4)9/h3-4H,2H2/t4-/m1/s1
