15
gdb 13243	7.62487	0.90558	0.86766	3.6301	62.5	-0.2633	0.0018	0.2651	1264.3768	0.117966	-399.76494	-399.75695	-399.756006	-399.798797	26.91	
N	-0.1999556176	-1.082454957	-0.2028433416	-0.287649
C	-0.0761523	 0.0506998866	-0.021382837	 0.267623
C	 0.0429825261	 1.4898442489	 0.2275640109	-0.198097
O	 1.2757886981	 1.9456296001	-0.2793400568	-0.241884
C	 1.4484301754	 3.3351925185	-0.132815195	 0.09097
C	 1.9383917647	 3.8624248957	 1.2385568742	-0.094353
O	 3.120114025	 4.4201772123	 0.6314034049	-0.267667
C	 2.8112817908	 3.8201332397	-0.6441953152	-0.099576
H	-0.8045345127	 2.0027971114	-0.2555833345	 0.144358
H	-0.0445285181	 1.6646691937	 1.31146357	 0.146367
H	 0.5826552776	 3.8750259482	-0.5394121578	 0.086015
H	 1.3284022445	 4.6279964547	 1.7310489464	 0.108954
H	 2.1741337559	 3.0604439019	 1.9511836471	 0.10892
H	 3.4852058222	 2.9920161781	-0.894756487	 0.122513
H	 2.8054401679	 4.5535592072	-1.4570315287	 0.113506
47.5111	78.4298	96.2204	146.0706	264.1763	379.0948	392.7236	431.0207	555.3419	751.9905	873.2207	891.5718	950.097	982.0188	1030.3614	1034.4653	1053.8069	1068.5671	1135.3674	1156.9317	1164.6496	1205.7678	1254.6029	1274.9571	1305.6784	1346.6743	1388.5695	1438.6008	1496.1468	1499.3761	1525.8442	2375.8017	2976.7133	3003.7997	3008.9246	3013.3542	3030.9962	3067.8148	3084.0157
N#CCOC1COC1	N#CCOC1COC1	
InChI=1S/C5H7NO2/c6-1-2-8-5-3-7-4-5/h5H,2-4H2	InChI=1S/C5H7NO2/c6-1-2-8-5-3-7-4-5/h5H,2-4H2
