15
gdb 57039	2.50525	1.35769	0.92305	6.0096	66.46	-0.2654	0.0039	0.2693	1187.2228	0.11216	-453.96349	-453.954643	-453.953699	-453.997849	31.006	
O	 0.0053947199	 1.4719870462	-0.0387339106	-0.410384
C	 0.0445493188	 0.0555884271	-0.0083164977	-0.02468
C	 0.6543776236	-0.4833302361	-1.2398081998	 0.274021
N	 1.1661932926	-0.8507499914	-2.207918741	-0.310772
C	 0.7588789407	-0.4802533083	 1.2363068437	-0.176549
C	 0.0810635642	-0.1254188934	 2.5905252881	-0.186264
N	-0.127602576	-1.5632521725	 2.785217988	-0.318705
C	 0.4585779792	-1.9658327832	 1.6119240959	 0.418007
O	 0.6383475079	-3.0351084207	 1.1008503246	-0.339938
H	 0.8994232305	 1.7981583975	-0.1958293344	 0.297461
H	-1.0047217449	-0.2599587209	 0.0179882784	 0.148058
H	 1.8283413338	-0.2591147286	 1.1931304811	 0.116415
H	 0.7408405768	 0.3394553963	 3.3286001149	 0.122457
H	-0.8391690837	 0.4591662553	 2.500572317	 0.13125
H	-0.5375903134	-2.0922754074	 3.5404749017	 0.259624
57.4925	87.5897	127.1385	183.7785	216.5995	282.2427	312.3517	353.3705	459.1121	509.8661	543.1918	601.503	694.9242	762.672	867.2843	913.7687	962.0137	991.6347	1052.5038	1076.0237	1126.556	1159.7401	1171.1032	1179.0233	1250.7692	1288.7197	1300.3941	1373.5197	1396.583	1419.9796	1531.4241	1902.9192	2361.0777	3051.2246	3056.9357	3089.5	3102.6882	3616.072	3799.0794
OC(C#N)C1CNC1=O	O[C@@H](C#N)[C@H]1CNC1=O	
InChI=1S/C5H6N2O2/c6-1-4(8)3-2-7-5(3)9/h3-4,8H,2H2,(H,7,9)	InChI=1S/C5H6N2O2/c6-1-4(8)3-2-7-5(3)9/h3-4,8H,2H2,(H,7,9)/t3-,4+/m1/s1
