16
gdb 128918	6.72758	0.76683	0.71908	3.7703	76.24	-0.2546	0.0028	0.2575	1497.7273	0.126577	-396.964896	-396.956842	-396.955898	-396.998972	28.603	
N	-0.0353608022	-1.1295116193	-0.1016687388	-0.298692
C	-0.0421803437	 0.0230802356	-0.0214351978	 0.257707
C	-0.016834164	 1.4783504236	 0.0814720113	-0.33317
C	 1.413522696	 2.0365004342	-0.0766616058	-0.157634
N	 1.4155468033	 3.4801545234	 0.0123291455	 0.059235
C	 2.0076818191	 4.2655978703	 0.9486400231	-0.034221
C	 1.7172728099	 5.5712413596	 0.6148937955	-0.233676
C	 0.9323747536	 5.4672263732	-0.551639806	 0.005043
N	 0.7504360945	 4.2003067085	-0.9149089679	-0.272461
H	-0.6523533335	 1.9162952421	-0.6937312495	 0.186051
H	-0.429672271	 1.7795054308	 1.050109834	 0.159971
H	 2.0669856508	 1.6467496777	 0.7063451762	 0.142174
H	 1.820854207	 1.7330519995	-1.0449177429	 0.153391
H	 2.5822775565	 3.8399031511	 1.7562946576	 0.136087
H	 2.0291365566	 6.4622563227	 1.1345534795	 0.111609
H	 0.4958938468	 6.259454207	-1.1420777741	 0.118585
47.7288	67.1001	97.5158	184.6856	320.3701	376.3728	406.2069	508.8003	627.8937	673.8116	763.382	765.6926	778.2649	833.2744	897.4738	933.2294	958.3233	986.0138	1028.1147	1045.5866	1073.7863	1112.9282	1175.6028	1247.5379	1284.9997	1305.0107	1326.8964	1370.2226	1407.4691	1429.2791	1470.7008	1487.9143	1492.3497	1559.7049	2365.2223	3058.0786	3073.1762	3104.3689	3132.0273	3245.495	3257.6977	3280.5694
N#CCCN1C=CC=N1	N#CCCn1cccn1	
InChI=1S/C6H7N3/c7-3-1-5-9-6-2-4-8-9/h2,4,6H,1,5H2	InChI=1S/C6H7N3/c7-3-1-5-9-6-2-4-8-9/h2,4,6H,1,5H2
