18
gdb 14032	5.22165	1.18918	1.10895	2.2008	68.3	-0.2587	0.0657	0.3244	1111.2739	0.153228	-384.905397	-384.897353	-384.896408	-384.938241	29.836	
O	 0.123228211	 1.2799512398	-0.2196125825	-0.418566
C	 0.0933808494	 0.0009806059	 0.3917946299	-0.076813
C	-1.3066872154	-0.5557886809	 0.4212273666	-0.078107
O	-1.8201948772	-0.9386196009	-0.875706923	-0.303259
C	-1.629585712	-1.9494271025	 0.0992498026	 0.45356
C	-0.7046353634	-3.1636859758	-0.0463653935	-0.310736
C	-1.6795364604	-3.9354272124	 0.893898313	-0.212716
C	-2.7474738298	-2.8206817615	 0.6780689418	-0.311202
H	-0.2767330308	 1.1746811918	-1.0906668818	 0.293094
H	 0.7603616635	-0.7066559768	-0.1223591109	 0.091352
H	 0.4675355232	 0.1376041924	 1.412588454	 0.109644
H	-2.0194837847	 0.0148152864	 1.0194384573	 0.097148
H	-0.7220057796	-3.5480362879	-1.0704744032	 0.117189
H	 0.3350013975	-3.0602575004	 0.27226346	 0.107937
H	-1.9570459871	-4.9451371887	 0.5882510175	 0.107362
H	-1.3186120972	-3.9677645505	 1.9242764941	 0.109556
H	-3.2809768096	-2.4444530576	 1.5540554865	 0.107129
H	-3.4764293776	-3.0863841902	-0.0932284484	 0.117429
66.6211	103.6777	151.1616	202.7312	298.6797	388.0832	415.3388	452.3286	513.1438	580.2132	717.8344	782.4865	813.4885	856.7251	906.7802	924.9542	946.1125	1005.9368	1019.9634	1053.109	1087.5532	1109.198	1143.597	1167.2606	1206.1745	1219.8616	1229.8374	1245.0896	1269.1557	1277.4649	1332.0715	1378.7029	1425.8744	1468.4135	1479.9341	1489.4043	1492.6925	1520.3373	2996.8607	3058.2553	3062.2319	3069.3067	3075.6832	3100.1294	3108.5383	3113.7464	3134.0896	3798.4446
OCC1OC11CCC1	OC[C@H]1OC21CCC2	
InChI=1S/C6H10O2/c7-4-5-6(8-5)2-1-3-6/h5,7H,1-4H2	InChI=1S/C6H10O2/c7-4-5-6(8-5)2-1-3-6/h5,7H,1-4H2/t5-/m1/s1
