20
gdb 119491	3.94879	0.95997	0.88457	3.3924	78.67	-0.2184	0.061	0.2793	1398.9909	0.169495	-403.050053	-403.041369	-403.040425	-403.083935	33.155	
C	 0.0202435471	 1.6815711313	-0.0716138179	-0.379538
C	 0.0374987155	 0.1558658289	 0.0503620434	-0.168442
C	 0.5949890248	-0.5300295916	-1.2063225803	-0.320934
C	 0.6314586021	-2.022267388	-1.1094743312	 0.455439
O	 0.6576840118	-2.8061343178	-2.3038644982	-0.266418
C	-0.3576867268	-3.0815135039	-1.3361398232	-0.064132
C	 0.2651264864	-3.9383300107	-0.1765318978	-0.090324
N	 1.6864922418	-4.1914996781	-0.5127914918	-0.312043
C	 1.2755863038	-2.8838901663	 0.0529257764	-0.15036
H	 1.0292799049	 2.0770616195	-0.231820516	 0.117388
H	-0.5979325197	 2.0038529599	-0.9167249769	 0.117728
H	-0.3813101903	 2.1485356774	 0.8328318145	 0.113026
H	 0.6361264294	-0.1321565319	 0.92367091	 0.099584
H	-0.9777745873	-0.2135393943	 0.2408771583	 0.100461
H	-0.0092463956	-0.2633413688	-2.0813226462	 0.113443
H	 1.6110769728	-0.160712644	-1.405558554	 0.108501
H	-1.3921925741	-3.0578836317	-1.6583568105	 0.103882
H	-0.2817730614	-4.5479811382	 0.5300879666	 0.096979
H	 2.0719803968	-4.7292929712	 0.2650130486	 0.229845
H	 1.6859754379	-2.5029054806	 0.9787890362	 0.095915
70.7873	80.3813	114.2265	240.3527	259.4716	298.7316	353.6333	421.5462	495.781	613.9183	669.7452	738.5159	755.5015	800.5252	802.6171	833.394	853.7814	891.5429	907.1486	917.7485	935.6729	989.3968	1011.8939	1041.1648	1073.037	1094.8963	1113.6609	1123.4345	1180.7436	1209.6587	1254.8859	1287.1056	1297.3446	1303.0684	1326.8491	1344.8303	1387.304	1413.6449	1471.9462	1478.9216	1492.6172	1499.1854	1510.2771	3009.5525	3024.3097	3031.6686	3048.7104	3070.7358	3099.413	3105.0581	3183.7906	3196.8431	3210.84	3457.7796
CCCC12OC1C1NC21	CCC[C@]12O[C@H]1[C@H]1N[C@@H]21	
InChI=1S/C7H11NO/c1-2-3-7-5-4(8-5)6(7)9-7/h4-6,8H,2-3H2,1H3	InChI=1S/C7H11NO/c1-2-3-7-5-4(8-5)6(7)9-7/h4-6,8H,2-3H2,1H3/t4-,5+,6-,7+/m0/s1
