17
gdb 66455	3.06204	1.684	1.50496	0.9205	70.63	-0.2323	0.0767	0.309	936.1413	0.135338	-421.739732	-421.732525	-421.731581	-421.770829	29.487	
C	 0.0088808879	 1.5502449568	-0.0618378377	-0.537278
C	 0.0298554027	 0.0519746215	-0.0715803358	 0.340646
C	 0.5786253987	-0.9138546281	-1.1751182065	-0.234943
C	 0.888504649	-1.8951435046	-0.0532999253	-0.184028
C	 0.5561391825	-0.8897066027	 1.0721431484	 0.020001
O	-0.7854664226	-1.1751568894	 1.5422755093	-0.301897
C	-1.2016974159	-0.8897969579	 0.1872441355	-0.073662
C	-0.4791888898	-1.8929086927	-0.754762235	 0.414962
O	-0.9902489393	-2.9402376664	-1.4824141829	-0.468389
H	 1.0221611982	 1.9630852735	-0.1190181462	 0.124028
H	-0.5595198696	 1.9442210686	-0.9117450612	 0.125483
H	-0.4571786563	 1.9194157321	 0.8582162527	 0.13292
H	 1.0700577926	-0.7475614722	-2.1227210872	 0.099923
H	 1.5367270864	-2.7610362438	-0.0643681648	 0.092503
H	 1.2642664197	-0.6486125078	 1.8649188307	 0.078291
H	-2.2585884117	-0.651083191	 0.0694589515	 0.081212
H	-1.1679694427	-3.6710365657	-0.8786377456	 0.29023
197.8532	226.4761	230.787	285.9744	316.7379	374.202	536.0434	560.5809	590.5439	662.0019	755.569	786.1189	815.9862	838.5109	852.6717	863.7887	882.3339	915.0556	933.5275	951.0403	972.5597	1058.8056	1077.635	1112.1922	1129.7253	1149.9595	1162.6032	1183.0133	1227.8929	1258.095	1285.3013	1319.7416	1366.8563	1410.6642	1461.656	1486.4667	1491.677	3025.2238	3090.188	3097.3706	3120.4401	3127.6609	3207.1373	3225.1409	3782.7538
CC12C3C4C1OC2C34O	C[C@@]12[C@H]3[C@H]4[C@@H]1O[C@@H]2[C@@]34O	
InChI=1S/C7H8O2/c1-6-3-2-4(6)9-5(6)7(2,3)8/h2-5,8H,1H3	InChI=1S/C7H8O2/c1-6-3-2-4(6)9-5(6)7(2,3)8/h2-5,8H,1H3/t2-,3+,4-,5-,6+,7-/m0/s1
