20
gdb 58283	3.39186	0.85449	0.77594	6.8096	71.86	-0.2509	0.0276	0.2785	1506.7287	0.170405	-477.460996	-477.45111	-477.450166	-477.496025	36.61	
C	 0.1827967108	 1.5949446243	 0.0015514258	-0.388666
C	 0.1327492083	 0.0684267302	-0.058032921	 0.006553
N	 0.754501409	-0.4860464477	 1.1603681053	-0.535336
H	-1.2618568296	-0.3490886817	 1.8487109736	 0.29539
H	 1.0169554319	-1.4571630806	 1.0191266713	 0.238104
H	 1.6035686067	 0.0179200485	 1.3926490502	 0.237873
C	-1.3042180138	-0.49433122	-0.0664924871	 0.123605
O	-1.9362713317	-0.1707353622	 1.1720954654	-0.446048
C	-2.2022360651	 0.0151752788	-1.191279028	-0.350967
C	-3.5635483881	-0.6835939877	-1.2801093079	 0.402303
O	-4.1603799224	-0.9499680843	-0.1043902921	-0.372577
O	-4.087921683	-0.9578645454	-2.3259143714	-0.327887
H	 1.2173870725	 1.9405961944	 0.0982535573	 0.112921
H	-0.2256872336	 2.0399700308	-0.908884849	 0.131294
H	-0.3885075237	 1.9655466583	 0.8566170461	 0.136485
H	 0.6333518194	-0.270952355	-0.978492332	 0.073405
H	-1.2201727963	-1.5917118393	-0.1553347079	 0.07699
H	-3.5726448304	-0.6818793595	 0.6293356814	 0.317423
H	-2.3901247335	 1.0850453918	-1.0410128184	 0.138465
H	-1.7164226773	-0.1063157338	-2.1617042317	 0.130669
70.0901	86.6604	124.3269	165.3382	217.3156	258.9679	288.6608	330.1183	363.2656	383.5587	430.7346	501.4147	605.5003	625.3473	651.4796	694.6421	778.1478	834.724	871.7251	880.4366	902.9057	977.6375	996.7419	1032.3279	1062.2622	1114.8835	1128.4775	1202.3456	1254.7724	1271.202	1292.6642	1321.3886	1351.4525	1368.8017	1396.5275	1424.9915	1440.5377	1446.7401	1457.3442	1495.6326	1500.8177	1652.881	1863.655	2945.3688	2976.9588	3043.6348	3049.3477	3110.417	3119.9687	3132.5593	3499.566	3549.3649	3581.7009	3670.9329
CC([NH3+])C(O)CC([O-])=O	C[C@@H](N)[C@@H](O)CC(=O)O	
InChI=1S/C5H11NO3/c1-3(6)4(7)2-5(8)9/h3-4,7H,2,6H2,1H3,(H,8,9)	InChI=1S/C5H11NO3/c1-3(6)4(7)2-5(8)9/h3-4,7H,2,6H2,1H3,(H,8,9)/t3-,4+/m1/s1
