17
gdb 50369	3.48902	1.23171	1.01447	3.0438	75.45	-0.2479	-0.039	0.2089	1166.6537	0.135669	-421.797896	-421.790107	-421.789162	-421.830864	29.013	
O	-0.7497478073	 0.9575841964	 0.3665306032	-0.238724
C	 0.276005413	 0.8833543328	-0.2556665876	 0.147791
C	 1.4963692717	 1.7404462573	 0.0235533522	-0.034232
O	 2.725929975	 1.167379145	-0.5060379502	-0.32624
C	 3.0768219216	 2.4393761998	-1.1709182357	 0.116197
C	 3.255153749	 2.5556785315	-2.6921147826	-0.252284
C	 2.2191473979	 3.6748861258	-3.061019454	-0.246161
C	 1.1335681505	 3.4989415352	-1.9969923093	-0.193248
C	 1.6740456619	 2.8937079382	-0.9455809599	 0.162277
H	 0.4124284772	 0.2008174871	-1.1229472933	 0.091939
H	 1.5714825815	 1.9707409437	 1.0926675521	 0.109832
H	 3.8751003464	 2.9274971204	-0.5979954988	 0.0877
H	 4.2752747371	 2.7861863687	-3.0095693216	 0.102692
H	 2.9516052933	 1.6124358161	-3.1570059657	 0.12199
H	 2.6784070144	 4.671808625	-3.0338966083	 0.118105
H	 1.8149529274	 3.5475212994	-4.0701092915	 0.116068
H	 0.0906264593	 3.7417665376	-2.159391149	 0.116299
66.8132	106.8924	143.6494	245.4786	340.2007	358.0186	430.9248	504.9834	594.5789	648.4909	771.0449	828.2128	850.9846	871.086	896.2499	905.0676	952.4829	985.4358	1014.8301	1027.0142	1052.377	1086.3285	1105.4682	1156.8728	1206.1586	1211.9296	1242.9897	1271.4414	1285.4714	1306.3715	1335.0474	1363.5589	1396.1876	1477.1716	1492.7407	1727.3678	1834.443	2900.5756	3023.782	3025.0478	3046.3051	3058.0003	3078.9243	3114.0057	3210.8771
O=CC1OC2CCC=C12	O=C[C@H]1O[C@H]2CC[CH][C]12	
InChI=1S/C7H8O2/c8-4-7-5-2-1-3-6(5)9-7/h2,4,6-7H,1,3H2	InChI=1S/C7H8O2/c8-4-7-5-2-1-3-6(5)9-7/h2,4,6-7H,1,3H2/t6-,7+/m0/s1
