17
gdb 99004	4.19148	0.83142	0.6999	2.6795	69.51	-0.2624	-0.0145	0.2479	1559.3998	0.134296	-492.308848	-492.298876	-492.297932	-492.345645	34.16	
C	 1.0843240007	 1.5859679615	-1.8502573707	-0.225694
O	 1.1814969636	 0.1653167553	-1.9956806011	-0.201122
C	 0.5872935523	-0.5554847277	-1.0501882538	 0.516866
N	-0.0335499733	-0.0384052958	-0.0695149244	-0.583052
N	 0.7356030603	-1.9377222256	-1.2774204771	-0.417793
C	 1.3774790866	-2.6240906402	-2.2894598839	 0.395117
O	 1.9678803569	-2.1352725365	-3.2265988954	-0.341044
C	 1.2947835734	-4.1510764851	-2.1501269675	-0.152074
O	 1.9652280867	-4.7609056417	-3.2075724524	-0.416512
H	 0.0386532442	 1.9028884547	-1.8586824354	 0.143262
H	 1.5417498659	 1.9087537471	-0.9118862041	 0.143211
H	 1.621157088	 1.9971431172	-2.7049531021	 0.138902
H	-0.4270988582	-0.7343759507	 0.5578588143	 0.216232
H	 0.2938266846	-2.5107264181	-0.5744879408	 0.257864
H	 1.7304401478	-4.4416087734	-1.1795252567	 0.113948
H	 0.2326121032	-4.4468496733	-2.1261311977	 0.113965
H	 2.3020522274	-4.0235986678	-3.7447652812	 0.297925
20.4483	66.1614	93.227	132.7235	169.3405	186.7789	268.5829	339.9617	374.4613	425.4573	430.2324	527.3796	590.1553	679.5499	733.234	741.8491	782.2581	885.5595	977.5927	1032.0834	1054.9969	1116.4176	1148.166	1182.0098	1209.896	1225.9213	1251.0788	1311.3873	1380.8154	1460.7182	1478.9352	1480.5182	1498.3379	1506.8976	1516.1545	1745.0174	1814.9247	2965.8759	2984.3653	3054.1883	3130.3211	3162.846	3528.7304	3624.7206	3658.9692
COC(=N)NC(=O)CO	COC(=N)NC(=O)CO	
InChI=1S/C4H8N2O3/c1-9-4(5)6-3(8)2-7/h7H,2H2,1H3,(H2,5,6,8)	InChI=1S/C4H8N2O3/c1-9-4(5)6-3(8)2-7/h7H,2H2,1H3,(H2,5,6,8)
