20
gdb 99716	1.80779	1.46962	0.96337	4.806	75.78	-0.244	-0.0124	0.2315	1304.3276	0.167674	-440.347153	-440.33616	-440.335216	-440.384407	38.383	
C	 0.6767629488	 1.2806245034	-0.0691117732	-0.393804
C	 0.2549376981	-0.1853501339	-0.2040117781	-0.170334
C	-1.269545198	-0.399197098	-0.086977074	-0.217953
C	-2.0273848981	 0.1173011234	-1.326488489	 0.407407
C	-3.5402846023	 0.0864654016	-1.2605702554	-0.484612
O	-1.4346246194	 0.5335926467	-2.2928280412	-0.297434
C	-1.5899931939	-1.8879523592	 0.1158913546	 0.402731
N	-1.4208951063	-2.3428838928	 1.3931481208	-0.520291
O	-1.9610546358	-2.6121515612	-0.7879521045	-0.35961
H	 1.7645313787	 1.3761465492	-0.141101905	 0.115875
H	 0.2323638866	 1.8874340688	-0.8605641967	 0.145164
H	 0.3710975147	 1.6962845544	 0.898417515	 0.102332
H	 0.5764941493	-0.5767773094	-1.1734243142	 0.134193
H	 0.7567523577	-0.7837325204	 0.5653989564	 0.084682
H	-1.6476887143	 0.1526112934	 0.7860229264	 0.089109
H	-3.9047460347	 0.5379503894	-0.3313026415	 0.124938
H	-3.9553228375	 0.6146027476	-2.1197044215	 0.139994
H	-3.8720791225	-0.9561002827	-1.2749172132	 0.17236
H	-0.9907879006	-1.7785676345	 2.1050857024	 0.261491
H	-1.4818290506	-3.3370226259	 1.5460844821	 0.263762
27.3572	59.7087	99.8268	123.0375	175.5597	186.3107	205.8449	267.921	282.978	326.5913	376.686	416.8065	494.7882	557.13	590.1791	648.4717	720.0082	742.6821	829.2375	904.921	916.6286	971.4572	1017.0237	1052.2369	1102.5173	1113.3921	1127.6962	1189.0532	1232.4821	1282.8722	1344.6524	1367.8195	1368.9974	1377.7611	1407.2276	1468.2021	1477.8593	1478.8213	1495.4105	1512.6361	1617.4279	1786.8185	1816.9642	3005.4591	3032.7925	3036.9941	3042.8371	3088.2425	3103.8498	3113.0995	3135.325	3154.1777	3595.34	3730.1631
CCC(C(C)=O)C(N)=O	CC[C@@H](C(=O)C)C(=O)N	
InChI=1S/C6H11NO2/c1-3-5(4(2)8)6(7)9/h5H,3H2,1-2H3,(H2,7,9)	InChI=1S/C6H11NO2/c1-3-5(4(2)8)6(7)9/h5H,3H2,1-2H3,(H2,7,9)/t5-/m0/s1
