25
gdb 100686	2.77245	0.94308	0.86878	0.2196	85.	-0.2461	0.0662	0.3123	1532.0097	0.225211	-426.637221	-426.625359	-426.624415	-426.673617	44.024	
C	-0.100007928	 1.6226166154	 0.1514107623	-0.385811
C	-0.0075289872	 0.0994134587	 0.0239792487	-0.201492
C	-1.3823618375	-0.5655143231	-0.104559292	 0.104194
O	-2.0485824451	-0.1671723346	-1.3025046206	-0.435465
C	-1.3645082427	-2.1169641129	 0.0539235611	 0.332905
C	-0.5098530549	-2.7897761323	-1.022467934	-0.424456
O	-0.7312042254	-2.4423510107	 1.2992764014	-0.460162
C	-2.8192714886	-2.6332268655	 0.0492782646	-0.198756
C	-2.9742951248	-4.144820138	 0.2381572432	-0.39815
H	 0.8937990706	 2.0796374734	 0.17670831	 0.109193
H	-0.6536078986	 2.0504591078	-0.6893311289	 0.123937
H	-0.6223215514	 1.909622713	 1.0709551307	 0.112139
H	 0.5981086309	-0.1581353031	-0.8564281562	 0.084643
H	 0.5071010403	-0.3330478897	 0.8870082046	 0.114634
H	-2.0254498162	-0.1799996926	 0.7012670691	 0.066963
H	-1.4356062291	-0.3021605861	-2.0331702969	 0.280026
H	 0.5240487984	-2.4398875672	-0.9744298174	 0.123941
H	-0.497204691	-3.8718676397	-0.8787482244	 0.12935
H	-0.9077752272	-2.5848604872	-2.0212016959	 0.107012
H	-1.2969361439	-2.1171392782	 2.0088191369	 0.275652
H	-3.3505945286	-2.1138780813	 0.8611600911	 0.077754
H	-3.3015868813	-2.303426407	-0.8755308213	 0.114299
H	-4.0251143733	-4.4061956195	 0.3957959876	 0.109203
H	-2.6279766646	-4.7049146401	-0.6355827787	 0.116422
H	-2.4029070411	-4.4893912995	 1.105114845	 0.122024
77.1958	87.3485	113.2341	154.6949	203.4901	213.5729	227.6431	277.2721	285.4186	298.0514	319.1725	321.9908	343.0091	361.4624	419.0075	478.5792	516.3918	614.9067	750.1389	783.3833	789.9935	868.4249	930.2623	956.7579	987.619	1003.9432	1024.0393	1059.6676	1068.673	1102.3742	1110.4758	1153.5911	1189.1476	1210.0024	1254.1942	1288.5012	1300.6632	1330.9594	1367.6572	1370.3903	1390.6985	1403.8753	1410.0926	1416.4035	1434.1519	1483.3261	1486.474	1493.1848	1496.2899	1498.1085	1509.3052	1509.8048	1516.9479	2987.1537	2997.6728	3012.6302	3034.9585	3041.9361	3050.5091	3085.1544	3085.4276	3101.1242	3105.9348	3116.5704	3117.4733	3121.5938	3134.1231	3794.2275	3807.8513
CCC(O)C(C)(O)CC	CC[C@@H](O)[C@@](C)(O)CC	
InChI=1S/C7H16O2/c1-4-6(8)7(3,9)5-2/h6,8-9H,4-5H2,1-3H3	InChI=1S/C7H16O2/c1-4-6(8)7(3,9)5-2/h6,8-9H,4-5H2,1-3H3/t6-,7+/m1/s1
