14
gdb 45978	3.21972	1.56524	1.14186	2.6354	62.69	-0.2647	-0.0564	0.2082	994.9824	0.101136	-473.836918	-473.829601	-473.828657	-473.869441	26.747	
O	-0.0069705309	-0.0113703668	 0.2645889645	-0.295341
C	-0.0082078482	 1.172362684	 0.0315126246	 0.368752
C	-1.30256217	 1.9393752662	-0.2206133598	-0.195573
O	-1.1538680659	 3.0957590813	-1.0504826011	-0.229356
C	-0.1348428983	 3.9632247327	-0.7917840059	 0.435398
O	-0.281315501	 5.1426677993	-0.9103600241	-0.317291
N	 1.1199925674	 3.3831452042	-0.489137344	-0.141956
C	 1.4706709	 3.1222149263	 0.8961350802	-0.251684
C	 1.2340513229	 1.9892469569	-0.068735226	-0.125213
H	-2.0057914927	 1.276689836	-0.7271353021	 0.166521
H	-1.7485680758	 2.2287724329	 0.7419894311	 0.146374
H	 2.4915285476	 3.3564274294	 1.1808798315	 0.154113
H	 0.722290465	 3.3136397384	 1.6611526714	 0.145428
H	 2.10046964	 1.4566962192	-0.4507474901	 0.139827
52.5345	129.8552	199.7576	265.5734	404.7778	411.0762	454.6993	556.2563	574.2299	700.4106	730.6978	789.53	826.2141	909.6381	930.0844	955.0254	1044.6628	1073.42	1087.6414	1108.0746	1140.4573	1157.0191	1245.2784	1263.856	1319.3023	1366.4699	1393.6335	1475.5195	1512.2195	1826.0793	1865.6852	3010.9401	3115.5797	3128.948	3159.2053	3209.277
O=C1COC(=O)N2CC12	O=C1COC(=O)N2C[C@@H]12	
InChI=1S/C5H5NO3/c7-4-2-9-5(8)6-1-3(4)6/h3H,1-2H2	InChI=1S/C5H5NO3/c7-4-2-9-5(8)6-1-3(4)6/h3H,1-2H2/t3-,6?/m0/s1
