19
gdb 58503	2.39259	1.1193	0.99317	3.7653	73.16	-0.2576	-0.0402	0.2174	1297.2389	0.15484	-460.150793	-460.140527	-460.139583	-460.186425	36.762	
C	 0.1734844955	 1.3545796095	-0.2869354385	-0.426351
C	 0.0429147086	-0.0455924634	 0.3127291474	 0.060329
O	 0.4418046418	-0.0937127142	 1.6769629589	-0.425283
C	-1.3724486013	-0.6117191234	 0.1459085789	 0.398102
C	-2.4694373824	 0.0708483871	 0.9365654851	-0.485178
O	-1.7108260054	-0.9673486017	-1.1928768484	-0.286673
C	-1.5912058663	-2.0334655195	-0.2374754161	-0.108052
C	-0.488381187	-3.0157856349	-0.4661730599	 0.138756
O	-0.5118763269	-4.135335654	-0.0220135437	-0.245311
H	 1.2100873037	 1.6937363297	-0.2136982459	 0.131315
H	-0.1216977859	 1.3486728902	-1.3399627425	 0.143082
H	-0.4594816479	 2.0795459449	 0.2379105039	 0.113596
H	 0.7395553772	-0.7032602546	-0.2130890956	 0.09445
H	 0.0976340406	 0.6887730426	 2.1199555624	 0.285404
H	-2.5426235912	 1.1307616005	 0.6735048892	 0.13166
H	-3.4355094739	-0.3931388083	 0.7278888608	 0.13879
H	-2.2698803495	-0.0083137037	 2.0091447392	 0.135067
H	-2.5274568124	-2.4981364007	 0.0701622106	 0.112179
H	 0.3462906627	-2.6493704161	-1.1005795556	 0.094118
39.007	87.2031	141.065	190.7668	220.6891	237.4359	247.7588	276.1506	288.076	366.9229	405.987	423.265	494.3791	519.1673	563.7072	703.1907	841.1679	873.9851	929.2151	981.1493	1002.4944	1053.2477	1061.6436	1083.7878	1102.7547	1124.1876	1142.2824	1254.63	1286.3343	1309.0104	1352.311	1388.9011	1400.0626	1406.3105	1407.9942	1458.6147	1483.8772	1495.4091	1498.5517	1505.5194	1821.4716	2908.4248	3035.9322	3047.0815	3079.1802	3108.7357	3115.1461	3126.1527	3127.9532	3134.5267	3813.958
CC(O)C1(C)OC1C=O	C[C@@H](O)[C@@]1(C)O[C@H]1C=O	
InChI=1S/C6H10O3/c1-4(8)6(2)5(3-7)9-6/h3-5,8H,1-2H3	InChI=1S/C6H10O3/c1-4(8)6(2)5(3-7)9-6/h3-5,8H,1-2H3/t4-,5+,6-/m1/s1
