15
gdb 42244	2.96991	1.21431	1.0368	2.9566	80.81	-0.247	-0.0309	0.216	1165.4813	0.109989	-379.565815	-379.556948	-379.556004	-379.599716	32.647	
N	 0.2737461371	 1.2722223175	-0.364650671	-0.487956
C	 0.2408571768	 0.0462707316	-0.01793949	 0.161844
C	-0.9718139594	-0.7156875003	-0.1587737202	 0.368118
C	-1.962248712	-1.3875392729	-0.2727217165	-0.443826
N	 1.2834132115	-0.6713046805	 0.6067502242	-0.107164
C	 1.7454258855	-1.9597813333	 0.1413706093	-0.241829
C	 2.6470905634	-0.7521960919	 0.0693811337	-0.204104
C	 2.9795571585	-0.178389246	-1.2050287276	 0.337059
C	 3.2733726118	 0.3253395641	-2.2562263767	-0.442879
H	 1.2062495674	 1.6614318285	-0.2137533478	 0.228379
H	-2.8522702509	-1.9579245259	-0.3793452897	 0.210493
H	 1.9201094518	-2.7094320343	 0.9081186185	 0.132991
H	 1.3529848401	-2.3324741543	-0.8007228909	 0.145873
H	 3.4154089264	-0.6478565214	 0.8321880217	 0.131209
H	 3.5251805621	 0.7621989792	-3.191330527	 0.211791
48.5103	112.839	145.71	205.7287	245.0816	277.1877	313.1344	453.165	517.2082	539.9825	624.5864	636.026	657.9118	659.7037	672.4726	710.1605	732.1689	812.6838	880.362	899.1438	976.9022	1052.282	1064.1859	1121.8278	1130.3182	1163.4242	1295.3172	1362.4302	1387.3967	1506.9553	1677.3549	2236.3203	2239.6746	3111.7317	3132.8645	3206.0872	3470.5255	3499.502	3500.6145
N=C(C#C)N1CC1C#C	[NH][C](C#C)N1C[C@H]1C#C	
InChI=1S/C7H6N2/c1-3-6-5-9(6)7(8)4-2/h1-2,6,8H,5H2	InChI=1S/C7H6N2/c1-3-6-5-9(6)7(8)4-2/h1-2,6,8H,5H2/t6-,9?/m1/s1
