18
gdb 123868	5.02126	1.07785	0.91661	3.929	79.82	-0.1914	0.0427	0.234	1257.7556	0.150829	-398.124145	-398.116336	-398.115392	-398.157198	29.126	
C	-0.2242355542	 1.4881401712	 0.1324034544	-0.233273
C	 1.2365668514	 1.4814354771	-0.3875573101	-0.183609
N	 1.435672753	 0.1880325397	 0.2969211576	-0.167199
C	-0.0088202473	-0.0000812246	 0.5127078656	-0.164606
C	 2.25241744	-0.8169687183	-0.1739824494	 0.452347
C	 2.1235717296	-2.1972419439	-0.1452217173	-0.331008
C	 3.3133250407	-2.6696090369	-0.7438830456	 0.005861
N	 4.1220177258	-1.6906625774	-1.1237001658	-0.241606
N	 3.4495454902	-0.5613502405	-0.7655830812	-0.278825
H	-0.3701946707	 2.1379143056	 0.9962923754	 0.12091
H	-0.997926318	 1.6913361323	-0.6073194984	 0.117446
H	 1.3119987306	 1.4054857863	-1.481925777	 0.1072
H	 1.893958629	 2.2858671251	-0.0406988079	 0.110789
H	-0.27797851	-0.3056503187	 1.528461173	 0.115094
H	-0.4583295243	-0.7034641299	-0.202352335	 0.10747
H	 1.2994630268	-2.7650839645	 0.2528428813	 0.093087
H	 3.6051015226	-3.6960810358	-0.9153169053	 0.103693
H	 3.8801453647	 0.3339607332	-0.9163865144	 0.266228
59.6249	100.4139	159.4809	188.4315	328.0823	426.8286	451.4192	477.5208	670.9993	701.0462	741.8999	753.6271	852.937	879.0261	890.4098	930.2272	941.9353	944.7434	1008.4167	1056.3304	1088.9074	1107.6032	1128.8314	1139.0252	1155.484	1206.339	1225.715	1267.2533	1270.1171	1295.4064	1336.6543	1349.3116	1381.3616	1437.1513	1489.6129	1510.5981	1531.2643	1535.3391	1625.0383	2995.4464	3004.2158	3057.6082	3069.9797	3092.9277	3149.1098	3236.2632	3272.2154	3683.9885
C1CN(C1)C1=CC=NN1	C1CN(C1)c1ccn[nH]1	
InChI=1S/C6H9N3/c1-4-9(5-1)6-2-3-7-8-6/h2-3H,1,4-5H2,(H,7,8)	InChI=1S/C6H9N3/c1-4-9(5-1)6-2-3-7-8-6/h2-3H,1,4-5H2,(H,7,8)
