17
gdb 30314	2.97871	1.63919	1.11097	0.9431	74.74	-0.192	0.0175	0.2095	1071.6267	0.137671	-421.840206	-421.832706	-421.831762	-421.872462	28.693	
C	-0.0006551662	 1.5942762628	-0.0304450575	-0.398333
C	 0.0072421591	 0.0662500773	 0.0956862388	-0.157284
C	 0.7752375208	-0.6401093564	-1.0882642836	-0.097724
O	 1.6157464849	-1.7142014457	-0.5657173717	-0.289666
C	 1.6426984977	-1.4952891097	 0.7778932326	 0.317408
C	 0.8148726011	-0.5209286417	 1.2031869309	 0.232459
O	 0.8506631609	-0.4113171229	 2.5572063994	-0.196406
C	 1.7547170188	-1.3507211256	 2.9695447579	-0.005205
C	 2.2807811716	-2.0575613615	 1.9211415689	-0.351781
H	 1.0204660974	 1.9865636409	-0.069508919	 0.121587
H	-0.5271626883	 1.9094827158	-0.937746709	 0.116184
H	-0.5072972323	 2.0506027367	 0.8250077499	 0.128831
H	-1.0353244868	-0.283742053	 0.131269766	 0.091304
H	 0.1058099648	-1.0790571865	-1.8304622079	 0.120526
H	 1.4333416485	 0.0834581899	-1.5841300028	 0.113683
H	 1.9309688041	-1.3867034063	 4.0318804424	 0.134058
H	 3.009138524	-2.8494930042	 1.9826283448	 0.12036
74.5516	139.7772	216.6029	262.9302	322.1019	412.7251	478.3951	592.154	609.2108	659.6278	704.572	729.3684	737.0384	806.5358	891.5655	911.2704	929.3266	965.1716	1018.4692	1047.4373	1091.8521	1126.7114	1135.7459	1167.2277	1235.4498	1263.0428	1295.6654	1335.8541	1375.6876	1379.4194	1408.4065	1490.5298	1494.7524	1499.1501	1504.8961	1515.9017	1679.6764	2979.4272	3030.8184	3035.0973	3102.9301	3110.6217	3114.8946	3262.7839	3285.0486
CC1COC2=C1OC=C2	C[C@H]1COc2c1occ2	
InChI=1S/C7H8O2/c1-5-4-9-6-2-3-8-7(5)6/h2-3,5H,4H2,1H3	InChI=1S/C7H8O2/c1-5-4-9-6-2-3-8-7(5)6/h2-3,5H,4H2,1H3/t5-/m0/s1
