21
gdb 102664	3.17578	0.83875	0.69866	4.6748	75.53	-0.2435	0.0591	0.3026	1607.0933	0.180996	-461.326992	-461.316837	-461.315893	-461.363056	36.516	
O	 0.2835237241	 1.3132885387	 0.0865603035	-0.433387
C	 0.0981370754	-0.0786030339	-0.0608724244	-0.059021
C	-1.3805914496	-0.509388268	 0.0131221135	-0.014253
C	-2.1580527471	-0.068859642	-1.2296122	-0.096186
O	-2.0811389463	 1.3526464241	-1.3565120606	-0.424169
C	-1.5275693618	-2.0331783932	 0.1902288002	-0.239922
C	-1.0952876659	-2.5356475607	 1.547821385	 0.092851
C	-0.5807553728	-3.895973521	 1.7484140582	-0.184072
O	 0.3011403592	-2.7724716099	 1.7509765433	-0.225405
H	-0.3487196388	 1.7345221232	-0.5100904148	 0.286309
H	 0.5205632923	-0.4488900363	-1.014285463	 0.068472
H	 0.6657230578	-0.5587024005	 0.7402192565	 0.13272
H	-1.8253441455	-0.0042720137	 0.8816648597	 0.090451
H	-1.7298739465	-0.5589888473	-2.1186443666	 0.093102
H	-3.2092482406	-0.3856859705	-1.1491686464	 0.091563
H	-2.4210848764	 1.6044897372	-2.2198442218	 0.294062
H	-2.5794599633	-2.3163270687	 0.045615618	 0.099758
H	-0.9494243576	-2.5608525184	-0.5790632348	 0.104916
H	-1.5827503642	-2.0518661747	 2.3969522453	 0.094445
H	-0.7106086094	-4.3917280037	 2.7093282023	 0.115412
H	-0.4842757929	-4.5631490606	 0.8924001267	 0.112353
41.5083	84.4089	109.0809	115.9095	207.37	250.5403	267.292	275.9683	339.8439	372.7033	424.9167	455.5438	549.3115	582.5733	789.0118	833.071	870.4553	905.6788	926.5873	952.186	1040.5177	1052.554	1070.5018	1083.7792	1107.5829	1113.2854	1148.9766	1156.8787	1173.2106	1220.2601	1228.5563	1257.1349	1287.5527	1299.9505	1312.0946	1345.2604	1377.7312	1393.8727	1446.806	1458.6036	1468.3421	1472.7584	1509.7668	1521.5003	1529.447	2923.8899	2968.7516	2999.7277	3011.593	3025.2268	3055.7519	3080.716	3091.8829	3101.0554	3167.2044	3755.9137	3835.268
OCC(CO)CC1CO1	OCC(CO)C[C@H]1CO1	
InChI=1S/C6H12O3/c7-2-5(3-8)1-6-4-9-6/h5-8H,1-4H2	InChI=1S/C6H12O3/c7-2-5(3-8)1-6-4-9-6/h5-8H,1-4H2/t6-/m0/s1
