21
gdb 66312	4.46512	0.64111	0.61247	4.2757	80.91	-0.2755	0.0102	0.2857	1843.5749	0.18054	-424.240552	-424.230488	-424.229544	-424.276971	35.924	
C	 0.0490698438	 1.5732969588	 0.1740372638	-0.465587
C	-0.0410888452	 0.0695081062	-0.0184169363	 0.379285
C	-1.3086166725	-0.4358149454	-0.6912949523	-0.272026
C	-1.4492519448	 0.0236355397	-2.1416357871	-0.088883
O	-2.5739065706	-0.6191276784	-2.7596357956	-0.171386
C	-3.6766356749	 0.1143934871	-2.9896194686	 0.169231
O	-4.6730305021	-0.3415873362	-3.4642485295	-0.275433
C	 1.240621632	-0.687438669	-0.2906717828	-0.297394
C	 0.5631151654	-0.8051544986	 1.0539951836	-0.31284
H	 0.9635704855	 1.8448971681	 0.7097783359	 0.118793
H	 0.0612194047	 2.1118123525	-0.7805036931	 0.115938
H	-0.800890679	 1.948136438	 0.7568172599	 0.117973
H	-1.3218415462	-1.531141014	-0.6847871399	 0.115023
H	-2.1916049361	-0.1080554231	-0.1263094093	 0.103078
H	-1.5629028268	 1.1124548616	-2.2121971855	 0.110939
H	-0.5702932328	-0.2620778275	-2.7265606645	 0.128196
H	-3.5523245745	 1.1772174269	-2.6991701222	 0.073331
H	 1.2012684086	-1.5446302414	-0.9551339263	 0.112968
H	 2.1657191234	-0.1240811761	-0.3506127071	 0.11235
H	 1.0282143618	-0.3176362313	 1.9042764402	 0.112479
H	 0.0675850405	-1.7393141081	 1.2962845468	 0.113965
38.9247	52.5643	94.4602	136.5696	189.1566	218.6903	291.3939	331.2918	338.285	390.2233	415.5256	454.481	663.379	738.6595	782.8699	792.7378	869.6979	920.9464	953.2835	958.4701	1013.1295	1036.298	1047.8906	1051.3345	1066.9458	1081.987	1096.5887	1126.7184	1160.5507	1189.5734	1263.9871	1302.1801	1323.9576	1341.7474	1369.7188	1408.7058	1421.6242	1434.1598	1468.8764	1481.6459	1496.2085	1501.0502	1509.9155	1511.5012	1866.4912	2934.1383	3018.7821	3023.667	3030.9896	3070.8078	3081.5584	3097.7447	3101.9345	3126.8824	3132.1346	3205.1348	3219.6113
CC1(CCOC=O)CC1	CC1(CCOC=O)CC1	
InChI=1S/C7H12O2/c1-7(2-3-7)4-5-9-6-8/h6H,2-5H2,1H3	InChI=1S/C7H12O2/c1-7(2-3-7)4-5-9-6-8/h6H,2-5H2,1H3
