15
gdb 30611	4.41636	1.03184	0.84078	4.2296	71.95	-0.2416	-0.0504	0.1912	1287.9981	0.111993	-457.797246	-457.788996	-457.788052	-457.830846	29.388	
O	 0.0793295925	 1.345715995	 0.0085325555	-0.396946
C	-0.0125361323	-0.0540155297	 0.0024422911	-0.179866
C	-1.4860165858	-0.4550818968	 0.0115838158	 0.272621
O	-2.3892677086	 0.3521199548	 0.0222419814	-0.299002
C	-1.7633944973	-1.896642059	 0.006747646	 0.273417
C	-2.9423913117	-2.5898594136	 0.0123388562	-0.241246
C	-2.6000663915	-3.9716548137	 0.0029925646	-0.172295
C	-1.2373847694	-4.0209011088	-0.0075166963	-0.013979
O	-0.7117049361	-2.7760697732	-0.0054490943	-0.177526
H	 1.0118542203	 1.579543676	 0.0004996712	 0.292593
H	 0.4560675448	-0.5117893961	-0.8851525555	 0.115009
H	 0.4692727552	-0.5202797527	 0.8785033114	 0.114999
H	-3.9242829656	-2.1450452969	 0.0219440088	 0.1423
H	-3.271002709	-4.8159750076	 0.0039393699	 0.124657
H	-0.5261589752	-4.8310053977	-0.0168164858	 0.145263
74.495	88.5258	144.9372	184.9559	231.7337	289.328	375.8925	486.5105	539.0601	612.8438	681.1482	753.1208	774.8595	839.5174	894.6716	898.8219	907.6463	1013.6319	1014.0645	1035.9866	1115.2621	1141.1553	1191.1631	1221.528	1248.4226	1248.681	1289.3908	1418.9627	1443.9729	1487.9578	1507.2269	1613.5071	1786.4282	2962.5617	2984.892	3258.1779	3275.7086	3284.8003	3837.5138
OCC(=O)C1=CC=CO1	OCC(=O)c1ccco1	
InChI=1S/C6H6O3/c7-4-5(8)6-2-1-3-9-6/h1-3,7H,4H2	InChI=1S/C6H6O3/c7-4-5(8)6-2-1-3-9-6/h1-3,7H,4H2
