19
gdb 80702	2.22342	1.50747	1.28622	3.8864	76.39	-0.2443	-0.0281	0.2162	1105.5973	0.156501	-422.991735	-422.982601	-422.981657	-423.025371	33.666	
C	-0.087243345	 1.5354933924	-0.1721616781	-0.439346
C	 0.0296719551	 0.0385987475	 0.016134755	-0.073075
C	 1.2939567733	-0.7362343281	-0.182909267	 0.044926
O	 2.4392727158	 0.0148144617	 0.2476919836	-0.281951
C	 1.9792447594	-0.0409022714	 1.6062292528	-0.000153
C	 1.962173916	 1.2492874304	 2.3865327496	 0.147148
O	 2.3211328785	 2.3263094894	 1.9901768259	-0.243107
C	 0.6506576122	-0.7099913045	 1.1947573093	 0.196724
C	-0.0570019274	-1.7602316047	 2.0003116859	-0.497031
H	 0.8716703701	 2.0300488766	-0.0136986423	 0.166147
H	-0.4187012685	 1.7568206405	-1.1922696036	 0.115566
H	-0.8193533703	 1.9701883121	 0.5167024597	 0.113885
H	-0.8322700111	-0.5262128667	-0.3397073594	 0.089878
H	 1.4658130426	-1.5358680731	-0.8949332329	 0.105538
H	 2.5882044985	-0.7551067475	 2.1876973404	 0.101238
H	 1.5824098491	 1.1052149559	 3.427215458	 0.075473
H	-0.6344314964	-1.3196314947	 2.8216814413	 0.127823
H	-0.758904013	-2.3215453996	 1.3755993952	 0.128017
H	 0.6496986111	-2.4767221663	 2.4347592067	 0.122299
102.7043	136.431	173.1275	185.1594	204.5843	237.2229	278.2586	294.028	322.8741	483.3344	574.7609	626.0174	697.9526	746.696	759.6797	834.9441	906.7259	946.1724	965.3659	1004.4065	1014.0903	1054.5349	1083.9331	1106.0558	1113.8701	1138.2266	1161.5026	1207.556	1248.952	1279.6454	1328.8875	1356.6243	1413.9646	1418.7631	1420.8669	1466.2192	1486.1005	1497.4592	1501.4509	1509.0855	1837.1482	2839.9689	2959.2023	3022.3721	3037.4896	3080.5346	3092.8965	3099.1118	3112.1456	3151.4885	3175.5182
CC1C2OC(C=O)C12C	C[C@H]1[C@H]2O[C@@H](C=O)[C@@]12C	
InChI=1S/C7H10O2/c1-4-6-7(4,2)5(3-8)9-6/h3-6H,1-2H3	InChI=1S/C7H10O2/c1-4-6-7(4,2)5(3-8)9-6/h3-6H,1-2H3/t4-,5-,6+,7+/m0/s1
