16
gdb 15915	3.56699	1.91849	1.55616	1.8972	71.04	-0.2457	0.0194	0.2651	858.1434	0.12992	-346.533561	-346.526338	-346.525394	-346.565038	27.671	
C	 0.0134464059	-1.217304052	-0.1883988774	-0.422047
C	 0.0291946769	-0.0211192786	-0.0634553604	 0.25858
C	 0.0588561991	 1.4148452806	 0.0543125468	 0.275954
C	-0.5470230477	 2.2914362124	-1.0760083164	-0.276162
C	 0.7069223529	 3.2176733704	-1.0238236727	-0.228486
C	 1.3464021468	 2.3164502815	 0.065808331	-0.139268
C	 0.9220586025	 2.6507484345	 1.500314763	-0.084475
O	-0.3123787736	 1.9050939725	 1.3697080728	-0.321386
H	-0.0047752466	-2.274535977	-0.2885409582	 0.195225
H	-0.6561153189	 1.7561332281	-2.0215830769	 0.113874
H	-1.5039574753	 2.7373509345	-0.7986703253	 0.117523
H	 1.2702166885	 3.2357481125	-1.958740166	 0.10965
H	 0.5257525417	 4.2500221337	-0.7133222906	 0.105486
H	 2.3523787402	 1.9360658089	-0.1012026555	 0.088028
H	 1.5633569006	 2.2186021117	 2.2789330725	 0.106533
H	 0.744742497	 3.7094317764	 1.7264425433	 0.100972
84.0544	150.8188	181.592	331.0627	366.2961	483.4068	514.7811	576.4193	617.2431	663.3679	672.9228	743.4086	825.02	867.8206	913.3996	941.6183	975.7566	1002.7524	1031.2678	1078.1301	1091.3888	1114.9109	1152.0674	1184.5353	1214.8807	1232.9731	1268.0109	1289.7957	1318.7492	1349.2472	1461.5117	1488.7228	1523.7221	2231.3066	3011.4484	3056.1686	3064.2718	3073.3724	3111.2031	3131.1449	3137.514	3500.1357
C#CC12CCC1CO2	C#C[C@]12CC[C@H]1CO2	
InChI=1S/C7H8O/c1-2-7-4-3-6(7)5-8-7/h1,6H,3-5H2	InChI=1S/C7H8O/c1-2-7-4-3-6(7)5-8-7/h1,6H,3-5H2/t6-,7-/m0/s1
