21
gdb 103917	3.18157	1.12331	1.04965	0.7269	78.76	-0.2439	0.0747	0.3186	1262.265	0.1799	-424.194479	-424.184757	-424.183813	-424.228473	36.802	
C	 0.0705903251	 1.527354445	-0.0634744	-0.499987
C	-0.0987932542	 0.0533772995	 0.1091236761	 0.426033
C	-1.3909480374	-0.7801684357	 0.0588532255	-0.340624
C	-0.7213341719	-1.8099232485	 1.0487288388	 0.326527
C	-1.3755749548	-1.8201722499	 2.4283428672	-0.458499
C	-0.5310698636	-3.2143523638	 0.4952027494	-0.131652
O	-1.8197738659	-3.7935656182	 0.3188912449	-0.429013
C	 0.5457455899	-0.9260677734	 1.0023386131	-0.107608
O	 0.9541874901	-0.8066706769	-0.3673806611	-0.294088
H	 1.092459072	 1.8266723523	 0.1846163598	 0.132459
H	-0.1288100646	 1.8223145761	-1.1001628004	 0.130106
H	-0.6243557773	 2.0763935189	 0.5801136883	 0.123369
H	-2.2543153946	-0.2785763538	 0.5031482852	 0.101837
H	-1.6605250295	-1.1602797638	-0.9289806983	 0.107993
H	-2.3558169957	-2.3009682139	 2.3793628541	 0.14
H	-0.7619620914	-2.3761376289	 3.147379393	 0.108819
H	-1.5053769369	-0.8037280355	 2.8150923615	 0.106974
H	 0.0136667065	-3.151383532	-0.4555280273	 0.103756
H	 0.0770915176	-3.8091151445	 1.198006206	 0.076625
H	-1.708138815	-4.6479975061	-0.1071211813	 0.287334
H	 1.3129828017	-0.8070310672	 1.7617918353	 0.089641
93.2795	129.9233	176.7651	197.6595	231.7062	243.4044	279.8283	311.026	318.7408	363.4101	433.0661	458.8046	550.725	627.2714	691.0858	779.9886	861.3673	894.9394	899.4056	936.199	962.1019	983.2943	1003.9111	1015.3567	1054.44	1073.8183	1138.6054	1159.6278	1175.7715	1200.8541	1227.867	1256.0353	1267.4794	1293.4382	1326.6273	1401.4657	1403.8351	1444.8354	1462.2784	1477.041	1484.5817	1490.2893	1496.0712	1502.8527	1525.7351	2956.8192	3026.446	3032.7018	3036.5148	3065.7285	3087.7063	3094.5656	3119.7258	3121.0909	3123.0384	3160.6748	3834.9549
CC12CC(C)(CO)C1O2	C[C@]12C[C@@](C)(CO)[C@H]1O2	
InChI=1S/C7H12O2/c1-6(4-8)3-7(2)5(6)9-7/h5,8H,3-4H2,1-2H3	InChI=1S/C7H12O2/c1-6(4-8)3-7(2)5(6)9-7/h5,8H,3-4H2,1-2H3/t5-,6+,7+/m1/s1
