16
gdb 8823	2.87365	1.62894	1.08086	3.4833	68.01	-0.239	0.022	0.261	1073.1748	0.129126	-379.908972	-379.899589	-379.898645	-379.943517	32.714	
C	-0.2377155037	 1.3999400238	 0.1068506849	-0.335562
N	-0.2184185265	-0.022364003	 0.3908916232	-0.316779
C	 0.8683328112	-0.6554742223	 0.8878340825	 0.412434
O	 1.932364374	-0.1146019923	 1.1358111178	-0.383923
C	 0.7414144394	-2.2023181777	 1.0741042681	-0.251939
N	 1.6439139569	-2.7066983553	 2.11179733	-0.504143
C	-0.6307874834	-2.650265207	 1.2922342528	 0.319735
C	-1.7705392023	-2.9899613694	 1.4713654504	-0.450361
H	 0.7687500984	 1.7832465124	 0.2776764771	 0.171288
H	-0.5242331162	 1.5887373614	-0.9330888718	 0.129166
H	-0.9363753457	 1.9292835001	 0.7645048594	 0.130007
H	-1.067855283	-0.5576566831	 0.2994142289	 0.254886
H	 1.0834161225	-2.6179130976	 0.1131494191	 0.140236
H	 2.4890635485	-2.139992805	 2.0428981427	 0.247415
H	 1.2440097335	-2.486330224	 3.020845018	 0.231504
H	-2.7691114535	-3.313456831	 1.6349524368	 0.206038
49.7501	82.8544	128.5435	147.4172	226.2042	243.8277	268.3202	340.0136	397.3418	488.1076	505.0693	568.353	601.9716	621.3333	668.1086	790.2364	860.5555	942.9449	972.9952	1062.4924	1147.9453	1155.786	1178.0066	1209.2281	1262.4922	1289.7853	1401.9313	1440.6878	1494.6077	1500.1117	1569.6726	1663.7462	1780.241	2231.9696	2986.9757	3030.613	3084.5058	3155.3398	3462.4994	3500.3494	3542.3422	3624.3875
CNC(=O)C(N)C#C	CNC(=O)[C@@H](N)C#C	
InChI=1S/C5H8N2O/c1-3-4(6)5(8)7-2/h1,4H,6H2,2H3,(H,7,8)	InChI=1S/C5H8N2O/c1-3-4(6)5(8)7-2/h1,4H,6H2,2H3,(H,7,8)/t4-/m0/s1
