19
gdb 52093	5.15642	0.78095	0.76617	2.7462	77.12	-0.2582	-0.029	0.2292	1513.3854	0.157776	-422.974544	-422.965936	-422.964992	-423.009504	31.352	
O	-0.2370008277	 0.2389677236	 0.5216746962	-0.237781
C	 0.062578935	 1.1393700248	-0.2158594801	 0.136972
C	 1.3734451796	 1.8999262192	-0.1206521514	-0.18214
O	 1.3830672611	 2.8803282862	-1.1334713988	-0.301935
C	 2.5230440505	 3.6589583051	-1.1736195651	 0.456819
C	 3.997533661	 3.210072999	-1.4384356793	-0.282802
C	 4.0123424008	 4.7609367395	-1.3140448307	-0.050542
C	 2.7333930121	 4.7874265037	-2.203837756	-0.2746
C	 3.0792882386	 4.624642667	-0.0764394017	-0.282795
H	-0.6005265517	 1.4927958891	-1.0357244191	 0.099117
H	 1.4533812974	 2.3439927515	 0.8838401305	 0.130418
H	 2.2054168337	 1.1867164938	-0.2294742589	 0.130382
H	 4.5032816324	 2.6537831917	-0.6448674407	 0.092875
H	 4.2104530565	 2.7948764204	-2.4268308166	 0.096545
H	 4.8805378855	 5.4084518872	-1.4012405953	 0.08705
H	 2.8527605722	 4.479903056	-3.2456828187	 0.096491
H	 2.0853350345	 5.6620699639	-2.1074933025	 0.096496
H	 2.46016002	 5.4912065639	 0.1693127635	 0.09655
H	 3.5184094284	 4.1709584144	 0.8159384048	 0.09288
45.4012	53.6933	93.3368	114.1048	292.2555	361.7683	374.732	517.7532	552.5216	568.9638	696.9064	740.0572	775.358	801.0158	891.3928	943.5594	959.2673	961.7541	969.0441	987.75	1049.4353	1092.924	1095.1569	1108.6387	1113.8142	1133.3994	1139.3701	1164.1153	1184.3313	1227.454	1233.2103	1238.8971	1239.7991	1302.2143	1361.5193	1409.2415	1478.8311	1494.3091	1497.9864	1556.9946	1845.0685	2902.1955	2983.616	3017.6765	3049.9514	3053.0439	3061.1384	3117.7609	3122.7429	3126.057	3154.2334
O=CCOC12CC(C1)C2	O=CCO[C@@]12C[C@@H](C1)C2	
InChI=1S/C7H10O2/c8-1-2-9-7-3-6(4-7)5-7/h1,6H,2-5H2	InChI=1S/C7H10O2/c8-1-2-9-7-3-6(4-7)5-7/h1,6H,2-5H2/t6-,7-
