19
gdb 100182	2.02744	1.39647	1.10872	4.007	67.5	-0.2433	-0.0243	0.219	1188.4444	0.155134	-497.298109	-497.287571	-497.286627	-497.333288	38.26	
C	 0.12829254	 1.5831962215	-0.1176192292	-0.42837
C	 0.0102692128	 0.079344051	 0.107537933	 0.089087
O	 0.3786309215	-0.2683669486	 1.4507916125	-0.462071
C	-1.4198612769	-0.4824783417	-0.0083414832	 0.253494
O	-2.2267358992	-0.0179638189	 1.0640652817	-0.494037
C	-2.1565245684	-0.0888708905	-1.294498515	-0.092504
O	-3.4517449345	-0.656671166	-1.31262036	-0.429136
C	-1.3370696412	-2.023083937	 0.0361602702	 0.154434
O	-0.6212954945	-2.6684096598	-0.6818529941	-0.264925
H	 1.1415446004	 1.9207950476	 0.129143004	 0.109024
H	-0.0536389487	 1.8478632574	-1.1630459481	 0.131948
H	-0.581655597	 2.1256429451	 0.5126980724	 0.134836
H	 0.6378896933	-0.4694709049	-0.6066968552	 0.101367
H	 1.2477558632	 0.0982362652	 1.638783878	 0.292644
H	-1.6659047442	-0.0385352975	 1.851111794	 0.29637
H	-2.1989296068	 1.0065225986	-1.3702845841	 0.096444
H	-1.6186732832	-0.4837485751	-2.1611381121	 0.127433
H	-3.8812647065	-0.3728801488	-0.4967844702	 0.296916
H	-2.00854779	-2.4867780376	 0.7907155252	 0.087045
89.4792	98.2899	118.562	163.6919	210.7257	244.9696	259.388	273.2273	313.7922	330.7767	380.5078	444.4854	459.2759	470.3404	492.0869	590.5992	667.0888	759.2567	886.4254	911.486	957.0746	1014.1123	1051.785	1074.8573	1114.8111	1134.8804	1146.0573	1165.5302	1211.9752	1280.3267	1366.783	1372.5775	1381.2847	1397.2106	1406.9308	1413.4872	1430.287	1487.9735	1498.7556	1500.1955	1834.426	2902.2629	3006.6725	3028.4209	3034.2268	3097.6986	3101.1713	3126.6922	3764.4503	3796.0375	3832.4872
CC(O)C(O)(CO)C=O	C[C@@H](O)[C@@](O)(CO)C=O	
InChI=1S/C5H10O4/c1-4(8)5(9,2-6)3-7/h2,4,7-9H,3H2,1H3	InChI=1S/C5H10O4/c1-4(8)5(9,2-6)3-7/h2,4,7-9H,3H2,1H3/t4-,5+/m1/s1
