13
gdb 50959	1.67209	1.432	0.80393	2.8936	64.78	-0.3143	-0.0342	0.2801	1306.398	0.087068	-452.776619	-452.767584	-452.766639	-452.812175	29.831	
O	-0.033318968	-0.0007080109	 0.132403996	-0.237135
C	 0.0135808479	 1.1828825066	 0.1886977562	 0.187469
O	 1.1052636166	 1.8811586982	-0.2491687683	-0.181296
C	 1.0735979667	 3.2980102015	-0.1585178214	-0.056724
C	 2.2747151647	 3.7772578381	 0.6880285407	-0.343071
C	 2.1367233361	 3.3462472332	 2.0757828805	 0.263068
N	 1.9940325394	 3.0049362406	 3.1696473159	-0.28028
C	 1.1360646886	 3.8766550373	-1.5095977016	 0.301143
N	 1.192387516	 4.3575234133	-2.5574574818	-0.289889
H	-0.780935853	 1.8412245279	 0.5862538016	 0.104441
H	 0.1400260244	 3.6302795964	 0.3149078625	 0.155893
H	 3.1948385744	 3.3693656459	 0.2594762899	 0.193076
H	 2.3397337263	 4.869028602	 0.6454310198	 0.183306
32.8889	75.0224	118.0848	144.5458	190.2798	215.0632	325.7683	377.0925	392.5516	499.4534	521.0728	576.1059	662.382	896.5236	945.661	993.8601	1029.7238	1051.3996	1069.9837	1134.6453	1239.5672	1289.098	1357.436	1371.7064	1433.9722	1453.6977	1894.5732	2370.4691	2373.1483	2971.9227	3028.6805	3066.9101	3115.1
O=COC(CC#N)C#N	O=CO[C@@H](CC#N)C#N	
InChI=1S/C5H4N2O2/c6-2-1-5(3-7)9-4-8/h4-5H,1H2	InChI=1S/C5H4N2O2/c6-2-1-5(3-7)9-4-8/h4-5H,1H2/t5-/m0/s1
