16
gdb 32349	4.79631	1.027	0.85156	5.8836	77.4	-0.204	-0.0523	0.1517	1301.9483	0.125218	-437.932153	-437.924157	-437.923213	-437.964799	30.113	
C	 0.0308334162	 1.4553607192	-0.0206025156	-0.329845
N	 0.0277137794	 0.0132470279	 0.1340540748	-0.369972
C	-1.1889368124	-0.6705288202	 0.0487730752	 0.20767
C	-2.4078296738	-0.0734776059	 0.0386449991	 0.005198
O	-3.570965745	-0.7693421848	 0.0356876244	-0.222331
C	-3.6273033761	-2.1599539163	 0.0028450906	 0.42544
O	-4.7090262702	-2.6883684139	-0.0151552203	-0.355369
C	-2.3305048478	-2.81501166	-0.0019481641	-0.253759
C	-1.17969558	-2.1086395092	 0.0279768891	-0.10001
H	 1.061843178	 1.8138123661	 0.0028011918	 0.131076
H	-0.441252025	 1.7989224985	-0.9558202644	 0.116542
H	-0.503832011	 1.9195568027	 0.8157494507	 0.139451
H	 0.7638172183	-0.442832488	-0.3865508774	 0.238426
H	-2.5823759764	 0.9930138504	 0.0500826262	 0.127899
H	-2.3469186281	-3.8971797314	-0.0221189673	 0.127375
H	-0.2205928059	-2.620521795	 0.0422349173	 0.112211
86.0229	134.319	199.5894	240.8648	334.4542	374.3271	381.2475	479.0521	494.4079	529.6964	584.6949	634.6288	750.3956	782.2488	803.3601	829.9999	855.4264	949.4533	1001.6884	1073.5108	1113.6685	1149.6624	1158.6123	1182.9776	1257.4935	1299.6301	1368.4935	1445.4252	1464.0401	1482.3525	1509.4303	1528.9784	1592.4442	1701.7768	1830.7665	2969.9319	3061.4718	3125.987	3162.4384	3222.1012	3235.8844	3581.4608
CNC1=COC(=O)C=C1	CNc1coc(=O)cc1	
InChI=1S/C6H7NO2/c1-7-5-2-3-6(8)9-4-5/h2-4,7H,1H3	InChI=1S/C6H7NO2/c1-7-5-2-3-6(8)9-4-5/h2-4,7H,1H3
