22
gdb 121034	5.1998	0.70828	0.64679	3.9867	83.13	-0.235	0.0386	0.2736	1760.3487	0.195411	-404.409602	-404.400065	-404.399121	-404.444575	35.197	
C	 0.0057703852	 1.589312483	-0.0221053413	-0.381202
C	-0.0027177527	 0.0611549807	 0.0733867908	-0.17211
C	-1.4129341301	-0.535401256	-0.0178442799	-0.186146
C	-1.4517796094	-2.0636866896	 0.0312293164	 0.020446
C	-0.9319027166	-2.6761987204	 1.3583123819	-0.174121
N	-1.6486405787	-3.9357401391	 1.4309045286	-0.303776
C	-2.7901611116	-3.9959470753	 0.6741241568	 0.400372
O	-3.5849856519	-4.9096203248	 0.6572960932	-0.379664
C	-2.8545810427	-2.6822072932	-0.1110897247	-0.357678
H	 1.022844425	 1.9879783938	 0.0420126981	 0.113743
H	-0.4263569755	 1.9279742177	-0.9702038007	 0.116342
H	-0.5802313326	 2.0398979915	 0.786630591	 0.115585
H	 0.6189843038	-0.3601945198	-0.7278461986	 0.09737
H	 0.4685676011	-0.2454887595	 1.0161411487	 0.099803
H	-2.0340460133	-0.1343092585	 0.7959243563	 0.093847
H	-1.8841859086	-0.2003122539	-0.951264606	 0.098669
H	-0.8232045351	-2.4584565232	-0.7772905074	 0.084707
H	 0.1511247723	-2.833142092	 1.3506604697	 0.112832
H	-1.1679965245	-2.0204207464	 2.2113589035	 0.100827
H	-1.4718852034	-4.6374690716	 2.132228753	 0.248454
H	-3.6212772459	-2.0507733781	 0.3566240689	 0.123614
H	-3.1652281548	-2.8613837754	-1.1419272584	 0.128088
63.5816	91.6376	103.8352	162.8781	173.8016	249.7747	304.3083	323.6838	431.2082	494.7727	499.6949	574.4795	642.7509	698.1424	745.7406	835.8607	861.8085	892.8803	905.698	929.5547	1009.4435	1038.586	1053.1062	1082.4281	1088.9747	1128.7828	1151.4802	1191.3064	1232.813	1254.0643	1266.1611	1284.4424	1309.467	1331.4568	1336.5451	1360.3235	1378.6352	1401.0833	1413.405	1447.9648	1470.5615	1483.1634	1493.6713	1500.1807	1509.8629	1533.475	1833.107	2975.8185	3003.935	3015.0088	3021.5562	3030.5718	3034.2166	3038.0363	3058.3699	3068.3964	3097.4691	3103.9111	3117.8505	3639.8858
CCCC1CNC(=O)C1	CCC[C@H]1CNC(=O)C1	
InChI=1S/C7H13NO/c1-2-3-6-4-7(9)8-5-6/h6H,2-5H2,1H3,(H,8,9)	InChI=1S/C7H13NO/c1-2-3-6-4-7(9)8-5-6/h6H,2-5H2,1H3,(H,8,9)/t6-/m1/s1
