18
gdb 50988	1.92172	1.44289	1.0217	3.6476	75.89	-0.2624	-0.0329	0.2295	1216.347	0.145795	-401.963704	-401.954485	-401.953541	-401.998446	33.194	
O	 3.6691894876	 1.5664308275	-1.7475904363	-0.238409
C	 3.2489484937	 1.5465816638	-0.6180149312	 0.164931
C	 1.9968527014	 2.2514024414	-0.1389531934	-0.399195
C	 1.2860587624	 3.0931867843	-1.1800844911	 0.396597
C	 0.7143472758	 2.3164325025	-2.3663523514	-0.422336
C	-0.2862756953	 1.3293160851	-1.9548868778	 0.26191
N	-1.0626289077	 0.5504663568	-1.5989652032	-0.31574
C	 0.52386539	 4.3092164271	-0.7107368319	-0.316002
C	 1.8190557445	 4.4740021688	-1.4675591219	-0.309156
H	 3.7808181327	 0.977016693	 0.1776282321	 0.088322
H	 1.329423388	 1.4785763725	 0.273085799	 0.153386
H	 2.2848218385	 2.8636538796	 0.7267593471	 0.126866
H	 0.2474391455	 3.0069181751	-3.0766318426	 0.144956
H	 1.5234078805	 1.8029527374	-2.8951647696	 0.17885
H	-0.402608922	 4.5551787637	-1.2184630633	 0.124158
H	 0.5143823546	 4.5285213453	 0.3513981562	 0.119118
H	 2.6971853577	 4.8006732846	-0.9213868771	 0.120191
H	 1.7777434621	 4.8370198413	-2.4887115536	 0.121552
48.417	86.3093	130.9148	171.3048	182.1214	305.0278	329.9803	340.141	397.0095	404.1369	527.4135	670.2404	713.0593	775.8915	796.7278	872.5054	904.3472	911.9659	946.0567	977.2667	986.6563	1025.6794	1056.2892	1076.5885	1086.7744	1184.3369	1211.6651	1219.9016	1311.2187	1314.6301	1349.5087	1391.8132	1421.2862	1445.6502	1466.3163	1477.307	1508.776	1826.9945	2357.945	2877.0787	3006.9873	3042.4408	3053.6241	3099.473	3133.4615	3137.581	3211.0715	3224.6168
O=CCC1(CC#N)CC1	O=CCC1(CC#N)CC1	
InChI=1S/C7H9NO/c8-5-3-7(1-2-7)4-6-9/h6H,1-4H2	InChI=1S/C7H9NO/c8-5-3-7(1-2-7)4-6-9/h6H,1-4H2
