18
gdb 111901	3.40925	1.14616	0.90258	4.9946	75.05	-0.2216	-0.0078	0.2138	1283.884	0.147917	-439.139262	-439.130504	-439.12956	-439.172663	32.871	
C	 0.0941588917	 1.5224487234	 0.0828056088	-0.498631
C	-0.0625629009	 0.0422978088	 0.0148286396	 0.35939
C	-1.1554138498	-0.7152306228	-0.1480648107	-0.245944
C	-0.7696559978	-2.1697035971	-0.1250396988	-0.186481
C	-1.119914808	-3.0112735877	-1.3745508502	-0.055603
O	-0.7020283089	-4.3462492504	-1.2278907136	-0.425167
C	 0.7556547959	-2.1133710516	 0.0331222244	 0.423485
O	 1.5391272699	-3.0455398284	 0.0041322072	-0.398794
N	 1.0782846996	-0.7826524856	 0.1527597922	-0.373839
H	 0.7681230125	 1.8887634896	-0.7013332219	 0.137497
H	-0.8731685355	 2.0123463008	-0.042516287	 0.144965
H	 0.5164574832	 1.8341607959	 1.0456721785	 0.139938
H	-2.163520401	-0.3416809388	-0.2516221272	 0.105491
H	-1.1868129218	-2.699506896	 0.7419671707	 0.1234
H	-2.2062186406	-3.0209034926	-1.5141784303	 0.105533
H	-0.6791826181	-2.5312451733	-2.2642358645	 0.087591
H	 0.2204289581	-4.3140906693	-0.9297825271	 0.29815
H	 2.0310644515	-0.4566813749	 0.1854416399	 0.259017
84.5903	155.4769	165.9068	182.8022	221.3095	293.0239	347.6287	388.9941	474.0203	518.4919	572.6612	597.2984	604.5911	709.3242	723.3376	761.7685	817.4444	975.957	995.5897	1013.4719	1035.4139	1066.3542	1077.7058	1089.6283	1187.6029	1207.6623	1216.678	1252.2952	1298.6219	1342.0678	1377.068	1407.2587	1422.4776	1471.0425	1476.7873	1491.5902	1515.109	1713.1087	1799.3679	2964.2867	3025.9968	3027.8397	3065.8117	3075.119	3135.1934	3240.1231	3648.1747	3694.0624
CC1=CC(CO)C(=O)N1	CC1=C[C@@H](CO)C(=O)N1	
InChI=1S/C6H9NO2/c1-4-2-5(3-8)6(9)7-4/h2,5,8H,3H2,1H3,(H,7,9)	InChI=1S/C6H9NO2/c1-4-2-5(3-8)6(9)7-4/h2,5,8H,3H2,1H3,(H,7,9)/t5-/m0/s1
