17
gdb 34252	4.25661	1.2983	1.17965	0.905	79.18	-0.2391	0.0342	0.2733	1056.6205	0.136801	-384.628929	-384.621752	-384.620808	-384.660286	29.097	
C	 0.0610626019	-1.1741100955	-0.0392869205	-0.384386
C	 0.0204518115	 0.0286615543	-0.0040155867	 0.122318
C	-0.0474051355	 1.4491740012	 0.0534186443	 0.20316
C	-1.2252262404	 2.2760966581	 0.5972200135	-0.31088
C	-0.7393911043	 3.4610577986	-0.2967574951	 0.077307
O	 0.0974021049	 4.354923197	 0.4191196202	-0.264587
C	 1.2256824728	 3.5916794726	 0.8625068808	-0.107296
C	 1.2134004201	 2.3259065154	 0.0132073235	-0.118714
C	 0.1885955855	 2.4835253693	-1.0604641842	-0.131081
H	 0.0988243585	-2.2345076044	-0.0719725338	 0.181717
H	-2.1772157385	 1.8663799279	 0.2511928938	 0.113619
H	-1.2760433776	 2.4649286213	 1.6739401134	 0.104172
H	-1.4898185307	 4.0379417934	-0.833623206	 0.091437
H	 2.1345051092	 4.1810813747	 0.6957029934	 0.110711
H	 1.1467195715	 3.3791366198	 1.9370468637	 0.10394
H	 2.1402082786	 1.8086301356	-0.2002809535	 0.105919
H	 0.3342852825	 2.3481283708	-2.1229127569	 0.102643
136.5403	150.2278	235.8655	358.6484	421.4172	483.2795	514.5751	557.0203	581.5988	646.4114	694.9728	702.5334	757.2171	848.7381	874.8815	881.5114	901.6222	942.7661	984.7531	993.9895	1006.8527	1030.083	1077.4865	1106.6033	1154.3441	1168.046	1199.2666	1218.8855	1230.979	1254.1444	1286.0629	1324.6594	1370.3828	1410.9987	1489.6469	1522.9055	2231.4884	3011.3821	3051.2468	3057.4644	3111.7168	3140.9215	3202.4413	3218.3757	3503.6889
C#CC12CC3OCC1C23	C#C[C@@]12C[C@H]3OC[C@@H]1[C@@H]23	
InChI=1S/C8H8O/c1-2-8-3-6-7(8)5(8)4-9-6/h1,5-7H,3-4H2	InChI=1S/C8H8O/c1-2-8-3-6-7(8)5(8)4-9-6/h1,5-7H,3-4H2/t5-,6-,7-,8-/m1/s1
