16
gdb 80641	2.88486	1.60752	1.29414	5.1658	68.03	-0.2679	0.0248	0.2927	980.1663	0.125807	-437.871472	-437.864168	-437.863224	-437.903318	28.388	
O	-0.0136715787	 1.381803213	 0.1137831421	-0.417949
C	 8.7598*^-6	-0.0107928336	 0.0222148855	 0.150633
C	-1.4025250298	-0.6104146433	-0.2156059384	 0.037928
C	-1.1555387107	-2.0518055356	-0.6974377113	-0.2533
C	-0.6150005411	-1.2354178613	-1.889362951	 0.078239
O	-1.6227108397	-0.2175294361	-1.6124056168	-0.301896
C	 0.6743927376	-0.5917739454	-1.301649598	-0.236021
C	 1.2495251673	 0.4304118828	-2.1604577998	 0.285182
N	 1.696427743	 1.2351693213	-2.8593063153	-0.322966
H	-0.4944161255	 1.7154730253	-0.6559731388	 0.298186
H	 0.4921418918	-0.3838886487	 0.9226956819	 0.104271
H	-2.1966813119	-0.3115228389	 0.4668439199	 0.101202
H	-0.4748739296	-2.69746959	-0.1370877292	 0.107819
H	-2.0848447995	-2.5648861562	-0.943535332	 0.129122
H	-0.5961164935	-1.5815716648	-2.9211025524	 0.111036
H	 1.4387082606	-1.3411643786	-1.0782648265	 0.128514
97.0728	148.7959	203.8989	339.0779	395.0533	447.5087	466.0348	475.8803	565.101	658.229	779.0971	804.5529	812.4731	855.389	879.6367	897.0185	929.8878	960.328	1020.9703	1053.1729	1076.5865	1099.4601	1132.6466	1169.9878	1191.1864	1229.8962	1257.7156	1270.8038	1278.6709	1315.7259	1316.3441	1346.9715	1440.9617	1488.51	2359.919	3072.4194	3078.9959	3101.1158	3141.9808	3145.2941	3153.8114	3764.8724
OC1C2CC(O2)C1C#N	O[C@H]1[C@@H]2C[C@@H](O2)[C@H]1C#N	
InChI=1S/C6H7NO2/c7-2-3-4-1-5(9-4)6(3)8/h3-6,8H,1H2	InChI=1S/C6H7NO2/c7-2-3-4-1-5(9-4)6(3)8/h3-6,8H,1H2/t3-,4-,5+,6-/m1/s1
