17
gdb 45623	4.70445	1.01649	0.87908	2.9378	75.83	-0.2353	-0.0247	0.2105	1289.2435	0.136134	-418.011912	-418.003927	-418.002983	-418.04518	29.6	
O	-0.0049453665	 0.1285429921	-0.2165565348	-0.301363
C	 0.0334735919	 1.3203445728	-0.0720958422	 0.388633
C	-1.1404184131	 2.3070121456	-0.1805727105	-0.266542
N	-0.5992532297	 3.6439914528	 0.0345130368	-0.269506
C	 0.6565359072	 3.5599580763	 0.2687336741	 0.351238
C	 1.2623880185	 2.17703892	 0.2557546406	-0.440153
N	 1.4426894391	 4.6500829314	 0.6163679991	-0.116288
C	 2.3899913785	 5.229548998	-0.3361186077	-0.240267
C	 1.152223957	 5.962316152	 0.070921698	-0.211728
H	-1.6224856782	 2.2247263667	-1.1629564258	 0.137303
H	-1.9125617917	 2.0642401444	 0.5614622539	 0.139079
H	 1.6976636218	 1.8973005916	 1.2212784662	 0.157481
H	 2.0496631926	 2.0491691901	-0.4954524289	 0.146012
H	 3.3567532795	 5.5068363066	 0.0730649858	 0.12887
H	 2.4148037555	 4.8152528955	-1.3413978604	 0.126573
H	 0.3380040247	 6.0243134355	-0.6445101487	 0.143025
H	 1.2208521428	 6.7843899087	 0.7764418646	 0.127634
59.9881	89.841	169.7697	198.4396	303.363	397.1676	448.3592	489.2181	560.6538	581.1338	662.7874	797.2911	810.2419	822.1481	844.7115	925.7811	933.6446	1005.658	1033.0957	1066.6687	1117.6607	1129.4297	1136.3882	1148.014	1157.2395	1182.341	1185.5216	1196.4587	1274.6791	1295.993	1416.7885	1433.4571	1452.6983	1492.8071	1519.3608	1684.3486	1862.7336	3025.6849	3051.8154	3054.8143	3088.8201	3108.0338	3125.7266	3196.7423	3218.3903
O=C1CN=C(C1)N1CC1	O=C1CN=C(C1)N1CC1	
InChI=1S/C6H8N2O/c9-5-3-6(7-4-5)8-1-2-8/h1-4H2	InChI=1S/C6H8N2O/c9-5-3-6(7-4-5)8-1-2-8/h1-4H2
