17
gdb 21026	3.5188	1.82011	1.22737	0.1515	72.28	-0.234	0.0099	0.244	1000.89	0.14205	-360.070575	-360.061801	-360.060857	-360.104801	29.768	
C	-0.046281177	 1.4144202983	 0.0099477542	-0.309097
N	-0.0600604347	-0.0320400174	 0.0021596518	 0.147984
N	-0.0259712322	-0.7338404184	-1.1259012209	-0.295135
C	 0.0345536562	-2.0034692073	-0.7149794774	 0.244563
C	 0.073000433	-3.1478761408	-1.6740514823	-0.500441
C	 0.0415142867	-2.0111360084	 0.6968650999	 0.24454
C	 0.0893584109	-3.1658905251	 1.6430221728	-0.50044
N	-0.0148480268	-0.7460505004	 1.1221442454	-0.295082
H	 0.9796478686	 1.7975138933	 0.0055613954	 0.144239
H	-0.5664587532	 1.7690258714	-0.8799966999	 0.155832
H	-0.5551518278	 1.759104226	 0.910252451	 0.15587
H	 0.9730385283	-3.7576366238	-1.5356786646	 0.130075
H	-0.7887476733	-3.8123918835	-1.5431967922	 0.130325
H	 0.0654069136	-2.7767057666	-2.7008042895	 0.143187
H	 0.9881423146	-3.7738538068	 1.4894160165	 0.130076
H	 0.0915445779	-2.8059045435	 2.6737753233	 0.143185
H	-0.773482435	-3.8291884969	 1.5132087765	 0.13032
49.4954	74.1218	101.7399	154.669	229.7481	253.6877	285.3739	319.3329	491.3793	634.1804	645.6923	672.6567	718.4029	807.5789	998.3138	1023.6843	1035.2496	1051.089	1080.8845	1086.7855	1146.7862	1233.6845	1350.9636	1358.5405	1407.9958	1411.2518	1423.252	1445.5256	1474.7042	1480.5333	1485.2544	1485.9915	1497.7078	1506.2184	1535.5268	1558.5	3031.4956	3031.4964	3047.5086	3078.9213	3081.0179	3128.6531	3132.7365	3133.2618	3171.3307
CN1N=C(C)C(C)=N1	Cn1nc(C)c(C)n1	
InChI=1S/C5H9N3/c1-4-5(2)7-8(3)6-4/h1-3H3	InChI=1S/C5H9N3/c1-4-5(2)7-8(3)6-4/h1-3H3
