18
gdb 125896	4.5238	1.20073	0.98484	4.7312	77.66	-0.2349	0.0034	0.2384	1188.3176	0.151063	-398.140728	-398.133302	-398.132358	-398.172654	28.955	
C	-0.712167625	 1.2895738114	 0.0111351958	-0.403923
C	 0.1814297989	 0.0517965386	 0.005400104	 0.049522
C	 1.1379452869	-0.0261847371	-1.244283556	-0.371641
C	 2.3225496588	-0.7061327173	-0.643753541	 0.346267
C	 2.303801438	-0.7475933136	 0.7229014036	 0.296097
C	 1.0791383593	-0.0949768849	 1.2869127694	-0.35766
N	 3.4376929968	-1.3371989992	 1.1791312354	-0.291019
N	 4.1668561444	-1.6709192838	 0.1473425607	-0.128225
N	 3.4959483247	-1.279478922	-0.9744284507	-0.329286
H	-0.1130175698	 2.20647523	 0.0526190647	 0.118469
H	-1.3351796112	 1.3373369362	-0.8884556599	 0.115429
H	-1.3803768911	 1.2894630983	 0.8784476855	 0.120873
H	-0.4553758885	-0.8393343864	-0.0377208281	 0.090261
H	 0.67287042	-0.5628859997	-2.0774972708	 0.116602
H	 1.3931392083	 0.9770819839	-1.6120843371	 0.118829
H	 1.3094597643	 0.8868422268	 1.721522361	 0.11399
H	 0.577193595	-0.6772880163	 2.065134486	 0.119881
H	 3.9086223401	-1.468766445	-1.8731415424	 0.275533
81.1296	232.3864	244.4788	255.942	288.4044	412.1493	452.2383	510.118	555.3023	687.3948	719.469	730.0901	773.1927	808.0909	900.8411	928.0061	951.0649	1007.1629	1030.7735	1054.0964	1109.9885	1121.3024	1152.69	1188.5167	1223.9557	1229.8008	1264.8022	1282.4852	1342.301	1363.4693	1368.7082	1396.5943	1415.8158	1487.5537	1495.1633	1498.5968	1502.156	1522.4796	1613.1296	3013.5859	3019.4097	3027.9989	3034.5264	3069.3311	3080.939	3096.521	3100.5197	3664.1535
CC1CC2=C(C1)N=NN2	C[C@H]1Cc2c(C1)nn[nH]2	
InChI=1S/C6H9N3/c1-4-2-5-6(3-4)8-9-7-5/h4H,2-3H2,1H3,(H,7,8,9)	InChI=1S/C6H9N3/c1-4-2-5-6(3-4)8-9-7-5/h4H,2-3H2,1H3,(H,7,8,9)
