21
gdb 101125	3.45457	1.0092	0.93151	1.4814	78.69	-0.2493	0.0644	0.3138	1370.5764	0.180677	-424.19123	-424.181634	-424.180689	-424.225955	35.683	
C	-0.1626871023	 1.5797085358	-0.1178752364	-0.385685
C	-0.0849022486	 0.0515760156	-0.1293804925	-0.198043
C	 0.9042417996	-0.4919608554	-1.1689263621	-0.018746
O	 2.2303242717	-0.011951683	-0.9565356325	-0.425443
C	 0.8862712341	-1.9962433657	-1.2209023922	 0.449927
C	 1.4850722681	-3.0091262742	-0.2215329036	-0.306456
C	 1.635351034	-4.0186312796	-1.4145019611	-0.235316
C	 1.0279983936	-2.951243232	-2.333164876	-0.05216
O	-0.2659038742	-2.6251047516	-1.7993224544	-0.299584
H	 0.823717277	 2.0191113027	 0.053520049	 0.123787
H	-0.5311444413	 1.9596325397	-1.0770288935	 0.118458
H	-0.8392583554	 1.9350942501	 0.6648298587	 0.11113
H	 0.211126746	-0.3192508342	 0.8634750166	 0.086197
H	-1.0692420966	-0.3832673403	-0.3366658252	 0.121804
H	 0.6196501996	-0.122204794	-2.1613865952	 0.095537
H	 2.4638935712	-0.1965605296	-0.0399861178	 0.280207
H	 2.4540983526	-2.7009858454	 0.1788480023	 0.101804
H	 0.8238507193	-3.3036982332	 0.5965790784	 0.108049
H	 2.679565562	-4.2423554891	-1.6439045806	 0.109016
H	 1.066488686	-4.9487003219	-1.3468384827	 0.112243
H	 1.1770944839	-2.7877595949	-3.394611279	 0.103275
57.2248	96.408	117.5654	193.2925	217.1757	255.5795	282.0534	298.1333	340.4083	482.686	487.3105	511.0043	710.8241	743.3224	774.4159	789.0189	877.9142	890.215	924.5701	931.907	959.8588	986.4164	1008.0751	1053.0981	1064.4262	1095.7136	1120.1399	1148.7431	1189.5219	1213.5498	1217.9832	1251.0673	1263.0979	1280.1118	1313.9023	1332.4181	1378.5972	1399.9479	1411.211	1457.3407	1462.4438	1483.214	1492.4475	1495.8575	1507.6083	3000.2487	3038.3821	3045.6977	3061.3793	3068.3445	3071.2751	3104.3745	3114.3398	3119.5855	3131.6088	3183.2489	3801.5382
CCC(O)C12CCC1O2	CC[C@@H](O)[C@]12CC[C@H]1O2	
InChI=1S/C7H12O2/c1-2-5(8)7-4-3-6(7)9-7/h5-6,8H,2-4H2,1H3	InChI=1S/C7H12O2/c1-2-5(8)7-4-3-6(7)9-7/h5-6,8H,2-4H2,1H3/t5-,6-,7-/m1/s1
