15
gdb 45009	2.47869	1.78516	1.16715	1.9434	68.31	-0.2635	-0.0318	0.2317	1011.906	0.114745	-453.977106	-453.96994	-453.968996	-454.008969	27.49	
N	-0.0587027157	 1.3252341691	 0.3803444116	-0.503914
C	-0.0197739448	 0.1102358838	 0.0103189031	 0.388699
C	-1.3147504688	-0.6488360713	-0.1950612386	-0.305985
C	-1.2208398852	-1.7438121691	-1.2266641607	 0.046189
O	-0.5187339517	-1.4242320031	-2.4215263229	-0.238699
C	 0.0865023168	-2.3581559312	-1.5116299799	-0.090543
C	 1.3063272414	-1.8574935151	-0.7937779164	 0.442227
O	 2.357584007	-2.4582448331	-0.7837414023	-0.35002
N	 1.1520576924	-0.6389834873	-0.1521921017	-0.392183
H	 0.8766992262	 1.7140412554	 0.5172986523	 0.212574
H	-1.606516569	-1.0975545059	 0.764031076	 0.14096
H	-2.0875524811	 0.0770931075	-0.4563076586	 0.155233
H	-2.1133550676	-2.3518608445	-1.3693356318	 0.112679
H	 0.1746071115	-3.3792182779	-1.871066681	 0.126181
H	 2.0173430685	-0.2413265772	 0.190765991	 0.256601
96.5129	132.0975	255.6021	337.1014	375.248	470.1825	513.9641	532.865	559.4335	624.8423	672.5231	771.5641	804.2247	871.9549	890.0815	906.2891	936.7359	968.397	1026.7879	1077.2062	1129.4716	1141.6104	1222.8225	1265.9815	1305.2956	1343.8297	1368.5519	1392.1558	1424.3924	1453.2187	1470.3741	1737.3387	1810.3527	3033.7398	3115.3646	3124.556	3169.3189	3450.385	3584.9933
N=C1CC2OC2C(=O)N1	[NH][C]1C[C@H]2O[C@H]2C(=O)N1	
InChI=1S/C5H6N2O2/c6-3-1-2-4(9-2)5(8)7-3/h2,4H,1H2,(H2,6,7,8)	InChI=1S/C5H6N2O2/c6-3-1-2-4(9-2)5(8)7-3/h2,4H,1H2,(H2,6,7,8)/t2-,4-/m1/s1
