17
gdb 7090	4.89763	0.87582	0.75343	1.9166	77.87	-0.2517	-0.0148	0.2369	1522.8353	0.139897	-363.851718	-363.842014	-363.841069	-363.888494	32.404	
C	-0.0558058188	 1.5111944491	-0.1887555868	-0.39127
C	 0.0229498838	 0.006916995	-0.0094077625	-0.035084
O	 0.6503413418	-0.5321237957	-1.1848008408	-0.232009
C	 0.8117412821	-1.8680734814	-1.2147779096	 0.229631
N	 0.4298687686	-2.615723597	-0.2546031216	-0.548298
C	 1.4456966389	-2.302838771	-2.4274784505	-0.004732
C	 1.9749258703	-2.7149420045	-3.4286498182	 0.166699
C	 2.6134793685	-3.2076492957	-4.6377600938	-0.505608
H	 0.9420998205	 1.943472723	-0.3047766297	 0.128161
H	-0.6463517834	 1.7687746301	-1.0725253238	 0.128161
H	-0.529076042	 1.9647486687	 0.687223521	 0.119562
H	 0.6113394388	-0.273742801	 0.8705653521	 0.120606
H	-0.9666288088	-0.4472880373	 0.1078796671	 0.120606
H	 0.6386508971	-3.5888586593	-0.4651641412	 0.228781
H	 1.9580766547	-3.9037254633	-5.1725312027	 0.157899
H	 2.8589763164	-2.3860606969	-5.3187570481	 0.159031
H	 3.5420684014	-3.7393405826	-4.4030869609	 0.157866
13.3013	79.2458	80.5177	96.0375	189.7553	221.108	258.9397	324.9751	386.0754	389.1956	453.2245	576.7001	729.4326	807.164	819.2172	851.8808	884.7878	1027.0908	1049.024	1052.9387	1106.5666	1135.2208	1144.3094	1182.0041	1287.7304	1360.9454	1406.7251	1411.9611	1434.6121	1472.9375	1474.6688	1485.2462	1496.392	1519.8773	1675.6243	2362.316	3030.4271	3045.1084	3045.3555	3081.5199	3092.6442	3096.7117	3119.3912	3123.971	3524.6
CCOC(=N)C#CC	CCO[C]([NH])C#CC	
InChI=1S/C6H9NO/c1-3-5-6(7)8-4-2/h7H,4H2,1-2H3	InChI=1S/C6H9NO/c1-3-5-6(7)8-4-2/h7H,4H2,1-2H3
