19
gdb 101356	3.3368	0.76794	0.73488	2.3778	68.37	-0.2639	0.0449	0.3089	1588.1498	0.15703	-497.255206	-497.245126	-497.244181	-497.29136	35.969	
O	 0.0879941506	 1.3110265066	 0.3924331558	-0.422699
C	-0.0909804196	-0.0867927632	 0.4068982738	-0.064387
C	-1.4149304689	-0.4723688082	-0.2579089807	 0.057679
O	-1.4750682905	 0.0959317646	-1.5703142134	-0.43941
C	-1.6111955262	-1.9719198253	-0.3074321425	 0.026094
O	-1.9784815997	-2.6256104411	 0.909463176	-0.267921
C	-2.9032461396	-2.6650467752	-0.1956203566	 0.032978
C	-4.2373769637	-2.001531576	 0.037051425	-0.088457
O	-5.0558440525	-2.7999501643	 0.8751586287	-0.416854
H	-0.1966279313	 1.6013132217	-0.4838414334	 0.286012
H	 0.7357729657	-0.609243568	-0.1113216302	 0.071095
H	-0.084475983	-0.4176594415	 1.4502316261	 0.127215
H	-2.2277159189	 0.0037328199	 0.2951799892	 0.107853
H	-0.8259606253	-0.357765639	-2.1221096704	 0.285798
H	-0.8250771562	-2.4939808184	-0.8637907196	 0.086955
H	-2.9790720888	-3.651983586	-0.655236797	 0.103312
H	-4.102907841	-0.9932585643	 0.4496970641	 0.099734
H	-4.7713740088	-1.9063380422	-0.9143902062	 0.121382
H	-4.5834239922	-2.90930578	 1.7081263211	 0.293619
37.4707	73.2598	103.5978	134.057	182.1359	249.7238	280.329	338.1002	380.1571	406.0335	418.7384	491.5795	508.6315	546.9173	591.2283	803.5434	854.7174	890.9537	951.9132	1030.6192	1052.3388	1070.6191	1074.9985	1094.7257	1111.7289	1154.9038	1162.4869	1203.8698	1230.4765	1260.7265	1289.5135	1310.2354	1358.8926	1383.151	1400.0911	1412.8823	1432.6081	1438.8471	1490.1618	1499.8806	1505.811	2924.4438	3020.7074	3047.6659	3078.9572	3081.7805	3100.9007	3106.6645	3768.608	3781.552	3804.1447
OCC(O)C1OC1CO	OC[C@@H](O)[C@H]1O[C@H]1CO	
InChI=1S/C5H10O4/c6-1-3(8)5-4(2-7)9-5/h3-8H,1-2H2	InChI=1S/C5H10O4/c6-1-3(8)5-4(2-7)9-5/h3-8H,1-2H2/t3-,4+,5-/m1/s1
