17
gdb 129927	2.98866	1.34138	0.99233	3.5698	76.09	-0.1969	0.0185	0.2153	1175.5891	0.139105	-414.172045	-414.163739	-414.162795	-414.205605	30.826	
N	-0.0631919846	 1.4820968552	-0.0178008489	-0.614156
C	 0.0010620336	 0.0783944853	-0.0695008778	 0.091352
C	-1.0423229229	-0.8230678222	-0.1647094877	-0.094865
N	-0.482070373	-2.0620201004	-0.0894372758	-0.189842
N	 0.8495392686	-2.0287008868	 0.0373173965	-0.320758
C	 1.1619091184	-0.7304038972	 0.0603768851	 0.345825
C	 2.5686514255	-0.2963648831	 0.2019713405	-0.108727
C	 3.452109687	-0.9350859825	 1.2201590858	-0.227187
N	 3.653127356	-1.2055376757	-0.2089240525	-0.322123
H	 0.7494914749	 1.9196536884	-0.4339316867	 0.246653
H	-0.8914064578	 1.8487709349	-0.4692633132	 0.242244
H	-2.1057900941	-0.6808494017	-0.2715066233	 0.124735
H	-0.9479587047	-2.9505917747	-0.1434499954	 0.273442
H	 2.7546443734	 0.7463896842	-0.0465517225	 0.074658
H	 4.2400340678	-0.3570414635	 1.6961353247	 0.112671
H	 3.0010716529	-1.707385661	 1.8365088913	 0.12154
H	 3.226178459	-2.1020511494	-0.43749529	 0.244538
44.0237	129.3781	169.443	180.4225	291.4889	301.6317	407.2841	467.3929	503.0965	622.8988	649.8998	721.441	728.4612	748.2046	793.9227	834.2576	889.5722	950.4118	978.0074	1013.7466	1072.5237	1098.6086	1111.113	1134.5573	1182.4929	1189.4474	1257.3397	1276.6617	1315.2521	1339.6618	1391.9348	1425.9397	1491.7519	1505.2408	1543.9117	1624.847	1660.5625	3106.3941	3122.4088	3199.7068	3261.7905	3486.5556	3531.6698	3618.5821	3686.0978
NC1=CNN=C1C1CN1	Nc1c[nH]nc1[C@H]1CN1	
InChI=1S/C5H8N4/c6-3-1-8-9-5(3)4-2-7-4/h1,4,7H,2,6H2,(H,8,9)	InChI=1S/C5H8N4/c6-3-1-8-9-5(3)4-2-7-4/h1,4,7H,2,6H2,(H,8,9)/t4-/m1/s1
