15
gdb 29809	3.14695	1.29891	0.9248	2.8511	80.64	-0.199	-0.0168	0.1822	1194.5849	0.112341	-416.816669	-416.808153	-416.807209	-416.849809	31.455	
C	-0.0532724435	 1.4553813173	 0.0424430741	-0.348383
N	 0.0094953085	 0.0083546966	-0.0127467623	-0.045002
C	 0.0508718094	-0.7542516708	-1.1599167804	-0.219047
C	 0.1048503883	-2.0575386305	-0.7170718265	 0.331485
O	 0.1584523887	-3.1656658968	-1.4841355246	-0.441471
N	 0.0984840165	-2.1239901239	 0.6341049319	-0.403666
C	 0.0404078607	-0.8571023221	 1.0474496381	 0.199344
C	 0.0122578929	-0.4250001463	 2.3909480477	 0.260751
C	-0.0123458675	-0.0449659838	 3.5340898159	-0.41948
H	 0.8250398987	 1.8971707317	-0.4379370738	 0.145565
H	-0.9539854533	 1.8203506562	-0.4603292972	 0.145556
H	-0.0796434299	 1.7625836897	 1.08808221	 0.16202
H	 0.0385518302	-0.3199873879	-2.144076744	 0.133219
H	 0.1869249127	-3.9136048182	-0.8745655007	 0.302468
H	-0.0335186025	 0.2746436888	 4.5465259718	 0.19664
90.2467	145.8112	148.9303	172.759	297.6927	344.2515	395.0353	414.6662	462.1086	543.5733	567.9846	587.0558	641.0278	658.7491	690.6207	713.2593	735.0957	827.0365	1042.7731	1077.1977	1152.8099	1164.5154	1197.6015	1250.1999	1365.8294	1420.2691	1445.0563	1482.9849	1487.362	1504.2675	1526.1954	1641.8498	2227.1107	3042.7429	3103.3344	3155.6197	3287.7253	3501.1945	3799.5085
CN1C=C(O)N=C1C#C	Cn1cc(O)nc1C#C	
InChI=1S/C6H6N2O/c1-3-5-7-6(9)4-8(5)2/h1,4,9H,2H3	InChI=1S/C6H6N2O/c1-3-5-7-6(9)4-8(5)2/h1,4,9H,2H3
