23
gdb 106673	2.67469	1.20764	1.00768	1.7532	86.28	-0.2354	0.0846	0.3201	1336.2394	0.203324	-388.279483	-388.269343	-388.268398	-388.314281	38.128	
C	-0.4086371266	 1.4892896062	-0.2166018094	-0.37651
C	 0.0784143578	 0.0698350091	 0.1093107893	-0.298177
C	 0.9271275212	-0.5090877022	-0.9807216369	 0.364147
C	 2.3647730535	-0.1356824862	-1.381261581	-0.31331
C	 2.5384815544	-1.5856259336	-1.9621650889	-0.031481
C	 3.6119903335	-2.4187453374	-1.2723778166	-0.410912
C	 1.0815363357	-1.8745367603	-1.5294625557	 0.341875
C	 0.451667759	-3.1885697634	-1.1963940888	-0.508443
O	 0.2710785666	-0.8960270772	-2.2061677741	-0.338439
H	 0.4329267561	 2.1760041294	-0.3551784634	 0.118285
H	-0.9977234357	 1.4898378009	-1.1382281646	 0.135048
H	-1.0332087922	 1.8838523521	 0.5902172395	 0.111389
H	 0.656734474	 0.0779785103	 1.0419894065	 0.098328
H	-0.7825108528	-0.5882590141	 0.2721613102	 0.105399
H	 2.4511863162	 0.6944661762	-2.0866627405	 0.102646
H	 3.0210637453	 0.0432816342	-0.5238953087	 0.096135
H	 2.662588882	-1.6197633579	-3.0492675014	 0.074972
H	 3.4787830411	-2.41875975	-0.1839807543	 0.111263
H	 3.5924549607	-3.4603918569	-1.6110348978	 0.115835
H	 4.6095835445	-2.0193537762	-1.4831496559	 0.118582
H	 1.0709666449	-3.7560695979	-0.4946449416	 0.123528
H	-0.5354413966	-3.0403204103	-0.7504830044	 0.130843
H	 0.3246099973	-3.7962828149	-2.1000373516	 0.128998
66.307	107.9456	149.3697	186.7594	210.6203	222.5155	241.4081	262.075	340.2506	384.4787	450.6502	493.0401	508.5165	595.0742	702.3077	723.6431	775.7376	813.1091	854.643	901.6858	924.5507	967.3838	993.5396	1027.8691	1053.0773	1069.1508	1104.4496	1114.3735	1153.3998	1190.5518	1211.8126	1228.5001	1239.9369	1291.7997	1317.3138	1346.1021	1356.9005	1405.7975	1407.7638	1410.0553	1459.3207	1471.5664	1477.3195	1488.8837	1497.3362	1497.8825	1499.3754	1503.8563	1520.527	3023.3497	3025.8595	3032.9576	3038.7011	3050.7527	3054.4717	3066.9566	3089.8082	3094.4646	3096.5713	3106.9922	3110.4202	3117.7033	3119.3938
CCC12CC(C)C1(C)O2	CC[C@@]12C[C@@H](C)[C@]1(C)O2	
InChI=1S/C8H14O/c1-4-8-5-6(2)7(8,3)9-8/h6H,4-5H2,1-3H3	InChI=1S/C8H14O/c1-4-8-5-6(2)7(8,3)9-8/h6H,4-5H2,1-3H3/t6-,7+,8-/m1/s1
