15
gdb 133834	3.2946	2.03985	1.84853	2.3551	67.14	-0.2125	-0.0262	0.1863	781.6557	0.11256	-420.482004	-420.475686	-420.474742	-420.512158	26.498	
O	 1.4411070135	 0.347273903	 1.0554098521	-0.470427
C	 2.5117731285	-0.0574825451	 0.2967607426	 0.421517
C	 3.9138866748	 0.4549738423	 0.4536859268	-0.177492
C	 3.0392751967	 0.6360670513	-0.9176455006	-0.129618
C	 4.8244424242	-0.3274538008	-1.2578313992	-0.139423
C	 3.4147618617	-0.6929320459	-1.5832027199	-0.070794
C	 2.8498303301	-1.4579760601	-0.3021146828	-0.083013
O	 3.9984309089	-1.9052048466	 0.3888753586	-0.250702
C	 4.8239039809	-0.744908207	 0.1942168158	 0.068994
H	 1.6016496602	 0.0868784258	 1.9699981088	 0.296609
H	 4.165385053	 1.3556970822	 0.9925514085	 0.12257
H	 2.867939636	 1.6131220003	-1.3403862142	 0.12839
H	 3.1052496003	-0.9064061798	-2.5990993583	 0.0955
H	 2.0820391864	-2.2225620536	-0.3799878494	 0.092637
H	 5.7584285447	-0.8269021763	 0.7372794814	 0.095252
208.9584	275.1588	311.6572	376.2551	435.6426	547.6225	611.5329	637.8275	691.2669	748.3978	795.2318	802.3849	855.6548	891.9693	909.7969	923.7353	945.0382	959.6496	993.6517	1016.8497	1038.4263	1077.3261	1097.1724	1127.1307	1130.3861	1151.6543	1192.2728	1213.4133	1241.2839	1254.1143	1309.1753	1328.1689	1467.8202	3170.6837	3190.46	3192.8468	3242.0856	3254.4003	3791.0219
OC12C3C1C1=CC2OC31	O[C@]12[C@@H]3[C@H]1[C@H]1[C][C@@H]3O[C@@H]21	
InChI=1S/C7H6O2/c8-7-3-1-2-4(7)5(7)6(2)9-3/h1,3-6,8H	InChI=1S/C7H6O2/c8-7-4-2-1-3(5(4)7)9-6(2)7/h2-6,8H/t2-,3+,4-,5+,6-,7+/m1/s1
