19
gdb 48633	3.40141	1.38887	1.18407	2.8218	75.16	-0.2069	-0.0328	0.1741	1074.242	0.161578	-419.167359	-419.15964	-419.158696	-419.199731	30.21	
O	-0.6547838814	 0.7275946535	-0.6616618255	-0.257627
C	 0.1032610833	 0.9857780686	 0.2400589518	 0.084596
C	 1.3337145638	 1.8428620344	 0.0844949957	 0.204851
C	 2.6473458707	 1.1501994405	-0.4037192216	-0.211438
N	 3.0165833782	 2.4327885813	-1.0979389673	-0.118071
C	 1.5331017688	 2.7123748232	-1.1784644246	-0.211617
C	 3.5920361285	 3.3527148043	-0.0926573902	-0.166965
C	 2.998040929	 3.1332008658	 1.3304155039	-0.183056
N	 1.6254123215	 2.5800741637	 1.3155731142	-0.339983
H	-0.0404898255	 0.5792555502	 1.2663023418	 0.082175
H	 3.3488026946	 0.7787035016	 0.345659153	 0.116799
H	 2.4458430395	 0.3713544164	-1.1423996735	 0.125779
H	 1.1115242696	 2.270073166	-2.084239787	 0.124685
H	 1.2540044649	 3.7679908433	-1.1084284512	 0.094055
H	 4.6778522441	 3.2069387179	-0.0594622482	 0.105215
H	 3.4144802976	 4.373034872	-0.4492681897	 0.106618
H	 3.6399674602	 2.4383918076	 1.8832000455	 0.116347
H	 2.9975487468	 4.0642314241	 1.9034420389	 0.107238
H	 0.9539000957	 3.3366522055	 1.4030181939	 0.220397
63.5785	177.9355	210.6128	245.204	355.359	390.4985	444.7619	466.45	542.4793	623.0572	720.4471	781.7001	796.3536	811.8558	873.3373	891.1202	916.803	944.0202	963.6698	983.2159	1031.5973	1065.2331	1071.2342	1115.647	1171.3271	1212.0051	1225.4166	1253.1506	1267.1711	1280.3482	1285.9347	1313.0376	1361.4299	1379.4336	1400.6751	1471.1294	1482.8423	1495.8394	1503.1838	1524.4128	1820.9487	2885.3054	3030.0028	3035.6344	3049.5782	3070.9858	3072.8123	3093.2655	3115.6822	3131.1302	3505.7271
O=CC12CN(C1)CCN2	O=C[C@@]12CN(C1)CCN2	
InChI=1S/C6H10N2O/c9-5-6-3-8(4-6)2-1-7-6/h5,7H,1-4H2	InChI=1S/C6H10N2O/c9-5-6-3-8(4-6)2-1-7-6/h5,7H,1-4H2
