21
gdb 71302	2.50664	1.84656	1.38765	1.2404	80.9	-0.2362	0.0788	0.315	1013.1777	0.185243	-387.077123	-387.069643	-387.068699	-387.108377	31.709	
O	-0.0676887145	 1.3384789086	 0.0589793783	-0.495151
C	 0.0239314865	-0.0699710981	-0.0068610972	 0.423338
C	 0.2112939075	-0.6435102461	-1.4598973119	-0.303497
C	-1.1179523718	-1.3895926633	-1.3114131663	-0.075054
C	-1.2583952331	-2.1716875494	-0.0201024631	-0.019746
C	-0.1875456293	-2.9036236317	 0.7755301053	-0.219388
C	 1.1530945583	-2.1547893945	 0.8959896769	-0.218019
C	 0.9704743169	-0.636942141	 1.0538473446	-0.258678
C	-1.3906144348	-0.679263479	 0.016999021	-0.106798
H	 0.824939573	 1.6963513966	-0.0031003609	 0.270065
H	 0.1088865522	 0.1847007731	-2.1654188014	 0.103432
H	 1.1119998788	-1.214530673	-1.7057411006	 0.0829
H	-1.8112873865	-1.5657077702	-2.1260289816	 0.080733
H	-2.2225331752	-2.675974001	 0.0174568876	 0.083144
H	-0.5965880535	-3.0652467919	 1.782417596	 0.09792
H	-0.0150877265	-3.9019911533	 0.3553503983	 0.094839
H	 1.7196218688	-2.5542951484	 1.7437500193	 0.091446
H	 1.7629650813	-2.3498696286	 0.0083051617	 0.104166
H	 1.9486903012	-0.1409324992	 0.9774632236	 0.077684
H	 0.5658912444	-0.3901295121	 2.0437325788	 0.101513
H	-2.2657847736	-0.1419266575	 0.3604361017	 0.085152
157.0406	259.0795	277.2589	316.7708	358.6422	384.0752	404.1181	496.9289	514.0112	604.67	656.1284	722.3929	768.0811	824.932	855.0117	871.9635	905.9224	914.8205	930.4815	980.0729	990.0384	1008.9023	1034.908	1058.8157	1070.2973	1109.9537	1126.544	1147.1713	1171.363	1192.4718	1224.4267	1237.0526	1250.429	1271.6802	1291.3993	1337.8857	1362.9705	1375.2817	1378.8435	1397.5234	1441.9985	1479.1455	1482.3255	1489.6381	1512.5911	3001.9451	3009.0114	3038.0343	3046.4429	3048.895	3052.5628	3083.5221	3106.1245	3121.91	3168.9745	3191.8412	3796.7858
OC12CC3C(CCC1)C23	O[C@@]12C[C@H]3[C@@H](CCC1)[C@@H]23	
InChI=1S/C8H12O/c9-8-3-1-2-5-6(4-8)7(5)8/h5-7,9H,1-4H2	InChI=1S/C8H12O/c9-8-3-1-2-5-6(4-8)7(5)8/h5-7,9H,1-4H2/t5-,6+,7-,8-/m1/s1
