18
gdb 97126	2.35806	1.20721	0.83838	2.083	80.47	-0.2473	0.0261	0.2734	1370.5845	0.145576	-401.906019	-401.896394	-401.89545	-401.941498	33.789	
C	 0.102045202	 1.3974300456	-0.0415325286	-0.340668
N	 0.3099058516	-0.0433219982	-0.0764331317	-0.313216
C	 0.5839041932	-0.6501167475	 0.9788859408	 0.465192
O	 0.7416625517	-0.1788212639	 2.2794480598	-0.267296
C	 0.9833989505	-1.5253526421	 2.7788354867	-0.105268
C	 0.844693236	-2.0993857523	 1.3510052587	-0.153514
C	-0.2919382939	-3.1063932831	 1.112879677	-0.372948
C	-0.4097196187	-3.5257297598	-0.2775088463	 0.316594
C	-0.487944384	-3.8862616652	-1.4205335325	-0.437012
H	 0.8458807049	 1.8813727262	-0.6841933297	 0.128721
H	-0.8816034124	 1.6251739381	-0.4661895047	 0.128394
H	 0.1649419161	 1.8370654939	 0.9607426048	 0.125617
H	 1.9693318518	-1.6037928115	 3.2434402204	 0.120522
H	 0.2067020858	-1.8261261715	 3.4888854878	 0.116979
H	 1.7794022287	-2.4833303456	 0.9361467161	 0.118192
H	-0.1130813916	-3.9872601803	 1.7438073044	 0.133953
H	-1.2395868111	-2.6698464028	 1.4529123962	 0.137145
H	-0.5658083105	-4.1880941698	-2.4354308792	 0.198613
56.0438	82.1095	88.2135	144.6969	158.8722	210.011	281.5592	342.1447	365.027	475.5132	522.4325	623.1575	645.9873	683.24	733.1878	813.0242	884.8132	961.6306	976.3659	986.8673	1050.3224	1078.6353	1097.6703	1127.3912	1133.6981	1163.0478	1181.7468	1198.4643	1259.5315	1313.3433	1352.7803	1375.9372	1439.5113	1469.515	1494.4032	1497.2188	1518.315	1851.7068	2244.9349	3016.047	3017.5702	3049.7095	3051.7615	3083.7022	3088.2652	3090.8076	3111.9375	3507.4043
CN=C1OCC1CC#C	CN=C1OC[C@H]1CC#C	
InChI=1S/C7H9NO/c1-3-4-6-5-9-7(6)8-2/h1,6H,4-5H2,2H3	InChI=1S/C7H9NO/c1-3-4-6-5-9-7(6)8-2/h1,6H,4-5H2,2H3/t6-/m1/s1
