20
gdb 107844	3.49691	1.35323	1.29554	1.61	77.54	-0.2308	0.0693	0.3	1077.4882	0.172817	-403.099205	-403.091735	-403.090791	-403.131118	30.371	
C	 0.038957245	 1.5297955491	-0.196171784	-0.388645
C	-0.0410369833	 0.0237210686	 0.0851023169	-0.294976
C	-1.4484944226	-0.520659673	 0.0807918446	 0.307054
C	-2.498687589	-0.0487761317	 1.1233023811	-0.256428
C	-3.40931438	-1.2634226467	 0.8894031288	 0.044716
O	-2.5517217277	-2.3527833648	 1.3442633355	-0.295326
C	-1.8018235032	-2.0914336324	 0.1593101751	 0.0611
C	-3.0105423596	-1.5874075101	-0.6333612629	-0.052288
N	-2.21438912	-0.5043488661	-1.209617848	-0.347518
H	 1.0776550175	 1.8733839161	-0.1933137114	 0.115991
H	-0.3853640287	 1.7673398443	-1.1772663778	 0.122655
H	-0.5052777165	 2.108878653	 0.557122144	 0.117171
H	 0.5437834405	-0.51763048	-0.6677711398	 0.104603
H	 0.4129425137	-0.1985157623	 1.0593135626	 0.102078
H	-2.1450151018	-0.0269800803	 2.1567261026	 0.109635
H	-2.9364076733	 0.9183073769	 0.8581331072	 0.091105
H	-4.4192756672	-1.2986937999	 1.2940594496	 0.078832
H	-1.0704305765	-2.8426975929	-0.1312460575	 0.088949
H	-3.675338056	-2.1829659445	-1.2569554479	 0.083651
H	-2.7220582314	 0.3632968067	-1.3816729687	 0.207642
82.6873	168.7068	217.9506	302.7258	337.2478	452.0709	508.3473	554.3277	627.9436	696.5781	748.7558	773.0381	786.5042	835.7313	857.7217	885.3739	932.0021	938.7694	956.9071	973.4391	988.3301	1028.4212	1043.9559	1051.1587	1078.7182	1110.208	1132.4055	1168.6744	1181.128	1211.6077	1235.1172	1266.1734	1270.9004	1308.6818	1318.0767	1332.9429	1352.8283	1385.2209	1409.1674	1477.1094	1479.1088	1502.1884	1508.6251	3025.6025	3035.4167	3058.3101	3062.5459	3105.6169	3106.8552	3117.7179	3129.3889	3139.6026	3149.8114	3449.4173
CCC12CC3OC1C3N2	CC[C@]12C[C@@H]3O[C@H]1[C@@H]3N2	
InChI=1S/C7H11NO/c1-2-7-3-4-5(8-7)6(7)9-4/h4-6,8H,2-3H2,1H3	InChI=1S/C7H11NO/c1-2-7-3-4-5(8-7)6(7)9-4/h4-6,8H,2-3H2,1H3/t4-,5+,6-,7-/m0/s1
