16
gdb 61702	2.0047	1.27104	1.00188	2.1725	70.33	-0.2689	-0.0638	0.205	1224.7386	0.119929	-437.912046	-437.901994	-437.90105	-437.948544	33.743	
C	 0.0230264225	 1.6860710329	-0.3005308976	-0.423525
C	 0.0114137497	 0.146886911	-0.1095206708	-0.041216
C	 0.6287821549	-0.2753185128	 1.2454368871	-0.29294
C	 2.1025155984	 0.0657397651	 1.3523913487	 0.142247
O	 2.5571242254	 0.8300748851	 2.1631779325	-0.235742
C	-1.4655955479	-0.3103274133	-0.1854507707	 0.159038
O	-2.0557499106	-0.8122658409	 0.7272938368	-0.225119
C	 0.7031428852	-0.4931298725	-1.2374001901	 0.264863
N	 1.2206122496	-1.0065314447	-2.1348814557	-0.322726
H	 1.0481039602	 2.0628396133	-0.312935492	 0.162231
H	-0.4567639628	 1.9677878575	-1.2414056838	 0.146204
H	-0.5110078894	 2.1605367652	 0.5270359359	 0.150598
H	 0.0864118297	 0.2191470607	 2.0532712886	 0.144101
H	 0.5084576482	-1.3585173221	 1.3641736846	 0.147335
H	 2.7570637555	-0.4506636706	 0.6162213012	 0.107043
H	-1.9450971686	-0.104791134	-1.1656498346	 0.117608
35.2369	58.6474	80.2868	154.4997	170.6181	202.1836	219.8887	283.1185	349.9276	358.8155	482.3108	521.4897	574.5078	603.9859	716.7227	850.4038	906.0727	930.0895	962.2897	1023.8927	1060.4787	1127.4195	1166.254	1198.2499	1265.0909	1309.9596	1402.4183	1417.725	1427.7867	1456.7365	1488.7634	1493.3786	1833.1369	1846.1787	2348.249	2896.7864	2917.95	3050.6637	3052.1297	3129.971	3131.901	3136.7445
CC(CC=O)(C=O)C#N	C[C@@](CC=O)(C=O)C#N	
InChI=1S/C6H7NO2/c1-6(4-7,5-9)2-3-8/h3,5H,2H2,1H3	InChI=1S/C6H7NO2/c1-6(4-7,5-9)2-3-8/h3,5H,2H2,1H3/t6-/m0/s1
