14
gdb 127765	3.58521	1.72612	1.1738	2.6877	69.97	-0.2312	-0.0194	0.2118	968.7444	0.104657	-429.051009	-429.044091	-429.043147	-429.082617	25.62	
C	-0.0096260745	 1.427790736	-0.0202295643	-0.340891
N	-0.0082916714	-0.0153745151	 0.0675073382	-0.099909
N	-0.0562261862	-0.7730786904	-1.0724524108	-0.159812
N	-0.0456217232	-2.0511380038	-0.7604416665	-0.307815
C	 0.0092670023	-2.1023939381	 0.5856108665	 0.361851
C	 0.0341114866	-0.8413684524	 1.1395019352	 0.383545
N	 0.0901170118	-0.85164327	 2.5060278662	-0.362972
C	 0.0988377624	-2.1465908339	 2.7734919734	 0.016555
N	 0.0518191537	-2.9630653373	 1.662160706	-0.382865
H	 0.900021192	 1.8399693508	 0.4253559719	 0.151236
H	-0.051949844	 1.6879008494	-1.0778285644	 0.166783
H	-0.8790921444	 1.8427373606	 0.4972185277	 0.151226
H	 0.1388854717	-2.5644994132	 3.7689581698	 0.142179
H	 0.0499734632	-3.9685608126	 1.6597350411	 0.280888
86.8149	162.5618	258.36	261.0499	376.7124	453.9629	545.2358	634.3009	643.6978	660.3363	720.559	783.5949	832.8543	849.354	958.5898	991.9448	1086.2588	1154.2114	1156.6201	1219.635	1259.5107	1277.135	1330.9683	1384.8134	1441.9403	1481.4541	1484.9969	1503.0225	1508.874	1555.9375	1616.1582	3049.9649	3114.4171	3163.2794	3250.9956	3679.0999
CN1N=NC2=C1N=CN2	Cn1nnc2c1nc[nH]2	
InChI=1S/C4H5N5/c1-9-4-3(7-8-9)5-2-6-4/h2H,1H3,(H,5,6)	InChI=1S/C4H5N5/c1-9-4-3(7-8-9)5-2-6-4/h2H,1H3,(H,5,6)
