18
gdb 58748	2.58941	1.46769	1.13959	2.2633	72.25	-0.2477	-0.0042	0.2436	1108.1063	0.146441	-439.024221	-439.015488	-439.014544	-439.057911	32.702	
C	-0.2186014288	 1.4725480519	 0.0329580619	-0.42714
C	-0.0326043763	-0.04317654	-0.020695498	-0.022545
O	 0.6951595036	-0.4602710275	-1.1753813185	-0.429056
C	 0.6285232766	-0.5630646328	 1.2307634279	 0.196505
C	 0.8724310017	-2.0352955906	 1.7020741076	-0.292731
C	 1.64885619	-1.1467694321	 2.7232294403	-0.161808
N	 2.0961830212	-0.2422339436	 1.5711072058	-0.369216
C	 0.3868923199	-0.2660220768	 2.7308657157	 0.489232
O	-0.3709298445	 0.290026784	 3.4566596411	-0.325642
H	 0.7484759592	 1.9705479436	 0.1663285001	 0.129473
H	-0.6775808046	 1.8279756051	-0.8930950427	 0.123597
H	-0.8549425926	 1.7532843708	 0.8774622144	 0.145863
H	-1.0110905826	-0.530413336	-0.1109846292	 0.103183
H	 1.4596948114	 0.1211532448	-1.2557121593	 0.284315
H	 0.0232781896	-2.6334263033	 2.0477172667	 0.114578
H	 1.5235751469	-2.5981324749	 1.0280178641	 0.119996
H	 2.3245780801	-1.4430007279	 3.5223836763	 0.105601
H	 2.6693276592	-0.8249784045	 0.9505979058	 0.215796
49.7607	126.6753	183.8069	196.3364	259.5843	295.9519	314.038	349.1199	483.887	544.6421	567.7857	644.6548	747.5572	775.4201	794.6184	807.8248	893.5708	910.3336	924.5246	985.2555	1037.8447	1047.4711	1055.2534	1074.8295	1119.6162	1126.7282	1170.1929	1198.1591	1263.2191	1278.9626	1305.5218	1315.3379	1385.4201	1404.0644	1414.0171	1490.0141	1496.7947	1501.4167	1935.9464	3035.6483	3042.6101	3043.9017	3109.1631	3120.7512	3127.161	3151.1135	3373.4464	3800.4002
CC(O)C12CC(N1)C2=O	C[C@@H](O)[C@@]12C[C@@H](N1)C2=O	
InChI=1S/C6H9NO2/c1-3(8)6-2-4(7-6)5(6)9/h3-4,7-8H,2H2,1H3	InChI=1S/C6H9NO2/c1-3(8)6-2-4(7-6)5(6)9/h3-4,7-8H,2H2,1H3/t3-,4-,6-/m1/s1
