14
gdb 46166	4.99524	1.02452	0.87694	1.7168	63.2	-0.3016	-0.0001	0.3014	1210.3458	0.102054	-473.871971	-473.864215	-473.86327	-473.905064	27.321	
O	 0.0092278224	 0.1403721995	 0.6645270136	-0.342458
C	-0.0132129278	 1.1646434013	 0.0582972899	 0.474778
O	-1.1890286452	 1.7593506356	-0.2552835292	-0.253356
C	-1.2803834506	 2.9141651379	-1.0882324292	-0.068121
C	-0.0628216776	 3.8207160243	-0.8811779018	-0.213366
C	 1.1734175574	 2.9482738708	-1.121525543	-0.068089
O	 1.136713968	 1.7913784639	-0.2872518425	-0.253373
C	-0.0909248806	 4.965463057	-1.7847345323	 0.270267
N	-0.1131370338	 5.8609057721	-2.5142331493	-0.296827
H	-1.3469401542	 2.6070295246	-2.138688987	 0.142359
H	-2.21114534	 3.4121863801	-0.8118050903	 0.154464
H	-0.0538567924	 4.1833402922	 0.1534263124	 0.156897
H	 1.2201284474	 2.643022683	-2.1735977055	 0.142364
H	 2.0970963071	 3.4720013477	-0.869958956	 0.154462
79.5172	96.2252	142.6441	178.2412	316.9738	408.2929	437.6228	500.398	528.1799	603.4399	699.6973	758.1432	806.5202	919.6687	942.7649	1022.2957	1054.8695	1104.3835	1131.1585	1164.4566	1180.2931	1238.0144	1292.3801	1317.074	1337.7817	1422.118	1430.212	1511.6484	1521.3612	1895.069	2365.9353	3040.6623	3040.9967	3059.797	3122.7015	3124.8586
O=C1OCC(CO1)C#N	O=C1OCC(CO1)C#N	
InChI=1S/C5H5NO3/c6-1-4-2-8-5(7)9-3-4/h4H,2-3H2	InChI=1S/C5H5NO3/c6-1-4-2-8-5(7)9-3-4/h4H,2-3H2
