18
gdb 76103	2.39881	1.26256	1.01638	3.7815	77.52	-0.2632	0.0264	0.2896	1229.8553	0.147098	-401.929206	-401.920259	-401.919315	-401.963524	32.912	
O	-0.2436953302	 1.2850475671	-0.3260349077	-0.400478
C	-0.2065160288	-0.0799169453	-0.0880877947	 0.078123
C	-0.3860239583	-0.5901208272	 1.3485614705	-0.261105
C	-0.4969887212	 0.3753112709	 2.4000973285	 0.29599
N	-0.5577873109	 1.1633820046	 3.2458453126	-0.346895
C	-1.4989518327	-0.7258038238	 0.2945125143	-0.0658
C	-2.763341404	 0.0617092339	 0.3957053349	 0.027648
C	-3.9040566599	-0.2431675567	-0.5456176899	-0.276736
C	-4.0173182247	-0.5976874165	 0.9151259515	-0.2721
H	 0.5240564448	 1.6975120889	 0.0855624441	 0.303634
H	 0.4930813111	-0.6457454374	-0.7031901805	 0.103711
H	 0.1474967496	-1.49319913	 1.6258315594	 0.131903
H	-1.6300944853	-1.747377865	-0.0526831936	 0.101179
H	-2.6204690623	 1.1042495579	 0.6524054211	 0.116772
H	-4.4838851734	 0.5900106976	-0.9259729751	 0.119773
H	-3.7755271562	-1.0534804773	-1.2559393083	 0.110889
H	-3.9641277994	-1.6467651962	 1.1872064697	 0.111284
H	-4.6762426782	-0.0100415256	 1.5438667031	 0.122207
52.3006	95.287	127.1217	168.2061	249.9116	286.4892	316.4563	382.3189	402.0157	571.1661	625.6795	658.971	743.601	779.4389	794.8495	832.8322	848.2036	936.2823	939.2838	991.8079	1015.7115	1027.3084	1063.2458	1079.6485	1118.5605	1130.2592	1143.8384	1197.7154	1217.8979	1222.7433	1244.1715	1297.7261	1317.2573	1360.0437	1423.4644	1466.9849	1471.4357	1509.1841	2348.2983	3101.7316	3131.6632	3136.4138	3144.1231	3168.0632	3189.3093	3211.2023	3227.069	3801.1663
OC1C(C#N)C1C1CC1	O[C@H]1[C@@H](C#N)[C@H]1C1CC1	
InChI=1S/C7H9NO/c8-3-5-6(7(5)9)4-1-2-4/h4-7,9H,1-2H2	InChI=1S/C7H9NO/c8-3-5-6(7(5)9)4-1-2-4/h4-7,9H,1-2H2/t5-,6+,7-/m0/s1
