19
gdb 119657	3.92307	1.01439	0.92801	0.6354	75.32	-0.2424	0.0544	0.2969	1330.9769	0.157084	-422.916021	-422.90767	-422.906725	-422.949634	31.6	
C	 0.02975013	 1.531487227	-0.0666224698	-0.385003
C	-0.0102692424	 0.0029267836	-0.009625935	-0.164356
C	 0.7413282051	-0.5643229927	 1.2037870709	-0.357151
C	 0.7486247845	-2.0573106503	 1.2401937046	 0.45756
O	 1.3629806179	-2.8141759272	 0.1459900109	-0.354202
C	 0.8927219787	-3.8680872805	 1.0275559552	 0.036663
C	 1.1943429391	-3.0843402306	 2.3402711317	-0.017404
O	-0.1434320336	-3.250115867	 2.8891251639	-0.327321
C	-0.3971701623	-3.1112403198	 1.4628938387	-0.001208
H	 1.0602311721	 1.8980526444	-0.1299450842	 0.117156
H	-0.5120245731	 1.9094000231	-0.938921105	 0.115007
H	-0.4246783479	 1.9751507795	 0.8263446094	 0.11531
H	-1.0521379353	-0.3395895304	 0.0220341395	 0.098785
H	 0.4240773184	-0.4194284904	-0.9223869726	 0.121733
H	 1.7802193994	-0.2098256141	 1.2007571619	 0.113647
H	 0.2872854694	-0.2109301325	 2.1386165239	 0.118987
H	 1.0623791349	-4.9077814895	 0.7510818072	 0.104635
H	 2.0521464157	-3.0971942912	 3.0124828161	 0.103231
H	-1.4225518206	-3.1593573013	 1.0970736526	 0.103931
73.7475	79.8636	124.6333	240.1734	257.8052	314.4568	344.8406	530.6821	573.5227	699.2342	725.4521	767.607	778.0276	782.8476	828.1622	847.4945	885.7189	901.8732	919.2459	938.2631	992.5754	1029.3291	1050.2636	1106.3386	1115.5664	1132.3639	1146.9785	1165.877	1181.0798	1236.4853	1270.0708	1284.7391	1311.117	1331.5778	1376.1538	1412.8217	1417.2441	1466.9324	1492.6564	1499.4459	1509.4596	3020.1993	3029.4454	3033.3496	3055.4713	3075.2083	3100.2467	3105.052	3122.6727	3124.5272	3142.9611
CCCC12OC3C1OC23	CCC[C@@]12O[C@H]3[C@@H]1O[C@@H]23	
InChI=1S/C7H10O2/c1-2-3-7-5-4(9-7)6(7)8-5/h4-6H,2-3H2,1H3	InChI=1S/C7H10O2/c1-2-3-7-5-4(9-7)6(7)8-5/h4-6H,2-3H2,1H3/t4-,5-,6+,7+
