22
gdb 64430	2.55693	1.41848	1.17271	2.1824	82.71	-0.239	0.0154	0.2544	1166.8518	0.19476	-404.361485	-404.352341	-404.351396	-404.394941	35.363	
C	-0.2404745786	 1.6030055917	-0.0597146814	-0.412383
C	-0.0449156475	 0.0772649748	 0.0073097947	 0.226393
C	-1.4281935675	-0.6006267786	 0.0302987908	-0.408695
C	 0.7303832532	-0.457594308	-1.2131962482	-0.214064
C	 2.1162645356	 0.1291607356	-1.4396077067	-0.089633
O	 3.1101707417	-0.2103637998	-0.4648307184	-0.229098
C	 2.980587123	 0.2158777047	 0.824055314	 0.110062
N	 1.9936469012	 0.2455095535	 1.6056888325	-0.246196
C	 0.6837098486	-0.3155134968	 1.3145404977	-0.157469
H	 0.7017697542	 2.1486023974	 0.0323943	 0.122806
H	-0.714897501	 1.8978060227	-1.0025567879	 0.106034
H	-0.8882123947	 1.9379862677	 0.757230397	 0.115192
H	-2.0044607504	-0.3435607585	-0.8650068219	 0.110312
H	-1.3373341607	-1.6918887151	 0.0673133279	 0.110841
H	-2.0092231673	-0.282264325	 0.9023437356	 0.113895
H	 0.820958182	-1.54867084	-1.133901095	 0.101001
H	 0.1503010092	-0.2572723512	-2.1243459756	 0.096198
H	 2.5270199092	-0.2516111311	-2.3784676131	 0.115826
H	 2.0678612213	 1.2220617402	-1.5188908978	 0.111106
H	 3.957628956	 0.5277895791	 1.1980738583	 0.113552
H	 0.0340301836	-0.0489199765	 2.1561446569	 0.099297
H	 0.7784196291	-1.4120214367	 1.3362827906	 0.105022
78.1757	119.8448	217.0292	247.9162	265.4429	293.0192	303.95	361.4854	401.7404	408.4046	412.7135	514.3144	560.707	698.4892	795.7174	825.7939	876.0209	909.4201	947.8774	954.7214	970.6893	979.1308	1005.9127	1041.9575	1049.3279	1075.1532	1153.1051	1190.6216	1198.4621	1237.7475	1289.7151	1318.2335	1326.3058	1368.6469	1395.9942	1401.0254	1417.3727	1425.5745	1434.3909	1465.5117	1480.7253	1485.7305	1496.4198	1498.9965	1504.9827	1517.819	1754.9741	2990.27	3012.3076	3024.741	3030.0386	3034.9269	3046.436	3057.2529	3092.5755	3093.8701	3095.6694	3098.5477	3116.9079	3119.0406
CC1(C)CCOC=NC1	CC1(C)CCOC=NC1	
InChI=1S/C7H13NO/c1-7(2)3-4-9-6-8-5-7/h6H,3-5H2,1-2H3	InChI=1S/C7H13NO/c1-7(2)3-4-9-6-8-5-7/h6H,3-5H2,1-2H3
