22
gdb 94196	2.81323	1.2306	1.12031	2.7789	81.53	-0.2331	0.06	0.2931	1226.5001	0.194036	-404.31298	-404.303605	-404.302661	-404.346849	36.17	
C	 0.472359982	 1.610219102	-0.1887397342	-0.429071
C	-0.0054747038	 0.2021074749	 0.1534699247	-0.028908
C	 0.5105123988	-0.9000491454	-0.8189018312	-0.229497
C	 1.5967165042	-1.2934453161	 0.2190632585	-0.274915
C	 0.8030520649	-0.5067973232	 1.3043650377	 0.365246
O	 1.5287154763	 0.3084851662	 2.2013724217	-0.487528
C	-0.0788814604	-1.4083737992	 2.1436044451	 0.005626
C	 0.3619720838	-1.8983550864	 3.4699578492	-0.25329
N	-0.71946119	-0.8950950834	 3.3612027454	-0.339434
H	 1.544812066	 1.6366336047	-0.4228131047	 0.103916
H	-0.0517389787	 1.9895460653	-1.0718005935	 0.123169
H	 0.2875160481	 2.3068246795	 0.6354160904	 0.12526
H	-1.087038924	 0.2162711463	 0.3182822447	 0.080047
H	-0.2202754675	-1.6948847505	-0.9851826738	 0.107146
H	 0.8663028804	-0.5530371963	-1.7922007871	 0.097106
H	 1.7719466428	-2.3555052585	 0.4071486931	 0.104195
H	 2.5601415767	-0.8171211025	 0.0119897016	 0.092428
H	 2.064176794	 0.923607479	 1.6925868136	 0.283141
H	-0.7258459593	-2.0486959541	 1.5464751088	 0.085152
H	 0.0458072925	-2.8773879332	 3.8191553269	 0.109422
H	 1.3293564361	-1.5647438436	 3.8304936711	 0.123072
H	-0.3155422129	 0.0181666645	 3.5611749119	 0.237719
78.1085	104.0007	174.8893	227.7448	239.8804	282.367	292.6938	311.9858	365.0896	417.9431	488.3525	519.0083	685.3685	718.3332	791.0204	831.1128	862.0784	879.5153	908.3068	948.7581	955.4955	973.2679	990.0128	1025.7349	1056.9973	1085.5336	1107.0921	1117.2465	1145.1929	1169.7751	1180.4237	1212.522	1232.3303	1236.9423	1271.048	1278.3621	1287.7666	1310.4999	1340.3399	1369.3686	1406.4721	1445.815	1477.7123	1496.0475	1498.6107	1503.1558	1503.4975	3015.2823	3050.6472	3054.1576	3065.162	3083.807	3100.8459	3103.2921	3113.9126	3117.2485	3122.2774	3208.9435	3492.0751	3840.6846
CC1CCC1(O)C1CN1	C[C@H]1CC[C@]1(O)[C@H]1CN1	
InChI=1S/C7H13NO/c1-5-2-3-7(5,9)6-4-8-6/h5-6,8-9H,2-4H2,1H3	InChI=1S/C7H13NO/c1-5-2-3-7(5,9)6-4-8-6/h5-6,8-9H,2-4H2,1H3/t5-,6+,7+/m0/s1
