19
gdb 92431	2.59905	1.58574	1.47247	2.6373	74.34	-0.2279	-0.0201	0.2078	1007.7266	0.160862	-423.051491	-423.043772	-423.042828	-423.083582	30.383	
C	-0.2461545666	 1.541520498	-0.0376987522	-0.412128
C	 0.0296039057	 0.050405811	 0.0462050536	 0.151038
O	 0.7227322024	-0.3830203714	-1.1635240678	-0.307879
C	 1.8415018215	-1.1867450978	-0.7651390322	 0.005732
C	 2.9348588142	-0.2554174284	-0.2177399747	-0.229463
C	 2.3139238097	 0.2323263312	 1.1443863497	-0.236954
C	 0.9319544535	-0.4685308358	 1.1876601315	-0.167335
C	 1.3186748975	-1.8070678119	 0.5409888699	 0.422436
O	 1.2489070036	-2.9376962772	 0.9267113885	-0.322716
H	 0.6749447284	 2.126395587	-0.0992736086	 0.122962
H	-0.8346384498	 1.7503372719	-0.9359834603	 0.132959
H	-0.8197425899	 1.8766831839	 0.8327288626	 0.117093
H	-0.9330844263	-0.480711468	 0.093845809	 0.086687
H	 2.115063937	-1.8645252979	-1.5713294398	 0.094371
H	 3.8800171897	-0.7857521068	-0.06668611	 0.11134
H	 3.1079009137	 0.5658134893	-0.9168240692	 0.115924
H	 2.9217196608	-0.0906434432	 1.993655386	 0.115136
H	 2.231729021	 1.3189870559	 1.2005861657	 0.112974
H	 0.4501728338	-0.52877826	 2.1614826082	 0.087823
104.6577	145.0103	210.964	277.3393	284.9591	396.5921	442.9937	499.1904	541.0773	636.6932	726.3262	764.3484	772.9455	832.9483	855.338	877.222	893.2141	939.7936	981.8292	1015.6287	1033.937	1057.5783	1088.0772	1131.8034	1141.1974	1152.7607	1191.6285	1211.1312	1255.0302	1270.8603	1303.9439	1317.2861	1334.3253	1351.9892	1397.5282	1413.6913	1473.8055	1483.9304	1490.2037	1513.2373	1893.0505	2983.0147	3042.2036	3056.2709	3071.1304	3103.9817	3112.6098	3119.9713	3126.2427	3142.7335	3146.0069
CC1OC2CCC1C2=O	C[C@H]1O[C@H]2CC[C@@H]1C2=O	
InChI=1S/C7H10O2/c1-4-5-2-3-6(9-4)7(5)8/h4-6H,2-3H2,1H3	InChI=1S/C7H10O2/c1-4-5-2-3-6(9-4)7(5)8/h4-6H,2-3H2,1H3/t4-,5+,6+/m1/s1
