17
gdb 97666	2.81313	0.8112	0.71965	2.6718	75.36	-0.2487	0.0163	0.265	1592.6867	0.13205	-458.895308	-458.884889	-458.883945	-458.932005	36.386	
O	 0.2942241765	 0.8306548945	-0.8970111979	-0.397804
C	-0.0495950195	 0.1068701462	 0.2749533884	-0.200071
C	-1.3924483157	-0.4722989403	 0.2412994349	 0.061129
C	-2.5261498926	-0.8876248052	 0.1955967387	-0.005264
C	-3.8582373545	-1.4294772945	 0.1607215526	 0.158699
O	-4.7589478864	-0.9504909475	 1.1206042012	-0.437641
C	-4.4220914044	-1.8870154513	-1.1887082876	-0.371639
C	-3.9935234251	-2.9025078561	-0.161714567	 0.10988
O	-2.8756873503	-3.699874382	-0.3629369736	-0.426294
H	-0.3982465646	 1.4821563098	-1.0496333766	 0.287956
H	 0.7009415323	-0.6861104768	 0.3644068791	 0.14533
H	 0.0433165339	 0.7302479557	 1.1787733144	 0.125837
H	-4.9797794909	-0.040589875	 0.8897903964	 0.28631
H	-5.4850646833	-1.7272417975	-1.3335247992	 0.122559
H	-3.794385453	-1.7600115622	-2.0632872653	 0.129498
H	-4.7801645877	-3.4110318228	 0.3877354387	 0.121804
H	-2.0898277248	-3.1615815551	-0.2021763072	 0.289712
31.5107	83.5584	84.929	114.7022	180.7417	244.8379	269.6207	298.6182	323.1508	346.4588	399.6093	462.3904	503.7029	569.0148	625.5038	636.6098	815.7357	869.7865	908.6983	969.5578	983.4695	1024.6165	1034.4215	1073.0395	1090.8566	1149.9933	1215.9439	1227.8197	1313.7419	1345.6477	1354.3963	1359.1853	1408.6599	1418.7596	1466.1976	1486.1159	2332.0232	2979.127	3065.7742	3135.8467	3161.2591	3237.0664	3756.9751	3787.5811	3816.0084
OCC#CC1(O)CC1O	OCC#C[C@@]1(O)C[C@H]1O	
InChI=1S/C6H8O3/c7-3-1-2-6(9)4-5(6)8/h5,7-9H,3-4H2	InChI=1S/C6H8O3/c7-3-1-2-6(9)4-5(6)8/h5,7-9H,3-4H2/t5-,6-/m1/s1
