17
gdb 124111	3.45759	0.95818	0.75736	2.658	88.47	-0.2092	0.0114	0.2205	1485.3738	0.136182	-380.885875	-380.876458	-380.875514	-380.922169	32.465	
C	-0.0669980473	 1.5101722877	-0.0326421497	-0.50951
C	-0.019006791	 0.0560940094	-0.0442214633	 0.193859
C	 0.0151189408	-1.1506801424	-0.0542861185	-0.122509
C	 0.0454635257	-2.5634103425	-0.0668673787	 0.048754
C	 1.1697987713	-3.3817994706	 0.0184705306	 0.244561
C	 2.6155457165	-3.0400080338	 0.1431213276	-0.520452
N	 0.6985757992	-4.6509469404	-0.0345496301	-0.244426
N	-0.646038157	-4.7340993614	-0.1479706337	-0.217311
C	-1.0448700917	-3.4721445757	-0.1678437358	-0.130502
H	 0.4984223856	 1.9385757838	-0.8683371812	 0.146389
H	-1.0987665374	 1.8697037925	-0.1150733415	 0.150314
H	 0.3510138212	 1.9196768879	 0.8942829233	 0.146389
H	 3.0529312102	-3.4444062109	 1.0632349153	 0.137084
H	 3.2004823899	-3.4255142732	-0.699901737	 0.137085
H	 2.7275019841	-1.9542200212	 0.1641241943	 0.155674
H	 1.2347184548	-5.5017621591	 0.0012150292	 0.271187
H	-2.0942530547	-3.2329308301	-0.2531067249	 0.113414
18.7253	69.9244	84.1716	109.9403	237.7775	253.7623	288.8352	350.8453	471.5398	485.9352	517.4991	537.8961	675.9383	690.9979	706.9724	884.6292	938.5252	988.0193	1007.3968	1052.1542	1052.3859	1061.3138	1129.6314	1176.5544	1256.6302	1316.934	1369.6724	1412.1082	1417.4538	1452.0762	1475.7961	1478.9982	1484.1995	1485.4374	1522.926	1612.4162	2356.7079	3021.3135	3028.6518	3077.7026	3079.207	3084.7302	3133.1237	3252.3729	3667.3302
CC#CC1=C(C)NN=C1	CC#Cc1c(C)[nH]nc1	
InChI=1S/C7H8N2/c1-3-4-7-5-8-9-6(7)2/h5H,1-2H3,(H,8,9)	InChI=1S/C7H8N2/c1-3-4-7-5-8-9-6(7)2/h5H,1-2H3,(H,8,9)
