22
gdb 88463	2.72399	1.23522	1.17124	2.0276	81.97	-0.225	0.0729	0.2979	1205.7692	0.192929	-404.294444	-404.285063	-404.284119	-404.32831	35.729	
C	 1.6050612628	-0.6362512606	-0.9209721698	-0.422192
C	 0.3568098077	-0.3073860614	-0.1281754724	 0.022613
C	-0.1412266065	-1.2339479882	 0.934271269	-0.268363
N	 0.3635836749	 0.085938556	 1.2779855421	-0.129165
C	 1.5646387606	 0.3022691992	 2.0591700622	 0.288986
C	 2.1382086808	 1.6756873105	 1.7171226446	-0.431944
C	 1.3615461737	 0.105492263	 3.5808521277	-0.105183
O	 2.5902821792	-0.6417195858	 3.6886470443	-0.277265
C	 2.686083005	-0.7716096837	 2.2591466252	-0.129958
H	 2.321239598	-1.2310319994	-0.3491374364	 0.128493
H	 1.3334842276	-1.2131901142	-1.8117611305	 0.124603
H	 2.1123186613	 0.271885342	-1.2634986476	 0.12615
H	-0.3902480705	 0.2342145602	-0.7084107935	 0.090569
H	-1.2061395615	-1.3887180924	 1.0915611947	 0.113699
H	 0.4716140184	-2.1089551155	 1.1442741074	 0.111828
H	 1.3650132524	 2.4421807915	 1.8221029502	 0.125398
H	 2.9694481264	 1.91707996	 2.3858885729	 0.126117
H	 2.5097826066	 1.7038099108	 0.6880341369	 0.116259
H	 1.3631215243	 1.0057229518	 4.2058115871	 0.101637
H	 0.4840410582	-0.5081354909	 3.8245618586	 0.097912
H	 2.4310418649	-1.7875751306	 1.9314211391	 0.09117
H	 3.6833851555	-0.5154114624	 1.8821869781	 0.098636
88.1331	110.5175	158.728	203.0248	238.5389	254.0462	292.1651	357.7249	368.5021	387.8466	484.508	507.7077	591.3242	790.2844	826.2226	835.1409	903.1574	906.9235	928.7188	946.9495	966.9601	1014.0756	1030.8135	1040.2413	1051.9224	1117.2484	1131.5914	1153.1836	1155.6085	1169.3393	1180.137	1194.2548	1226.2615	1263.4418	1299.2528	1353.3679	1373.2137	1402.5611	1407.308	1420.4016	1487.1495	1489.0119	1497.2947	1499.073	1505.0544	1513.9307	1531.9531	3002.8972	3014.9892	3037.2598	3040.146	3055.5362	3065.1261	3092.5281	3093.4355	3097.4219	3111.8309	3120.1533	3127.7772	3171.9857
CC1CN1C1(C)COC1	C[C@H]1CN1C1(C)COC1	
InChI=1S/C7H13NO/c1-6-3-8(6)7(2)4-9-5-7/h6H,3-5H2,1-2H3	InChI=1S/C7H13NO/c1-6-3-8(6)7(2)4-9-5-7/h6H,3-5H2,1-2H3/t6-,8?/m0/s1
