18
gdb 68532	2.65298	1.988	1.70353	1.3172	73.68	-0.2232	0.0134	0.2366	890.554	0.149184	-401.901862	-401.895006	-401.894061	-401.932491	29.059	
C	-0.0323872901	 1.503130794	-0.0150295725	-0.506583
C	 0.0287038978	-0.0092695808	 0.0298704132	 0.212688
N	 0.7542647475	-0.6427025017	-1.1238745486	-0.306269
C	 0.5424820809	-2.0386970784	-0.6349157557	-0.13435
C	 1.1132697946	-1.8957518156	 0.7657372717	-0.040255
C	 0.7952790535	-0.6680238376	 1.1701139922	-0.061781
C	-1.030284842	-2.0926701635	-0.5092933867	 0.020874
O	-1.5811692317	-1.8714507288	 0.795513832	-0.232072
C	-1.3717183161	-0.7462471767	-0.0658258792	-0.000233
H	 0.9735553504	 1.9243453319	-0.0881296838	 0.135068
H	-0.6098436567	 1.8510811569	-0.8791286257	 0.112681
H	-0.5114150027	 1.8993949275	 0.8859952606	 0.124073
H	 0.1923727831	-0.5064342789	-1.9683250622	 0.199797
H	 0.9710100667	-2.8041665458	-1.2811419941	 0.067284
H	 1.5848402399	-2.6894111293	 1.3275995455	 0.1071
H	 0.949219711	-0.21662063	 2.1406738371	 0.103046
H	-1.6240937997	-2.7048823522	-1.1817900621	 0.101446
H	-2.2602256163	-0.1915141412	-0.3567627517	 0.097486
213.5872	257.937	274.7973	330.8118	350.1025	520.6671	543.3789	570.1231	608.9733	696.317	745.6275	772.4397	796.9139	820.7624	856.2281	886.7096	889.1193	908.5725	925.4723	961.3707	983.0137	1009.0341	1061.6546	1082.8005	1102.4801	1134.2628	1180.419	1224.3291	1228.6944	1253.6917	1267.3481	1297.1637	1321.5021	1398.5588	1408.435	1414.7987	1490.3194	1496.5618	1654.3671	3033.8507	3097.2455	3120.9818	3122.3226	3142.2545	3160.3016	3217.119	3243.4335	3407.3249
CC12NC(C=C1)C1OC21	C[C@@]12N[C@@H](C=C1)[C@H]1O[C@@H]21	
InChI=1S/C7H9NO/c1-7-3-2-4(8-7)5-6(7)9-5/h2-6,8H,1H3	InChI=1S/C7H9NO/c1-7-3-2-4(8-7)5-6(7)9-5/h2-6,8H,1H3/t4-,5+,6+,7+/m0/s1
