19
gdb 62632	2.75438	1.9094	1.64783	1.7938	71.97	-0.2377	0.0878	0.3255	915.3856	0.160157	-423.019099	-423.011742	-423.010798	-423.050313	30.266	
C	-0.0352993888	 1.5364157505	 0.0087451314	-0.447259
C	-0.0109413883	 0.0058489179	-0.0217753534	 0.302563
C	-1.4248997252	-0.5757184115	-0.1034145488	-0.447245
C	 0.9441820847	-0.5665741352	-1.0758478732	-0.19776
C	 2.3027040858	-0.5940273631	-0.3863507442	 0.02563
O	 2.1340109596	-0.1084499931	 0.9346564826	-0.247015
C	 0.8161908968	-0.6007888315	 1.1542654611	 0.106123
O	 0.8985796952	-1.9859034719	 0.835002154	-0.247011
C	 1.4747955002	-1.8520545396	-0.453165313	 0.025604
H	 0.970771354	 1.9484399948	 0.1056927405	 0.132911
H	-0.4854986205	 1.9321113087	-0.9077048061	 0.112317
H	-0.6369758864	 1.8980013295	 0.8506947515	 0.110768
H	-1.9216090983	-0.2510389927	-1.023739393	 0.112317
H	-1.4078265874	-1.6669350773	-0.0860694372	 0.132918
H	-2.0362260773	-0.2285087959	 0.737634437	 0.110769
H	 0.815970554	-0.4256503106	-2.1402564394	 0.092114
H	 3.2716025121	-0.4162325517	-0.8278977794	 0.113793
H	 0.5003065322	-0.4475398547	 2.1830806437	 0.094672
H	 1.7177386576	-2.7773523026	-0.9533064742	 0.11379
189.2183	215.0513	223.1829	245.36	342.386	348.4134	535.7271	565.4339	612.8625	631.1007	746.1947	764.6826	798.1856	804.5892	882.2091	892.2589	914.9503	957.0302	967.3742	995.2822	1006.8409	1020.7954	1031.9543	1041.4483	1044.9066	1087.0613	1096.3796	1203.7425	1209.0959	1219.6961	1234.8094	1249.3426	1334.2104	1337.5965	1369.2876	1398.8082	1419.564	1486.8782	1489.9215	1502.9524	1512.45	3030.1496	3035.149	3088.4188	3093.0374	3133.6136	3134.1487	3169.1303	3211.746	3233.1715	3242.8947
CC1(C)C2C3OC1OC23	CC1(C)[C@H]2[C@H]3O[C@@H]1O[C@@H]23	
InChI=1S/C7H10O2/c1-7(2)3-4-5(3)9-6(7)8-4/h3-6H,1-2H3	InChI=1S/C7H10O2/c1-7(2)3-4-5(3)9-6(7)8-4/h3-6H,1-2H3/t3-,4+,5-,6+
