16
gdb 19886	4.00488	1.90165	1.57879	0.9897	73.97	-0.2137	0.0418	0.2554	837.6115	0.130192	-309.351509	-309.344766	-309.343822	-309.38203	27.455	
C	-0.2927024018	-1.2952751944	-0.21652208	-0.424871
C	-0.0579682878	-0.1273751621	-0.0425847098	 0.289167
C	 0.099046017	 1.2974488829	 0.0826724863	-0.192984
C	 0.5036224109	 2.1439375639	 1.2793097635	-0.089344
C	 1.7332277655	 1.6699674943	 2.1012037226	-0.056802
C	 2.3856262986	 0.4085854193	 1.6055473711	-0.310297
C	 2.5810638454	 1.6875484136	 0.838447234	-0.0568
C	 1.3487620057	 2.1614622387	 0.0205698606	-0.089341
H	-0.4678650948	-2.3340722293	-0.3487206017	 0.191925
H	-0.7029851945	 1.811580536	-0.4486683588	 0.120795
H	-0.1698277528	 2.9084125345	 1.6467543039	 0.093309
H	 1.9624825986	 2.0980147785	 3.0681956562	 0.089915
H	 3.2571096613	 0.1186917455	 2.1866395653	 0.108743
H	 1.8195389033	-0.4239328351	 1.2138764652	 0.14336
H	 3.557262549	 2.1310832855	 0.6929529346	 0.089915
H	 1.423977077	 2.9414621881	-0.7270364636	 0.093309
133.4998	176.1139	322.84	345.6206	426.8915	575.8542	608.4536	633.7551	643.1271	702.1883	705.6074	707.0612	762.1541	864.6261	896.4463	906.2614	920.0981	951.1723	1013.8971	1014.4133	1032.8128	1053.5079	1072.2408	1089.1253	1097.5082	1173.5906	1214.3282	1259.2568	1293.8596	1319.1928	1351.1008	1423.3233	1493.4518	2224.6705	3098.7176	3134.8386	3176.8222	3187.2204	3192.4591	3202.8671	3244.747	3502.0345
C#CC1C2C3CC3C12	C#C[C@H]1[C@H]2[C@H]3C[C@H]3[C@@H]12	
InChI=1S/C8H8/c1-2-4-7-5-3-6(5)8(4)7/h1,4-8H,3H2	InChI=1S/C8H8/c1-2-4-7-5-3-6(5)8(4)7/h1,4-8H,3H2/t4-,5-,6+,7-,8+
