18
gdb 101073	2.2837	1.19446	1.03149	4.2676	72.59	-0.2659	0.0089	0.2748	1237.0911	0.148037	-435.23553	-435.226166	-435.225221	-435.269837	34.417	
N	-0.4313435487	 1.4843886933	-0.1122731506	-0.526345
C	-0.0614746099	 0.0693318013	-0.0676630877	-0.10729
C	-1.3314763866	-0.7268777163	 0.2749119629	-0.046524
O	-1.8853653204	-0.2727442627	 1.4861068158	-0.420655
C	 0.6328474652	-0.4554976544	-1.3305273464	 0.154341
C	 2.1269185522	-0.4493161576	-1.4036817816	-0.272909
N	 1.4021331674	-1.7157610785	-1.2832847243	-0.329958
C	-0.119050666	-0.2444512544	-2.5530068855	 0.282283
N	-0.7422301956	-0.0140925622	-3.4995538839	-0.34363
H	 0.3885983719	 2.081101992	-0.1434851383	 0.24053
H	-0.9767157158	 1.6800385082	-0.9487801496	 0.250533
H	 0.6429735821	-0.0582844363	 0.7641017239	 0.091943
H	-2.0444224387	-0.6421863355	-0.5634612311	 0.104757
H	-1.0957653266	-1.7895341956	 0.3946618663	 0.110285
H	-1.8402557967	 0.6929512517	 1.437198438	 0.289481
H	 2.6178805058	-0.2943637985	-2.3591181731	 0.147709
H	 2.6555379124	-0.05248612	-0.5403731637	 0.126759
H	 1.4236178879	-2.0540201244	-0.3230505413	 0.24869
70.7664	107.9327	147.1158	170.0486	237.6514	268.6719	299.5189	323.4457	394.5998	437.6856	502.7199	533.5686	581.8892	606.0404	738.2042	861.625	866.352	901.8217	931.338	945.5417	988.8527	1018.26	1068.2511	1100.1184	1132.9632	1144.7935	1177.9635	1238.4518	1276.2809	1292.5704	1301.9773	1363.3031	1383.7194	1410.6685	1449.036	1506.0018	1511.1092	1659.0054	2352.3008	2961.6303	3034.306	3074.7112	3111.2998	3206.728	3487.5599	3491.5398	3576.0278	3734.6728
NC(CO)C1(CN1)C#N	N[C@@H](CO)[C@]1(CN1)C#N	
InChI=1S/C5H9N3O/c6-2-5(3-8-5)4(7)1-9/h4,8-9H,1,3,7H2	InChI=1S/C5H9N3O/c6-2-5(3-8-5)4(7)1-9/h4,8-9H,1,3,7H2/t4-,5+/m0/s1
