22
gdb 116700	7.02421	0.57064	0.56196	2.8118	90.53	-0.2418	0.0224	0.2642	2064.9294	0.192403	-404.337324	-404.327045	-404.3261	-404.373872	36.476	
C	-0.0760116168	 1.4668772925	-0.0763255907	-0.249217
O	 0.042624757	 0.065703278	 0.1334106278	-0.193119
C	-1.1063758201	-0.6340942842	 0.0532011159	 0.119179
N	-1.1136722592	-1.8812830678	 0.222040192	-0.214938
C	-2.37641432	-2.5650546307	 0.1223663878	 0.067299
C	-2.4306364876	-3.8003337903	-0.8190242451	-0.247485
C	-3.2763382987	-4.5422606313	 0.2542375424	 0.056005
C	-3.0289571555	-6.0232932919	 0.4937222277	-0.405539
C	-2.7534478566	-3.512400638	 1.2951620361	-0.247483
H	 0.929156936	 1.8785388083	 0.0216183187	 0.14617
H	-0.4593961565	 1.6933000555	-1.0789061109	 0.12648
H	-0.7281405873	 1.9327533992	 0.6727482304	 0.126471
H	-1.997873885	-0.0241526298	-0.1661001435	 0.071026
H	-3.2113110178	-1.8787005436	-0.0985934964	 0.049115
H	-2.8537401907	-3.6631648988	-1.8177197648	 0.088607
H	-1.4318398409	-4.237851747	-0.9107072521	 0.108774
H	-4.3431805086	-4.3716346168	 0.0681066209	 0.065522
H	-1.9669710672	-6.2168562696	 0.6822552421	 0.113429
H	-3.59331794	-6.3870571395	 1.3600367246	 0.11116
H	-3.3286335123	-6.6231347701	-0.373290634	 0.111159
H	-1.8436860797	-3.8705126936	 1.7866006138	 0.108775
H	-3.4448548824	-3.1359130002	 2.0537379271	 0.088608
39.5999	64.6981	65.5152	147.5855	172.3223	220.3782	243.0411	300.0075	341.8341	377.2853	428.5517	447.3189	561.3167	652.7848	804.3362	809.2573	893.164	925.3747	948.727	956.7344	986.7205	1050.8811	1050.9547	1074.2513	1131.9907	1141.638	1170.443	1177.3239	1194.611	1225.8762	1243.3511	1257.6483	1265.269	1277.4624	1298.8692	1363.1715	1380.2775	1410.4978	1427.8959	1471.6858	1484.7381	1494.4565	1494.9243	1497.2396	1501.1333	1501.7208	1764.8029	2947.8604	2981.6666	3013.7962	3021.4495	3031.4392	3049.0763	3054.4915	3074.5917	3087.3122	3091.4911	3106.4057	3111.6462	3144.2164
COC=NC1CC(C)C1	COC=N[C@H]1C[C@@H](C)C1	
InChI=1S/C7H13NO/c1-6-3-7(4-6)8-5-9-2/h5-7H,3-4H2,1-2H3	InChI=1S/C7H13NO/c1-6-3-7(4-6)8-5-9-2/h5-7H,3-4H2,1-2H3/t6-,7+
