16
gdb 28621	5.07566	0.9966	0.83348	5.4128	87.59	-0.2168	-0.0425	0.1744	1307.9557	0.126298	-400.836268	-400.828555	-400.827611	-400.868325	29.895	
N	-0.0273773566	 1.4097123903	 0.1450510458	-0.583103
C	-0.0021678034	 0.0313812922	 0.058152397	 0.32903
C	-1.1973039343	-0.7087482149	 0.0454355245	-0.177783
C	-1.1585861554	-2.0919866618	 0.0115050296	-0.178578
C	 0.0596190793	-2.7803777982	-0.0126931861	 0.180097
C	 0.0859504012	-4.247413734	-0.0527136933	 0.083619
O	 1.0878991305	-4.9297752316	-0.0784763358	-0.287015
C	 1.2516257819	-2.039614459	-0.0008535553	-0.166397
C	 1.2258634298	-0.6602956822	 0.0338286412	-0.174052
H	 0.8044676712	 1.8977936865	-0.1478032369	 0.255785
H	-0.8798490368	 1.8673852499	-0.1373449093	 0.255101
H	-2.1486034374	-0.1856470325	 0.0655527738	 0.088294
H	-2.0876994831	-2.6558007967	 0.000224926	 0.102444
H	-0.9242404827	-4.7192918782	-0.0582993755	 0.05723
H	 2.1918547536	-2.5798273652	-0.0221326417	 0.124762
H	 2.1528153924	-0.0943350847	 0.0451281959	 0.090567
102.8688	196.7165	197.5616	326.6601	363.8115	382.1164	416.8657	426.8845	479.3086	533.6231	619.4936	651.4176	740.7105	799.7936	832.9431	848.9481	863.9204	943.9324	979.1564	1019.3228	1042.7661	1072.4588	1147.0073	1184.788	1245.2937	1327.2665	1332.4021	1371.2974	1431.6175	1476.0194	1548.0994	1606.9531	1645.2312	1661.7506	1785.2251	2857.7724	3158.9603	3165.8856	3176.4935	3200.1184	3584.6224	3690.4923
NC1=CC=C(C=O)C=C1	Nc1ccc(C=O)cc1	
InChI=1S/C7H7NO/c8-7-3-1-6(5-9)2-4-7/h1-5H,8H2	InChI=1S/C7H7NO/c8-7-3-1-6(5-9)2-4-7/h1-5H,8H2
