14
gdb 123630	2.86837	1.56367	1.18945	2.8944	76.76	-0.2243	-0.0641	0.1602	999.8993	0.102818	-432.821003	-432.814102	-432.813158	-432.852734	26.122	
C	-0.0230856908	 1.5669489835	-0.1037086579	-0.213959
C	 1.5032619732	 1.3937641084	 0.1538000687	-0.116127
N	 1.1210811047	 0.1642305764	 0.9230263344	-0.288317
C	 0.0854398394	 0.0132315358	-0.1474388128	-0.116339
C	 0.9349885527	-0.1863206055	-1.4071634037	 0.26862
C	 1.9933915825	 0.8329412147	-1.2177571646	 0.34655
O	 2.9440197521	 1.1465622803	-1.8851155632	-0.339884
N	 0.6437298931	-1.6981667532	-3.2789369138	-0.249652
N	 0.7674113523	-0.9929491007	-2.3929515017	 0.040032
H	-0.5410377453	 1.922594728	 0.7876841422	 0.129864
H	-0.3487791378	 2.0850195107	-1.005766404	 0.118873
H	 2.1360911812	 2.1425796272	 0.6256890942	 0.100445
H	 1.8318248645	-0.5687550488	 0.9065559421	 0.222922
H	-0.7519231916	-0.6621596369	 0.01965816	 0.096971
94.5711	144.8762	188.8383	389.4315	464.9631	495.7814	530.1707	544.6958	605.735	695.5344	742.9149	817.6509	850.851	869.1483	910.4215	962.5631	1013.5624	1021.6991	1093.209	1103.5356	1131.2418	1177.9888	1211.7896	1243.1088	1267.2265	1275.0031	1338.8134	1454.4137	1482.4664	1835.993	2198.6593	3086.5275	3135.7415	3149.0446	3159.7328	3443.7912
C1C2NC1C1=C2ON=N1	C1[C@H]2N[C@@H]1[C](C2=O)[N][N]	
InChI=1S/C5H5N3O/c1-2-4-5(3(1)6-2)9-8-7-4/h2-3,6H,1H2	InChI=1S/C5H5N3O/c6-8-4-2-1-3(7-2)5(4)9/h2-3,7H,1H2/t2-,3+/m0/s1
