21
gdb 115445	4.78684	0.83235	0.77793	2.6454	79.65	-0.246	-0.0204	0.2256	1515.0584	0.182003	-424.247598	-424.23809	-424.237146	-424.283581	34.118	
C	-0.1482545153	 1.5226486309	-0.2058431848	-0.383457
C	-0.1649018205	-0.0067198831	-0.2382367047	-0.187481
C	 0.9802549231	-0.5987941208	-1.068562191	 0.138176
C	 0.9362172466	-2.1463491382	-1.1576702695	-0.289487
C	 0.5154732911	-2.45518703	-2.6238467306	-0.074799
C	 0.1715795609	-1.0498056392	-3.1761021786	-0.121362
O	 0.9484943123	-0.1395659679	-2.4238486083	-0.250515
C	 1.6664312057	-3.0553476237	-3.3983036554	 0.156305
O	 1.6499758397	-4.1283273791	-3.9436536117	-0.255045
H	 0.7697868707	 1.8969599589	 0.2609783791	 0.114567
H	-0.1937112104	 1.9283761393	-1.2198723361	 0.133436
H	-0.9961085705	 1.9164336751	 0.3623307413	 0.111552
H	-0.0886535446	-0.4097575681	 0.7798575269	 0.09861
H	-1.1231110987	-0.3657678733	-0.6367086488	 0.095856
H	 1.9338612134	-0.2458418558	-0.6599499456	 0.08135
H	 1.9144404424	-2.5795607955	-0.9283908015	 0.11503
H	 0.2216228913	-2.5727227556	-0.4499270404	 0.116931
H	-0.3300317259	-3.1429635022	-2.6854521443	 0.095774
H	 0.4314300861	-0.9157978318	-4.2309978587	 0.11893
H	-0.9065913025	-0.8596746444	-3.0669543254	 0.102289
H	 2.5709903654	-2.4027275057	-3.4331161618	 0.08334
18.5795	73.6982	110.4036	155.1643	225.2497	232.1272	285.0275	322.459	373.4928	460.7858	481.2782	709.7275	748.7538	780.8488	818.1367	876.4789	918.1996	931.6178	952.7987	960.1834	1012.2159	1039.9098	1055.0277	1082.5317	1115.1337	1140.4154	1167.7056	1225.5012	1244.7126	1245.4629	1294.1145	1302.3261	1316.7899	1329.4705	1351.2256	1388.757	1402.5906	1412.5881	1426.4376	1478.7958	1496.2513	1498.0988	1508.8476	1519.0887	1834.0043	2856.7993	2990.0568	3018.045	3037.0478	3037.5807	3055.0134	3063.0324	3076.9537	3096.2577	3102.569	3110.6298	3122.8648
CCC1CC(CO1)C=O	CC[C@H]1C[C@@H](CO1)C=O	
InChI=1S/C7H12O2/c1-2-7-3-6(4-8)5-9-7/h4,6-7H,2-3,5H2,1H3	InChI=1S/C7H12O2/c1-2-7-3-6(4-8)5-9-7/h4,6-7H,2-3,5H2,1H3/t6-,7+/m1/s1
