17
gdb 96440	2.97252	1.32977	1.08747	3.0588	64.18	-0.2553	-0.0327	0.2226	1108.6906	0.135543	-496.098434	-496.09014	-496.089196	-496.13162	30.543	
O	 0.1773187246	 1.2742434395	-0.1554819796	-0.439672
C	-0.1074692063	-0.1079445716	-0.0500569628	 0.120321
C	 0.6703661953	-0.7337616052	 1.1107380937	-0.126316
O	 0.2059579002	-0.1628876059	 2.3353962309	-0.246487
C	-1.1665175799	-0.397292489	 2.5119823443	 0.01353
O	-1.9461726547	 0.1911900603	 1.4982125798	-0.263453
C	-1.6108020611	-0.3316446535	 0.2171901753	-0.002992
C	-2.469999626	 0.3816605621	-0.8162682734	 0.153198
O	-2.4935164302	 0.060373017	-1.9737738487	-0.252302
H	 0.044540918	 1.645497577	 0.7258939579	 0.291623
H	 0.1624807208	-0.5666354983	-1.00552651	 0.111894
H	 0.5469654099	-1.8282033504	 1.125856319	 0.098603
H	 1.7329717425	-0.4935481765	 1.0364264064	 0.129362
H	-1.3609654718	-1.4855367451	 2.5455516986	 0.088116
H	-1.4574557542	 0.0724597291	 3.4528985515	 0.129083
H	-1.836996945	-1.4102287177	 0.1673646818	 0.096136
H	-3.0726824421	 1.2205488583	-0.4084724049	 0.099354
80.0716	123.9274	186.7845	190.093	244.7853	339.592	395.4804	411.9567	434.1927	557.4697	585.1922	631.7158	783.5133	815.4035	891.3046	949.1413	979.4123	1003.8771	1037.6945	1067.6082	1086.2567	1105.9426	1165.7468	1198.3468	1245.2842	1265.6722	1291.3416	1320.686	1341.3492	1349.0998	1383.1984	1404.0793	1430.7527	1442.1932	1486.4853	1509.4029	1842.299	2915.9023	2934.5077	2970.34	2990.1356	3087.2725	3112.7389	3123.2843	3784.9309
OC1COCOC1C=O	O[C@H]1COCO[C@H]1C=O	
InChI=1S/C5H8O4/c6-1-5-4(7)2-8-3-9-5/h1,4-5,7H,2-3H2	InChI=1S/C5H8O4/c6-1-5-4(7)2-8-3-9-5/h1,4-5,7H,2-3H2/t4-,5-/m0/s1
