15
gdb 127554	4.26601	1.10943	0.88547	4.2369	70.15	-0.2535	-0.029	0.2245	1244.5026	0.113954	-450.171901	-450.163205	-450.16226	-450.206614	29.877	
C	-0.0030748659	 1.417779597	 0.0549419189	-0.313473
N	-0.0279172092	-0.0314703637	 0.0231837586	 0.164114
N	-0.0108301371	-0.7108463246	-1.1228508394	-0.232972
C	 0.0260086285	-1.9838328483	-0.7334210378	-0.109993
C	 0.0333398742	-2.0238124134	 0.668708466	 0.230083
N	 0.0011422949	-0.7646156211	 1.1240195193	-0.33274
C	 0.0616537321	-3.2212372126	 1.5462128298	 0.33232
N	 0.0543079648	-2.9464224441	 2.8781359526	-0.54395
O	 0.0914240136	-4.3467489968	 1.0810667041	-0.364891
H	 1.027563409	 1.7850450916	 0.0502176605	 0.155552
H	-0.5239531831	 1.7874938717	-0.8277464454	 0.166746
H	-0.5046203579	 1.7512814077	 0.9630393053	 0.161039
H	 0.0378911009	-2.7976532766	-1.4386845846	 0.152529
H	 0.0278518199	-1.9979716653	 3.2113575562	 0.272767
H	 0.0716776852	-3.7132280814	 3.5284833858	 0.26287
36.2049	69.3816	152.4756	161.2858	175.3721	262.9197	360.5464	390.9521	522.8106	570.504	658.8245	677.9604	685.2309	748.42	804.8369	913.3204	1010.516	1039.612	1078.5953	1090.3799	1146.1041	1172.1387	1302.5862	1336.4932	1368.0613	1424.8558	1447.376	1461.4447	1484.0135	1502.5446	1546.0658	1610.0006	1788.2131	3058.1439	3139.4791	3178.9184	3291.4656	3605.6266	3746.5336
CN1N=CC(=N1)C(N)=O	Cn1ncc(n1)C(=O)N	
InChI=1S/C4H6N4O/c1-8-6-2-3(7-8)4(5)9/h2H,1H3,(H2,5,9)	InChI=1S/C4H6N4O/c1-8-6-2-3(7-8)4(5)9/h2H,1H3,(H2,5,9)
