19
gdb 115372	3.22068	1.09076	0.96363	1.5215	73.51	-0.2508	-0.0004	0.2504	1266.0388	0.159824	-460.157103	-460.148429	-460.147485	-460.190607	33.038	
O	 0.0603177526	 1.3613123809	-0.1535461629	-0.423708
C	 0.0485250049	-0.0427572026	-0.0265675362	-0.061304
C	-1.3816167878	-0.5831062561	 0.0462807677	 0.048547
O	-2.014280891	-0.1330969497	-1.1491930336	-0.289773
C	-3.292057403	-0.725561425	-1.3471490452	-0.112962
C	-3.1300516101	-2.2196405062	-1.6278239216	 0.091921
O	-2.6366353892	-2.4565258784	-2.9447016985	-0.433204
C	-2.2232460009	-2.8327379124	-0.5860033573	-0.117919
C	-1.436327944	-2.0796292139	 0.1807714448	-0.063753
H	-0.5494118613	 1.5669066412	-0.8723422822	 0.292545
H	 0.5668850126	-0.5361232978	-0.8648243312	 0.089153
H	 0.5843401597	-0.2907516502	 0.8955036871	 0.108193
H	-1.876955948	-0.1084192897	 0.9138062622	 0.086897
H	-3.9344249387	-0.5614130103	-0.4675003534	 0.094497
H	-3.7385334235	-0.2279217694	-2.211568538	 0.116598
H	-4.1152913082	-2.6997307868	-1.6030054617	 0.091079
H	-1.7734144721	-2.0278311491	-2.9876437761	 0.279749
H	-2.21610889	-3.9157596432	-0.505381083	 0.102251
H	-0.7947591519	-2.5232251012	 0.9387244591	 0.101193
65.638	131.0179	164.4975	214.0149	273.4216	352.464	382.805	414.5155	439.5686	456.2832	518.9664	572.3699	619.9935	755.0182	820.9896	832.7217	882.7227	955.2627	985.6309	1005.4033	1018.875	1081.7321	1085.1636	1098.9436	1113.0987	1128.587	1204.9391	1226.7604	1263.8574	1286.8313	1303.9307	1347.1355	1352.9477	1385.132	1393.6765	1410.3602	1430.4953	1440.1906	1486.135	1498.4156	1712.8995	2932.9223	2977.4649	2985.0677	3049.4748	3079.1111	3102.7579	3152.0757	3178.9626	3790.4819	3793.0176
OCC1OCC(O)C=C1	OC[C@H]1OC[C@@H](O)C=C1	
InChI=1S/C6H10O3/c7-3-6-2-1-5(8)4-9-6/h1-2,5-8H,3-4H2	InChI=1S/C6H10O3/c7-3-6-2-1-5(8)4-9-6/h1-2,5-8H,3-4H2/t5-,6-/m0/s1
