18
gdb 104108	2.62339	1.30997	1.12005	5.3004	67.82	-0.2582	0.0481	0.3064	1144.8897	0.147761	-476.273762	-476.264863	-476.263919	-476.30731	33.	
C	-0.1525671653	 1.6409493865	-0.1126978002	-0.443106
C	 0.0189564216	 0.1239300751	-0.0276441365	 0.259276
C	-1.345738708	-0.583084464	 0.0346248065	-0.10676
O	-1.9547369752	-0.2072268458	 1.2599760126	-0.427218
C	 0.8858778083	-0.4513500879	-1.1701458971	-0.126679
O	 1.6553939614	-1.5001172984	-0.5775530882	-0.241992
C	 1.6427620242	-1.3616396774	 0.7880198171	 0.466825
O	 2.2500359564	-2.0826229261	 1.5274460629	-0.388379
N	 0.8482373185	-0.2772523918	 1.1050849257	-0.378317
H	 0.8191980936	 2.1373041242	-0.0565208587	 0.127291
H	-0.635954171	 1.9200088805	-1.0554597721	 0.117777
H	-0.7806173097	 2.00027916	 0.7058171346	 0.143258
H	-1.9577183947	-0.282035604	-0.8303893746	 0.092763
H	-1.1907477285	-1.6709652437	-0.0189218343	 0.10629
H	-2.742026114	-0.7424392379	 1.3926418987	 0.298239
H	 0.2931458374	-0.8693596773	-1.9885720643	 0.120393
H	 1.5627428601	 0.3105553277	-1.5729964294	 0.117334
H	 0.4433430949	-0.2671693299	 2.0293103973	 0.263005
83.327	144.9077	160.435	219.9965	238.665	251.698	302.2687	349.7595	388.8834	503.417	540.5927	564.1767	662.1303	722.3253	773.3252	831.4731	916.0148	936.9648	971.1857	982.1294	1011.603	1078.9124	1088.483	1167.301	1193.3273	1204.0717	1235.5436	1254.149	1295.8339	1310.5918	1385.4188	1407.7957	1421.9509	1453.014	1488.1501	1503.963	1515.1839	1519.3748	1893.6531	2973.5768	3016.0915	3037.6645	3043.3	3094.2684	3113.6809	3135.2259	3633.081	3840.5773
CC1(CO)COC(=O)N1	C[C@@]1(CO)COC(=O)N1	
InChI=1S/C5H9NO3/c1-5(2-7)3-9-4(8)6-5/h7H,2-3H2,1H3,(H,6,8)	InChI=1S/C5H9NO3/c1-5(2-7)3-9-4(8)6-5/h7H,2-3H2,1H3,(H,6,8)/t5-/m1/s1
