18
gdb 41650	3.15632	2.08319	1.68758	0.9852	73.09	-0.2041	0.0915	0.2957	847.0022	0.151387	-401.881912	-401.875923	-401.874979	-401.911863	26.016	
C	-0.0428546156	 1.4018785133	-0.1948012062	-0.080723
C	 1.3578954233	 1.997983167	-0.0132278661	-0.178774
N	 2.0453693319	 1.5368424756	 1.2020001253	-0.095879
C	 1.2974503708	 1.5368257737	 2.4678593808	-0.035933
C	 0.3471582245	 0.3196374222	 2.4889592718	-0.151142
C	 1.8162184672	 0.1965519771	 2.8708538315	-0.113991
C	 2.0971259158	 0.0475203676	 1.33829226	-0.073569
C	 0.6162306851	-0.4007383118	 1.1649048998	 0.145302
O	-0.0440219617	-0.009905142	-0.0138583713	-0.27351
H	-0.7458626043	 1.8697702497	 0.5104644217	 0.096231
H	-0.4137702437	 1.5836011712	-1.2079878656	 0.105155
H	 1.9944140214	 1.7199406814	-0.8620073754	 0.108738
H	 1.2943403774	 3.0926123327	 0.0063005958	 0.101466
H	 1.1261669562	 2.4292277135	 3.0568893699	 0.094817
H	-0.521590622	 0.2638472244	 3.1314517743	 0.088227
H	 2.3099376908	-0.1648552119	 3.7588783991	 0.102103
H	 2.9189698963	-0.4654168053	 0.8409290259	 0.073728
H	 0.4991424267	-1.4825134985	 1.2574172888	 0.087752
245.2691	259.7278	384.869	421.1074	510.2787	599.8451	675.6983	727.9494	783.8376	801.3632	806.407	816.6507	861.0482	876.6466	898.6628	966.3811	971.4309	978.2188	1022.2329	1024.5933	1035.4884	1048.1455	1070.6325	1125.8329	1147.1005	1155.5536	1168.288	1182.7319	1215.6129	1241.8121	1280.4691	1305.3184	1313.1375	1351.5775	1369.9851	1380.5884	1414.5195	1469.5058	1499.2712	2994.9109	3026.8534	3071.0493	3084.72	3097.5968	3127.2776	3190.9365	3205.1331	3245.0122
C1CN2C3C4C3C2C4O1	C1CN2[C@H]3[C@@H]4[C@H]3[C@H]2[C@@H]4O1	
InChI=1S/C7H9NO/c1-2-9-7-4-3-5(4)8(1)6(3)7/h3-7H,1-2H2	InChI=1S/C7H9NO/c1-2-9-7-4-3-5(4)8(1)6(3)7/h3-7H,1-2H2/t3-,4+,5-,6+,7-/m1/s1
