20
gdb 109041	3.03451	1.28021	1.04155	2.2179	80.66	-0.2307	0.0083	0.239	1216.1244	0.172117	-403.13245	-403.12387	-403.122926	-403.165826	33.11	
C	-0.2450547677	 1.5364610728	-0.0109319906	-0.377428
C	 0.1223517564	 0.0420928892	 0.0230407536	-0.283047
C	 0.8423187804	-0.421434207	-1.2058922337	 0.287862
C	 2.0869922825	-0.9009973052	-1.2996513081	-0.183544
C	 2.3835200722	-1.3698006256	-2.6863801343	-0.072277
N	 1.4843657935	-2.4920339138	-3.1113659121	-0.353306
C	 1.1748323862	-1.0928175952	-3.4898968879	-0.078575
C	 0.1144238013	-0.5019029739	-2.5559163114	 0.045676
O	-1.0553505629	-1.3025373914	-2.4816525082	-0.436188
H	 0.6503149476	 2.1597765383	-0.1011603883	 0.116012
H	-0.9020686817	 1.7671169507	-0.8551777129	 0.124861
H	-0.7694835356	 1.8255682113	 0.9048372386	 0.113885
H	 0.7323889301	-0.1681824957	 0.9084298088	 0.097539
H	-0.7991541512	-0.5458567235	 0.1199742897	 0.120211
H	 2.7852296454	-1.0040256821	-0.4762557897	 0.093798
H	 3.3844423084	-1.3304672565	-3.1018999853	 0.091531
H	 1.8934113605	-2.9609317529	-3.9181095335	 0.230724
H	 1.2069802872	-0.8098911948	-4.5356055567	 0.089746
H	-0.2206029932	 0.4825005021	-2.9020378196	 0.084623
H	-0.7237000793	-2.2089563867	-2.4026440187	 0.287899
65.0985	119.8552	178.3227	196.5343	267.7806	276.0739	391.265	478.8869	508.3379	537.2493	593.4887	679.3021	703.79	784.3203	808.6789	850.1443	874.3874	878.9811	905.1878	951.472	978.615	983.3992	1061.7874	1071.0327	1078.3309	1098.2674	1127.9477	1153.265	1188.4233	1253.0701	1266.6219	1286.4924	1298.1654	1338.3855	1354.8114	1369.6539	1406.4631	1411.9918	1440.5028	1475.581	1499.8322	1505.8941	1701.9195	3027.6475	3037.2102	3046.3243	3067.9355	3108.496	3111.0089	3169.4994	3180.6014	3191.9442	3477.6771	3732.7811
CCC1=CC2NC2C1O	CCC1=C[C@H]2N[C@H]2[C@H]1O	
InChI=1S/C7H11NO/c1-2-4-3-5-6(8-5)7(4)9/h3,5-9H,2H2,1H3	InChI=1S/C7H11NO/c1-2-4-3-5-6(8-5)7(4)9/h3,5-9H,2H2,1H3/t5-,6-,7+/m1/s1
