16
gdb 128501	2.51878	1.32105	0.91858	3.601	69.5	-0.2305	-0.0261	0.2045	1251.0951	0.123361	-471.16473	-471.155549	-471.154605	-471.199719	31.7	
C	-0.5452023767	 1.5942429834	-0.7258290761	-0.255225
O	-0.679224883	 0.1652174916	-0.7673464011	-0.256843
C	 0.3961862652	-0.5314524811	-1.1008002695	 0.451876
C	 0.5160384288	-1.8985607106	-1.2224726324	 0.091272
C	-0.4768702016	-2.9975605421	-0.9916701697	-0.270332
N	-0.2223902127	-3.871628992	 0.1617361546	-0.492997
N	 1.8192292029	-2.1067539692	-1.5827453895	-0.137004
N	 2.4854198948	-1.0597479106	-1.6923403696	-0.044894
O	 1.5358507511	 0.0695790814	-1.3672952289	-0.251509
H	 0.2065007234	 1.8897244965	 0.0109407035	 0.151299
H	-0.2643930953	 1.9834206963	-1.7081025021	 0.152125
H	-1.5262502848	 1.9693765538	-0.4367424632	 0.149654
H	-1.4661915808	-2.5439744624	-0.8726318426	 0.123504
H	-0.5296391633	-3.6346563293	-1.8813608062	 0.128693
H	 0.6885805574	-4.3085685683	 0.0478974756	 0.236601
H	-0.1509400754	-3.3060261475	 1.0036510674	 0.22378
41.9983	85.293	150.4884	159.7554	170.2017	255.4185	291.1142	325.912	394.0744	426.0513	577.5417	639.1767	677.3604	747.7737	777.0517	879.893	916.0981	971.4437	1032.6597	1099.7297	1138.818	1176.6351	1209.7027	1245.5539	1300.1663	1378.3819	1396.6741	1427.7771	1472.118	1477.7865	1486.6799	1497.1067	1501.6401	1638.6691	1667.9572	3045.2982	3049.1668	3088.5374	3125.8515	3166.2099	3481.5061	3557.9099
COC1=C(CN)N=NO1	COc1c(CN)nno1	
InChI=1S/C4H7N3O2/c1-8-4-3(2-5)6-7-9-4/h2,5H2,1H3	InChI=1S/C4H7N3O2/c1-8-4-3(2-5)6-7-9-4/h2,5H2,1H3
