18
gdb 64964	3.42633	1.13192	0.97421	2.8839	74.75	-0.2507	-0.0295	0.2212	1241.4486	0.146955	-439.058924	-439.050159	-439.049215	-439.092811	32.826	
O	-0.171822336	 1.4342454445	-0.0247794501	-0.453542
C	-0.0339533116	 0.0436696628	 0.0567863337	 0.280394
C	-0.7551566385	-0.7007089953	 1.1675431106	-0.30399
C	-1.2929236997	-0.7512293258	-0.2287438001	-0.270599
C	 1.2499635823	-0.5446007677	-0.4418271794	 0.319423
O	 1.4890578741	-1.735429815	-0.3319791832	-0.36558
C	 2.2327435958	 0.3779648458	-1.0904664201	-0.126429
C	 3.6383674105	 0.3085339295	-0.5634428199	-0.223709
N	 3.3114793532	-0.2510144951	-1.8650847415	-0.301935
H	 0.3060535713	 1.8295721715	 0.7126206729	 0.289532
H	-0.2596065305	-1.5824537363	 1.5555869372	 0.142217
H	-1.2750292704	-0.0793592039	 1.8879075985	 0.120766
H	-2.1661060087	-0.1535047907	-0.4616965952	 0.133402
H	-1.1715064577	-1.6686384702	-0.7916765813	 0.141012
H	 1.8516638457	 1.317692533	-1.470098679	 0.117068
H	 4.2439457228	 1.2103671692	-0.5759996328	 0.125861
H	 3.8202261182	-0.3710114757	 0.265003091	 0.128503
H	 3.1898416993	-1.2598127507	-1.759241841	 0.247608
56.0573	77.7947	188.4828	243.8904	279.6175	313.0496	319.7165	343.8428	412.4083	455.7697	564.6639	759.295	762.6911	786.0485	830.4216	854.2439	878.1726	901.2302	949.3736	977.8677	1003.2374	1012.3206	1055.3698	1090.5138	1092.4884	1123.0981	1140.5703	1178.9788	1205.4526	1262.7464	1283.721	1315.8177	1323.9209	1353.7249	1402.4604	1438.1641	1473.3526	1498.6854	1754.5558	3109.2302	3142.7561	3148.8543	3194.059	3204.323	3238.0381	3252.2559	3453.0285	3799.3598
OC1(CC1)C(=O)C1CN1	OC1(CC1)C(=O)[C@H]1CN1	
InChI=1S/C6H9NO2/c8-5(4-3-7-4)6(9)1-2-6/h4,7,9H,1-3H2	InChI=1S/C6H9NO2/c8-5(4-3-7-4)6(9)1-2-6/h4,7,9H,1-3H2/t4-/m1/s1
