22
gdb 115010	2.28032	1.46841	0.99235	1.7972	87.72	-0.2236	0.0225	0.2461	1267.8389	0.195404	-367.203231	-367.194437	-367.193493	-367.236658	34.336	
C	 0.2736541445	 1.6837882896	 0.0848217405	-0.388842
C	 0.4055899654	 0.163456792	-0.0564064328	-0.198054
C	 0.5705216888	-0.5571709065	 1.2829427983	-0.055402
C	-0.6450939107	-0.4453219352	 2.2454184462	-0.277976
C	-0.6296034922	-1.7588593557	 2.9928515453	-0.095618
C	 0.1896880531	-2.6430571415	 2.4263025751	-0.106531
C	 0.8497494601	-2.0736026362	 1.2204072003	 0.314445
C	 0.9814077806	-2.849651557	-0.0469618258	-0.291934
N	 2.158361132	-2.6117277215	 0.8079599247	-0.367434
H	 1.1503772162	 2.111290843	 0.5842459889	 0.115064
H	 0.1798804226	 2.1647734274	-0.8935476728	 0.11267
H	-0.6077115402	 1.955890695	 0.6742864667	 0.121754
H	-0.472389976	-0.2375139354	-0.5787973627	 0.100075
H	 1.2708777489	-0.0569459698	-0.6969263356	 0.088563
H	 1.4334407136	-0.114280588	 1.8025488058	 0.079498
H	-0.575562731	 0.424063991	 2.9083293645	 0.104517
H	-1.5851791664	-0.3302973929	 1.6848040761	 0.10424
H	-1.2490757883	-1.9430402752	 3.8633664421	 0.093753
H	 0.3653216697	-3.6633481331	 2.7461045612	 0.100756
H	 0.6466574531	-3.8833645249	-0.084281048	 0.111776
H	 0.9010004461	-2.3185095059	-0.991053407	 0.109946
H	 2.7216897302	-1.8620018292	 0.409675039	 0.224734
78.1768	115.173	180.0239	219.6015	267.0647	283.3802	309.596	431.4177	454.1074	490.5965	549.5457	691.5162	746.3113	780.5339	798.5422	869.641	881.4522	914.7992	950.4214	956.603	968.3869	976.1713	983.5127	1000.7018	1048.3374	1069.2089	1106.5295	1131.6074	1134.2537	1145.2872	1199.3805	1259.436	1280.123	1290.8402	1309.1394	1328.4889	1332.0001	1348.7509	1389.4043	1409.9323	1414.515	1482.6604	1489.8448	1500.5543	1506.5731	1512.7297	1682.3219	2986.8278	2995.9087	3005.7839	3032.8143	3046.1511	3058.0942	3099.6406	3105.8418	3106.6451	3188.3073	3190.3168	3215.2651	3471.7777
CCC1CC=CC11CN1	CC[C@H]1CC=C[C@]21CN2	
InChI=1S/C8H13N/c1-2-7-4-3-5-8(7)6-9-8/h3,5,7,9H,2,4,6H2,1H3	InChI=1S/C8H13N/c1-2-7-4-3-5-8(7)6-9-8/h3,5,7,9H,2,4,6H2,1H3/t7-,8+/m0/s1
