18
gdb 66829	2.67502	1.95752	1.47086	2.2551	75.11	-0.2121	0.0698	0.2819	944.2964	0.147971	-401.859484	-401.852084	-401.85114	-401.890807	29.974	
C	-0.1077008461	 1.5130225142	-0.0298457844	-0.525561
C	-0.0523920286	 0.0260542633	-0.0161714813	 0.326418
C	-0.0195869126	-1.0507640262	-1.0787351956	-0.2354
C	 1.1230582843	-1.7810246875	-0.3723048226	-0.002619
C	 0.5448402199	-2.9507801946	 0.4485937345	-0.254254
C	-0.2445786593	-1.8228276309	 1.1360231475	-0.07746
N	 0.8984205411	-0.8276138832	 0.8254676593	-0.213098
C	-1.0622559662	-1.0692737376	 0.0747128038	 0.330947
O	-2.4222351973	-0.9781655401	-0.1094975546	-0.469004
H	 0.8349680388	 1.9420757734	-0.3860164899	 0.125968
H	-0.9122547513	 1.8555055736	-0.6884920827	 0.130722
H	-0.3016447924	 1.9042943099	 0.9748022723	 0.130195
H	-0.3188028088	-1.0077707153	-2.1192405175	 0.085462
H	 2.1140124198	-1.8208065754	-0.8265045345	 0.076265
H	-0.0029450828	-3.7434754038	-0.0687245884	 0.090991
H	 1.2977203537	-3.3793878071	 1.1151708059	 0.113627
H	-0.6169029585	-1.8867631429	 2.1587641049	 0.079788
H	-2.7229918039	-1.7457788799	-0.6090923769	 0.287014
176.7053	192.126	232.0097	275.3894	305.0394	362.2871	447.3523	566.1288	622.3777	644.9237	725.1178	775.7904	804.1727	839.9948	883.9395	896.3303	902.7893	924.3123	937.3132	972.0576	996.2222	1040.5058	1077.8552	1105.5586	1119.496	1152.6734	1159.5923	1205.2359	1209.3711	1232.0673	1254.1098	1285.7262	1318.6235	1350.2212	1409.3791	1475.6687	1477.5999	1489.1271	1519.6588	3029.4311	3055.4338	3094.118	3101.8954	3106.3852	3113.6454	3119.2406	3184.175	3782.6418
CC12C3C4CC(N14)C23O	C[C@@]12[C@H]3[C@@H]4C[C@@H](N14)[C@@]23O	
InChI=1S/C7H9NO/c1-6-5-3-2-4(8(3)6)7(5,6)9/h3-5,9H,2H2,1H3	InChI=1S/C7H9NO/c1-6-5-3-2-4(8(3)6)7(5,6)9/h3-5,9H,2H2,1H3/t3-,4+,5+,6-,7-/m0/s1
