17
gdb 53268	3.87827	0.8434	0.7535	2.3091	78.95	-0.2488	0.0175	0.2663	1528.5831	0.133408	-421.753036	-421.7438	-421.742856	-421.788764	32.017	
C	 0.0899117874	 1.5058204584	 0.0827730947	-0.50139
C	 0.0480435233	 0.0523777805	 0.0460155178	 0.11294
C	 0.0145290361	-1.1517440775	 0.0252658664	 0.091703
C	-0.015872287	-2.5855925989	-0.0242147403	-0.271595
O	-0.5899079181	-3.2880716322	 1.112958798	-0.264287
C	-1.2831913829	-3.3283555463	-0.1047749078	 0.373267
C	-2.7059534345	-2.8406514516	-0.3432062997	-0.157379
O	-2.9689100626	-4.0072723884	-1.1589038246	-0.275328
C	-1.6751470362	-4.5849334128	-0.8756009538	-0.155069
H	 1.1217002196	 1.8725364938	 0.1062256651	 0.155119
H	-0.4004573661	 1.940573431	-0.7950053686	 0.153971
H	-0.4205016513	 1.8888239456	 0.9730509989	 0.15794
H	 0.8781765458	-3.0684707431	-0.4181150306	 0.117924
H	-3.3292984686	-2.8104093312	 0.5591062234	 0.116019
H	-2.8153186444	-1.903959201	-0.9013190967	 0.117787
H	-1.1094516621	-4.8102576046	-1.787346057	 0.112169
H	-1.7446344586	-5.4859762518	-0.2523810052	 0.11621
31.0468	67.1162	95.2734	120.1364	221.2156	252.3197	341.8812	366.2033	380.8839	475.4385	531.1849	602.9008	785.7847	834.9556	872.5414	900.6914	950.647	1007.0001	1019.5217	1048.8544	1052.0896	1058.2559	1126.154	1139.7902	1166.5789	1176.0705	1196.9242	1295.6888	1317.2483	1364.4194	1413.5233	1474.7774	1476.5928	1498.2904	1499.7335	1525.2567	2369.3313	3012.0359	3024.994	3030.3891	3063.7507	3073.1613	3092.6565	3094.6841	3111.5305
CC#CC1OC11COC1	CC#C[C@H]1OC21COC2	
InChI=1S/C7H8O2/c1-2-3-6-7(9-6)4-8-5-7/h6H,4-5H2,1H3	InChI=1S/C7H8O2/c1-2-3-6-7(9-6)4-8-5-7/h6H,4-5H2,1H3/t6-/m1/s1
