19
gdb 93026	2.29395	1.84264	1.21929	1.8411	76.14	-0.2288	0.0163	0.2451	1048.9951	0.159861	-423.022116	-423.013918	-423.012974	-423.054232	33.067	
O	-0.170653087	 1.4574769673	 0.1890950171	-0.451021
C	-0.0165928546	 0.0407895366	 0.0552561587	 0.039864
C	 0.8963487742	-0.5517674042	 1.1387409947	-0.309157
C	 0.7633548099	-2.0523978764	 1.2441433588	-0.095776
C	-0.3616207533	-2.6892746025	 0.9117544244	-0.032854
C	-1.5731154746	-1.9737001682	 0.439139663	-0.141383
C	-2.1543699688	-0.8583924506	 1.3187232088	-0.346691
C	-1.4140886311	-0.5336334997	 0.0507232192	 0.447983
O	-2.1717961319	-0.1088028106	-1.0464012702	-0.489145
H	 0.6570711236	 1.8762768881	-0.0660619456	 0.285117
H	 0.4075705969	-0.1923072629	-0.9334656858	 0.078412
H	 1.9353743764	-0.2746449333	 0.9221039777	 0.095312
H	 0.6532365022	-0.0700214114	 2.0957819588	 0.122332
H	 1.6147979498	-2.607883447	 1.6258288586	 0.088489
H	-0.4282231189	-3.7689373739	 1.012674367	 0.089842
H	-2.2929439894	-2.5427243937	-0.1389392647	 0.097724
H	-3.2282895297	-0.7161960155	 1.2854747076	 0.117144
H	-1.6900981739	-0.690219862	 2.2837263665	 0.117579
H	-2.1489824	 0.8562124899	-1.0178119347	 0.28623
123.2492	195.2007	252.0372	265.1387	288.3288	367.9586	399.1307	427.4225	453.3849	471.628	551.9531	567.0644	683.5266	729.3357	788.6871	837.1486	892.9496	919.0507	949.6576	977.2148	990.2218	1001.7202	1043.1913	1058.2147	1068.6476	1089.0633	1109.2218	1179.5475	1200.2542	1207.1114	1254.145	1290.7172	1321.478	1348.765	1375.8457	1411.2071	1424.3031	1440.9953	1484.2006	1494.4658	1707.3916	2983.7169	3014.3894	3048.717	3138.7257	3155.7525	3172.0816	3181.9887	3233.6651	3776.6707	3824.2059
OC1CC=CC2CC12O	O[C@H]1CC=C[C@H]2C[C@@]12O	
InChI=1S/C7H10O2/c8-6-3-1-2-5-4-7(5,6)9/h1-2,5-6,8-9H,3-4H2	InChI=1S/C7H10O2/c8-6-3-1-2-5-4-7(5,6)9/h1-2,5-6,8-9H,3-4H2/t5-,6-,7-/m0/s1
