17
gdb 88146	2.5998	1.47303	1.10837	2.451	69.46	-0.2418	-0.0252	0.2166	1100.2967	0.135171	-458.96078	-458.952414	-458.95147	-458.99401	30.967	
O	-0.0855879874	 1.4059293181	-0.0341957377	-0.421478
C	-0.0367374176	 0.0127408868	 0.0184813338	 0.065551
C	-0.5114705862	-0.7060675874	 1.2398375377	-0.362
C	-1.3834491538	-0.6637859672	-0.0091526355	 0.184786
C	-2.6966726586	 0.0870305576	-0.1237983503	-0.166372
O	-3.6563777532	-0.8953146696	-0.5364815092	-0.256592
C	-3.0022467856	-1.8818221878	-1.3088480296	-0.185461
C	-1.5545945667	-1.9104534668	-0.8151831453	 0.307787
O	-0.7215464237	-2.7547796594	-1.0349648532	-0.328007
H	 0.6349061302	 1.7534951274	 0.5021094117	 0.296274
H	 0.7467831427	-0.4605810338	-0.573181939	 0.112787
H	-0.0572007364	-1.6619570037	 1.4797185842	 0.137918
H	-0.8466418582	-0.1063263383	 2.0797221535	 0.124716
H	-3.0501791145	 0.514957557	 0.8168583648	 0.118424
H	-2.6238289208	 0.8950586062	-0.8663537086	 0.11423
H	-3.5000515985	-2.8457119516	-1.1713343763	 0.138858
H	-3.0058971817	-1.6421427673	-2.3867002909	 0.118579
75.8828	143.3632	163.5684	180.6237	252.1597	289.4207	355.8169	448.0312	524.5024	554.8099	591.166	658.719	736.4043	804.2617	880.6893	923.9181	941.175	997.9171	1012.3744	1041.2719	1069.2125	1084.0449	1103.8183	1136.6477	1183.4759	1209.5115	1240.0942	1248.0202	1293.8614	1314.0944	1336.0607	1392.2598	1418.769	1470.2725	1480.447	1519.1318	1837.8978	2958.8184	3000.605	3091.6531	3098.7249	3110.2421	3126.6483	3225.6748	3807.3365
OC1CC11COCC1=O	O[C@H]1C[C@]21COCC2=O	
InChI=1S/C6H8O3/c7-4-1-6(4)3-9-2-5(6)8/h4,7H,1-3H2	InChI=1S/C6H8O3/c7-4-1-6(4)3-9-2-5(6)8/h4,7H,1-3H2/t4-,6+/m0/s1
