20
gdb 111651	2.273	1.54006	1.21085	3.1381	79.97	-0.2506	0.0265	0.2771	1135.1399	0.17267	-403.163354	-403.15497	-403.154026	-403.19661	32.04	
C	-0.0184748862	 1.4130085046	 0.439694927	-0.378131
C	-0.0163883103	 0.0283730492	-0.2204088469	-0.217862
C	-1.3693194134	-0.6501332948	-0.1278874203	-0.005559
C	-1.5924215515	-2.1361719709	-0.1508412203	-0.115124
C	-0.410505579	-3.0309948389	 0.1774294865	-0.109663
O	 0.0612277297	-2.6309433762	 1.4768353191	-0.246056
C	-0.8376509989	-1.7967809874	 2.0962055788	 0.420378
N	-0.7743663887	-1.4594442097	 3.3125772752	-0.554644
C	-1.8721223262	-1.3621347782	 1.1222322526	-0.135552
H	 0.9562147481	 1.8995275457	 0.3366372557	 0.111739
H	-0.7687052233	 2.0685256969	-0.0163506558	 0.110746
H	-0.2473689669	 1.3320962857	 1.5065908384	 0.141297
H	 0.2563210981	 0.1216776772	-1.2797021118	 0.095632
H	 0.755772054	-0.5931423989	 0.2432178351	 0.119453
H	-2.1624160878	-0.0909672085	-0.6205441635	 0.093935
H	-2.3909179437	-2.5535623284	-0.7523967633	 0.099427
H	-0.7141889891	-4.0835020448	 0.2217102442	 0.117235
H	 0.426641712	-2.9396577418	-0.5223823604	 0.119043
H	 0.0093092751	-1.9278276886	 3.7705908158	 0.220399
H	-2.861478202	-1.1517585223	 1.5039607539	 0.113308
69.154	116.5786	185.4526	192.7325	244.9549	284.0877	432.0063	438.8121	494.9107	638.4175	689.8916	747.9213	772.9217	798.149	821.9192	863.4173	891.6174	921.3081	968.0812	975.4388	1002.2093	1017.0648	1044.4028	1084.6627	1096.6252	1121.2061	1125.7393	1145.9655	1221.219	1231.2018	1274.4504	1302.446	1339.7212	1343.3387	1367.2182	1406.2967	1413.1538	1448.9893	1491.7026	1500.9048	1510.102	1520.3225	1771.7629	3024.6234	3033.0485	3034.283	3075.1345	3078.3395	3103.2658	3114.9816	3129.4284	3183.1674	3215.2519	3473.2356
CCC1C2COC(=N)C12	CC[C@H]1[C@H]2CO[C]([NH])[C@@H]12	
InChI=1S/C7H11NO/c1-2-4-5-3-9-7(8)6(4)5/h4-6,8H,2-3H2,1H3	InChI=1S/C7H11NO/c1-2-4-5-3-9-7(8)6(4)5/h4-6,8H,2-3H2,1H3/t4-,5+,6-/m0/s1
