20
gdb 96705	2.55827	0.97673	0.79403	3.0479	86.2	-0.2363	-0.0354	0.2009	1522.9624	0.168676	-399.351453	-399.340576	-399.339632	-399.387697	38.225	
C	 0.0289356071	 1.5052982666	 0.0367768043	-0.342947
N	 0.0594376667	 0.0601822301	 0.0126728852	-0.299368
C	-1.0178838604	-0.6214781848	 0.0085458751	 0.326836
N	-1.0376613358	-1.9902903843	 0.0695596762	-0.349566
C	 0.1824343565	-2.7944910174	-0.0010036327	 0.070506
C	-0.1042351909	-4.1752485286	 0.5906247341	-0.405527
C	 0.7363949671	-2.8756810028	-1.43050463	-0.385576
C	-2.3583655707	-0.03697961	-0.024892849	 0.223399
N	-3.41155163	 0.4386640285	-0.0655388956	-0.333574
H	 0.5989676396	 1.8924145338	-0.8158147978	 0.13086
H	-0.978317377	 1.9440349232	 0.0083255577	 0.127928
H	 0.5343224086	 1.8642168017	 0.9414951279	 0.131609
H	-1.9080186699	-2.4429611065	-0.1618884386	 0.253453
H	 0.9166315869	-2.275387626	 0.6226535973	 0.11733
H	-0.8584636445	-4.7081705285	-0.0016326857	 0.114613
H	 0.8036087649	-4.7845011411	 0.5893839076	 0.126946
H	-0.46802501	-4.0968275488	 1.6188374242	 0.127332
H	 0.0272272772	-3.3809308818	-2.0958795673	 0.108307
H	 0.9309980051	-1.8740820395	-1.8199731252	 0.140452
H	 1.6752888995	-3.4384179538	-1.4451113377	 0.116987
58.7505	75.6042	123.6054	137.4108	166.1344	226.2392	236.5629	264.6019	293.1922	318.5464	359.2085	382.232	413.1627	464.1543	528.1579	645.7359	719.7395	814.2182	847.9031	930.6518	952.3441	980.0658	1074.5079	1133.8328	1145.7271	1162.1037	1192.1818	1199.638	1282.7925	1344.4424	1384.5499	1396.372	1418.2548	1449.833	1483.6181	1485.0246	1489.3398	1494.6488	1504.1062	1511.3264	1530.4368	1716.2076	2342.8265	2997.7506	3029.1567	3035.117	3065.6983	3068.3235	3071.863	3097.9579	3107.7657	3123.8011	3131.336	3631.4853
CN=C(NC(C)C)C#N	CN=C(NC(C)C)C#N	
InChI=1S/C6H11N3/c1-5(2)9-6(4-7)8-3/h5H,1-3H3,(H,8,9)	InChI=1S/C6H11N3/c1-5(2)9-6(4-7)8-3/h5H,1-3H3,(H,8,9)
