17
gdb 43854	2.84169	1.47914	1.10827	4.2565	75.27	-0.2407	-0.0526	0.1881	1091.115	0.136321	-421.842855	-421.835261	-421.834317	-421.875114	29.423	
O	 0.0004671116	-0.050329752	-0.0812203249	-0.328685
C	-0.0083344054	 1.1557811801	 0.0496996789	 0.381377
C	-1.3162370565	 1.9455616432	 0.120597799	-0.395478
C	-1.1816675909	 3.221530401	 0.9243820625	 0.402436
C	-2.3403629967	 3.8077032987	 1.6062770258	-0.243476
O	-1.3613939028	 3.0660618286	 2.3397293085	-0.26791
C	-0.0009707317	 4.0902534332	 0.5300959147	-0.334432
C	 1.2407096512	 3.2750857634	 0.2935601876	-0.043651
C	 1.2366562038	 1.9514315772	 0.0933884834	-0.143248
H	-1.5951098292	 2.1939428527	-0.913797164	 0.128654
H	-2.096408507	 1.2989894511	 0.527376189	 0.134808
H	-2.3649573425	 4.8782457414	 1.8092752476	 0.112849
H	-3.3169026473	 3.3334421529	 1.5151315734	 0.117162
H	-0.2363660057	 4.6609191578	-0.381363759	 0.126504
H	 0.1775056277	 4.8302844496	 1.3175981642	 0.129985
H	 2.1839065712	 3.816750805	 0.2896342036	 0.112881
H	 2.1550109303	 1.3925305858	-0.0556063604	 0.110225
89.5083	109.3423	296.1831	306.1852	340.3087	371.8269	471.9117	479.175	496.3053	578.7962	666.0388	741.5924	780.8971	819.0545	897.5449	918.3859	936.8197	974.061	990.2003	1011.4099	1033.3285	1124.4594	1129.5453	1161.929	1181.8146	1226.6793	1250.595	1285.919	1303.7623	1336.9266	1405.5274	1430.4093	1441.0433	1457.2076	1534.354	1684.8737	1783.6607	2999.3405	3017.3304	3070.3784	3077.5948	3116.4784	3154.6796	3162.716	3191.8122
O=C1CC2(CO2)CC=C1	O=C1C[C@]2(CO2)CC=C1	
InChI=1S/C7H8O2/c8-6-2-1-3-7(4-6)5-9-7/h1-2H,3-5H2	InChI=1S/C7H8O2/c8-6-2-1-3-7(4-6)5-9-7/h1-2H,3-5H2/t7-/m0/s1
