18
gdb 11527	5.46604	1.05808	0.9359	2.7334	69.03	-0.2521	-0.0276	0.2245	1232.398	0.150578	-384.923333	-384.9144	-384.913456	-384.957775	31.554	
C	 0.0553924212	 1.3487798444	 0.3126257826	-0.400146
C	 0.0749612584	-0.1453758249	-0.0045444083	 0.039553
O	 0.7276493693	-0.9509065779	 0.9632097803	-0.265385
C	 2.1228088702	-0.9115113084	 0.9237616002	 0.150872
C	 2.8793757557	 0.0319781636	 1.8247614778	-0.284369
C	 2.8310805064	-1.454594274	 2.1204038002	-0.295664
C	-1.3320562504	-0.7230590748	-0.1329637418	 0.146091
O	-2.270202657	-0.1241131197	-0.5879572903	-0.245335
H	 1.0558143875	 1.7807925406	 0.2462484706	 0.124839
H	-0.6022033296	 1.8544561061	-0.3986196601	 0.142076
H	-0.3344202064	 1.5142807911	 1.3211692768	 0.127757
H	 0.550576011	-0.3010844829	-0.9914461096	 0.095836
H	 2.5391345242	-1.1194120734	-0.0629808408	 0.085947
H	 3.8055927394	 0.4665619005	 1.4644848225	 0.114286
H	 2.2894640221	 0.6775575745	 2.4646746788	 0.122883
H	 2.2040751709	-1.7724955796	 2.9455197054	 0.128638
H	 3.7219565229	-2.052916185	 1.968090741	 0.117696
H	-1.4081670258	-1.7734266004	 0.2235762749	 0.094424
45.6404	76.5764	98.0826	173.9441	223.2736	262.3608	318.9205	375.9636	435.5621	477.4172	611.9896	755.3351	811.3188	822.9515	840.1459	912.519	935.6856	973.3435	1011.5253	1055.8369	1072.8161	1117.6275	1124.3382	1138.1044	1150.2759	1194.1073	1205.5728	1245.7959	1327.7254	1334.0537	1382.9043	1400.2268	1416.1711	1454.2709	1485.4137	1496.1966	1501.8142	1840.7765	2904.9394	2931.9728	3052.6951	3090.0124	3129.1719	3137.1343	3140.8387	3143.1703	3222.8333	3236.6997
CC(OC1CC1)C=O	C[C@@H](OC1CC1)C=O	
InChI=1S/C6H10O2/c1-5(4-7)8-6-2-3-6/h4-6H,2-3H2,1H3	InChI=1S/C6H10O2/c1-5(4-7)8-6-2-3-6/h4-6H,2-3H2,1H3/t5-/m1/s1
