17
gdb 23020	2.4162	1.21829	0.86153	3.4999	73.74	-0.2434	-0.0168	0.2266	1309.977	0.133262	-455.08236	-455.072768	-455.071824	-455.1181	33.725	
C	 0.3337662738	 1.4634761774	-0.0463630405	-0.495578
C	 0.0006892262	 0.0092530495	 0.1274147036	 0.378532
N	-0.2078042095	-0.5970692499	 1.2322689195	-0.157187
O	-0.0883432598	 0.2313244608	 2.3484646773	-0.39281
C	-0.1008768158	-0.815971938	-1.1132908503	-0.098951
N	 1.1490173483	-1.3340498165	-1.6784820628	-0.33274
C	 0.1451032089	-2.2907830251	-1.1674997975	-0.12327
C	 0.5599625874	-3.0960381723	 0.0251462572	 0.191664
O	 0.0371354091	-4.1409882191	 0.3192658956	-0.269315
H	 1.3374933562	 1.5592830261	-0.4757046237	 0.152299
H	-0.3625707839	 1.9309542456	-0.7520130981	 0.131018
H	 0.2967686907	 1.9981699843	 0.9009773867	 0.159926
H	-0.2909973218	-0.3723246289	 3.0713681651	 0.312355
H	-0.841775649	-0.4445226903	-1.8224505035	 0.104206
H	 1.1262878592	-1.3084884827	-2.6945303624	 0.243361
H	-0.4634153317	-2.8505114378	-1.8743157697	 0.106351
H	 1.4145743316	-2.6730791532	 0.5874634436	 0.09014
36.6003	70.3777	80.8614	174.1604	179.5116	301.886	311.8632	325.6203	378.6605	441.157	461.9458	518.755	571.7658	669.7233	780.1067	855.5136	895.9473	925.8703	983.3787	1005.4925	1034.1248	1036.6629	1056.046	1119.7543	1185.5076	1202.6705	1235.3163	1268.3178	1363.299	1395.5179	1398.5896	1424.4144	1463.7546	1484.2027	1487.0236	1735.8208	1822.2369	2950.1233	3037.9631	3089.1456	3097.1146	3143.0359	3170.5278	3506.6214	3818.1004
CC(=NO)C1NC1C=O	CC(=NO)[C@H]1N[C@H]1C=O	
InChI=1S/C5H8N2O2/c1-3(7-9)5-4(2-8)6-5/h2,4-6,9H,1H3	InChI=1S/C5H8N2O2/c1-3(7-9)5-4(2-8)6-5/h2,4-6,9H,1H3/t4-,5+/m0/s1
