16
gdb 28341	3.2291	1.39688	0.98182	3.6924	80.17	-0.1955	-0.035	0.1605	1162.0434	0.124843	-437.960474	-437.952318	-437.951374	-437.992913	31.212	
C	 0.0971894593	 1.4822827265	 0.0261968166	-0.470589
C	-0.0824294312	 0.0018032345	 0.0034259817	 0.366153
C	-1.2324305272	-0.6865020983	-0.1497245997	-0.217942
C	-1.2188187557	-2.1146589372	-0.1375090394	-0.163313
C	-0.0453654145	-2.7870385471	 0.0321930794	 0.13086
N	 0.1150479825	-4.1541578241	 0.1283416903	-0.576031
C	 1.2032069219	-2.0322530118	 0.1740584992	 0.410768
O	 2.2957207175	-2.539145016	 0.2908454589	-0.373048
O	 1.0990421564	-0.6639096585	 0.1595756822	-0.248804
H	 0.7767288057	 1.8072476607	-0.769779737	 0.143991
H	-0.8632708127	 1.9839118093	-0.1070549831	 0.132278
H	 0.5346417712	 1.8091519661	 0.9764129593	 0.144727
H	-2.1619476469	-0.1472873168	-0.2775805995	 0.104447
H	-2.1498035759	-2.6602942412	-0.2564786202	 0.096947
H	-0.5704817552	-4.7293240031	-0.335171219	 0.250997
H	 1.0736537348	-4.449199623	 0.0025244502	 0.268561
114.6698	158.6285	177.6628	288.1165	324.8926	335.6857	381.3337	430.7239	468.2569	542.45	563.4173	585.5069	609.54	722.9668	773.7549	790.615	833.494	905.8384	976.3165	1026.3853	1064.5034	1072.5475	1138.9929	1155.9546	1220.5135	1312.5786	1383.4601	1415.706	1433.9597	1468.1232	1489.6226	1601.8483	1648.8452	1698.3016	1798.6005	3032.3187	3084.1912	3134.6244	3174.7434	3217.6768	3561.6481	3680.8271
CC1=CC=C(N)C(=O)O1	Cc1ccc(N)c(=O)o1	
InChI=1S/C6H7NO2/c1-4-2-3-5(7)6(8)9-4/h2-3H,7H2,1H3	InChI=1S/C6H7NO2/c1-4-2-3-5(7)6(8)9-4/h2-3H,7H2,1H3
