15
gdb 28540	3.18742	1.36344	0.9558	3.9539	73.98	-0.1855	-0.0063	0.1791	1144.6832	0.113794	-454.005099	-453.997053	-453.996109	-454.037119	31.434	
N	-0.0383922031	 1.4096941389	-0.0869009338	-0.570366
C	-0.0189432256	 0.0207547769	-0.0425488962	 0.29512
N	-1.1718441343	-0.6301589523	 0.043038864	-0.329561
C	-1.1803971908	-1.9675580383	 0.0196859185	-0.082805
C	-0.0226438077	-2.7267222265	-0.0806929791	 0.343573
O	-0.1305746832	-4.0897629981	-0.094279451	-0.447553
C	 1.2016698801	-2.0523430874	-0.1558396047	-0.369673
C	 1.2086858851	-0.6689877297	-0.138253342	 0.33299
O	 2.34152882	 0.0952794039	-0.1976276018	-0.455307
H	 0.7991266302	 1.8558196465	 0.2567742986	 0.254422
H	-0.8916177941	 1.7978874552	 0.2887662997	 0.250104
H	-2.1440554238	-2.4630129196	 0.0885751129	 0.108476
H	 0.7461939565	-4.478226811	-0.1699204912	 0.294556
H	 2.1374927494	-2.6037872875	-0.2270413659	 0.07799
H	 3.1149677813	-0.4764826909	-0.2345643281	 0.298036
143.9263	234.1353	253.8676	299.7832	306.5635	329.5941	365.9274	404.2103	472.6307	486.3219	511.6089	587.3045	613.2256	633.0128	735.5576	777.4781	821.3481	846.1455	909.8759	1006.8785	1080.6197	1153.6848	1202.615	1215.6141	1318.0886	1332.9793	1335.6554	1397.1217	1491.0643	1541.3157	1618.2397	1636.1729	1671.1808	3140.3161	3174.9191	3564.8328	3678.245	3825.3039	3832.612
NC1=NC=C(O)C=C1O	Nc1ncc(O)cc1O	
InChI=1S/C5H6N2O2/c6-5-4(9)1-3(8)2-7-5/h1-2,8-9H,(H2,6,7)	InChI=1S/C5H6N2O2/c6-5-4(9)1-3(8)2-7-5/h1-2,8-9H,(H2,6,7)
