23
gdb 103997	2.51397	1.31752	1.18749	1.077	85.46	-0.2363	0.0701	0.3064	1221.5059	0.204014	-388.272365	-388.262513	-388.261568	-388.306293	38.309	
C	-0.0189621246	 1.5646908744	 0.1036791747	-0.406471
C	-0.1081698137	 0.0420393352	-0.0550201201	-0.222467
C	 0.7213924738	-0.5069326201	-1.2184125025	 0.350076
O	 0.2774221452	 0.0370489003	-2.4571231071	-0.488612
C	 2.2912597911	-0.4718930165	-1.1115289633	-0.293421
C	 2.3192671337	-1.984663774	-1.3503846499	-0.093012
C	 1.5397688741	-2.672718284	-0.2653911347	-0.34233
C	 0.7895938703	-2.038166771	-1.4079616962	 0.343309
C	-0.1300376952	-2.8056677977	-2.314553277	-0.49852
H	 1.016576527	 1.8948106796	 0.2441969715	 0.119239
H	-0.4259617272	 2.08676396	-0.7695473507	 0.11053
H	-0.5930373706	 1.9023417301	 0.9714459934	 0.118699
H	 0.2167395006	-0.4361679938	 0.8751443794	 0.094608
H	-1.1533934715	-0.250457204	-0.2136455897	 0.101434
H	 0.4490547495	 0.9841090789	-2.4439282643	 0.27594
H	 2.7148081287	 0.1083213225	-1.934120795	 0.098123
H	 2.7249695715	-0.1294139811	-0.1648607107	 0.084674
H	 3.0410827431	-2.5118948753	-1.9630203098	 0.080438
H	 1.5558204716	-3.7582128056	-0.291175399	 0.108107
H	 1.5167440901	-2.2614404409	 0.7413816445	 0.09969
H	-1.1262953534	-2.9239297287	-1.8709883267	 0.113804
H	-0.2483164259	-2.2916438181	-3.271750499	 0.136936
H	 0.2646714716	-3.8090955801	-2.5063324078	 0.109225
92.8309	137.6997	168.6137	203.8226	222.7047	260.2313	278.354	302.9169	341.5103	393.1466	446.9816	475.6417	484.2312	605.4778	685.6601	780.1453	784.5927	833.1501	869.8007	895.4519	948.7696	966.9429	973.2154	991.0515	1016.935	1033.7146	1046.8882	1087.2651	1090.2993	1110.2968	1154.7157	1194.2964	1221.9236	1241.5722	1258.9082	1275.8467	1309.6154	1336.5371	1369.2109	1400.1812	1409.0051	1420.0928	1471.6555	1476.3675	1483.2109	1501.6445	1502.7313	1505.1793	1509.6769	3024.8301	3027.2991	3031.5854	3033.728	3069.8278	3083.3089	3095.2664	3103.4394	3104.4815	3106.743	3118.0448	3175.1814	3191.3775	3815.8067
CCC1(O)CC2CC12C	CC[C@@]1(O)C[C@H]2C[C@@]12C	
InChI=1S/C8H14O/c1-3-8(9)5-6-4-7(6,8)2/h6,9H,3-5H2,1-2H3	InChI=1S/C8H14O/c1-3-8(9)5-6-4-7(6,8)2/h6,9H,3-5H2,1-2H3/t6-,7-,8-/m1/s1
