17
gdb 52484	5.38512	0.55798	0.52646	1.1807	100.53	-0.2198	-0.0062	0.2135	2092.8544	0.133236	-384.632088	-384.62186	-384.620916	-384.670391	34.94	
C	-0.023640455	 1.47233558	 0.0227288607	-0.517943
C	-0.0199571065	 0.0206248625	 0.010833884	 0.237955
C	-0.0161618492	-1.1902594746	 0.0030771061	-0.202973
C	-0.0124088736	-2.5490402578	-0.0073531712	-0.146542
C	-0.0045784477	-3.7622619957	-0.0050967179	 0.256371
C	-0.0158549217	-5.1878187861	-0.0503646098	-0.279993
C	-0.2902233892	-6.01605057	 1.2074648699	-0.297539
C	-1.3410019348	-5.9267734372	 0.1528565224	 0.128585
O	-2.4805079284	-5.1974947377	 0.4647638642	-0.416386
H	 0.7101324653	 1.8668513973	 0.7349130819	 0.155502
H	 0.2205114484	 1.878092444	-0.9657161369	 0.155067
H	-1.0069861265	 1.8633583141	 0.3080546695	 0.155607
H	 0.6646239671	-5.6338809982	-0.770808649	 0.118435
H	 0.2673144175	-6.9380724935	 1.3249831808	 0.121485
H	-0.4826662259	-5.461276631	 2.1175321158	 0.141066
H	-1.5051213055	-6.7935349162	-0.4870833239	 0.096041
H	-2.5872110344	-4.50183448	-0.1941056165	 0.295261
7.7707	51.8903	72.0507	111.5886	172.6772	185.6527	284.328	314.6291	383.156	407.9035	454.1109	524.5076	550.797	592.2871	672.9127	773.6731	813.5117	870.7412	966.833	1004.0874	1047.6779	1048.135	1058.534	1094.5524	1118.1138	1170.7655	1220.3163	1282.8104	1326.7857	1394.0679	1411.575	1416.5077	1471.7632	1472.8802	1473.3347	2272.2486	2375.7217	3021.9273	3083.1613	3083.718	3101.8941	3139.0319	3146.561	3244.6962	3792.1464	7.7701	51.8904	72.0506	111.5887	172.6773	185.6528	284.328	314.629	383.1558	407.9034	454.1109	524.5076	550.7968	592.2869	672.9127	773.673	813.5117	870.7413	966.833	1004.0874	1047.6779	1048.135	1058.5341	1094.5524	1118.1139	1170.7656	1220.3163	1282.8105	1326.7857	1394.0679	1411.575	1416.5077	1471.7632	1472.8802	1473.3348	2272.2487	2375.7218	3021.9273	3083.1613	3083.718	3101.8941	3139.0319	3146.561	3244.6962	3792.1465
CC#CC#CC1CC1O	CC#CC#C[C@H]1C[C@H]1O	
InChI=1S/C8H8O/c1-2-3-4-5-7-6-8(7)9/h7-9H,6H2,1H3	InChI=1S/C8H8O/c1-2-3-4-5-7-6-8(7)9/h7-9H,6H2,1H3/t7-,8+/m0/s1
