18
gdb 110074	2.00863	1.37083	1.03801	3.7064	80.19	-0.2522	0.0009	0.2531	1241.8407	0.144773	-401.908419	-401.898741	-401.897796	-401.943262	34.562	
C	-0.3454886235	 1.4821819497	-0.3131177649	-0.387757
C	 0.0848345885	 0.0324852791	-0.0578173366	-0.206159
C	 0.9543743943	-0.5302520578	-1.1605681117	-0.014311
C	 1.0634837698	-2.0312855975	-1.4051706051	-0.241318
C	 0.3195739967	-2.9632279215	-0.6022967145	 0.370549
C	-0.2568965124	-3.7620779963	 0.0860172762	-0.445752
N	 0.3978214066	-1.1460046486	-2.3445957157	-0.075141
C	-0.9094758976	-1.2039032226	-2.7886206974	 0.150961
O	-1.4923737703	-2.2109831299	-3.1022331495	-0.290468
H	 0.5223607521	 2.1364233086	-0.4491200627	 0.12163
H	-0.9675673927	 1.5660106126	-1.2098888686	 0.12596
H	-0.924442535	 1.8674837856	 0.5310194085	 0.12441
H	 0.6579243319	-0.0195062455	 0.8764682159	 0.116006
H	-0.7893599677	-0.6117083686	 0.0799496867	 0.124835
H	 1.8629381756	 0.0409244478	-1.355780833	 0.105566
H	 2.0221437489	-2.4065552403	-1.7585747204	 0.128512
H	-0.7839387252	-4.4719728833	 0.674662534	 0.206474
H	-1.3380592399	-0.1896574117	-2.9080962111	 0.086003
87.5643	95.5964	111.4872	127.5827	203.8163	229.3314	234.3257	298.214	362.6794	450.0802	548.3323	594.3517	627.0649	639.24	671.7999	759.1902	806.8216	876.9463	896.5764	991.9666	1026.985	1048.8172	1061.3892	1108.4198	1122.13	1154.3477	1187.2042	1284.6206	1340.5066	1360.1405	1391.3734	1412.2361	1422.5104	1447.5513	1477.4909	1499.2836	1504.7221	1803.257	2241.4671	2941.0942	3033.7052	3037.5537	3078.9748	3099.2897	3110.1354	3113.3473	3123.9888	3502.359
CCC1C(C#C)N1C=O	CC[C@H]1[C@@H](C#C)N1C=O	
InChI=1S/C7H9NO/c1-3-6-7(4-2)8(6)5-9/h1,5-7H,4H2,2H3	InChI=1S/C7H9NO/c1-3-6-7(4-2)8(6)5-9/h1,5-7H,4H2,2H3/t6-,7+,8?/m1/s1
