14
gdb 67551	2.56139	1.87371	1.53832	6.6465	60.64	-0.2497	-0.0011	0.2485	882.19	0.100503	-473.765658	-473.758578	-473.757634	-473.796992	27.475	
O	-0.0728734199	 1.4418038875	 0.0728153948	-0.458309
C	 0.0543990171	 0.0707678944	-0.0056734221	 0.226572
C	 1.2532239273	-0.6314980432	 0.7052822388	-0.145129
N	 0.9749200808	-2.0786555823	 0.6949172185	-0.314628
C	 1.5436634241	-1.4440345467	-0.5133425699	-0.074344
C	 0.3646280496	-0.7764980123	-1.2718036289	 0.031539
O	-0.91828962	-1.4492074405	-1.1536572591	-0.24702
C	-1.2750443277	-0.729648276	-0.0265091541	 0.439158
O	-2.2940141733	-0.7757370892	 0.5743150322	-0.318136
H	 0.8039871549	 1.8406259042	 0.0994052629	 0.293886
H	 1.9072529659	-0.1754728088	 1.4395232939	 0.107678
H	 1.7351577141	-2.5497392177	 1.1836982233	 0.243839
H	 2.4850810011	-1.7745186737	-0.9326016192	 0.10823
H	 0.5421597659	-0.3662483258	-2.2634632712	 0.106663
134.7951	217.2419	249.264	274.0698	321.5711	369.6418	487.2346	589.2452	693.3099	701.5625	732.5148	785.5759	828.7336	835.1471	899.2973	929.3745	945.327	976.4048	997.	1041.6711	1066.9658	1091.2619	1125.5786	1157.5805	1232.4073	1266.3006	1310.4421	1320.3591	1353.5817	1406.7299	1954.228	3149.3128	3182.583	3202.8053	3484.7773	3801.8007
OC12C3NC3C1OC2=O	O[C@]12[C@H]3N[C@H]3[C@H]1OC2=O	
InChI=1S/C5H5NO3/c7-4-5(8)2-1(6-2)3(5)9-4/h1-3,6,8H	InChI=1S/C5H5NO3/c7-4-5(8)2-1(6-2)3(5)9-4/h1-3,6,8H/t1-,2+,3-,5-/m1/s1
