20
gdb 90225	2.65437	1.6878	1.52541	2.3085	77.38	-0.213	0.0493	0.2623	994.395	0.17142	-403.055101	-403.047159	-403.046215	-403.087097	31.828	
C	-0.5325586944	 1.394504184	 0.0102936342	-0.399084
C	-0.0027906732	-0.0297876167	-0.0497927942	-0.04717
C	 1.1828178414	-0.3013620721	-1.0675395654	-0.315656
C	 2.0966999646	-0.682337266	 0.13261113	 0.201528
C	 2.8241006179	 0.4172681069	 0.9398881032	-0.128416
O	 1.6664747373	 0.5463099228	 1.8429465804	-0.342242
C	 0.9669703937	-0.4649710664	 1.0937329591	 0.370288
C	 1.0965315189	-1.950934714	 1.5181972723	-0.244972
N	 2.2949563966	-2.0713436544	 0.6081295515	-0.372617
H	 0.2707777715	 2.1040908107	 0.227849789	 0.128558
H	-0.9933875973	 1.6752976327	-0.9427845526	 0.110214
H	-1.2865234194	 1.5023908171	 0.7969403434	 0.120415
H	-0.8316479005	-0.7337642405	-0.176348989	 0.070348
H	 1.0031657466	-1.1167475525	-1.7728365267	 0.100645
H	 1.5074459825	 0.5774369517	-1.6328573941	 0.104304
H	 3.7164436382	 0.0802738138	 1.4761276839	 0.114289
H	 3.0264087973	 1.361529831	 0.4201347819	 0.098938
H	 1.3444718197	-2.1235230784	 2.569761792	 0.115986
H	 0.2346556557	-2.5739051339	 1.2469550044	 0.096208
H	 2.2264813329	-2.7894609056	-0.1038686434	 0.218437
104.4865	210.708	222.7625	234.2221	311.4601	347.2152	368.6866	423.7865	553.6289	611.7131	673.8767	714.0465	754.2752	813.1535	852.6126	864.9517	901.2812	916.47	945.6369	951.2612	973.9277	1027.1339	1058.5722	1115.4895	1134.738	1141.3619	1180.6643	1189.9239	1198.3501	1224.2264	1255.4341	1269.2783	1278.8193	1305.6367	1339.9519	1348.7246	1375.466	1411.9545	1465.4126	1488.5265	1490.1702	1496.1638	1502.4061	3014.6224	3021.2516	3033.6642	3046.1644	3050.6199	3081.0456	3089.302	3099.234	3106.5762	3114.7525	3538.723
CC1CC23COC12CN3	C[C@H]1C[C@@]23CO[C@@]12CN3	
InChI=1S/C7H11NO/c1-5-2-6-4-9-7(5,6)3-8-6/h5,8H,2-4H2,1H3	InChI=1S/C7H11NO/c1-5-2-6-4-9-7(5,6)3-8-6/h5,8H,2-4H2,1H3/t5-,6+,7-/m0/s1
