20
gdb 110371	3.28867	1.45122	1.31128	0.9051	78.23	-0.2245	0.0644	0.2889	1044.5434	0.173656	-403.068814	-403.061308	-403.060364	-403.100727	30.409	
O	 0.5814342598	 0.4387790289	 1.175464329	-0.408822
C	 0.0430661003	 0.1144084376	-0.0980472518	-0.120639
C	-1.3235703997	-0.5692612666	-0.0425025542	-0.039269
C	-1.7140444402	-1.9860499775	-0.2968749717	-0.047173
C	-0.8276739764	-3.19314762	 0.0314236935	-0.060048
C	-1.6020954508	-3.6769066749	 1.317164277	-0.203206
C	-1.0479750191	-2.3170781787	 1.8526044366	 0.016336
C	 0.2253112587	-2.6536331166	 1.0384345655	-0.239691
N	-1.9123159537	-1.3839909615	 1.0583549448	-0.138764
H	-0.1277231872	 0.8226655026	 1.7015159321	 0.290803
H	-0.0785323968	 1.0239054451	-0.7058249349	 0.093402
H	 0.7947502206	-0.4974368424	-0.6012931223	 0.121885
H	-2.1034191305	 0.1206769873	-0.367760487	 0.096789
H	-2.6074843523	-2.1806701034	-0.887900054	 0.089107
H	-0.5696625566	-3.8669281086	-0.7852189117	 0.065742
H	-2.6885071081	-3.7712131963	 1.2532867258	 0.101533
H	-1.1557799224	-4.5546077387	 1.7892394953	 0.095693
H	-1.0226710529	-2.057386289	 2.909845947	 0.069603
H	 0.7690292468	-3.4810318988	 1.4997122391	 0.096025
H	 0.9257264706	-1.8684923786	 0.7827895321	 0.120694
103.2669	130.491	244.9513	255.8881	338.7828	422.4953	544.3943	584.8164	655.2219	687.3024	700.3428	736.4911	823.0123	838.3483	861.2783	885.5383	892.1235	961.7277	991.5908	1011.2828	1035.0274	1036.5802	1044.5561	1072.9408	1083.2774	1095.7136	1118.7985	1135.0618	1152.2704	1206.1301	1216.0285	1234.5959	1238.27	1279.0262	1296.0974	1305.0638	1364.3973	1378.8001	1426.4559	1434.2087	1486.7736	1523.0295	1549.4509	2983.9582	3065.5664	3083.1217	3086.393	3096.4853	3112.3671	3122.6206	3128.8829	3134.2817	3214.7412	3816.0436
OCC1C2C3CC(C3)N12	OC[C@H]1[C@H]2[C@@H]3C[C@@H](C3)N12	
InChI=1S/C7H11NO/c9-3-6-7-4-1-5(2-4)8(6)7/h4-7,9H,1-3H2	InChI=1S/C7H11NO/c9-3-6-7-4-1-5(2-4)8(6)7/h4-7,9H,1-3H2/t4-,5+,6-,7+,8?/m0/s1
