16
gdb 131342	4.92478	1.02771	0.88984	2.7829	72.63	-0.2052	0.0348	0.24	1262.1433	0.126007	-434.05347	-434.045558	-434.044614	-434.08645	29.74	
O	-0.6478213252	 1.1519309008	-0.4029238979	-0.432591
C	-0.1789149635	-0.0901579904	-0.159752297	 0.441081
N	 1.1163417946	-0.3329989888	-0.0556248237	-0.341405
N	 1.1678211875	-1.6755576656	 0.1979383521	-0.277407
C	-0.0593082781	-2.2481724622	 0.240418943	 0.440982
C	-0.9812755657	-1.2405447146	 0.0163447518	-0.409951
N	-0.1970933727	-3.6273346732	 0.4060133145	-0.165754
C	-0.0229744864	-4.2054515912	 1.7475939265	-0.233822
C	-1.3677394383	-4.1271544928	 1.1154629109	-0.218615
H	 0.1218323089	 1.730165712	-0.4784595145	 0.300669
H	 2.0577595675	-2.1385305701	 0.2486234945	 0.270569
H	-2.0534890398	-1.3186051944	-0.0278712344	 0.105951
H	 0.5182024861	-5.1458204506	 1.7766777928	 0.127654
H	 0.1846250062	-3.5193394185	 2.5646248971	 0.131694
H	-2.061547139	-3.3944620086	 1.5192855758	 0.132617
H	-1.8251227621	-5.0124123716	 0.6849864284	 0.12833
48.3947	135.4136	182.5841	289.6789	302.0458	391.8614	416.5059	467.0373	514.8475	550.5334	696.9194	716.2926	735.045	766.3069	823.7549	887.5987	922.1067	1001.6054	1041.3114	1042.8959	1113.2351	1133.5678	1138.0565	1162.4083	1177.615	1193.0956	1225.6911	1293.0326	1347.0627	1445.9924	1489.3076	1515.5419	1554.7954	1563.7728	1617.9254	3112.7346	3116.5259	3198.5775	3212.3051	3283.6128	3691.5973	3791.3108
OC1=NNC(=C1)N1CC1	Oc1n[nH]c(c1)N1CC1	
InChI=1S/C5H7N3O/c9-5-3-4(6-7-5)8-1-2-8/h3H,1-2H2,(H2,6,7,9)	InChI=1S/C5H7N3O/c9-5-3-4(6-7-5)8-1-2-8/h3H,1-2H2,(H2,6,7,9)
