18
gdb 81814	2.14161	1.71579	1.16539	3.1029	78.01	-0.2351	0.0469	0.282	1101.9739	0.14615	-401.872136	-401.863304	-401.86236	-401.905309	33.998	
C	-0.1292546456	 1.4869862591	 0.0319795504	-0.510979
C	 0.1186944149	 0.0119548608	 0.0026102333	 0.358828
N	-0.7173252169	-0.9472714315	 0.7633327608	-0.389386
C	 0.7540569791	-0.9117824047	 0.9823782769	-0.161949
C	 1.3018700765	-1.8209669439	-0.1246147954	 0.156404
O	 0.8512743348	-3.1348721874	-0.1370667925	-0.42804
C	 0.682071567	-0.7911930797	-1.1904418049	-0.328388
C	-0.2412426273	-1.2968310312	-2.1815805743	 0.347634
C	-1.010636228	-1.7306395047	-2.9977853736	-0.442601
H	 0.7366913838	 2.0379363386	-0.3499106944	 0.128731
H	-0.9933663413	 1.7505558336	-0.5881620596	 0.14086
H	-0.326589507	 1.8340790438	 1.0521644323	 0.119407
H	-1.1562597337	-0.4365377372	 1.5279990681	 0.230726
H	 1.164734202	-0.7217725543	 1.9670199629	 0.096657
H	 2.3913265646	-1.8426682338	-0.1865714292	 0.095061
H	-0.1046763159	-3.0845646965	 0.0064106077	 0.295918
H	 1.4971868407	-0.2368396559	-1.6676647787	 0.098539
H	-1.6892342676	-2.1125818154	-3.71945848	 0.192578
99.6092	119.6899	168.5025	212.3691	239.6073	336.1286	351.6505	374.5343	489.1878	529.8912	558.2719	601.9584	622.7287	626.8652	704.9764	734.59	800.2545	846.3572	916.8562	922.9569	971.2847	1011.2623	1046.5408	1071.8476	1091.7615	1103.4302	1145.4712	1161.4813	1229.8716	1268.0697	1297.3804	1333.6797	1350.8309	1408.7361	1444.2793	1458.7706	1481.5451	1498.3573	2233.32	3026.5304	3051.0758	3092.9061	3097.5365	3101.9625	3184.9819	3483.5709	3503.8664	3745.2037
CC12NC1C(O)C2C#C	C[C@]12N[C@H]1[C@@H](O)[C@H]2C#C	
InChI=1S/C7H9NO/c1-3-4-5(9)6-7(4,2)8-6/h1,4-6,8-9H,2H3	InChI=1S/C7H9NO/c1-3-4-5(9)6-7(4,2)8-6/h1,4-6,8-9H,2H3/t4-,5+,6+,7-/m1/s1
