19
gdb 9392	5.12991	0.81559	0.73072	4.7794	73.33	-0.2658	0.036	0.3018	1534.7604	0.163724	-365.071687	-365.061909	-365.060965	-365.107077	33.339	
C	 0.0134379391	 1.373416616	-0.1078614226	-0.231166
O	 0.0480197545	-0.0331672823	-0.05475809	-0.229086
C	 0.6238335688	-0.5256132636	 1.1321350755	-0.06461
C	 0.5774796754	-2.0489301064	 1.0698241037	-0.195578
C	 1.3008379945	-2.7321133992	 2.252850267	-0.146377
C	 0.6356954138	-2.4761060584	 3.6209454828	-0.391146
C	 1.3944755646	-4.1756444031	 2.0059235556	 0.267416
N	 1.4582463325	-5.3136676295	 1.8143293297	-0.321599
H	 1.0241702939	 1.8091410714	-0.0630347149	 0.105634
H	-0.4494529979	 1.6526009316	-1.0571403118	 0.132045
H	-0.5801728211	 1.7994922384	 0.7165439139	 0.105234
H	 1.6686927401	-0.1783406745	 1.2298897323	 0.085854
H	 0.0752325195	-0.1433659025	 2.0089676356	 0.090528
H	-0.4656419429	-2.3807518269	 1.0355091663	 0.125362
H	 1.0415995206	-2.3633739484	 0.130180793	 0.131616
H	 2.3318673243	-2.3549941124	 2.2915526339	 0.127326
H	 0.6579207124	-1.4113160167	 3.8646599115	 0.129211
H	-0.4065748981	-2.807687919	 3.6105572637	 0.13924
H	 1.1577402459	-3.0175161345	 4.4135218246	 0.140096
55.6549	78.1325	107.6936	129.0168	190.1443	219.5651	233.7756	276.3195	312.687	393.2548	435.1667	559.0618	591.8609	791.9811	829.0576	926.8363	974.2344	987.1101	1054.6317	1090.7076	1122.7398	1164.974	1171.276	1191.1053	1226.3058	1245.4945	1293.1191	1309.2995	1337.5547	1363.5122	1414.8361	1429.5294	1482.5896	1486.4491	1488.6064	1496.6651	1501.8829	1506.2333	1533.1317	2357.4755	2938.8707	2970.4025	2977.3379	3014.9572	3020.7186	3051.3666	3055.1479	3101.2211	3118.2804	3126.8016	3131.5587
COCCC(C)C#N	COCC[C@@H](C)C#N	
InChI=1S/C6H11NO/c1-6(5-7)3-4-8-2/h6H,3-4H2,1-2H3	InChI=1S/C6H11NO/c1-6(5-7)3-4-8-2/h6H,3-4H2,1-2H3/t6-/m1/s1
