23
gdb 104804	2.30107	1.38287	1.1171	0.9853	86.04	-0.2365	0.0285	0.265	1240.7284	0.205094	-388.297068	-388.287362	-388.286418	-388.331441	36.845	
C	-0.5318220197	 0.8845792947	 0.0410546597	-0.392962
C	 0.0084217531	-0.5313246279	 0.2635037164	-0.228815
C	 1.127098838	-0.6471975147	 1.3209192925	 0.426582
C	 0.597461999	-0.3303299184	 2.749341739	-0.312518
C	 0.4206241291	-1.681646563	 3.3893980652	-0.062095
C	 0.9713991882	-2.6545947156	 2.6670234265	-0.062763
C	 1.6233760341	-2.1288853677	 1.4142674749	-0.316365
O	 2.1887914159	 0.277502529	 1.073352165	-0.29113
C	 2.8769216116	 0.1365195346	-0.149399566	-0.249718
H	 0.2708342077	 1.5760019302	-0.228797192	 0.12764
H	-1.2726915633	 0.890327289	-0.7643919118	 0.108873
H	-1.0191231094	 1.2840630575	 0.9352728251	 0.119115
H	-0.8022155016	-1.2031452703	 0.5716727261	 0.103675
H	 0.3783090897	-0.9314776999	-0.6885132074	 0.092971
H	 1.3434140769	 0.2744557144	 3.2796307779	 0.118677
H	-0.3262599645	 0.2571976254	 2.7344876603	 0.098889
H	-0.0802181057	-1.8138104579	 4.3422709122	 0.089378
H	 0.9941973461	-3.7044402775	 2.9386355527	 0.088771
H	 1.369164144	-2.7139278213	 0.5222734987	 0.095305
H	 2.7174275658	-2.1542183939	 1.5073640269	 0.111548
H	 3.2915225331	-0.872767624	-0.2838758945	 0.104533
H	 2.2490524633	 0.3688358895	-1.0209118489	 0.105989
H	 3.7058730488	 0.848866728	-0.1245222185	 0.124421
67.9197	118.5806	137.5089	188.4704	209.6819	228.6423	293.6912	346.5032	372.6256	402.6211	431.3422	502.1593	622.8836	685.8698	761.4529	772.8752	798.0774	875.0862	948.0702	961.28	972.6488	979.1199	992.9719	997.9702	1043.5796	1097.6862	1105.6389	1130.4884	1140.9194	1166.5591	1186.7194	1193.4395	1229.1929	1274.4926	1293.2151	1304.2376	1351.2862	1361.5541	1378.4275	1411.731	1471.5741	1475.2	1483.0207	1488.6137	1496.7783	1502.4846	1506.3015	1515.509	1694.0868	2991.9945	3014.7292	3028.7543	3033.5944	3041.4456	3045.1194	3050.13	3060.0402	3071.725	3106.7276	3107.5647	3121.2183	3178.2827	3203.9274
CCC1(CC=CC1)OC	CC[C@]1(CC=CC1)OC	
InChI=1S/C8H14O/c1-3-8(9-2)6-4-5-7-8/h4-5H,3,6-7H2,1-2H3	InChI=1S/C8H14O/c1-3-8(9-2)6-4-5-7-8/h4-5H,3,6-7H2,1-2H3
