16
gdb 20353	5.98516	1.41455	1.25834	2.8828	71.43	-0.2222	0.0232	0.2455	968.5683	0.133521	-342.793265	-342.786434	-342.78549	-342.824882	25.869	
C	 0.001871391	 1.5371059095	 0.0087968324	-0.27237
C	 1.3150972348	 0.8071395642	-0.0046396046	-0.271831
C	 0.0183905964	 0.0205271691	 0.0351486885	-0.083415
C	-0.3907860796	-0.7392615938	 1.2292999745	 0.409517
C	-1.0513777821	-1.9495205537	 1.3411930463	-0.321321
C	-1.1675954798	-2.1777421218	 2.7287334793	-0.000556
N	-0.6276487009	-1.1961265281	 3.4421083825	-0.231725
N	-0.1626322463	-0.3355598263	 2.5089551314	-0.277073
H	-0.2957696329	 2.0514271499	 0.9166531578	 0.114945
H	-0.3309356672	 2.0229550822	-0.9014364762	 0.123326
H	 1.8892881165	 0.7890299999	-0.9240399568	 0.123293
H	 1.922328255	 0.8173692135	 0.8944652492	 0.115273
H	-0.2647577877	-0.4718285113	-0.8883414568	 0.097956
H	-1.3952998932	-2.5702806362	 0.5295141464	 0.098529
H	-1.6229222733	-3.0167314082	 3.2345998378	 0.108217
H	 0.2970442292	 0.5032361413	 2.8190561785	 0.267236
48.923	170.1071	177.2097	393.8346	402.3274	508.3612	617.5966	680.0958	705.8691	787.5921	795.4719	820.5182	891.4274	907.3439	911.706	937.6873	1014.8742	1058.6083	1063.0954	1075.1321	1081.5178	1128.6683	1129.5208	1201.0233	1210.8851	1242.6192	1313.5165	1326.208	1395.7138	1458.1028	1475.3776	1498.268	1506.2501	1613.3652	3131.5784	3136.0466	3172.3867	3210.4408	3226.8092	3241.4261	3266.1031	3675.3564
C1CC1C1=CC=NN1	C1CC1c1ccn[nH]1	
InChI=1S/C6H8N2/c1-2-5(1)6-3-4-7-8-6/h3-5H,1-2H2,(H,7,8)	InChI=1S/C6H8N2/c1-2-5(1)6-3-4-7-8-6/h3-5H,1-2H2,(H,7,8)
