23
gdb 81337	2.84112	1.37267	1.24297	1.1988	85.14	-0.2531	0.0772	0.3303	1161.2092	0.206356	-388.287669	-388.278854	-388.27791	-388.320129	36.076	
C	-0.2007269711	 1.5036487371	 0.0217918497	-0.440199
C	 0.0034757884	-0.0064840521	 0.0208734002	 0.055025
C	 1.1167915214	-0.5907016426	-0.9090991784	-0.026084
C	 2.1285102545	-0.2493317413	 0.2206135166	-0.2479
C	 0.9222924886	-0.6175776048	 1.1331533889	-0.044026
C	 0.7530719251	-2.1291710722	 0.8690589304	 0.422277
C	 1.7441844713	-3.0252472032	 1.6105978608	-0.460438
O	-0.5764716784	-2.4825766315	 1.2571136673	-0.483352
C	 0.9357392903	-2.107071692	-0.6968614524	-0.280977
H	 0.7292149773	 2.0710773395	 0.1191559072	 0.112752
H	-0.6838816881	 1.824133063	-0.9082159163	 0.11237
H	-0.8553219103	 1.8010332694	 0.8484863494	 0.116355
H	-0.9683859253	-0.498257891	-0.0660023984	 0.08012
H	 1.2535065368	-0.2398367778	-1.9337496046	 0.051581
H	 3.0408233762	-0.8481593128	 0.2897665003	 0.085424
H	 2.3917806795	 0.8067157062	 0.2699415035	 0.100256
H	 0.858029933	-0.3033615596	 2.1763135327	 0.055143
H	 1.5717937079	-2.9636257259	 2.6895574343	 0.121095
H	 1.6165611029	-4.071941823	 1.3058073469	 0.102276
H	 2.7832463214	-2.7538516964	 1.4070310266	 0.117684
H	-0.6954197723	-3.4209123879	 1.0774603774	 0.271499
H	 0.0435300915	-2.5028585591	-1.1912725806	 0.091353
H	 1.8041171593	-2.6843950118	-1.0313482815	 0.087765
175.4518	196.4034	202.7702	235.4469	264.6254	278.1655	331.1137	371.7631	424.4513	463.9482	495.4618	522.0501	590.3648	759.8142	780.3634	827.2554	849.3718	872.6019	905.821	935.3775	950.7381	956.3747	1003.4277	1021.104	1042.0319	1061.2321	1084.3773	1091.7204	1099.3532	1127.7063	1161.7685	1188.4874	1223.5496	1233.031	1244.1974	1260.281	1276.5849	1285.3247	1316.1154	1380.3587	1400.2599	1409.6606	1416.0737	1484.9419	1493.0417	1493.929	1498.1904	1499.5705	1522.1154	3022.7859	3030.2441	3041.5941	3064.9434	3074.538	3087.7647	3089.3234	3090.6674	3094.158	3101.8861	3106.835	3118.787	3137.3069	3810.7145
CC1C2CC1C(C)(O)C2	C[C@H]1[C@H]2C[C@@H]1[C@@](C)(O)C2	
InChI=1S/C8H14O/c1-5-6-3-7(5)8(2,9)4-6/h5-7,9H,3-4H2,1-2H3	InChI=1S/C8H14O/c1-5-6-3-7(5)8(2,9)4-6/h5-7,9H,3-4H2,1-2H3/t5-,6-,7-,8-/m0/s1
