21
gdb 93736	2.41227	1.20802	1.10692	2.9081	78.39	-0.2516	-0.0227	0.2289	1246.9077	0.180993	-424.255237	-424.245636	-424.244692	-424.289882	35.93	
C	-0.2769198896	 1.4014074024	 0.0723664666	-0.409292
C	 0.1182229385	-0.0723822818	 0.0236967749	 0.0486
C	 0.91526028	-0.4934975265	-1.2249223249	-0.213001
C	 1.4799930771	-1.8773324786	-0.8552724365	-0.283835
C	 1.6538681384	-1.8787799417	 0.6925627066	 0.314322
O	 2.9859509262	-2.0769110046	 1.1452937736	-0.488316
C	 1.046961762	-0.5195325904	 1.1624853303	-0.276377
C	 0.8638158445	-2.9972791655	 1.3617026823	 0.143814
O	-0.1836834347	-3.4313937397	 0.9576959138	-0.257339
H	 0.6084011148	 2.0473676012	 0.0327638545	 0.109669
H	-0.9198644777	 1.6659111637	-0.7736237648	 0.116833
H	-0.8230533941	 1.6402532511	 0.990995821	 0.115777
H	-0.7899831431	-0.6882652347	 0.0681484779	 0.096074
H	 0.3070678037	-0.5112577277	-2.1338399113	 0.100095
H	 1.7271101186	 0.2270758321	-1.3952583448	 0.086319
H	 0.7662743643	-2.6601727171	-1.1268395683	 0.128525
H	 2.4326693361	-2.111322369	-1.3368758841	 0.101414
H	 3.5155436688	-1.3263573577	 0.8583101911	 0.278655
H	 1.8759782347	 0.1943948892	 1.2719833204	 0.087898
H	 0.5534657249	-0.5817564236	 2.1377860296	 0.106293
H	 1.3340252764	-3.3594819511	 2.301943662	 0.093875
47.9718	89.9288	160.8732	233.7997	235.8696	260.454	263.0837	305.1911	396.1621	413.209	446.2778	515.3637	564.2944	621.7534	739.4356	820.3448	863.4394	889.019	924.1934	945.3749	968.0274	993.782	1012.7428	1055.2619	1092.862	1106.7247	1144.9656	1171.3816	1182.5703	1242.5536	1253.5575	1280.184	1316.8432	1326.7765	1353.2148	1383.1381	1386.7759	1410.7748	1414.4403	1480.1106	1481.3516	1496.9695	1498.7441	1505.3059	1832.9651	2903.6107	3005.1518	3010.8142	3022.9948	3029.8801	3061.8997	3075.2673	3084.4692	3092.3793	3099.0045	3112.7671	3820.3742
CC1CCC(O)(C1)C=O	C[C@H]1CC[C@@](O)(C1)C=O	
InChI=1S/C7H12O2/c1-6-2-3-7(9,4-6)5-8/h5-6,9H,2-4H2,1H3	InChI=1S/C7H12O2/c1-6-2-3-7(9,4-6)5-8/h5-6,9H,2-4H2,1H3/t6-,7+/m0/s1
