16
gdb 15593	3.56621	1.801	1.40362	4.4936	64.33	-0.2443	0.0239	0.2683	889.8251	0.132379	-379.929076	-379.921474	-379.92053	-379.961343	28.067	
O	-0.3713590786	 1.4872765161	-0.2934161631	-0.42756
C	-0.050921175	 0.1368224655	-0.0405202977	 0.116831
C	-1.3687946996	-0.6351094745	 0.0372390407	-0.221765
C	-1.7165057455	-0.8278908549	-1.4469197014	-0.160002
N	-0.4273441493	-1.0515164966	-2.1321440149	-0.292011
C	 0.6500939706	-0.5575789141	-1.260381573	-0.161338
C	 1.5424598332	 0.3894899621	-1.9467625711	 0.293876
N	 2.2515330095	 1.1659166909	-2.4274973458	-0.333131
H	 0.4309192959	 1.9598272007	-0.5465873873	 0.300751
H	 0.5689839469	 0.0348496315	 0.8601611607	 0.079541
H	-1.2054673966	-1.6000813897	 0.5295518171	 0.099206
H	-2.1175808558	-0.0743289103	 0.6002469773	 0.122184
H	-2.3941705089	-1.6650559732	-1.6313216666	 0.105339
H	-2.1875377728	 0.0797439617	-1.838597995	 0.130132
H	-0.2856941094	-2.0304264061	-2.3384706649	 0.230406
H	 1.2785570854	-1.376005819	-0.885128715	 0.11754
52.8161	147.9861	197.5426	226.2235	359.3851	386.609	412.0566	520.0188	559.7068	624.7114	669.6241	798.1401	853.7734	873.4918	909.9567	927.9821	1006.7135	1011.477	1024.8275	1110.2124	1122.4971	1204.031	1224.4131	1248.1026	1288.1737	1330.0149	1345.706	1354.9277	1377.2162	1420.3352	1455.3992	1478.5115	1510.1046	2350.8235	3009.1657	3022.3142	3048.9934	3053.8123	3102.0394	3123.1345	3578.3636	3786.1224
OC1CCNC1C#N	O[C@H]1CCN[C@H]1C#N	
InChI=1S/C5H8N2O/c6-3-4-5(8)1-2-7-4/h4-5,7-8H,1-2H2	InChI=1S/C5H8N2O/c6-3-4-5(8)1-2-7-4/h4-5,7-8H,1-2H2/t4-,5-/m0/s1
