17
gdb 73072	3.35508	0.95989	0.84817	2.4979	69.65	-0.2457	-0.0221	0.2237	1345.3536	0.133456	-458.912099	-458.903317	-458.902373	-458.946713	31.699	
O	 0.0086291265	 1.4722731603	-0.0777917958	-0.447673
C	 0.013278112	 0.0963793591	-0.0160365448	 0.288092
C	-0.9726515797	-0.8056370228	-0.756370069	-0.151397
O	-1.046869792	-1.699795357	 0.3902886131	-0.281059
C	-0.2244609083	-0.8178022987	 1.1588991358	 0.028873
C	 1.1604728049	-0.7205777732	 0.5569782069	-0.135691
C	 1.8537104445	-1.8770593498	-0.1418389881	-0.311711
C	 2.6714064059	-2.6987247808	 0.8321722054	 0.164304
O	 3.8320863439	-2.9831139547	 0.6869839317	-0.240635
H	 0.7227325776	 1.7580942955	-0.6583242271	 0.293982
H	-1.9360812817	-0.3122282511	-0.9226832238	 0.123999
H	-0.6450135742	-1.3163249317	-1.6692821957	 0.106991
H	-0.4786982664	-0.653093493	 2.1989246109	 0.11853
H	 1.8063538118	-0.0786748703	 1.1548731379	 0.106695
H	 1.0864585645	-2.5420775751	-0.5596519576	 0.13997
H	 2.5086024688	-1.5430566277	-0.9521858927	 0.116257
H	 2.104721882	-3.0326082591	 1.7318598831	 0.080472
44.3547	61.0046	161.3783	205.487	241.2295	297.6261	309.7414	381.4854	460.0031	500.2615	585.1121	646.5452	770.6754	816.5725	841.1923	920.9961	933.5129	984.2927	996.8806	1015.1963	1063.1062	1075.1068	1092.4012	1114.212	1148.9834	1213.5075	1228.3482	1264.2286	1277.032	1297.9498	1329.9694	1361.307	1426.3461	1451.2982	1484.2542	1515.2879	1834.8189	2869.258	3029.3794	3031.7156	3087.1428	3094.4409	3129.2872	3192.5991	3794.9092
OC12COC1C2CC=O	O[C@]12CO[C@H]1[C@H]2CC=O	
InChI=1S/C6H8O3/c7-2-1-4-5-6(4,8)3-9-5/h2,4-5,8H,1,3H2	InChI=1S/C6H8O3/c7-2-1-4-5-6(4,8)3-9-5/h2,4-5,8H,1,3H2/t4-,5+,6+/m1/s1
