19
gdb 68431	2.65115	1.58808	1.24124	1.3571	80.74	-0.2503	0.045	0.2953	1059.6191	0.159258	-385.8482	-385.839928	-385.838984	-385.880761	32.909	
O	-0.1268829933	 1.3807522606	-0.0245296624	-0.484367
C	-0.0563872316	-0.0048781808	 0.016214737	 0.432118
C	 0.3580944599	-0.8125671801	 1.2889518795	-0.2922
C	-0.4276719371	-1.9381429224	 0.561982073	-0.021094
C	-1.3714895017	-0.8178618326	 0.0365890774	-0.26563
C	 0.4623241582	-2.2149567012	-0.6663935101	-0.230474
C	 0.775784068	-0.7309534363	-1.0896013494	-0.253637
C	 0.3967715218	-0.3833064607	-2.4484636008	 0.328018
C	 0.0817627183	-0.0941546841	-3.5726532685	-0.457738
H	 0.7316176268	 1.7323563683	-0.2828188823	 0.282206
H	 1.4229964943	-0.9678844676	 1.4914215597	 0.082346
H	-0.1523069566	-0.4396950812	 2.178940686	 0.103248
H	-0.8143478534	-2.8023380962	 1.0991413779	 0.067121
H	-2.057979716	-0.4504641525	 0.8018563591	 0.10478
H	-1.8937950081	-0.9703868517	-0.9110517806	 0.104589
H	 1.3718813926	-2.7678411556	-0.4164342987	 0.101297
H	-0.0636416968	-2.7539920655	-1.4572835926	 0.114607
H	 1.8413305522	-0.5068380079	-0.9499682304	 0.091841
H	-0.1973899076	 0.1635740675	-4.5640989936	 0.192967
97.9584	127.7005	155.8964	276.5004	339.4899	382.5045	417.4197	465.5811	493.0569	572.4577	604.6529	624.3625	628.3459	697.4637	806.416	831.2119	856.1558	899.1006	913.9899	951.1563	989.5912	996.6237	1021.4585	1050.6927	1083.8044	1094.9849	1123.1274	1156.0984	1184.0894	1209.5685	1232.183	1253.1995	1275.3661	1303.0931	1312.3582	1346.4543	1390.2776	1482.8094	1494.4214	1526.346	2232.1431	3014.9222	3046.1102	3062.3414	3068.1232	3114.2655	3122.5854	3129.3818	3133.3059	3504.2999	3810.6116
OC12CC(C1)CC2C#C	O[C@@]12C[C@@H](C1)C[C@H]2C#C	
InChI=1S/C8H10O/c1-2-7-3-6-4-8(7,9)5-6/h1,6-7,9H,3-5H2	InChI=1S/C8H10O/c1-2-7-3-6-4-8(7,9)5-6/h1,6-7,9H,3-5H2/t6-,7-,8-/m1/s1
