19
gdb 90512	2.72646	1.29348	1.05092	1.3961	80.5	-0.2356	0.0581	0.2936	1193.3447	0.157622	-385.811915	-385.803113	-385.802168	-385.845417	33.665	
C	 1.014931484	 2.0408553032	 2.9981796095	-0.421192
C	 0.5213951268	 0.6700049871	 2.581700305	 0.154277
O	 0.0213771363	 0.5759083176	 1.2080347646	-0.304796
C	 0.7239516335	-0.6569848536	 1.0251184624	 0.05752
C	 2.200668523	-0.4374321491	 1.0257875264	-0.020633
C	 2.8500456744	 0.7895300387	 0.3969048287	-0.397822
C	 4.0302291178	 1.2646583327	 1.1104104296	 0.325185
C	 4.9993413177	 1.644187193	 1.7125699872	-0.470486
C	 1.453032183	-0.5199984338	 2.3484002385	-0.166905
H	 0.2258464093	 2.7834355406	 2.8395832517	 0.126348
H	 1.2527564288	 2.0287684758	 4.0674481696	 0.119858
H	 1.9102621117	 2.354001737	 2.459693974	 0.140161
H	-0.2946595097	 0.3595632536	 3.2488519583	 0.08474
H	 0.1915057274	-1.4749988639	 0.5526163686	 0.102974
H	 2.7570293749	-1.358171146	 0.8605389959	 0.100526
H	 3.1273911934	 0.5402536018	-0.6357593286	 0.129421
H	 2.1039267572	 1.5871772632	 0.3250214842	 0.149202
H	 5.8579763873	 1.9850303805	 2.235718225	 0.194186
H	 1.6987313834	-1.2671360486	 3.0911750395	 0.097436
69.9387	113.3468	183.3074	207.4087	234.7608	288.6496	359.2053	369.7668	495.138	562.1038	608.798	621.4187	631.1878	693.2434	766.2889	803.6771	844.7304	888.4167	936.703	958.1464	996.2127	1005.4304	1037.0544	1052.375	1056.6567	1095.3142	1125.6021	1160.296	1180.9599	1238.8013	1262.901	1310.0977	1315.49	1352.2328	1395.8088	1413.1307	1442.3368	1475.0347	1491.7721	1496.2404	2236.0537	3004.3072	3024.4235	3042.2697	3077.0216	3102.9948	3133.3001	3147.8447	3171.7663	3201.3532	3506.7651
CC1OC2C(CC#C)C12	C[C@H]1O[C@H]2[C@@H](CC#C)[C@@H]12	
InChI=1S/C8H10O/c1-3-4-6-7-5(2)9-8(6)7/h1,5-8H,4H2,2H3	InChI=1S/C8H10O/c1-3-4-6-7-5(2)9-8(6)7/h1,5-8H,4H2,2H3/t5-,6+,7-,8+/m1/s1
