15
gdb 93621	2.61885	1.40396	1.12278	0.6338	66.9	-0.2583	-0.0478	0.2105	1087.8649	0.110559	-457.730563	-457.722116	-457.721171	-457.764072	31.035	
O	 0.1772087884	 1.3954502052	 0.2547052262	-0.433096
C	-0.0772520638	 0.0473982519	-0.0118949206	 0.043679
C	-1.4993939635	-0.2811807296	-0.4749953425	-0.127775
O	-1.3508915247	-1.5482508637	-1.128392178	-0.245898
C	-0.1675660416	-1.5060288716	-1.9233909671	-0.197473
C	-0.4185694303	-1.1011306661	-3.3041422105	 0.359385
C	-0.633737728	-0.7443567321	-4.4308087478	-0.449107
C	 0.7309433688	-0.4735357285	-1.1989776258	 0.349323
O	 1.814818759	-0.0722183977	-1.5206408638	-0.309664
H	 1.0667832898	 1.5795565027	-0.0798264793	 0.29789
H	 0.1632365477	-0.5966293615	 0.8531101236	 0.107709
H	-2.2180070076	-0.4166171274	 0.3335719327	 0.129433
H	-1.862477226	 0.4951974568	-1.162723011	 0.121669
H	 0.2953116667	-2.4994822954	-1.8954411957	 0.143838
H	-0.8209939847	-0.4406718929	-5.4314899204	 0.210087
49.9584	125.5478	154.5261	250.7979	264.3381	349.6514	354.5984	413.9451	470.961	552.0481	593.1869	637.9829	651.8473	675.8378	685.5669	850.0633	921.4234	969.1013	1000.3103	1059.2924	1073.4342	1100.7593	1178.0299	1214.5679	1238.9713	1266.5742	1307.7391	1330.7259	1382.8112	1407.3023	1513.8924	1864.7181	2236.0971	2947.7772	3019.9405	3045.8209	3132.9042	3501.2572	3735.6953
OC1COC(C#C)C1=O	O[C@H]1CO[C@@H](C#C)C1=O	
InChI=1S/C6H6O3/c1-2-5-6(8)4(7)3-9-5/h1,4-5,7H,3H2	InChI=1S/C6H6O3/c1-2-5-6(8)4(7)3-9-5/h1,4-5,7H,3H2/t4-,5-/m0/s1
