21
gdb 122790	6.53069	0.50699	0.47741	3.9262	84.19	-0.2358	-0.0663	0.1695	2280.8267	0.180668	-420.426667	-420.415771	-420.414827	-420.464449	37.485	
C	 0.0755647531	 1.5766964273	 0.036132896	-0.38167
C	-0.0329345664	 0.0517393219	-0.0395975695	-0.162759
C	 0.7187465571	-0.5433274875	-1.234805399	-0.195345
C	 0.6053973338	-2.0647945788	-1.3029152645	-0.12152
N	 1.3228739509	-2.5950701844	-2.450387258	-0.332692
C	 1.5703415456	-3.9313890484	-2.5865029819	 0.288531
N	 1.3095275787	-4.7912899854	-1.6756932977	-0.516868
C	 2.2224814793	-4.2996219791	-3.9022014249	 0.107856
O	 2.5296568579	-5.4271990269	-4.1839266832	-0.235015
H	 1.1196084521	 1.8956827008	 0.1283564075	 0.116546
H	-0.3359421725	 2.0492945278	-0.8627885358	 0.114343
H	-0.4702281882	 1.9713785578	 0.8983798388	 0.116447
H	 0.3557950672	-0.3909011412	 0.8864356123	 0.104808
H	-1.0897161543	-0.2397263465	-0.0949068529	 0.101546
H	 0.3247133811	-0.1041186155	-2.1635657771	 0.090029
H	 1.7788809937	-0.2634783199	-1.1853751294	 0.106043
H	 1.0314984021	-2.5308924163	-0.408878541	 0.140746
H	-0.4516873402	-2.3711587649	-1.3311750541	 0.110198
H	 1.3319891683	-2.0328779157	-3.2871624807	 0.239112
H	 1.6370429122	-5.7039264686	-1.9981815073	 0.233175
H	 2.4059689684	-3.4560181665	-4.6074508874	 0.076488
27.3207	57.2857	77.5364	114.8308	136.3934	210.2066	214.1678	252.0695	262.2908	339.7091	368.8891	416.3608	513.0263	575.6759	738.5483	741.6222	799.915	869.9094	901.8007	939.978	952.8458	1023.6669	1027.3867	1063.914	1073.9538	1145.2683	1178.5735	1180.6306	1247.3826	1281.5416	1309.1006	1324.121	1331.5529	1382.2914	1406.5484	1415.8091	1435.1433	1485.8229	1493.6458	1501.	1508.3729	1520.9187	1548.8707	1698.6954	1834.787	2863.3615	2989.486	2996.79	3020.7058	3030.8791	3039.4742	3058.7246	3082.9728	3097.4803	3105.5492	3467.1407	3622.179
CCCCNC(=N)C=O	CCCCNC(=N)C=O	
InChI=1S/C6H12N2O/c1-2-3-4-8-6(7)5-9/h5H,2-4H2,1H3,(H2,7,8)	InChI=1S/C6H12N2O/c1-2-3-4-8-6(7)5-9/h5H,2-4H2,1H3,(H2,7,8)
