15
gdb 50910	2.08339	1.40996	0.9338	3.5849	68.22	-0.2823	-0.0051	0.2772	1214.4156	0.110991	-453.912664	-453.903872	-453.902928	-453.947194	30.396	
N	 0.0078787241	 1.0373212327	-0.460151648	-0.436128
C	 0.0199550579	-0.2016357127	-0.2548295291	 0.149687
O	-1.0431987185	-0.7736760091	 0.3797624048	-0.18832
C	-1.070543751	-2.1873140258	 0.4174232349	-0.085283
C	-1.7923924024	-2.6068887509	 1.627496773	 0.289622
N	-2.366281362	-2.9865207566	 2.5542083762	-0.300354
C	-1.7351738376	-2.7782315983	-0.8268506104	 0.074827
C	-2.6149960938	-1.9692481421	-1.6719550208	-0.170064
O	-1.2550088269	-2.2506005558	-2.0502474266	-0.236826
H	 0.8717476004	 1.3301940063	-0.9112461311	 0.24023
H	 0.8095849066	-0.91674967	-0.512046914	 0.108093
H	-0.0470615628	-2.5871467665	 0.4822763762	 0.139926
H	-1.8568825536	-3.8610147454	-0.7905328134	 0.122794
H	-3.371285619	-2.4655008295	-2.2752291627	 0.134576
H	-2.8105568413	-0.9362384262	-1.399616299	 0.15722
62.5289	85.1422	137.9451	148.1962	164.5958	262.8839	342.6473	370.3331	487.8928	496.7464	579.2385	686.7214	811.533	824.4157	885.1131	960.5473	986.684	1013.4871	1031.7207	1049.8254	1104.756	1146.355	1166.7002	1173.0566	1264.6125	1276.0737	1312.1112	1358.6303	1419.824	1432.4104	1521.687	1755.0316	2372.9428	2999.9424	3056.7468	3111.093	3118.9765	3213.2375	3527.2171
N=COC(C#N)C1CO1	[NH][CH]O[C@@H](C#N)[C@H]1CO1	
InChI=1S/C5H6N2O2/c6-1-4(9-3-7)5-2-8-5/h3-5,7H,2H2	InChI=1S/C5H6N2O2/c6-1-4(9-3-7)5-2-8-5/h3-5,7H,2H2/t4-,5+/m0/s1
