16
gdb 61734	3.62983	0.65273	0.59076	2.2053	79.38	-0.2642	-0.0703	0.1938	1810.3771	0.121441	-437.887198	-437.876999	-437.876055	-437.925145	33.591	
C	 0.2327779083	 1.7219933517	 0.0662621946	-0.386206
C	 0.0731507288	 0.1900120474	-0.014152994	-0.128482
N	 0.6770695696	-0.364974238	-1.2244642759	-0.277107
C	-0.0673747483	-0.6369008574	-2.3305118725	 0.161688
O	-1.255726138	-0.416850373	-2.4312623551	-0.321856
C	 0.6177718462	-0.4661010423	 1.1705771786	 0.107104
C	 1.1062931677	-0.9934903288	 2.1414462504	 0.018763
C	 1.6579972971	-1.6161475797	 3.3182852332	 0.024965
O	 2.6116957498	-2.3597652231	 3.3117601243	-0.226917
H	 1.2892144584	 2.001022854	 0.1050824686	 0.128471
H	-0.223638224	 2.1727766567	-0.8178301268	 0.147197
H	-0.262815095	 2.1105035755	 0.9597280275	 0.135689
H	-0.9961903183	-0.038411342	-0.0950589341	 0.16085
H	 1.6560008437	-0.6043544596	-1.211000985	 0.260759
H	 0.5406862767	-1.0839343759	-3.1399008248	 0.090185
H	 1.1304735475	-1.3562734255	 4.2580731411	 0.104896
18.2973	39.1973	71.9817	121.0065	185.9982	200.7318	235.287	246.657	307.569	399.2281	464.5821	512.43	564.8451	618.7692	740.7971	850.3975	895.1107	1021.106	1023.6561	1034.6103	1079.9283	1102.9676	1176.6994	1200.7027	1324.2567	1345.3539	1402.8891	1421.5433	1423.5913	1486.4383	1490.9279	1516.5436	1768.107	1798.8852	2327.0423	2924.9991	2955.2205	3048.6551	3054.1004	3129.0963	3138.866	3637.4476
CC(NC=O)C#CC=O	C[C@@H](NC=O)C#CC=O	
InChI=1S/C6H7NO2/c1-6(7-5-9)3-2-4-8/h4-6H,1H3,(H,7,9)	InChI=1S/C6H7NO2/c1-6(7-5-9)3-2-4-8/h4-6H,1H3,(H,7,9)/t6-/m1/s1
