18
gdb 36514	4.15134	0.95321	0.81523	3.4306	78.41	-0.2596	0.0046	0.2642	1367.4508	0.148977	-401.967477	-401.959228	-401.958284	-402.000854	30.664	
N	-0.0960899994	-1.1775424567	 0.0132438836	-0.310335
C	-0.0740059283	-0.022113	 0.0001598789	 0.267477
C	-0.0179411876	 1.4374689403	-0.012541602	-0.355711
C	 1.4300666814	 1.9827772765	 0.0387221321	-0.054302
C	 1.4124411057	 3.5136605768	-0.0859946309	-0.098383
O	 2.6929282646	 4.0602079892	 0.1452316519	-0.247791
C	 3.1428653085	 3.8619843669	 1.4731500821	-0.117917
C	 2.8941875316	 2.4689886047	 1.9790853035	-0.087779
C	 2.1362374529	 1.5993204898	 1.3161939489	-0.061573
H	-0.5211190218	 1.7945912579	-0.9189524114	 0.152517
H	-0.5914423544	 1.815124575	 0.8422730087	 0.154341
H	 1.9714829079	 1.5654694544	-0.8207812046	 0.113383
H	 1.1220594917	 3.8249841242	-1.0940973878	 0.11332
H	 0.6762102183	 3.9302127822	 0.6239378239	 0.08846
H	 4.2172179648	 4.0798216276	 1.4639671222	 0.124718
H	 2.6757499209	 4.5981025525	 2.1535073534	 0.102082
H	 3.3714984926	 2.1987884056	 2.9171985787	 0.101978
H	 1.9966753005	 0.5860545632	 1.6834055888	 0.115517
69.104	99.4665	144.6995	275.7004	288.9487	319.8426	395.6053	416.219	486.078	529.9515	586.207	712.4731	774.3888	850.1656	897.7822	928.3234	950.8947	998.1812	1002.6503	1031.3783	1062.4083	1087.5927	1104.4352	1150.0173	1213.1377	1223.4928	1246.0795	1282.1601	1313.7294	1347.0645	1358.7325	1378.8066	1410.2611	1429.3259	1465.2604	1485.0914	1498.3759	1724.5272	2361.0523	2936.5852	2952.7859	3018.9099	3037.8375	3055.1185	3076.4201	3081.2894	3156.6996	3177.9107
N#CCC1COCC=C1	N#CC[C@H]1COCC=C1	
InChI=1S/C7H9NO/c8-4-3-7-2-1-5-9-6-7/h1-2,7H,3,5-6H2	InChI=1S/C7H9NO/c8-4-3-7-2-1-5-9-6-7/h1-2,7H,3,5-6H2/t7-/m0/s1
