23
gdb 81345	2.53003	1.48239	1.18094	0.1915	91.16	-0.2188	0.0315	0.2502	1190.1249	0.207455	-351.167011	-351.158527	-351.157582	-351.199388	34.41	
C	-0.1306006131	 1.4922584771	 0.0492707621	-0.426964
C	 0.0147182672	-0.0247489081	 0.0108190359	 0.051565
C	 0.8386401337	-0.5894655852	-1.1914665699	-0.017524
C	 2.1087589458	-0.4328130769	-0.3059721725	-0.230001
C	 1.1497830966	-0.6293099993	 0.9065732266	-0.111132
C	 0.8886000603	-2.1195462331	 1.0660884109	 0.351557
C	 0.9824127335	-2.7266952152	 2.4340711711	-0.503326
C	 0.5886051825	-2.7988583851	-0.045343493	-0.16658
C	 0.519658992	-2.0829493288	-1.377284023	-0.262818
H	 0.8240928666	 2.0087676315	-0.0916848156	 0.114179
H	-0.8094533894	 1.8355152061	-0.7399605324	 0.111959
H	-0.5453431609	 1.8215937553	 1.0086237956	 0.111443
H	-0.9663597175	-0.4896837657	 0.1567774224	 0.06093
H	 0.7969596497	-0.0444356199	-2.1391013125	 0.051982
H	 2.9117368084	-1.1639322174	-0.4291141056	 0.090336
H	 2.5250984435	 0.5752080743	-0.3552010582	 0.093947
H	 1.3854526842	-0.1349230807	 1.8526533821	 0.048126
H	 0.2734375352	-2.2544832466	 3.1270937841	 0.121463
H	 0.776106882	-3.8005687377	 2.4153689476	 0.11807
H	 1.9805542347	-2.5775457993	 2.8667996587	 0.121844
H	 0.3910593953	-3.8676575206	-0.0189167115	 0.073713
H	-0.4782105779	-2.2033208269	-1.8238663587	 0.098798
H	 1.2228378476	-2.5359788479	-2.091341754	 0.098431
143.1401	199.3468	206.2305	238.695	244.2143	322.2537	334.616	387.5827	455.0644	461.1478	575.6043	648.9492	759.9445	793.3983	826.9108	841.8047	867.9751	905.9656	927.6143	939.2199	964.1823	1034.9589	1036.9334	1056.0781	1074.0035	1080.9695	1090.6337	1100.9757	1132.0755	1139.4481	1183.5363	1205.3103	1237.2496	1269.5104	1282.3114	1288.4781	1318.994	1352.3634	1362.987	1388.0492	1410.8006	1413.5407	1477.4579	1478.0124	1489.296	1491.3098	1496.8848	1504.9101	1726.1383	2994.1613	3009.8589	3016.9181	3025.7836	3039.2677	3054.0329	3055.3408	3063.1134	3071.9219	3086.2842	3100.2261	3106.1517	3117.7803	3154.1733
CC1C2CC1C(C)=CC2	C[C@H]1[C@H]2C[C@@H]1C(=CC2)C	
InChI=1S/C9H14/c1-6-3-4-8-5-9(6)7(8)2/h3,7-9H,4-5H2,1-2H3	InChI=1S/C9H14/c1-6-3-4-8-5-9(6)7(8)2/h3,7-9H,4-5H2,1-2H3/t7-,8+,9+/m0/s1
