14
gdb 29245	3.22714	1.45483	1.00899	3.2922	68.03	-0.263	-0.0507	0.2123	1097.9634	0.100838	-473.887448	-473.879686	-473.878742	-473.920097	28.293	
C	-0.1885963663	 1.5440665936	 0.0258341954	-0.474208
C	 0.004184718	 0.057469932	 0.0111796665	 0.149728
C	 0.0471920948	-0.6720923913	-1.1059134658	-0.010726
O	 0.2222414837	-2.0277292806	-1.1355858457	-0.218749
C	 0.3683269964	-2.7391975043	 0.0184446294	 0.474649
O	 0.5212980769	-3.9160566911	-0.0004599233	-0.332129
O	 0.3310205533	-2.0368997448	 1.1758703195	-0.257151
C	 0.1549396162	-0.6489526593	 1.2744482659	 0.351975
N	 0.1354418602	-0.0938553582	 2.4072061559	-0.508118
H	 0.6562078283	 2.0368229784	 0.5161899704	 0.153457
H	-0.2871817446	 1.9367465597	-0.989226653	 0.124039
H	-1.0825204168	 1.8105283161	 0.597535444	 0.153463
H	-0.0509272753	-0.2762745332	-2.1085255333	 0.151988
H	 0.2590256851	-0.775157737	 3.1567797043	 0.241785
88.2022	120.6379	161.877	276.9083	300.8668	377.153	383.9554	464.5511	535.5217	603.1336	716.2414	734.8149	763.5384	806.3054	886.634	911.6762	912.5674	1011.1981	1063.6257	1073.5151	1109.1087	1196.3761	1230.6905	1352.5326	1409.962	1420.3646	1467.9444	1488.5904	1719.7434	1754.4859	1914.5625	3046.0937	3108.5565	3127.6482	3227.2106	3496.0974
CC1=COC(=O)OC1=N	CC1=C(OC(=O)O[CH]1)[NH]	
InChI=1S/C5H5NO3/c1-3-2-8-5(7)9-4(3)6/h2,6H,1H3	InChI=1S/C5H5NO3/c1-3-2-8-5(7)9-4(3)6/h2,6H,1H3
