23
gdb 120262	2.99908	0.97917	0.85833	1.7548	85.3	-0.2471	0.0837	0.3308	1475.5674	0.204547	-388.260553	-388.250805	-388.249861	-388.295526	36.42	
C	-0.0178616587	 1.6497545226	 0.2093893348	-0.378768
C	-0.0102989611	 0.1292134257	 0.0306038397	-0.172432
C	-1.4126285263	-0.4880369358	 0.1078612341	-0.177816
C	-1.4356250465	-2.0064104715	-0.0432042849	-0.040219
C	-2.7901559175	-2.7107981331	 0.118651695	 0.00511
O	-3.6260746192	-2.309889448	-0.9769390543	-0.251305
C	-2.6775626548	-3.364394098	-1.1910530074	 0.021924
C	-1.3184765024	-2.7043627078	-1.4752503912	-0.026033
C	-1.2286478441	-1.8685870033	-2.7454460412	-0.411587
H	 0.9935678671	 2.0648521948	 0.1564116556	 0.109622
H	-0.6188936128	 2.1363236544	-0.5667819363	 0.115549
H	-0.4433169691	 1.9314892225	 1.1791676588	 0.113153
H	 0.4538294254	-0.1228718627	-0.930658401	 0.100417
H	 0.626119336	-0.3271940944	 0.8008675402	 0.091307
H	-1.8557719647	-0.2333265103	 1.0815219306	 0.089877
H	-2.0660136786	-0.0341526049	-0.6453974212	 0.108993
H	-0.6994075124	-2.4580162145	 0.6321367575	 0.07037
H	-3.2912040159	-3.0271392938	 1.0272019916	 0.096607
H	-3.0679399783	-4.3123669723	-1.5447029948	 0.097674
H	-0.5159811383	-3.4485373724	-1.4501720483	 0.073586
H	-2.0631177336	-1.1658232267	-2.8090131807	 0.135185
H	-0.2938556294	-1.3019710327	-2.7945004113	 0.116804
H	-1.2677323646	-2.5151802877	-3.6295535454	 0.111982
70.8531	80.0443	111.6915	189.4065	213.6479	233.28	252.3196	276.4155	341.5704	412.6991	566.4413	599.8089	708.5339	726.5006	767.052	835.3719	860.9083	863.5892	903.5077	908.4336	924.8277	992.3253	1022.3951	1043.9404	1054.5377	1056.8811	1075.8113	1111.6121	1153.3076	1176.0382	1207.8858	1237.5479	1246.2105	1258.561	1277.633	1303.448	1327.4459	1358.3932	1370.5488	1382.8292	1400.9539	1410.6933	1414.7089	1481.6842	1489.4315	1495.3687	1499.3426	1505.5934	1511.6258	3006.0368	3016.0292	3028.801	3033.91	3035.1453	3049.3877	3058.6545	3072.9852	3094.9763	3097.8234	3100.6253	3124.638	3168.6888	3184.612
CCCC1C2OC2C1C	CCC[C@H]1[C@H]2O[C@H]2[C@H]1C	
InChI=1S/C8H14O/c1-3-4-6-5(2)7-8(6)9-7/h5-8H,3-4H2,1-2H3	InChI=1S/C8H14O/c1-3-4-6-5(2)7-8(6)9-7/h5-8H,3-4H2,1-2H3/t5-,6+,7-,8+/m0/s1
