18
gdb 47087	2.58167	1.82882	1.28939	4.0184	71.67	-0.2526	0.0166	0.2692	999.6062	0.150934	-439.106757	-439.099365	-439.098421	-439.13983	28.04	
N	-0.2518263862	 1.1889515013	 0.2400685341	-0.527635
C	-0.1219265392	-0.0650599844	 0.229632195	 0.379435
O	 0.9788373342	-0.740332627	 0.6704935914	-0.234869
C	 0.8815196052	-2.1428803125	 0.3739941582	-0.107475
C	-0.594345789	-2.4420551763	 0.066918648	-0.064644
C	-1.4583062021	-2.9264538877	 1.2600424766	-0.236329
C	-2.2308397953	-1.66416645	 1.678580146	-0.088273
O	-2.4045210046	-0.9287423709	 0.4735930476	-0.238699
C	-1.1955450313	-1.0460542538	-0.2506586562	 0.019006
H	 0.5848448154	 1.6353054631	 0.6211283811	 0.22156
H	 1.5255403423	-2.3602610985	-0.4864200893	 0.114521
H	 1.2659293952	-2.692167828	 1.2377007801	 0.119139
H	-0.6730445255	-3.1303543202	-0.7749664123	 0.091822
H	-2.1550968239	-3.6984353134	 0.9238023416	 0.115164
H	-0.8605523718	-3.346070912	 2.0734117453	 0.105627
H	-3.2219334202	-1.8647795667	 2.0912005103	 0.114919
H	-1.6606392194	-1.0757525454	 2.4136915939	 0.105637
H	-1.4255320537	-0.8649064875	-1.3023270915	 0.111093
29.8769	106.3616	174.5583	317.2298	368.629	449.3637	542.6155	620.8577	658.6404	709.2684	758.6214	820.1482	881.6734	895.3356	901.3859	938.6761	959.9902	974.0001	980.7534	1025.5452	1077.6089	1110.2109	1133.2958	1138.8744	1196.4417	1229.575	1245.2586	1249.6789	1278.4082	1300.2724	1312.534	1347.4209	1350.0244	1389.052	1413.4588	1489.6924	1520.7686	1525.0654	1775.6284	2989.96	3030.9361	3062.2859	3088.7887	3093.3793	3102.2882	3104.7746	3116.4345	3466.7169
N=C1OCC2CCOC12	[NH][C]1OC[C@H]2CCO[C@@H]12	
InChI=1S/C6H9NO2/c7-6-5-4(3-9-6)1-2-8-5/h4-5,7H,1-3H2	InChI=1S/C6H9NO2/c7-6-5-4(3-9-6)1-2-8-5/h4-5,7H,1-3H2/t4-,5-/m1/s1
