19
gdb 64039	2.23087	1.51448	1.15214	3.6203	77.14	-0.2408	-0.0294	0.2114	1130.5043	0.15716	-423.044795	-423.035673	-423.034729	-423.078846	34.275	
C	-0.601208279	 1.4334721076	 0.1405311246	-0.456015
C	 0.0309444765	 0.0463425914	 0.0150614225	 0.366154
O	-0.9805088494	-0.9178359692	-0.2805674935	-0.469668
C	 1.1670617655	-0.0353942361	-1.048114008	-0.292243
C	 2.1288086834	-1.0376666248	-0.4662465282	-0.059272
C	 1.8552363756	-1.3138901612	 0.8075418992	-0.092969
C	 0.6836726087	-0.5080604427	 1.3276330575	-0.132047
C	 1.1961808117	 0.572914343	 2.2664024467	 0.148328
O	 0.8611116812	 0.7002192168	 3.4152358081	-0.25177
H	 0.1349167748	 2.2042957416	 0.3885637999	 0.120896
H	-1.0654859403	 1.7219202812	-0.8103014944	 0.10712
H	-1.3771418196	 1.4314495218	 0.9110196407	 0.138538
H	-1.4196386527	-0.6423218272	-1.093053641	 0.275346
H	 0.7611761337	-0.3434557217	-2.0198157171	 0.099431
H	 1.6493932078	 0.9388039573	-1.2058459096	 0.107945
H	 2.9399691602	-1.4740673311	-1.0383810093	 0.101013
H	 2.4105657455	-1.9941575852	 1.4426000569	 0.107065
H	-0.0549342776	-1.0990216658	 1.8752750302	 0.108962
H	 1.960057964	 1.2471333041	 1.8128156448	 0.073186
58.7332	73.1973	195.928	251.9217	265.8012	279.8286	320.5324	369.0654	377.0876	434.1184	485.4114	512.9771	612.3164	732.2666	774.0052	807.0236	908.8019	941.6673	946.8323	961.2763	976.6667	988.2066	1044.6565	1073.6175	1114.3239	1123.9865	1131.9227	1176.3581	1214.7073	1263.9401	1284.713	1308.1765	1349.8903	1381.3682	1411.9351	1424.1517	1469.8063	1492.0759	1495.3093	1681.2116	1827.31	2853.109	3013.9867	3029.0112	3048.595	3086.9159	3093.6965	3120.3438	3187.4914	3213.1002	3795.7348
CC1(O)CC=CC1C=O	C[C@@]1(O)CC=C[C@H]1C=O	
InChI=1S/C7H10O2/c1-7(9)4-2-3-6(7)5-8/h2-3,5-6,9H,4H2,1H3	InChI=1S/C7H10O2/c1-7(9)4-2-3-6(7)5-8/h2-3,5-6,9H,4H2,1H3/t6-,7+/m0/s1
