15
gdb 28043	4.15862	0.96871	0.8523	2.7808	73.27	-0.2012	0.0183	0.2195	1310.8978	0.112764	-416.80167	-416.793419	-416.792474	-416.835425	30.497	
O	 0.1966164787	 1.3639859041	-0.0810393831	-0.434574
C	 0.0971372212	 0.0173599081	-0.0685558849	 0.347293
C	 0.2621658626	-0.8327685351	-1.131954716	-0.229882
N	 0.0555064985	-2.0976019501	-0.5962685443	 0.032258
C	 0.1064219465	-3.3594101837	-1.3176429495	-0.329235
C	 1.4308770747	-3.677644413	-1.8471335268	 0.321347
C	 2.5121684042	-3.9428713794	-2.2962247411	-0.441739
C	-0.2126107847	-1.933978637	 0.7231850645	 0.007672
N	-0.198048728	-0.6634997294	 1.0772598378	-0.360092
H	 0.0282794559	 1.6524855377	 0.8242805867	 0.300363
H	 0.5111195348	-0.6762326533	-2.1660610328	 0.135275
H	-0.2204031372	-4.1430011631	-0.6260356757	 0.153678
H	-0.6229980976	-3.3373256887	-2.1370655152	 0.155378
H	 3.4722910029	-4.1757287821	-2.6865631402	 0.210915
H	-0.4133540624	-2.7710134849	 1.3752737406	 0.131343
36.3606	81.2659	209.4542	279.6017	324.354	345.7258	373.4539	453.3433	460.9954	625.4695	632.8244	649.0128	674.8355	685.3356	729.8509	788.6993	796.3914	955.2223	975.8552	1012.6366	1048.4685	1160.4906	1212.2933	1224.8114	1278.1172	1351.9808	1390.6434	1413.8535	1455.5698	1469.5202	1538.8088	1659.2322	2246.8372	3028.4916	3077.0398	3248.5753	3295.7978	3503.9359	3802.7182
OC1=CN(CC#C)C=N1	Oc1cn(CC#C)cn1	
InChI=1S/C6H6N2O/c1-2-3-8-4-6(9)7-5-8/h1,4-5,9H,3H2	InChI=1S/C6H6N2O/c1-2-3-8-4-6(9)7-5-8/h1,4-5,9H,3H2
