16
gdb 22594	2.98153	1.23947	1.04237	0.9176	70.13	-0.2534	-0.003	0.2504	1159.4061	0.121582	-474.898104	-474.889532	-474.888588	-474.93111	32.368	
C	 0.0293654223	 1.4250424897	-0.0485542771	-0.525312
C	-0.053192444	-0.0562510587	 0.0918262308	 0.24613
O	 0.6006750784	-0.9318210052	-0.9644111269	-0.375832
C	 0.0137614187	-1.9143066581	 0.004370318	-0.10998
C	 0.6077905036	-1.0245249552	 1.1450602331	 0.160703
O	 1.9860563575	-0.9740439995	 1.2701424672	-0.448189
C	-1.2119563519	-1.0255354447	 0.0265356376	 0.495737
N	-2.466289309	-0.9705880886	-0.0500269502	-0.311738
O	-3.0357251645	-2.2562160431	-0.1392742818	-0.391192
H	 1.0662256473	 1.7576032741	 0.0557732986	 0.139788
H	-0.3523966809	 1.7434426399	-1.0221357321	 0.148692
H	-0.5688884179	 1.9028388673	 0.7328504252	 0.14453
H	 0.1317874433	-2.9725034806	-0.2120715595	 0.118063
H	 0.1551407671	-1.0862863659	 2.1366402778	 0.107752
H	 2.3220017339	-0.9403854551	 0.3616081258	 0.290719
H	-3.975690204	-2.0547799663	-0.2037250264	 0.31013
114.0507	150.257	172.6133	198.7859	260.8089	321.4395	339.0943	379.0921	423.9951	541.2701	582.856	618.134	667.2304	720.8237	738.0968	774.1588	825.4119	853.2008	925.2069	962.0765	1046.4099	1094.109	1108.3711	1134.386	1171.8831	1184.2219	1212.448	1300.6358	1346.2225	1407.7589	1427.6402	1453.8796	1474.7781	1484.3491	1835.922	3046.7246	3107.2765	3121.5911	3127.1099	3171.0158	3727.1965	3815.9571
CC12OC(C1O)C2=NO	C[C@@]12O[C@@H]([C@H]1O)C2=NO	
InChI=1S/C5H7NO3/c1-5-3(6-8)2(9-5)4(5)7/h2,4,7-8H,1H3	InChI=1S/C5H7NO3/c1-5-3(6-8)2(9-5)4(5)7/h2,4,7-8H,1H3/t2-,4-,5+/m1/s1
