18
gdb 100377	1.82609	1.37278	0.98069	4.1619	73.99	-0.289	-0.0121	0.2769	1279.5394	0.144166	-439.123508	-439.113307	-439.112363	-439.158799	35.743	
C	 0.0524719707	 1.5593601334	 0.1185116338	-0.412025
C	 0.0574069978	 0.037585504	-0.0452987992	-0.187568
C	 0.683520301	-0.458216141	-1.3684632483	 0.188019
C	-0.025404925	 0.0794232638	-2.620070977	-0.414701
O	 2.053568373	 0.0052927909	-1.3415418167	-0.222599
C	 2.9646312692	-0.529871627	-2.1909718736	 0.167038
O	 4.0721776289	-0.096269646	-2.2729052226	-0.262905
C	 0.638747979	-1.9376988538	-1.3678387481	 0.263398
N	 0.5706330568	-3.0912148523	-1.3597311901	-0.32586
H	 1.0602483846	 1.9680039237	 0.015916091	 0.150448
H	-0.5965406318	 2.0508091271	-0.6117695711	 0.123951
H	-0.3201556787	 1.8180157977	 1.1133526234	 0.128697
H	 0.6223172327	-0.4232127339	 0.7707623054	 0.133876
H	-0.9611782507	-0.3611409645	 0.0082480566	 0.123062
H	 0.0769186087	 1.1653274481	-2.6578385247	 0.150709
H	 0.4107489089	-0.3436381128	-3.5282393789	 0.141351
H	-1.0866944281	-0.1812747973	-2.5970407149	 0.145514
H	 2.5836841931	-1.39406845	-2.761903665	 0.109594
89.5271	97.0585	137.8842	144.9439	158.2329	202.3908	225.2069	280.2232	311.4174	335.2206	406.2088	470.0121	522.596	569.962	621.2207	757.4501	802.6543	908.3557	946.3126	1009.4423	1011.9019	1043.4772	1072.4972	1134.6228	1184.2244	1201.9264	1212.3879	1321.2515	1375.8312	1408.7744	1412.5711	1433.1714	1474.2598	1485.0659	1493.1653	1503.7042	1509.4111	1867.7245	2353.2161	2996.7607	3051.0681	3052.6352	3057.5266	3093.0773	3118.6865	3131.7834	3136.373	3148.1252
CCC(C)(OC=O)C#N	CC[C@@](C)(OC=O)C#N	
InChI=1S/C6H9NO2/c1-3-6(2,4-7)9-5-8/h5H,3H2,1-2H3	InChI=1S/C6H9NO2/c1-3-6(2,4-7)9-5-8/h5H,3H2,1-2H3/t6-/m1/s1
