16
gdb 28765	3.20883	1.70853	1.2575	1.0734	76.05	-0.1796	0.0283	0.2079	976.5529	0.126072	-400.710413	-400.703484	-400.70254	-400.741495	27.985	
O	-0.0626646334	 1.3781251936	-0.0592754668	-0.42771
C	 0.0215537028	 0.0297335696	 0.04742904	 0.319046
C	 1.0951785354	-0.837203571	 0.1408337452	-0.279566
C	 0.5815168465	-2.1791166747	 0.2437414441	-0.236084
C	-0.7777846022	-2.0747384663	 0.1028733535	 0.191412
C	-2.1536553849	-2.4017454424	 0.6447503284	-0.182712
C	-2.3738114195	-1.5424853853	 1.8840168527	-0.275419
C	-2.4495124369	-0.9098810226	 0.5193675752	-0.02264
N	-1.1110323636	-0.7271860857	-0.0679236576	-0.041497
H	 0.8286553803	 1.739727272	-0.0305676872	 0.305429
H	 2.1357881607	-0.5526017419	 0.0687833729	 0.084713
H	 1.1677141763	-3.0727487394	 0.3940997236	 0.095973
H	-2.7937003268	-3.2338608476	 0.3860842016	 0.104588
H	-3.3287111861	-1.6659515537	 2.3897573718	 0.117183
H	-1.5359874718	-1.3192086606	 2.5369290417	 0.131548
H	-3.3108496067	-0.3942162439	 0.117044241	 0.115736
147.7932	189.1152	277.2226	309.2968	374.758	485.6899	549.8335	635.8817	656.7023	699.2413	723.3316	750.8853	787.7838	801.6381	816.3204	858.1111	943.6345	978.4303	1000.189	1029.9889	1050.141	1073.4814	1082.983	1122.6076	1178.3983	1215.9625	1240.8287	1261.8173	1268.9629	1305.3857	1352.2046	1472.7274	1495.4725	1561.7522	1593.251	3113.7803	3202.8683	3204.1588	3215.6381	3221.2231	3250.4061	3839.3051
OC1=CC=C2C3CC3N12	OC1=C[CH][C]2[C@H]3C[C@H]3N12	
InChI=1S/C7H7NO/c9-7-2-1-5-4-3-6(4)8(5)7/h1-2,4,6,9H,3H2	InChI=1S/C7H7NO/c9-7-2-1-5-4-3-6(4)8(5)7/h1-2,4,6,9H,3H2/t4-,6-/m1/s1
