23
gdb 114202	2.69624	1.13707	0.96857	1.4121	85.96	-0.248	0.0737	0.3217	1358.028	0.205168	-388.270196	-388.260544	-388.2596	-388.304606	37.095	
C	 0.2369262257	 1.2751790642	-0.5183643589	-0.385831
C	-0.0695576522	-0.2076091411	-0.286899447	-0.191808
C	-1.4579184751	-0.4460429064	 0.3076624278	-0.01306
C	-2.6370890566	-0.3229264181	-0.7111223099	-0.329228
C	-2.723623346	-1.8540888248	-0.7495114484	 0.342842
C	-3.8498526559	-2.7418974371	-1.1751747435	-0.337081
C	-2.5626851904	-2.7220810072	-1.9679581816	-0.325022
C	-1.8364483113	-1.9564316674	 0.4999860844	 0.053299
O	-0.8259505135	-2.9334647608	 0.5527822168	-0.426732
H	 1.2323748233	 1.4122615591	-0.9521111128	 0.111791
H	-0.4885563607	 1.7324294562	-1.1996290749	 0.117971
H	 0.2026422823	 1.8335960783	 0.4235164171	 0.116519
H	 0.0226736994	-0.7462508805	-1.2411022663	 0.086976
H	 0.6825115033	-0.638709873	 0.3852759596	 0.106085
H	-1.5695995015	 0.1581643697	 1.2138911111	 0.062739
H	-3.5277364872	 0.1474411712	-0.2839354871	 0.099948
H	-2.4038839854	 0.1759130976	-1.6569679488	 0.096617
H	-4.0604097343	-3.6216493781	-0.5746754821	 0.115799
H	-4.7277825698	-2.2788763094	-1.614956878	 0.110104
H	-2.5634934373	-2.2448814382	-2.9429254488	 0.110061
H	-1.9156454584	-3.5911377458	-1.8907741397	 0.111471
H	-2.427753786	-2.1055009126	 1.4093330811	 0.085863
H	-0.3096163024	-2.8652441057	-0.2575005502	 0.280678
56.662	116.8235	171.1934	209.0241	213.3092	242.2513	294.8721	311.4862	344.4111	392.0323	478.138	538.4205	644.6969	757.3203	776.8455	787.6767	814.1703	840.7581	894.7546	913.4325	940.8964	967.9657	988.1062	997.2866	1049.3527	1063.2433	1077.3687	1102.3873	1117.4305	1129.0409	1178.8427	1191.7707	1208.0709	1240.8539	1264.6727	1277.0193	1282.6142	1305.9523	1334.4173	1372.2086	1393.5081	1413.3235	1434.7509	1456.5081	1486.2023	1496.2542	1499.2117	1499.8708	1508.5712	3002.8849	3031.8327	3040.2338	3044.959	3051.8721	3062.1766	3091.8091	3100.0863	3102.7026	3116.7505	3121.2766	3195.9663	3210.811	3809.1164
CCC1CC2(CC2)C1O	CC[C@H]1CC2(CC2)[C@H]1O	
InChI=1S/C8H14O/c1-2-6-5-8(3-4-8)7(6)9/h6-7,9H,2-5H2,1H3	InChI=1S/C8H14O/c1-2-6-5-8(3-4-8)7(6)9/h6-7,9H,2-5H2,1H3/t6-,7-/m0/s1
