16
gdb 105602	2.17844	1.52235	1.25735	2.6709	65.47	-0.2443	-0.0542	0.1901	1064.3101	0.122725	-475.031244	-475.022215	-475.021271	-475.065736	31.304	
C	-0.3167250733	 1.4879500008	-0.0394266652	-0.334171
N	 0.1578011759	 0.1008814369	 0.0988029452	-0.349967
C	 0.7326525207	-0.4629323949	-1.0968281528	 0.0049
C	 0.5573312346	-1.9936675428	-1.3053066158	-0.11691
O	-0.1720783757	-1.759225221	-2.5516913173	-0.231513
C	-0.138816534	-0.407122175	-2.3820250144	 0.444014
O	-0.6339288836	 0.4324488673	-3.0595344661	-0.312625
C	 2.1789279352	-0.040973434	-1.3703873637	 0.132903
O	 2.8119768765	 0.6341335046	-0.6030326789	-0.249786
H	 0.4553471917	 2.1908821483	-0.3818163927	 0.122341
H	-1.1511349072	 1.524946166	-0.7418730502	 0.152205
H	-0.6770837087	 1.8184129115	 0.9377545265	 0.125031
H	 0.8835509671	 0.092233434	 0.8114905325	 0.233796
H	 1.4528291445	-2.5899946708	-1.4921170806	 0.130513
H	-0.0832230249	-2.4495001465	-0.5502581471	 0.148482
H	 2.6237590612	-0.4317973945	-2.3119410693	 0.100788
59.9268	96.9451	113.9166	165.7129	191.9115	250.5712	278.3312	354.5305	373.0799	477.1512	616.0738	704.2051	761.6145	780.0446	809.0121	886.2741	908.7816	974.22	1054.2627	1069.2083	1110.0488	1142.6045	1164.3478	1174.2339	1204.8346	1275.9492	1347.4037	1413.0716	1463.7048	1492.4461	1497.9794	1503.6714	1526.6369	1825.9474	1935.0081	2892.4975	3009.6331	3077.6023	3098.2753	3140.7413	3153.0047	3494.6792
CNC1(COC1=O)C=O	CN[C@]1(COC1=O)C=O	
InChI=1S/C5H7NO3/c1-6-5(2-7)3-9-4(5)8/h2,6H,3H2,1H3	InChI=1S/C5H7NO3/c1-6-5(2-7)3-9-4(5)8/h2,6H,3H2,1H3/t5-/m0/s1
