18
gdb 14912	4.43906	1.42495	1.15306	1.1881	73.84	-0.246	0.0535	0.2995	1037.4483	0.154944	-347.782023	-347.77447	-347.773526	-347.813653	29.322	
C	 0.0509946963	-1.214739687	-0.0259737621	-0.442682
C	 0.001818348	-0.0133472485	-0.0112683423	 0.298877
C	-0.0257507369	 1.4425225214	 0.0307337913	-0.176426
C	-0.7737052399	 1.9818976272	 1.2729325548	-0.199749
C	-0.6684363888	 3.5113491939	 1.3312771409	-0.216171
C	 0.7926252352	 3.9478655473	 1.2125493834	-0.065411
O	 1.3960808186	 3.4337310496	 0.0352339917	-0.243266
C	 1.4083449942	 2.0222995702	 0.0093339571	-0.079423
H	 0.0850740625	-2.2756938111	-0.0502858306	 0.193336
H	-0.5353597807	 1.8166358167	-0.8679286892	 0.10913
H	-1.8179515087	 1.6562392484	 1.2522749771	 0.107857
H	-0.3211549459	 1.5412113409	 2.1703696014	 0.107065
H	-1.2391394406	 3.9570374092	 0.5073641594	 0.105829
H	-1.0950419852	 3.8915072249	 2.2663618039	 0.097059
H	 0.8809765185	 5.036059467	 1.1487892239	 0.106968
H	 1.3573115542	 3.6125329969	 2.1002058319	 0.085768
H	 1.9710103969	 1.6196295568	 0.8683283158	 0.093985
H	 1.9273335323	 1.7284667763	-0.9063041882	 0.117253
113.2689	144.159	240.2094	260.5092	380.2915	402.4923	447.2088	502.1679	514.7547	565.737	630.8065	640.359	806.8235	863.9193	873.004	922.4923	970.1452	977.8444	1030.9646	1056.6886	1092.5782	1133.1003	1167.3266	1195.16	1235.9466	1291.0724	1303.3425	1318.2868	1335.5926	1355.6525	1374.5962	1398.6809	1418.9992	1477.0405	1489.2414	1489.8305	1504.7696	2234.4006	2955.0004	2969.3677	3012.9872	3029.9825	3032.9124	3075.0492	3085.2484	3088.5716	3099.3166	3504.8189
C#CC1CCCOC1	C#C[C@H]1CCCOC1	
InChI=1S/C7H10O/c1-2-7-4-3-5-8-6-7/h1,7H,3-6H2	InChI=1S/C7H10O/c1-2-7-4-3-5-8-6-7/h1,7H,3-6H2/t7-/m0/s1
