17
gdb 67490	2.53429	1.66358	1.26552	2.6557	78.83	-0.225	0.0376	0.2626	1039.8967	0.133337	-384.570289	-384.562134	-384.561189	-384.602528	31.997	
C	 0.0135618817	 1.5171439321	 0.0041395239	-0.497791
C	-0.0316982222	 0.0179312762	 0.0379123348	 0.277496
C	-1.3827121125	-0.7655407052	 0.1727596197	-0.043509
O	-1.1947677271	-2.1419029643	-0.1604839058	-0.221122
C	-0.7873145791	-1.6885016179	 1.1332095932	 0.020261
C	 0.5881411946	-0.9676517051	 1.0262873049	-0.173378
C	 1.1169779704	-0.8752320736	-0.3986898345	-0.248783
C	 1.1491686991	-1.889890619	-1.4171408821	 0.329583
C	 1.3110357113	-2.6814099338	-2.3081876289	-0.443473
H	 1.0295710683	 1.8863678113	 0.1751020555	 0.125051
H	-0.3236633658	 1.9024982931	-0.9655995326	 0.130613
H	-0.6322533549	 1.9507653915	 0.7769403746	 0.122344
H	-2.3784955504	-0.3480275349	 0.0795561113	 0.108873
H	-1.1911798492	-2.1957354329	 2.0004729168	 0.113398
H	 1.2233601772	-0.7593194544	 1.8783490203	 0.095957
H	 2.038110868	-0.2911911802	-0.396383227	 0.118378
H	 1.4008847305	-3.4031966227	-3.0812849541	 0.186103
125.2332	160.8466	206.0216	222.6161	279.8343	332.3015	381.124	465.5363	542.3333	607.8943	622.2331	629.7307	677.0722	762.9545	770.4851	830.043	868.4988	874.4506	909.4914	933.0894	949.1821	990.9477	1030.9867	1052.2318	1107.4703	1117.3249	1183.1522	1218.5021	1252.2427	1271.9153	1316.6832	1374.6455	1415.735	1452.6312	1483.4901	1497.4019	2233.4052	3020.4327	3078.2697	3098.2457	3102.8213	3181.6628	3189.2302	3202.2111	3505.4962
CC12C3OC3C1C2C#C	C[C@]12[C@H]3O[C@H]3[C@H]1[C@H]2C#C	
InChI=1S/C8H8O/c1-3-4-5-6-7(9-6)8(4,5)2/h1,4-7H,2H3	InChI=1S/C8H8O/c1-3-4-5-6-7(9-6)8(4,5)2/h1,4-7H,2H3/t4-,5-,6+,7+,8-/m1/s1
