15
gdb 21028	3.63624	1.85186	1.24611	1.1053	65.21	-0.2201	0.0077	0.2278	947.5814	0.119087	-395.99666	-395.988429	-395.987485	-396.031189	28.217	
C	-0.0489394639	 1.3679179928	 0.0795380478	-0.308179
N	 0.0096250006	-0.0746509913	 0.033013384	 0.142708
N	-0.1016731574	-0.7577167185	-1.0980403828	-0.283668
C	 0.0050484784	-2.04021835	-0.7350647037	 0.234919
C	-0.0646752883	-3.1750843942	-1.7006007855	-0.496944
C	 0.183449423	-2.0545283129	 0.6614068449	 0.30765
O	 0.3334456783	-3.1464157992	 1.4372800822	-0.425466
N	 0.1851112199	-0.8145903196	 1.1346379011	-0.344982
H	 0.8865460497	 1.7755301097	 0.4732185717	 0.146633
H	-0.2058199668	 1.7180367212	-0.939759622	 0.161324
H	-0.8750767158	 1.6948930249	 0.7171385875	 0.146914
H	 0.8541305517	-3.7712267846	-1.6845547148	 0.135684
H	-0.8918864336	-3.8526307779	-1.4628786162	 0.135681
H	-0.2110202225	-2.7926584682	-2.7127306108	 0.140926
H	 0.4351267867	-2.8449966021	 2.3482554667	 0.306799
12.2693	78.3069	160.4206	239.5464	254.2031	302.4561	350.855	393.0706	532.4757	639.3998	653.3788	662.2114	741.3491	835.3057	1010.3053	1027.3487	1069.3137	1077.7073	1149.8068	1199.3241	1296.8434	1348.4976	1389.2648	1414.1039	1441.8434	1449.9102	1476.0606	1481.2541	1493.6447	1512.7396	1580.5302	1603.4249	3037.1214	3049.2256	3087.5119	3111.1608	3134.1303	3172.3531	3804.3629
CN1N=C(C)C(O)=N1	Cn1nc(C)c(O)n1	
InChI=1S/C4H7N3O/c1-3-4(8)6-7(2)5-3/h1-2H3,(H,6,8)	InChI=1S/C4H7N3O/c1-3-4(8)6-7(2)5-3/h1-2H3,(H,6,8)
