15
gdb 28691	3.75872	1.03017	0.87878	1.5012	73.92	-0.2069	0.022	0.2289	1290.6768	0.11271	-416.808975	-416.800616	-416.799671	-416.842463	30.939	
N	 0.2191619585	 1.2755599801	-0.1055559048	-0.587808
C	-0.0136440835	-0.0714915276	 0.007907257	 0.452866
N	-1.1142085776	-0.6671434278	 0.349368346	-0.336828
C	-0.7541628047	-2.0141257725	 0.381020716	-0.195703
C	 0.5457166396	-2.159068931	 0.0493076319	 0.332411
C	 1.4842464773	-3.3100433873	-0.0903200751	-0.4689
C	 1.9885488346	-3.5060995318	-1.4508989127	 0.313829
C	 2.4052818943	-3.6620604827	-2.5664855409	-0.454423
O	 1.0452172068	-0.8868960856	-0.1946080632	-0.210641
H	 0.9340130997	 1.5267096003	-0.7727377069	 0.265848
H	-0.630713933	 1.8109673009	-0.2036560264	 0.271622
H	-1.4674518273	-2.7824765289	 0.6357091293	 0.120173
H	 2.3354361501	-3.1895036392	 0.5945238669	 0.147954
H	 0.9520668828	-4.209632765	 0.2400723837	 0.150881
H	 2.7702682126	-3.800941922	-3.5538114309	 0.198718
54.0577	88.8527	214.7944	255.0101	304.4343	328.2451	338.1138	442.6202	457.9656	599.315	621.11	624.8351	646.8189	713.607	749.6975	790.6913	857.875	913.1278	946.8605	989.8884	1007.1011	1088.4858	1190.1234	1203.261	1246.2679	1280.4542	1342.0431	1441.6369	1450.101	1602.628	1660.0592	1681.5378	2242.6607	3009.0522	3064.7328	3259.4518	3506.9388	3575.4668	3684.0089
NC1=NC=C(CC#C)O1	Nc1ncc(CC#C)o1	
InChI=1S/C6H6N2O/c1-2-3-5-4-8-6(7)9-5/h1,4H,3H2,(H2,7,8)	InChI=1S/C6H6N2O/c1-2-3-5-4-8-6(7)9-5/h1,4H,3H2,(H2,7,8)
