19
gdb 54118	3.23902	1.31205	1.12032	3.1962	75.87	-0.2335	0.028	0.2615	1136.1158	0.159836	-419.201207	-419.192582	-419.191638	-419.23425	33.348	
C	-0.2783578763	 1.6158221008	-0.4325917206	-0.490833
C	-0.0400925072	 0.1707087965	-0.0552449964	 0.210631
C	 0.6742444617	-0.8194006143	-0.9108867324	-0.041827
C	 1.8090536814	-0.1999145179	-1.7225517797	-0.26847
C	 2.3556511602	 0.3295557207	-0.3718760074	-0.160678
N	 1.2687796267	-0.3628516244	 0.4092011788	-0.196224
C	-1.2047846484	-0.4245617658	 0.7368353255	 0.353808
N	-0.8522830633	-1.416607731	 1.5951165533	-0.530859
O	-2.3491697272	-0.0456777682	 0.5644436242	-0.374747
H	 0.3508119983	 1.9562625887	-1.2559634684	 0.116086
H	-1.3253182036	 1.7181372496	-0.7228928089	 0.160216
H	-0.1053561332	 2.2720866561	 0.4274526865	 0.126575
H	 0.2931356859	-1.8278072697	-1.0400937227	 0.105047
H	 2.4598032257	-0.9521033808	-2.1716201547	 0.117188
H	 1.5309133379	 0.5250579608	-2.4920828369	 0.114203
H	 3.3225818374	-0.0934100571	-0.0942143149	 0.117125
H	 2.3875969826	 1.4120843627	-0.2238227636	 0.114408
H	 0.1260802106	-1.5253939467	 1.817879799	 0.271704
H	-1.5643056691	-1.7905335699	 2.1999643494	 0.256648
72.1507	155.2324	185.606	227.1642	275.4362	330.7543	376.705	381.198	409.364	494.4861	564.1753	649.9552	671.461	733.9505	772.288	789.4245	831.4448	866.8009	933.2274	971.9548	991.1921	1005.2698	1051.2896	1106.2055	1106.6749	1113.729	1146.4909	1202.4103	1217.746	1263.9789	1280.1351	1301.3939	1371.4627	1397.0205	1411.9356	1478.7165	1494.6167	1505.0463	1512.5376	1581.5265	1792.958	3047.9246	3063.3964	3069.248	3111.5321	3120.4878	3128.8887	3150.5795	3159.8315	3566.365	3716.5933
CC1(C2CCN12)C(N)=O	C[C@]1([C@H]2CCN12)C(=O)N	
InChI=1S/C6H10N2O/c1-6(5(7)9)4-2-3-8(4)6/h4H,2-3H2,1H3,(H2,7,9)	InChI=1S/C6H10N2O/c1-6(5(7)9)4-2-3-8(4)6/h4H,2-3H2,1H3,(H2,7,9)/t4-,6+,8?/m1/s1
