19
gdb 133877	3.45974	2.11888	1.8445	0.2462	81.37	-0.2499	0.1023	0.3523	825.843	0.164037	-348.696763	-348.691301	-348.690357	-348.726069	25.376	
C	-1.433922701	 1.4374224847	 0.472200186	-0.342957
C	-1.6145019289	 0.1006552112	-0.3378432381	-0.100542
C	-0.7734997929	-0.634433418	 0.7565116489	-0.020785
C	 0.3031681126	-1.5659344941	 0.2284898654	-0.101117
C	 1.6040418448	-0.7549355002	 0.2006406961	-0.060871
C	 1.4016231087	 0.6076310265	 0.9037977008	-0.363706
C	-0.0567217574	 0.7316150855	 0.511319094	 0.306366
C	-0.2181585462	 0.3520940589	-0.9952980803	-0.020784
C	 0.7043183247	-0.8533152923	-1.0369295392	-0.101117
H	-1.9816948999	 1.5152739509	 1.4157466854	 0.091573
H	-1.5016422578	 2.3680438555	-0.0985470475	 0.091573
H	-2.5341675805	-0.2385459009	-0.8204058974	 0.065139
H	-1.2169943992	-0.8215853088	 1.7362626607	 0.058404
H	 0.2953987588	-2.6429814993	 0.330600909	 0.079814
H	 2.5649099804	-1.2560964593	 0.2230197334	 0.079513
H	 2.0465357831	 1.3872341064	 0.4856724168	 0.10064
H	 1.5717609869	 0.5438021267	 1.9833812165	 0.100639
H	-0.1134529559	 1.1387868515	-1.7448157914	 0.058404
H	 1.0145825495	-1.3653908148	-1.9380578491	 0.079814
373.9699	414.4489	438.1672	482.658	658.2494	711.7268	731.8038	735.7069	795.3528	796.581	804.6736	825.8155	881.0555	885.4538	944.0421	946.1145	964.6795	990.1279	1000.3182	1003.3445	1003.3522	1046.0647	1062.6826	1063.3578	1076.0883	1077.6071	1114.702	1132.7216	1187.7533	1194.819	1198.9119	1216.9891	1239.5768	1257.1466	1273.6768	1306.1606	1309.0517	1326.72	1378.6241	1486.792	1517.0452	3045.0075	3046.401	3078.8252	3093.1647	3095.1807	3100.9757	3107.5138	3181.4415	3194.8566	3206.5049
C1C2C3C4C5CC13C2C45	C1[C@@H]2[C@H]3[C@@H]4[C@@H]5C[C@]13[C@H]2[C@H]45	
InChI=1S/C9H10/c1-3-5-6(3)8-4-2-9(1,8)7(4)5/h3-8H,1-2H2	InChI=1S/C9H10/c1-3-5-6(3)8-4-2-9(1,8)7(4)5/h3-8H,1-2H2/t3-,4+,5+,6-,7-,8+,9-
