15
gdb 24408	3.75173	1.65894	1.17113	1.4719	74.1	-0.1854	-0.0088	0.1766	984.8031	0.115233	-420.655321	-420.648771	-420.647827	-420.686208	26.036	
C	 0.1242824368	 1.4677011357	 0.2413454052	-0.142973
O	 0.9679514852	 2.1810150862	-0.7056745651	-0.266496
C	 1.984874158	 1.4297299287	-1.1225609877	 0.410376
C	 2.066568069	 0.0656977785	-1.1619219572	 0.10439
C	 3.329597024	-0.2020009144	-1.7979925929	-0.315399
C	 3.8803507103	 1.0038760846	-2.0832041931	-0.020911
O	 3.045741122	 2.0305307217	-1.6696561836	-0.188475
C	 0.8978025101	-0.674010728	-0.7292021562	-0.150418
C	-0.0735956896	 0.0090166689	-0.1052418778	-0.130551
H	 0.5836336363	 1.5780366413	 1.2386033444	 0.115748
H	-0.8183903121	 2.0183127802	 0.242781489	 0.1304
H	 3.7670568679	-1.1653934716	-2.0105238172	 0.114166
H	 4.8041257005	 1.3229011679	-2.5323504301	 0.138543
H	 0.7946211037	-1.7285964722	-0.9615809553	 0.100702
H	-1.0032345722	-0.4546090676	 0.2036700476	 0.100898
139.3835	177.011	306.3649	405.3504	451.4275	526.0919	595.2675	611.1579	652.4105	686.284	724.8288	760.4009	821.7763	830.7547	910.1871	922.0521	967.196	1006.4108	1027.9435	1047.1988	1138.3853	1173.6841	1205.4722	1262.5956	1278.9753	1325.9407	1365.8764	1412.8044	1486.0576	1508.5647	1559.8063	1619.6181	1679.3681	2951.1235	3105.5128	3181.2669	3203.2112	3251.471	3302.0122
C1OC2=C(C=CO2)C=C1	C1Oc2c(cco2)C=C1	
InChI=1S/C7H6O2/c1-2-6-3-5-9-7(6)8-4-1/h1-3,5H,4H2	InChI=1S/C7H6O2/c1-2-6-3-5-9-7(6)8-4-1/h1-3,5H,4H2
