13
gdb 13476	3.44699	1.88855	1.30484	1.504	54.21	-0.2652	-0.0112	0.2539	869.4807	0.096038	-435.794595	-435.78735	-435.786406	-435.826747	25.865	
N	-0.1241651271	 1.2834039246	 0.2877792921	-0.519842
C	 0.0884881402	 0.0046714626	-0.1223802265	 0.384928
O	 1.1414570446	-0.4233368242	-0.5461542553	-0.35289
C	-1.1654126128	-0.8678465069	-0.0431380618	-0.3026
C	-0.9816010768	-2.3468592928	 0.3154552047	-0.090164
O	-1.7705313831	-2.1429228731	 1.5460988927	-0.236096
C	-1.9365312211	-0.8184423309	 1.2765438731	 0.463786
O	-2.4712320279	 0.0189732079	 1.9358531623	-0.337045
H	 0.6712964236	 1.9005003592	 0.3330783959	 0.268345
H	-0.9476437699	 1.5134740315	 0.8248140082	 0.282395
H	-1.7986745756	-0.6726118908	-0.9121365734	 0.148798
H	-1.4683449594	-3.0759446718	-0.3322179171	 0.134583
H	 0.0409117654	-2.6408984753	 0.550693775	 0.155804
59.8387	135.4397	158.2172	274.9912	403.2194	429.3004	470.5795	554.4606	604.0316	660.205	700.72	774.2625	838.1673	923.7772	966.2144	1045.5067	1084.4646	1125.6213	1140.1482	1148.6754	1185.0371	1266.2058	1346.0306	1359.1364	1518.1355	1630.7469	1811.0425	1915.2903	3093.6184	3098.5075	3166.8727	3565.2648	3701.9397
NC(=O)C1COC1=O	NC(=O)[C@H]1COC1=O	
InChI=1S/C4H5NO3/c5-3(6)2-1-8-4(2)7/h2H,1H2,(H2,5,6)	InChI=1S/C4H5NO3/c5-3(6)2-1-8-4(2)7/h2H,1H2,(H2,5,6)/t2-/m1/s1
