16
gdb 12472	3.47207	1.94195	1.34269	5.0761	67.94	-0.2594	-0.0385	0.2209	901.0001	0.132428	-383.780991	-383.774031	-383.773087	-383.81236	26.219	
O	-0.0887945901	 1.0929833318	 1.6081942212	-0.334218
C	-0.1235745052	 1.4777206304	 0.4656088363	 0.387534
O	-1.3331690596	 1.752709937	-0.0791020505	-0.226535
C	-1.4997505651	 2.0997752265	-1.4556258918	-0.072956
C	-0.8348875009	 3.4255046856	-1.8186805794	-0.223495
C	 0.6265854422	 3.2586457254	-2.2360016582	-0.260627
C	 1.4656358459	 2.3677247371	-1.3721918676	-0.04794
C	 1.1413568071	 1.6295321014	-0.3047536682	-0.172927
H	-1.1367689215	 1.2851453266	-2.0957121557	 0.113665
H	-2.5833586663	 2.1637931098	-1.5757981353	 0.125887
H	-1.3884557956	 3.8970222922	-2.6378229212	 0.10882
H	-0.9222202371	 4.0921542931	-0.9537072267	 0.126483
H	 0.673782783	 2.8554874256	-3.2593335432	 0.122876
H	 1.115750019	 4.2399385155	-2.3031002397	 0.123499
H	 2.5100117544	 2.3217119536	-1.6793734606	 0.108577
H	 1.9335822198	 1.0771087385	 0.1908529408	 0.121355
90.139	142.4307	272.7702	334.3383	356.9965	402.866	504.2732	573.3843	638.8363	718.7218	798.3409	825.4152	853.3119	897.0699	918.8969	994.4449	1034.1554	1080.2268	1092.7891	1105.2119	1203.2616	1219.5516	1261.4553	1298.0051	1316.1077	1380.9684	1398.403	1419.0616	1428.708	1461.5326	1480.0433	1506.1913	1707.3931	1802.1871	2997.5211	3027.0894	3030.193	3046.0069	3086.9049	3106.6108	3132.5953	3184.6454
O=C1OCCCC=C1	O=C1OCCCC=C1	
InChI=1S/C6H8O2/c7-6-4-2-1-3-5-8-6/h2,4H,1,3,5H2	InChI=1S/C6H8O2/c7-6-4-2-1-3-5-8-6/h2,4H,1,3,5H2
