14
gdb 34566	3.93524	1.30963	1.24256	2.5945	68.53	-0.2696	-0.0652	0.2044	993.7756	0.103233	-436.686386	-436.679867	-436.678923	-436.717499	25.286	
N	 0.0902597344	-1.1171930942	 0.1197494478	-0.333903
C	-0.0032631706	 0.0355272178	 0.0432370353	 0.196304
C	-0.0637424504	 1.4420188887	-0.0633421217	 0.234981
C	-1.1263434662	 2.2616744708	-0.0497583586	-0.19351
C	-0.5142828543	 3.6589950602	 0.0064918283	 0.140072
O	-0.0317108114	 3.8219614832	 1.357340424	-0.269608
C	 1.1463302395	 3.0045300017	 1.4025634787	-0.08516
C	 1.1496063863	 2.3830511374	-0.028548983	-0.099245
O	 0.6571804269	 3.5124123149	-0.7603421953	-0.222274
H	-2.1720910003	 2.0103060105	 0.0502478373	 0.146352
H	-1.1045029364	 4.5232863564	-0.2860657008	 0.113932
H	 2.0255580763	 3.6374502583	 1.5546118834	 0.126143
H	 1.0724372912	 2.2617971076	 2.2017429936	 0.126109
H	 2.096701275	 2.0203661867	-0.417955809	 0.119807
118.8169	160.4796	299.1225	387.4259	472.4542	501.6444	562.6996	618.8428	665.4598	753.3873	836.0692	849.1607	864.8812	883.2605	897.5372	940.7119	977.3947	1036.9236	1045.4911	1065.8213	1181.9781	1194.4991	1237.0817	1245.275	1276.1401	1305.9362	1329.8384	1354.0874	1513.0033	1647.3146	2336.1318	3052.3664	3106.7113	3171.0537	3175.0139	3250.0376
N#CC1=CC2OCC1O2	N#CC1=C[C@H]2OC[C@@H]1O2	
InChI=1S/C6H5NO2/c7-2-4-1-6-8-3-5(4)9-6/h1,5-6H,3H2	InChI=1S/C6H5NO2/c7-2-4-1-6-8-3-5(4)9-6/h1,5-6H,3H2/t5-,6-/m0/s1
