19
gdb 71051	2.43761	2.10507	1.3393	0.7043	83.05	-0.2083	-0.0276	0.1806	984.955	0.158166	-385.78984	-385.78184	-385.780896	-385.82153	32.47	
C	-0.0829682212	 1.4508120015	-0.048460321	-0.481218
C	-0.0478925224	-0.0552601305	-0.0330192686	 0.280595
C	 0.578522239	-0.8793938766	-1.2238515513	-0.307524
C	-0.2216318285	-2.012582097	-0.5779115429	 0.050331
C	 0.4428688362	-2.7679067982	 0.3236817179	-0.108401
C	 0.202616722	-2.2205157743	 1.7186834965	-0.319418
C	-0.369476524	-0.8382094517	 1.3250590271	 0.349929
O	-0.7512999528	 0.0317918035	 2.345119772	-0.469738
C	-1.1940288208	-1.0343586711	 0.0955135088	-0.231565
H	 0.9253109928	 1.8671796703	 0.0598067025	 0.118184
H	-0.4946840697	 1.8179441886	-0.9957732545	 0.111854
H	-0.6942644133	 1.8322413071	 0.7713833467	 0.139103
H	 0.1928438024	-0.4672087416	-2.1648718038	 0.100131
H	 1.6639411301	-1.0069944565	-1.28514707	 0.096688
H	 1.3976639289	-3.2274876517	 0.0817757956	 0.094443
H	-0.5163793734	-2.7449550596	 2.3683106997	 0.093045
H	 1.1522695625	-2.1797533483	 2.2658519275	 0.112908
H	-1.4760839091	-0.3787179374	 2.8307994337	 0.284235
H	-2.2598784088	-0.9084365264	-0.050122986	 0.086417
164.7402	193.4404	251.8769	272.9218	294.1332	346.3836	387.187	402.1169	465.6293	564.6645	584.6742	638.6884	700.8192	767.3883	807.6355	850.7816	893.4193	918.3303	931.6649	963.2244	1003.0756	1018.8348	1040.4791	1062.1424	1105.9514	1136.8706	1141.3219	1164.7388	1176.9623	1205.5398	1246.4299	1285.7814	1300.4647	1314.7808	1379.6777	1403.5678	1478.7208	1487.3453	1493.3844	1502.0742	1589.0298	2971.1725	3015.0853	3026.9578	3052.0396	3080.1183	3082.6185	3134.6951	3156.2478	3185.8559	3785.0025
CC12CC3=CCC1(O)C23	C[C@@]12C[C]3[CH]C[C@]1(O)[C@@H]23	
InChI=1S/C8H10O/c1-7-4-5-2-3-8(7,9)6(5)7/h2,6,9H,3-4H2,1H3	InChI=1S/C8H10O/c1-7-4-5-2-3-8(7,9)6(5)7/h2,6,9H,3-4H2,1H3/t6-,7+,8+/m1/s1
