21
gdb 106675	2.75252	1.21229	1.01608	1.6571	79.34	-0.2402	0.0706	0.3108	1282.2207	0.17965	-424.202915	-424.192964	-424.19202	-424.237595	37.002	
C	-0.0039233473	 1.4767368908	 0.4218047572	-0.377802
C	 0.0460480756	 0.0522355135	-0.1494395634	-0.299744
C	-1.3152779067	-0.5461305704	-0.3228234139	 0.359282
C	-2.4012570822	-0.1953604063	-1.3552048275	-0.330917
C	-2.9641022427	-1.6528738168	-1.1806589762	 0.06118
O	-2.8019384003	-2.4864469188	-2.3081512576	-0.438044
C	-1.8393028096	-1.9195064835	-0.1627223411	 0.344229
C	-1.2209488395	-3.2348091186	 0.1732654775	-0.513355
O	-2.0346514094	-0.9393543799	 0.868689184	-0.338094
H	 1.0039451568	 1.8830457704	 0.5470062856	 0.112745
H	-0.5570553152	 2.1514310471	-0.2399264776	 0.117971
H	-0.4992274036	 1.4817705923	 1.3970651702	 0.134836
H	 0.5556067726	 0.0551783367	-1.1211840834	 0.10259
H	 0.629727055	-0.5935570337	 0.5161158634	 0.107668
H	-3.0579745258	 0.6369758913	-1.0894201108	 0.10001
H	-2.0067684745	-0.0634916225	-2.3666394786	 0.100936
H	-3.9761678583	-1.7224025736	-0.7598159085	 0.071004
H	-3.4411963619	-2.219435302	-2.9758848272	 0.287444
H	-1.0006511164	-3.7874573175	-0.7441451056	 0.142306
H	-0.2968323145	-3.0978268521	 0.7412291745	 0.127077
H	-1.905431462	-3.8403145861	 0.778282649	 0.128679
65.8363	111.5049	149.8738	187.1449	216.0417	219.269	248.752	269.1444	339.4247	426.2595	469.1456	499.6302	505.9565	601.835	709.0825	736.0112	777.575	832.6151	884.5295	917.7037	967.6975	991.8714	1016.3011	1059.8094	1082.7042	1100.0532	1146.5776	1169.4083	1198.7323	1209.5125	1235.8823	1250.8706	1305.9213	1321.5665	1359.14	1402.2234	1407.7943	1411.7568	1450.4956	1470.0132	1477.4885	1490.0335	1498.3328	1504.9997	1526.2133	3011.909	3028.4166	3037.1315	3038.91	3055.6552	3068.9765	3102.1917	3107.5964	3117.6844	3118.2575	3126.842	3820.9288
CCC12CC(O)C1(C)O2	CC[C@@]12C[C@@H](O)[C@]1(C)O2	
InChI=1S/C7H12O2/c1-3-7-4-5(8)6(7,2)9-7/h5,8H,3-4H2,1-2H3	InChI=1S/C7H12O2/c1-3-7-4-5(8)6(7,2)9-7/h5,8H,3-4H2,1-2H3/t5-,6+,7-/m1/s1
