16
gdb 46424	3.8711	0.8824	0.76633	2.8009	72.71	-0.2389	0.0122	0.2511	1440.9766	0.122334	-437.847869	-437.838798	-437.837854	-437.882756	32.001	
O	 0.2296442192	 0.0554048201	 0.0393631409	-0.361096
C	 0.1111257161	 1.2517787459	 0.0022682484	 0.415283
N	-0.9701713218	 2.095524081	-0.0216447703	-0.329557
C	-0.2051353738	 3.3432555499	 0.0970805535	-0.192597
C	 1.0805301686	 2.4798884275	 0.0002666932	-0.001507
O	 1.9190826092	 2.6150914338	 1.1104150619	-0.257009
C	 3.005233956	 1.6875326152	 1.0875870652	-0.225926
C	 3.8546939363	 1.9075771431	 2.248190961	 0.28676
C	 4.5732186364	 2.0667615439	 3.1968152803	-0.417893
H	-1.9592172489	 1.9088799452	 0.0552289419	 0.255357
H	-0.3702652112	 4.055932979	-0.7154079951	 0.118242
H	-0.2975553544	 3.8396120784	 1.0668681811	 0.132844
H	 1.6312201921	 2.5900095065	-0.9459048144	 0.093601
H	 2.6230335359	 0.6579469699	 1.0812154726	 0.160581
H	 3.5917437719	 1.8225076917	 0.163358075	 0.121012
H	 5.2053591285	 2.2086456588	 4.0383023147	 0.201905
45.682	92.8518	100.5896	153.1292	214.4417	268.8181	334.0528	367.9156	435.4179	511.1759	553.006	609.1489	680.6163	737.5841	760.1298	867.7213	921.8629	971.3134	991.2659	1029.8257	1036.276	1099.517	1153.0911	1181.3669	1185.9	1218.8861	1259.8779	1298.6031	1348.696	1392.5565	1432.8742	1503.945	1520.9895	1886.9697	2249.495	2968.1876	2997.6655	3035.8978	3055.6037	3110.5436	3505.7347	3609.3579
O=C1NCC1OCC#C	O=C1NC[C@H]1OCC#C	
InChI=1S/C6H7NO2/c1-2-3-9-5-4-7-6(5)8/h1,5H,3-4H2,(H,7,8)	InChI=1S/C6H7NO2/c1-2-3-9-5-4-7-6(5)8/h1,5H,3-4H2,(H,7,8)/t5-/m1/s1
