17
gdb 110757	2.53831	1.4329	1.18103	2.1643	70.88	-0.238	0.0175	0.2555	1111.6123	0.134936	-455.08757	-455.078736	-455.077791	-455.121254	32.399	
C	 0.168095574	 1.1083328024	 0.2875022224	-0.237949
O	-0.505863603	 0.1480023206	-0.5092570486	-0.230416
C	 0.3210179013	-0.4687250773	-1.4289404266	 0.073304
C	 1.3369188951	-1.4968742786	-1.0509945752	-0.013347
O	 0.8788693234	-2.2214967207	 0.1153906316	-0.274137
C	-0.2285468559	-2.6934246503	-0.5893270107	 0.403401
N	-1.0768828802	-3.5628595037	-0.2901048564	-0.559474
C	 0.0721787277	-1.9062582226	-1.8368316039	 0.113959
N	-0.1393548174	-2.2698198243	-3.1867730794	-0.601596
H	 0.9749057008	 0.6447521644	 0.8699241385	 0.124807
H	 0.59148133	 1.917461432	-0.3256066328	 0.107679
H	-0.5737558401	 1.5298617902	 0.9685462182	 0.134497
H	 0.6242036564	 0.1473688099	-2.2798826899	 0.105881
H	 2.3917081558	-1.5361114377	-1.2858884715	 0.125668
H	-0.9216568853	-3.932059058	 0.6492561292	 0.232492
H	-0.0642926578	-3.2753096754	-3.3042738323	 0.246365
H	-1.0692189949	-1.997789921	-3.4906333224	 0.248865
70.7673	116.3726	169.0691	190.5605	256.7551	261.7486	293.6067	319.153	437.3307	489.0558	647.1517	675.2721	729.8553	742.6429	790.6417	866.4499	872.8717	913.1809	924.0531	988.7593	1002.4068	1040.1292	1049.0286	1140.0502	1173.3319	1186.6828	1223.4578	1255.9228	1271.4143	1299.763	1351.9432	1461.3451	1487.3831	1497.5996	1505.7899	1664.7649	1832.4287	2992.3835	3053.7901	3079.661	3129.4532	3217.2961	3481.9905	3500.7455	3576.1608
COC1C2OC(=N)C12N	CO[C@H]1[C@H]2O[C]([NH])[C@@]12N	
InChI=1S/C5H8N2O2/c1-8-2-3-5(2,7)4(6)9-3/h2-3,6H,7H2,1H3	InChI=1S/C5H8N2O2/c1-8-2-3-5(2,7)4(6)9-3/h2-3,6H,7H2,1H3/t2-,3+,5+/m0/s1
