17
gdb 26515	3.78022	1.5578	1.28509	3.8426	78.06	-0.215	0.0097	0.2247	997.2635	0.137908	-380.846923	-380.839824	-380.83888	-380.878186	28.192	
C	-0.0131333701	 1.5770821704	 0.1093099912	-0.484136
C	 0.0288515985	 0.0830884425	 0.0569890822	 0.347278
C	-0.8031435516	-0.8738221487	 0.8725847311	-0.305126
C	 0.7225040173	-0.9511863447	 0.9455042287	-0.246674
C	 1.1647307276	-1.6005838082	-0.343476951	 0.300762
N	 1.3638982344	-2.7397375545	-0.9581189413	-0.333985
C	 0.8845860555	-2.4806683985	-2.2373270522	-0.075242
C	 0.3151227778	-1.2282616431	-2.3427569806	-0.179211
N	 0.5904571656	-0.6337391559	-1.1258187928	-0.035651
H	 0.9496973636	 2.007347666	-0.1817386957	 0.137648
H	-0.783408559	 1.9746086396	-0.5610776485	 0.133005
H	-0.2518018802	 1.9121668289	 1.1228415013	 0.131643
H	-1.3012289121	-0.4442392693	 1.7388335231	 0.121155
H	-1.3524822195	-1.6722337355	 0.3840250631	 0.139694
H	 1.2832512367	-0.791624425	 1.8556337094	 0.114946
H	 1.0032261721	-3.209102532	-3.0268529888	 0.108092
H	-0.1178200067	-0.7100168621	-3.1822791893	 0.125801
137.6373	201.7475	209.154	268.7632	359.7363	480.3079	504.2294	601.7797	647.1541	715.7689	735.3068	751.4617	821.2278	854.7838	862.1682	920.5044	957.7573	980.0924	988.6969	1013.9054	1071.3031	1084.9073	1105.1145	1117.5685	1147.9087	1201.8843	1220.3858	1240.2723	1341.6973	1368.3757	1390.4828	1427.7333	1464.8824	1479.2377	1484.7431	1498.5965	1572.1663	3035.3561	3099.222	3114.3492	3118.8976	3205.3809	3218.9181	3236.839	3276.165
CC12CC1C1=NC=CN21	C[C@]12C[C@H]1[C]1N=C[CH]N21	
InChI=1S/C7H8N2/c1-7-4-5(7)6-8-2-3-9(6)7/h2-3,5H,4H2,1H3	InChI=1S/C7H8N2/c1-7-4-5(7)6-8-2-3-9(6)7/h2-3,5H,4H2,1H3/t5-,7-/m0/s1
