18
gdb 60986	2.42843	1.14644	0.89414	2.5264	78.97	-0.2486	-0.0222	0.2264	1323.2887	0.14469	-401.895845	-401.886178	-401.885234	-401.930991	34.753	
C	 0.1348929723	 1.3574570753	-0.2740493638	-0.402561
C	 0.0984857805	-0.1134606831	 0.1401318012	-0.079916
C	 0.7988041339	-0.3689501135	 1.4655456215	 0.140209
O	 1.3266432839	 0.4800391288	 2.1376278586	-0.239924
C	-1.3206340412	-0.65202912	 0.2100373328	-0.023669
N	-1.9275461912	-1.0684252962	-1.0553418785	-0.325234
C	-1.6590741029	-2.096075679	-0.0205574003	-0.250492
C	-0.6621566488	-3.0909323368	-0.3092453368	 0.374943
C	 0.1669794006	-3.9374836884	-0.513754426	-0.440727
H	 1.164426789	 1.7177990079	-0.3336428108	 0.13047
H	-0.3420368388	 1.4852117273	-1.249176975	 0.125612
H	-0.3862993267	 1.9832409815	 0.4569504445	 0.123379
H	 0.6259906911	-0.7298516112	-0.6015568216	 0.117516
H	 0.7927325462	-1.4347136272	 1.7858457811	 0.088561
H	-1.9610911623	-0.1382968301	 0.9272905462	 0.099558
H	-2.9212407891	-0.8533493606	-1.0686190816	 0.241138
H	-2.5147151199	-2.4718264825	 0.5367871604	 0.116516
H	 0.8966463932	-4.684294142	-0.7085207718	 0.204621
55.4141	83.2655	102.5073	177.9685	206.4497	234.3799	255.3799	327.8312	360.0225	416.7786	549.4525	601.9793	624.7573	665.4959	682.9322	767.7492	821.2622	859.365	917.5098	939.2519	961.405	982.0421	1051.5645	1108.8276	1131.6552	1149.3463	1194.1542	1226.968	1254.6807	1280.7118	1332.3359	1397.7708	1405.2807	1427.6705	1450.8124	1492.981	1495.604	1828.4102	2239.3484	2888.1633	3022.9537	3048.6731	3105.7335	3118.5936	3127.0364	3131.693	3502.1821	3505.388
CC(C=O)C1NC1C#C	C[C@@H](C=O)[C@H]1N[C@H]1C#C	
InChI=1S/C7H9NO/c1-3-6-7(8-6)5(2)4-9/h1,4-8H,2H3	InChI=1S/C7H9NO/c1-3-6-7(8-6)5(2)4-9/h1,4-8H,2H3/t5-,6-,7+/m0/s1
