21
gdb 87170	3.50655	1.03252	0.92732	2.2218	78.52	-0.2321	0.0643	0.2964	1336.1361	0.181559	-424.190306	-424.181114	-424.18017	-424.224313	35.565	
O	 0.142329892	 1.2417789514	-0.0852473001	-0.431834
C	-0.0105776489	-0.1219585673	 0.215118227	 0.007629
C	-0.8769247028	-0.5354015689	 1.3876949566	-0.396955
C	-1.3943798716	-0.6571989237	-0.0368234467	 0.412092
O	-2.3415592202	 0.2914373917	-0.4402316428	-0.485494
C	-1.6312677882	-1.986406138	-0.7029177031	 0.000431
C	-0.7266748412	-3.2173844101	-0.4111102948	-0.247136
C	-1.9940787189	-4.1125142194	-0.4898001855	-0.216357
C	-2.8569274608	-2.8415956917	-0.2688572845	-0.218586
H	 0.5355987761	 1.6819658837	 0.6749614125	 0.295131
H	 0.8520022053	-0.7379322601	-0.0328955312	 0.095111
H	-0.5881234227	-1.4168225853	 1.9503590916	 0.11345
H	-1.323863179	 0.260015221	 1.9753498181	 0.11163
H	-1.8584337534	 1.1245093547	-0.5386220979	 0.287647
H	-1.6745522998	-1.8076598745	-1.7830671058	 0.078792
H	 0.0916512975	-3.4195806171	-1.1066264227	 0.095928
H	-0.3203763792	-3.1996378092	 0.604922364	 0.098974
H	-2.1324294707	-4.5283304408	-1.4919471427	 0.102341
H	-2.0845650343	-4.9235411992	 0.2364472697	 0.094496
H	-3.0850311992	-2.687610893	 0.7904610506	 0.101344
H	-3.7783735901	-2.7347387741	-0.8444377523	 0.101366
58.0483	113.1974	146.5062	222.2943	261.6971	289.1509	319.8306	369.0336	430.743	458.6734	490.1763	576.7097	658.8538	712.2106	782.2627	788.7986	874.4147	878.472	904.1777	934.0323	942.3827	960.1048	1000.3448	1018.8817	1041.4036	1045.1611	1107.0191	1136.5752	1164.1175	1200.1447	1225.8426	1244.1004	1256.0985	1261.4441	1264.4569	1282.8719	1290.7143	1299.2413	1360.9251	1395.1973	1432.2306	1476.4307	1485.4	1487.8565	1510.7703	3042.2749	3050.8972	3055.8664	3059.3067	3096.8998	3108.0472	3116.0377	3121.0401	3126.4545	3218.0101	3728.0844	3813.2775
OC1CC1(O)C1CCC1	O[C@H]1C[C@]1(O)C1CCC1	
InChI=1S/C7H12O2/c8-6-4-7(6,9)5-2-1-3-5/h5-6,8-9H,1-4H2	InChI=1S/C7H12O2/c8-6-4-7(6,9)5-2-1-3-5/h5-6,8-9H,1-4H2/t6-,7-/m0/s1
