19
gdb 38645	2.729	2.22811	1.91585	1.2634	77.06	-0.2237	0.0182	0.2419	833.0443	0.16476	-385.890986	-385.885277	-385.884333	-385.920559	26.129	
C	-0.0285605201	 1.5885406962	-0.0209198423	-0.188667
C	 1.4920970396	 1.7473050585	-0.0329142904	 0.069851
O	 1.7548145411	 1.0074240461	-1.2382249257	-0.266924
C	 1.3681041005	-0.2741293375	-0.7116357729	 0.069851
C	 2.5061197566	-0.434516837	 0.2968007642	-0.188667
C	 2.1575029282	 0.8482117347	 1.1282910696	-0.103434
C	 1.1370638681	 0.3315699365	 2.1167373556	-0.073841
C	 0.0726053149	-0.2350605936	 1.5403665332	-0.073841
C	-0.0196861777	 0.0224416536	 0.0536196865	-0.103434
H	-0.5645761109	 2.0325647005	 0.8176893583	 0.096044
H	-0.4216252705	 1.9764555443	-0.9632546307	 0.102228
H	 1.8956207179	 2.7559880494	-0.1121375784	 0.076809
H	 1.2952315611	-1.0070235855	-1.5141969424	 0.07681
H	 2.4966750655	-1.3334938669	 0.9128255323	 0.096044
H	 3.4540525228	-0.359631838	-0.2405892759	 0.102228
H	 3.0146558554	 1.3362393465	 1.5905772315	 0.066395
H	 1.3357439334	 0.3235889851	 3.1827080817	 0.088077
H	-0.7279939127	-0.7291257143	 2.0795989248	 0.088077
H	-0.8697143831	-0.4596438785	-0.4276662289	 0.066395
311.1607	410.5767	422.6117	515.6892	563.101	587.4475	671.7664	675.1969	701.9744	763.8095	778.5943	857.7079	866.1454	906.867	910.856	943.6159	953.1018	954.2282	975.0269	976.9537	1010.409	1035.9804	1038.7143	1061.7581	1104.7493	1114.267	1152.5892	1170.2648	1219.8074	1250.1459	1251.5615	1283.0849	1292.0724	1299.7	1321.7257	1327.4826	1336.2281	1381.722	1485.4316	1485.6845	1663.9688	3074.076	3074.1021	3114.3204	3114.4162	3128.1843	3133.4421	3135.0547	3138.3005	3175.9094	3199.7505
C1C2OC3CC2C=CC13	C1[C@@H]2O[C@H]3C[C@@H]2C=C[C@@H]13	
InChI=1S/C8H10O/c1-2-6-4-7-5(1)3-8(6)9-7/h1-2,5-8H,3-4H2	InChI=1S/C8H10O/c1-2-6-4-7-5(1)3-8(6)9-7/h1-2,5-8H,3-4H2/t5-,6-,7-,8-/m0/s1
