18
gdb 127263	4.54202	0.99845	0.88016	4.1787	80.13	-0.231	0.0038	0.2349	1347.1184	0.148855	-398.119604	-398.111229	-398.110285	-398.153776	30.396	
C	 0.1089194409	 1.4635826941	 0.1096676053	-0.330739
N	 0.0323548054	 0.0249563496	-0.0386182054	 0.084122
C	 0.420905787	-0.7514358922	-1.0796635567	-0.217882
C	 0.1173148702	-2.0389913967	-0.6866117069	 0.328842
N	-0.4340430375	-1.9714555786	 0.5610850629	-0.268075
N	-0.4840169582	-0.7279356492	 0.9488104932	-0.14939
C	 0.2938149607	-3.3332726488	-1.3684022569	-0.081334
C	 0.1271232461	-3.4624152029	-2.8690365079	-0.265536
C	 1.4922190495	-3.598538654	-2.2571681469	-0.265493
H	 1.1470788113	 1.8036108959	 0.0574822448	 0.146362
H	-0.4736585742	 1.9646661783	-0.6685521401	 0.146356
H	-0.3049837808	 1.7078258491	 1.087830446	 0.171168
H	 0.8607681529	-0.336814604	-1.9711681049	 0.137288
H	-0.0583954129	-4.1637546993	-0.7672682864	 0.103397
H	-0.3625530671	-4.3517995688	-3.2498028546	 0.118777
H	-0.0996202602	-2.5577829505	-3.4233964274	 0.111674
H	 2.19939129	-2.7870114451	-2.3928745975	 0.111685
H	 1.9467735667	-4.5820774571	-2.2147046707	 0.11878
36.9405	96.676	130.8	147.9379	237.9872	336.0651	430.4063	433.7098	592.1246	666.8561	728.2935	735.4844	778.2119	790.5601	823.9492	917.6655	921.1336	1018.2698	1045.1811	1059.8152	1071.8158	1075.0644	1082.9833	1137.7639	1151.4917	1171.3051	1201.6072	1219.1785	1270.07	1291.5788	1328.8366	1436.7205	1441.8074	1469.7575	1484.1177	1485.316	1501.923	1516.1646	1594.4744	3048.4852	3112.8802	3130.1082	3134.5456	3164.1367	3178.1128	3209.7426	3226.2861	3275.4464
CN1C=C(N=N1)C1CC1	Cn1cc(nn1)C1CC1	
InChI=1S/C6H9N3/c1-9-4-6(7-8-9)5-2-3-5/h4-5H,2-3H2,1H3	InChI=1S/C6H9N3/c1-9-4-6(7-8-9)5-2-3-5/h4-5H,2-3H2,1H3
