18
gdb 8218	4.40567	1.23571	1.0882	3.3724	68.78	-0.2379	-0.0094	0.2284	1121.7722	0.152359	-384.943483	-384.934869	-384.933924	-384.977853	30.08	
C	 0.9498118091	 0.764607221	 0.0001819434	-0.482194
C	-0.3576835563	 0.0026952025	 0.0143251944	 0.386371
O	-1.1487105544	 0.0694036356	 0.9269527439	-0.306522
C	-0.6159272605	-0.9206676597	-1.1776647623	-0.306145
C	-0.0800866283	-2.323184706	-0.8914847509	 0.165524
C	-0.0582913698	-3.3426606439	-2.0521167706	-0.301336
C	 1.459554501	-3.3975084949	-1.7874059897	-0.06019
O	 1.3658885184	-2.3591126857	-0.7878191229	-0.292556
H	 1.7720675998	 0.0579148786	-0.156834948	 0.165087
H	 0.9659690704	 1.4656546564	-0.8429997022	 0.133108
H	 1.0807410128	 1.31141312	 0.9346816628	 0.135398
H	-1.6982737765	-0.9879350919	-1.3272372971	 0.122895
H	-0.1450526385	-0.537338503	-2.0893202359	 0.099979
H	-0.5415732747	-2.7036099037	 0.0292755792	 0.096057
H	-0.6127298115	-4.2671601087	-1.8868730619	 0.116723
H	-0.3376842702	-2.9226367509	-3.0204382669	 0.113025
H	 1.8237770655	-4.3394083571	-1.359248256	 0.107292
H	 2.1143710037	-3.1092069887	-2.6174473391	 0.107486
44.8401	75.2597	96.9186	149.8833	176.8543	301.6428	374.5203	419.8196	526.5846	590.3107	739.1526	801.6169	808.9956	878.3884	882.3555	935.0911	971.5954	1005.355	1023.312	1067.4096	1095.9684	1123.6518	1165.3897	1183.7128	1216.7868	1239.1475	1258.8427	1295.3079	1306.7824	1367.3058	1380.7301	1384.0484	1458.4921	1471.5028	1475.1315	1490.0099	1532.4941	1813.4247	3017.0351	3023.5981	3032.3556	3043.0653	3062.7769	3079.6852	3097.393	3103.4153	3136.6598	3153.2973
CC(=O)CC1CCO1	CC(=O)C[C@H]1CCO1	
InChI=1S/C6H10O2/c1-5(7)4-6-2-3-8-6/h6H,2-4H2,1H3	InChI=1S/C6H10O2/c1-5(7)4-6-2-3-8-6/h6H,2-4H2,1H3/t6-/m1/s1
