15
gdb 56415	4.06994	0.64927	0.57515	0.9305	78.29	-0.2924	-0.007	0.2854	1812.0794	0.111032	-379.666552	-379.656809	-379.655865	-379.704262	32.76	
C	 0.6708836054	 0.859142931	 0.4160814089	-0.383152
C	-0.2836216635	-0.2818693551	-0.0170480438	-0.304746
C	-1.6526262405	 0.2288327902	-0.205181442	 0.290707
N	-2.722796016	 0.6431970121	-0.334600919	-0.314472
C	 0.1855140367	-0.960437869	-1.227571264	 0.133113
C	 0.5967785884	-1.5065106427	-2.2147643833	 0.079375
C	 1.0836607992	-2.1745321855	-3.4197073276	-0.472518
C	 2.5459069958	-2.3091444093	-3.4456974794	 0.279894
N	 3.6945079268	-2.4203448128	-3.4748860601	-0.294416
H	 1.6683899276	 0.4499545608	 0.5882279022	 0.146227
H	 0.7320910812	 1.6208181549	-0.3634128934	 0.152557
H	 0.3073292296	 1.3214674544	 1.3364454638	 0.144239
H	-0.3318289767	-1.0169746478	 0.7979643822	 0.163391
H	 0.6425287979	-3.1755948733	-3.5073297326	 0.189066
H	 0.7709453082	-1.6213391879	-4.3144606619	 0.190735
5.7739	59.6844	111.3889	136.8131	209.8802	232.2139	278.9071	321.7211	371.2988	391.304	449.45	520.8577	577.5274	604.4429	760.2868	859.8707	927.9872	936.015	998.5503	1073.1725	1092.6008	1182.4352	1233.2424	1297.2921	1326.1807	1339.3605	1409.4496	1447.299	1489.7027	1496.4757	2365.3653	2373.1087	2391.0721	3021.6756	3030.2755	3059.9942	3061.661	3144.0148	3148.8659
CC(C#N)C#CCC#N	C[C@@H](C#N)C#CCC#N	
InChI=1S/C7H6N2/c1-7(6-9)4-2-3-5-8/h7H,3H2,1H3	InChI=1S/C7H6N2/c1-7(6-9)4-2-3-5-8/h7H,3H2,1H3/t7-/m1/s1
