20
gdb 86232	1.94187	1.65927	1.22447	4.6715	78.23	-0.2706	0.0337	0.3043	1129.5443	0.17161	-403.181467	-403.172332	-403.171388	-403.215886	34.181	
C	-0.0968925726	 1.5462031528	-0.0581443671	-0.421613
C	-0.0220859625	 0.0246926649	 0.0416136372	 0.031883
C	 0.5764360318	-0.6773531332	-1.2061298722	-0.221279
C	 1.4157025465	-1.8744379304	-0.7032568131	 0.128133
O	 2.7789098503	-1.5314007446	-0.9185650172	-0.424429
C	 1.0813128693	-1.9904609534	 0.7967554083	-0.256078
C	 0.8020541411	-0.5364095579	 1.2417781524	-0.165934
C	 2.0318617839	 0.2140008799	 1.5090746758	 0.291255
N	 2.9806751762	 0.8236373603	 1.7636418169	-0.343739
H	 0.8995882044	 1.9814042768	-0.1804120974	 0.147016
H	-0.7048426235	 1.843498545	-0.9184548995	 0.117784
H	-0.5490475746	 1.9857229679	 0.8370659623	 0.117437
H	-1.0370949686	-0.3621082103	 0.1963724143	 0.081442
H	-0.2117146397	-0.9908682551	-1.8953003692	 0.102543
H	 1.2458835693	-0.0093692968	-1.7545498054	 0.130936
H	 1.1696679729	-2.8047860674	-1.2341910358	 0.066936
H	 3.3339448526	-2.2033873107	-0.5093249426	 0.284107
H	 0.1607776964	-2.5704373498	 0.9283581059	 0.107105
H	 1.8705277596	-2.4826107262	 1.3719992032	 0.108702
H	 0.2115407672	-0.5058964117	 2.1632685831	 0.117793
32.5731	107.3703	145.5883	226.6328	243.1697	297.2167	323.1068	391.9364	420.716	427.4856	465.8905	577.7661	637.288	747.8203	812.1037	824.2439	843.1772	906.3909	946.5971	974.7795	1000.3457	1018.3152	1057.3376	1061.0612	1117.4639	1164.5678	1198.4754	1200.0362	1226.232	1263.9799	1285.228	1320.7041	1335.4648	1356.7559	1374.1933	1380.3597	1415.0848	1418.1082	1479.1228	1488.6307	1497.4219	1498.4669	2352.1496	2995.3168	3020.5908	3035.6479	3045.1675	3061.4084	3066.7685	3099.0344	3102.1389	3111.0975	3115.1845	3814.5299
CC1CC(O)CC1C#N	C[C@H]1C[C@@H](O)C[C@H]1C#N	
InChI=1S/C7H11NO/c1-5-2-7(9)3-6(5)4-8/h5-7,9H,2-3H2,1H3	InChI=1S/C7H11NO/c1-5-2-7(9)3-6(5)4-8/h5-7,9H,2-3H2,1H3/t5-,6-,7+/m0/s1
