18
gdb 56982	2.96154	1.23566	0.98045	3.1058	75.51	-0.2541	0.0279	0.2819	1215.6616	0.147194	-401.920744	-401.912254	-401.91131	-401.95422	31.681	
C	-0.0127227958	 1.4720074338	-0.1366046708	-0.400017
C	 0.070806743	-0.0461084392	 0.112309542	-0.165304
C	 0.6971168071	-0.3495730316	 1.4016259017	 0.269683
N	 1.1708441585	-0.5925800829	 2.4276238315	-0.323509
C	-1.3212920197	-0.695049063	 0.0660793466	 0.139748
O	-1.9740852964	-0.5053163694	-1.2181860599	-0.30636
C	-2.2671717847	-1.9087080754	-1.2828365723	 0.106581
C	-1.0109879452	-2.7057011944	-1.3816914767	-0.301032
C	-1.4821267422	-2.210029325	-0.0264687535	-0.144868
H	 0.9832084406	 1.9203224474	-0.1528124065	 0.135573
H	-0.4991496892	 1.6465170208	-1.0986131996	 0.150431
H	-0.5976820383	 1.962913783	 0.646339207	 0.136042
H	 0.6876366927	-0.5016756357	-0.6704960872	 0.127343
H	-1.9474140206	-0.2707093663	 0.8612060282	 0.101361
H	-3.2512657269	-2.2027737271	-1.6259443472	 0.113546
H	-1.1438941957	-3.7735712537	-1.5244384222	 0.125044
H	-0.1415576667	-2.2844213788	-1.8778838801	 0.119618
H	-1.6973420304	-2.8683530823	 0.8026810491	 0.116119
63.7579	125.1241	160.616	213.7813	227.8329	280.368	374.4668	450.1323	474.4687	530.8559	585.4635	739.8554	774.0198	809.7731	853.9975	924.7652	946.9659	968.0604	994.5565	1022.4406	1035.4217	1049.9401	1056.6404	1083.8536	1096.0552	1103.3721	1158.9619	1200.9435	1257.9134	1280.4809	1298.4882	1324.3356	1362.1896	1389.5675	1411.2344	1476.5048	1496.5035	1498.7999	2356.1443	3026.4583	3051.9619	3057.0711	3121.4507	3128.4563	3142.4765	3192.7057	3209.4806	3221.7761
CC(C#N)C1OC2CC12	C[C@@H](C#N)[C@H]1O[C@H]2C[C@@H]12	
InChI=1S/C7H9NO/c1-4(3-8)7-5-2-6(5)9-7/h4-7H,2H2,1H3	InChI=1S/C7H9NO/c1-4(3-8)7-5-2-6(5)9-7/h4-7H,2H2,1H3/t4-,5+,6-,7+/m0/s1
