19
gdb 90141	3.5102	1.49302	1.30283	1.9981	79.54	-0.228	0.0028	0.2308	1040.8873	0.159697	-385.851852	-385.844297	-385.843353	-385.883386	30.659	
C	-0.0176527101	 1.6060332417	 0.1255517407	-0.403974
C	 0.0335352829	 0.0998849497	-0.0782482055	-0.040721
C	 1.140610869	-0.4997447444	-1.0376838631	-0.322114
C	 1.644359796	-1.3311830984	 0.153683526	 0.283754
O	 2.0136161088	-0.406712169	 1.2001505334	-0.303252
C	 0.6371243047	-0.758165498	 1.0616300353	 0.295208
C	 0.1357072721	-1.8458438264	 1.993158847	-0.371607
C	 0.9884511703	-3.0387430432	 1.5550394349	-0.057276
C	 1.7911369801	-2.7644549322	 0.5154033801	-0.176634
H	 0.9567980717	 1.9750347496	 0.4578048639	 0.133874
H	-0.2808868489	 2.120926524	-0.8046085346	 0.110955
H	-0.762102949	 1.8786359859	 0.8818467981	 0.113099
H	-0.9490673948	-0.2912672088	-0.3614049792	 0.077419
H	 0.7176198269	-1.103173537	-1.8435822593	 0.108828
H	 1.8644064333	 0.2066334746	-1.4518580501	 0.108094
H	 0.2774936051	-1.6092755768	 3.0540371415	 0.126023
H	-0.9347031976	-2.0398878581	 1.8499987687	 0.115559
H	 0.9689346396	-3.9835642601	 2.0892421123	 0.100332
H	 2.4736340999	-3.4612383033	 0.0443845399	 0.102433
134.1889	210.6571	231.1072	270.3992	295.1234	418.0731	441.8526	500.0624	574.4304	669.08	679.8811	735.2733	758.9348	819.3768	843.2766	863.884	894.3007	913.3738	934.3289	951.1632	979.3712	1055.3178	1074.4866	1096.4429	1129.865	1140.5336	1178.2323	1191.6569	1228.7729	1239.6504	1267.8803	1309.5881	1352.6455	1369.5133	1394.9146	1416.508	1461.3965	1474.2807	1491.5606	1503.1894	1629.7011	3030.7599	3031.2266	3054.2336	3064.8466	3067.2249	3093.9393	3115.9742	3124.333	3180.2027	3211.9594
CC1CC23OC12CC=C3	C[C@H]1C[C@@]23O[C@@]12CC=C3	
InChI=1S/C8H10O/c1-6-5-7-3-2-4-8(6,7)9-7/h2-3,6H,4-5H2,1H3	InChI=1S/C8H10O/c1-6-5-7-3-2-4-8(6,7)9-7/h2-3,6H,4-5H2,1H3/t6-,7+,8-/m0/s1
