13
gdb 19216	3.38169	1.98752	1.48101	3.5336	63.84	-0.2495	-0.0208	0.2286	830.1043	0.094523	-361.400755	-361.39384	-361.392896	-361.431969	25.785	
O	 0.1032857332	 0.0115926768	-0.0173620772	-0.280117
C	 0.0384549718	 1.1947284177	 0.0304181371	 0.395705
C	-1.1230604641	 2.2393372799	 0.1507571936	-0.329124
C	-1.9983498695	 2.2146943285	 1.3012517989	 0.327532
C	-2.7033876051	 2.1808695298	 2.2741682146	-0.441157
C	 0.0121886968	 3.2714693103	 0.072251016	-0.029258
C	 1.0311049513	 3.0266641398	 1.0950826997	-0.24428
N	 1.0746748844	 2.1906795045	-0.1533163746	-0.175385
H	-1.6959859515	 2.2080806872	-0.7833683001	 0.145825
H	-3.3331324336	 2.1501087164	 3.1289612231	 0.206692
H	-0.0021752117	 4.1500135879	-0.5598778223	 0.124782
H	 1.8772844727	 3.701850202	 1.1563772031	 0.147458
H	 0.7543171152	 2.5479828691	 2.0303179581	 0.151328
110.3594	132.0926	199.7055	354.0224	380.1116	516.5181	543.5627	627.3577	650.2434	655.5926	682.7823	752.4473	825.4474	855.2198	943.7086	991.8578	1012.813	1056.0261	1078.1015	1116.95	1141.9589	1168.6602	1236.7533	1321.3069	1355.9905	1504.3295	1930.0275	2237.8693	3053.4379	3126.8523	3203.6599	3223.303	3501.6202
O=C1C(C#C)C2CN12	O=C1[C@@H](C#C)[C@H]2CN12	
InChI=1S/C6H5NO/c1-2-4-5-3-7(5)6(4)8/h1,4-5H,3H2	InChI=1S/C6H5NO/c1-2-4-5-3-7(5)6(4)8/h1,4-5H,3H2/t4-,5+,7?/m0/s1
