14
gdb 12308	3.02759	2.21807	1.34392	3.7008	58.2	-0.2421	-0.0904	0.1517	858.8177	0.106938	-419.696699	-419.689646	-419.688702	-419.72865	25.557	
O	-0.0081319321	 0.0208504594	 0.4085801492	-0.265911
C	-0.0451772068	 1.1936935933	 0.1429139076	 0.299798
C	-1.3256798955	 1.9966403308	-0.0005526531	-0.311331
C	-1.1626105772	 3.1567788648	-0.9901478427	-0.102179
O	-0.0642503908	 3.9689859595	-0.6150998925	-0.236056
C	 1.1747514442	 3.3212336342	-0.8091027125	-0.190384
C	 1.287630419	 1.9753686915	-0.0923632181	 0.281367
O	 2.3439296006	 1.5027509005	 0.2345167012	-0.259836
H	-2.1468735223	 1.3239866381	-0.2656009949	 0.132979
H	-1.5485278266	 2.4215012219	 0.987924415	 0.147805
H	-1.0298675115	 2.7787817419	-2.0173063563	 0.102873
H	-2.0458397397	 3.7999442348	-0.9815830086	 0.127359
H	 1.360311624	 3.1318114689	-1.8828475062	 0.124294
H	 1.9626959347	 3.9863264104	-0.447754238	 0.14922
49.1184	127.5775	318.1355	332.6424	342.7283	408.6468	443.0392	526.6257	635.0629	639.8871	665.3438	868.748	916.7153	951.7936	998.5559	1078.9518	1097.9523	1152.9587	1184.0071	1216.4983	1258.6994	1305.0927	1342.0504	1357.8348	1405.0601	1440.9115	1459.2326	1507.9283	1816.7121	1837.4072	2943.0127	2975.9041	3027.5927	3098.1	3100.6505	3109.3217
O=C1CCOCC1=O	O=C1CCOCC1=O	
InChI=1S/C5H6O3/c6-4-1-2-8-3-5(4)7/h1-3H2	InChI=1S/C5H6O3/c6-4-1-2-8-3-5(4)7/h1-3H2
