19
gdb 93080	2.24564	1.64376	1.00645	3.0362	80.25	-0.21	-0.001	0.209	1182.7603	0.161225	-419.231753	-419.223328	-419.222384	-419.264856	32.002	
C	 0.0856940514	 1.4498360513	 0.0710648704	-0.317396
N	 0.0139557535	-0.0026249649	 0.0107383835	-0.0732
C	-1.3093724887	-0.4497133507	-0.3901922822	-0.207531
C	-1.4379745129	-1.926040368	-0.6181084993	-0.08754
C	-0.5651388913	-2.9111912951	-0.3942765316	 0.012154
N	 0.7051241268	-2.8682037127	 0.1838672908	-0.328775
C	 1.2927396612	-1.9065457856	 0.9758018987	 0.412485
O	 2.3963506485	-2.0870256644	 1.4511812256	-0.359357
C	 0.4853898634	-0.6404282142	 1.2380611139	-0.285849
H	 1.10661724	 1.7618144064	 0.3068179795	 0.128177
H	-0.1779016908	 1.8693993268	-0.904985698	 0.121549
H	-0.5937478756	 1.8934491628	 0.8238904511	 0.093911
H	-2.086716214	-0.1297247774	 0.3404405939	 0.082466
H	-1.5649408554	 0.0645885733	-1.3268656516	 0.112505
H	-2.3920250514	-2.2317462358	-1.0369915372	 0.095506
H	-0.845269556	-3.9226098587	-0.6714334182	 0.109446
H	 1.279318868	-3.6936858138	 0.0911626861	 0.2526
H	 1.168861854	 0.0263694131	 1.7645860868	 0.131114
H	-0.3424277208	-0.8778929825	 1.9320790876	 0.107735
88.7702	116.0486	161.0835	237.3932	324.7422	354.4629	367.8107	392.8656	446.349	492.0718	571.6964	610.2676	686.3346	735.402	821.5317	853.3345	909.9729	948.8823	964.7092	985.9363	1026.4438	1073.1105	1108.7033	1151.7055	1160.4995	1231.0686	1262.1522	1306.6107	1324.4819	1354.7341	1384.3282	1414.2685	1455.1041	1456.6529	1473.4929	1489.4787	1492.6019	1500.3439	1509.4006	1751.6031	1791.8006	2841.2359	2924.4547	2935.5467	3016.3641	3065.0729	3110.9405	3126.3153	3164.9468	3185.6887	3610.629
CN1CC=CNC(=O)C1	CN1CC=CNC(=O)C1	
InChI=1S/C6H10N2O/c1-8-4-2-3-7-6(9)5-8/h2-3H,4-5H2,1H3,(H,7,9)	InChI=1S/C6H10N2O/c1-8-4-2-3-7-6(9)5-8/h2-3H,4-5H2,1H3,(H,7,9)
