16
gdb 6623	7.83354	0.63454	0.60325	2.0324	88.96	-0.2333	-0.013	0.2203	1840.1603	0.127479	-346.562963	-346.553107	-346.552163	-346.599943	33.201	
C	-0.0078708224	 1.4535895569	-0.0369987671	-0.518196
C	 0.0097231057	 0.0021555226	-0.0223692324	 0.25134
C	 0.0253637298	-1.2080595756	-0.0083322106	-0.201997
C	 0.0424509047	-2.567672499	 0.0061663854	-0.29083
C	 0.0598430782	-3.7790063864	 0.0228374499	 0.357119
C	 0.0627039277	-5.2436285001	-0.0044961768	-0.055708
C	-1.3653827129	-5.8100970973	 0.0120373191	-0.384801
O	 0.8167368108	-5.7496936304	-1.1038859194	-0.410207
H	 1.0083876383	 1.8625788386	-0.065939938	 0.15765
H	-0.5463810737	 1.8351454969	-0.9118681998	 0.156694
H	-0.501571772	 1.8512619119	 0.8569353663	 0.157658
H	 0.5952449765	-5.6110388103	 0.8817452671	 0.122853
H	-1.9262464618	-5.4594398713	-0.8601706239	 0.119266
H	-1.3204434018	-6.9020024766	-0.0124002752	 0.127028
H	-1.9007053875	-5.4921996152	 0.9113042473	 0.127944
H	 0.4758243705	-5.3335389646	-1.9037060617	 0.284186
9.3878	67.3343	75.2332	168.1838	183.3694	248.9619	283.0066	317.9331	340.9679	375.9579	485.7993	505.4291	549.014	587.094	642.2783	845.2752	933.7534	1031.3477	1047.6186	1048.5949	1082.8304	1111.8343	1270.5649	1285.4295	1337.9615	1398.2631	1410.1501	1417.6953	1471.3765	1472.2168	1487.302	1490.6141	2273.5361	2382.9003	3024.3068	3033.1772	3040.4399	3086.5228	3086.8252	3116.2589	3128.0118	3802.1624
CC#CC#CC(C)O	CC#CC#C[C@@H](C)O	
InChI=1S/C7H8O/c1-3-4-5-6-7(2)8/h7-8H,1-2H3	InChI=1S/C7H8O/c1-3-4-5-6-7(2)8/h7-8H,1-2H3/t7-/m1/s1
