19
gdb 85996	2.54854	1.26335	1.16844	3.1709	72.26	-0.2417	-0.0217	0.2201	1148.784	0.156332	-460.159626	-460.149826	-460.148882	-460.194226	35.839	
C	-0.2083824078	 1.7429953434	 0.3451558447	-0.475087
C	-0.1314609941	 0.2372294598	 0.1062531765	 0.19044
C	 0.9508779717	-0.2382780387	-0.901728812	-0.309102
C	 1.9001820361	-0.5996585109	 0.2651163493	 0.060546
O	 2.7773151945	 0.4536836452	 0.6442614979	-0.447298
C	 0.6941632249	-0.5384600257	 1.2401694549	 0.110867
O	 0.8980550504	 0.0647128039	 2.4747600689	-0.421338
C	-1.4992392194	-0.3619338001	-0.0813933974	 0.097781
O	-1.7570886212	-1.2816870833	-0.8197829693	-0.265175
H	 0.7859438832	 2.1584528465	 0.5213966242	 0.12767
H	-0.639064669	 2.2536995185	-0.5232851436	 0.119379
H	-0.8285918314	 1.9681824901	 1.2185415594	 0.131021
H	 0.6112561414	-1.1141883751	-1.4589338634	 0.131353
H	 1.3249061971	 0.5158859225	-1.5992198535	 0.098317
H	 2.4424830567	-1.5507689283	 0.2020854249	 0.076212
H	 3.426627075	 0.5859022998	-0.0526918912	 0.294834
H	 0.2632218475	-1.5296950716	 1.4058829095	 0.101408
H	 1.6418365039	 0.6716623426	 2.3617243866	 0.302341
H	-2.2899740895	 0.0846534514	 0.5656915439	 0.075831
66.6541	93.7044	179.9385	186.6276	209.2014	238.8968	257.7129	280.0085	329.1473	409.3528	435.1176	457.2315	577.0484	616.4896	718.7174	783.266	842.7051	854.2587	885.8724	943.4931	962.8444	1019.3994	1043.9745	1119.3661	1134.9282	1162.1659	1172.2669	1218.5617	1247.2199	1264.69	1285.2295	1324.268	1337.3501	1399.0393	1409.8018	1424.2113	1442.1057	1470.9763	1487.9479	1505.9515	1811.1214	2860.1026	3025.6112	3035.2737	3062.8774	3074.9694	3101.0586	3126.2017	3128.6776	3763.5096	3834.5911
CC1(CC(O)C1O)C=O	C[C@]1(C[C@@H](O)[C@H]1O)C=O	
InChI=1S/C6H10O3/c1-6(3-7)2-4(8)5(6)9/h3-5,8-9H,2H2,1H3	InChI=1S/C6H10O3/c1-6(3-7)2-4(8)5(6)9/h3-5,8-9H,2H2,1H3/t4-,5-,6+/m1/s1
