17
gdb 128164	1.98677	1.80614	1.00044	2.2435	71.3	-0.1974	0.0568	0.2542	1160.041	0.137682	-451.328565	-451.319419	-451.318475	-451.362223	33.727	
C	-0.6093628464	 1.3757188613	 0.1759247332	-0.325411
N	 0.3567716691	 0.2950713392	-0.0617726767	-0.423464
C	 0.8071629454	-0.3879872429	 1.0972286415	-0.034293
C	 2.1311228627	-0.3775647107	 1.4932014116	 0.447383
O	 3.188891814	 0.1991638958	 0.9012405533	-0.432115
N	 2.2280977248	-1.0681408514	 2.6395735061	-0.287107
N	 1.0090309179	-1.5665641097	 3.0444291861	-0.327955
C	 0.1597661967	-1.1457933457	 2.1171717668	 0.323738
N	-1.2100305771	-1.398533894	 2.2296682574	-0.590537
H	-0.1350062828	 2.1516661055	 0.7838166214	 0.12875
H	-0.8950646995	 1.8194399257	-0.783004071	 0.111601
H	-1.5185647303	 1.0497336986	 0.7009183945	 0.121106
H	-0.0020449933	-0.3420796724	-0.7650869889	 0.223168
H	 2.8243784045	 0.6273220696	 0.1103453516	 0.303419
H	 3.049371914	-1.2493290726	 3.1874744831	 0.273792
H	-1.3916436275	-2.0953509327	 2.94234242	 0.249052
H	-1.632424792	-1.6806156537	 1.35427193	 0.238874
89.9534	141.5881	171.0622	196.3468	239.4479	263.2387	282.9876	316.0241	409.4876	444.2997	525.0894	569.5785	589.3769	668.8717	695.9084	714.4909	769.5506	822.7969	824.509	1034.4278	1058.3604	1107.0356	1151.2401	1170.0601	1176.0805	1215.2961	1302.9467	1383.9387	1449.1789	1456.9155	1469.2263	1488.8616	1519.3198	1541.7407	1616.1125	1640.0756	1667.1055	3000.5144	3074.0464	3110.1558	3503.6528	3528.3187	3622.2045	3700.132	3713.6716
CNC1=C(O)NN=C1N	CNc1c(O)[nH]nc1N	
InChI=1S/C4H8N4O/c1-6-2-3(5)7-8-4(2)9/h6H,1H3,(H4,5,7,8,9)	InChI=1S/C4H8N4O/c1-6-2-3(5)7-8-4(2)9/h6H,1H3,(H4,5,7,8,9)
