12
gdb 23990	5.04652	0.99923	0.83408	4.6561	84.55	-0.2422	-0.067	0.1751	1257.3406	0.077588	-398.359196	-398.351794	-398.35085	-398.39132	27.253	
C	 0.2029799989	-1.1239416424	-0.0058659828	-0.376308
C	 0.0650496719	 0.0719577241	 0.0023523962	 0.2232
C	-0.1139664264	 1.4648744411	 0.0121538392	 0.225173
C	-1.2414350877	 2.2493899823	 0.032553807	-0.265635
C	-0.7977101412	 3.5946959267	 0.0331132346	-0.236944
C	 0.571432612	 3.5438858882	 0.0129007495	 0.25403
O	 1.0010252319	 2.2514045597	 8.8106*^-6	-0.19409
C	 1.5475650862	 4.5624000694	 0.003973125	 0.206857
N	 2.3286698175	 5.4180973327	-0.0029508466	-0.329063
H	 0.3256946767	-2.1792322329	-0.0131434279	 0.207863
H	-2.2578423642	 1.8911856315	 0.0454503563	 0.137741
H	-1.3977691055	 4.4902447095	 0.0464877188	 0.147176
117.717	121.9832	199.0855	204.4292	435.2723	486.7028	494.4395	532.0411	584.3317	592.7539	646.3349	671.2282	698.173	699.523	820.3597	879.0595	986.2008	989.5644	1048.1569	1221.758	1230.9555	1261.8848	1385.1877	1523.0001	1600.2033	2236.3356	2342.6537	3267.6924	3280.3715	3499.9742
C#CC1=CC=C(O1)C#N	C#Cc1ccc(o1)C#N	
InChI=1S/C7H3NO/c1-2-6-3-4-7(5-8)9-6/h1,3-4H	InChI=1S/C7H3NO/c1-2-6-3-4-7(5-8)9-6/h1,3-4H
