17
gdb 46274	3.1001	1.49293	1.24074	4.2052	71.34	-0.2551	0.0059	0.2609	1028.4875	0.137024	-421.818764	-421.81143	-421.810486	-421.850755	28.295	
O	-0.0797361908	 0.0958606369	-0.4057369837	-0.335168
C	-0.0154610532	 1.2360224944	-0.0719791748	 0.431184
O	-1.0103685279	 2.009703487	 0.4782068803	-0.249641
C	-0.1207479276	 3.169543234	 0.5748226518	-0.154662
C	 1.0271178308	 2.3546756651	-0.0430023686	 0.133672
C	 2.4053586398	 2.2006273901	 0.6760081967	-0.312828
C	 3.1113416664	 2.6315916468	-0.616167753	-0.038072
C	 2.7170268338	 1.7221400952	-1.7435865877	-0.279939
C	 1.7596963914	 2.8013612241	-1.3116553032	-0.120678
H	-0.5027807631	 3.9996581954	-0.0244462124	 0.125143
H	 0.0070517894	 3.4732286567	 1.6167359436	 0.123057
H	 2.5031043405	 2.9275952508	 1.4860549335	 0.11343
H	 2.6472835591	 1.2042174086	 1.0581327143	 0.119249
H	 3.9865135345	 3.2664967244	-0.667136327	 0.093625
H	 3.2151553595	 1.911383633	-2.688804943	 0.117679
H	 2.4760751526	 0.6789353544	-1.5608373902	 0.139343
H	 1.4100950047	 3.5756639229	-1.9838130166	 0.094608
114.692	126.2054	165.7507	318.4612	327.0551	412.257	448.9612	620.5906	713.8559	744.1223	786.9314	791.3476	827.3734	892.3404	912.1197	942.1389	959.7269	972.2539	983.5993	1032.8415	1058.1562	1086.3441	1099.6229	1131.8714	1149.3845	1162.9892	1175.2377	1200.8435	1239.6025	1256.4617	1307.1523	1353.9555	1360.9236	1476.6409	1495.2464	1514.6092	1926.7508	3052.6193	3061.3397	3108.2298	3121.4905	3124.2733	3181.6118	3194.6904	3213.9466
O=C1OCC11CC2CC12	O=C1OC[C@]21C[C@H]1C[C@@H]21	
InChI=1S/C7H8O2/c8-6-7(3-9-6)2-4-1-5(4)7/h4-5H,1-3H2	InChI=1S/C7H8O2/c8-6-7(3-9-6)2-4-1-5(4)7/h4-5H,1-3H2/t4-,5-,7-/m1/s1
