16
gdb 28266	4.70347	1.23627	0.99751	1.8604	71.26	-0.1714	0.0601	0.2315	1133.8881	0.128119	-434.092802	-434.085412	-434.084468	-434.124497	28.611	
O	-0.0233546338	 1.2807875451	 0.1643484707	-0.428312
C	 0.020541342	-0.0577517201	 0.0255198902	 0.41034
N	 0.0720706062	-0.7296944137	-1.0942611725	-0.450542
C	 0.1066235918	-2.0526047698	-0.670676466	 0.247463
C	 0.0796033269	-2.1363933391	 0.6759473786	 0.319951
N	 0.0340508114	-3.4200016962	 1.25211132	-0.417845
C	-0.1376847793	-4.2812644379	 0.0237229078	-0.162339
C	 0.1778218703	-3.4294925857	-1.2624697042	-0.349359
N	 0.0164973746	-0.8391446564	 1.1558596523	-0.421985
H	-0.0024649442	 1.6399700864	-0.7315939433	 0.312646
H	 0.9071400086	-3.6535660811	 1.7214753264	 0.225836
H	 0.4855932412	-5.1740940722	 0.1101269938	 0.10485
H	-1.1832158959	-4.6021326626	-0.0043384417	 0.121979
H	-0.5653147508	-3.6294824825	-2.0403905039	 0.11322
H	 1.1630721635	-3.6587919062	-1.692777888	 0.102144
H	-0.0605324126	-0.5111189881	 2.1028429598	 0.271952
122.5434	174.3589	255.9238	288.9208	317.0745	392.9921	426.0892	518.6343	547.1757	663.9768	702.7282	709.9398	729.078	799.4924	836.2101	909.9013	936.7127	967.0809	1021.4985	1068.2297	1137.5886	1169.3773	1183.3896	1243.8295	1257.1987	1279.7237	1351.473	1373.0075	1400.7334	1474.9197	1492.4473	1510.5453	1525.3139	1612.3854	1672.5135	2999.4089	3052.3705	3072.2341	3110.1913	3444.2286	3680.6665	3805.5166
OC1=NC2=C(NCC2)N1	Oc1nc2c(NCC2)[nH]1	
InChI=1S/C5H7N3O/c9-5-7-3-1-2-6-4(3)8-5/h6H,1-2H2,(H2,7,8,9)	InChI=1S/C5H7N3O/c9-5-7-3-1-2-6-4(3)8-5/h6H,1-2H2,(H2,7,8,9)
