20
gdb 54264	2.46263	1.37806	1.25615	5.2084	73.78	-0.2434	0.0258	0.2691	1123.2453	0.172587	-440.337591	-440.328894	-440.327949	-440.371522	33.001	
C	-0.12101715	 1.6013148994	 0.0447768243	-0.457213
C	 0.0775247944	 0.0817768654	-0.0024842009	 0.156192
C	 0.8799681441	-0.3855142578	-1.2608292774	-0.257716
C	 2.2152575274	-0.9083265255	-0.7006309109	-0.204526
C	 1.8258079678	-1.3819503071	 0.7062781575	-0.175957
N	 0.836390649	-0.3965084954	 1.186443384	-0.352838
H	 1.3153719812	 0.3843822254	 1.621903199	 0.22791
H	-0.796186009	-1.0866487345	 1.7030988335	 0.303263
C	-1.3248366091	-0.5750466832	 0.0138809155	 0.421135
O	-2.0833503963	-0.5132883533	-0.9181936969	-0.359658
O	-1.616160922	-1.1932307131	 1.1633091111	-0.375726
H	 0.8388943808	 2.1175238893	-0.0669477062	 0.113617
H	-0.7816504401	 1.9118980513	-0.7673212935	 0.156575
H	-0.5757452752	 1.9113805899	 0.9918859679	 0.127084
H	 0.33244326	-1.1734205472	-1.7832249461	 0.128981
H	 1.0144239345	 0.4327291183	-1.9716993427	 0.110411
H	 2.65549644	-1.6985457432	-1.3145381935	 0.10858
H	 2.9493822983	-0.0973212324	-0.6275812041	 0.099753
H	 1.3462282668	-2.3676806688	 0.6580799772	 0.118986
H	 2.6607125269	-1.4547735677	 1.4073083322	 0.111148
39.2575	93.7952	206.3821	225.9903	272.8531	288.4667	329.1876	382.995	474.7337	541.7747	593.9807	675.6538	759.6661	770.4503	800.0837	846.0515	879.8051	913.3165	919.2199	930.8094	949.7529	1013.7005	1027.8388	1072.2047	1118.5785	1155.7092	1180.0095	1204.8106	1223.3444	1269.8403	1282.0499	1320.2585	1340.0409	1365.8731	1401.0094	1432.9729	1456.833	1489.3269	1493.0195	1499.2007	1502.3912	1512.3824	1860.3485	3029.6587	3031.0379	3040.2881	3073.4957	3096.6375	3097.6855	3104.8031	3119.015	3134.4597	3388.3068	3525.7007
CC1(CCC[NH2+]1)C([O-])=O	C[C@]1(CCCN1)C(=O)O	
InChI=1S/C6H11NO2/c1-6(5(8)9)3-2-4-7-6/h7H,2-4H2,1H3,(H,8,9)	InChI=1S/C6H11NO2/c1-6(5(8)9)3-2-4-7-6/h7H,2-4H2,1H3,(H,8,9)/t6-/m0/s1
