19
gdb 39439	2.43906	1.97631	1.34344	0.6717	74.8	-0.242	0.076	0.3179	986.9417	0.16126	-422.991285	-422.984089	-422.983144	-423.02268	29.122	
C	-0.0007382402	 1.5221062517	-0.0124701941	-0.411016
C	 1.2955935092	 0.7512337877	 0.0459596711	 0.060533
O	 1.9854324813	 0.6899355935	 1.2576911509	-0.258444
C	 2.0739593218	-0.6557345582	 1.7347397141	-0.08286
C	 0.6973526223	-1.1467077126	 2.1881389797	-0.233097
C	-0.3484305985	-0.9701435714	 1.0906325322	 0.092329
O	-0.3689775506	-2.0349635528	 0.0987972492	-0.301647
C	-0.3855074333	-1.0776608874	-0.9886241293	-0.152982
C	-0.0110011805	 0.0249383851	-0.0149597418	 0.253251
H	-0.3218253734	 2.0279998321	 0.8924458748	 0.124446
H	-0.2325988964	 2.0462773163	-0.9343684589	 0.116984
H	 1.935424091	 0.7557949694	-0.8379657927	 0.086229
H	 2.4835458789	-1.3105357878	 0.9519155038	 0.101682
H	 2.7795826773	-0.6370237637	 2.5690295783	 0.109284
H	 0.7325549378	-2.2017059202	 2.4824220669	 0.11415
H	 0.3910900577	-0.56741685	 3.0667508083	 0.106148
H	-1.3525594714	-0.8457877087	 1.5209160208	 0.071902
H	 0.3368833219	-1.3256312057	-1.7752427416	 0.104463
H	-1.3884466349	-0.9874224974	-1.4299765616	 0.098643
133.8147	187.5606	251.2557	316.3217	373.3903	426.4224	461.1545	493.4244	584.8912	651.4552	803.6178	820.6365	838.2077	868.5742	899.7709	928.6723	973.0122	994.828	1006.5182	1036.7535	1054.5399	1076.2526	1094.4184	1106.3759	1116.0942	1155.8549	1170.753	1222.0003	1236.1503	1284.5738	1290.1615	1317.2755	1349.3098	1368.4582	1388.9392	1404.6112	1427.818	1457.4565	1486.6243	1503.3814	1524.3701	2989.7644	2998.7736	3004.2954	3040.0597	3052.8613	3084.9792	3088.0977	3100.2387	3126.0426	3214.0728
C1C2OCCC3OCC123	C1[C@H]2OCC[C@@H]3OC[C@]123	
InChI=1S/C7H10O2/c1-2-8-6-3-7(6)4-9-5(1)7/h5-6H,1-4H2	InChI=1S/C7H10O2/c1-2-8-6-3-7(6)4-9-5(1)7/h5-6H,1-4H2/t5-,6+,7-/m0/s1
