14
gdb 132990	2.53219	1.82202	1.06661	5.0993	67.98	-0.2299	-0.0545	0.1754	1031.4075	0.101399	-478.028731	-478.021138	-478.020194	-478.061286	27.683	
C	-0.0142665109	 1.4547628146	 0.0088726175	-0.338524
N	 0.0061710427	-0.0053520467	-0.0227332529	-0.113083
C	-0.1033021584	-0.705943425	-1.1959739903	 0.000317
C	-0.0806211132	-2.0612926353	-1.1885249855	-0.088556
N	 0.0509021283	-2.7716725332	-0.0226966294	-0.297147
C	 0.1523183222	-2.1088213024	 1.0664109258	 0.242713
F	 0.2802407766	-2.7646287364	 2.2057570953	-0.041813
C	 0.1437986948	-0.6440134961	 1.2141134917	 0.292558
O	 0.2411278073	-0.0248778445	 2.2572507271	-0.387525
H	 0.9116600651	 1.8294499432	 0.4513394236	 0.164851
H	-0.1238732444	 1.8323200054	-1.0075830501	 0.135507
H	-0.8435422772	 1.801141585	 0.630047689	 0.16479
H	-0.2058940575	-0.120724267	-2.100540731	 0.137755
H	-0.1657490255	-2.6300242617	-2.1047313108	 0.128157
75.1821	115.8829	210.0286	298.1803	314.761	332.6133	488.4125	517.4514	544.44	588.8563	592.9303	723.2784	790.6939	800.9364	874.4275	904.8654	1006.5029	1063.721	1152.4524	1152.7306	1252.8265	1288.0929	1327.3981	1367.9219	1446.2401	1467.7166	1471.6804	1513.1486	1596.6424	1669.796	1771.038	3060.3808	3128.1714	3160.8359	3210.3892	3228.2264
CN1C=CN=C(F)C1=O	Cn1ccnc(F)c1=O	
InChI=1S/C5H5FN2O/c1-8-3-2-7-4(6)5(8)9/h2-3H,1H3	InChI=1S/C5H5FN2O/c1-8-3-2-7-4(6)5(8)9/h2-3H,1H3
