20
gdb 40599	5.03508	1.04661	1.02397	1.2922	82.59	-0.2052	0.0814	0.2866	1240.3909	0.171516	-365.892409	-365.884784	-365.88384	-365.924505	31.021	
C	 0.3519560043	 1.6115180606	-0.0357556914	-0.298332
C	 1.3277647346	 0.4664045259	 0.0307803728	-0.061623
C	-0.1653842376	 0.1970509147	-0.0881129692	-0.066049
C	 0.0716965021	-0.5364487013	-1.4379914593	-0.092724
C	 1.5648742542	-0.2584905545	-1.3221429808	-0.07302
C	 0.7874865961	 0.3025331224	-2.4801671276	-0.000529
N	 1.0989301765	-0.2141614384	-3.7913419676	-0.09456
C	 1.0004949775	-1.640673782	-4.078908776	-0.228173
C	-0.0020058337	-0.6858435145	-4.627431346	-0.215439
H	 0.1867481712	 2.0949851625	 0.9231061841	 0.109033
H	 0.2983589926	 2.3016153124	-0.8696751887	 0.117557
H	 1.9723234673	 0.3152227663	 0.8874243037	 0.088756
H	-0.8412519883	-0.1874324079	 0.6655674384	 0.087722
H	-0.421303439	-1.4708807887	-1.6723616878	 0.084708
H	 2.3870633804	-0.9424520655	-1.491202726	 0.090286
H	 0.5868903631	 1.3658350867	-2.5514420515	 0.089972
H	 1.7891755591	-2.0348147389	-4.7140384916	 0.115855
H	 0.6698013611	-2.3222229423	-3.2997692907	 0.118409
H	-0.9971222757	-0.7120773114	-4.1877583013	 0.112594
H	 0.0336934742	-0.382476886	-5.6699750035	 0.115556
79.0986	167.5484	193.3251	304.5597	316.5099	425.0423	464.0401	517.7508	699.159	708.2518	770.1252	796.786	818.2824	860.0926	870.7961	886.3559	894.9082	906.4721	965.2532	976.1136	996.4294	1023.5548	1031.0757	1053.1549	1068.3749	1076.7687	1081.1271	1111.4358	1118.5858	1120.576	1158.7676	1175.5183	1184.7679	1207.4343	1242.4785	1279.421	1282.1082	1342.7734	1349.3455	1423.0923	1491.587	1498.8809	1518.5131	3099.8583	3110.4171	3126.2324	3160.1838	3177.095	3181.5123	3186.2028	3188.2233	3195.8728	3198.0811	3206.8009
C1C2C1C1C2C1N1CC1	C1[C@H]2[C@@H]1[C@@H]1[C@H]2[C@H]1N1CC1	
InChI=1S/C8H11N/c1-2-9(1)8-6-4-3-5(4)7(6)8/h4-8H,1-3H2	InChI=1S/C8H11N/c1-2-9(1)8-6-4-3-5(4)7(6)8/h4-8H,1-3H2/t4-,5+,6-,7+,8+
