16
gdb 29122	3.03491	1.38482	0.95793	5.0863	77.43	-0.2051	-0.0474	0.1578	1178.0301	0.124591	-437.94661	-437.938286	-437.937341	-437.979331	31.348	
C	-0.020643044	 1.5237304026	-0.017447549	-0.471672
C	-0.0494144538	 0.0247826959	 0.0100766008	 0.095808
C	-1.1745797628	-0.719781318	-0.1143514312	-0.166728
C	-1.143386896	-2.1554047805	-0.0737077637	 0.181249
N	-2.3354161298	-2.8752385893	-0.283647168	-0.590096
C	 0.0665164133	-2.7358025578	 0.0917199675	-0.002039
O	 1.2145196508	-2.0235808768	 0.1895041266	-0.214394
C	 1.2443054634	-0.6382949937	 0.171145945	 0.385452
O	 2.311295692	-0.0867182126	 0.2832948882	-0.35252
H	 0.6216475495	 1.8819263548	-0.82872925	 0.148928
H	-1.0233353946	 1.9378372296	-0.1478177933	 0.115495
H	 0.410994426	 1.9184275749	 0.9083960596	 0.147151
H	-2.1356048467	-0.2307537052	-0.256674375	 0.105365
H	-3.1137971031	-2.5069794431	 0.2497269183	 0.248484
H	-2.2400788176	-3.8643984323	-0.091094772	 0.245957
H	 0.2445761034	-3.8030044484	 0.1428525463	 0.123559
109.4457	145.6976	199.221	230.9652	273.6646	341.8698	355.161	393.204	475.1352	495.0944	568.2138	589.7978	673.4368	744.3449	778.3791	814.8385	828.339	930.1846	975.6628	1007.7137	1045.5683	1069.085	1134.3658	1203.736	1222.0961	1315.4573	1380.6777	1414.6973	1449.9405	1467.7892	1489.4989	1615.216	1656.4568	1712.6918	1810.8981	3038.959	3094.6029	3125.5115	3156.8043	3207.9832	3527.7795	3618.9933
CC1=CC(N)=COC1=O	Cc1cc(N)coc1=O	
InChI=1S/C6H7NO2/c1-4-2-5(7)3-9-6(4)8/h2-3H,7H2,1H3	InChI=1S/C6H7NO2/c1-4-2-5(7)3-9-6(4)8/h2-3H,7H2,1H3
