14
gdb 126364	3.01979	1.34615	0.94178	4.3377	66.65	-0.281	-0.122	0.159	1176.0712	0.098566	-469.985126	-469.97689	-469.975946	-470.019155	28.862	
C	 0.1153415034	 1.5494106939	 0.0080208105	-0.385668
C	-0.0471272695	 0.0330828081	 0.0035439859	-0.26525
C	-1.4633107054	-0.4461914319	 0.0129812716	 0.39232
N	-2.4658582898	 0.3498434984	 0.0242603603	-0.325853
C	-3.7489051087	-0.1977742139	 0.0323191183	 0.479714
O	-4.7585704372	 0.4340316784	 0.0429362269	-0.308198
O	-3.8379592887	-1.5875513741	 0.0274652114	-0.239508
N	-2.6768846927	-2.4085449953	 0.0147670194	 0.085503
N	-1.5707612968	-1.8675290561	 0.0080335591	-0.14358
H	 1.1762783818	 1.8110554629	 0.0006394086	 0.123906
H	-0.3597752957	 1.9991343967	-0.8671558691	 0.142851
H	-0.3458849498	 1.9924449941	 0.8939697538	 0.142865
H	 0.4377524631	-0.4258716196	-0.8695185046	 0.150446
H	 0.451485216	-0.4324197315	 0.8653421681	 0.15045
38.5776	94.3209	149.203	180.2903	231.1732	376.3382	387.484	458.4936	544.8534	575.0753	628.0534	703.6345	757.5116	790.6242	821.6386	888.5422	985.0294	1005.6197	1091.7135	1099.9308	1153.9791	1206.0754	1273.2403	1393.0176	1423.3948	1442.5179	1493.6981	1498.4506	1597.58	1697.8965	1887.1302	3022.9697	3045.0922	3057.4834	3132.1069	3132.8073
CCC1=NC(=O)ON=N1	CCc1nc(=O)onn1	
InChI=1S/C4H5N3O2/c1-2-3-5-4(8)9-7-6-3/h2H2,1H3	InChI=1S/C4H5N3O2/c1-2-3-5-4(8)9-7-6-3/h2H2,1H3
