21
gdb 79628	2.10829	1.91038	1.54204	2.115	81.69	-0.2082	0.0706	0.2788	1015.0009	0.184358	-383.216507	-383.208383	-383.207439	-383.248526	32.799	
C	-0.1421797081	 2.1626221362	-0.4329156083	-0.43376
C	-0.0022929368	 0.6639767815	-0.6066717944	 0.017802
C	 0.7654949051	-0.0772867294	-1.6529563892	-0.053574
C	 1.9598649156	 0.4961797969	-2.3803261481	-0.048079
N	 2.4140409279	 1.8490220234	-1.9731666751	-0.335294
C	 3.0563065733	 0.6579618307	-1.3925804213	-0.056012
C	 2.5119661075	 0.2361920579	-0.0231990067	 0.0465
C	 2.6911686664	 1.251547907	 1.1044479561	-0.39804
N	 1.1121076175	-0.230058084	-0.2200606844	-0.141102
H	 0.7290022766	 2.7165075889	-0.7684680598	 0.162315
H	-1.0090799145	 2.4970917204	-1.0153430324	 0.109288
H	-0.351079176	 2.3965951345	 0.6171686654	 0.111542
H	-0.9348378611	 0.166527944	-0.3307572774	 0.085929
H	 0.3117490675	-0.9385833294	-2.1419207088	 0.079711
H	 2.1423835425	 0.1735007289	-3.3996375557	 0.08654
H	 3.0094461495	 2.2308996067	-2.7043144796	 0.231364
H	 4.0965922446	 0.4550876989	-1.6316985103	 0.085047
H	 3.0631533847	-0.6729148802	 0.2546665874	 0.083573
H	 2.2919412474	 2.2293168275	 0.8319391951	 0.134497
H	 2.1856631835	 0.9050853776	 2.0102062247	 0.122977
H	 3.7545816869	 1.371749692	 1.3363767226	 0.108777
153.9516	174.8214	222.0214	246.3557	261.7247	301.0287	343.7008	468.0609	539.829	602.0077	674.883	680.4622	727.8349	746.3113	804.0767	822.3019	875.3715	905.9205	916.512	969.6776	985.9178	1048.5787	1061.9982	1077.4952	1099.5284	1114.1134	1135.4499	1147.2392	1161.2744	1172.3627	1185.3464	1246.7542	1311.4007	1336.4703	1360.7944	1373.8175	1392.8521	1402.3715	1404.7866	1422.6586	1444.8228	1490.5037	1492.5425	1506.0215	1521.3988	3002.2138	3030.0676	3045.7934	3067.2526	3079.5793	3106.0262	3108.6498	3144.6127	3146.4094	3171.5656	3195.1408	3493.2752
CC1C2C3NC3C(C)N12	C[C@H]1[C@H]2[C@H]3N[C@H]3[C@@H](C)N12	
InChI=1S/C7H12N2/c1-3-5-6(8-5)7-4(2)9(3)7/h3-8H,1-2H3	InChI=1S/C7H12N2/c1-3-5-6(8-5)7-4(2)9(3)7/h3-8H,1-2H3/t3-,4+,5+,6+,7+,9?/m1/s1
