21
gdb 110682	4.71242	1.043	1.0104	1.6187	82.13	-0.2334	0.0919	0.3253	1275.9191	0.184189	-387.048611	-387.040861	-387.039917	-387.080986	30.91	
C	-0.0121306643	 1.5779086926	-0.0929588936	-0.375029
C	 0.0190690685	 0.0734470613	 0.2016248258	-0.214527
C	-1.3550639294	-0.573692034	 0.0808066955	 0.029428
C	-1.9773467455	-0.8759261109	-1.3094790164	-0.102747
C	-1.0646519146	-2.1451705452	-1.4569252461	-0.061501
C	-1.9115174197	-3.2116412927	-2.1395330602	-0.109019
O	-3.1844706176	-2.997037178	-1.506228239	-0.286025
C	-2.9005022269	-1.9282676004	-0.6268922335	 0.152648
C	-1.5096083127	-2.1157881136	 0.0485157043	-0.119758
H	 0.977453385	 2.0286890989	 0.0302219662	 0.11147
H	-0.3432846224	 1.7742127437	-1.118387935	 0.116922
H	-0.7013136255	 2.0986128484	 0.5812520064	 0.114255
H	 0.7373910314	-0.4143944499	-0.4664581224	 0.09415
H	 0.3941847773	-0.0885284984	 1.2209053041	 0.095294
H	-2.0538487349	-0.0796365525	 0.7699701971	 0.05897
H	-2.2544352011	-0.1760776252	-2.0996793427	 0.068604
H	-0.0165034111	-2.0585487063	-1.7373356637	 0.073424
H	-2.0013720572	-3.0687273867	-3.2238908125	 0.10076
H	-1.5625128988	-4.2340650943	-1.9468679874	 0.100861
H	-3.7851187255	-1.640631026	-0.0598687413	 0.084227
H	-1.2452542653	-2.8388711707	 0.8223134846	 0.067591
76.5256	154.2664	193.6122	273.5415	302.7101	343.7057	462.1507	503.6859	678.5953	734.1832	747.8513	772.8954	799.5858	850.2656	917.2814	923.1945	948.3646	962.5178	977.734	981.1108	983.3579	1032.1876	1050.0694	1081.1546	1092.8169	1120.4958	1128.592	1150.3926	1152.524	1165.7207	1210.9307	1217.5405	1244.5981	1268.6238	1280.7911	1295.1539	1320.2144	1350.1348	1386.1157	1410.7901	1434.695	1486.0948	1499.833	1507.7105	1520.3785	3006.3081	3014.8805	3020.906	3030.6186	3051.9755	3062.2783	3094.7792	3097.6781	3098.9767	3103.3528	3133.9516	3139.1125
CCC1C2C3COC2C13	CC[C@H]1[C@H]2[C@@H]3CO[C@H]2[C@H]13	
InChI=1S/C8H12O/c1-2-4-6-5-3-9-8(6)7(4)5/h4-8H,2-3H2,1H3	InChI=1S/C8H12O/c1-2-4-6-5-3-9-8(6)7(4)5/h4-8H,2-3H2,1H3/t4-,5-,6-,7+,8+
