14
gdb 128705	4.97545	1.12436	0.92244	1.6802	70.31	-0.2475	-0.091	0.1565	1195.4655	0.100775	-469.970235	-469.962459	-469.961515	-470.002962	28.127	
C	 0.1334839024	 1.3882654728	-0.1265165016	-0.235562
O	 0.1330345688	-0.0390876177	-0.0226234323	-0.23222
C	 0.5720661442	-0.5589052869	 1.1222879022	 0.497215
N	 0.9703576833	 0.2213824261	 2.068997219	-0.197585
O	 1.418427788	-0.4221303121	 3.2461098835	-0.281941
C	 1.4202422395	-1.783752071	 3.3511116948	 0.394219
N	 1.8143326393	-2.3987681955	 4.3901006261	-0.51746
C	 0.9344703957	-2.5154076571	 2.1802859077	-0.001315
N	 0.5254165125	-1.9514398933	 1.1073732883	-0.261621
H	 1.1470363812	 1.7828964103	-0.0122080238	 0.147106
H	-0.254697788	 1.606401231	-1.1210333762	 0.141756
H	-0.5049187058	 1.83112299	 0.6431638135	 0.147107
H	 2.1201623616	-1.7442668426	 5.1129364487	 0.236861
H	 0.9329071873	-3.600496914	 2.2563143601	 0.16344
63.7002	146.7584	197.1247	226.0532	305.319	344.6513	390.5144	484.2406	532.7084	577.8208	637.7293	781.2984	790.0121	807.0113	882.3595	945.3211	1000.9944	1021.4848	1062.3399	1108.1949	1179.1993	1219.546	1340.8934	1349.0082	1387.3749	1479.169	1484.2746	1496.0239	1610.1097	1686.0116	1724.3989	3046.0129	3118.8156	3162.1379	3171.7259	3474.9102
COC1=NOC(=N)C=N1	COC1=NOC(=C[N]1)[NH]	
InChI=1S/C4H5N3O2/c1-8-4-6-2-3(5)9-7-4/h2,5H,1H3	InChI=1S/C4H5N3O2/c1-8-4-6-2-3(5)9-7-4/h2,5H,1H3
