22
gdb 120037	2.30297	1.03488	0.77047	1.8413	79.52	-0.223	0.0748	0.2979	1514.5078	0.192842	-441.447928	-441.437627	-441.436683	-441.483767	37.483	
C	-0.0525138909	 1.5117929172	 0.0601927886	-0.328789
N	-0.0221708873	 0.0655973636	 0.1107748833	-0.091933
C	-1.2746307246	-0.6289901901	 0.4726529751	-0.206681
C	-0.4312844325	-1.6909560739	 1.2151702174	 0.117423
O	-0.1599367032	-2.8633596955	 0.4833402786	-0.430888
C	 0.6991087187	-0.6142376631	 1.2183598453	 0.002625
C	 2.1334744724	-1.0590995788	 0.9730976772	-0.205168
C	 3.1446628061	 0.0850810548	 0.8743552413	-0.067457
O	 4.4851790746	-0.3769345906	 0.8077115537	-0.417114
H	 0.9436681236	 1.9094013766	-0.1557271505	 0.123967
H	-0.7224510535	 1.8380038114	-0.7427490052	 0.121519
H	-0.4064251272	 1.9676528324	 1.0048748143	 0.092418
H	-1.9128225172	-0.0490030142	 1.1603812612	 0.085766
H	-1.88224309	-0.974662011	-0.3716549771	 0.099092
H	-0.7892616455	-2.0185328477	 2.1916562391	 0.091648
H	 0.0713466241	-2.5986808272	-0.4141533226	 0.287371
H	 0.6445099572	-0.0270559351	 2.1540210789	 0.054609
H	 2.4388687742	-1.7167516416	 1.7963353471	 0.112426
H	 2.1749548266	-1.6608407237	 0.0567336145	 0.076553
H	 2.9079658629	 0.731020543	 0.0149006106	 0.093878
H	 3.0945769039	 0.7108082884	 1.7728901543	 0.108267
H	 4.5730691176	-0.905305585	 0.007942005	 0.280468
55.0309	84.5434	111.4423	120.8184	226.7836	248.4563	277.0715	302.4494	307.6382	374.8551	381.7474	394.8212	482.4914	586.534	720.6819	774.2212	838.6849	870.3995	896.6914	972.4578	1009.2639	1025.082	1066.1285	1079.1276	1111.6069	1120.6037	1146.1274	1167.2709	1186.4883	1204.1828	1226.7298	1237.6081	1272.6301	1298.0712	1307.6092	1318.3518	1337.6987	1382.4788	1410.6152	1422.0016	1441.5128	1455.69	1471.6449	1488.182	1498.4685	1513.325	1513.6279	2923.3075	2928.0106	2964.2837	2986.2108	3025.962	3053.2361	3055.473	3059.8015	3077.8681	3103.4019	3112.3902	3802.7033	3815.155
CN1CC(O)C1CCO	CN1C[C@@H](O)[C@H]1CCO	
InChI=1S/C6H13NO2/c1-7-4-6(9)5(7)2-3-8/h5-6,8-9H,2-4H2,1H3	InChI=1S/C6H13NO2/c1-7-4-6(9)5(7)2-3-8/h5-6,8-9H,2-4H2,1H3/t5-,6-/m1/s1
