19
gdb 81666	3.46742	1.29467	1.21576	4.5403	74.82	-0.2584	0.0117	0.2701	1099.765	0.160782	-423.061997	-423.054357	-423.053413	-423.093942	30.371	
C	-0.2271546339	 1.4153643184	 0.0920409754	-0.428829
C	 0.0545770398	-0.0801307443	 0.0068372517	 0.012106
C	 0.890205894	-0.5547670191	-1.2274362343	-0.037097
C	 2.1721642659	-0.3081970775	-0.3792172451	-0.259031
C	 1.2639787383	-0.5862274478	 0.8381162988	 0.120322
O	 1.1513051643	-2.0064653367	 1.0575190427	-0.237329
C	 0.8730835793	-2.789238838	-0.0209646177	 0.410049
O	 0.7738375018	-3.9764901817	 0.1121268126	-0.33167
C	 0.7043561295	-2.0663844511	-1.3635166525	-0.35697
H	 0.6684681392	 2.0215748864	-0.0754138185	 0.120548
H	-0.9672889254	 1.7082909443	-0.6598567119	 0.124417
H	-0.6288823253	 1.6808167183	 1.0755824013	 0.124823
H	-0.8687333498	-0.6412538821	 0.1887520276	 0.080436
H	 0.7700501306	-0.0287725079	-2.1774282586	 0.070842
H	 3.0259025323	-0.9756823034	-0.521097329	 0.110395
H	 2.5109335651	 0.7281355035	-0.4096319016	 0.113794
H	 1.4854093795	-0.1535340554	 1.8142973173	 0.089147
H	-0.2908942238	-2.324035224	-1.7424841619	 0.137167
H	 1.4268495085	-2.5091543418	-2.0579717964	 0.136881
98.1559	203.7909	236.3285	257.1454	319.6427	408.2389	442.1907	450.1409	534.9317	579.561	650.6447	762.7714	797.4844	860.8961	871.2265	874.9864	925.0806	963.5067	996.1589	1044.8282	1062.0754	1080.7556	1092.9377	1108.2444	1145.3225	1154.6918	1176.2242	1218.5151	1247.3935	1276.0078	1292.6555	1304.2172	1342.0302	1367.6384	1394.2187	1415.1626	1459.381	1489.0331	1498.096	1502.8789	1857.1604	3035.0065	3043.573	3047.1033	3069.9117	3081.3424	3085.9192	3099.8521	3107.0141	3109.2023	3133.9244
CC1C2CC1OC(=O)C2	C[C@H]1[C@H]2C[C@@H]1OC(=O)C2	
InChI=1S/C7H10O2/c1-4-5-2-6(4)9-7(8)3-5/h4-6H,2-3H2,1H3	InChI=1S/C7H10O2/c1-4-5-2-6(4)9-7(8)3-5/h4-6H,2-3H2,1H3/t4-,5-,6-/m0/s1
