19
gdb 62521	1.66358	1.37691	0.94661	3.5936	79.92	-0.2519	-0.0411	0.2108	1322.5262	0.155731	-423.038351	-423.028466	-423.027522	-423.073242	35.577	
C	-0.1210100074	 1.5861652864	-0.0038343653	-0.462159
C	 0.0119009617	 0.0712080081	 0.0206914003	 0.273601
C	-1.2038169551	-0.6407326031	-0.5468280974	-0.44275
C	 1.3517976886	-0.5908859726	-0.2399030806	-0.161781
C	 2.5948907215	 0.1663052958	-0.5291583313	 0.154888
O	 3.4445866988	-0.2377920568	-1.2851921296	-0.261615
C	 0.7115756202	-0.6241252402	 1.173441883	-0.161799
C	 1.3003870836	 0.0994967904	 2.3275177144	 0.154928
O	 1.2987154706	-0.3479554123	 3.4485263695	-0.261633
H	 0.7440337945	 2.1137575684	 0.399863498	 0.126732
H	-0.2679289524	 1.9320360998	-1.0325079296	 0.133341
H	-0.9963549216	 1.8942191845	 0.5777564035	 0.133359
H	-1.3712826707	-0.3447830567	-1.5882372374	 0.130238
H	-1.0863397271	-1.7275891419	-0.5189419381	 0.126806
H	-2.1021475924	-0.382407225	 0.0245133237	 0.130239
H	 1.329211509	-1.5430916956	-0.7610020331	 0.117519
H	 2.7121797937	 1.1461402678	-0.0205170028	 0.07629
H	 0.3218921307	-1.5953200498	 1.4626979461	 0.117526
H	 1.7435808939	 1.0957062828	 2.1184719368	 0.076271
69.5285	99.4684	161.6125	195.909	196.4578	225.7325	255.3422	280.1415	350.5876	398.9272	431.0147	440.709	462.5836	540.264	657.6561	867.3006	895.6996	943.8038	968.3294	985.8641	1026.2268	1044.2513	1048.169	1086.8942	1146.2352	1148.6954	1164.2782	1235.7032	1314.7422	1316.5041	1384.0262	1414.544	1432.8872	1435.7929	1465.0386	1482.7182	1491.9736	1503.0853	1516.6676	1806.0442	1813.5651	2891.6272	2914.7597	3031.3359	3041.5831	3095.8351	3099.4547	3112.7489	3136.0774	3160.8397	3168.7107
CC1(C)C(C=O)C1C=O	CC1(C)[C@@H](C=O)[C@H]1C=O	
InChI=1S/C7H10O2/c1-7(2)5(3-8)6(7)4-9/h3-6H,1-2H3	InChI=1S/C7H10O2/c1-7(2)5(3-8)6(7)4-9/h3-6H,1-2H3/t5-,6+
