20
gdb 79011	3.66547	1.70407	1.55196	1.7416	80.13	-0.2345	0.0937	0.3282	937.6879	0.17499	-365.988711	-365.982242	-365.981298	-366.019122	27.898	
C	-0.1884985807	 1.5965988383	 0.0159417698	-0.426542
C	 0.0291177442	 0.0910168604	 0.0222853855	 0.042311
C	 1.1599957338	-0.5722632082	-0.8302285409	-0.076696
C	 2.4551810445	 0.0669882516	-0.2859794493	-0.043533
C	 2.1834016127	 0.0338958922	 1.1786549673	-0.043532
C	 0.7844131771	-0.6179901526	 1.1937951907	-0.076692
C	 1.1251048304	-1.7628746878	 0.1837738534	-0.048614
C	 2.5596152969	-2.1810404844	 0.4405156175	-0.178582
N	 3.2050179102	-0.86586972	 0.589989778	-0.135304
H	 0.7401353057	 2.1443360328	 0.2004791148	 0.119351
H	-0.587728335	 1.9284169168	-0.9491222151	 0.113549
H	-0.909661775	 1.8891862629	 0.7874047738	 0.113551
H	-0.9227697286	-0.4202623915	-0.1659027516	 0.066932
H	 1.0728622969	-0.7129383155	-1.9077887539	 0.059089
H	 3.0159133257	 0.8296781759	-0.8103267721	 0.089268
H	 2.5126205103	 0.7683955077	 1.9019680277	 0.089269
H	 0.3178086016	-0.8048645259	 2.161202232	 0.059088
H	 0.3600403151	-2.5201250432	 0.0247007673	 0.071286
H	 2.6871976893	-2.7660660043	 1.3577299342	 0.102901
H	 3.0123528948	-2.7264744749	-0.3945561789	 0.102901
212.0818	219.6417	242.5132	410.6296	507.3456	523.6171	674.8767	708.6421	758.6106	771.7867	794.8098	821.8413	842.134	869.6603	883.8478	913.4579	924.8776	967.9981	984.5165	1010.7807	1019.1075	1022.7083	1066.7478	1069.6112	1074.9538	1121.9694	1137.3902	1169.1667	1188.9176	1214.3319	1224.5699	1229.6223	1243.0232	1254.3671	1294.4239	1310.1566	1310.9334	1364.0284	1399.2874	1413.3214	1494.5031	1495.8969	1500.4458	3028.0821	3033.5636	3042.1906	3088.7148	3089.2437	3109.5658	3110.3611	3111.8943	3141.771	3191.3336	3201.7441
CC1C2C3C4C1C2CN34	C[C@H]1[C@H]2[C@H]3[C@H]4[C@@H]1[C@@H]2CN34	
InChI=1S/C8H11N/c1-3-5-4-2-9-7(5)8(9)6(3)4/h3-8H,2H2,1H3	InChI=1S/C8H11N/c1-3-5-4-2-9-7(5)8(9)6(3)4/h3-8H,2H2,1H3/t3-,4+,5+,6-,7-,8+,9?
