20
gdb 107640	2.5199	1.53951	1.14323	3.7702	74.18	-0.2341	0.0501	0.2843	1117.8149	0.171998	-440.258005	-440.249393	-440.248449	-440.291025	33.533	
O	-0.0942328086	 1.3388687773	 0.6363911414	-0.431195
C	-0.053099968	 0.0221978743	 0.1085384916	-0.147406
C	-1.4384173928	-0.5684342398	 0.0052969722	 0.318136
C	-2.0906737244	-1.205468417	 1.177355169	-0.285519
N	-1.6343820374	-2.0298070875	 0.0448616103	-0.148936
C	-2.7241092556	-2.3424449917	-0.9094524677	-0.155875
C	-3.4535172468	-1.0254181653	-1.2556898511	-0.291417
C	-2.3610585851	 0.0399940768	-1.0402263963	 0.058273
O	-2.822301934	 1.3109999533	-0.580158561	-0.437233
H	-0.8879611714	 1.7623517217	 0.2844980438	 0.291139
H	 0.4284965915	 0.0063666154	-0.8850187936	 0.076136
H	 0.5642187374	-0.5837630925	 0.7790467983	 0.108251
H	-1.5114966469	-1.3323598679	 2.0869546476	 0.122384
H	-3.1561380278	-1.067111115	 1.3369723681	 0.114805
H	-2.2578428889	-2.7731377547	-1.8020334054	 0.111434
H	-3.3870702114	-3.10256552	-0.4853256279	 0.112354
H	-3.8545992656	-1.0256517346	-2.2725415455	 0.100488
H	-4.2852139144	-0.8212742337	-0.5754018721	 0.118737
H	-1.7795477799	 0.176155743	-1.965827198	 0.074929
H	-3.2484977998	 1.7666272082	-1.3132387239	 0.290517
88.3756	129.1506	182.3838	257.519	296.1759	318.7043	347.4298	400.4748	445.8066	462.4781	535.5132	600.3361	655.1863	710.3785	812.6669	875.7952	903.7651	938.4266	948.094	979.0092	993.1067	1053.5792	1059.8713	1085.4229	1096.6495	1110.2379	1158.3184	1190.1201	1209.6314	1230.8037	1236.3242	1283.7266	1303.3378	1350.2729	1357.6683	1370.5291	1401.6785	1432.7317	1462.5485	1490.1537	1499.7393	1514.0424	1524.5901	2947.4165	2975.6081	3044.969	3061.3063	3074.0116	3087.3857	3108.3599	3117.31	3201.0012	3761.2628	3817.1896
OCC12CN1CCC2O	OC[C@]12CN1CC[C@H]2O	
InChI=1S/C6H11NO2/c8-4-6-3-7(6)2-1-5(6)9/h5,8-9H,1-4H2	InChI=1S/C6H11NO2/c8-4-6-3-7(6)2-1-5(6)9/h5,8-9H,1-4H2/t5-,6+,7?/m1/s1
