19
gdb 59592	2.66233	1.39447	1.13273	2.8991	77.14	-0.2419	-0.0491	0.1928	1144.6684	0.159173	-423.066588	-423.057831	-423.056887	-423.100255	33.079	
C	 0.0220537336	 1.5614653246	-0.2674220843	-0.423485
C	 0.0416837939	 0.0681022487	 0.0622831266	 0.125279
O	 0.7888526655	-0.2065842104	 1.243868945	-0.445186
C	-1.368619664	-0.5478618844	 0.1654595261	-0.113643
C	-1.4131125704	-2.0899599968	 0.1267208544	-0.297289
C	-2.3944815318	-2.4632464618	 1.2067800008	-0.046995
C	-2.7677541814	-1.4182510694	 1.9558372117	-0.166831
C	-2.0827086812	-0.1958626245	 1.4877371444	 0.378192
O	-2.043576688	 0.8779781102	 2.0534094839	-0.356654
H	 1.0453922938	 1.9454967004	-0.3009264912	 0.118897
H	-0.4457795949	 1.7407155039	-1.2415611197	 0.108462
H	-0.5433152792	 2.1126857727	 0.4884186245	 0.147496
H	 0.5814751005	-0.4623582142	-0.7320446745	 0.086451
H	 0.4137361783	 0.3430887654	 1.943050196	 0.291074
H	-1.9933240772	-0.1474702572	-0.6437491763	 0.102729
H	-1.700182577	-2.493821334	-0.8502720825	 0.114063
H	-0.4261874262	-2.5079313384	 0.3657176299	 0.142613
H	-2.7199343684	-3.4874292518	 1.3577546551	 0.117935
H	-3.419817506	-1.426664903	 2.81957869	 0.116896
57.3239	99.4582	183.3916	214.6789	251.6842	312.5243	327.6234	444.1085	459.5867	495.5131	516.6134	632.3786	689.4741	756.3247	773.1362	806.0512	884.4658	930.0088	961.5193	975.5216	1011.0651	1032.4134	1056.288	1091.9891	1111.285	1143.9584	1170.219	1196.1523	1236.7896	1288.1141	1312.5995	1343.6483	1363.6507	1370.6846	1401.5012	1433.6599	1465.7104	1490.0426	1508.0423	1647.0607	1788.6218	3025.3531	3027.9586	3032.0342	3039.6301	3068.9093	3108.4463	3131.7916	3187.8281	3228.7114	3783.4418
CC(O)C1CC=CC1=O	C[C@@H](O)[C@H]1CC=CC1=O	
InChI=1S/C7H10O2/c1-5(8)6-3-2-4-7(6)9/h2,4-6,8H,3H2,1H3	InChI=1S/C7H10O2/c1-5(8)6-3-2-4-7(6)9/h2,4-6,8H,3H2,1H3/t5-,6-/m1/s1
