17
gdb 72255	2.39964	1.81819	1.50956	1.9077	67.82	-0.2141	0.0629	0.277	955.9021	0.135045	-458.909921	-458.902108	-458.901164	-458.941801	30.411	
C	-0.0395318075	 1.4693055223	-0.0474161875	-0.506585
C	-0.0430702058	-0.020314065	-0.0125590263	 0.389737
O	 0.8584470896	-0.7300889849	-0.8685825454	-0.328951
C	 0.0044956549	-1.9128181023	-0.7906519698	-0.009817
C	 0.5797957928	-2.805270457	 0.296451846	-0.082948
O	 0.5384829359	-1.987530002	 1.4772813025	-0.265437
C	-0.33852139	-0.9193451552	 1.2074893147	-0.061037
C	-1.1029166016	-1.0925499825	-0.068770863	 0.211956
O	-2.4561247709	-1.068787737	-0.3165020713	-0.45698
H	 0.9299799917	 1.8595102114	 0.2798587672	 0.13757
H	-0.2347517673	 1.8339528805	-1.0607428986	 0.136238
H	-0.8119940608	 1.8668438181	 0.6171087666	 0.129689
H	-0.1928203294	-2.3614958309	-1.7646721934	 0.094812
H	-0.0235012735	-3.7178564208	 0.4320758931	 0.088868
H	 1.6194897364	-3.0844369651	 0.1035733473	 0.122488
H	-0.7845280031	-0.4719829863	 2.0886657886	 0.109425
H	-2.8969596715	-1.6450161732	 0.3183844593	 0.290973
160.8739	179.6685	226.0408	247.9446	273.8623	320.4023	338.5091	447.4064	561.1064	604.1306	641.9461	739.9093	775.2882	786.9252	876.2469	907.677	930.096	960.3308	967.3034	995.8538	1039.0429	1092.5319	1098.5343	1120.1912	1177.4115	1191.0064	1237.7256	1258.1443	1294.799	1321.3722	1326.0982	1368.929	1412.2259	1470.9877	1489.3958	1499.3483	1524.112	2973.9057	3036.5162	3089.1907	3103.3566	3117.4968	3120.4847	3187.8362	3785.8493
CC12OC3COC1C23O	C[C@@]12O[C@H]3CO[C@@H]1[C@@]23O	
InChI=1S/C6H8O3/c1-5-4-6(5,7)3(9-5)2-8-4/h3-4,7H,2H2,1H3	InChI=1S/C6H8O3/c1-5-4-6(5,7)3(9-5)2-8-4/h3-4,7H,2H2,1H3/t3-,4-,5+,6+/m0/s1
