14
gdb 27016	2.88089	1.37715	0.93719	3.6741	77.01	-0.2175	-0.0289	0.1886	1177.0251	0.099182	-436.682335	-436.674104	-436.67316	-436.715165	30.371	
C	 0.1941371201	 1.4991639826	 0.0785217424	-0.5018
C	 0.0028011097	 0.0343531205	 0.0442005988	 0.230708
C	-1.0850733634	-0.7476394984	-0.0410052097	 0.090725
O	-0.6655528156	-2.0835753217	-0.0328377061	-0.251838
C	 0.6995983404	-2.0716802871	 0.0594829646	 0.48768
N	 1.495045574	-3.0405134561	 0.0986254961	-0.582984
O	 1.1185326113	-0.7676132452	 0.1073834645	-0.214694
C	-2.4510700905	-0.4530969936	-0.1286258093	 0.258547
C	-3.6264128332	-0.2001176637	-0.2040495711	-0.428146
H	 0.8155645047	 1.8308768793	-0.760493836	 0.15615
H	-0.7748587348	 1.997965478	 0.0204922227	 0.155419
H	 0.6968288196	 1.8051426868	 1.0025246004	 0.156135
H	 0.9912128219	-3.9221340955	 0.0514026082	 0.239668
H	-4.6629000143	 0.0228958141	-0.2706107356	 0.20443
123.4888	133.4517	162.9776	190.0621	275.8698	288.2065	424.7854	459.4665	537.8057	560.9926	589.3809	653.464	660.4081	708.0896	731.8285	779.861	807.5807	935.392	995.7715	1016.9961	1064.1597	1091.6841	1259.3278	1273.1409	1340.0264	1421.5079	1467.7654	1482.2824	1729.8594	1816.672	2231.7938	3037.3424	3091.8823	3143.4723	3499.0191	3549.8697
CC1=C(OC(=N)O1)C#C	CC1=C(O[C@H]([NH])O1)C#C	
InChI=1S/C6H5NO2/c1-3-5-4(2)8-6(7)9-5/h1,7H,2H3	InChI=1S/C6H6NO2/c1-3-5-4(2)8-6(7)9-5/h1,6-7H,2H3/t6-/m1/s1
