14
gdb 131373	3.49407	1.64266	1.11737	1.6047	70.01	-0.192	0.0175	0.2095	992.9208	0.104187	-432.89425	-432.886821	-432.885876	-432.92664	27.874	
O	 0.0958600234	 1.3629300215	 0.0466333385	-0.441989
C	 0.0675205516	 0.0104212963	 0.060958117	 0.29317
N	 0.0568688665	-0.7088312568	-1.0502961668	-0.334187
N	 0.037165388	-2.022021638	-0.6497207375	-0.384865
C	 0.021562089	-2.1270282318	 0.707180503	 0.400996
C	 0.0466166789	-0.8214728214	 1.1973831451	 0.204155
N	 0.0408639692	-0.8873964956	 2.5737579517	-0.428673
C	 0.0120052576	-2.2177087976	 2.9316319835	-0.044948
C	-0.0005380564	-3.0252620049	 1.811331821	-0.322132
H	 0.1038767529	 1.6293025931	-0.881419359	 0.30146
H	-0.012431703	-2.7366376298	-1.3509449777	 0.265747
H	 0.057559547	-0.1123114839	 3.2106554524	 0.268223
H	 0.0016631327	-2.4990211777	 3.9734330103	 0.122787
H	-0.0236139974	-4.1027987033	 1.8106684684	 0.100254
40.8596	190.0498	262.3584	284.9967	322.1017	383.3148	470.8258	553.5491	609.4394	641.7469	653.0833	692.9713	713.1249	753.1849	807.201	841.4505	930.3495	1077.3446	1088.8049	1099.7439	1170.3361	1204.9537	1274.7003	1348.1326	1371.0492	1435.3519	1450.8713	1510.2442	1565.7559	1596.1611	1655.8522	3250.9097	3270.2906	3703.8414	3713.5127	3794.4991
OC1=NNC2=C1NC=C2	Oc1n[nH]c2c1[nH]cc2	
InChI=1S/C5H5N3O/c9-5-4-3(7-8-5)1-2-6-4/h1-2,6H,(H2,7,8,9)	InChI=1S/C5H5N3O/c9-5-4-3(7-8-5)1-2-6-4/h1-2,6H,(H2,7,8,9)
