23
gdb 88154	2.2665	1.4241	1.09127	1.5864	85.15	-0.244	0.0808	0.3248	1243.6242	0.206059	-388.28787	-388.278542	-388.277598	-388.322156	35.775	
C	-0.048366018	 1.6039526709	 0.0459881013	-0.413545
C	-0.0430632605	 0.0910878947	 0.0901860598	-0.040926
C	 1.2158193037	-0.6844774563	-0.2174485013	-0.342729
C	 0.6679555074	-0.6722417931	 1.1859504237	 0.310625
C	 1.391544192	 0.0629984938	 2.3258667854	-0.15214
O	 1.3786705754	-0.8171052324	 3.4426046808	-0.249127
C	 0.2058601759	-1.6030080234	 3.3256140906	-0.091189
C	 0.0973576671	-1.9500298764	 1.8329065946	-0.05639
C	-1.301139589	-2.3805970256	 1.3983657113	-0.416316
H	 0.9098952331	 2.0225473102	 0.3699430951	 0.117921
H	-0.2324528384	 1.9605964897	-0.9733327669	 0.11748
H	-0.8280249475	 2.0256569981	 0.6905680126	 0.117067
H	-0.9633991224	-0.35897128	-0.2727965037	 0.080852
H	 1.1318785452	-1.6030022232	-0.7914854066	 0.104918
H	 2.1236437093	-0.120302071	-0.4143644142	 0.104512
H	 2.4366176063	 0.2989967531	 2.1021726493	 0.105414
H	 0.875780901	 1.003481979	 2.5793820256	 0.087791
H	 0.3165855898	-2.4750045095	 3.9759217885	 0.105435
H	-0.6850414434	-1.036521697	 3.652093895	 0.079326
H	 0.7978964553	-2.7711530186	 1.6327774054	 0.080177
H	-2.0393966639	-1.595908135	 1.5945123241	 0.118257
H	-1.3395909883	-2.6190637777	 0.3302253089	 0.118334
H	-1.6137172901	-3.2789853204	 1.9414483007	 0.114252
36.556	154.3391	183.736	208.0501	226.8202	255.9259	269.218	352.2242	413.0554	442.59	501.6493	502.4072	616.0364	725.4988	788.553	869.9074	892.9227	913.6669	926.9517	962.7167	974.7692	988.4208	1031.596	1063.884	1083.8005	1106.4684	1122.5486	1130.0423	1141.5306	1160.5627	1190.1992	1223.291	1243.0995	1270.6988	1305.7629	1323.269	1340.5404	1375.9972	1399.2355	1408.8298	1414.2045	1430.6459	1489.2779	1490.9259	1499.3079	1500.8671	1503.0537	1510.3986	1522.9155	2941.8288	2966.9645	3016.503	3026.9086	3029.9278	3067.771	3086.7611	3089.1271	3094.0819	3096.7408	3101.8992	3109.0638	3140.2831	3192.731
CC1CC11COCC1C	C[C@H]1C[C@]21COC[C@H]2C	
InChI=1S/C8H14O/c1-6-3-8(6)5-9-4-7(8)2/h6-7H,3-5H2,1-2H3	InChI=1S/C8H14O/c1-6-3-8(6)5-9-4-7(8)2/h6-7H,3-5H2,1-2H3/t6-,7+,8+/m0/s1
