17
gdb 49297	2.54072	1.42775	0.94321	4.4513	77.09	-0.2387	-0.0788	0.1599	1203.1443	0.136377	-421.881484	-421.873386	-421.872442	-421.914481	30.005	
O	-0.9453022833	 1.2670129146	-0.2085389711	-0.27061
C	 0.179445078	 0.8712619163	 0.000809997	 0.088908
C	 1.3805733305	 1.7547713143	-0.0099539449	 0.077829
C	 1.2436443617	 3.0726820473	-0.2515338173	-0.094684
C	 2.3774435355	 4.0471528277	-0.2612514087	-0.260743
C	 3.6172229949	 3.5027035643	 0.4612693933	-0.228018
C	 3.9150860614	 2.0603048304	 0.0324669062	-0.307832
C	 2.7153972886	 1.1416262828	 0.2280415774	 0.322359
O	 2.8377972397	-0.0300983631	 0.5245271497	-0.320071
H	 0.3939717534	-0.1913822338	 0.2151566561	 0.111954
H	 0.2386331107	 3.4401595798	-0.4537235038	 0.137167
H	 2.6153602051	 4.2820629695	-1.3115003713	 0.133848
H	 2.049904064	 4.9975255025	 0.176311432	 0.12599
H	 4.4822676862	 4.1450314127	 0.2711977131	 0.110635
H	 3.4362551111	 3.5271888229	 1.542712374	 0.117777
H	 4.1659680546	 2.0357307707	-1.0384168681	 0.126858
H	 4.7645290178	 1.6310948912	 0.5691792363	 0.128633
76.4956	134.6733	197.5798	211.8002	276.558	333.3481	347.0822	467.516	486.6218	558.2214	633.4754	714.5712	780.1269	816.3568	867.8072	889.9731	943.3841	990.2715	1052.666	1074.1943	1085.1536	1103.7913	1152.5065	1186.0641	1262.3078	1265.0715	1345.5689	1363.8662	1369.5219	1379.2959	1426.6889	1453.3547	1464.7258	1497.1121	1661.1041	1778.0278	1796.7737	2978.4176	2988.6742	3011.4652	3037.0446	3056.9604	3086.07	3105.8188	3154.5288
O=CC1=CCCCC1=O	O=CC1=CCCCC1=O	
InChI=1S/C7H8O2/c8-5-6-3-1-2-4-7(6)9/h3,5H,1-2,4H2	InChI=1S/C7H8O2/c8-5-6-3-1-2-4-7(6)9/h3,5H,1-2,4H2
