17
gdb 99072	4.36618	0.76141	0.74855	2.6693	71.94	-0.2677	0.0087	0.2764	1554.8768	0.132262	-458.95325	-458.942937	-458.941993	-458.989775	35.542	
C	 0.3236590774	 1.3481006961	 0.1486790422	-0.242788
O	 0.3756999788	-0.0787245715	 0.0074554635	-0.228078
C	 0.4023990944	-0.5271623939	-1.2607098507	 0.447152
O	 0.3838740516	 0.189657933	-2.2292358952	-0.362783
C	 0.4387410184	-2.0422648431	-1.3150877104	-0.327099
C	 1.5165051291	-2.5101172166	-2.3132511735	-0.051727
O	 2.812846757	-2.0913992769	-1.9004002352	-0.416804
C	 1.4494537958	-3.9579292506	-2.5218850266	 0.293336
C	 1.40935697	-5.1530725194	-2.6446368879	-0.433516
H	 1.2003559231	 1.8101577966	-0.3114385838	 0.146412
H	-0.5749366646	 1.7493698021	-0.3264470021	 0.141616
H	 0.3075886561	 1.5392828602	 1.2215446517	 0.13345
H	 0.6221703354	-2.4617310251	-0.3233158196	 0.122545
H	-0.5436566969	-2.3910240102	-1.6525182236	 0.143596
H	 1.3382522523	-1.9873839708	-3.2589587617	 0.145607
H	 3.0922753001	-2.6712372677	-1.18288428	 0.286826
H	 1.376806102	-6.2062900726	-2.7790292573	 0.202255
33.8103	63.9827	105.9598	124.6225	168.8814	197.7533	241.9607	291.4829	316.8383	390.6926	401.1622	525.1956	570.2909	636.6246	641.4322	677.647	724.672	873.7035	897.9661	960.7665	1019.0453	1067.9974	1080.384	1160.9162	1179.6526	1209.8316	1238.4479	1290.974	1303.1606	1374.0862	1424.1783	1461.0879	1474.6057	1481.9508	1496.8381	1820.7221	2234.5276	3054.0601	3056.5904	3066.839	3117.9397	3130.0131	3161.1972	3502.4023	3803.5928
COC(=O)CC(O)C#C	COC(=O)C[C@@H](O)C#C	
InChI=1S/C6H8O3/c1-3-5(7)4-6(8)9-2/h1,5,7H,4H2,2H3	InChI=1S/C6H8O3/c1-3-5(7)4-6(8)9-2/h1,5,7H,4H2,2H3/t5-/m0/s1
