19
gdb 113482	4.45479	0.93848	0.93063	2.3199	75.81	-0.2518	0.0763	0.3281	1326.5781	0.15872	-422.967899	-422.959535	-422.958591	-423.001224	32.083	
O	 0.0638084783	 1.265560221	-0.6039977491	-0.418282
C	 0.0505370471	 0.1560728686	 0.2786625877	-0.079532
C	-1.3246519927	-0.4533691133	 0.3736134956	-0.084128
O	-1.7489654391	-1.1436774123	-0.8294979052	-0.312415
C	-1.5601270397	-1.899723048	 0.3556194717	 0.455519
C	-0.6048893755	-3.1125625807	 0.3835867308	-0.329543
C	-1.744399442	-3.9326518002	 1.0142299265	-0.045957
C	-2.2089075489	-3.2818895552	 2.2831146211	-0.279147
C	-2.6787248701	-2.715989328	 0.965628008	-0.144466
H	-0.2832706721	 0.9478019835	-1.4455333674	 0.292889
H	 0.7726626147	-0.6142807148	-0.0309845491	 0.09161
H	 0.3621376326	 0.5364600178	 1.2577152702	 0.11039
H	-2.0943343358	 0.1944936542	 0.7958841774	 0.09639
H	-0.3661353243	-3.4211725034	-0.6369411189	 0.123099
H	 0.3204785987	-3.0298137407	 0.9630704957	 0.101838
H	-1.971179917	-4.9643349499	 0.7784447183	 0.094594
H	-2.963108656	-3.8254077067	 2.8431026067	 0.117657
H	-1.5120454861	-2.7228179512	 2.9038911427	 0.109036
H	-3.7236773423	-2.6472139706	 0.690930247	 0.100449
65.2805	114.8061	149.9096	197.5001	322.0162	389.2544	411.4049	425.8446	459.5764	498.4105	632.3897	755.5494	784.7453	811.9145	836.8232	902.5206	927.6661	948.3372	962.7417	997.9806	1006.6786	1054.2755	1060.6074	1086.3536	1087.9027	1102.517	1107.8954	1153.6639	1182.1983	1199.475	1223.976	1245.4224	1288.9176	1321.4353	1344.9631	1382.1465	1425.7771	1473.3732	1490.3086	1492.0708	1515.7465	2994.246	3047.1533	3070.7518	3105.4786	3107.1389	3112.6405	3191.4101	3194.5669	3206.9935	3799.3201
OCC1OC11CC2CC12	OC[C@H]1O[C@]21C[C@H]1C[C@@H]21	
InChI=1S/C7H10O2/c8-3-6-7(9-6)2-4-1-5(4)7/h4-6,8H,1-3H2	InChI=1S/C7H10O2/c8-3-6-7(9-6)2-4-1-5(4)7/h4-6,8H,1-3H2/t4-,5-,6-,7-/m1/s1
