20
gdb 111906	3.18558	1.13362	0.88343	3.509	82.6	-0.2101	0.0039	0.214	1362.1752	0.170556	-403.212917	-403.203496	-403.202552	-403.247111	35.014	
C	-0.1534091075	 1.612537143	 0.0337856342	-0.387189
C	-0.036339908	 0.0861482288	-0.0040720413	-0.174896
C	 0.7528410456	-0.5060759981	 1.1855771684	-0.157548
C	 0.7549010136	-2.0128404158	 1.2581487675	-0.242497
C	 2.0136507427	-2.4682291334	 1.2478835196	 0.359984
C	 2.5438385017	-3.8602347361	 1.2983337027	-0.498043
N	 2.9138039642	-1.3844841765	 1.1848999034	-0.373994
C	 2.2586278785	-0.1694229269	 1.1269182713	 0.411586
O	 2.7927654907	 0.9147314631	 1.0377130725	-0.377034
H	 0.8341116018	 2.0776958896	 0.0561707725	 0.154802
H	-0.6969980292	 1.9807588565	-0.8419489637	 0.104879
H	-0.6980231873	 1.9400991014	 0.9267758964	 0.107989
H	-1.035593899	-0.3660573226	-0.0008002009	 0.095128
H	 0.4403583939	-0.2349583633	-0.9381764723	 0.102375
H	 0.3570684516	-0.0628200121	 2.1113600666	 0.109894
H	-0.1324199507	-2.6273387324	 1.3059364141	 0.097849
H	 3.1520013389	-4.0872968594	 0.4140505088	 0.135083
H	 3.1813733369	-4.0125226311	 2.1777504121	 0.136237
H	 1.7230168138	-4.5787111044	 1.3421250206	 0.141456
H	 3.9160607379	-1.4593904403	 1.1227280777	 0.253939
71.4198	125.489	146.1284	183.2065	198.222	261.5987	290.3699	321.2419	369.209	450.6682	512.7402	593.1222	601.9249	692.2099	710.7473	749.2565	766.1898	862.059	924.3546	989.911	1001.1452	1027.6571	1049.5666	1067.5386	1112.2529	1112.7877	1194.7333	1204.2128	1257.4665	1261.4961	1314.802	1344.1608	1363.0137	1409.3626	1412.8898	1424.1931	1477.2347	1488.5939	1492.9459	1496.9983	1514.5001	1717.7467	1821.2919	3003.0685	3024.1609	3026.0204	3035.0071	3060.4149	3072.6645	3097.6947	3132.2167	3138.1465	3235.0951	3654.278
CCC1C=C(C)NC1=O	CC[C@H]1C=C(C)NC1=O	
InChI=1S/C7H11NO/c1-3-6-4-5(2)8-7(6)9/h4,6H,3H2,1-2H3,(H,8,9)	InChI=1S/C7H11NO/c1-3-6-4-5(2)8-7(6)9/h4,6H,3H2,1-2H3,(H,8,9)/t6-/m0/s1
