16
gdb 93120	2.17294	1.73949	1.27822	3.2993	68.57	-0.2474	-0.0022	0.2452	1017.9457	0.126342	-434.076466	-434.068334	-434.06739	-434.109275	30.013	
N	-0.1094210102	 1.4445191558	-0.1515936063	-0.521853
C	-0.0360930188	-0.0048795829	-0.0332338584	-0.037871
C	 0.7885011675	-0.567869591	 1.1330740183	-0.183026
N	 0.6144834711	-2.004948553	 1.3286459289	-0.254286
C	-0.4117981586	-2.5556796008	 0.8494583343	 0.13617
O	-1.4554973521	-2.0025218322	 0.1580399931	-0.229805
C	-1.4661188531	-0.5762007944	 0.06536543	-0.00835
C	-2.1889275885	-0.0053912522	 1.2178804801	 0.284507
N	-2.7284117247	 0.4650816909	 2.1247937578	-0.322695
H	-0.3399800164	 1.8634718321	 0.7457374747	 0.245999
H	 0.7902183557	 1.8206744215	-0.4314296995	 0.241591
H	 0.3684785881	-0.3981433224	-0.9729129801	 0.110455
H	 1.853358646	-0.3704815775	 0.9678376972	 0.115365
H	 0.5177851224	-0.0507544291	 2.0642400682	 0.130738
H	-0.5782138612	-3.626249346	 0.9419359734	 0.139584
H	-2.0234220073	-0.3282794888	-0.8410452517	 0.153477
87.6073	139.936	159.0463	250.8774	252.5777	322.0592	405.5357	456.0039	468.0177	512.8242	612.1726	636.7407	767.494	846.3654	885.9561	934.8584	951.967	988.1506	998.6027	1028.6898	1113.073	1135.0354	1150.1185	1206.5155	1231.3558	1305.6432	1339.0531	1350.9314	1377.3874	1402.9912	1417.1266	1482.3312	1660.5535	1746.0234	2357.4908	3016.3585	3047.9837	3067.3437	3094.9918	3176.4035	3494.0237	3579.5455
NC1CN=COC1C#N	N[C@H]1CN=CO[C@H]1C#N	
InChI=1S/C5H7N3O/c6-1-5-4(7)2-8-3-9-5/h3-5H,2,7H2	InChI=1S/C5H7N3O/c6-1-5-4(7)2-8-3-9-5/h3-5H,2,7H2/t4-,5-/m0/s1
