19
gdb 111552	2.63872	1.56426	1.19503	1.0843	75.04	-0.2421	0.0825	0.3246	1091.5705	0.158773	-422.959124	-422.950854	-422.949909	-422.99191	31.979	
C	-0.3361626433	 1.2950774788	 0.1269972368	-0.239987
O	 0.1785680726	 0.0043261244	-0.1171968622	-0.257259
C	 0.7644189897	-0.5891508953	 1.0121390772	 0.088307
C	-0.1349032397	-1.2688420272	 2.0986866956	-0.125452
C	-1.0314557274	-2.2485627661	 1.2919744493	-0.229357
C	 0.2614073438	-3.0032977704	 0.9934125012	-0.134367
C	 0.9675297497	-2.3957122483	 2.1918551577	-0.136077
C	 1.3777382888	-1.9574839344	 0.8107261443	 0.349265
O	 2.5710978134	-2.2552630217	 0.1892872782	-0.464147
H	 0.4450068609	 1.9797649003	 0.4924782744	 0.105992
H	-0.7246147053	 1.6773279049	-0.8201025966	 0.126153
H	-1.1536015006	 1.2817994617	 0.8632457395	 0.107866
H	 1.4882495951	 0.0931518079	 1.4839524299	 0.067746
H	-0.5251568652	-0.6923172708	 2.9339181686	 0.070529
H	-1.6917468886	-2.8223605093	 1.9482669409	 0.095397
H	-1.5978335875	-1.8287462593	 0.4549200499	 0.099822
H	 0.4008352471	-3.9985841572	 0.5903558794	 0.085937
H	 1.537187072	-2.8187597293	 3.0047007129	 0.098492
H	 2.4065242545	-2.3156870088	-0.7583744171	 0.291139
79.7003	163.9796	169.3164	247.5949	281.6477	300.8805	343.485	417.7005	517.4205	573.5669	629.5035	716.7901	795.7835	821.8217	843.0721	869.2639	925.7178	947.1844	970.317	989.3876	1009.5031	1040.5621	1059.104	1100.302	1133.3382	1147.552	1154.0816	1183.3897	1194.7918	1207.0023	1233.2384	1258.5382	1276.4561	1313.3565	1326.0142	1385.9296	1460.1975	1482.5565	1488.3088	1494.7714	1508.8521	2975.4526	2994.5265	3024.4208	3047.6143	3102.9203	3113.3546	3141.722	3195.7158	3240.1386	3795.5849
COC1C2CC3C2C13O	CO[C@H]1[C@H]2C[C@@H]3[C@H]2[C@]13O	
InChI=1S/C7H10O2/c1-9-6-3-2-4-5(3)7(4,6)8/h3-6,8H,2H2,1H3	InChI=1S/C7H10O2/c1-9-6-3-2-4-5(3)7(4,6)8/h3-6,8H,2H2,1H3/t3-,4+,5-,6-,7-/m0/s1
