15
gdb 12342	2.86512	2.32572	1.50927	1.7271	61.54	-0.2383	-0.0353	0.203	836.3289	0.118781	-399.826916	-399.819373	-399.818429	-399.860135	26.721	
C	 0.6543454059	 1.3978266515	-0.1586864271	-0.400287
C	-0.0763861933	 0.070136491	 0.0646569161	 0.021965
O	 0.0419104821	-0.7487280044	-1.115488923	-0.234957
C	 0.9783193779	-1.7247246879	-1.13270448	 0.132111
N	 1.6787508096	-2.1982133172	-0.1950910349	-0.268286
C	 1.4788855779	-1.6953950558	 1.1534698687	-0.262553
C	 0.434277902	-0.6076727853	 1.3337196245	 0.337447
O	 0.0454729928	-0.2421879084	 2.4166333592	-0.306294
H	 1.7308635386	 1.2383865007	-0.2759642	 0.13364
H	 0.2755196637	 1.8783204395	-1.0640004784	 0.138142
H	 0.4875664021	 2.0584385739	 0.6955725245	 0.147802
H	-1.1466777585	 0.2526259294	 0.1937615245	 0.127587
H	 1.07306758	-2.1180833732	-2.1430651047	 0.131792
H	 1.216448969	-2.5271152948	 1.8186484703	 0.152274
H	 2.4321334302	-1.3098913489	 1.5430158402	 0.149617
28.1257	61.6054	224.8389	241.6683	357.1849	438.9327	469.1649	511.219	546.47	588.739	709.6715	866.0271	888.9659	915.4233	976.7491	1001.319	1031.6702	1078.6045	1119.8814	1170.0503	1237.4394	1240.0878	1315.7682	1335.4836	1357.0789	1396.9992	1412.4422	1439.1097	1487.2662	1494.5491	1750.1473	1824.6111	3015.2681	3045.9851	3054.8026	3080.1303	3123.5906	3138.3441	3163.4492
CC1OC=NCC1=O	C[C@H]1OC=NCC1=O	
InChI=1S/C5H7NO2/c1-4-5(7)2-6-3-8-4/h3-4H,2H2,1H3	InChI=1S/C5H7NO2/c1-4-5(7)2-6-3-8-4/h3-4H,2H2,1H3/t4-/m1/s1
