15
gdb 29952	3.39982	1.38985	0.99263	3.8334	71.54	-0.2307	-0.0341	0.1966	1118.9957	0.11458	-454.028651	-454.020941	-454.019997	-454.060998	28.76	
C	-0.0178417841	 1.4386955133	-0.0061576475	-0.334095
N	-0.0001591318	-0.0197091505	-0.0249819673	-0.121205
C	-0.1088674144	-0.7182089458	-1.1705687922	 0.117547
N	-0.100540266	-2.0150310034	-1.2644572102	-0.394825
C	 0.0302608332	-2.6978270295	-0.0886651886	 0.444011
O	 0.0371128489	-4.0347109916	-0.2049744414	-0.406046
C	 0.1486965371	-2.1055690747	 1.1374538251	-0.352189
C	 0.1405266577	-0.6778704006	 1.2472156312	 0.43519
O	 0.2353052819	 0.0053468015	 2.2515926618	-0.407407
H	 0.9094781487	 1.8158405783	 0.4299420662	 0.162301
H	-0.1298609701	 1.8087195733	-1.0263576084	 0.130104
H	-0.8444668108	 1.7919016276	 0.6137527794	 0.162376
H	-0.2107038423	-0.1293261812	-2.0791023523	 0.136141
H	-0.0577599149	-4.2264541595	-1.148189326	 0.303583
H	 0.2502793968	-2.6883219273	 2.0419830303	 0.124514
109.0946	125.7528	183.7632	284.7209	323.4073	376.7306	453.4793	454.8216	525.7775	549.8403	622.0255	736.1924	745.0036	767.5295	807.1338	858.3753	961.6486	969.3143	1084.6842	1156.2356	1176.2083	1198.8705	1233.7706	1285.1065	1384.5914	1407.6796	1455.6156	1465.004	1479.0023	1516.1468	1600.9602	1689.1316	1785.2309	3061.7437	3134.5648	3152.211	3163.7836	3237.0422	3772.5066
CN1C=NC(O)=CC1=O	Cn1cnc(O)cc1=O	
InChI=1S/C5H6N2O2/c1-7-3-6-4(8)2-5(7)9/h2-3,8H,1H3	InChI=1S/C5H6N2O2/c1-7-3-6-4(8)2-5(7)9/h2-3,8H,1H3
