20
gdb 117189	3.14659	0.91247	0.76148	1.6012	76.09	-0.2383	-0.0142	0.2242	1522.0969	0.16852	-440.273563	-440.263279	-440.262335	-440.309801	36.592	
C	-0.1036371537	 1.4108584806	-0.9266730055	-0.462578
C	-0.0868306669	 0.2406489988	 0.0331780726	 0.214046
C	 0.8774385668	-0.880100198	-0.2225306268	-0.268297
N	 1.0841840273	 0.0202994788	 0.91020876	-0.337353
C	-1.4257674552	-0.0845966999	 0.6558229396	 0.339824
O	-2.4439262721	 0.3440871231	 0.1516429305	-0.323538
C	-1.4509152395	-0.9326976789	 1.9118742704	-0.292705
C	-2.8646205497	-1.2333767221	 2.38622294	-0.076195
O	-2.7514554298	-2.0413013365	 3.5496122078	-0.426117
H	 0.8760513962	 1.5384791909	-1.3975760186	 0.105431
H	-0.8525492871	 1.2559024277	-1.7062936931	 0.147825
H	-0.3629985084	 2.3385347197	-0.4064135644	 0.13068
H	 0.6224781376	-1.9028774869	 0.0390103378	 0.126889
H	 1.5083643634	-0.7831922157	-1.1026044941	 0.121494
H	 1.8024496936	 0.7064079021	 0.6909607629	 0.236395
H	-0.9064417569	-1.8705413498	 1.7498177593	 0.131198
H	-0.8812268472	-0.4139876544	 2.6913752401	 0.149886
H	-3.3936404849	-0.2925307513	 2.59306557	 0.100527
H	-3.4233104548	-1.7451209011	 1.5891328961	 0.096783
H	-3.6390879687	-2.2268977873	 3.8690251652	 0.285804
44.2039	60.4322	99.7691	132.8092	187.3005	264.1716	270.173	278.4161	308.1557	366.1063	385.9342	479.7061	528.6966	587.1829	766.7822	784.4344	833.5412	860.0247	938.9622	965.7467	990.65	1022.374	1050.699	1064.5777	1078.3285	1101.8327	1124.6495	1143.3983	1206.4258	1251.4325	1261.6165	1297.3499	1325.8555	1345.7832	1390.497	1413.4469	1440.9261	1466.9201	1478.12	1498.9563	1512.6473	1522.5775	1779.7559	2994.1663	3023.6028	3040.2972	3050.4643	3082.5576	3105.6286	3108.7575	3130.5948	3194.1468	3498.6475	3831.5776
CC1(CN1)C(=O)CCO	C[C@]1(CN1)C(=O)CCO	
InChI=1S/C6H11NO2/c1-6(4-7-6)5(9)2-3-8/h7-8H,2-4H2,1H3	InChI=1S/C6H11NO2/c1-6(4-7-6)5(9)2-3-8/h7-8H,2-4H2,1H3/t6-/m0/s1
