17
gdb 90566	2.74995	1.34088	1.15146	4.5108	68.79	-0.2552	0.0078	0.2631	1109.877	0.134422	-458.934257	-458.925924	-458.92498	-458.967614	30.538	
C	 0.0458625634	 1.6724538074	-0.0450284524	-0.42219
C	 0.3677918597	 0.1956174225	-0.1172523946	 0.15187
O	 1.7131691919	-0.116790319	-0.6141025919	-0.298265
C	 1.9091029906	-1.0435406697	 0.4435636007	 0.029417
C	 1.9325014523	-0.3516215247	 1.7681464276	 0.087095
O	 2.3869544953	 0.9704625269	 1.9422330928	-0.198014
C	 3.5754198349	 1.2950256672	 1.3728384668	 0.188721
O	 4.0381640069	 2.3904938857	 1.4606674528	-0.278599
C	 0.6025028292	-0.654860279	 1.1361332009	-0.205721
H	 0.1149954175	 2.1152427426	-1.0437867432	 0.131457
H	-0.9828782206	 1.802930971	 0.30834278	 0.121405
H	 0.7177720096	 2.2046609161	 0.6276858092	 0.159793
H	-0.3487153374	-0.3183490471	-0.7702666228	 0.094187
H	 2.379842186	-1.9932597806	 0.2144321712	 0.115232
H	 2.1644004336	-0.9924096825	 2.6157313876	 0.119292
H	 4.0427955248	 0.4456962511	 0.8465756446	 0.094799
H	-0.1486893578	-1.2517056579	 1.6356226005	 0.109523
66.9095	134.0283	169.9803	206.1034	214.1121	296.9941	308.1617	424.2569	543.598	582.27	728.8168	735.5829	772.1377	816.5271	860.1935	930.2211	971.8115	1008.1233	1040.4152	1041.7891	1056.5819	1072.2035	1096.7494	1118.5061	1153.313	1161.1607	1214.5332	1266.0654	1302.047	1345.0467	1389.9529	1407.9253	1414.8253	1439.8371	1485.1086	1499.4332	1869.4071	3000.6691	3024.4583	3045.274	3105.6528	3140.6224	3162.7939	3174.5464	3205.6746
CC1OC2C(OC=O)C12	C[C@H]1O[C@H]2[C@@H](OC=O)[C@@H]12	
InChI=1S/C6H8O3/c1-3-4-5(8-2-7)6(4)9-3/h2-6H,1H3	InChI=1S/C6H8O3/c1-3-4-5(8-2-7)6(4)9-3/h2-6H,1H3/t3-,4-,5+,6-/m1/s1
