19
gdb 89957	3.18724	1.30432	1.09699	2.9883	76.17	-0.2424	-0.0363	0.2061	1153.0836	0.157771	-423.00874	-423.000098	-422.999154	-423.042341	32.255	
C	 0.2177513028	 1.6760088892	 0.139630838	-0.411693
C	-0.0333984448	 0.1846597234	 0.1977900207	 0.143943
O	 0.5561561186	-0.536466595	-0.9232310313	-0.352177
C	 1.1751662468	-1.5022709146	-0.0563474949	 0.362135
C	 2.6444209075	-1.1900082854	 0.3020193354	-0.279504
C	 2.1709035419	-0.3861400626	 1.551555904	-0.232846
C	 0.6930675925	-0.7197957381	 1.2215207622	-0.154983
C	 0.7631991498	-2.9129972178	-0.3538466124	 0.08089
O	 1.3686028381	-3.8857107436	 0.0235078472	-0.257415
H	 1.2852736069	 1.9073660497	 0.1021159338	 0.126207
H	-0.249063191	 2.0945054837	-0.7575161797	 0.133115
H	-0.2200538059	 2.1714794489	 1.0129840294	 0.120959
H	-1.1164742814	-0.0033681134	 0.2175839755	 0.081728
H	 3.2033050526	-2.0956458099	 0.5458917916	 0.130295
H	 3.167363061	-0.6287496502	-0.4743067243	 0.113292
H	 2.4991471011	-0.8256861272	 2.4953601723	 0.114569
H	 2.4225808449	 0.6762506211	 1.5686485239	 0.10727
H	 0.0837133717	-1.1622736588	 2.0084645891	 0.088113
H	-0.1776007628	-2.9910632595	-0.9432867503	 0.086104
64.1723	93.152	195.9874	208.3368	227.4913	267.6406	335.8276	404.4254	455.6953	555.0785	626.2467	708.6835	734.0809	786.8385	832.7874	880.3581	908.865	945.1313	961.3834	986.1527	1033.5888	1080.5865	1098.4362	1121.8157	1141.4822	1145.9844	1180.0156	1218.2812	1238.9488	1262.3425	1289.0897	1312.5696	1330.1383	1385.3964	1401.4059	1410.3932	1459.1084	1479.7025	1482.2737	1503.914	1815.2555	2889.3644	2995.3642	3039.3553	3072.7219	3077.7494	3108.1856	3113.6265	3120.8988	3124.8989	3142.0982
CC1OC2(CCC12)C=O	C[C@H]1O[C@]2(CC[C@@H]12)C=O	
InChI=1S/C7H10O2/c1-5-6-2-3-7(6,4-8)9-5/h4-6H,2-3H2,1H3	InChI=1S/C7H10O2/c1-5-6-2-3-7(6,4-8)9-5/h4-6H,2-3H2,1H3/t5-,6+,7-/m1/s1
