23
gdb 105406	2.22549	1.23488	0.95484	2.6912	85.63	-0.2455	-0.0211	0.2244	1345.1961	0.204305	-388.295617	-388.28561	-388.284666	-388.330993	36.97	
C	 0.3999253647	 1.5478467548	 0.2439883617	-0.398894
C	 0.041385901	 0.0644170186	 0.0949676736	-0.249306
C	 0.5965976373	-0.6128787924	-1.1642125825	 0.34454
C	 0.1415356805	 0.0957722925	-2.4622302862	-0.332033
C	-1.3591272379	 0.231434129	-2.56430313	 0.157738
O	-1.9521266286	 1.2811186608	-2.5954376429	-0.246632
C	 2.1409997342	-0.8633004266	-1.1886367253	-0.253203
C	 1.8857015697	-2.3227252216	-1.6487582436	-0.213602
C	 0.3990491251	-2.1654578146	-1.2347253724	-0.270262
H	 1.482577646	 1.7052790465	 0.1818748909	 0.114675
H	-0.0771272907	 2.1560274554	-0.5297822956	 0.139123
H	 0.0662413694	 1.9283474797	 1.2140517564	 0.114821
H	 0.4132879342	-0.4897028116	 0.9659930697	 0.089285
H	-1.0516500285	-0.0466216899	 0.1152704077	 0.101802
H	 0.5800916182	 1.0948206654	-2.5356181426	 0.120239
H	 0.4877371999	-0.489374184	-3.3256533058	 0.110464
H	-1.9175704887	-0.7326747054	-2.6013819549	 0.07499
H	 2.7369694353	-0.2256197102	-1.8471454518	 0.096398
H	 2.5688339041	-0.8143891672	-0.1828563712	 0.099222
H	 2.010598593	-2.4495765774	-2.7274142659	 0.103806
H	 2.4578872833	-3.1073082412	-1.1492414478	 0.100833
H	 0.1975237205	-2.5862087253	-0.2452529942	 0.100932
H	-0.3570753521	-2.547563135	-1.9260774375	 0.095064
56.1737	87.3924	112.417	136.5967	194.4472	207.7099	284.6907	319.1975	339.616	396.0181	468.188	508.2462	631.2207	703.8247	785.4872	799.7754	818.3784	872.1923	906.3844	941.9484	948.5275	957.9229	1001.1439	1022.5384	1035.496	1057.9217	1097.7916	1142.6427	1175.6666	1202.4879	1212.3641	1243.3431	1261.2774	1266.0712	1276.289	1301.8659	1320.3483	1334.525	1371.4422	1416.1073	1429.9919	1468.2833	1476.6204	1484.3813	1491.1574	1502.5983	1507.4074	1516.5727	1823.9863	2860.3502	3010.3981	3018.1257	3036.2494	3044.3119	3048.85	3052.8033	3063.6589	3093.4305	3097.6599	3100.5621	3101.1995	3116.626	3118.8256
CCC1(CC=O)CCC1	CCC1(CC=O)CCC1	
InChI=1S/C8H14O/c1-2-8(6-7-9)4-3-5-8/h7H,2-6H2,1H3	InChI=1S/C8H14O/c1-2-8(6-7-9)4-3-5-8/h7H,2-6H2,1H3
