12
gdb 129311	3.58988	1.52897	1.14485	2.6046	71.27	-0.2844	-0.1284	0.1561	977.5001	0.076356	-464.902638	-464.895295	-464.894351	-464.935014	26.738	
N	 0.1834363027	 0.9878621885	-0.9759957827	-0.443605
C	-0.0110678601	 0.0517027039	-0.1479019489	 0.402863
O	 1.0087173286	-0.7830022699	 0.2917050195	-0.29292
N	 1.4409719583	-0.4874366798	 1.7132484707	 0.014608
N	 0.6571425041	-0.8306316033	 2.5651194638	-0.094066
C	-0.6066863894	-1.4859596941	 2.3064278015	 0.345461
N	-0.965088722	-2.4511869596	 3.0448583072	-0.430222
C	-1.5505525459	-0.9541731276	 1.2881173261	 0.040344
N	-1.3178324068	-0.2477980391	 0.2577226292	-0.209453
H	 1.1845880039	 1.0807406077	-1.1545418476	 0.247712
H	-0.2492403427	-2.6662557602	 3.7444523361	 0.258827
H	-2.5838014006	-1.2247853565	 1.506138455	 0.160451
55.8557	119.6661	255.3332	309.8612	335.4561	415.0841	451.7168	501.7802	587.0192	642.631	701.011	746.1351	814.736	840.6738	874.7604	933.5348	955.8057	986.5769	1017.4905	1069.4511	1276.8528	1319.4128	1394.3626	1676.8798	1695.3743	1709.2976	1741.952	3140.7216	3454.0225	3493.0715
N=C1ON=NC(=N)C=N1	[NH][C]1O[N][N][C]([NH])C=N1	
InChI=1S/C3H3N5O/c4-2-1-6-3(5)9-8-7-2/h1,4-5H	InChI=1S/C3H3N5O/c4-2-1-6-3(5)9-8-7-2/h1,4-5H
