17
gdb 28468	3.1398	1.35264	0.95177	1.8725	81.42	-0.1959	-0.0052	0.1907	1203.8551	0.137636	-418.086905	-418.078535	-418.077591	-418.119662	32.221	
C	-0.0587416037	 1.5105773846	-0.0130563933	-0.496404
C	 0.0036039338	 0.0047344283	 0.002940001	 0.278873
C	 0.0157600743	-0.733777744	-1.1711317961	-0.106152
N	 0.0675467156	-2.0768591795	-1.1977358734	-0.365142
C	 0.1144105222	-2.7196287546	-0.0542425087	 0.384444
O	 0.1588502561	-4.080128845	-0.0703102774	-0.438936
C	 0.1125626551	-2.096186827	 1.2133432929	 0.213231
N	 0.2233710037	-2.8690981476	 2.3655768548	-0.5963
C	 0.0508278253	-0.7097407871	 1.2094895232	-0.236213
H	 0.8206050143	 1.9559412421	 0.4665597639	 0.128904
H	-0.1060542989	 1.8901597654	-1.0373515922	 0.124715
H	-0.9396854603	 1.8841647069	 0.5216911917	 0.126577
H	-0.0207208416	-0.2380736666	-2.137444791	 0.095673
H	 0.1361829293	-4.3325033269	-1.0031031942	 0.295874
H	-0.060720302	-3.8298585942	 2.2398073534	 0.261676
H	-0.1721877904	-2.45511698	 3.1970091533	 0.245806
H	 0.0427846773	-0.1758874047	 2.1567647322	 0.083372
82.4754	145.3548	212.8553	279.6355	314.3602	330.2978	380.4898	443.8345	476.3244	500.7923	522.4106	579.9356	603.2788	636.8186	730.908	786.7979	801.6087	892.6025	917.5998	994.6138	1015.8993	1065.234	1111.1544	1162.315	1198.8301	1294.643	1323.6298	1343.9104	1390.0621	1415.5719	1466.9222	1484.0589	1504.4399	1527.6806	1632.7052	1645.2626	1659.5433	3026.307	3077.1425	3111.0294	3155.8291	3160.9276	3563.3873	3667.9732	3777.8564
CC1=CN=C(O)C(N)=C1	Cc1cnc(O)c(N)c1	
InChI=1S/C6H8N2O/c1-4-2-5(7)6(9)8-3-4/h2-3H,7H2,1H3,(H,8,9)	InChI=1S/C6H8N2O/c1-4-2-5(7)6(9)8-3-4/h2-3H,7H2,1H3,(H,8,9)
