21
gdb 106407	2.57399	1.3131	1.2514	1.5294	78.93	-0.2312	0.0702	0.3014	1170.2712	0.179889	-424.170581	-424.161076	-424.160132	-424.204448	36.521	
C	-0.0249707808	 1.5369625409	-0.0743568667	-0.382212
C	-0.0541678927	 0.0072700859	 0.0193525615	-0.324107
C	-1.4417109011	-0.5517434191	 0.1281435355	 0.391683
C	-2.5966937588	-0.202428634	 1.1128116756	-0.279776
C	-3.1605815227	-1.1025409946	-0.0048114754	-0.020781
O	-2.3960367973	-0.3140466506	-0.9940419864	-0.352463
C	-1.9124907802	-2.0418603984	 0.12955818	 0.38948
C	-1.5499611534	-2.9219754891	-1.0525252277	-0.484365
O	-1.6996620434	-2.6963418864	 1.3601593648	-0.484336
H	 0.9995955202	 1.9005762147	-0.1946372628	 0.111346
H	-0.6150607727	 1.8818830825	-0.9278159368	 0.137196
H	-0.4407926264	 1.9960915519	 0.8280576027	 0.119731
H	 0.4273712004	-0.433869034	-0.8622585909	 0.109125
H	 0.5132685417	-0.3371937497	 0.8927492767	 0.115889
H	-2.5470578844	-0.6018922028	 2.1248323115	 0.11487
H	-2.9333505806	 0.8334887308	 1.063455197	 0.100604
H	-4.1964553054	-1.3395095128	-0.2526397368	 0.082292
H	-1.6934491898	-2.3874900173	-1.9911834222	 0.147665
H	-0.5079790265	-3.2495279548	-0.976912723	 0.122583
H	-2.1808169643	-3.8203694728	-1.0667627567	 0.104119
H	-2.0122811714	-3.6026711402	 1.27635889	 0.281456
68.4219	142.5002	174.0788	228.3607	238.7458	246.5277	280.0037	315.4895	349.0648	405.3531	511.1503	556.8915	609.3422	627.0387	710.6704	726.9439	782.0273	840.3367	892.2106	922.1058	948.7535	967.9959	992.9514	1027.331	1056.0597	1092.4248	1121.6061	1143.246	1159.6229	1196.2298	1210.9204	1227.1028	1235.3452	1284.3579	1319.6531	1367.4395	1394.4701	1407.931	1413.826	1470.1429	1479.9451	1494.5236	1497.3106	1504.8388	1507.8914	3023.7143	3028.2451	3042.1342	3064.3831	3086.6542	3087.4727	3107.5608	3110.1522	3121.6114	3155.6887	3168.8224	3816.666
CCC12CC(O1)C2(C)O	CC[C@@]12C[C@@H](O1)[C@]2(C)O	
InChI=1S/C7H12O2/c1-3-7-4-5(9-7)6(7,2)8/h5,8H,3-4H2,1-2H3	InChI=1S/C7H12O2/c1-3-7-4-5(9-7)6(7,2)8/h5,8H,3-4H2,1-2H3/t5-,6+,7+/m1/s1
