15
gdb 12976	2.87226	2.73293	1.6775	2.7414	67.23	-0.2408	-0.0516	0.1892	781.1677	0.11942	-362.671302	-362.664433	-362.663489	-362.702115	26.167	
C	-0.0195931268	 1.524229467	 0.0063642454	-0.474216
C	 0.0271942952	 0.0187029602	-0.0077448774	 0.1956
C	 0.3312650174	-0.7670741483	 1.2340009013	-0.267523
N	 1.3163593656	-0.6792933027	 0.1303219657	-0.128955
C	 1.2187379243	-1.8075980249	-0.732599903	-0.033345
C	 0.109741677	-1.8416080607	-1.4895917615	-0.217342
C	-0.7487110547	-0.7011203323	-1.1042747644	 0.345081
O	-1.8084552513	-0.346688382	-1.5707732293	-0.346024
H	 0.5664636649	 1.934164906	 0.8322324145	 0.123849
H	 0.3704904637	 1.9315619106	-0.9310511618	 0.135644
H	-1.058637283	 1.8506577536	 0.106452351	 0.146425
H	 0.5894499347	-0.2190332227	 2.1359659859	 0.13264
H	-0.1547301941	-1.7267084004	 1.3854034377	 0.132847
H	 2.0201603368	-2.5358716206	-0.6885085685	 0.130736
H	-0.1571763596	-2.5811550829	-2.2307148656	 0.124581
140.0704	164.447	255.219	298.4788	324.6709	472.2586	487.6979	607.285	678.4612	744.3918	795.3666	812.6094	835.7815	867.769	936.7251	963.4319	991.5071	1038.5137	1089.5403	1108.3115	1120.0957	1134.4814	1173.682	1307.463	1341.9025	1361.397	1411.3425	1480.6484	1493.7847	1496.7695	1611.2909	1805.1395	3047.4066	3112.0882	3117.5078	3130.7475	3204.5666	3209.4732	3247.1037
CC12CN1C=CC2=O	C[C@]12CN1C=CC2=O	
InChI=1S/C6H7NO/c1-6-4-7(6)3-2-5(6)8/h2-3H,4H2,1H3	InChI=1S/C6H7NO/c1-6-4-7(6)3-2-5(6)8/h2-3H,4H2,1H3/t6-,7?/m1/s1
