15
gdb 26904	3.11751	1.44972	0.9908	2.9877	79.47	-0.1716	-0.0418	0.1297	1115.7824	0.114435	-450.15982	-450.151756	-450.150812	-450.19203	31.229	
N	 0.0564868826	 1.3877596339	 0.1465475148	-0.582592
C	-0.0119125611	 0.0101461825	 0.0498953621	 0.334268
C	-1.1865041927	-0.7010274243	 0.0330444698	 0.331969
O	-2.3746347021	-0.0126716108	 0.0536607562	-0.461863
N	-1.2040203482	-2.0426481343	-0.002612463	-0.295835
C	-0.0857101755	-2.7161682081	-0.0287936231	-0.117655
C	 1.2318479681	-2.1009247935	-0.0129767664	 0.337779
N	 2.4029213119	-2.6360904156	-0.0257649053	-0.580822
N	 1.1515950227	-0.7023919265	 0.0293780899	-0.379916
H	 0.7788981316	 1.8263490099	-0.4100896611	 0.256674
H	-0.8450657506	 1.823211547	 0.0061986641	 0.277624
H	-3.0687408538	-0.6799208686	-0.003438862	 0.297035
H	-0.1401675135	-3.8006810563	-0.0630580499	 0.112673
H	 2.3208062261	-3.6502963186	-0.0537941075	 0.209468
H	 2.0395398145	-0.2246663067	 0.1003512814	 0.261193
112.8097	183.712	263.1664	293.8889	297.5364	338.7411	348.9222	453.2622	497.3657	501.8444	583.6787	604.3882	646.4612	694.3355	736.4418	747.9878	762.4492	811.6179	871.3977	962.1593	1085.332	1137.2262	1154.7158	1290.0036	1321.798	1348.093	1370.6962	1439.3388	1501.4363	1572.4153	1643.334	1673.4512	1706.6163	3166.4494	3505.9539	3542.2354	3602.8507	3647.9522	3809.2488
NC1=C(O)N=CC(=N)N1	N[C@@H]1C(=NC=C([NH])N1)O	
InChI=1S/C4H6N4O/c5-2-1-7-4(9)3(6)8-2/h1H,(H,7,9)(H4,5,6,8)	InChI=1S/C4H7N4O/c5-2-1-7-4(9)3(6)8-2/h1,3,5,8H,6H2,(H,7,9)/t3-/m0/s1
