21
gdb 107819	3.19915	1.47002	1.27289	1.4056	81.04	-0.2344	0.0889	0.3233	1088.5608	0.18376	-387.072277	-387.06436	-387.063416	-387.104453	31.853	
C	-0.0076927982	 1.5516547444	-0.0022538831	-0.383403
C	 0.0878740566	 0.0223573793	 0.0069646758	-0.273777
C	 0.7071140568	-0.5433309125	-1.2518350761	 0.439146
C	-0.0587305725	-0.396271484	-2.6178343882	-0.283651
C	 0.3326251444	-1.8411158399	-2.9278743693	-0.079392
C	 1.7942238849	-2.0732985667	-2.5769376891	-0.071186
C	 2.6869220584	-0.8520431128	-2.3902186681	-0.10893
O	 2.0484885552	-0.067806822	-1.379798948	-0.306556
C	 0.7661289762	-2.0787135958	-1.488894134	-0.139029
H	 0.9835586016	 1.9971531613	-0.1161785622	 0.137141
H	-0.6314354104	 1.9053698363	-0.8302962778	 0.114745
H	-0.4484042478	 1.9214710029	 0.9283082089	 0.107571
H	 0.6914090027	-0.3088925386	 0.8610220364	 0.103322
H	-0.9078261018	-0.4197622775	 0.1306849631	 0.096269
H	-1.1372151667	-0.2965523192	-2.463972366	 0.098754
H	 0.2859819924	 0.3997752176	-3.2860817184	 0.094051
H	-0.1945009441	-2.5188871819	-3.5891177333	 0.082999
H	 2.2332414689	-3.0090612088	-2.9022933135	 0.090304
H	 3.6882355683	-1.1283065173	-2.0386551983	 0.102219
H	 2.8005317116	-0.2670402526	-3.3139713975	 0.09515
H	 0.5626709036	-2.8810458323	-0.7923121413	 0.084253
99.9086	166.5879	191.5991	234.996	328.7778	352.7393	420.4991	451.1519	614.362	662.0829	730.1458	749.7649	780.0344	787.9429	830.6361	905.7222	925.8754	943.5939	955.1892	984.619	1002.6925	1011.9794	1027.5063	1034.0414	1048.8334	1077.3915	1114.7371	1130.5485	1143.7429	1188.6257	1213.6215	1221.0999	1239.4408	1293.6452	1300.2252	1327.3923	1362.4809	1389.9092	1400.8118	1409.2474	1475.208	1489.5473	1495.8969	1508.8307	1527.0515	2999.554	3028.452	3038.6938	3040.6941	3046.506	3065.0733	3093.8308	3103.4542	3126.6279	3175.83	3187.1914	3204.5192
CCC12CC3C(CO1)C23	CC[C@@]12C[C@H]3[C@@H](CO1)[C@@H]23	
InChI=1S/C8H12O/c1-2-8-3-5-6(4-9-8)7(5)8/h5-7H,2-4H2,1H3	InChI=1S/C8H12O/c1-2-8-3-5-6(4-9-8)7(5)8/h5-7H,2-4H2,1H3/t5-,6+,7-,8-/m0/s1
