22
gdb 76679	3.01165	0.95058	0.84434	2.2996	82.67	-0.2208	0.0761	0.2969	1465.851	0.192277	-404.292728	-404.282699	-404.281755	-404.328359	36.455	
C	-0.2450720055	 1.2688461561	 0.7712478013	-0.413621
C	 0.0349380196	-0.0503086185	 0.083867474	 0.001663
C	 0.5046307268	-0.1613022729	-1.3342746308	 0.000524
C	 0.7223584526	 1.0352318671	-2.2350888988	-0.420603
N	 1.3893930658	-0.5200642325	-0.2187133717	-0.116617
C	 2.5528209792	 0.2889236204	 0.1200980217	-0.178192
C	 3.8016527827	-0.4057582396	-0.3782518699	 0.103283
C	 4.4916506295	 0.008112648	-1.6057973426	-0.171797
O	 5.0082480526	 0.3554840701	-0.3191248345	-0.240872
H	-0.0661281061	 1.1853303732	 1.849008224	 0.125638
H	 0.368281866	 2.0907920231	 0.3978440294	 0.1212
H	-1.2958300875	 1.5468100362	 0.635527173	 0.121888
H	-0.6073975939	-0.8531516374	 0.448431881	 0.085129
H	 0.1732555188	-1.0397835857	-1.8889322925	 0.085778
H	 0.9465163735	 1.9572419438	-1.6960620788	 0.122671
H	 1.5430930517	 0.8484945421	-2.9368674223	 0.124815
H	-0.1806598567	 1.2142703483	-2.8283935359	 0.124307
H	 2.5465947789	 1.3175633702	-0.2685292792	 0.091349
H	 2.6079719471	 0.3615089376	 1.2135678634	 0.11132
H	 3.8990564733	-1.4440185773	-0.0605451926	 0.098408
H	 5.0820807698	-0.7139226751	-2.1681983165	 0.114677
H	 4.0985853818	 0.840828293	-2.1887847716	 0.10905
50.6663	73.3367	124.7595	157.9251	161.9896	221.8498	237.3805	299.5661	385.8554	392.4847	454.2193	517.4883	538.5105	737.4498	765.0021	831.6086	848.4031	878.9291	905.9332	958.3571	1004.2813	1032.948	1044.2631	1056.4206	1104.1716	1125.7299	1142.8655	1156.1877	1168.9264	1177.0986	1183.9731	1197.6558	1258.9705	1281.9777	1347.9338	1361.1828	1382.4799	1414.6852	1418.3404	1438.5401	1448.7953	1479.2873	1488.9862	1497.6485	1500.7405	1512.6893	1529.1037	2995.7412	3035.7357	3039.0894	3048.1507	3078.56	3082.0379	3091.2761	3092.7804	3094.0756	3115.3021	3126.752	3137.288	3165.2974
CC1C(C)N1CC1CO1	C[C@H]1[C@@H](C)N1C[C@H]1CO1	
InChI=1S/C7H13NO/c1-5-6(2)8(5)3-7-4-9-7/h5-7H,3-4H2,1-2H3	InChI=1S/C7H13NO/c1-5-6(2)8(5)3-7-4-9-7/h5-7H,3-4H2,1-2H3/t5-,6+,7-,8?/m0/s1
