20
gdb 118371	3.08032	0.78797	0.66106	4.2121	85.7	-0.2756	0.0305	0.3061	1712.65	0.168569	-366.003841	-365.993297	-365.992353	-366.040121	37.357	
C	-0.0556896223	 1.6021670996	-0.0125589777	-0.38253
C	 0.0075296547	 0.0727940305	 0.0161950469	-0.181461
C	 0.6981537963	-0.5114444565	-1.2193682046	-0.174607
C	 0.7689432134	-2.0556506884	-1.221904326	-0.169172
C	 1.3626948921	-2.5574953682	-2.5684043551	-0.352894
C	 1.3216068446	-4.0102797784	-2.7139873862	 0.268069
N	 1.2725540346	-5.1582000064	-2.8345920684	-0.303559
C	 1.5419777396	-2.5706633237	-0.09444788	 0.35311
C	 2.2043842826	-2.9836454312	 0.8192723094	-0.47103
H	 0.9480988361	 2.0393822895	-0.0515024936	 0.117584
H	-0.607742806	 1.9627857315	-0.8877204355	 0.114754
H	-0.5542289128	 1.9935281282	 0.8791943482	 0.117896
H	 0.5377858887	-0.2611895795	 0.9148502437	 0.118409
H	-1.0087164625	-0.3365322706	 0.0884474837	 0.098647
H	 0.1616149412	-0.1939913466	-2.123130724	 0.097107
H	 1.7167095463	-0.1105676337	-1.2997276874	 0.107234
H	-0.2549787263	-2.4455550637	-1.1482122521	 0.12588
H	 0.802647219	-2.1103061752	-3.397088485	 0.150864
H	 2.4010758351	-2.2213718663	-2.6586798539	 0.159694
H	 2.7764278158	-3.3645657309	 1.6291343478	 0.206007
57.3215	85.3532	95.0841	111.6533	159.667	218.3423	232.1222	248.3839	340.4091	367.185	394.1362	477.0085	535.2145	628.4631	641.7106	654.6852	748.5908	802.9011	876.7378	891.0924	955.7676	973.3409	1028.866	1047.524	1077.6197	1125.3672	1141.8756	1217.2583	1253.7616	1282.3986	1329.8183	1333.025	1347.7775	1372.9798	1399.2959	1415.0278	1462.8903	1483.0769	1493.8675	1500.7909	1510.7844	2237.5671	2365.4809	3014.7995	3021.0897	3025.0618	3031.2352	3048.6496	3054.8233	3073.6244	3092.7646	3099.8959	3106.4267	3502.7273
CCCC(CC#N)C#C	CCC[C@@H](CC#N)C#C	
InChI=1S/C8H11N/c1-3-5-8(4-2)6-7-9/h2,8H,3,5-6H2,1H3	InChI=1S/C8H11N/c1-3-5-8(4-2)6-7-9/h2,8H,3,5-6H2,1H3/t8-/m0/s1
