16
gdb 98954	5.09914	0.7368	0.64892	6.4296	69.63	-0.254	-0.0944	0.1596	1657.055	0.120753	-475.076433	-475.066492	-475.065548	-475.11307	33.207	
C	 0.2409533531	 1.4650136734	 0.0051643324	-0.374128
C	-0.0713548636	-0.0290751689	 0.0029806949	-0.31909
C	-1.5702994745	-0.3101388039	 0.015780374	 0.437108
O	-2.4196488227	 0.5392792028	 0.028348776	-0.286062
N	-1.865269974	-1.6915457642	 0.0113317905	-0.403928
C	-3.1201810498	-2.2927838401	 0.0207204195	 0.338515
O	-4.1827922095	-1.7358327964	 0.0346777037	-0.273986
C	-3.0039192259	-3.8362599199	 0.0107206842	 0.081696
O	-3.9663955273	-4.5449206792	 0.0166488079	-0.191465
H	 1.3217132007	 1.6285403119	-0.0037472541	 0.116032
H	-0.1932188558	 1.9538421784	-0.869937665	 0.141441
H	-0.177875986	 1.947997098	 0.8909084127	 0.141541
H	 0.3629942751	-0.5199306932	-0.8787159322	 0.128239
H	 0.3786013341	-0.5256656315	 0.8735888454	 0.128414
H	-1.0702054592	-2.3145873276	-6.9629*^-6	 0.255677
H	-1.9664476846	-4.2503777196	-0.0025238669	 0.079996
41.4179	58.2894	69.6699	119.7736	139.3355	209.7685	254.4538	286.0154	353.6454	395.0993	541.6238	561.6259	641.9376	648.6706	760.5007	817.0793	843.1293	965.5823	990.769	1007.4323	1083.3272	1098.4498	1147.402	1153.5863	1284.6521	1366.8426	1417.861	1422.9709	1460.0253	1493.1366	1498.7191	1510.069	1813.0493	1855.9751	1869.2237	2834.1477	3016.1481	3047.6335	3057.3671	3130.5435	3136.6871	3600.9082
CCC(=O)NC(=O)C=O	CCC(=O)NC(=O)C=O	
InChI=1S/C5H7NO3/c1-2-4(8)6-5(9)3-7/h3H,2H2,1H3,(H,6,8,9)	InChI=1S/C5H7NO3/c1-2-4(8)6-5(9)3-7/h3H,2H2,1H3,(H,6,8,9)
