17
gdb 46705	3.03054	1.77031	1.3769	4.6977	70.62	-0.2471	0.0125	0.2596	941.3429	0.13892	-421.835595	-421.828876	-421.827932	-421.866753	26.861	
O	 0.079086221	-0.0614541272	 0.2643992828	-0.338499
C	-0.0017620371	 1.0935729071	-0.0583635658	 0.421162
O	-1.1810516429	 1.5707564101	-0.5287480086	-0.232685
C	-1.37278089	 2.9725499009	-0.7973863733	-0.096114
C	-0.1320935768	 3.7140823744	-1.2645102688	-0.061428
C	 0.925997492	 4.221135475	-0.3107642513	-0.066374
C	 0.9812204121	 3.3256222784	 0.926926685	-0.261174
C	 1.1472204673	 2.0734090447	-0.0142002953	-0.163731
C	 1.2015997643	 3.0302024952	-1.2206336724	-0.081114
H	-2.141494631	 2.9970250477	-1.5736895243	 0.126581
H	-1.7990887906	 3.4332935326	 0.1022863364	 0.119293
H	-0.2871993326	 4.351193923	-2.1290729306	 0.101945
H	 1.3023057619	 5.2341905133	-0.3799692952	 0.093476
H	 1.8850566325	 3.4754441543	 1.5193855367	 0.120343
H	 0.1179741116	 3.3413233659	 1.6001480468	 0.110027
H	 2.058524469	 1.5125632986	 0.1808129664	 0.107924
H	 1.8519202994	 2.9290495459	-2.0795171385	 0.100367
121.9451	152.2064	276.0149	391.846	431.6456	465.8386	548.6456	683.9995	738.6745	742.293	772.2017	795.803	852.5889	894.1627	946.6236	967.3946	969.7123	990.7289	1032.8726	1050.5441	1058.5211	1071.2256	1091.0404	1147.4209	1175.2562	1217.6906	1234.6491	1254.475	1279.0476	1295.3785	1302.2787	1336.2981	1423.4214	1432.2564	1490.9701	1512.9365	1841.8274	3027.5567	3052.2577	3092.7545	3117.368	3142.3485	3166.7512	3186.8365	3202.3692
O=C1OCC2C3CC1C23	O=C1OC[C@H]2[C@H]3C[C@@H]1[C@@H]23	
InChI=1S/C7H8O2/c8-7-4-1-3-5(2-9-7)6(3)4/h3-6H,1-2H2	InChI=1S/C7H8O2/c8-7-4-1-3-5(2-9-7)6(3)4/h3-6H,1-2H2/t3-,4-,5+,6+/m1/s1
