17
gdb 72693	2.28263	1.54062	1.48283	2.5228	69.26	-0.2462	-0.0393	0.2069	1004.3761	0.134011	-458.935533	-458.927143	-458.926198	-458.968743	31.3	
O	-0.0018120233	 1.3574784086	 0.351759045	-0.454967
C	-0.0567428242	 0.0130097931	 0.0375931413	 0.309792
C	 0.2767005531	-0.4745986512	-1.3898059734	-0.300549
C	-0.9606723974	-1.4236168928	-1.3643542353	-0.274073
C	-1.3497155201	-0.9361287871	 0.0511768924	 0.269155
O	-0.7830775917	-1.7145370021	 1.1144009865	-0.332176
C	 0.4084957627	-0.8962701442	 1.1841786445	-0.112687
C	-2.725760119	-0.4306117381	 0.3166569588	 0.083405
O	-3.4134601213	 0.0938102388	-0.5277735622	-0.26917
H	-0.2995563817	 1.8704931599	-0.4076026006	 0.293127
H	 0.1749791934	 0.3260752667	-2.1293133679	 0.105898
H	 1.2613109346	-0.9325173011	-1.5152338053	 0.112363
H	-1.7207722672	-1.1709117466	-2.1054328464	 0.132232
H	-0.7465121256	-2.49261765	-1.3989146846	 0.119377
H	 1.3246965263	-1.4732777554	 1.0128735915	 0.10731
H	 0.4771997495	-0.3645768963	 2.1397808537	 0.120837
H	-3.0547345181	-0.5329094922	 1.3734493621	 0.090128
80.5982	84.9361	188.4409	232.9944	267.1046	343.1677	365.5474	399.0536	468.6325	507.8317	621.8799	663.1507	728.8386	762.739	850.6703	905.7691	917.5768	950.0704	1008.5445	1014.3443	1076.4754	1084.377	1106.6855	1150.7163	1165.9991	1218.376	1233.8408	1245.9249	1271.7058	1308.781	1339.0803	1398.8171	1408.7292	1458.2408	1480.0673	1514.2598	1801.4802	2904.0721	3025.9952	3049.7069	3080.1138	3082.165	3102.0751	3146.5021	3807.8158
OC12CCC1(OC2)C=O	O[C@]12CC[C@]1(OC2)C=O	
InChI=1S/C6H8O3/c7-3-6-2-1-5(6,8)4-9-6/h3,8H,1-2,4H2	InChI=1S/C6H8O3/c7-3-6-2-1-5(6,8)4-9-6/h3,8H,1-2,4H2/t5-,6-/m0/s1
