21
gdb 51469	2.82899	1.16353	1.05611	2.6489	81.94	-0.2426	-0.0171	0.2255	1242.9784	0.183514	-387.100214	-387.091446	-387.090502	-387.135426	32.383	
O	-0.2922615681	 1.2841692953	 1.1320383182	-0.243776
C	 0.1404916329	 1.3145261758	 0.0084302047	 0.175287
C	 1.5388164341	 1.7544090807	-0.3701525302	-0.315239
C	 1.479740491	 2.944627777	-1.3189432038	-0.02447
C	 1.1628825001	 4.3679995158	-0.9086056314	-0.04887
C	 1.2956975168	 4.7892195742	 0.5511004667	-0.221995
C	 2.750368222	 4.4521003956	 0.9782071085	-0.223741
C	 3.558342613	 4.2258839854	-0.3289663832	-0.21576
C	 2.5379756618	 4.0206572205	-1.4419527701	-0.070065
H	-0.5015411403	 1.0267039379	-0.8577047383	 0.069856
H	 2.0900165057	 1.9605226722	 0.546857128	 0.123209
H	 2.033527265	 0.9161490038	-0.8816150539	 0.11486
H	 1.0400862068	 2.6755953358	-2.277692156	 0.086989
H	 0.447763144	 4.908565076	-1.5199174017	 0.08059
H	 1.1150193687	 5.8675239241	 0.6179828874	 0.100502
H	 0.5610901303	 4.3041055819	 1.2021504046	 0.117646
H	 3.1855778017	 5.2535216806	 1.5815876789	 0.099122
H	 2.7697828087	 3.5592872937	 1.6080325048	 0.11489
H	 4.156021039	 5.1118194146	-0.5700039605	 0.101875
H	 4.2629474909	 3.3918448313	-0.2342789423	 0.097972
H	 2.8349468659	 4.3006746278	-2.4475198205	 0.081119
29.0836	42.6246	132.2228	157.6842	241.1286	261.0802	442.6856	453.1221	522.8848	666.2792	686.0101	738.4146	759.8648	793.1672	842.3644	877.1351	887.1591	926.674	966.9152	984.8842	1011.2333	1026.6427	1074.3994	1078.3919	1099.7091	1122.2785	1127.6361	1187.1431	1206.4448	1228.5289	1234.814	1259.8898	1285.7328	1306.6503	1323.5703	1326.1643	1360.8301	1378.3956	1428.3409	1443.9521	1461.8213	1493.5183	1497.3259	1523.4803	1831.839	2851.3639	3014.098	3035.0203	3041.3503	3063.0884	3066.4068	3076.3216	3103.5472	3114.8148	3140.8577	3152.1912	3164.1743
O=CCC1C2CCCC12	O=CC[C@H]1[C@H]2CCC[C@@H]12	
InChI=1S/C8H12O/c9-5-4-8-6-2-1-3-7(6)8/h5-8H,1-4H2	InChI=1S/C8H12O/c9-5-4-8-6-2-1-3-7(6)8/h5-8H,1-4H2/t6-,7+,8-
