20
gdb 11794	3.93377	1.63383	1.50224	1.3254	74.43	-0.2615	0.0744	0.3359	934.6356	0.179251	-348.99388	-348.98647	-348.985526	-349.025334	29.479	
O	-0.0631227713	 1.4076955275	-0.1616733102	-0.425154
C	 0.0009385221	-0.0021875137	 0.022783105	-0.199066
C	-1.4048184248	-0.5423311411	 0.0117613646	 0.380192
C	-2.2983165534	-0.5164539295	-1.2666543479	-0.246337
C	-3.0782585217	-1.6236588755	-0.5028982456	-0.015233
C	-1.6932509314	-2.073640496	 0.0474275321	-0.276542
C	-3.6574967027	-0.8388890859	 0.691057224	-0.212706
C	-2.386246404	-0.0168211512	 1.0841452363	-0.242071
H	 0.8337371685	 1.7536629407	-0.1457080751	 0.287133
H	 0.5906483179	-0.4788835791	-0.7772701768	 0.079176
H	 0.4848801691	-0.2555930439	 0.9816449031	 0.080823
H	-2.819483352	 0.4134049658	-1.5107356971	 0.092112
H	-1.7737780563	-0.8976977859	-2.1468814341	 0.087772
H	-3.742427307	-2.3194531377	-1.0165584699	 0.054354
H	-1.1068760598	-2.6285579906	-0.6899734424	 0.090191
H	-1.6596855861	-2.5825112268	 1.0165796011	 0.083501
H	-4.4978622048	-0.2017624641	 0.3997709736	 0.093576
H	-4.0001390238	-1.4975532066	 1.4947773023	 0.091085
H	-2.0370004122	-0.2371962899	 2.0982385496	 0.086708
H	-2.5286418463	 1.0627986135	 1.0046939574	 0.110486
95.6508	172.5347	237.4539	282.1038	326.5697	403.3549	453.5077	506.1109	610.3098	692.2641	828.419	830.9711	835.6965	888.4959	897.3104	937.3534	947.932	974.2378	986.0315	1008.5353	1041.1508	1066.5643	1088.5639	1115.9518	1149.6016	1169.2956	1187.2996	1206.3163	1225.128	1240.7411	1260.4717	1276.4455	1288.6149	1298.5804	1327.2813	1351.4181	1463.8755	1485.8407	1495.077	1501.7478	1513.7653	1533.6337	2951.2174	2980.347	3039.7413	3045.4976	3051.7368	3056.6697	3087.1039	3101.6682	3107.8871	3112.0446	3113.838	3831.9797
OCC12CC(C1)CC2	OC[C@@]12C[C@@H](C1)CC2	
InChI=1S/C7H12O/c8-5-7-2-1-6(3-7)4-7/h6,8H,1-5H2	InChI=1S/C7H12O/c8-5-7-2-1-6(3-7)4-7/h6,8H,1-5H2/t6-,7-
