16
gdb 78065	2.21619	1.66827	1.4891	4.4789	70.59	-0.2376	-0.0444	0.1932	982.7002	0.122952	-437.878093	-437.869624	-437.86868	-437.911836	30.094	
C	-0.3138375527	 1.2871945762	-0.4417329808	-0.350118
N	-0.1293793305	-0.0475706494	 0.0888938593	-0.086115
C	-1.0635441322	-1.1695747258	 0.1467669767	-0.030801
C	-0.9566876282	-2.1106437075	-1.0242010243	-0.126906
C	-0.6090037834	-1.7675628195	-2.4384319514	 0.15046
O	-0.4086426103	-0.6631837832	-2.8777020992	-0.248535
C	 0.0998447346	-2.1327946263	 0.1040757968	-0.263215
C	 0.981820167	-0.8755977896	-0.0107348351	 0.426668
O	 2.1511964231	-0.6470412743	-0.1430998327	-0.35586
H	 0.6705402415	 1.7602319358	-0.4767346279	 0.156262
H	-0.7317619181	 1.2623283365	-1.4524058328	 0.151042
H	-0.9592977994	 1.8749445019	 0.2183514206	 0.121613
H	-1.9043658662	-1.1645585296	 0.8292365994	 0.122805
H	-1.6073148145	-2.9829748983	-0.9584735094	 0.11596
H	-0.5360242044	-2.6614330478	-3.0972014419	 0.08994
H	 0.2862374938	-3.020458099	 0.6910588626	 0.126799
46.6938	129.167	144.7716	190.2341	217.3716	239.1164	320.8574	426.9796	475.5672	696.9445	706.0481	736.9503	794.5157	827.8065	845.7236	875.3597	933.9157	966.6707	1020.447	1044.206	1061.3032	1100.2988	1140.5656	1157.9719	1239.8825	1265.5681	1272.6342	1380.9432	1414.5347	1433.5263	1448.9353	1485.8326	1510.3272	1819.916	1891.9435	2883.8796	3038.1691	3108.0047	3118.5052	3133.8922	3194.4147	3229.2617
CN1C2C(C=O)C2C1=O	CN1[C@H]2[C@@H](C=O)[C@H]2C1=O	
InChI=1S/C6H7NO2/c1-7-5-3(2-8)4(5)6(7)9/h2-5H,1H3	InChI=1S/C6H7NO2/c1-7-5-3(2-8)4(5)6(7)9/h2-5H,1H3/t3-,4+,5-/m0/s1
