18
gdb 12491	3.13591	1.92755	1.33172	2.4491	68.46	-0.2124	-0.0183	0.1941	932.072	0.156666	-381.115715	-381.108059	-381.107115	-381.14811	28.817	
O	 0.0222045717	-0.0846687013	 0.5055500498	-0.302426
C	-0.040120605	 1.067833146	 0.1352925689	 0.355366
C	-1.3967714803	 1.7310503577	-0.133730038	-0.245963
N	-1.6143597665	 2.0023254281	-1.5539303502	-0.277213
C	-1.0532895023	 3.2323068746	-2.1005507897	-0.169205
C	 0.3442051501	 3.6717384162	-1.5795313715	-0.165064
N	 1.3302660972	 2.6204250505	-1.3845472021	-0.272456
C	 1.2375456601	 1.8783454736	-0.1317102685	-0.260656
H	-2.1656536042	 1.045750714	 0.2367000981	 0.121897
H	-1.4870870796	 2.6731623758	 0.4199660908	 0.111855
H	-1.3469862512	 1.1971839261	-2.1057780825	 0.224424
H	-1.0082936414	 3.1028502868	-3.1878678536	 0.103804
H	-1.7518251403	 4.0624085934	-1.9194301479	 0.105504
H	 0.741284913	 4.4170936146	-2.281320273	 0.102991
H	 0.235087979	 4.1892829683	-0.6188169203	 0.105814
H	 1.359608395	 1.9872568105	-2.1762391412	 0.216207
H	 1.3460572991	 2.5995245176	 0.6925826472	 0.120651
H	 2.0765527054	 1.1806382976	-0.0597996363	 0.12447
47.0211	134.6688	230.8534	288.8676	314.4851	349.4163	447.4711	488.3181	581.8178	638.9169	668.1103	721.9563	810.3995	850.9937	861.839	880.6187	979.1559	1005.4781	1065.2994	1076.683	1171.1745	1180.7515	1213.7845	1229.4858	1273.1654	1317.8081	1325.1682	1344.6923	1354.5063	1381.9393	1397.2791	1453.3098	1471.523	1483.5291	1491.8336	1501.6874	1504.1404	1792.0268	2997.1981	2999.486	3017.8331	3036.4083	3048.7755	3071.2871	3090.1777	3095.4772	3527.8065	3553.637
O=C1CNCCNC1	O=C1CNCCNC1	
InChI=1S/C5H10N2O/c8-5-3-6-1-2-7-4-5/h6-7H,1-4H2	InChI=1S/C5H10N2O/c8-5-3-6-1-2-7-4-5/h6-7H,1-4H2
