18
gdb 9802	2.98513	1.63726	1.29666	2.4459	67.94	-0.2457	-0.0243	0.2215	1001.0485	0.150544	-384.93255	-384.923504	-384.922559	-384.966622	32.227	
C	-0.0540831676	 1.5434251299	 0.3982292647	-0.417781
C	-0.0415154563	 0.0582613525	-0.025122659	-0.128038
C	 0.8539371004	-0.6885076331	 0.9496539767	 0.141216
O	 1.9366652653	-1.1373542626	 0.6711046241	-0.257162
C	-1.4568771393	-0.5248281046	-0.0748937138	 0.402894
C	-2.3878838681	 0.0715985299	-1.1091108641	-0.464748
C	-1.714673752	-1.8921086649	 0.4050349219	-0.236018
O	-2.0552818089	-0.7581565432	 1.2105952689	-0.271983
H	 0.9651956772	 1.9352619762	 0.4572419905	 0.133516
H	-0.6044700511	 2.1539947779	-0.3216744819	 0.128948
H	-0.5281948547	 1.6603031537	 1.3776439976	 0.140564
H	 0.4161918014	-0.0392530025	-1.0157880898	 0.097362
H	 0.4443444341	-0.7600233766	 1.9810095491	 0.099164
H	-1.9754537164	-0.049331412	-2.1164112915	 0.126344
H	-3.3612531767	-0.42313959	-1.0696025596	 0.130779
H	-2.5468873456	 1.1394345216	-0.9339907041	 0.132432
H	-2.5606391171	-2.4500275712	 0.0060054517	 0.116658
H	-0.9000759548	-2.5092152911	 0.7827838588	 0.12585
49.294	70.2392	178.1945	201.0449	221.4222	259.4263	321.8739	358.5798	379.5906	438.588	463.3893	550.2554	730.2783	834.9907	871.9943	910.0751	929.6577	955.0434	1010.4408	1057.3751	1086.6786	1130.6724	1135.9465	1158.9125	1173.0182	1223.6951	1301.5268	1341.1005	1386.2226	1399.0813	1414.7026	1423.5512	1481.1683	1493.7061	1501.0338	1507.4051	1534.73	1829.756	2898.1096	3041.4307	3045.2284	3057.1262	3081.2881	3109.434	3118.8755	3122.1979	3127.0091	3165.5989
CC(C=O)C1(C)CO1	C[C@@H](C=O)[C@@]1(C)CO1	
InChI=1S/C6H10O2/c1-5(3-7)6(2)4-8-6/h3,5H,4H2,1-2H3	InChI=1S/C6H10O2/c1-5(3-7)6(2)4-8-6/h3,5H,4H2,1-2H3/t5-,6+/m0/s1
