16
gdb 13948	5.07147	1.41364	1.27004	1.304	69.5	-0.2354	0.0475	0.2828	969.5357	0.129171	-346.524383	-346.516864	-346.51592	-346.556349	28.482	
C	-0.6554200002	-0.25405846	 1.2091491259	-0.445022
C	-0.1165980788	 0.2491719505	 0.2602470496	 0.298291
C	 0.5429966649	 0.8743315734	-0.8787612264	-0.464071
C	 1.6669872536	 1.7978249345	-0.4841659042	 0.477822
C	 2.6353967329	 1.6465679921	 0.6434387304	-0.32969
C	 1.8249029836	 2.9260878245	 0.5090474723	-0.170853
C	 2.3539565107	 3.718869786	-0.6787108165	-0.088703
O	 2.2561740519	 2.5561046888	-1.5496835964	-0.326592
H	-1.1390856951	-0.7060423396	 2.0393771165	 0.199234
H	 0.9459155211	 0.1012054704	-1.5480711696	 0.145002
H	-0.186156693	 1.4417765822	-1.470905885	 0.141585
H	 2.311305756	 0.9979373262	 1.4503039819	 0.129801
H	 3.7023833689	 1.6432069597	 0.4358211638	 0.111411
H	 1.1584085922	 3.2873914523	 1.2799218436	 0.106648
H	 1.6780093408	 4.5102676223	-1.0213359828	 0.109557
H	 3.3782147706	 4.1059153565	-0.6193342129	 0.10558
62.0183	128.0849	229.0058	306.9092	344.9243	393.1997	414.1787	501.4739	622.9886	647.424	678.8818	748.2518	816.7059	874.5201	942.257	968.7802	973.0294	982.5992	993.1521	1021.4188	1032.8513	1074.7755	1130.5647	1142.3785	1172.6131	1228.2612	1271.489	1321.6334	1360.8593	1394.965	1469.8553	1486.4985	1518.9944	2242.3724	3012.4421	3023.6519	3046.9524	3072.7946	3114.9341	3207.5603	3217.3396	3506.0545
C#CCC12CC1CO2	C#CC[C@]12C[C@H]1CO2	
InChI=1S/C7H8O/c1-2-3-7-4-6(7)5-8-7/h1,6H,3-5H2	InChI=1S/C7H8O/c1-2-3-7-4-6(7)5-8-7/h1,6H,3-5H2/t6-,7-/m0/s1
