17
gdb 76020	2.72569	1.19405	1.07977	2.7927	81.63	-0.2523	-0.0056	0.2467	1189.1567	0.13264	-380.817912	-380.808157	-380.807213	-380.852173	35.295	
C	-0.2600302442	 1.4708375049	-0.0237220375	-0.329692
N	 0.0364936042	 0.0441701035	 0.0571311244	-0.110391
C	 1.3633114609	-0.4504976296	-0.3039361132	-0.214313
C	 2.4276160152	 0.4573798611	-0.6548874019	 0.304834
N	 3.2703620562	 1.1913473157	-0.9553134411	-0.341275
C	 0.8707160096	-0.4879625006	 1.1394510223	 0.060558
C	 1.5090988755	 0.4095688703	 2.1886039986	-0.468593
C	 0.438363435	-1.7706008771	 1.647442283	 0.291537
C	 0.1054045569	-2.8340754814	 2.0970812623	-0.386074
H	 0.5864354293	 2.1359078447	 0.1865171089	 0.131174
H	-0.6170988859	 1.6840537649	-1.0351035215	 0.143002
H	-1.0689978727	 1.6921617593	 0.6774855656	 0.138228
H	 1.3670573747	-1.3740898133	-0.8762645201	 0.144628
H	 1.9455945026	 1.310793009	 1.756997698	 0.147413
H	 0.7633220508	 0.6974406163	 2.9353424567	 0.139317
H	 2.3030964505	-0.1386051312	 2.7020077703	 0.147667
H	-0.2001745286	-3.7739519065	 2.4863710254	 0.201981
109.0843	126.6781	147.2659	161.2873	171.4735	179.0797	268.3606	329.1602	370.4459	427.9597	472.5756	533.5423	571.4503	623.906	633.9147	655.9973	694.2011	743.6797	869.5019	943.8301	1025.3704	1042.5597	1091.745	1138.981	1151.5196	1168.3651	1248.6887	1323.3301	1370.2088	1411.0383	1452.3395	1480.146	1484.1786	1496.1975	1505.1639	2240.8466	2344.8213	3022.0872	3054.4992	3095.4297	3120.9325	3122.8946	3147.6335	3149.2909	3500.4276
CN1C(C#N)C1(C)C#C	CN1[C@@H](C#N)[C@]1(C)C#C	
InChI=1S/C7H8N2/c1-4-7(2)6(5-8)9(7)3/h1,6H,2-3H3	InChI=1S/C7H8N2/c1-4-7(2)6(5-8)9(7)3/h1,6H,2-3H3/t6-,7-,9?/m0/s1
