21
gdb 114838	3.15177	1.32994	1.25092	2.5041	77.84	-0.234	0.0794	0.3134	1124.3389	0.184691	-424.224323	-424.216375	-424.215431	-424.256908	31.139	
C	-0.045451443	 1.3983128857	-0.0810899184	-0.236489
O	-0.0209762768	 0.0229771764	 0.2173057153	-0.239483
C	-1.272919772	-0.6051635123	 0.0907431354	 0.160644
C	-1.7243052304	-0.8931971028	-1.3853833378	-0.260042
C	-1.8604478515	-2.4335899363	-1.3995444706	-0.04171
C	-0.4512519823	-3.0269849365	-1.2370572777	-0.068263
O	-0.0982829368	-2.7258973046	 0.1252636026	-0.265943
C	-1.2131854547	-2.0292836916	 0.6848113071	 0.066656
C	-2.4207176884	-2.7022652174	 0.017101527	-0.238361
H	 0.9645659441	 1.7830596128	 0.080501576	 0.127567
H	-0.3330096372	 1.5960804465	-1.1251641439	 0.103029
H	-0.7428886649	 1.9453979529	 0.5739651237	 0.100703
H	-2.0377881111	-0.0151518372	 0.622202664	 0.058787
H	-2.6758432104	-0.4081193513	-1.6218776847	 0.093482
H	-0.975047767	-0.5350907235	-2.0973188702	 0.106388
H	-2.4200054227	-2.8418782008	-2.2421822491	 0.065328
H	-0.4337003527	-4.1151860159	-1.3848911286	 0.092589
H	 0.2797476017	-2.5719041599	-1.9166505925	 0.099122
H	-1.1290825766	-2.0674490041	 1.7709969062	 0.07437
H	-3.3735259133	-2.2014352646	 0.2095015777	 0.096971
H	-2.5015073641	-3.7611050057	 0.2740745186	 0.104656
94.2737	114.3633	189.2965	221.1525	332.6195	370.3064	435.6478	467.1054	489.8151	614.3612	783.2845	799.397	824.8475	857.2687	893.0028	937.6052	945.7226	959.0325	962.5006	976.6744	1006.6713	1033.7657	1089.4452	1102.8359	1134.8205	1146.7489	1180.112	1183.343	1190.5838	1229.9621	1239.6288	1249.4619	1272.4203	1305.7177	1322.0831	1333.223	1343.7394	1387.0028	1395.9749	1479.0601	1481.8782	1487.7096	1493.5423	1509.7561	1531.3668	2958.2759	2969.7559	3006.3748	3013.9373	3047.7306	3051.5798	3063.1584	3099.2682	3107.0236	3111.9016	3118.8335	3123.0939
COC1CC2COC1C2	CO[C@H]1C[C@H]2CO[C@@H]1C2	
InChI=1S/C7H12O2/c1-8-6-2-5-3-7(6)9-4-5/h5-7H,2-4H2,1H3	InChI=1S/C7H12O2/c1-8-6-2-5-3-7(6)9-4-5/h5-7H,2-4H2,1H3/t5-,6+,7-/m1/s1
