16
gdb 126034	3.06967	1.77057	1.22896	4.3266	68.85	-0.2344	0.0229	0.2573	987.2079	0.127602	-434.090019	-434.082742	-434.081798	-434.122901	26.687	
C	 0.1555862453	 1.5752900114	 0.0579667022	-0.40062
C	-0.0220535597	 0.0582048745	 0.0587700107	-0.008359
C	 0.6858709607	-0.6863585285	-1.1312656869	-0.116601
O	 1.8261228327	-1.4160441665	-0.5916798567	-0.274047
C	 1.7071348067	-1.3480815524	 0.741716253	 0.501448
N	 2.3960886856	-1.8330905697	 1.743603717	-0.390708
C	 1.7014445062	-1.292339427	 2.8030755523	 0.031728
N	 0.6603727252	-0.5258810381	 2.5077892568	-0.284138
N	 0.6777038251	-0.5960543129	 1.1449831337	 0.007485
H	 1.2149623557	 1.8427283196	-0.0029851812	 0.136176
H	-0.3673173987	 2.0168249024	-0.7960263596	 0.126367
H	-0.2563448119	 2.0036121009	 0.9751000993	 0.152833
H	-1.0872610905	-0.1928385178	 0.0808426086	 0.115192
H	 0.0205005786	-1.4116926656	-1.6063131224	 0.137595
H	 1.0632350781	 0.0080231813	-1.8843720208	 0.137712
H	 1.9820041407	-1.4824863717	 3.828447184	 0.127937
29.4085	120.5812	231.3922	279.1924	321.4706	410.9135	500.1729	660.1341	665.4203	726.5643	749.2906	766.0973	885.4404	896.7232	936.6282	977.5246	980.3647	1051.1181	1102.9818	1152.3686	1155.2916	1203.5788	1240.3585	1277.4926	1278.3995	1328.5725	1369.9631	1392.4057	1411.2048	1445.484	1487.8871	1497.1216	1509.5291	1554.5495	1619.3574	3041.9118	3052.4121	3069.8728	3117.4638	3124.1774	3130.7435	3259.0258
CC1COC2=NC=NN12	C[C@H]1COc2ncnn12	
InChI=1S/C5H7N3O/c1-4-2-9-5-6-3-7-8(4)5/h3-4H,2H2,1H3	InChI=1S/C5H7N3O/c1-4-2-9-5-6-3-7-8(4)5/h3-4H,2H2,1H3/t4-/m0/s1
