16
gdb 33737	3.30583	1.52741	1.30015	4.3932	72.16	-0.2773	0.0173	0.2947	973.1354	0.126434	-400.71491	-400.70832	-400.707376	-400.745802	26.901	
N	-0.0064929196	-1.1412348151	-0.0509088993	-0.341321
C	 0.0141205146	 0.0148666547	-0.0325353172	 0.149489
C	 0.0361378611	 1.4580335893	 0.0022471455	 0.183977
C	-0.2767850187	 2.2758982297	 1.3159037486	-0.25189
C	 0.453722763	 3.4079726484	 0.513995693	-0.102268
C	 1.3608528481	 2.282129778	-0.0517148933	-0.251361
C	-0.5725383901	 3.6136034545	-0.6227721571	 0.039488
O	-0.1886428087	 3.0910475497	-1.9069228734	-0.243988
C	-0.8754714665	 2.2338219451	-0.9957200116	 0.001225
H	-1.3307824886	 2.4195201372	 1.5672416172	 0.112916
H	 0.2819782255	 1.9154545166	 2.1819248202	 0.122824
H	 0.8647765597	 4.2885291915	 1.0029061983	 0.084257
H	 2.0781299357	 1.9239422183	 0.6865845249	 0.118822
H	 1.8209967497	 2.4229289392	-1.0264792008	 0.139005
H	-1.2830050562	 4.4323771977	-0.6271732222	 0.114883
H	-1.833569309	 1.8361032151	-1.3096294526	 0.123944
146.3555	163.8568	383.0058	394.8632	500.6253	513.0805	529.1985	550.4331	613.8252	687.6444	797.3715	820.8768	854.636	884.1522	904.7924	928.3376	960.3933	970.232	1005.027	1022.0548	1058.281	1083.8546	1099.124	1165.505	1176.9728	1214.5903	1227.1257	1239.6402	1257.9632	1286.5304	1312.0819	1399.6808	1477.4852	1512.786	2353.6357	3065.5254	3104.4226	3133.6101	3142.4946	3180.8402	3181.6039	3193.6779
N#CC12CC(C1)C1OC21	N#C[C@@]12C[C@@H](C1)[C@H]1O[C@@H]21	
InChI=1S/C7H7NO/c8-3-7-1-4(2-7)5-6(7)9-5/h4-6H,1-2H2	InChI=1S/C7H7NO/c8-3-7-1-4(2-7)5-6(7)9-5/h4-6H,1-2H2/t4-,5-,6-,7+/m1/s1
