23
gdb 101814	4.08728	0.58836	0.53455	2.2855	78.95	-0.2548	0.0606	0.3154	2074.4338	0.203008	-462.560677	-462.549386	-462.548442	-462.59789	40.911	
C	-0.0390052671	 1.577987729	 0.0419643507	-0.403494
C	-0.0189555213	 0.0500827728	 0.0041165068	 0.132362
O	 0.7769860509	-0.4815576193	 1.0638994624	-0.428728
C	-1.4291773771	-0.5525936637	 0.0039197975	-0.187879
C	-1.4298162167	-2.0816758685	-0.0827100722	-0.207693
C	-2.8272610819	-2.6948764925	-0.0604629753	 0.089827
O	-3.6457809972	-2.2290542793	-1.1453331123	-0.440604
C	-2.8166881143	-4.2253509907	-0.0791874894	-0.061374
O	-4.1295231958	-4.7404409623	-0.1202081172	-0.425703
H	 0.9809895769	 1.971269612	 0.0588691595	 0.12441
H	-0.5579937757	 1.990617712	-0.8290977866	 0.117259
H	-0.5598696853	 1.9373294167	 0.9386836926	 0.106903
H	 0.5017920233	-0.2754026607	-0.906169315	 0.085445
H	 0.4128125187	-0.1516420488	 1.8933385119	 0.27572
H	-1.9481942729	-0.2365960672	 0.9214650275	 0.085123
H	-2.0058264429	-0.134080253	-0.8287267646	 0.103421
H	-0.9156659298	-2.3996609113	-1.0029590682	 0.085113
H	-0.8406016825	-2.4895864435	 0.7459745783	 0.115902
H	-3.3669584577	-2.3673859328	 0.8367805073	 0.093983
H	-3.1597387016	-2.391131672	-1.9633324917	 0.280504
H	-2.2203781628	-4.5689799105	-0.9456794749	 0.069377
H	-2.333375669	-4.616042952	 0.8230919459	 0.106782
H	-4.6101661683	-4.1554303946	-0.7209101329	 0.283345
44.3318	60.2082	95.882	140.5282	164.5478	225.5972	238.5844	256.0317	294.1999	321.1642	353.7783	419.3431	454.7333	464.3825	503.8786	521.1519	591.2945	770.8733	845.2241	864.9049	924.4816	937.5139	996.478	1029.5567	1064.5719	1076.9795	1095.7879	1103.048	1119.1342	1144.2402	1178.6196	1211.0039	1253.295	1279.3116	1311.2019	1324.0653	1344.5323	1373.5936	1385.7131	1397.6662	1405.9445	1419.5719	1421.5301	1445.9586	1474.6412	1489.4083	1494.6939	1497.0541	1508.7552	2925.9585	2992.3289	3001.2444	3021.8858	3030.1689	3043.9729	3060.986	3067.6719	3082.2402	3094.6867	3118.9313	3759.1578	3779.5309	3792.271
CC(O)CCC(O)CO	C[C@@H](O)CC[C@@H](O)CO	
InChI=1S/C6H14O3/c1-5(8)2-3-6(9)4-7/h5-9H,2-4H2,1H3	InChI=1S/C6H14O3/c1-5(8)2-3-6(9)4-7/h5-9H,2-4H2,1H3/t5-,6-/m1/s1
