20
gdb 115107	2.06325	1.72095	1.1442	2.5761	76.	-0.2379	0.0287	0.2667	1148.0808	0.170975	-440.290688	-440.2816	-440.280656	-440.324699	33.3	
C	-0.0077707685	 1.4139016406	-0.1222180601	-0.235966
O	-0.0278136114	 0.0300373724	 0.1422515429	-0.244826
C	-1.3043706331	-0.5773123618	 0.0466703802	 0.073465
C	-1.7285502878	-0.8287002204	-1.4072804412	-0.178484
N	-0.9895797135	-1.9074552265	-2.0548545805	-0.271392
C	-0.3822114494	-2.7339425403	-1.3167485523	 0.142578
O	-0.3432808088	-2.8179363273	 0.032805094	-0.239285
C	-1.2176267994	-1.9300703654	 0.7594164004	 0.135166
C	-0.6975099212	-1.8606682255	 2.1840577037	-0.410145
H	 1.0100881215	 1.7605990296	 0.0715630297	 0.131652
H	-0.262206513	 1.651357492	-1.164787996	 0.114061
H	-0.701093	 1.9610528509	 0.5359998677	 0.10344
H	-2.0565082164	 0.0443642673	 0.5606815932	 0.066187
H	-2.80322507	-1.0525660626	-1.4438093687	 0.109078
H	-1.5938391393	 0.0798770598	-2.0038894937	 0.111641
H	 0.2243306355	-3.5263211796	-1.7521122249	 0.121505
H	-2.2222783204	-2.3753339296	 0.7461501569	 0.086247
H	 0.2841090505	-1.3847205362	 2.2020416176	 0.146302
H	-1.383863514	-1.2772793436	 2.8057228038	 0.113416
H	-0.6175933213	-2.8661676338	 2.6048710872	 0.125362
71.2694	117.8938	131.5667	193.591	231.245	236.9263	303.5797	341.5019	408.4518	450.5562	501.2347	605.5186	686.9849	792.0789	847.1677	888.705	909.5613	961.0644	974.938	1002.2103	1046.3946	1077.5421	1127.5263	1154.1521	1166.7873	1181.9427	1185.559	1217.8436	1261.2396	1301.3841	1355.6599	1373.4552	1385.8378	1392.9671	1407.3152	1413.885	1474.222	1479.3106	1485.3013	1498.3509	1499.5271	1510.1313	1738.5634	2961.7692	2978.274	3007.3561	3022.627	3032.1494	3051.1933	3062.4431	3115.8356	3120.68	3149.6072	3156.5309
COC1CN=COC1C	CO[C@H]1CN=CO[C@H]1C	
InChI=1S/C6H11NO2/c1-5-6(8-2)3-7-4-9-5/h4-6H,3H2,1-2H3	InChI=1S/C6H11NO2/c1-5-6(8-2)3-7-4-9-5/h4-6H,3H2,1-2H3/t5-,6-/m0/s1
