19
gdb 62636	2.75322	1.866	1.6397	1.8461	72.22	-0.2344	0.0881	0.3225	915.1131	0.161103	-423.027285	-423.020138	-423.019194	-423.05824	30.227	
C	-0.1298490224	 1.6047547799	-0.0233936276	-0.442845
C	 0.014888573	 0.0913179872	 0.0013252424	 0.450653
O	-1.296714426	-0.4435012262	-0.0307100839	-0.499996
C	 0.9159013672	-0.5151072187	-1.0851129593	-0.163646
C	 2.327798728	-0.6284252143	-0.5046976031	-0.115159
C	 2.2807373052	-0.0793602247	 0.9186153495	-0.239735
C	 0.8291367487	-0.5085824965	 1.1885594144	-0.017839
O	 0.8357543363	-1.9106928978	 0.8390585242	-0.281393
C	 1.3878862465	-1.8078436663	-0.4713575798	 0.067161
H	 0.8340974423	 2.1097651012	-0.1114421151	 0.117978
H	-0.7456155608	 1.8937239976	-0.8798226796	 0.129682
H	-0.6347886886	 1.954921136	 0.882320395	 0.121589
H	-1.2023318274	-1.3838293208	 0.1706540099	 0.283928
H	 0.7101662292	-0.3968457034	-2.1403055807	 0.091452
H	 3.2166308622	-0.6122713723	-1.1209162984	 0.091761
H	 2.9864929783	-0.5814859708	 1.5865631614	 0.108696
H	 2.4273801061	 1.0002648923	 0.9890637675	 0.107906
H	 0.4123029082	-0.3785984886	 2.1849621704	 0.083988
H	 1.5260487639	-2.7518847539	-0.9779756071	 0.105818
179.1914	220.9684	250.8763	363.9842	379.5226	443.2713	489.5885	549.8448	569.8161	626.1537	722.4546	740.0818	804.7076	818.9351	858.1868	901.8474	929.0252	944.5299	962.168	965.3616	986.0777	1009.9418	1039.6247	1055.2613	1067.7687	1080.3666	1109.5021	1146.9717	1194.7172	1198.8992	1224.1365	1246.6152	1281.4036	1306.0372	1331.1066	1373.6304	1398.5255	1428.5735	1480.2353	1490.8915	1503.5452	3046.4862	3065.5639	3112.4588	3116.5514	3135.3026	3152.8137	3204.1189	3211.0774	3229.8245	3767.3994
CC1(O)C2C3CC1OC23	C[C@@]1(O)[C@H]2[C@H]3C[C@@H]1O[C@@H]23	
InChI=1S/C7H10O2/c1-7(8)4-2-3-5(7)6(3)9-4/h3-6,8H,2H2,1H3	InChI=1S/C7H10O2/c1-7(8)4-2-3-5(7)6(3)9-4/h3-6,8H,2H2,1H3/t3-,4+,5+,6-,7+/m1/s1
