18
gdb 126769	2.55296	1.34427	0.94062	2.2912	76.23	-0.1903	0.0543	0.2445	1257.0322	0.148359	-435.289764	-435.280441	-435.279497	-435.32434	34.257	
C	-0.0502516493	 1.5362283557	 0.2419564465	-0.372953
C	-0.0840938822	 0.0367687259	-0.0600710057	-0.142789
N	-1.4310753646	-0.4954797009	-0.0997337751	-0.023061
N	-2.1414502489	-0.6647924618	 1.0644844573	-0.363227
C	-3.3292820896	-1.1041325597	 0.6698520094	 0.405684
N	-4.349959734	-1.3245738269	 1.5965696099	-0.589352
C	-3.4173711628	-1.2375656506	-0.7394039185	-0.471631
C	-2.1714177078	-0.8293633072	-1.1748770292	 0.473963
O	-1.6222290928	-0.7175795336	-2.4069610229	-0.438917
H	 0.9848544197	 1.8851418314	 0.3118752445	 0.112794
H	-0.553808746	 2.1045626441	-0.5456764637	 0.123643
H	-0.5529056613	 1.7399358035	 1.1905788067	 0.144163
H	 0.376457733	-0.1786685409	-1.0272459841	 0.130148
H	 0.4656592909	-0.5175300533	 0.7071757184	 0.122801
H	-3.9818281167	-1.3629560844	 2.5390706594	 0.246851
H	-4.8940078348	-2.1539384463	 1.3989980691	 0.241376
H	-4.2546133285	-1.5583715556	-1.3375310356	 0.089411
H	-2.2661125441	-1.0169996695	-3.0556557966	 0.311097
37.4551	93.6899	200.6497	214.9436	247.0049	263.7885	300.1322	308.9785	342.7647	439.8365	537.4984	613.1371	650.5145	656.6343	673.8537	701.5262	780.813	789.9418	838.8567	974.7498	1011.1873	1071.535	1100.3152	1135.2343	1152.2613	1204.0129	1246.7652	1300.2448	1352.2907	1395.499	1408.2204	1470.2778	1482.6386	1487.8702	1506.4824	1534.0816	1599.0561	1613.3567	1649.8556	3042.7393	3056.3669	3107.5404	3115.7016	3135.2469	3257.6185	3537.2966	3632.7639	3848.9311
CCN1N=C(N)C=C1O	CCn1nc(N)cc1O	
InChI=1S/C5H9N3O/c1-2-8-5(9)3-4(6)7-8/h3,9H,2H2,1H3,(H2,6,7)	InChI=1S/C5H9N3O/c1-2-8-5(9)3-4(6)7-8/h3,9H,2H2,1H3,(H2,6,7)
