17
gdb 26925	2.34021	1.63895	0.97108	4.9519	81.25	-0.1829	-0.0221	0.1608	1172.0621	0.13671	-418.067946	-418.059093	-418.058148	-418.101459	32.975	
C	-0.0433813262	 1.4990646649	 0.0500352174	-0.502584
C	-0.0209856833	 0.0077836048	-0.036324124	 0.243565
C	-0.0017551177	-0.852345438	-1.1416750105	 0.072001
C	 0.1068009046	-0.4791801395	-2.5264209936	 0.061823
O	 0.1710266661	-1.2646801196	-3.4632171479	-0.330512
C	-0.0394072282	-2.2075543515	-0.6410782629	 0.18763
N	-0.0970193959	-3.3288941887	-1.4530727967	-0.611811
C	-0.0709006053	-2.1259253856	 0.7302757514	-0.177186
N	-0.0569744769	-0.773043552	 1.0653289648	-0.299234
H	 0.4854666836	 1.950107099	-0.7926397759	 0.148799
H	-1.0663104757	 1.8959000433	 0.0441560458	 0.144476
H	 0.4404799249	 1.8474908553	 0.9686787311	 0.125737
H	 0.1451195112	 0.6149573419	-2.7243237703	 0.057217
H	 0.1616500192	-3.1193979098	-2.4097209378	 0.267682
H	 0.3443166629	-4.1576114963	-1.0839738193	 0.238232
H	-0.0996481315	-2.8866734165	 1.4919299574	 0.113471
H	-0.0820274017	-0.4226966416	 2.0078623009	 0.260691
63.5515	138.7226	185.0965	209.1412	276.4766	279.2384	329.566	388.134	417.5935	512.764	519.2118	602.5442	616.0869	643.5801	664.2313	734.1756	763.4558	801.69	979.3654	1024.4867	1052.9428	1072.5576	1097.8432	1131.1017	1277.2286	1300.5107	1346.2196	1417.4671	1421.4343	1460.473	1476.7208	1487.4646	1527.822	1551.1828	1622.0064	1649.009	1743.9461	2876.456	3023.8087	3079.6146	3121.6092	3272.3999	3528.8677	3651.4712	3669.2691
CC1=C(C=O)C(N)=CN1	Cc1c(C=O)c(N)c[nH]1	
InChI=1S/C6H8N2O/c1-4-5(3-9)6(7)2-8-4/h2-3,8H,7H2,1H3	InChI=1S/C6H8N2O/c1-4-5(3-9)6(7)2-8-4/h2-3,8H,7H2,1H3
