21
gdb 19150	3.66041	1.52469	1.26892	0.9144	78.47	-0.2182	0.0887	0.3069	1056.8758	0.188123	-329.079731	-329.071159	-329.070215	-329.112824	32.857	
C	 0.1560034976	 1.3534997624	 0.8586822757	-0.404789
C	-0.1648630169	-0.1065950742	 0.5324414955	-0.215944
C	-1.595408209	-0.4346446141	 0.1180314598	 0.355044
C	-2.764114567	 0.3433580884	 0.6880282145	-0.321877
C	-2.3784993764	 0.4844953295	-0.771867974	-0.300363
N	-1.6807183747	-1.859270734	-0.1567044739	-0.107307
C	-2.0438904978	-2.7550340558	 0.9371658209	-0.222277
C	-2.9597544814	-2.5468437842	-0.2189142652	-0.237165
H	 1.2172790446	 1.4544228188	 1.1054591284	 0.115854
H	-0.0441527188	 2.0198044632	 0.0135420804	 0.118694
H	-0.4123857351	 1.7194843448	 1.7192653157	 0.117804
H	 0.4909379917	-0.4562523583	-0.2738436122	 0.109047
H	 0.0779171997	-0.7275795738	 1.4051358983	 0.097086
H	-3.6877612717	-0.1745965329	 0.9219508661	 0.108508
H	-2.557273935	 1.173638919	 1.3534281401	 0.110403
H	-1.9289680747	 1.4141155573	-1.1022871705	 0.111966
H	-3.0290370318	 0.0215425311	-1.5066002791	 0.113703
H	-1.4566729632	-3.6647340335	 1.0266179873	 0.11367
H	-2.3436402203	-2.3041643006	 1.8818785935	 0.110746
H	-3.8780745259	-1.9951569366	-0.031069297	 0.112044
H	-3.0426684339	-3.2963894665	-1.0015219442	 0.115153
61.9616	86.6298	202.1549	238.6383	268.0904	290.4949	344.7711	410.1771	461.7287	517.4223	622.4171	761.2503	775.5217	798.4003	832.3232	887.5097	906.1965	930.5591	941.7322	980.7558	1031.3796	1038.1443	1050.6548	1076.5293	1084.4702	1112.0406	1119.5052	1144.0162	1170.4999	1180.2232	1186.7102	1217.252	1302.5215	1322.6239	1349.9002	1384.364	1415.1267	1458.6723	1483.2525	1489.237	1501.6695	1507.8013	1513.1955	1523.5621	3018.7868	3040.1429	3055.0206	3094.9751	3103.9607	3104.499	3108.6444	3133.8968	3138.1879	3175.1822	3189.2924	3209.438	3222.5502
CCC1(CC1)N1CC1	CCC1(CC1)N1CC1	
InChI=1S/C7H13N/c1-2-7(3-4-7)8-5-6-8/h2-6H2,1H3	InChI=1S/C7H13N/c1-2-7(3-4-7)8-5-6-8/h2-6H2,1H3
