17
gdb 72842	2.62836	1.53454	1.32555	4.5572	67.57	-0.236	-0.0344	0.2016	1013.2269	0.135583	-458.963496	-458.955518	-458.954574	-458.996114	30.309	
O	 0.1223439901	 1.3976076944	-0.3408905774	-0.47711
C	 0.0411286628	 0.0401034851	 0.0010891813	 0.342772
C	 0.2398740522	-0.9849195652	-1.1418685886	-0.119545
O	-1.0673049716	-1.5564321918	-0.9002120382	-0.295885
C	-1.3940580955	-0.5335022752	 0.0756196546	-0.01462
C	-1.5322034633	-1.1905849439	 1.4539186504	 0.411868
O	-2.5590109807	-1.4231212818	 2.0330720038	-0.304719
C	-0.1095853879	-1.4614367725	 1.9547276983	-0.332531
C	 0.7242556698	-0.3194571735	 1.3406046591	-0.305021
H	 1.0367388629	 1.685824835	-0.2446317361	 0.283658
H	 0.301996486	-0.5178131267	-2.1316549806	 0.111015
H	 1.0418119665	-1.7243744048	-1.0255631552	 0.10008
H	-2.2369372773	 0.0952169959	-0.2194979794	 0.101559
H	-0.0760519398	-1.5110147479	 3.043976471	 0.131634
H	 0.2049366456	-2.4376460153	 1.566097686	 0.143214
H	 1.7805934648	-0.576279831	 1.2117100431	 0.104517
H	 0.6679714954	 0.5651508991	 1.9846682079	 0.119114
78.7224	138.9004	204.9336	232.0026	297.1592	364.6409	386.9146	465.0853	526.0239	557.7801	639.2352	670.9279	776.7465	829.4177	866.4923	924.7101	968.0848	986.0468	992.6596	1015.3188	1060.9268	1102.1555	1131.2531	1157.693	1191.8305	1211.7785	1221.9982	1260.2609	1280.7589	1300.7206	1326.1188	1333.2368	1403.7511	1459.4104	1492.8514	1512.0214	1856.168	3016.1826	3040.2344	3046.5495	3071.0708	3087.7857	3098.184	3127.6367	3801.7326
OC12COC1C(=O)CC2	O[C@]12CO[C@H]1C(=O)CC2	
InChI=1S/C6H8O3/c7-4-1-2-6(8)3-9-5(4)6/h5,8H,1-3H2	InChI=1S/C6H8O3/c7-4-1-2-6(8)3-9-5(4)6/h5,8H,1-3H2/t5-,6+/m0/s1
