19
gdb 113683	2.8574	1.15918	0.89845	4.9979	74.45	-0.2453	0.0329	0.2782	1322.331	0.159298	-456.352451	-456.342883	-456.341939	-456.387411	34.253	
C	-0.3391267418	 1.228222198	 0.2169755106	-0.326968
N	-0.2788431986	-0.1865338386	-0.0956376504	-0.320633
C	-1.3845253272	-0.982672077	-0.0510981191	 0.451261
O	-2.472332162	-0.5998317966	 0.3636658716	-0.412234
N	-1.1757560483	-2.2565161392	-0.5922890215	-0.135837
C	-0.2243298121	-3.2323187585	-0.0752825121	-0.278929
C	-1.7014730615	-3.4759373391	 0.0024327309	-0.01312
C	-2.4224970133	-3.4342555073	 1.3365408493	-0.071781
O	-3.7369514592	-2.9534713326	 1.2123141932	-0.424808
H	 0.5352580927	 1.5262599662	 0.8032483773	 0.126174
H	-0.3865490897	 1.8496985083	-0.6859290051	 0.128704
H	-1.2419020293	 1.4004862729	 0.803073416	 0.171855
H	 0.5175333631	-0.5353011959	-0.6034511075	 0.253151
H	 0.3841533524	-3.7446659083	-0.8157842175	 0.125096
H	 0.2874470589	-2.9909325685	 0.8544761185	 0.127737
H	-2.1503112621	-4.1455905857	-0.7287357492	 0.108825
H	-2.4851058947	-4.4547537539	 1.7328562028	 0.106512
H	-1.8279157713	-2.8417132074	 2.0520185193	 0.082912
H	-3.6392395961	-2.0369655768	 0.9008299228	 0.302082
65.48	83.9461	125.9719	156.906	191.0945	202.2389	279.8987	321.0107	390.0323	477.2852	495.0789	542.5314	605.7468	677.9053	776.7133	823.7985	838.1892	911.6201	988.5573	1016.9819	1072.9225	1096.742	1115.5426	1131.4109	1143.0924	1154.733	1171.4634	1176.3206	1242.313	1258.639	1352.6837	1373.9331	1432.4492	1444.3091	1482.2938	1492.5421	1493.5965	1502.0562	1511.5126	1563.9873	1745.1102	2964.4778	3024.4816	3056.7864	3086.3531	3098.9412	3132.2867	3159.1507	3187.2557	3639.9161	3645.5526
CNC(=O)N1CC1CO	CNC(=O)N1C[C@H]1CO	
InChI=1S/C5H10N2O2/c1-6-5(9)7-2-4(7)3-8/h4,8H,2-3H2,1H3,(H,6,9)	InChI=1S/C5H10N2O2/c1-6-5(9)7-2-4(7)3-8/h4,8H,2-3H2,1H3,(H,6,9)/t4-,7?/m0/s1
