21
gdb 77504	1.86903	1.76025	1.28351	1.6315	79.52	-0.2305	0.0694	0.2999	1138.5819	0.179033	-424.180468	-424.170508	-424.169564	-424.214299	37.734	
C	-0.1081106898	 1.567126004	-0.0101439378	-0.438613
C	-0.0686291872	 0.0505216872	-0.0228416062	-0.048366
C	 1.169272431	-0.6654017014	-0.6389377463	 0.349926
C	 1.7705910912	-0.5466574628	-2.003868708	-0.52664
O	 1.9801642967	-0.2301443581	 0.5266601964	-0.376957
C	 0.6939428678	-0.6924538079	 1.1176355718	 0.373465
C	 0.5202746964	-0.6134926743	 2.6010216832	-0.525088
C	 0.8248570586	-1.9338101384	 0.2076961409	 0.042932
O	-0.3407763595	-2.6797343178	-0.0237477866	-0.435626
H	 0.8666669846	 1.9776449141	 0.2633975176	 0.131835
H	-0.3865587475	 1.9598857122	-0.9944665753	 0.11089
H	-0.8528481727	 1.9332259134	 0.7052328387	 0.112413
H	-1.0277167613	-0.4005150416	-0.2888379867	 0.082344
H	 1.9540418727	 0.5010209941	-2.2623723619	 0.134485
H	 2.7224313177	-1.0849482921	-2.05472764	 0.12992
H	 1.091900999	-0.9690544397	-2.7524905372	 0.122786
H	 0.5279652965	 0.426407263	 2.9416184686	 0.130784
H	-0.4346495823	-1.0652597718	 2.8875099553	 0.134331
H	 1.3251464377	-1.1514490072	 3.1114038275	 0.130692
H	 1.7016157701	-2.5511152683	 0.4368282255	 0.075618
H	-0.1388420396	-3.3661966367	-0.6666997491	 0.288868
173.192	176.2401	183.4048	186.7653	204.3718	211.4041	215.0519	252.7057	260.7735	356.3921	405.5691	502.4075	593.6788	602.5395	659.6592	661.3522	719.091	786.4661	824.2068	880.4564	913.0864	1016.406	1061.3296	1066.5837	1079.4459	1124.3121	1133.126	1159.2063	1172.3627	1191.5705	1208.3473	1250.0747	1298.755	1342.1222	1385.5423	1400.7747	1403.8271	1407.0383	1468.5746	1476.433	1479.1426	1486.8417	1487.8734	1500.107	1505.8089	3031.8743	3034.0902	3038.3723	3044.2327	3085.5637	3086.8403	3105.8641	3108.022	3111.8786	3113.8585	3126.1954	3825.3075
CC1C2(C)OC1(C)C2O	C[C@H]1[C@@]2(C)O[C@]1(C)[C@H]2O	
InChI=1S/C7H12O2/c1-4-6(2)5(8)7(4,3)9-6/h4-5,8H,1-3H3	InChI=1S/C7H12O2/c1-4-6(2)5(8)7(4,3)9-6/h4-5,8H,1-3H3/t4-,5-,6+,7-
