19
gdb 47412	2.71357	1.53841	1.19566	4.1769	74.57	-0.2602	0.0109	0.271	1085.1489	0.161169	-423.067403	-423.059527	-423.058583	-423.100103	30.081	
O	-0.3862394089	 0.0804323603	 0.509992344	-0.357787
C	-0.1782931992	 1.2501414362	 0.3521925117	 0.407725
O	-1.1841815394	 2.1615909831	 0.2480760885	-0.225451
C	-0.6495288504	 3.477314069	 0.0175790499	-0.086954
C	 0.8150011347	 3.4118794909	 0.4737928646	-0.315658
C	 1.1672011434	 1.9462032662	 0.2131113815	 0.1948
C	 2.3695904263	 1.3211354004	 0.9658447941	-0.279102
C	 3.2249780931	 1.4327833469	-0.3235662421	-0.212235
C	 1.9177500055	 1.6393724822	-1.1322993859	-0.266399
H	-0.739989141	 3.7082561119	-1.0504830822	 0.11726
H	-1.2577230606	 4.1878360656	 0.5808800221	 0.125973
H	 1.4498107496	 4.1245611398	-0.0580586856	 0.112482
H	 0.8842302139	 3.6298380533	 1.5453382542	 0.116649
H	 2.7165222743	 1.8534028876	 1.8552934513	 0.098819
H	 2.1472374268	 0.2843389784	 1.2306009986	 0.131388
H	 3.8582761408	 2.3239919987	-0.3265060405	 0.10382
H	 3.8401059429	 0.571325628	-0.5904317148	 0.107557
H	 1.5590678351	 0.709830083	-1.5804615411	 0.126707
H	 1.9016266932	 2.4289280384	-1.8881555981	 0.100407
89.7837	106.2526	197.0864	204.2231	283.2774	346.7299	413.2888	568.3396	642.5535	689.2681	715.8021	727.8064	808.7716	830.4981	871.1929	923.4965	943.7759	947.9462	970.4414	984.0123	1053.9118	1062.9501	1082.0002	1147.8742	1183.1535	1202.1747	1213.3263	1237.5897	1252.977	1262.7586	1277.0986	1287.3437	1305.8045	1337.4933	1399.3643	1469.9977	1480.9156	1492.0339	1503.191	1523.965	1870.3973	3036.3878	3046.3401	3057.6786	3059.3589	3066.7069	3102.2126	3105.8097	3113.2621	3117.6945	3128.7978
O=C1OCCC11CCC1	O=C1OCCC21CCC2	
InChI=1S/C7H10O2/c8-6-7(2-1-3-7)4-5-9-6/h1-5H2	InChI=1S/C7H10O2/c8-6-7(2-1-3-7)4-5-9-6/h1-5H2
