22
gdb 119190	1.91238	1.167	0.83984	4.2251	87.79	-0.2756	0.039	0.3146	1494.3458	0.192927	-367.23151	-367.221085	-367.220141	-367.267252	37.805	
C	-0.1525291582	 1.5854808594	 0.0114526325	-0.384186
C	-0.2147485478	 0.0628459497	-0.1311519002	-0.171328
C	 0.8644240992	-0.484954283	-1.075075991	-0.264521
C	 0.8215265792	-2.0027501153	-1.228685188	 0.161041
C	-0.1418317833	-2.6386446374	-2.2277177497	-0.313668
C	 1.3338980298	-2.7106820132	-2.4876698054	-0.039414
C	 1.9919050023	-1.9647769831	-3.6268873906	-0.418041
C	 1.0285821645	-2.7253195318	 0.0036712639	 0.252892
N	 1.204546801	-3.2952956039	 0.9958103192	-0.360453
H	 0.8154510473	 1.9070252943	 0.4113248561	 0.118784
H	-0.2928659555	 2.0833683452	-0.954757338	 0.112254
H	-0.9295921779	 1.9508032685	 0.6893800831	 0.117757
H	-0.1043906257	-0.4059170936	 0.8536550336	 0.124933
H	-1.2026063114	-0.2360673049	-0.5037747915	 0.099582
H	 0.7460285397	-0.0271622124	-2.0623668636	 0.100186
H	 1.8560538412	-0.1877593577	-0.7111427896	 0.112263
H	-0.6723331157	-3.5362322765	-1.9331045048	 0.13558
H	-0.7267305096	-1.9407275079	-2.8189350265	 0.121876
H	 1.7850450009	-3.6769490696	-2.2810921734	 0.112237
H	 1.4793478682	-1.0290295557	-3.8633335707	 0.123132
H	 3.0371424513	-1.73061294	-3.3999272389	 0.13022
H	 1.9778158303	-2.5816982813	-4.5316476166	 0.128877
68.4729	83.1523	121.3464	144.2478	170.8446	195.9087	242.2526	265.9808	311.1316	364.6856	390.7226	468.3309	571.8677	583.2949	699.5335	745.8616	793.3671	872.776	889.9727	896.7036	923.8571	952.2354	1025.147	1036.3322	1054.5476	1077.0976	1122.0357	1131.0411	1142.3843	1195.4185	1241.43	1289.0797	1295.5852	1323.1738	1337.5418	1391.7511	1408.7648	1414.514	1429.0806	1475.8027	1489.4872	1492.9874	1495.4336	1500.0092	1503.4964	1510.5713	2342.7379	3023.9484	3029.3409	3034.4635	3039.1478	3058.9035	3081.4022	3098.7358	3098.8995	3106.6688	3116.9567	3134.2789	3154.3176	3226.321
CCCC1(CC1C)C#N	CCC[C@]1(C[C@H]1C)C#N	
InChI=1S/C8H13N/c1-3-4-8(6-9)5-7(8)2/h7H,3-5H2,1-2H3	InChI=1S/C8H13N/c1-3-4-8(6-9)5-7(8)2/h7H,3-5H2,1-2H3/t7-,8+/m1/s1
