18
gdb 24623	4.05556	1.38083	1.13167	2.1321	84.51	-0.1957	0.054	0.2497	1092.3012	0.14946	-364.797368	-364.790043	-364.789098	-364.829407	29.205	
C	 0.1242360061	 1.5963681184	 0.2494572602	-0.322902
C	 1.3113774558	 0.725626279	-0.1336825581	-0.322891
C	-0.0367154877	 0.1194780175	 0.0870481173	 0.385828
C	-0.4982696734	-0.9613526306	 1.1132127774	-0.478585
C	-1.2891987225	-1.5235477905	-0.0602785805	 0.336215
C	-2.1307247062	-2.3705130871	-0.7445451658	-0.33876
C	-2.1775022412	-1.8479058136	-2.0774842695	-0.130491
C	-1.3765922581	-0.7173339815	-2.1640554511	-0.165493
N	-0.8530942652	-0.5537925264	-0.9123759407	-0.0077
H	 0.0843793867	 2.0049677562	 1.2536826913	 0.124413
H	-0.2996967596	 2.2386697655	-0.5148744308	 0.126923
H	 1.6770792412	 0.788730573	-1.1528753208	 0.126926
H	 2.0798160494	 0.5413764936	 0.6096641093	 0.124414
H	 0.3064981427	-1.5927069264	 1.5009966383	 0.121845
H	-1.0853306548	-0.5719841068	 1.9501059951	 0.121841
H	-2.6499483941	-3.2408716432	-0.3761781296	 0.093257
H	-2.7462957703	-2.2634349913	-2.8964170721	 0.090452
H	-1.1610935788	-0.0599523857	-2.9900076597	 0.114708
55.6992	170.0724	214.3889	288.4277	433.7387	500.8491	513.3541	599.4886	655.7113	686.3101	708.962	757.8871	765.1309	817.3775	847.3884	848.1883	920.3472	923.3482	974.7433	1013.4332	1036.7436	1042.7857	1052.6973	1073.0503	1100.8541	1129.4275	1186.0132	1195.5598	1212.1278	1251.9351	1267.5944	1366.9085	1411.2379	1449.0276	1455.0569	1471.7298	1492.9327	1507.9251	1584.3975	3051.5727	3096.4413	3131.4383	3134.1607	3212.6379	3226.6182	3237.1099	3259.9219	3272.7017
C1CC11CC2=CC=CN12	C1CC21Cc1cccn21	
InChI=1S/C8H9N/c1-2-7-6-8(3-4-8)9(7)5-1/h1-2,5H,3-4,6H2	InChI=1S/C8H9N/c1-2-7-6-8(3-4-8)9(7)5-1/h1-2,5H,3-4,6H2
