16
gdb 22187	1.85606	1.16638	0.72261	0.6435	85.53	-0.2295	-0.0277	0.2018	1516.9039	0.119622	-400.649036	-400.638528	-400.637584	-400.687157	35.945	
C	-0.1655118357	 1.2167680062	-0.3180282838	-0.505433
C	-0.0147675168	-0.2207241282	-0.1719050225	 0.174865
C	 0.1152597744	-1.4130972462	-0.0469971257	 0.00925
C	 0.2252832477	-2.8231718823	 0.0686418645	 0.178232
C	-0.7623772899	-3.7505453358	-0.6353195735	-0.453435
C	-1.798154487	-3.0919428885	-1.4145126072	 0.303836
C	-2.6670210868	-2.5807263868	-2.0671482128	-0.44732
N	 1.1895218617	-3.2822434359	 0.7895671488	-0.172585
O	 1.1761137675	-4.6793757612	 0.8141600473	-0.390122
H	 0.7081682394	 1.6578069725	-0.8108161587	 0.155507
H	-1.0482627438	 1.4606331339	-0.9186000093	 0.155954
H	-0.2772742443	 1.7037434665	 0.6571214661	 0.155548
H	-0.1819409872	-4.4323184259	-1.2700492458	 0.163421
H	-1.2120911332	-4.3972118656	 0.1290060957	 0.163413
H	-3.432326036	-2.1218744678	-2.6422807878	 0.194532
H	 1.9323965098	-4.8805739648	 1.3756275346	 0.314337
16.5189	30.5766	70.8285	121.0718	154.3798	259.2201	293.1529	310.6147	333.2368	396.4206	433.8592	475.9478	501.6217	561.098	604.2644	615.9204	645.9027	717.0655	936.4091	961.5046	1007.2	1040.5614	1048.0307	1052.3721	1217.8709	1290.5631	1310.2722	1407.8913	1417.2495	1445.9132	1473.4785	1473.708	1658.0605	2248.1956	2358.0269	3027.9348	3028.2466	3051.9814	3088.1461	3094.5108	3507.9343	3820.2862
CC#CC(CC#C)=NO	CC#CC(=NO)CC#C	
InChI=1S/C7H7NO/c1-3-5-7(8-9)6-4-2/h1,9H,5H2,2H3	InChI=1S/C7H7NO/c1-3-5-7(8-9)6-4-2/h1,9H,5H2,2H3
