20
gdb 103257	2.48261	1.36555	1.11767	2.553	80.13	-0.2391	-0.0233	0.2159	1188.0438	0.169344	-403.126845	-403.117748	-403.116804	-403.160756	34.477	
C	 0.4928284194	 0.2375545485	-1.4219318982	-0.38718
C	-0.0432633585	 0.089620542	 0.0093848699	-0.263456
C	-1.4323168886	-0.5359373016	 0.0713426924	 0.329477
C	-2.5125140587	 0.2745990933	-0.6279529416	-0.45176
C	-1.6561841168	-2.0222240318	 0.0200132984	-0.211393
N	-1.9798430084	-1.1863114562	 1.2738591057	-0.172007
C	-0.8643943046	-1.8745022095	 2.0134359745	-0.301131
C	-0.5987676499	-2.7642521892	 0.7838265957	 0.402179
O	 0.0226333053	-3.7691133486	 0.5890354422	-0.30876
H	 1.5087952992	 0.6425216513	-1.4064156393	 0.120462
H	 0.5263858949	-0.7318660165	-1.9294179455	 0.129759
H	-0.1214482671	 0.9128039913	-2.0238687968	 0.123261
H	 0.6774837131	-0.4968572918	 0.582705025	 0.113127
H	-0.0930736002	 1.0762643143	 0.4885842451	 0.105752
H	-2.347199138	 0.3157307598	-1.7080023166	 0.125898
H	-3.4953632725	-0.1626999449	-0.4402283715	 0.13392
H	-2.5189509295	 1.300329384	-0.243604434	 0.124517
H	-2.4151820286	-2.4686211485	-0.6144057744	 0.113844
H	-0.0758792749	-1.2305616762	 2.4076009625	 0.130943
H	-1.2832001059	-2.4706429197	 2.8297664665	 0.142546
51.6725	119.8375	181.8548	214.6031	239.7647	273.9021	311.4159	358.1114	455.5034	462.2049	506.6088	556.3463	620.3017	693.2222	790.9872	812.5508	818.251	899.6624	958.5883	980.8226	1000.4042	1016.9119	1018.9314	1052.2853	1076.7479	1106.5397	1124.6939	1140.5047	1210.4587	1247.3474	1279.0105	1306.6941	1346.777	1390.7907	1411.2522	1417.215	1468.8865	1480.2347	1491.9557	1497.8755	1503.7984	1510.5019	1887.2223	3026.288	3040.3746	3043.4054	3065.3243	3095.6149	3108.3788	3111.8893	3119.3571	3124.5651	3132.7719	3171.9961
CCC1(C)C2N1CC2=O	CC[C@@]1(C)[C@@H]2N1CC2=O	
InChI=1S/C7H11NO/c1-3-7(2)6-5(9)4-8(6)7/h6H,3-4H2,1-2H3	InChI=1S/C7H11NO/c1-3-7(2)6-5(9)4-8(6)7/h6H,3-4H2,1-2H3/t6-,7+,8?/m1/s1
