23
gdb 64432	2.4699	1.43242	1.16149	1.2085	86.99	-0.2415	0.0165	0.258	1195.7135	0.205912	-388.29741	-388.288092	-388.287148	-388.331166	36.361	
C	-0.211146011	 1.587910112	-0.1581427549	-0.399486
C	-0.0598699905	 0.0683104607	 0.0232259733	 0.2268
C	-1.4487092087	-0.5968866829	 0.0027939038	-0.412042
C	 0.7482738425	-0.5183093787	-1.1522759761	-0.083213
O	 1.9504028939	 0.1661735253	-1.4386555902	-0.237449
C	 3.073361919	-0.2091213696	-0.6700499735	-0.134207
C	 3.0584259977	 0.1871677038	 0.7867331891	-0.058135
C	 2.0254131087	 0.1854105032	 1.6291583938	-0.065023
C	 0.6013672538	-0.2526209034	 1.3845700259	-0.264375
H	 0.7606328487	 2.0845399742	-0.1465496155	 0.130543
H	-0.6937335654	 1.8201281166	-1.1138929811	 0.106361
H	-0.8292470932	 2.0122012378	 0.6407918	 0.100991
H	-1.987372055	-0.3573119619	-0.9202119045	 0.111511
H	-1.3724455037	-1.6881920359	 0.073942182	 0.108328
H	-2.0596784931	-0.2515343729	 0.8433921097	 0.112597
H	 0.9487049606	-1.5890423897	-0.9744011742	 0.078047
H	 0.1458661952	-0.4445712545	-2.0656349531	 0.097258
H	 3.2331618807	-1.3013847146	-0.7497229253	 0.095779
H	 3.9284062052	 0.2670749659	-1.1614182594	 0.11061
H	 4.0316002032	 0.477561801	 1.179078142	 0.086163
H	 2.2307314857	 0.4867581938	 2.6549667125	 0.086598
H	-0.030127225	 0.1751857055	 2.1728754813	 0.097495
H	 0.5528268109	-1.3422507959	 1.5418449746	 0.104847
54.2543	128.7546	211.5047	252.106	264.9434	290.7676	312.4081	368.1616	387.0218	401.324	440.977	452.7442	562.4396	667.7158	744.3191	802.6913	848.1465	897.169	906.8427	925.5931	952.0381	978.7052	1000.1012	1028.9775	1036.8807	1048.5288	1054.541	1162.2723	1166.5723	1208.2541	1236.4661	1273.9853	1295.3929	1314.4654	1347.3739	1367.8796	1399.4066	1400.0558	1409.2058	1425.3342	1433.9402	1467.984	1477.4848	1484.3222	1486.9079	1495.3386	1504.4646	1512.0301	1732.2276	2923.0384	2956.1801	2979.7226	3023.6864	3033.0087	3041.6199	3049.7387	3064.9847	3090.3834	3091.5447	3098.7782	3125.8974	3134.7059	3150.675
CC1(C)COCC=CC1	CC1(C)COCC=CC1	
InChI=1S/C8H14O/c1-8(2)5-3-4-6-9-7-8/h3-4H,5-7H2,1-2H3	InChI=1S/C8H14O/c1-8(2)5-3-4-6-9-7-8/h3-4H,5-7H2,1-2H3
