16
gdb 108890	3.39247	1.08601	0.87057	4.6466	70.95	-0.2421	0.0221	0.2642	1289.6519	0.125825	-434.090868	-434.082353	-434.081408	-434.124644	30.142	
C	 0.0393261402	 1.3622880239	 0.042936971	-0.238572
O	-0.0335969584	-0.059371938	-0.1365455393	-0.258866
C	-1.2536606274	-0.5787588386	-0.0835304303	 0.497238
N	-2.3439352172	 0.067772345	 0.1083591265	-0.369943
C	-3.4048074215	-0.9496829854	 0.0590538967	-0.107425
C	-2.6758427834	-2.3374775677	 0.1249129759	-0.197362
N	-1.329810458	-1.9453935074	-0.2982233888	-0.367895
C	-4.3826563135	-0.7854988017	 1.1404121932	 0.285984
N	-5.1602842759	-0.6880887394	 1.9891185475	-0.324818
H	 1.0988246742	 1.6106408455	-0.0165820748	 0.136246
H	-0.5226136502	 1.8735935083	-0.7421603956	 0.14817
H	-0.3714423038	 1.6459100948	 1.0148325177	 0.150396
H	-3.9514127322	-0.8600794823	-0.8899094763	 0.131905
H	-2.6886842155	-2.7398944915	 1.1450493242	 0.129692
H	-3.1196860419	-3.0723129284	-0.5496894468	 0.131142
H	-0.5437496154	-2.4984437471	 0.0127028695	 0.254107
78.8779	109.6966	138.9512	162.7774	233.9023	250.5108	318.134	486.1633	505.9883	546.5255	554.7396	683.7489	731.1837	751.4271	861.975	989.7931	1021.8542	1032.081	1048.3618	1081.3767	1107.048	1182.3374	1205.5112	1226.5744	1280.3116	1304.1127	1329.3414	1367.3421	1455.2926	1478.0281	1495.955	1506.5011	1536.5705	1704.4686	2363.9449	3007.7882	3031.8409	3054.9943	3105.2949	3133.3471	3162.9062	3603.4105
COC1=NC(CN1)C#N	CO[C]1[N][C@@H](CN1)C#N	
InChI=1S/C5H7N3O/c1-9-5-7-3-4(2-6)8-5/h4H,3H2,1H3,(H,7,8)	InChI=1S/C5H7N3O/c1-9-5-7-3-4(2-6)8-5/h4H,3H2,1H3,(H,7,8)/t4-/m1/s1
