16
gdb 105612	1.93139	1.71758	1.24192	1.3976	66.75	-0.2557	-0.0628	0.1929	1055.6772	0.12276	-475.01462	-475.005896	-475.004952	-475.048234	31.451	
O	 0.7261589638	 0.4951460193	 0.4482885703	-0.414015
C	-0.2097251085	 0.4385606423	-0.6057696969	-0.126822
C	-1.4871231231	-0.2949563224	-0.1357879357	 0.078654
N	-2.4296561933	-0.7667645566	-1.1731243262	-0.369471
C	-2.3703931341	-2.1802223441	-0.6914237042	-0.271713
C	-1.1974386562	-1.7784241482	 0.1976969448	 0.34476
O	-0.3103791914	-2.3288219681	 0.7831499819	-0.300776
C	-2.1549611579	 0.4534709052	 1.0046611903	 0.120382
O	-3.3512956012	 0.592476124	 1.0755792219	-0.258218
H	 0.9368632411	-0.4142708779	 0.6995738051	 0.304247
H	-0.4377824833	 1.470019334	-0.8935255809	 0.125384
H	 0.1760600011	-0.0774994321	-1.4956773747	 0.113421
H	-3.3457554256	-0.3511962306	-1.0198283227	 0.240197
H	-3.2408700071	-2.5061847597	-0.106803013	 0.145598
H	-2.1556385647	-2.9267628519	-1.4623350747	 0.14466
H	-1.4597201596	 0.8740057568	 1.7542522148	 0.123711
102.3138	110.4552	130.5553	176.2097	225.3359	270.03	312.1819	409.9471	474.2737	503.6564	516.1573	634.66	678.0843	793.1674	811.9413	893.3142	951.1757	977.6823	1010.9855	1053.1201	1074.0235	1099.7582	1137.5775	1142.4687	1194.7966	1236.4422	1281.2017	1364.4003	1387.8979	1404.366	1430.4992	1464.0055	1514.1546	1797.8621	1886.0066	2974.0646	3010.6934	3024.5689	3078.8596	3087.2918	3499.3266	3759.7294
OCC1(NCC1=O)C=O	OC[C@]1(NCC1=O)C=O	
InChI=1S/C5H7NO3/c7-2-5(3-8)4(9)1-6-5/h2,6,8H,1,3H2	InChI=1S/C5H7NO3/c7-2-5(3-8)4(9)1-6-5/h2,6,8H,1,3H2/t5-/m1/s1
