23
gdb 110051	1.9957	1.54657	0.99371	2.9147	80.26	-0.2487	0.0476	0.2963	1268.5462	0.207184	-425.436309	-425.426947	-425.426002	-425.470332	36.704	
C	-0.4677109664	 1.4761111247	-0.1273603708	-0.417655
C	 0.0421035338	 0.0349062453	-0.0546334853	 0.03242
C	 1.0255176951	-0.3525501393	-1.1745609926	-0.218885
C	 1.5937896979	-1.6883122669	-0.6796833287	-0.23791
C	 1.8423262543	-1.4562737967	 0.8218619681	 0.115435
O	 3.1972061874	-1.0480263974	 1.0765056518	-0.439728
C	 0.7710648074	-0.3933040597	 1.2634969592	-0.056755
C	 1.3930193902	 0.7611556176	 2.0668420082	-0.068035
O	 2.0544908932	 0.3087224549	 3.2308805007	-0.432609
H	 0.3466624545	 2.2047034521	-0.0599743396	 0.117674
H	-0.9835752479	 1.6489522136	-1.0778859777	 0.110978
H	-1.1791046948	 1.6948492437	 0.6756037723	 0.118748
H	-0.8296855971	-0.6245384286	-0.1633402231	 0.075376
H	 0.5479285272	-0.4181729107	-2.1565649107	 0.098297
H	 1.8204306313	 0.4032320146	-1.2602003093	 0.083326
H	 0.8411255539	-2.4746457702	-0.8111934616	 0.10356
H	 2.5055379387	-2.0191385463	-1.184826444	 0.100772
H	 1.7435881627	-2.3780241408	 1.3985013668	 0.092295
H	 3.4190415431	-0.3325321537	 0.4709821937	 0.285293
H	 0.0589382975	-0.8794986626	 1.9380661438	 0.079786
H	 2.0693073423	 1.3580811063	 1.4315650985	 0.063903
H	 0.6037938795	 1.4406349437	 2.4022632779	 0.105311
H	 2.7887508763	-0.2296035437	 2.9063249525	 0.288402
46.0274	169.889	206.7808	211.0368	258.7472	281.6559	316.6863	329.1074	363.9646	430.8992	471.2856	546.6358	564.0434	623.4524	718.7553	760.714	807.7789	871.9912	901.7979	953.2678	973.3591	977.7423	1011.212	1023.1158	1041.7358	1084.1519	1095.0544	1133.9495	1166.7425	1168.9218	1208.4793	1213.1991	1270.2366	1279.7905	1313.0683	1326.7687	1335.0915	1348.467	1356.906	1381.3287	1401.1504	1417.2596	1439.6362	1447.8869	1485.9208	1497.4738	1500.7369	1504.646	1514.3836	2951.4061	2994.0744	3007.6733	3032.9687	3039.092	3049.7273	3077.5658	3082.9604	3093.1411	3096.3884	3097.0626	3104.0399	3753.5667	3810.6021
CC1CCC(O)C1CO	C[C@H]1CC[C@@H](O)[C@H]1CO	
InChI=1S/C7H14O2/c1-5-2-3-7(9)6(5)4-8/h5-9H,2-4H2,1H3	InChI=1S/C7H14O2/c1-5-2-3-7(9)6(5)4-8/h5-9H,2-4H2,1H3/t5-,6-,7+/m0/s1
