18
gdb 37467	2.77714	2.14428	1.79718	2.4774	72.74	-0.22	0.0637	0.2837	843.1381	0.151958	-401.901154	-401.895152	-401.894208	-401.931157	26.122	
C	-0.0202418398	 1.542294802	-0.2168547755	-0.082143
O	 1.2971008046	 2.0118906013	 0.0924539066	-0.25614
C	 1.9737373022	 1.02177954	 0.8562418744	 0.061061
C	 1.6392427363	 1.136741929	 2.3663518211	-0.047396
N	 0.2697634631	 1.632179598	 2.6295601117	-0.328934
C	 0.5480512863	 0.1815640831	 2.6585823333	-0.048265
C	 0.2660187084	-0.6031185409	 1.3916895046	-0.050957
C	-0.013168414	 0.0385740219	 0.0327950295	-0.08468
C	 1.3874623207	-0.3415070832	 0.4083607588	-0.100384
H	-0.7612556245	 2.0797150693	 0.3786407883	 0.120767
H	-0.20372788	 1.7338371727	-1.2825008687	 0.088512
H	 3.0449142552	 1.1278079085	 0.6707255491	 0.077392
H	 2.4281095744	 1.3654344379	 3.0755199398	 0.082997
H	 0.220965333	 1.9875084829	 3.5822153659	 0.22898
H	 0.4777286578	-0.3486224826	 3.6033849333	 0.083179
H	-0.1328491634	-1.6042045869	 1.5155107064	 0.081981
H	-0.5788651041	-0.5766296082	-0.6589384912	 0.089112
H	 1.9852600036	-1.0956515349	-0.0882666073	 0.08492
218.31	279.3257	317.2431	516.1455	566.7259	621.6913	685.0751	689.8582	739.8725	787.0103	794.4397	824.9489	862.1746	891.8494	909.6598	936.0792	943.4281	982.4547	988.4567	1013.0476	1031.1795	1054.6817	1066.6638	1098.6755	1101.9111	1144.2185	1161.1486	1170.856	1232.0713	1238.1815	1274.4972	1280.4633	1321.2422	1350.7568	1370.1879	1376.1283	1406.3059	1427.4633	1509.7398	3014.2566	3088.659	3097.6441	3149.2485	3160.2174	3163.7506	3170.4731	3187.5535	3485.9118
C1OC2C3NC3C3C1C23	C1O[C@H]2[C@H]3N[C@H]3[C@H]3[C@@H]1[C@@H]23	
InChI=1S/C7H9NO/c1-2-3-4(2)7(9-1)6-5(3)8-6/h2-8H,1H2	InChI=1S/C7H9NO/c1-2-3-4(2)7(9-1)6-5(3)8-6/h2-8H,1H2/t2-,3+,4-,5+,6+,7-/m1/s1
