18
gdb 48879	3.32272	1.51975	1.30414	3.1701	74.76	-0.2449	-0.028	0.2169	1003.271	0.14914	-401.929334	-401.922032	-401.921088	-401.961273	28.6	
O	-0.7711625347	 1.0176418804	 0.6494113247	-0.249234
C	 0.0814461593	 1.1025412055	-0.1961514144	 0.081835
C	 1.346953703	 1.9054030979	-0.0653759996	 0.258268
C	 1.3918352621	 3.0383517539	 0.9853611842	-0.304792
C	 1.8477185721	 3.9316648517	-0.1592149551	-0.034717
C	 2.9013170214	 3.2891989716	-0.9895624576	-0.01596
C	 3.7143491198	 2.1321935073	-0.4234438862	-0.251229
C	 2.6303367202	 1.0702601933	-0.0992619674	-0.263729
N	 1.4847126974	 2.9108012927	-1.2192703735	-0.192045
H	-0.0064665172	 0.5744891944	-1.1725909397	 0.085404
H	 0.3893582886	 3.286913417	 1.3369054415	 0.134161
H	 2.0551899195	 2.9139824551	 1.8466888885	 0.100204
H	 1.585130286	 4.9782720472	-0.282156544	 0.095874
H	 3.3260699982	 3.8899516106	-1.787889805	 0.097587
H	 4.4381603676	 1.7630957274	-1.1544419086	 0.1136
H	 4.2752058923	 2.4268887394	 0.4690177158	 0.114799
H	 2.8033437094	 0.5463992929	 0.8447562932	 0.117432
H	 2.5702384251	 0.3221717618	-0.8977216469	 0.112543
69.803	167.5384	239.1124	272.8641	368.8366	416.3179	437.46	627.1787	699.8355	721.1153	762.1885	795.4005	806.3356	841.1782	919.4993	931.2536	932.1276	988.977	997.6013	1017.0767	1037.786	1058.6834	1093.011	1136.8191	1165.339	1179.7838	1198.6091	1240.2643	1254.5067	1271.4453	1319.6989	1330.751	1356.1425	1398.5281	1417.5621	1482.3412	1493.0306	1509.5582	1831.6252	2881.6448	3043.6819	3052.0058	3056.5682	3092.3882	3107.2699	3126.9288	3151.2054	3165.8289
O=CC12CC3C(CC1)N23	O=C[C@@]12C[C@H]3[C@@H](CC1)N23	
InChI=1S/C7H9NO/c9-4-7-2-1-5-6(3-7)8(5)7/h4-6H,1-3H2	InChI=1S/C7H9NO/c9-4-7-2-1-5-6(3-7)8(5)7/h4-6H,1-3H2/t5-,6+,7+,8?/m1/s1
