15
gdb 50119	5.05078	1.0136	0.96589	2.8121	71.39	-0.2727	-0.0566	0.2161	1183.9788	0.112009	-416.775174	-416.767161	-416.766217	-416.808488	28.864	
O	-0.6597213612	 0.8351039709	-0.4687294671	-0.232452
C	 0.2282308595	 0.9455363404	 0.3381757183	 0.145527
C	 1.3485585793	 1.9532281582	 0.2333724181	-0.032503
C	 1.2922493561	 3.030089263	-0.8700466876	-0.329074
C	 1.2248280585	 4.0583065373	 0.2660865139	 0.210693
C	 0.0923644443	 3.7718532561	 1.1764040348	-0.27573
N	 1.3256300195	 2.9835097606	 1.3595687266	-0.175955
C	 1.979244591	 5.2738341791	 0.3126906615	 0.207808
N	 2.5828241532	 6.2606748956	 0.3134698938	-0.32938
H	 0.2656181866	 0.3150987606	 1.2536537835	 0.10129
H	 2.3073382864	 1.4288531148	 0.2875899793	 0.12157
H	 2.2093443294	 3.0922831083	-1.454535532	 0.140789
H	 0.4280544166	 3.0007378566	-1.53557478	 0.144106
H	-0.0737687848	 4.464364314	 1.994334355	 0.154127
H	-0.8029552445	 3.3084144645	 0.769062212	 0.149186
52.517	107.003	139.3708	224.6397	248.1151	353.5485	442.1282	546.7168	564.9482	590.2029	629.2981	709.7794	791.6311	823.2669	855.9147	953.1062	964.9793	996.2472	1057.7214	1090.1081	1118.7267	1149.122	1159.809	1227.6496	1246.707	1272.731	1344.4571	1373.4303	1414.1009	1485.688	1503.7302	1823.5581	2352.278	2899.0539	3068.7036	3092.2159	3118.8602	3154.953	3219.3479
O=CC1CC2(CN12)C#N	O=C[C@H]1C[C@]2(CN12)C#N	
InChI=1S/C6H6N2O/c7-3-6-1-5(2-9)8(6)4-6/h2,5H,1,4H2	InChI=1S/C6H6N2O/c7-3-6-1-5(2-9)8(6)4-6/h2,5H,1,4H2/t5-,6-,8?/m1/s1
