24
gdb 105256	1.80708	1.52399	1.05886	1.2085	89.84	-0.2209	0.09	0.3109	1312.9458	0.216214	-368.373467	-368.363275	-368.36233	-368.408751	38.362	
C	-1.1542065764	 0.9595690545	-3.3159164801	-0.384106
C	-0.4386769583	 0.9162481094	-1.958530593	-0.246647
C	 0.7084319759	-0.0869108706	-1.9023283988	 0.31987
C	 2.0463023643	 0.3224688099	-2.4368768094	-0.290283
N	 1.8511190145	 0.1223014307	-1.0056027519	-0.118643
C	 1.9341772704	 1.2782780704	-0.127976383	-0.317889
C	 0.2761158314	-1.5292040441	-2.0100950037	-0.045794
C	 1.1531306353	-2.6511726396	-1.5255966422	-0.273098
C	-0.100316933	-2.2974227563	-0.765006576	-0.266018
H	-0.4541878783	 1.2044245653	-4.121725541	 0.117325
H	-1.6236463391	 0.002597875	-3.5615573694	 0.121834
H	-1.9420388727	 1.7193134754	-3.3127970027	 0.111535
H	-0.0663635429	 1.9193654755	-1.7318351855	 0.094133
H	-1.1634308575	 0.6669208157	-1.1726613843	 0.100901
H	 2.6870532425	-0.3992208793	-2.9380972935	 0.109322
H	 2.1509696024	 1.3485630471	-2.7912606031	 0.098158
H	 1.6604263352	 2.236666687	-0.595394141	 0.10093
H	 1.2903453931	 1.1256585214	 0.7443428799	 0.121403
H	 2.9661212175	 1.3683511157	 0.2272594863	 0.122727
H	-0.3164574064	-1.7433205307	-2.8948840723	 0.080455
H	 1.1674452006	-3.5708770157	-2.1001985698	 0.100169
H	 2.0948104003	-2.3717296257	-1.0687810101	 0.128205
H	 0.031989105	-1.7918826695	 0.1857097009	 0.111363
H	-0.9481752337	-2.9724347614	-0.8047074362	 0.104148
48.0278	89.5953	150.582	163.3717	202.0594	219.1341	236.8	285.4493	313.4829	413.8202	471.385	482.7238	545.6202	646.1543	769.5605	786.801	806.0388	834.9877	858.227	909.617	937.8461	950.1721	1000.5873	1026.3448	1059.2566	1065.3599	1078.9454	1088.0304	1119.3951	1129.0401	1137.3649	1149.653	1181.0974	1203.3104	1213.0016	1225.0155	1251.8233	1293.139	1352.4013	1391.0995	1410.6557	1418.779	1447.8948	1455.3543	1478.7861	1488.9397	1495.3191	1499.7052	1503.5136	1507.4046	1513.3046	2977.5989	3026.256	3036.5479	3061.9245	3076.3038	3080.8593	3097.5262	3102.741	3112.143	3131.2368	3136.9905	3147.3683	3165.4429	3214.3796	3233.5031
CCC1(CN1C)C1CC1	CC[C@]1(CN1C)C1CC1	
InChI=1S/C8H15N/c1-3-8(6-9(8)2)7-4-5-7/h7H,3-6H2,1-2H3	InChI=1S/C8H15N/c1-3-8(6-9(8)2)7-4-5-7/h7H,3-6H2,1-2H3/t8-,9?/m0/s1
