21
gdb 71892	2.29399	1.79954	1.59112	0.9622	81.75	-0.2372	0.0798	0.317	1000.2117	0.182564	-387.06092	-387.052583	-387.051639	-387.093083	33.516	
C	-0.0612195493	 1.5545645713	 0.0143817842	-0.530759
C	 0.0021376754	 0.0562782152	 0.0054472887	 0.336437
C	 0.6477822253	-0.8640090149	-1.103409	-0.088116
C	 1.5330590942	-1.5208556825	-0.0168637223	-0.223406
C	 0.6671253366	-0.8762890425	 1.0923891769	-0.088116
C	-0.6970794483	-1.5865706859	 1.2962021376	-0.297875
C	-1.2370485057	-0.9120866051	 0.0109453114	 0.369649
O	-2.5370450861	-0.3919967446	 0.0252835437	-0.486762
C	-0.7198643477	-1.5721157167	-1.2910740741	-0.297883
H	 0.9423953667	 1.9957399482	 0.0070342233	 0.112354
H	-0.6003990952	 1.9329541915	-0.8613110075	 0.123095
H	-0.5831484156	 1.9231780134	 0.9045780988	 0.123068
H	 1.1391139824	-0.4857102837	-2.0008811132	 0.06267
H	 1.6239487743	-2.6128665999	-0.0237770665	 0.085444
H	 2.5388317787	-1.089712612	-0.0233095697	 0.097256
H	 1.1742375533	-0.5079989194	 1.9852344795	 0.06267
H	-0.7050915782	-2.6808247345	 1.3562070087	 0.081645
H	-1.2210519841	-1.1733971809	 2.1634960839	 0.101479
H	-3.1594570309	-1.1282442474	 0.0263189265	 0.274028
H	-1.2589945062	-1.14934722	-2.1443412857	 0.101473
H	-0.7290282596	-2.6656328497	-1.3631318143	 0.081649
165.8423	182.9697	194.5635	200.5183	244.7018	328.7981	396.8875	419.2039	431.3203	550.2032	605.1048	645.3791	721.6929	819.4958	831.9953	861.0238	877.2081	891.7052	922.0849	938.308	952.7661	1025.1833	1046.7224	1054.543	1105.8544	1123.747	1149.8966	1152.2883	1174.6572	1175.1352	1224.0011	1232.4294	1232.441	1262.1619	1286.2973	1303.9466	1314.7847	1336.6032	1384.1211	1411.1717	1472.8972	1476.9367	1486.2598	1489.1273	1495.5521	3020.8112	3029.9603	3031.4408	3035.6886	3082.6341	3084.6007	3087.4476	3088.9469	3090.8923	3095.2798	3100.4914	3789.5631
CC12C3CC1CC2(O)C3	C[C@@]12[C@H]3C[C@@H]1C[C@]2(O)C3	
InChI=1S/C8H12O/c1-7-5-2-6(7)4-8(7,9)3-5/h5-6,9H,2-4H2,1H3	InChI=1S/C8H12O/c1-7-5-2-6(7)4-8(7,9)3-5/h5-6,9H,2-4H2,1H3/t5-,6+,7+,8+
