21
gdb 76490	3.04628	1.01009	0.94806	2.6754	79.49	-0.2434	0.069	0.3124	1350.2752	0.180756	-424.194379	-424.184697	-424.183753	-424.228686	36.681	
C	 0.1095945507	 1.5352790569	-0.4650267319	-0.417397
C	 0.1404105029	 0.0386578498	-0.2441920308	-0.13794
C	 1.4507647983	-0.6763144317	 0.0388029945	 0.021387
O	 2.6300406436	 0.0599293852	 0.20088039	-0.417569
C	 0.4277690593	-0.5328936418	 1.1216599461	 0.329022
C	 0.6840630159	 0.2045172532	 2.442116911	-0.337659
C	 0.4013233883	-1.1442665611	 3.1680416687	 0.173683
O	-0.3258274388	-1.1532741298	 4.3689921588	-0.4339
C	-0.2513453577	-1.6894874539	 1.8631616006	-0.354985
H	 0.9176077125	 2.0273888603	 0.0819392328	 0.130467
H	 0.2233277341	 1.7819904105	-1.5270462694	 0.110445
H	-0.8389739683	 1.9675956781	-0.1282269674	 0.116274
H	-0.5694004632	-0.5270125422	-0.8454302559	 0.078654
H	 1.5909738727	-1.6679594657	-0.3949940743	 0.080237
H	 2.922538339	 0.3549619257	-0.6679856256	 0.289249
H	 1.6643804607	 0.6627939403	 2.5820637512	 0.120718
H	-0.0943955335	 0.945326563	 2.6641083604	 0.086549
H	 1.3348284232	-1.6700356983	 3.3854550001	 0.099372
H	-1.1533384566	-0.6840132821	 4.2181557478	 0.274629
H	-1.3426328103	-1.5761907693	 1.8913455638	 0.088499
H	-0.0128482426	-2.7129085771	 1.5600197695	 0.100265
67.7139	148.1908	163.5639	168.9752	227.1469	235.9982	299.1288	303.5164	358.8479	416.9229	464.0569	484.0402	553.2797	589.0329	719.1097	783.9473	827.4075	858.1813	920.9234	943.0007	986.7729	1000.7247	1044.4627	1060.5274	1075.6558	1094.9627	1126.8931	1146.78	1168.2755	1188.5807	1201.5546	1216.739	1240.1308	1276.0381	1288.628	1326.0456	1333.5842	1375.5762	1412.6974	1433.1069	1468.4524	1473.8841	1491.8365	1498.558	1506.6664	3022.5969	3027.6725	3030.3816	3074.9163	3078.9309	3082.6209	3092.6372	3111.3263	3118.9628	3126.748	3802.3196	3803.3856
CC1C(O)C11CC(O)C1	C[C@H]1[C@@H](O)[C@]21C[C@@H](O)C2	
InChI=1S/C7H12O2/c1-4-6(9)7(4)2-5(8)3-7/h4-6,8-9H,2-3H2,1H3	InChI=1S/C7H12O2/c1-4-6(9)7(4)2-5(8)3-7/h4-6,8-9H,2-3H2,1H3/t4-,5-,6+,7-/m0/s1
