19
gdb 103464	2.66838	1.35334	1.1365	1.5916	71.34	-0.238	0.0578	0.2959	1144.542	0.157478	-460.113649	-460.104501	-460.103557	-460.147155	34.682	
C	-0.1635199275	 1.4912270994	 0.065151123	-0.502691
C	 0.1297893092	 0.0266515993	 0.0796286868	 0.357232
O	-0.9929367633	-0.8615728699	-0.1236499184	-0.342039
C	-0.4844972716	-1.7716827953	 0.9007961493	-0.120066
C	 0.7890335373	-0.9605199951	 1.0477130549	-0.237895
C	 1.3583635386	-0.7155066485	-0.3448862567	 0.355613
O	 1.2756895598	-1.6903718766	-1.3486918899	-0.49854
C	 2.691230914	-0.0114878796	-0.427205271	-0.117094
O	 3.7665235112	-0.9211137231	-0.280038005	-0.421404
H	 0.742201331	 2.0736340192	 0.2540090507	 0.133243
H	-0.5597894736	 1.7896685064	-0.9120942703	 0.136351
H	-0.9077618364	 1.7478540368	 0.825390059	 0.132214
H	-1.137904562	-1.7495452798	 1.7785245296	 0.116576
H	-0.3879725471	-2.7978689922	 0.5296739538	 0.113248
H	 1.3560931477	-0.802002753	 1.9556453331	 0.106183
H	 0.3387052301	-1.7634384309	-1.5778693187	 0.296367
H	 2.7519351629	 0.5241440968	-1.387736336	 0.093209
H	 2.7908817287	 0.7243676561	 0.3766084051	 0.103842
H	 3.608700671	-1.6293788203	-0.9150657494	 0.295651
92.9784	143.3815	178.5975	199.103	235.9547	270.3098	314.4652	346.553	399.192	430.2362	468.2303	539.1763	571.8368	698.5733	735.0794	813.5924	873.1089	922.8129	947.8531	965.7137	986.0981	994.7151	1057.9953	1073.5483	1113.3826	1135.3216	1162.6715	1178.937	1184.72	1258.5149	1268.0437	1327.9401	1354.8194	1395.3977	1412.624	1433.3857	1468.3739	1473.0408	1495.294	1501.142	1515.0524	2981.1739	3034.509	3036.6325	3080.6626	3087.9143	3098.406	3120.8022	3200.3574	3744.5632	3801.9512
CC12OCC1C2(O)CO	C[C@]12OC[C@H]1[C@]2(O)CO	
InChI=1S/C6H10O3/c1-5-4(2-9-5)6(5,8)3-7/h4,7-8H,2-3H2,1H3	InChI=1S/C6H10O3/c1-5-4(2-9-5)6(5,8)3-7/h4,7-8H,2-3H2,1H3/t4-,5+,6-/m1/s1
