18
gdb 97988	5.61244	0.43055	0.41366	4.3685	83.18	-0.2545	0.0235	0.278	2512.3751	0.145556	-401.929437	-401.918785	-401.917841	-401.967994	35.492	
O	 0.142926436	 0.8572842982	-1.0316326755	-0.408813
C	-0.0508255745	 0.1914975738	 0.2103506779	-0.215477
C	-1.3901533141	-0.3814266718	 0.2548563859	 0.173849
C	-2.4961358213	-0.8525368469	 0.3106811385	 0.001503
C	-3.8245356218	-1.4494768956	 0.3572815232	-0.363907
C	-3.8263722291	-2.9354910727	-0.0503889851	-0.171416
C	-5.2470196874	-3.5300690137	 0.0024055328	-0.341423
C	-5.2773655784	-4.9424870391	-0.3693900894	 0.254729
N	-5.2840550763	-6.0595687305	-0.6648234443	-0.301004
H	 1.0367402667	 1.2149054389	-1.028641326	 0.290623
H	 0.688604591	-0.613928136	 0.3508379613	 0.11769
H	 0.0714111179	 0.8853070396	 1.0583117414	 0.117207
H	-4.240146051	-1.3467066832	 1.3690626683	 0.132005
H	-4.4986227286	-0.8877243502	-0.3036102897	 0.136643
H	-3.4213269645	-3.0394875999	-1.0609879007	 0.137461
H	-3.1670722252	-3.5003775241	 0.6150149377	 0.133347
H	-5.6652544409	-3.4285007638	 1.0111257649	 0.152849
H	-5.9153609184	-2.9795931731	-0.670552051	 0.154134
14.1217	62.3655	70.3054	92.0169	147.6235	160.5625	228.7951	286.0107	289.9831	347.3418	398.5518	458.3883	547.1088	575.4778	738.9557	772.689	840.508	944.8603	1026.1301	1030.7581	1034.6041	1050.4997	1082.1428	1155.4648	1177.9666	1247.1793	1256.7054	1263.3529	1295.6313	1322.582	1350.373	1388.6764	1460.4549	1467.5317	1472.2682	1500.7134	1503.3311	2363.9218	2375.4183	2961.9187	2979.8004	3009.3843	3035.2863	3038.3639	3065.0115	3070.1916	3112.6938	3817.6505
OCC#CCCCC#N	OCC#CCCCC#N	
InChI=1S/C7H9NO/c8-6-4-2-1-3-5-7-9/h9H,1-2,4,7H2	InChI=1S/C7H9NO/c8-6-4-2-1-3-5-7-9/h9H,1-2,4,7H2
