19
gdb 75004	3.04917	1.62349	1.45984	1.8466	78.78	-0.2221	0.0127	0.2347	987.4649	0.161837	-385.890038	-385.882967	-385.882022	-385.92124	29.	
C	 0.0097269437	 1.4950109765	 0.0483650488	-0.502304
C	-0.0544093143	 0.0020283413	-0.0177558434	 0.326727
C	-0.1204236651	-0.7721588781	-1.1067971903	-0.195632
C	 0.0149111982	-2.2437518608	-0.7419981267	 0.024192
O	 1.3884659713	-2.6390429133	-0.9004799861	-0.260358
C	 2.1094898194	-2.0442914621	 0.1831857425	-0.1012
C	 1.1092233619	-1.8956132043	 1.3304221972	-0.07929
C	-0.2344029229	-2.2709974356	 0.7821958846	-0.075656
C	-0.0171470218	-0.8509095684	 1.2183909214	-0.145112
H	 0.9355557772	 1.8299145227	 0.5327702759	 0.130328
H	-0.0379031914	 1.9449458991	-0.9465661174	 0.126265
H	-0.8165927361	 1.9000433661	 0.6463880285	 0.126039
H	-0.0807249139	-0.4241564947	-2.1325437096	 0.092284
H	-0.5849743534	-2.9354305596	-1.3361842017	 0.076393
H	 2.933344726	-2.7144602268	 0.4471639113	 0.104566
H	 2.5344663699	-1.0781334788	-0.1224791958	 0.093983
H	 1.4096669604	-2.2019433202	 2.3261268547	 0.090764
H	-0.9178888289	-2.9653410507	 1.2523483006	 0.088742
H	-0.4318141902	-0.4725827225	 2.1472016756	 0.07927
147.0923	177.0812	238.5611	303.5712	370.6802	464.1097	588.3741	596.2268	645.5662	721.713	757.402	788.8351	817.1943	844.683	893.2682	918.5389	935.6921	955.6675	977.9873	998.2823	1022.7409	1033.1408	1037.5306	1066.5504	1090.3819	1101.8618	1138.8555	1175.3565	1233.7938	1260.4368	1289.8943	1296.2792	1328.5453	1355.5631	1368.2725	1397.9827	1413.3225	1477.9896	1488.0715	1511.4848	1700.047	3005.6204	3018.6347	3064.4588	3074.2351	3098.1086	3114.7022	3160.7721	3174.1986	3198.4032	3200.6445
CC1=CC2OCC3C2C13	CC1=C[C@H]2OC[C@@H]3[C@H]2[C@H]13	
InChI=1S/C8H10O/c1-4-2-6-8-5(3-9-6)7(4)8/h2,5-8H,3H2,1H3	InChI=1S/C8H10O/c1-4-2-6-8-5(3-9-6)7(4)8/h2,5-8H,3H2,1H3/t5-,6+,7+,8+/m0/s1
