19
gdb 72134	2.16628	1.99868	1.75312	2.2547	74.17	-0.2362	0.0718	0.308	932.222	0.159432	-422.991387	-422.983637	-422.982692	-423.022994	31.434	
C	 0.0307403017	 1.4983147195	-0.137544279	-0.516097
C	-0.0492782064	 0.0068830427	-0.0404293662	 0.427022
O	 0.4432340534	-0.7355644667	-1.1659054291	-0.329041
C	-0.2486764531	-1.8661564259	-0.5638456222	-0.008803
C	 0.6539226394	-2.1569220013	 0.6477498899	-0.211025
C	 0.3558446906	-0.7920329852	 1.3045316753	-0.127747
C	-1.1578432776	-0.9208076467	 1.623391816	-0.320946
C	-1.3106649732	-0.8772003569	 0.0925081569	 0.352593
O	-2.4784360506	-0.5650984561	-0.5838642948	-0.482388
H	 1.074712667	 1.81731688	-0.2255442711	 0.12961
H	-0.5164256026	 1.8554617372	-1.0143330079	 0.139808
H	-0.3945772094	 1.9681553332	 0.754282979	 0.124278
H	-0.5162700261	-2.6498468156	-1.2723660223	 0.075633
H	 0.3385044358	-3.0011935359	 1.2675369941	 0.092233
H	 1.6890574273	-2.2974854004	 0.3299423994	 0.107358
H	 1.0575715526	-0.3821622905	 2.0274240494	 0.070666
H	-1.4843905536	-1.8032380298	 2.1818318159	 0.088293
H	-1.5827617067	-0.0175726024	 2.0695702975	 0.105798
H	-3.0670004884	-1.3272571193	-0.5577295709	 0.282758
180.38	186.101	199.8664	259.2884	294.3533	351.7328	462.7839	488.0401	524.5461	609.9126	650.2879	697.5905	732.7633	795.2582	873.0345	891.8863	892.2222	920.7155	931.8526	962.8036	1001.2169	1031.0238	1054.9268	1081.5885	1131.1175	1134.932	1146.936	1172.3286	1197.3737	1228.6575	1235.4388	1276.799	1297.5266	1306.0696	1325.593	1400.5989	1423.521	1475.5464	1481.3269	1494.0538	1505.9668	3039.4384	3050.2187	3060.4273	3107.1593	3109.6815	3118.3853	3120.298	3124.661	3142.3732	3801.9136
CC12OC3CC1CC23O	C[C@@]12O[C@H]3C[C@@H]1C[C@@]23O	
InChI=1S/C7H10O2/c1-6-4-2-5(9-6)7(6,8)3-4/h4-5,8H,2-3H2,1H3	InChI=1S/C7H10O2/c1-6-4-2-5(9-6)7(6,8)3-4/h4-5,8H,2-3H2,1H3/t4-,5+,6-,7+/m1/s1
