20
gdb 23308	2.90793	1.23902	0.95535	1.1471	83.07	-0.2275	0.0175	0.245	1264.9247	0.171393	-403.118269	-403.10973	-403.108786	-403.151194	33.574	
C	 0.0650692339	 1.5902285676	-0.004245239	-0.398517
C	 0.0328327282	 0.0613626006	 0.0275123907	 0.018613
C	 0.6553714819	-0.6113310857	-1.2255598278	-0.340035
C	 1.2298378839	-1.9184235874	-0.7186346692	 0.433148
N	 1.4261747824	-3.0043096563	-1.355753445	-0.258318
O	 1.0779472137	-2.8695551725	-2.7165746599	-0.39814
C	 1.4821878977	-1.8193934068	 0.7388950343	-0.117374
C	 2.2654799992	-0.5925161739	 1.1823912483	-0.296606
C	 0.7656533321	-0.5670670432	 1.2156497658	-0.039159
H	 1.0955731154	 1.9602421787	-0.0416762739	 0.115246
H	-0.4629964415	 1.9786210827	-0.8815288392	 0.115027
H	-0.4096482307	 2.0155557476	 0.8862023659	 0.112859
H	-1.0142231594	-0.2617420796	 0.0927126324	 0.080559
H	-0.0651561688	-0.7816028255	-2.0275021321	 0.131949
H	 1.4542972063	 0.007399156	-1.6545679276	 0.119344
H	 1.2288277573	-3.7604479148	-3.0487257597	 0.303754
H	 1.5490291074	-2.7285012638	 1.3222822106	 0.097711
H	 2.784615468	-0.6751064672	 2.1306875129	 0.117198
H	 2.7996971291	-0.0153841851	 0.4347504611	 0.116614
H	 0.2750574337	-0.5511020914	 2.1828404213	 0.086127
92.3533	154.7856	195.297	237.8364	264.147	335.7062	359.4418	418.7238	444.7138	494.5296	568.6262	587.4143	677.7245	768.8075	803.1971	843.845	892.4478	904.8123	930.6844	954.3356	978.9069	998.3974	1043.1023	1057.8594	1067.3634	1103.8644	1118.7915	1149.1675	1198.7111	1201.8042	1241.6402	1277.3771	1321.992	1330.8686	1365.8385	1382.5823	1410.2683	1420.1637	1472.6531	1489.5406	1496.7852	1499.2708	1750.9605	3016.4171	3027.8441	3031.4976	3097.6455	3098.415	3114.4855	3131.9253	3166.3603	3199.5709	3217.7928	3823.536
CC1CC(=NO)C2CC12	C[C@H]1CC(=NO)[C@H]2C[C@@H]12	
InChI=1S/C7H11NO/c1-4-2-7(8-9)6-3-5(4)6/h4-6,9H,2-3H2,1H3	InChI=1S/C7H11NO/c1-4-2-7(8-9)6-3-5(4)6/h4-6,9H,2-3H2,1H3/t4-,5-,6-/m0/s1
