17
gdb 5713	4.60286	1.95353	1.41986	1.495	74.65	-0.196	0.0456	0.2416	869.3886	0.146502	-326.774105	-326.767717	-326.766773	-326.804326	25.858	
C	 0.1213964713	 1.4297317974	-0.3665930115	-0.193243
C	 1.4123694466	 2.0124987346	 0.2865670225	-0.350355
C	 2.1384193405	 0.7659144917	 0.7091542751	 0.276512
C	 3.3762100917	 0.3424156465	 1.1238018723	-0.252024
N	 3.2685540255	-1.0092981363	 1.3769385106	-0.235917
C	 1.9853593948	-1.4496806072	 1.1273897974	-0.252024
C	 1.2671164094	-0.3567583499	 0.7113866974	 0.276513
C	-0.1214706598	 0.0361392294	 0.2904862369	-0.350355
H	-0.7390312	 2.0976999165	-0.2689403225	 0.089726
H	 0.3020528629	 1.2874018251	-1.4374484483	 0.103619
H	 1.9708822938	 2.6472261356	-0.4090734132	 0.100193
H	 1.1602598657	 2.640806589	 1.1519668319	 0.102202
H	 4.3154014977	 0.8547347219	 1.2590302359	 0.11355
H	 4.0300742455	-1.5997455241	 1.6614323267	 0.255659
H	 1.7224235418	-2.4862960039	 1.2657054572	 0.11355
H	-0.7910264356	 0.1265690581	 1.1569526526	 0.102202
H	-0.5990557417	-0.6641553943	-0.402501331	 0.100193
152.0835	238.8232	264.9514	431.5447	447.1299	566.5046	628.4418	646.5097	682.546	702.0231	708.479	747.1654	850.089	893.9435	905.7733	936.4332	994.6469	1060.2647	1068.6623	1070.606	1143.6525	1170.7692	1190.7319	1227.9683	1255.4369	1294.2183	1316.8429	1326.6495	1338.5366	1419.0246	1464.0067	1485.8351	1490.3638	1506.5913	1561.634	1631.9835	3008.5679	3008.8131	3043.0713	3064.2321	3067.7992	3096.2646	3255.6279	3258.3918	3683.4221
C1CC2=CNC=C2C1	C1Cc2c[nH]cc2C1	
InChI=1S/C7H9N/c1-2-6-4-8-5-7(6)3-1/h4-5,8H,1-3H2	InChI=1S/C7H9N/c1-2-6-4-8-5-7(6)3-1/h4-5,8H,1-3H2
