19
gdb 30912	1.98266	1.7328	0.99767	2.9756	79.17	-0.1881	0.0338	0.2218	1212.1004	0.159693	-419.254995	-419.245561	-419.244617	-419.289558	34.094	
C	 0.1135224735	 1.6024775071	 0.198451041	-0.370054
C	-0.006683074	 0.0783857802	 0.0048313558	-0.30474
C	 0.6430602872	-0.4439856088	-1.2336651372	 0.173737
C	 0.1260537852	-0.7523525351	-2.4695610404	 0.273647
O	-1.1757206587	-0.6531538035	-2.834569788	-0.442574
N	 1.0806991978	-1.1889323036	-3.3374549818	-0.362163
C	 2.2018046401	-1.1531012607	-2.64187577	-0.012644
N	 2.006317352	-0.7113334903	-1.3737581047	-0.041324
C	 3.0218638497	-0.5898676008	-0.3509258216	-0.344041
H	 1.1589044808	 1.9182025315	 0.2802655838	 0.110491
H	-0.326812012	 2.1327263985	-0.6507861235	 0.130814
H	-0.4039634184	 1.921772352	 1.1091125638	 0.111131
H	 0.391110147	-0.4334479603	 0.8914664287	 0.097483
H	-1.0667406038	-0.1906392185	-0.0477363324	 0.128487
H	-1.2217305127	-0.9681274369	-3.745135942	 0.297566
H	 3.1790598296	-1.4368463131	-3.0034210731	 0.12353
H	 3.1212818712	 0.44486807	-0.0082381991	 0.143845
H	 2.7898953317	-1.2215689363	 0.512734276	 0.143368
H	 3.9787326238	-0.9112833416	-0.7668158453	 0.14344
57.3139	100.6975	138.5881	176.454	189.4146	277.3868	287.4304	325.7355	355.3361	416.7291	515.109	585.7823	650.0356	695.256	738.7352	757.1267	775.7263	809.9534	965.8065	1005.1779	1077.3418	1083.0175	1117.2727	1151.6095	1176.8974	1258.7085	1283.7135	1310.1474	1354.2758	1365.5582	1404.0466	1415.944	1456.2592	1462.8356	1476.5861	1481.1032	1495.5891	1503.6074	1521.4615	1541.4981	1677.0569	3015.1889	3033.1648	3037.0961	3073.5189	3094.1765	3101.875	3115.5845	3134.4891	3246.4141	3807.0875
CCC1=C(O)N=CN1C	CCc1c(O)ncn1C	
InChI=1S/C6H10N2O/c1-3-5-6(9)7-4-8(5)2/h4,9H,3H2,1-2H3	InChI=1S/C6H10N2O/c1-3-5-6(9)7-4-8(5)2/h4,9H,3H2,1-2H3
