19
gdb 77606	1.88871	1.69401	1.65491	2.0247	75.79	-0.2271	0.0137	0.2407	1021.193	0.157807	-423.015797	-423.00693	-423.005986	-423.048416	34.744	
C	-0.0817331483	 1.5824007163	 0.0787956874	-0.425821
C	 0.0672339411	 0.0847378929	-0.0555211836	-0.128727
C	 0.7252946363	-0.6382322959	-1.2177017278	 0.370279
O	 0.107154214	-1.777635558	-1.7273284061	-0.486096
C	 1.6723016774	 0.1253044839	-2.140205056	-0.336655
C	 2.8205494322	 0.5116686516	-1.2288636542	-0.072771
C	 2.6601034112	 0.0531237589	 0.0161663988	-0.141389
C	 1.3716360866	-0.684651716	 0.1547725741	 0.246115
O	 1.34691941	-1.9084230406	 0.8373590847	-0.474152
H	 0.8225975735	 2.10924132	-0.2355744411	 0.125554
H	-0.914543079	 1.9439961124	-0.5341661055	 0.121496
H	-0.2859099712	 1.8670406587	 1.1171643369	 0.112716
H	-0.7896867647	-0.4886395104	 0.2961733619	 0.084744
H	 0.3395429517	-2.5017407743	-1.1295453955	 0.287692
H	 1.9960446444	-0.522312923	-2.9637915944	 0.121122
H	 1.2000555345	 1.0044039418	-2.5966480245	 0.113486
H	 3.6488779755	 1.1233048258	-1.5684969427	 0.097947
H	 3.3464192443	 0.19696128	 0.8429115823	 0.094901
H	 0.9051338706	-1.7845316939	 1.6831065654	 0.289558
172.996	197.3606	206.2097	212.2563	230.1515	243.7162	319.6136	359.7286	408.987	447.3229	514.3046	552.3762	605.7953	678.2839	735.115	763.4545	789.9267	851.6613	932.2164	947.9705	961.5564	990.7269	1023.6475	1083.0146	1111.6551	1125.1493	1144.1942	1173.7747	1196.9084	1221.2933	1284.6493	1303.3628	1323.3328	1370.3655	1401.4706	1411.1003	1443.8521	1472.4332	1497.4892	1500.2847	1659.0753	3028.7758	3031.2059	3062.0392	3087.0838	3110.7491	3125.778	3185.5778	3209.6499	3741.8478	3817.6032
CC1C2(O)CC=CC12O	C[C@H]1[C@@]2(O)CC=C[C@@]12O	
InChI=1S/C7H10O2/c1-5-6(8)3-2-4-7(5,6)9/h2-3,5,8-9H,4H2,1H3	InChI=1S/C7H10O2/c1-5-6(8)3-2-4-7(5,6)9/h2-3,5,8-9H,4H2,1H3/t5-,6-,7+/m1/s1
