14
gdb 83921	2.70752	1.5583	1.24927	3.8356	62.76	-0.263	-0.0046	0.2584	988.1256	0.100776	-473.790682	-473.783129	-473.782185	-473.822809	28.059	
O	 0.0280980638	 1.3820046076	-0.0436652604	-0.409849
C	 0.0051376361	 0.0118746049	-0.0033562934	 0.06029
C	-0.4475976328	-0.7091471278	 1.235762536	-0.058688
O	-1.131339106	 0.1247952755	 2.1427558884	-0.269355
C	-2.4943572057	 0.0897965208	 1.7281718349	-0.002129
O	-2.4676621699	 0.030803599	 0.3139026709	-0.275698
C	-1.3426603559	-0.7554101239	 0.0003838622	 0.215505
C	-1.556856601	-1.9301987759	-0.7886903108	 0.236743
N	-1.6882500518	-2.8775428446	-1.4401767711	-0.338184
H	-0.3723365977	 1.6981092226	 0.7781165556	 0.302372
H	 0.7931187816	-0.4465548674	-0.5929917912	 0.141336
H	 0.052925019	-1.5738667504	 1.6573828482	 0.135983
H	-2.9946247282	-0.7955248675	 2.1486837549	 0.12068
H	-2.9880941615	 1.012116187	 2.0398659558	 0.140995
125.673	159.7851	178.1868	215.0846	308.2599	388.2969	457.1439	492.8464	549.7415	618.9115	689.0155	727.7022	759.1447	844.9395	883.212	952.0356	1029.2539	1046.5616	1067.6772	1120.3607	1131.8094	1180.4967	1210.5777	1231.8531	1235.6149	1316.4894	1349.3063	1416.1306	1445.5232	1533.8798	2346.8053	2997.0758	3125.9054	3168.8639	3177.6552	3753.9227
OC1C2OCOC12C#N	O[C@H]1[C@H]2OCO[C@@]12C#N	
InChI=1S/C5H5NO3/c6-1-5-3(7)4(5)8-2-9-5/h3-4,7H,2H2	InChI=1S/C5H5NO3/c6-1-5-3(7)4(5)8-2-9-5/h3-4,7H,2H2/t3-,4+,5-/m0/s1
