23
gdb 87122	2.4468	1.22177	1.1703	2.1662	81.71	-0.2451	0.0603	0.3054	1253.8641	0.201718	-425.421102	-425.410189	-425.409245	-425.455914	41.923	
C	-0.0604051438	 1.4614877548	-0.1387791514	-0.408858
C	 0.1593798297	-0.0316451357	-0.0587182415	-0.024222
C	 1.5639105304	-0.6127412009	-0.0294932332	-0.385688
C	 0.6761500642	-0.6853922027	 1.1909229038	 0.380356
O	 0.9753579466	 0.1946969437	 2.2494997751	-0.474405
C	 0.0788418168	-2.0233784956	 1.6668438035	 0.297919
C	 1.0600299375	-2.7430424229	 2.6033204426	-0.451884
C	-1.2599530827	-1.7676789479	 2.3620010036	-0.397174
O	-0.2194240524	-2.8600226486	 0.5448408533	-0.455585
H	 0.6429424163	 1.995466603	 0.5040259344	 0.125088
H	 0.0663510708	 1.8200613101	-1.1660614695	 0.110403
H	-1.0722114878	 1.7287960664	 0.1851508709	 0.116341
H	-0.5553999198	-0.6394866217	-0.6049368083	 0.10167
H	 1.7673075027	-1.5046919658	-0.6124925373	 0.09242
H	 2.3897936883	 0.0905570265	 0.0209497997	 0.10569
H	 1.8331699671	-0.052624986	 2.609210777	 0.282844
H	 1.2414816036	-2.1634675213	 3.5129102979	 0.119324
H	 0.6531031758	-3.7152709354	 2.8950531256	 0.12439
H	 2.0250047423	-2.9074816579	 2.1069596193	 0.103373
H	-1.9822695041	-1.3740520718	 1.6418249811	 0.122282
H	-1.6603350279	-2.6969021424	 2.7771089669	 0.10934
H	-1.1345363182	-1.0376969342	 3.1642891873	 0.128088
H	 0.6058457847	-3.2449067536	 0.2328363492	 0.278288
70.479	149.2216	179.3955	208.428	222.0782	254.1415	273.8467	285.3702	294.7461	316.0315	340.4725	356.8687	414.2766	457.5566	474.2686	506.3924	575.8936	648.5768	795.4905	836.1604	892.2128	913.641	929.2008	933.4434	973.3056	1004.4256	1019.6614	1035.4706	1097.2339	1119.5972	1131.0674	1184.053	1187.0565	1215.7291	1262.7406	1291.609	1331.7772	1358.9942	1392.2139	1402.5127	1411.5194	1421.8836	1480.7122	1484.3012	1485.6974	1494.5974	1501.3577	1505.322	1509.8027	3022.5015	3033.8682	3048.9589	3089.8208	3094.9698	3117.4612	3120.4026	3121.9144	3124.4569	3140.0852	3162.0133	3208.7052	3811.0534	3816.7563
CC1CC1(O)C(C)(C)O	C[C@H]1C[C@]1(O)C(C)(C)O	
InChI=1S/C7H14O2/c1-5-4-7(5,9)6(2,3)8/h5,8-9H,4H2,1-3H3	InChI=1S/C7H14O2/c1-5-4-7(5,9)6(2,3)8/h5,8-9H,4H2,1-3H3/t5-,7+/m0/s1
