24
gdb 117677	2.06977	1.22263	1.0006	2.6426	85.67	-0.2336	0.0785	0.3121	1380.0077	0.215147	-405.523963	-405.513045	-405.512101	-405.560367	40.079	
C	 0.1699861022	 1.561405205	 0.1309100676	-0.381748
C	 0.0425229775	 0.0523825803	-0.0097389034	-0.047134
O	 0.7420784286	-0.5395799257	 1.0700259243	-0.298136
C	 0.7730570468	-1.9681152275	 1.1744363001	 0.330132
C	-0.6377972292	-2.5375314832	 1.4016026034	-0.420708
C	 1.4372011641	-2.6117128314	-0.0526800604	-0.419289
C	 1.6273794394	-2.2505237559	 2.4115264047	 0.018447
C	 2.7995591129	-1.4145238943	 2.7550132277	-0.249429
N	 1.5725656939	-1.3630162902	 3.5784601553	-0.338808
H	 1.2213967296	 1.8617282561	 0.107767417	 0.125551
H	-0.353773665	 2.0650505432	-0.6871452188	 0.115537
H	-0.2614537515	 1.8973447704	 1.078226196	 0.125275
H	-1.0177387386	-0.2384325397	 0.0012019999	 0.092304
H	 0.4617552903	-0.2725914056	-0.972777846	 0.092394
H	-1.2798391087	-2.4008449803	 0.52675368	 0.112787
H	-0.581034197	-3.6118699259	 1.6013051761	 0.118054
H	-1.1091570688	-2.0553213133	 2.2625235032	 0.127475
H	 2.3987863672	-2.1339930843	-0.2592305853	 0.123899
H	 1.6168020683	-3.6751345828	 0.1338118839	 0.118487
H	 0.8085472954	-2.5388296601	-0.9451883196	 0.113166
H	 1.6556734012	-3.3083741388	 2.6673771771	 0.0818
H	 3.6620738147	-1.8617118601	 3.2413447426	 0.108534
H	 3.0132743461	-0.5655554828	 2.1140138381	 0.116255
H	 1.0552660506	-0.5304802929	 3.3010928069	 0.235154
34.8616	91.3136	99.7949	140.2385	201.7962	242.1334	250.0793	257.5863	295.2195	320.1236	344.2997	387.1176	472.9945	509.8887	553.5189	718.7174	815.9199	824.0957	868.7169	901.0251	919.552	938.6342	973.7009	978.4311	1001.7495	1030.5811	1100.8311	1106.1252	1141.6165	1156.2458	1176.3858	1185.4349	1197.4964	1222.6287	1265.2907	1287.1311	1301.372	1315.9823	1394.1061	1398.9603	1405.7963	1420.7722	1427.9622	1477.8861	1484.0711	1489.2934	1495.812	1500.2881	1504.0524	1505.1641	1532.3371	2992.4597	3022.858	3039.5666	3044.0194	3044.1568	3105.5596	3110.7248	3114.9012	3118.58	3118.975	3119.6146	3121.3842	3123.3154	3207.5028	3490.0641
CCOC(C)(C)C1CN1	CCOC(C)(C)[C@H]1CN1	
InChI=1S/C7H15NO/c1-4-9-7(2,3)6-5-8-6/h6,8H,4-5H2,1-3H3	InChI=1S/C7H15NO/c1-4-9-7(2,3)6-5-8-6/h6,8H,4-5H2,1-3H3/t6-/m1/s1
