21
gdb 68407	2.20125	1.83262	1.53537	2.7177	77.31	-0.234	0.069	0.303	1012.9882	0.181305	-424.215731	-424.206886	-424.205942	-424.248226	35.443	
C	-0.097478664	 1.4943963499	 0.0458227877	-0.508359
C	 0.021833677	-0.001230208	-0.0221622658	 0.396424
C	 0.4440056207	-0.8010871744	-1.2831087161	-0.28666
C	-0.4466707876	-1.8285821426	-0.5590031439	 0.07752
C	 0.3686853777	-2.2082162732	 0.6924460164	-0.287957
C	 0.7412255732	-0.7515741688	 1.1438473868	 0.401537
C	 2.2404388174	-0.4804474487	 1.2672560947	-0.466918
O	 0.0826908482	-0.3586541296	 2.3413666754	-0.484067
O	-1.257986436	-0.721639228	-0.06919746	-0.327894
H	 0.8899082406	 1.9619824627	-0.026992157	 0.117562
H	-0.7174289314	 1.8681742724	-0.7731242867	 0.122817
H	-0.5486350383	 1.7880788114	 0.9969305139	 0.148383
H	-0.0362310808	-0.4019588472	-2.1774583715	 0.109099
H	 1.4970118639	-1.0284302142	-1.4668775027	 0.089836
H	-1.0137291898	-2.6028461419	-1.0757430986	 0.07584
H	-0.2538281035	-2.6968844461	 1.4448306276	 0.10657
H	 1.2363692884	-2.8373393194	 0.4718915279	 0.09004
H	 2.7857148259	-0.7143797616	 0.3491309678	 0.117976
H	 2.4196270662	 0.568224864	 1.5230651844	 0.125571
H	 2.6716551341	-1.0977611977	 2.0651364404	 0.108753
H	 0.5177749282	-0.7996041789	 3.0779922991	 0.273927
153.4876	188.132	222.7153	234.901	243.3517	259.8681	327.4339	377.7166	426.4057	440.5603	491.7281	571.0522	609.9498	650.8241	763.5788	827.7223	835.8942	868.1476	891.0666	935.9746	941.1701	959.742	990.1107	1024.2152	1038.7093	1088.52	1100.8882	1142.3795	1174.7387	1201.7378	1216.8494	1233.3686	1257.5009	1287.09	1300.8252	1330.1312	1381.5127	1407.9185	1413.1414	1469.4809	1479.5355	1488.4025	1493.4416	1496.5009	1500.6895	3027.1934	3044.6289	3055.8942	3068.1724	3091.6192	3113.4897	3115.9951	3120.66	3120.7824	3131.055	3139.2374	3815.6564
CC12CC(CC1(C)O)O2	C[C@@]12C[C@@H](C[C@]1(C)O)O2	
InChI=1S/C7H12O2/c1-6(8)3-5-4-7(6,2)9-5/h5,8H,3-4H2,1-2H3	InChI=1S/C7H12O2/c1-6(8)3-5-4-7(6,2)9-5/h5,8H,3-4H2,1-2H3/t5-,6+,7-/m1/s1
