16
gdb 100492	3.71662	0.59468	0.57342	2.5943	74.34	-0.268	-0.0001	0.2679	1899.056	0.122336	-437.854787	-437.844803	-437.843859	-437.892004	34.29	
O	 0.2284515632	 1.2023633308	-0.7428765424	-0.414658
C	 0.0533536206	-0.1853403413	-0.5996781604	-0.056751
C	-1.0825022616	-0.4746912371	 0.4004606101	-0.072265
O	-2.2589951052	 0.2333701987	-0.0050873881	-0.425979
C	-1.3206031491	-1.9072911637	 0.5577633687	 0.056616
C	-1.5144553006	-3.0925095238	 0.6278120665	 0.106496
C	-1.7522974731	-4.5296068877	 0.7390731593	-0.475396
C	-1.9947018292	-5.1722016161	-0.5595990043	 0.278976
N	-2.1890797245	-5.6839106691	-1.5759685951	-0.295362
H	-0.6588845395	 1.5688383934	-0.852158816	 0.288906
H	-0.1869104869	-0.6778510034	-1.5572862918	 0.090421
H	 0.9942312532	-0.6071402817	-0.2332330078	 0.120057
H	-0.8077476358	-0.0302718553	 1.3639050409	 0.130354
H	-2.6724363944	-0.2712922567	-0.7157679567	 0.292508
H	-0.8926937656	-5.0214794016	 1.2121773233	 0.188386
H	-2.6144586515	-4.7283441451	 1.3885274938	 0.18769
14.8323	57.2301	94.4981	133.0316	202.4252	276.8377	298.7382	336.5214	357.8439	374.3735	404.6429	502.8532	516.8804	544.0261	622.8181	814.973	877.926	932.1733	935.6705	1045.7629	1070.2492	1097.3222	1161.4535	1202.5855	1234.1066	1275.2393	1295.3521	1337.0749	1377.313	1418.2389	1434.0343	1445.4206	1502.497	2369.335	2376.7517	2964.285	3028.5939	3054.7419	3059.5989	3087.3002	3768.2901	3795.2383
OCC(O)C#CCC#N	OC[C@@H](O)C#CCC#N	
InChI=1S/C6H7NO2/c7-4-2-1-3-6(9)5-8/h6,8-9H,2,5H2	InChI=1S/C6H7NO2/c7-4-2-1-3-6(9)5-8/h6,8-9H,2,5H2/t6-/m0/s1
