20
gdb 79736	2.50365	1.73581	1.38853	3.4665	77.62	-0.2171	0.0631	0.2802	1021.5698	0.172666	-403.118499	-403.110773	-403.109828	-403.150154	31.788	
C	-0.0623336734	 1.5017209015	 0.0382155223	-0.480474
C	 0.0226785059	-0.0073563527	 0.0247092214	 0.270528
C	-1.2616436496	-0.7874230129	-0.3165658519	-0.301638
C	-1.3182450116	-1.9934890795	 0.6183009495	-0.031255
N	-0.2652110138	-3.0063476657	 0.3827947488	-0.364209
C	-0.0999205218	-1.9952891141	 1.4693504752	-0.038217
C	 0.7582579964	-0.8052902156	 1.119732604	-0.159034
C	 1.3410307449	-0.6788673076	-0.282289649	 0.083013
O	 1.511100907	-1.7309989563	-1.1655561228	-0.434653
H	 0.8962820599	 1.9477884217	 0.3225162437	 0.114531
H	-0.3250280646	 1.8942580797	-0.9516326178	 0.120065
H	-0.8184140638	 1.8584319447	 0.7489713432	 0.108416
H	-2.1338532932	-0.1504016197	-0.1357990128	 0.102195
H	-1.288513486	-1.0928170114	-1.3688133305	 0.120471
H	-2.2791392336	-2.3487355452	 0.9762674624	 0.091705
H	-0.5424276465	-3.9013538979	 0.7752218476	 0.236676
H	-0.1085617859	-2.3553613799	 2.4919810431	 0.092383
H	 1.2621973657	-0.3081771945	 1.9422372285	 0.076718
H	 2.1796475737	 0.0115843932	-0.3554354417	 0.088949
H	 0.9397863402	-2.4558360077	-0.8407164832	 0.303829
154.7545	199.0608	231.0933	268.9289	302.4556	350.0903	416.594	526.2206	569.4343	669.3999	685.7542	704.4696	720.0435	760.9051	813.6888	855.0054	861.3828	897.7906	936.4831	956.2126	978.9015	995.4462	1045.2656	1082.4278	1085.2927	1120.9619	1124.0842	1143.3572	1185.3819	1206.77	1226.0594	1256.6947	1286.9125	1316.4861	1350.0787	1367.3739	1391.9877	1415.0927	1438.0891	1474.1926	1489.2629	1498.9917	1515.9899	3014.0989	3040.0599	3071.5459	3080.941	3093.3003	3118.4121	3156.3702	3162.1159	3179.1087	3487.2775	3513.4489
CC12CC3NC3C1C2O	C[C@]12C[C@H]3N[C@H]3[C@H]1[C@H]2O	
InChI=1S/C7H11NO/c1-7-2-3-5(8-3)4(7)6(7)9/h3-6,8-9H,2H2,1H3	InChI=1S/C7H11NO/c1-7-2-3-5(8-3)4(7)6(7)9/h3-6,8-9H,2H2,1H3/t3-,4+,5-,6-,7+/m1/s1
