23
gdb 101634	1.94685	1.08051	0.92824	0.8479	88.13	-0.2572	0.0399	0.2972	1480.3994	0.201408	-388.262392	-388.250947	-388.250002	-388.299635	41.303	
C	 0.5433014563	 1.3925979044	-0.3631770259	-0.383251
C	-0.0502754063	 0.2127158022	 0.409240909	-0.174735
C	 0.7858950457	-0.2059308874	 1.6200878075	 0.150006
C	 0.1167563357	-1.3220742538	 2.4251909683	-0.403207
O	 2.055651696	-0.630609268	 1.1121366548	-0.261197
C	 3.1439643711	-0.5931932982	 2.0220267887	-0.031935
C	 4.3226174714	-1.2794899267	 1.3278722841	-0.393496
C	 3.4822392295	 0.7800162991	 2.4279889167	 0.351128
C	 3.768293103	 1.9006406822	 2.7568762526	-0.498431
H	 1.5509799062	 1.154136853	-0.7114805739	 0.131284
H	-0.0722241245	 1.6434063775	-1.2324901023	 0.105654
H	 0.6108908603	 2.2852725275	 0.2684005318	 0.111652
H	-1.0597934046	 0.4590308182	 0.759999559	 0.09148
H	-0.1516768694	-0.6566260795	-0.2529445876	 0.100304
H	 0.9384936445	 0.6723877641	 2.2654645869	 0.078589
H	-0.8503067997	-0.9869696464	 2.8137650999	 0.114496
H	-0.0490242296	-2.2004310038	 1.7931516751	 0.120855
H	 0.7259533125	-1.6277084198	 3.281239863	 0.113696
H	 2.8954354046	-1.1617534373	 2.9324349535	 0.094059
H	 5.1937867404	-1.3026770052	 1.9870447631	 0.124707
H	 4.0424693591	-2.3020663223	 1.0633553513	 0.123691
H	 4.5843120627	-0.7380552529	 0.4156100955	 0.135279
H	 4.0190020049	 2.8906437831	 3.0487072687	 0.199372
28.2528	74.267	105.9168	145.2039	190.3879	207.6074	218.0211	238.4288	243.6307	267.256	351.3593	422.0563	436.6236	486.0204	555.3075	604.4449	627.2137	673.4234	765.1333	816.7887	833.8395	882.8952	962.8831	983.2352	1009.2554	1039.3065	1076.0219	1114.9799	1126.9044	1139.4126	1167.052	1204.2089	1299.4838	1332.6483	1337.4445	1353.9643	1391.5676	1399.4448	1404.6082	1406.6652	1411.6797	1474.3712	1482.6061	1491.5245	1495.1153	1495.2135	1497.5322	1508.3891	2228.2746	2971.9814	2993.8863	3025.514	3036.7495	3037.982	3052.7082	3063.2537	3101.3057	3105.3483	3111.1294	3127.1486	3134.2126	3136.3966	3502.4521
CCC(C)OC(C)C#C	CC[C@@H](C)O[C@@H](C)C#C	
InChI=1S/C8H14O/c1-5-7(3)9-8(4)6-2/h1,7-8H,6H2,2-4H3	InChI=1S/C8H14O/c1-5-7(3)9-8(4)6-2/h1,7-8H,6H2,2-4H3/t7-,8+/m0/s1
