18
gdb 12096	3.7715	1.50965	1.41774	1.4928	68.49	-0.2404	0.0865	0.3269	971.2863	0.152128	-384.906258	-384.898058	-384.897114	-384.938646	31.302	
C	-0.2477796084	 1.5195363409	-0.0773309445	-0.43942
C	 0.0957810633	 0.0572163462	 0.0436230209	 0.080825
O	 1.4812700433	-0.3405619777	-0.0457405497	-0.279954
C	 0.7792415033	-0.5760883457	 1.1846884262	-0.026496
C	 1.3402301021	 0.1479427912	 2.3760699826	 0.416616
O	 1.9933451111	 1.3464358738	 2.0692969666	-0.466822
C	 0.6096586234	 0.1233834775	 3.6827134702	-0.309496
C	 1.8905331005	-0.6716363863	 3.5235803331	-0.321097
H	-0.1266837058	 1.8500967836	-1.1146268899	 0.124238
H	-1.2979261469	 1.6700157331	 0.1964378198	 0.121597
H	 0.3743734874	 2.1337574409	 0.5726018436	 0.151698
H	-0.5534084904	-0.6026996345	-0.5365331845	 0.090832
H	 0.5538363572	-1.6267869882	 1.3776780233	 0.089689
H	 2.4859546729	 1.1694517577	 1.255831049	 0.289339
H	 0.6540310352	 1.0333009585	 4.2701938945	 0.129466
H	-0.3327521874	-0.4107613191	 3.7422648797	 0.114657
H	 1.8275178605	-1.7540176274	 3.4761827409	 0.111865
H	 2.7798425785	-0.2815747745	 4.0043410583	 0.122461
68.6242	186.3516	194.7074	228.599	285.4764	320.6198	376.7995	426.3406	457.4026	516.0305	583.7434	738.5794	765.7757	796.2419	844.7271	894.7187	930.8022	938.3878	979.2222	995.0496	1045.1679	1053.4346	1077.4166	1102.6544	1158.7063	1176.5736	1191.0871	1233.6706	1286.6081	1335.537	1366.4536	1409.1634	1437.0806	1451.1804	1466.2706	1501.6199	1503.9819	1514.9075	3038.7624	3077.0451	3092.0447	3095.971	3131.1889	3135.7179	3161.4444	3218.7547	3232.7915	3753.0677
CC1OC1C1(O)CC1	C[C@H]1O[C@H]1C1(O)CC1	
InChI=1S/C6H10O2/c1-4-5(8-4)6(7)2-3-6/h4-5,7H,2-3H2,1H3	InChI=1S/C6H10O2/c1-4-5(8-4)6(7)2-3-6/h4-5,7H,2-3H2,1H3/t4-,5-/m1/s1
