14
gdb 74509	3.80991	1.2736	1.08189	5.2452	67.84	-0.2443	0.0178	0.2621	1074.0215	0.102307	-432.882299	-432.874923	-432.873979	-432.914007	28.495	
N	 0.0524276363	 1.3107820292	-0.1911768418	-0.578732
C	-0.0496604282	-0.0368249937	-0.0386395993	 0.462252
N	-1.1280574199	-0.7275491867	 0.0285140157	-0.384809
C	-0.7046013388	-2.1048356434	 0.0473078118	 0.189173
C	 0.0620182947	-2.5997253565	-1.1790965337	-0.34606
C	 0.8274040211	-2.0684071074	-0.0095058478	 0.028887
O	 1.1510320107	-0.6935203199	-0.016170073	-0.239462
C	-1.4522860309	-3.0349841173	 0.8480514401	 0.235517
N	-2.0310297696	-3.8082230377	 1.4837544566	-0.346663
H	 0.9100221982	 1.7278467668	 0.1361038697	 0.272421
H	-0.7898499747	 1.8215999289	 0.0228111354	 0.279528
H	 0.1091976253	-3.6729146213	-1.3251746769	 0.146231
H	-0.0236233089	-2.0006683789	-2.0791237251	 0.142149
H	 1.5074758547	-2.6683801422	 0.5794133184	 0.139569
128.1702	158.5674	215.9112	360.1035	363.3289	433.3899	461.6255	501.5707	532.6125	555.7513	604.2103	715.2511	735.8593	775.6512	832.3593	883.9942	931.5142	960.7875	1006.2067	1043.1933	1070.4316	1141.0203	1149.5438	1225.5227	1274.9078	1365.493	1425.7054	1457.1831	1613.3252	1735.643	2359.325	3137.6252	3215.8908	3237.3783	3591.6785	3707.0074
NC1=NC2(CC2O1)C#N	NC1=N[C@]2(C[C@H]2O1)C#N	
InChI=1S/C5H5N3O/c6-2-5-1-3(5)9-4(7)8-5/h3H,1H2,(H2,7,8)	InChI=1S/C5H5N3O/c6-2-5-1-3(5)9-4(7)8-5/h3H,1H2,(H2,7,8)/t3-,5-/m1/s1
