25
gdb 76635	2.67945	1.05264	0.88728	0.1521	93.54	-0.2514	0.0795	0.3309	1470.2354	0.228945	-352.338622	-352.328518	-352.327574	-352.3741	37.982	
C	-0.4364691019	 0.919911593	-1.6249791588	-0.406416
C	 0.0058139681	-0.2629736614	-0.7881422382	-0.031756
C	 1.461219515	-0.604210808	-0.5396419691	-0.031742
C	 2.6101389234	 0.205582197	-1.1047713435	-0.406413
C	 0.5899418442	-0.1201658548	 0.6073584107	-0.047236
C	 0.7839081312	 1.2058240663	 1.292612501	 0.059105
C	-0.3648353886	 1.7619799241	 2.1880145385	-0.230603
C	 0.7083769707	 2.260735962	 3.1920491971	-0.210288
C	 1.7152238887	 1.2753314514	 2.5410001785	-0.230557
H	 0.2064682905	 1.7941089828	-1.5000675037	 0.114937
H	-0.4355018982	 0.664705343	-2.6908382797	 0.113486
H	-1.455225177	 1.224873074	-1.3605156184	 0.116218
H	-0.6433069806	-1.1265896664	-0.9155475616	 0.076456
H	 1.6761677582	-1.6704260607	-0.519523136	 0.076452
H	 2.4067941407	 1.2786813098	-1.1222182316	 0.114936
H	 3.5199255226	 0.0565407781	-0.5124246051	 0.116218
H	 2.8332157302	-0.1003313427	-2.1332882416	 0.113488
H	 0.2879763807	-0.8988186857	 1.3068505626	 0.068146
H	 1.0856594003	 1.9799652507	 0.5815075381	 0.060355
H	-1.0451308048	 2.4965045203	 1.7491091324	 0.091702
H	-0.9617412133	 0.9464820681	 2.6101123739	 0.095133
H	 0.9839225305	 3.3029940676	 3.0052293192	 0.098464
H	 0.5004675679	 2.1455870378	 4.2584619652	 0.093084
H	 1.7357206527	 0.3153912301	 3.067870216	 0.095132
H	 2.7453025388	 1.6096928338	 2.3923165142	 0.0917
45.095	106.5228	115.1703	155.6637	169.8367	199.8827	255.3191	267.041	362.032	457.4055	460.514	554.805	642.8438	749.9406	760.4558	782.0249	790.9559	892.5051	918.8299	930.0227	935.7413	945.471	964.9768	990.5833	1038.4413	1053.4463	1053.5443	1102.0163	1107.5531	1136.862	1159.7975	1187.7699	1199.609	1201.8112	1239.683	1254.2781	1257.797	1273.115	1277.1344	1286.0423	1322.8612	1377.7493	1412.171	1417.2076	1423.4699	1456.5477	1478.5001	1486.8678	1488.235	1495.005	1502.8927	1509.8151	1516.6072	3029.2819	3032.3196	3043.1811	3046.3786	3055.1538	3060.8238	3082.4129	3084.0039	3092.702	3097.2139	3102.1662	3105.7027	3114.7403	3118.5151	3122.963	3137.0756
CC1C(C)C1C1CCC1	C[C@H]1[C@@H](C)[C@H]1C1CCC1	
InChI=1S/C9H16/c1-6-7(2)9(6)8-4-3-5-8/h6-9H,3-5H2,1-2H3	InChI=1S/C9H16/c1-6-7(2)9(6)8-4-3-5-8/h6-9H,3-5H2,1-2H3/t6-,7+,9-
