18
gdb 99088	3.69127	0.83922	0.70856	1.7097	71.77	-0.2445	-0.0509	0.1936	1546.5684	0.145415	-476.263917	-476.253786	-476.252842	-476.300351	34.828	
C	 0.6818746797	 1.2908189512	-0.0426977438	-0.333425
N	 0.8227464036	-0.0945255542	-0.4442338828	-0.296228
C	-0.1392877704	-0.7515565902	-1.1430743174	 0.376653
O	-1.2067416219	-0.2614599888	-1.4690528209	-0.373637
C	 0.1942692071	-2.2135435704	-1.4760026141	-0.322422
C	 1.5828818151	-2.4384692297	-2.1128093954	 0.023157
O	 2.6362092644	-2.1252369247	-1.2316989364	-0.430446
C	 1.7057585168	-3.8856909904	-2.5483640727	 0.143359
O	 2.5658591908	-4.6058884979	-2.1017836992	-0.257851
H	 1.4372272388	 1.9247909153	-0.521159765	 0.125402
H	-0.3094538464	 1.6249503836	-0.350346127	 0.167478
H	 0.7760532777	 1.3989110389	 1.0434916253	 0.124523
H	 1.692942399	-0.5803017132	-0.2797393387	 0.265946
H	 0.1340806481	-2.8125776154	-0.5591024743	 0.131299
H	-0.5913247252	-2.5532945586	-2.1553862803	 0.130534
H	 1.658987398	-1.8140314881	-3.0185861373	 0.113785
H	 3.1104611196	-2.9604276796	-1.082563807	 0.299745
H	 0.9580789153	-4.2476377177	-3.2810571731	 0.112129
53.2995	68.0388	72.4055	117.3439	133.6037	215.368	271.5607	315.9533	345.444	371.9366	453.3612	491.8338	594.9792	661.3281	717.1966	774.2606	843.1685	870.3627	907.4656	979.7534	1054.4159	1101.1773	1141.2602	1153.5803	1180.5453	1221.6062	1246.4329	1298.3775	1309.8062	1350.7804	1399.1919	1433.8406	1438.8634	1458.1845	1498.6654	1500.6233	1586.7496	1782.5543	1811.1391	2948.2744	2979.4418	3027.0142	3042.3014	3077.5176	3113.6269	3154.3727	3596.2284	3664.5551
CNC(=O)CC(O)C=O	CNC(=O)C[C@@H](O)C=O	
InChI=1S/C5H9NO3/c1-6-5(9)2-4(8)3-7/h3-4,8H,2H2,1H3,(H,6,9)	InChI=1S/C5H9NO3/c1-6-5(9)2-4(8)3-7/h3-4,8H,2H2,1H3,(H,6,9)/t4-/m1/s1
