20
gdb 57906	3.1332	1.08138	0.91166	4.5746	79.33	-0.2312	0.0162	0.2474	1345.7623	0.16982	-440.298274	-440.288408	-440.287464	-440.333788	35.506	
C	-0.0767481764	 1.3998283763	-0.1357438923	-0.34791
N	-0.0023425166	-0.0447097884	 0.0299036832	-0.107999
C	 1.3066083746	-0.6396787724	-0.1787762202	-0.33828
C	-1.1453846446	-0.7419852442	 0.3035994321	 0.484386
O	-2.2112652641	-0.1541920505	 0.5294190109	-0.443828
C	-1.1038804936	-2.2279370921	 0.3028762451	-0.238364
C	-1.9495300769	-2.9464855594	 1.364041909	-0.324592
C	-2.4270823711	-2.9433833018	-0.0464013844	 0.158217
O	-3.5403232233	-2.2448478521	-0.4583827088	-0.423733
H	 0.2639367326	 1.689146112	-1.1377006638	 0.123441
H	-1.1101437955	 1.7104086441	 0.0021259968	 0.173577
H	 0.5572976245	 1.906169261	 0.602100826	 0.123852
H	 1.4207860309	-1.5607369801	 0.3922219483	 0.146811
H	 1.5069254129	-0.8506128781	-1.2382648279	 0.129594
H	 2.0706699933	 0.0601966983	 0.1734199905	 0.132956
H	-0.199348739	-2.7226506172	-0.0211667827	 0.09025
H	-1.5382638767	-3.8532557995	 1.794166022	 0.113392
H	-2.4718356549	-2.2936556484	 2.0547658561	 0.13696
H	-2.3067641422	-3.8590785855	-0.6178229842	 0.106047
H	-3.433985744	-1.3398809021	-0.1045665759	 0.305221
47.6509	81.9075	94.3862	133.7941	217.2312	227.7557	263.4758	302.1376	406.5766	436.6966	469.875	497.3237	635.5605	643.2048	748.1053	765.6298	796.2554	836.6129	901.5321	978.1086	1034.3749	1060.0097	1079.0611	1093.2184	1117.352	1129.6676	1144.6498	1160.0287	1176.1823	1240.7506	1285.2795	1355.7693	1370.3896	1429.2228	1448.2345	1455.5936	1478.0483	1495.0752	1497.8782	1502.6442	1506.885	1540.7306	1684.2764	3009.4747	3018.9294	3065.738	3082.0557	3133.1725	3142.9434	3156.3344	3178.5441	3206.057	3231.2379	3548.812
CN(C)C(=O)C1CC1O	CN(C)C(=O)[C@H]1C[C@H]1O	
InChI=1S/C6H11NO2/c1-7(2)6(9)4-3-5(4)8/h4-5,8H,3H2,1-2H3	InChI=1S/C6H11NO2/c1-7(2)6(9)4-3-5(4)8/h4-5,8H,3H2,1-2H3/t4-,5+/m0/s1
