21
gdb 53380	4.49204	0.72094	0.66741	1.6045	88.68	-0.2408	0.0571	0.2979	1763.0786	0.181545	-387.082329	-387.07214	-387.071196	-387.120195	35.693	
C	 0.382919754	 1.6210678462	-0.5676916771	-0.499519
C	 0.2017836918	 0.2120022077	-0.2484131531	 0.109668
C	 0.0545437267	-0.9553091971	 0.009476697	 0.030098
C	-0.1254217899	-2.3589096844	 0.3434644836	-0.198563
C	 0.2702962366	-2.7277721837	 1.7903585053	-0.06922
O	-0.4113066111	-3.936701145	 2.0865273802	-0.279041
C	-1.4986666421	-4.1455620343	 1.1685306048	 0.152726
C	-2.7630615295	-4.4885638626	 1.9432803571	-0.399403
C	-1.5827169791	-2.8697772326	 0.3189178309	-0.239333
H	 1.1189451486	 1.7569828747	-1.3679005507	 0.14755
H	-0.5554603504	 2.0784824829	-0.9006381346	 0.147203
H	 0.7341146645	 2.1852246473	 0.303492443	 0.147741
H	 0.4701403247	-2.9771337679	-0.341319259	 0.102694
H	 1.3470823966	-2.8872495118	 1.9062649872	 0.1085
H	-0.0355383349	-1.9255865597	 2.4781338374	 0.095804
H	-1.2310889611	-4.9985603378	 0.5250078304	 0.070116
H	-3.0544028894	-3.6565648872	 2.592233037	 0.117761
H	-3.5896522634	-4.7021301149	 1.2571594279	 0.11148
H	-2.6000772888	-5.3706714545	 2.5687558232	 0.125418
H	-2.2378292889	-2.1309647751	 0.7932072807	 0.109226
H	-1.9537956749	-3.0550501104	-0.6913925412	 0.109095
11.7557	41.4173	81.3369	92.3441	194.2019	241.3633	276.6728	322.6698	334.7004	417.5857	471.8614	510.5978	522.2816	637.6291	813.6165	837.0872	896.6923	917.5649	922.5582	987.2582	1029.3885	1052.7486	1053.2934	1075.7373	1113.0656	1135.6998	1151.9009	1187.9634	1204.0094	1248.2578	1268.2454	1307.4506	1340.5357	1363.485	1390.974	1399.0381	1410.1648	1415.3732	1478.7052	1479.0349	1485.6649	1490.4024	1498.3317	1528.7642	2371.7105	2970.6142	2993.0572	3016.4706	3025.9155	3035.4357	3052.819	3072.2347	3085.9549	3086.4758	3107.1073	3113.784	3117.9003
CC#CC1COC(C)C1	CC#C[C@H]1CO[C@@H](C)C1	
InChI=1S/C8H12O/c1-3-4-8-5-7(2)9-6-8/h7-8H,5-6H2,1-2H3	InChI=1S/C8H12O/c1-3-4-8-5-7(2)9-6-8/h7-8H,5-6H2,1-2H3/t7-,8+/m0/s1
