18
gdb 125871	3.67413	1.0687	1.05157	4.0099	77.91	-0.2373	0.0016	0.2389	1222.1623	0.149317	-398.120578	-398.112468	-398.111524	-398.154274	30.363	
C	-0.0271654328	 1.5362783348	-0.2295085904	-0.407702
C	-0.0180433806	 0.0431850652	-0.0010532147	 0.019891
C	 1.2340060087	-0.7679189388	-0.1984051335	-0.3112
C	 0.6832187748	-0.5881461953	 1.1977916163	-0.114626
C	 1.3857342511	 0.2062073941	 2.2228097019	 0.329817
C	 2.5749830672	 0.9016666411	 2.1864870702	-0.184003
N	 2.6942819121	 1.4182072124	 3.4333212641	-0.152898
N	 1.6581356288	 1.0677755404	 4.2138626603	-0.114601
N	 0.8663447735	 0.3378663362	 3.4847647279	-0.258522
H	 0.9093067997	 1.9986955059	 0.0962017491	 0.112156
H	-0.161944025	 1.7673494966	-1.2918838917	 0.11618
H	-0.8405267299	 2.0162664578	 0.325112687	 0.126222
H	-0.944851909	-0.4533392598	-0.2760218645	 0.09036
H	 1.1675121283	-1.7511478069	-0.6509139717	 0.114276
H	 2.1400229233	-0.2276529459	-0.456642734	 0.105726
H	 0.1660347524	-1.4407316647	 1.625624451	 0.103753
H	 3.3171635296	 1.0554795177	 1.4223727909	 0.143969
H	 3.4309254478	 1.9887682692	 3.8160985319	 0.281203
30.2134	117.4468	171.5273	214.0903	280.2243	347.7996	424.2648	498.4546	563.3946	637.2927	704.7283	749.2756	770.6961	794.0616	850.7733	883.5352	932.4624	986.3065	1007.0106	1039.3746	1053.7579	1076.4279	1091.9529	1117.2236	1133.4572	1147.4701	1196.663	1218.9957	1245.852	1294.3542	1345.8612	1389.2064	1411.8362	1424.0821	1482.1119	1493.0353	1498.1512	1505.9572	1596.7459	3032.2556	3093.1349	3104.6318	3125.7971	3141.7862	3162.564	3209.5704	3286.9076	3659.6591
CC1CC1C1=CNN=N1	C[C@H]1C[C@H]1c1c[nH]nn1	
InChI=1S/C6H9N3/c1-4-2-5(4)6-3-7-9-8-6/h3-5H,2H2,1H3,(H,7,8,9)	InChI=1S/C6H9N3/c1-4-2-5(4)6-3-7-9-8-6/h3-5H,2H2,1H3,(H,7,8,9)/t4-,5+/m0/s1
