21
gdb 114214	2.72525	1.15486	0.98281	1.6203	78.8	-0.2447	0.0592	0.3038	1288.0855	0.181599	-424.189752	-424.180254	-424.17931	-424.224078	35.954	
O	 0.3643565512	 1.0436281581	-0.7273199314	-0.426882
C	 0.0404990653	-0.3092078711	-0.4369514603	-0.055953
C	-1.3239725264	-0.4475540634	 0.2302853421	-0.064102
C	-2.5297877974	-0.2848584413	-0.7518275037	-0.338743
C	-2.6787590552	-1.8113731091	-0.7570839289	 0.371033
C	-3.8482265516	-2.6683590123	-1.1332394947	-0.344291
C	-2.5833911058	-2.7067412311	-1.9586353778	-0.304284
C	-1.7699413839	-1.9308234189	 0.4641470646	 0.035419
O	-0.8022603464	-2.9554866535	 0.3727582613	-0.42396
H	-0.2973968405	 1.3761594046	-1.3422255603	 0.280203
H	 0.0878751433	-0.9373917408	-1.3384515245	 0.098844
H	 0.825806681	-0.663399835	 0.2381487152	 0.100966
H	-1.3517530271	 0.1970145573	 1.1135777941	 0.067965
H	-3.3814473971	 0.2361487034	-0.3047125312	 0.10287
H	-2.3111974559	 0.183260992	-1.7186554292	 0.086684
H	-4.0729492495	-3.5258286017	-0.5061583463	 0.112733
H	-4.7220815579	-2.1810505508	-1.5543337404	 0.109178
H	-2.5973392526	-2.2427933074	-2.9399813316	 0.106829
H	-1.9456601521	-3.5794902318	-1.8756285969	 0.131504
H	-2.3500584178	-2.0287487863	 1.3931501384	 0.066954
H	-0.3994344136	-3.0748035111	 1.2380156114	 0.287035
59.465	110.0746	170.1786	215.3722	224.7459	260.7023	278.4534	317.8866	336.2058	402.7743	478.0598	541.0764	645.4264	772.9537	784.553	826.0367	833.4512	898.3893	913.7989	924.3022	954.5362	993.3244	1045.2818	1052.9581	1070.9819	1076.7471	1097.6384	1140.0428	1149.1531	1191.914	1197.2697	1212.023	1233.753	1247.6345	1269.8328	1307.3754	1330.7252	1376.5754	1391.6522	1422.2605	1436.8122	1461.8203	1487.4997	1501.6516	1503.8753	2988.7996	3001.2702	3031.27	3062.3233	3079.6451	3086.873	3120.7617	3129.7555	3201.6262	3222.7751	3812.81	3827.5884
OCC1CC2(CC2)C1O	OC[C@H]1CC2(CC2)[C@H]1O	
InChI=1S/C7H12O2/c8-4-5-3-7(1-2-7)6(5)9/h5-6,8-9H,1-4H2	InChI=1S/C7H12O2/c8-4-5-3-7(1-2-7)6(5)9/h5-6,8-9H,1-4H2/t5-,6+/m1/s1
