21
gdb 20023	4.535	1.13343	0.99131	1.2339	80.37	-0.2177	0.0879	0.3057	1259.736	0.188373	-329.083083	-329.074347	-329.073402	-329.116835	32.51	
C	-0.1447090878	 1.6114683143	-0.2393975166	-0.373805
C	 0.0146856453	 0.1744095748	 0.2514827564	-0.108711
N	-1.2620849548	-0.5281637118	 0.1675545492	-0.087073
C	-1.5470166259	-1.2757966769	-1.0539540296	-0.270072
C	-1.2963729119	-1.991491068	 0.2306403983	 0.01077
C	-0.0767567556	-2.8365864343	 0.4293938329	 0.016749
C	 0.254372524	-3.3585842942	 1.8092392947	-0.26711
C	-0.2462053864	-4.3032548199	 0.7483519072	-0.280416
H	 0.796877489	 2.1613338459	-0.1435650474	 0.107512
H	-0.4433931564	 1.6323443996	-1.292779876	 0.116226
H	-0.9144906713	 2.1304218467	 0.3384622715	 0.125269
H	 0.8159240118	-0.3203948353	-0.3226594555	 0.078173
H	 0.3286185986	 0.1699800648	 1.3020705253	 0.103513
H	-2.5507240147	-1.1778125038	-1.460356473	 0.109837
H	-0.7597199168	-1.3367065214	-1.8065048905	 0.100832
H	-2.1632140005	-2.3627401679	 0.7795559278	 0.080938
H	 0.7706113574	-2.5903220861	-0.2017480203	 0.083986
H	 1.2971175651	-3.4132262224	 2.1015534953	 0.111856
H	-0.4216080561	-3.1025623919	 2.6185367785	 0.115584
H	-1.2577989681	-4.6841763413	 0.844398868	 0.113861
H	 0.4517063449	-5.0065958709	 0.3082865238	 0.112082
54.6662	86.7266	136.8842	197.5867	240.5121	291.2962	326.3855	362.1085	453.8611	584.0014	725.1112	759.3669	807.1227	812.0477	830.2361	898.4156	925.2538	935.3862	980.4478	992.6837	1044.6914	1061.2214	1078.5593	1096.0872	1110.5472	1125.9752	1136.0927	1148.4918	1198.1315	1200.5146	1220.3048	1228.3934	1308.8184	1317.7938	1336.6401	1386.0152	1409.0548	1451.7542	1468.8753	1487.6622	1489.1884	1502.5897	1507.6076	1518.3737	2956.59	3037.4384	3049.3483	3076.6683	3086.6498	3105.7485	3118.6631	3130.0189	3134.3516	3159.3583	3165.5026	3208.453	3223.8899
CCN1CC1C1CC1	CCN1C[C@H]1C1CC1	
InChI=1S/C7H13N/c1-2-8-5-7(8)6-3-4-6/h6-7H,2-5H2,1H3	InChI=1S/C7H13N/c1-2-8-5-7(8)6-3-4-6/h6-7H,2-5H2,1H3/t7-,8?/m0/s1
