21
gdb 92487	2.42728	1.62618	1.61086	2.0999	76.27	-0.2361	0.0709	0.307	997.9715	0.18607	-424.243358	-424.235543	-424.234599	-424.275816	31.323	
O	-0.0531490449	 1.4508760949	-0.0194102176	-0.439668
C	 0.0215678281	 0.0303002959	 0.0112921656	 0.121588
C	 0.7523086887	-0.5208072313	 1.2699319994	-0.250226
C	-0.2222725591	-1.4013344779	 2.0738280186	-0.026179
C	-1.4215346911	-0.5524086193	 2.5358290957	-0.211737
C	-2.1672072035	-0.0278211802	 1.2767504015	-0.215856
C	-1.4179543371	-0.5068098026	 0.0282330759	 0.098414
O	-1.3583804849	-1.9330449372	-0.0153256912	-0.285924
C	-0.7423651084	-2.503348499	 1.145853478	-0.05692
H	 0.8435779495	 1.7965040584	-0.0630344341	 0.283104
H	 0.5059852708	-0.3447537612	-0.9008329247	 0.069183
H	 1.6399070399	-1.0969385045	 0.9864001539	 0.092983
H	 1.0880162013	 0.3239011361	 1.8819511165	 0.092671
H	 0.2853528486	-1.8569665121	 2.9300964535	 0.06218
H	-2.086435455	-1.1603960685	 3.1581103719	 0.094717
H	-1.0720123701	 0.2759781688	 3.16051591	 0.095952
H	-3.1918225043	-0.4080242696	 1.236373624	 0.098057
H	-2.2172206207	 1.0633870621	 1.2651167446	 0.119219
H	-1.9387033014	-0.2046288083	-0.8833860374	 0.077611
H	 0.0770940127	-3.156065789	 0.813141701	 0.090739
H	-1.478301299	-3.1333105157	 1.6667298347	 0.090093
46.5493	211.9684	261.2913	271.7571	310.1381	386.451	410.5142	453.4432	524.252	571.0189	661.172	795.9154	813.0536	820.9491	852.4313	883.6822	926.5396	957.2452	970.7626	1012.7374	1036.4749	1046.6193	1076.8314	1092.8144	1106.7988	1134.0785	1162.3114	1210.4678	1219.8406	1228.2301	1270.4732	1283.5577	1319.4388	1338.9688	1343.5746	1346.527	1359.8353	1376.428	1393.1881	1409.3814	1424.9866	1476.0418	1480.9564	1502.6815	1529.0608	2987.4739	2997.8123	3018.32	3031.1694	3036.9171	3056.7488	3061.0825	3074.8363	3077.8375	3087.0463	3112.9659	3821.5553
OC1CC2CCC1OC2	O[C@H]1C[C@H]2CC[C@@H]1OC2	
InChI=1S/C7H12O2/c8-6-3-5-1-2-7(6)9-4-5/h5-8H,1-4H2	InChI=1S/C7H12O2/c8-6-3-5-1-2-7(6)9-4-5/h5-8H,1-4H2/t5-,6+,7+/m1/s1
