12
gdb 132252	3.778	1.2051	0.91366	2.2244	72.4	-0.2771	-0.0702	0.2069	1139.5559	0.077842	-439.656686	-439.649739	-439.648795	-439.688333	25.959	
F	 0.010257515	 0.0514076895	 0.0028534892	-0.054096
C	-0.0132825871	 1.3736290716	 0.0104922137	 0.367904
C	-1.2399388815	 2.0238831823	 0.0308864629	-0.335051
C	-1.1786472839	 3.4184460259	 0.0377714407	 0.192588
N	-0.0020600631	 4.0783052572	 0.0253056051	-0.303819
C	 1.0875492599	 3.3222868521	 0.0062074465	 0.066515
N	 1.1498734762	 1.9847690123	-0.0020471354	-0.298578
C	-2.3779058523	 4.1934601503	 0.0584597177	 0.22793
C	-3.4032803316	 4.8217179393	 0.0759601211	-0.344794
H	-2.1759338762	 1.4828369796	 0.0407042826	 0.137405
H	 2.0404801864	 3.8445791476	-0.0039524771	 0.135104
H	-4.3013730418	 5.3893076523	 0.0913898432	 0.208891
129.1234	145.7723	221.8815	345.8792	412.7019	482.7163	497.1004	550.8554	584.157	655.2493	658.5282	706.3918	798.6269	801.2156	896.9637	970.7107	1000.337	1000.7642	1161.4208	1251.6032	1298.2296	1348.5039	1410.3864	1488.3878	1583.9288	1621.9502	2237.4729	3176.1903	3232.2786	3499.3424
FC1=CC(=NC=N1)C#C	Fc1cc(ncn1)C#C	
InChI=1S/C6H3FN2/c1-2-5-3-6(7)9-4-8-5/h1,3-4H	InChI=1S/C6H3FN2/c1-2-5-3-6(7)9-4-8-5/h1,3-4H
