18
gdb 71644	3.24852	1.9224	1.66222	0.6762	72.76	-0.2369	0.0607	0.2976	875.7561	0.149629	-401.898717	-401.892185	-401.89124	-401.929146	27.579	
C	-0.0420075677	 1.5467238236	 0.0693071898	-0.484342
C	 0.0123031655	 0.043815251	-0.0441254801	 0.41568
C	-1.1921918693	-0.6688750934	-0.6624170406	-0.266901
C	-0.594796874	-1.9979581144	-1.0799694796	-0.0408
C	 0.4969106443	-2.5896240784	-0.2635152976	-0.069054
C	 1.1849995514	-1.5066029591	 0.5927971806	 0.097907
O	 0.2902400112	-0.5977642565	 1.2492692411	-0.343047
C	 1.2484982588	-0.6831152428	-0.6900259514	-0.106413
N	 0.7977539533	-1.8419674694	-1.5616108741	-0.164727
H	 0.8800221777	 1.9336450071	 0.5116141197	 0.126606
H	-0.1763490736	 2.0009374889	-0.917816831	 0.121925
H	-0.8784311348	 1.8536441193	 0.7058742353	 0.130407
H	-2.0017501142	-0.7628121186	 0.0663424553	 0.118327
H	-1.5692137984	-0.1373078367	-1.5441233171	 0.104603
H	-1.1914232313	-2.6856548196	-1.6720766755	 0.096369
H	 0.647320979	-3.6614047791	-0.1830311249	 0.092424
H	 2.0319420108	-1.8164920414	 1.2055287644	 0.086472
H	 2.1001430812	-0.1163898403	-1.0581716044	 0.084563
198.0487	248.6046	264.8414	378.409	427.6841	527.8009	573.9329	673.6161	702.0421	755.3462	769.1941	785.2659	826.3969	889.4924	901.7881	919.6014	935.0933	955.2835	978.5373	983.3511	1015.0646	1044.5191	1081.765	1117.69	1168.8407	1175.6713	1183.2404	1211.54	1226.8557	1249.3969	1272.9511	1311.4381	1331.9171	1353.656	1408.2588	1409.5725	1471.4959	1479.3415	1493.1004	3035.3694	3041.0853	3101.0331	3107.358	3109.6482	3117.3915	3146.5195	3154.175	3166.4508
CC12CC3C4C(O1)C2N34	C[C@]12C[C@@H]3[C@@H]4[C@H](O1)[C@H]2N34	
InChI=1S/C7H9NO/c1-7-2-3-4-5(9-7)6(7)8(3)4/h3-6H,2H2,1H3	InChI=1S/C7H9NO/c1-7-2-3-4-5(9-7)6(7)8(3)4/h3-6H,2H2,1H3/t3-,4-,5+,6-,7-,8?/m1/s1
