22
gdb 113548	3.16182	0.96657	0.89053	1.9874	83.01	-0.2406	0.0685	0.3091	1447.1451	0.193048	-404.3119	-404.302143	-404.301199	-404.346846	36.005	
C	 0.0452312151	 1.521767566	-0.4466221991	-0.375557
C	-0.0242344007	 0.1842248054	 0.297977607	-0.183042
C	-1.3961659902	-0.4468374793	 0.2235800246	-0.076069
N	-1.7229095038	-1.1640507322	-1.0322804367	-0.382096
C	-1.6107087429	-1.9083953439	 0.2134068933	 0.253227
C	-0.6573597054	-3.0697952368	 0.4633663693	-0.132692
O	-1.6773363811	-3.7577301169	 1.2237134612	-0.299024
C	-2.6742149945	-2.7455237547	 0.9324058888	 0.083073
C	-3.3332833866	-2.2001158856	 2.1837556101	-0.402664
H	 1.048659103	 1.9544728152	-0.3923678279	 0.112649
H	-0.2106200132	 1.3849867839	-1.5016713425	 0.13126
H	-0.6548754479	 2.2499645751	-0.0217192503	 0.110187
H	 0.706505911	-0.5128629678	-0.1272165051	 0.10476
H	 0.2469767835	 0.3246791421	 1.3524955843	 0.097229
H	-2.1953628394	 0.1486373743	 0.6672183999	 0.081276
H	-2.7010814722	-1.0337839565	-1.2821596793	 0.22838
H	-0.3668949462	-3.6200174943	-0.4403942615	 0.10736
H	 0.2342816172	-2.8622463177	 1.0672899623	 0.104222
H	-3.4348984472	-3.1452059967	 0.2427712292	 0.072916
H	-2.5874934844	-1.7775284967	 2.862883269	 0.122243
H	-4.0613227775	-1.4212263195	 1.9302930941	 0.112517
H	-3.8657420866	-3.0000535832	 2.7078189892	 0.129844
68.8327	89.0979	132.7895	136.693	215.7444	226.7515	258.7582	295.6417	396.7857	437.696	449.0791	518.2121	600.0686	767.4446	787.6015	831.9643	874.448	880.5249	941.9248	960.764	1006.8764	1013.5238	1034.7177	1065.2966	1087.827	1090.6807	1108.6612	1123.753	1146.0315	1155.8072	1227.4342	1272.8308	1281.0041	1305.3964	1319.3186	1345.9618	1380.0822	1386.7519	1404.1567	1408.5369	1475.8029	1482.2133	1489.5235	1497.9309	1503.0269	1511.2877	1519.1024	2972.4295	3014.3305	3024.939	3033.4658	3033.8041	3059.397	3065.2842	3096.1502	3102.439	3104.1056	3114.0762	3118.8179	3484.5445
CCC1NC11COC1C	CC[C@H]1N[C@]21CO[C@H]2C	
InChI=1S/C7H13NO/c1-3-6-7(8-6)4-9-5(7)2/h5-6,8H,3-4H2,1-2H3	InChI=1S/C7H13NO/c1-3-6-7(8-6)4-9-5(7)2/h5-6,8H,3-4H2,1-2H3/t5-,6+,7+/m0/s1
