19
gdb 87739	4.71908	0.87291	0.83005	4.9733	81.53	-0.2334	0.0178	0.2512	1422.7094	0.159151	-382.047375	-382.038494	-382.03755	-382.081269	33.279	
C	 0.0859552845	 1.5060797345	-0.2078934622	-0.407119
C	 0.0750004151	 0.0069720312	-0.0089230578	-0.068411
C	 1.3674608075	-0.7967272539	-0.0636953821	-0.349601
C	 0.6361317568	-0.6357241664	 1.2285146226	 0.373534
C	 1.0710081847	 0.049942054	 2.5265526602	-0.332916
C	 0.0836042526	-0.9311408434	 3.2319542597	-0.11403
N	 0.0114855625	-1.7331642297	 1.9846077372	-0.351471
C	 0.5702077807	-1.6591106177	 4.4042866309	 0.293031
N	 0.9566622535	-2.2148036102	 5.3410371655	-0.32358
H	 0.9770898558	 1.959261599	 0.2392003779	 0.118398
H	 0.0899394599	 1.7610361785	-1.2731998395	 0.124894
H	-0.7916926425	 1.9811790245	 0.2451049447	 0.117046
H	-0.7937027517	-0.4981074047	-0.429189876	 0.084719
H	 1.3471046661	-1.7751600069	-0.5325171327	 0.120648
H	 2.2986096632	-0.2528028886	-0.1956765815	 0.114444
H	 2.1129494717	-0.1298205971	 2.7957811759	 0.135639
H	 0.8383345863	 1.1091908786	 2.6383477936	 0.123455
H	-0.8548056753	-0.4316870667	 3.5033794002	 0.116233
H	-0.9326806412	-1.9794122352	 1.7035547336	 0.225088
50.4879	119.7517	186.1112	196.9707	216.8794	252.376	350.9961	412.5886	458.1759	479.1635	559.5787	585.7049	696.7103	783.5673	788.1988	864.1589	887.3607	911.4747	958.7873	992.6475	1006.8003	1037.6201	1045.0056	1088.0821	1113.3519	1122.6556	1139.4886	1181.6733	1212.8547	1241.0434	1266.4862	1324.6728	1347.2534	1382.8429	1412.5268	1430.3832	1483.4398	1492.5607	1493.5895	1505.5311	2357.9489	3023.4001	3025.7938	3085.7952	3088.3119	3092.7531	3117.8449	3120.7193	3144.2281	3209.364	3513.6589
CC1CC11CC(N1)C#N	C[C@H]1C[C@]21C[C@@H](N2)C#N	
InChI=1S/C7H10N2/c1-5-2-7(5)3-6(4-8)9-7/h5-6,9H,2-3H2,1H3	InChI=1S/C7H10N2/c1-5-2-7(5)3-6(4-8)9-7/h5-6,9H,2-3H2,1H3/t5-,6+,7+/m0/s1
