21
gdb 107553	2.44082	1.54188	1.10085	1.3593	84.17	-0.2211	0.0283	0.2494	1168.2908	0.182702	-387.093459	-387.084504	-387.08356	-387.126705	34.694	
C	-0.0938637225	 1.5042153196	-0.10230189	-0.488112
C	-0.0441546019	 0.0079088735	-0.0744228164	 0.264302
C	 0.1187693277	-0.8129016263	-1.1183914729	-0.182571
C	 0.1162063277	-2.2743791603	-0.7288269353	-0.277553
C	 0.0337820758	-2.2294755077	 0.7958675604	-0.096346
C	 1.1386591948	-1.5379368056	 1.55273059	-0.331685
C	-0.1358377044	-0.7764261255	 1.2086695944	 0.252428
C	-1.0540346384	-0.3387669729	 2.322520511	-0.167091
O	-0.622707014	 0.8569348608	 2.9624277503	-0.415657
H	 0.7229531675	 1.9402134426	 0.4851620136	 0.122236
H	-0.0246192307	 1.8816531846	-1.1262899493	 0.11385
H	-1.0186524806	 1.8837481362	 0.3455654974	 0.13683
H	 0.2620179793	-0.4834717057	-2.1423132341	 0.083617
H	-0.7435513866	-2.8063708118	-1.1591443351	 0.105146
H	 1.0110398666	-2.8034638199	-1.0826941869	 0.106467
H	-0.5099528606	-3.0110189611	 1.3147430419	 0.084565
H	 1.2821066451	-1.8443776109	 2.5856693861	 0.103171
H	 2.0504595593	-1.2700053155	 1.0285009806	 0.112639
H	-2.0547098063	-0.1169283291	 1.9353164026	 0.109625
H	-1.1606562587	-1.1604456047	 3.0492979642	 0.083889
H	 0.293135911	 0.7184234295	 3.2273835575	 0.280251
96.5087	138.43	176.6968	215.0263	249.6159	285.6473	321.0974	352.329	393.6004	427.3848	567.808	613.0925	688.0701	732.0245	814.5914	823.1206	871.3261	899.8146	947.1782	956.8144	971.9084	1024.9022	1027.7289	1042.8153	1063.3906	1067.4362	1088.0928	1093.4096	1151.7693	1186.2604	1211.5814	1253.186	1271.6511	1319.9964	1343.4242	1385.2605	1390.7622	1417.5518	1424.7789	1471.6784	1476.6427	1479.1953	1485.7656	1505.5516	1705.5359	2970.7542	3008.5439	3028.3631	3034.8336	3063.81	3079.2594	3110.4702	3112.1758	3168.3203	3184.333	3201.1897	3804.5096
CC1=CCC2CC12CO	CC1=CC[C@H]2C[C@@]12CO	
InChI=1S/C8H12O/c1-6-2-3-7-4-8(6,7)5-9/h2,7,9H,3-5H2,1H3	InChI=1S/C8H12O/c1-6-2-3-7-4-8(6,7)5-9/h2,7,9H,3-5H2,1H3/t7-,8+/m0/s1
