18
gdb 16705	3.45848	1.87506	1.62236	2.2861	66.92	-0.2515	0.074	0.3255	857.6142	0.155392	-384.91935	-384.912217	-384.911273	-384.950178	28.749	
O	-0.0151883726	 1.388511765	-0.1017737036	-0.450908
C	 0.0467526823	-0.0202102963	-0.0283365564	 0.159015
C	 0.1172794653	-0.6193666643	 1.4140370499	-0.065355
C	-1.3998633145	-0.2782067717	 1.5171604469	-0.238624
C	-1.3784294193	-0.6357562764	 0.0005622128	-0.037526
C	-1.0643991098	-2.1356192514	 0.0349537319	 0.129653
O	-0.6499227237	-2.5674190941	-1.2513666595	-0.44202
C	 0.0788356267	-2.1271959163	 1.1148443337	-0.26453
H	 0.8622359593	 1.7319611512	 0.0927921522	 0.281612
H	 0.7420900253	-0.4291217703	-0.7710706429	 0.071782
H	 0.8465659031	-0.2634104893	 2.1444698954	 0.051732
H	-2.017536351	-0.8898947985	 2.1818990367	 0.082791
H	-1.5835939636	 0.7812466932	 1.6841254295	 0.117424
H	-2.1496072634	-0.3071488124	-0.6949474387	 0.071123
H	-1.936080101	-2.715856046	 0.3682852253	 0.064414
H	-0.4112059358	-3.4974997515	-1.1920207903	 0.280832
H	 1.0121671673	-2.5030554439	 0.6828237832	 0.093609
H	-0.1620123046	-2.7256778567	 1.9983642439	 0.094976
167.5884	258.9373	262.8917	286.0173	322.1264	380.3455	438.3053	486.0048	556.1208	663.7492	818.2932	832.8402	857.5805	889.7475	900.2681	947.8145	965.2445	995.0484	1025.9907	1039.6728	1073.2615	1090.8049	1102.6496	1142.4819	1172.0426	1194.5766	1223.6204	1234.0096	1256.2555	1269.7297	1283.885	1312.288	1332.2399	1344.5059	1420.2356	1432.1861	1481.9428	1501.5596	2996.1665	3033.6552	3044.161	3057.9471	3092.2303	3093.9879	3129.1865	3158.1304	3819.034	3821.6891
OC1C2CC1C(O)C2	O[C@H]1[C@H]2C[C@@H]1[C@@H](O)C2	
InChI=1S/C6H10O2/c7-5-2-3-1-4(5)6(3)8/h3-8H,1-2H2	InChI=1S/C6H10O2/c7-5-2-3-1-4(5)6(3)8/h3-8H,1-2H2/t3-,4+,5-,6-/m0/s1
