14
gdb 5514	3.45935	1.94073	1.25309	5.0541	67.66	-0.2446	-0.0547	0.1899	905.2506	0.108508	-378.769728	-378.762532	-378.761588	-378.801426	25.304	
C	-0.0262865137	 1.4452192612	 0.0363271816	-0.347765
N	-0.0091160027	-0.0072267632	 0.0249859686	-0.058643
C	-0.0293337309	-0.793173853	-1.0773254075	 0.017184
N	-0.0061555621	-2.0846297097	-0.7903830791	-0.267151
C	 0.0309522813	-2.1389673408	 0.5672319538	-0.118355
C	 0.0304756246	-0.8672222723	 1.1185677654	 0.1737
C	 0.0624787456	-0.4408257504	 2.5050253659	 0.067836
O	 0.0965866994	-1.2005071453	 3.4502670105	-0.274085
H	 0.8716909654	 1.8436705223	 0.5163948771	 0.156666
H	-0.0573742311	 1.7998008813	-0.9952854241	 0.151949
H	-0.9073843007	 1.8223189356	 0.5627032213	 0.156658
H	-0.0610685888	-0.371184151	-2.0720598425	 0.139431
H	 0.0566658205	-3.0727190217	 1.1078782966	 0.144524
H	 0.0531425931	 0.661687557	 2.6629140524	 0.058051
124.182	150.3021	186.8039	197.8946	262.2102	328.2343	538.0295	636.0033	647.5476	671.4001	814.2255	842.1984	902.2902	935.2416	1024.0528	1079.8855	1150.9924	1159.0804	1197.6868	1256.1442	1325.8554	1366.2931	1390.6737	1448.1366	1460.4376	1483.061	1504.6357	1523.9093	1571.3718	1778.5577	2865.1033	3048.7047	3114.9259	3142.305	3240.1471	3261.0116
CN1C=NC=C1C=O	Cn1cncc1C=O	
InChI=1S/C5H6N2O/c1-7-4-6-2-5(7)3-8/h2-4H,1H3	InChI=1S/C5H6N2O/c1-7-4-6-2-5(7)3-8/h2-4H,1H3
