16
gdb 109642	2.11909	1.36794	1.04815	4.3432	67.42	-0.2661	-0.002	0.2641	1181.6998	0.121504	-474.984806	-474.975335	-474.974391	-475.019259	33.734	
C	 0.012062829	 1.1415226755	 0.4157539885	-0.254352
O	-0.0777149971	-0.0666695723	-0.3375605799	-0.248653
C	-1.3424214373	-0.6294096719	-0.319776936	-0.006367
C	-1.5420268306	-1.9787099856	-0.9573703862	 0.045374
O	-0.5136147892	-2.6489951049	-1.5808804972	-0.420016
C	-1.4785106098	-1.8811092152	 0.5753927529	 0.156903
O	-0.2713073198	-2.3566240082	 1.0967382583	-0.46154
C	-2.6357183816	-2.0831754307	 1.3996509808	 0.263856
N	-3.5989669954	-2.2178406086	 2.027092888	-0.341003
H	 1.0473610528	 1.4786273585	 0.3432256095	 0.146554
H	-0.6492277528	 1.9110076044	-0.0020562842	 0.134271
H	-0.2497918323	 0.9836216818	 1.470250694	 0.128957
H	-2.1773866156	 0.0684193469	-0.3370910631	 0.12011
H	-2.5120052974	-2.1528684217	-1.4133150505	 0.134009
H	 0.0900295255	-2.9412608478	-0.8806252443	 0.297427
H	 0.3498560115	-1.6127117801	 1.0716452895	 0.304469
76.1277	112.8006	151.8436	166.5796	187.4806	242.8415	272.9016	308.6964	349.5009	470.9985	486.0992	552.2089	570.9272	627.0083	668.429	738.921	827.8207	874.2224	1020.8415	1051.7473	1085.2664	1129.6702	1147.8805	1182.5952	1209.8814	1236.7288	1261.3087	1347.5418	1376.4091	1388.4311	1451.4274	1485.9981	1489.1341	1507.6281	2344.1752	3006.3631	3068.9009	3129.3209	3139.168	3163.5423	3708.0569	3716.8586
COC1C(O)C1(O)C#N	CO[C@H]1[C@@H](O)[C@]1(O)C#N	
InChI=1S/C5H7NO3/c1-9-4-3(7)5(4,8)2-6/h3-4,7-8H,1H3	InChI=1S/C5H7NO3/c1-9-4-3(7)5(4,8)2-6/h3-4,7-8H,1H3/t3-,4+,5-/m1/s1
