19
gdb 53515	5.09041	0.6052	0.58242	4.4142	86.5	-0.2389	0.0122	0.251	1917.5139	0.156601	-382.040439	-382.029665	-382.028721	-382.078154	36.464	
C	 0.1034244838	 1.5090819847	-0.0277669494	-0.500496
C	 0.0462217021	 0.0545518414	-0.0349340502	 0.148747
C	-0.0022159427	-1.1480883866	-0.0315225543	 0.006965
C	-0.0314139084	-2.6067097787	-0.0313461351	-0.308705
N	-1.3945358462	-3.1522398262	 0.0055549048	-0.06282
C	-2.1767630064	-2.7825403156	-1.1695338994	-0.340407
C	-1.3472004715	-4.5939039253	 0.2025225434	-0.273427
C	-2.6721530835	-5.1546899505	 0.492227461	 0.276004
N	-3.7090579591	-5.61345633	 0.7119570627	-0.307094
H	 0.9779534798	 1.8660843668	 0.5270293026	 0.152463
H	 0.1660079462	 1.9135496534	-1.0437888956	 0.149952
H	-0.7861850562	 1.9361617664	 0.4475886679	 0.154584
H	 0.5319085083	-2.9820937163	-0.9101080168	 0.10859
H	 0.499303332	-2.9775160805	 0.8550043515	 0.131134
H	-1.7556786381	-3.1921340937	-2.1072221753	 0.094914
H	-3.1995986927	-3.1511794899	-1.0600991041	 0.147494
H	-2.2054337625	-1.6946440883	-1.2503841621	 0.143189
H	-0.9324978016	-5.1419114226	-0.6675484788	 0.126884
H	-0.6951935532	-4.8166311385	 1.0550421773	 0.15203
25.0832	46.5805	80.2076	96.9972	165.1643	218.2249	254.0369	287.9807	318.2558	345.5421	382.173	394.402	397.1776	464.0964	615.7443	786.0492	861.0484	948.573	983.2032	1013.0331	1046.3645	1052.6242	1055.1397	1152.0758	1172.8509	1181.0519	1212.2959	1292.6238	1309.0876	1367.8526	1413.1109	1416.718	1459.8197	1470.3414	1476.7625	1478.6782	1484.101	1498.8862	1503.6919	2366.9441	2376.6839	2892.654	2905.9414	2933.6256	3029.8824	3031.1455	3058.6102	3091.3312	3091.6442	3092.9351	3140.8126
CC#CCN(C)CC#N	CC#CCN(C)CC#N	
InChI=1S/C7H10N2/c1-3-4-6-9(2)7-5-8/h6-7H2,1-2H3	InChI=1S/C7H10N2/c1-3-4-6-9(2)7-5-8/h6-7H2,1-2H3
