16
gdb 52219	4.78294	0.71913	0.69235	1.1134	69.61	-0.2728	-0.056	0.2168	1583.5407	0.121543	-474.991568	-474.982375	-474.981431	-475.027275	31.294	
N	-0.6303736847	 1.0976614259	-0.5096223316	-0.431597
C	-0.665451261	-0.1601275293	-0.5661847056	 0.128928
O	-0.2707347367	-0.8863767036	 0.5087876243	-0.183051
C	-0.4224624673	-2.2977723725	 0.4091519398	-0.13189
C	-1.8500456852	-2.7039464374	 0.6898667864	 0.055675
O	-2.7637718588	-2.6937275661	-0.3991205499	-0.237438
C	-2.4713802962	-3.9604174334	 0.201976248	-0.050888
C	-1.7258438297	-4.9387398744	-0.6508681355	 0.13729
O	-1.7269455795	-6.1236064645	-0.4413195336	-0.234733
H	-0.9363248219	 1.4947473887	-1.3955089622	 0.234081
H	-0.9842915806	-0.7754859967	-1.4168109509	 0.102343
H	-0.0985607689	-2.6558423759	-0.5747190447	 0.118038
H	 0.2421572551	-2.7198469912	 1.16812415	 0.140965
H	-2.2526724344	-2.2911553365	 1.6158739041	 0.129402
H	-3.2674367876	-4.4002691216	 0.800918385	 0.129096
H	-1.1827121625	-4.4845003316	-1.5076047138	 0.093779
42.9539	63.4625	88.3759	111.2808	197.7942	266.2169	325.0158	334.988	438.2018	451.5199	526.585	650.1155	822.784	824.9674	864.1059	936.5586	977.4926	1002.313	1041.3573	1049.9174	1087.6524	1129.2991	1154.8657	1165.69	1248.0941	1270.7219	1320.5014	1338.5139	1384.3951	1408.6379	1423.0422	1471.4795	1484.7321	1749.3981	1828.2586	2903.3297	3039.7915	3049.3755	3102.1889	3116.1325	3138.3841	3520.6575
N=COCC1OC1C=O	[NH][CH]OC[C@H]1O[C@H]1C=O	
InChI=1S/C5H7NO3/c6-3-8-2-5-4(1-7)9-5/h1,3-6H,2H2	InChI=1S/C5H7NO3/c6-3-8-2-5-4(1-7)9-5/h1,3-6H,2H2/t4-,5+/m0/s1
