14
gdb 53992	1.83599	1.60247	1.28114	4.9265	64.46	-0.2639	-0.0651	0.1989	1055.4306	0.09874	-470.019619	-470.010415	-470.009471	-470.054032	32.979	
N	 0.0430841882	 1.0031146615	 0.8966381594	-0.543064
C	 0.0630863236	 0.0457543245	-0.0664127956	 0.317566
N	 0.942745226	-0.2327392368	-0.9478454454	-0.517754
C	-1.1980539323	-0.8546169417	-0.0542227965	 0.114736
O	-2.2279149606	-0.3212760205	 0.7281763708	-0.456427
C	-1.6832766456	-0.9593581968	-1.5264962076	 0.145396
O	-2.7938247821	-0.5890197835	-1.799721319	-0.260739
C	-0.8383932108	-2.2085872633	 0.408790854	 0.287459
N	-0.5848876814	-3.2805605683	 0.7568261228	-0.323793
H	 0.7261034957	 1.7416345735	 0.8804483661	 0.262132
H	-0.825679112	 1.1600040333	 1.3828508506	 0.280638
H	 1.7566437634	 0.3802489777	-0.8953049862	 0.216585
H	-2.97615891	-0.200795659	 0.1137411937	 0.307009
H	-0.9569510422	-1.3550980005	-2.248610967	 0.170256
44.2135	95.4802	142.1113	184.6004	270.2038	309.0991	349.5046	354.7594	418.0756	452.9052	488.6908	520.5302	563.87	597.564	618.9535	677.142	821.2455	849.344	930.4747	995.0958	1084.8957	1099.9004	1132.8485	1187.6872	1350.9952	1399.3442	1422.7643	1610.0565	1730.3194	1819.0737	2357.1063	3068.6606	3475.5476	3590.302	3609.0703	3719.2247
NC(=N)C(O)(C=O)C#N	NC(=N)[C@@](O)(C=O)C#N	
InChI=1S/C4H5N3O2/c5-1-4(9,2-8)3(6)7/h2,9H,(H3,6,7)	InChI=1S/C4H5N3O2/c5-1-4(9,2-8)3(6)7/h2,9H,(H3,6,7)/t4-/m0/s1
