18
gdb 74485	3.23576	1.24148	0.97075	3.6628	82.89	-0.2349	-0.0457	0.1892	1224.1422	0.147641	-401.968869	-401.960428	-401.959484	-402.00223	31.672	
C	 0.0039309751	 1.5123821227	 0.0124011139	-0.492501
C	-0.0378533146	 0.0204277693	 0.0050047446	 0.192906
C	-1.08799218	-0.8098928165	 0.1187554262	-0.23152
C	-0.7102197678	-2.2423063801	 0.0626182577	 0.32284
C	-1.5056084153	-3.272897541	 0.7888784273	-0.28572
N	-1.5473114755	-3.2129891613	-0.6768026469	-0.350224
C	 0.8002021649	-2.2724675298	-0.1218102938	-0.420286
C	 1.204208173	-0.7905719881	-0.1341069294	 0.316654
O	 2.3281977554	-0.3532761482	-0.2278470771	-0.325621
H	 0.6638425385	 1.8732008222	 0.8088072633	 0.145822
H	 0.4242799519	 1.8901559402	-0.9261893601	 0.145339
H	-0.9883648089	 1.948139353	 0.152055286	 0.120124
H	-2.123945212	-0.5017359312	 0.2354329156	 0.107508
H	-0.996298452	-4.142123688	 1.1966805569	 0.126812
H	-2.3735078248	-2.9473980918	 1.3579032211	 0.114012
H	-2.409102282	-2.7677778764	-0.9865630993	 0.232197
H	 1.3301113515	-2.7936658836	 0.6808175891	 0.133768
H	 1.0791894327	-2.7499531012	-1.0650277849	 0.147892
74.5261	97.1761	148.494	235.223	294.0682	320.2538	353.22	454.3901	466.3585	519.1139	608.5109	635.1382	751.8025	800.4737	836.8317	897.1355	930.3251	945.5361	968.3281	990.9645	999.9964	1067.6171	1069.4253	1088.5151	1135.7967	1166.5104	1195.9328	1234.305	1269.6104	1323.5133	1341.5786	1394.5785	1415.5008	1449.2082	1472.3716	1483.9527	1508.3634	1686.7275	1809.317	3036.8625	3067.0045	3090.3614	3101.2646	3111.7047	3122.5425	3164.8214	3188.1634	3483.5597
CC1=CC2(CN2)CC1=O	CC1=C[C@]2(CN2)CC1=O	
InChI=1S/C7H9NO/c1-5-2-7(4-8-7)3-6(5)9/h2,8H,3-4H2,1H3	InChI=1S/C7H9NO/c1-5-2-7(4-8-7)3-6(5)9/h2,8H,3-4H2,1H3/t7-/m1/s1
