17
gdb 87588	2.61976	1.46686	1.27752	2.5417	68.35	-0.2487	0.0723	0.321	1043.3495	0.134548	-458.889002	-458.880853	-458.879909	-458.921628	31.438	
O	-0.1200036603	 1.4040520179	-0.1058858798	-0.422956
C	-0.0338017969	 0.0115533634	-0.0378429362	 0.045183
C	-0.4443562254	-0.6985445988	 1.2352681067	-0.411805
C	-1.3232660473	-0.7265702975	 0.011710792	 0.302101
C	-2.7177861546	-0.1642464348	-0.1315452913	-0.05852
O	-2.98757254	-0.0941910298	-1.5460421237	-0.257612
C	-3.1663342094	-1.3523672998	-0.8789054505	-0.013553
C	-1.7553366216	-1.9807455915	-0.8097488131	 0.021893
O	-1.1148663295	-2.2238495664	-2.0288166618	-0.433811
H	 0.6355792705	 1.7726452938	 0.3639023255	 0.28939
H	 0.7617339727	-0.4417136762	-0.6300551801	 0.098497
H	 0.0760375545	-1.6068933595	 1.5238545481	 0.116712
H	-0.7653974017	-0.0699589566	 2.0604443805	 0.116388
H	-3.2664707505	 0.5098327832	 0.5134413921	 0.113229
H	-4.1374831288	-1.8268864209	-0.9572443158	 0.107481
H	-1.713151087	-2.9023745923	-0.223096462	 0.095169
H	-1.2678865046	-1.4349153443	-2.5661165006	 0.292212
105.9652	133.6086	172.9287	228.1215	306.3891	317.5564	435.8065	463.703	491.6591	532.9179	604.965	714.3847	773.1162	817.2072	850.8168	866.2085	886.7811	889.4185	993.1002	997.66	1006.117	1035.2827	1053.0192	1083.074	1122.8517	1158.2213	1183.9457	1212.7134	1217.8219	1258.5129	1281.8322	1294.8959	1355.6619	1373.3701	1429.9313	1436.0763	1498.8296	3084.09	3100.1735	3118.2261	3186.1012	3208.097	3209.3487	3764.6915	3804.3319
OC1CC11C2OC2C1O	O[C@H]1C[C@]21[C@H]1O[C@H]1[C@H]2O	
InChI=1S/C6H8O3/c7-2-1-6(2)4(8)3-5(6)9-3/h2-5,7-8H,1H2	InChI=1S/C6H8O3/c7-2-1-6(2)4(8)3-5(6)9-3/h2-5,7-8H,1H2/t2-,3-,4+,5-,6+/m0/s1
