18
gdb 79677	2.60768	1.51647	1.20345	2.8492	78.25	-0.219	-0.0185	0.2005	1080.4758	0.146584	-401.870178	-401.861803	-401.860859	-401.903794	31.406	
C	-0.0960961388	 1.6116450602	-0.0321354802	-0.392716
C	 0.1383356026	 0.1054299239	 0.0609599994	-0.082121
C	 1.3752953239	-0.6869412411	-0.1907348395	-0.118921
C	 2.67361612	-0.1649820749	 0.4684512274	-0.051004
N	 2.4025604642	 1.1316844583	 1.1405713835	-0.344543
C	 2.0486858501	-0.1450052773	 1.8044654226	-0.126548
C	 0.7099468896	-0.6753523611	 1.2406919608	 0.235917
C	 0.0235525497	-1.8137422105	 1.8383590416	 0.064613
O	 0.3101756801	-2.3038495666	 2.9096328746	-0.287538
H	 0.6635536354	 2.1002400172	-0.6424401237	 0.134561
H	-1.0759149687	 1.7955071929	-0.4851389879	 0.102489
H	-0.0763843353	 2.0861389319	 0.9489426499	 0.136999
H	-0.7109222135	-0.4615746393	-0.3229623861	 0.101313
H	 1.3826378613	-1.5444795259	-0.8526249143	 0.108759
H	 3.6718127493	-0.4554909696	 0.170876264	 0.104684
H	 3.2850402963	 1.4398862376	 1.5489581643	 0.235435
H	 2.4416999012	-0.4335839536	 2.7686483777	 0.118526
H	-0.8034877173	-2.2278121519	 1.2149966959	 0.060095
40.617	103.9009	187.6085	215.783	253.9384	281.1215	412.1986	432.8898	541.291	627.1876	671.5607	715.0368	734.8907	824.6311	842.1088	875.0937	910.4101	930.5248	943.4113	973.1966	1041.842	1048.2432	1066.358	1082.9915	1108.6994	1117.6948	1139.3136	1231.3108	1240.0872	1267.141	1330.212	1346.8265	1368.7357	1418.7632	1427.4528	1458.6155	1486.6312	1489.0813	1779.476	2853.0669	3047.0218	3098.2715	3129.285	3152.8191	3188.7725	3208.1807	3228.0678	3470.386
CC1C2C3NC3C12C=O	C[C@H]1[C@H]2[C@H]3N[C@H]3[C@@]12C=O	
InChI=1S/C7H9NO/c1-3-4-5-6(8-5)7(3,4)2-9/h2-6,8H,1H3	InChI=1S/C7H9NO/c1-3-4-5-6(8-5)7(3,4)2-9/h2-6,8H,1H3/t3-,4-,5+,6+,7-/m0/s1
