18
gdb 54527	3.11455	1.42322	1.14151	3.2541	72.07	-0.2368	0.0322	0.269	1092.8794	0.148719	-439.116079	-439.107781	-439.106837	-439.149018	31.697	
N	 0.2683507892	 0.8718804965	-0.7686277342	-0.539064
C	-0.0001148024	 0.038670338	 0.2685807378	 0.329152
O	 0.6812022332	-0.0470828605	 1.27601072	-0.385408
C	-1.2232762171	-0.8046915781	 0.0762742658	 0.354683
C	-1.9835312997	-1.306672241	 1.2814196409	-0.346273
C	-1.2291062107	-2.2797436267	 0.4084609798	-0.095537
C	-1.9728299582	-2.9393137737	-0.7412454283	-0.245447
C	-2.6868826589	-1.7546479937	-1.4301070547	-0.103622
O	-1.9347646397	-0.576834139	-1.1174688922	-0.323432
H	 1.0744543721	 1.4706403029	-0.7147715696	 0.260023
H	-0.3390057257	 0.8940980328	-1.5695094047	 0.271819
H	-1.5361173887	-1.0692215404	 2.239065909	 0.145695
H	-3.0675791782	-1.2807959112	 1.2481191738	 0.114875
H	-0.3340374978	-2.7420578695	 0.805295352	 0.114781
H	-1.2520711317	-3.4107848838	-1.416932859	 0.114142
H	-2.6866898612	-3.7059133659	-0.4252279226	 0.111963
H	-2.7341099898	-1.8448903068	-2.5186104943	 0.114221
H	-3.7128379647	-1.64457029	-1.0556841994	 0.107427
71.172	146.8596	188.199	221.9267	230.1305	351.5546	380.1094	450.5043	491.0095	608.3383	641.189	661.5959	713.6997	758.8201	827.7331	866.9045	893.7464	927.9185	943.5371	979.6685	1018.2045	1047.3008	1076.7617	1089.0916	1094.8548	1134.2228	1213.9314	1221.8032	1235.4058	1255.4237	1313.9557	1359.5956	1390.0469	1425.4315	1465.9783	1495.5083	1526.3921	1598.2615	1787.7355	3016.9978	3050.4075	3085.1017	3098.5661	3137.4502	3195.4171	3236.206	3606.4316	3748.7957
NC(=O)C12CC1CCO2	NC(=O)[C@]12C[C@H]1CCO2	
InChI=1S/C6H9NO2/c7-5(8)6-3-4(6)1-2-9-6/h4H,1-3H2,(H2,7,8)	InChI=1S/C6H9NO2/c7-5(8)6-3-4(6)1-2-9-6/h4H,1-3H2,(H2,7,8)/t4-,6+/m1/s1
