15
gdb 51245	3.78882	1.06613	0.8364	6.1874	75.08	-0.2344	-0.04	0.1944	1284.4498	0.113847	-453.993982	-453.986144	-453.9852	-454.026894	28.66	
N	 0.1347648487	 1.3480476291	 0.0098168534	-0.552112
C	 0.0384846402	 0.0871401162	 0.0032900104	 0.44221
O	 1.1267296572	-0.7757722202	-0.0070342429	-0.249454
C	 0.6694262282	-2.1178095568	-0.0122057462	-0.185007
C	-0.8353509564	-2.0082666679	-0.0039266786	 0.389629
N	-1.6051050656	-3.1590788203	-0.0064276278	-0.403117
C	-2.9837370615	-3.2095806703	 0.0000757383	 0.153899
O	-3.7106356574	-2.2479021314	 0.0089680391	-0.278114
C	-1.1841799732	-0.7136030071	 0.0050516545	-0.312235
H	 1.1146252643	 1.6336626331	 0.0064288612	 0.221963
H	 1.0460230988	-2.6355427671	-0.9063561668	 0.12754
H	 1.0551145965	-2.6454867019	 0.8722027706	 0.127536
H	-1.1211542733	-4.0447906095	-0.0136895161	 0.260502
H	-3.3453536522	-4.2549355623	-0.0039007097	 0.09612
H	-2.1738794441	-0.2930506836	 0.0124076307	 0.160641
78.3598	148.5444	158.162	203.3133	307.7143	312.516	470.0931	493.8242	558.083	573.1992	694.5074	699.0756	837.6516	851.7688	885.3318	900.1201	956.196	1015.0228	1037.6859	1041.9389	1080.9687	1122.4328	1200.9719	1233.1274	1246.9291	1324.793	1388.8411	1434.1813	1507.4462	1542.96	1694.8123	1764.5941	1820.439	2961.495	2995.4156	3024.0451	3307.5112	3486.1443	3612.6999
N=C1OCC(NC=O)=C1	[NH]C1=C[C](CO1)NC=O	
InChI=1S/C5H6N2O2/c6-5-1-4(2-9-5)7-3-8/h1,3,6H,2H2,(H,7,8)	InChI=1S/C5H6N2O2/c6-5-1-4(2-9-5)7-3-8/h1,3,6H,2H2,(H,7,8)
