16
gdb 22441	2.98854	1.08402	0.80069	9.7874	79.34	-0.1752	-0.0471	0.1281	1364.5871	0.121103	-471.160959	-471.150899	-471.149955	-471.196308	34.732	
C	 0.0577653654	 1.3770479304	-0.0547831001	-0.351287
N	-0.0877317342	-0.0507257715	 0.1189996862	-0.29212
C	-1.2373504125	-0.7344953217	 0.0283727823	 0.420426
N	-2.3818967268	-0.0254347486	-0.0989576128	-0.570152
H	-3.2625419832	-0.5093302399	-0.0880114235	 0.282497
H	-2.3979232823	 0.9530101739	 0.1305498613	 0.272067
C	-1.2002779327	-2.1590032454	 0.0318226827	 0.117097
C	-2.409418953	-2.9625643777	 0.0855155338	 0.077004
O	-2.4984243667	-4.1681413278	 0.0204109918	-0.275571
N	 0.106064344	-2.6338478144	 0.0217342636	-0.102327
O	 0.3047935899	-3.8433256546	 0.0372800614	-0.298964
H	 1.1215136248	 1.6153243237	-0.0835580259	 0.159613
H	-0.3955812255	 1.7237259537	-0.9920742589	 0.14569
H	-0.3822567665	 1.940989048	 0.7787042966	 0.138139
H	 0.7188177212	-0.6686677572	 0.137328364	 0.269715
H	-3.3501918518	-2.3612661309	 0.2248583175	 0.008173
72.6953	80.5767	133.0366	149.5071	197.2593	209.591	232.0446	304.9607	333.0035	356.8331	421.8796	466.9964	483.9369	510.7887	687.2863	732.5119	743.5339	878.1283	974.4594	987.2891	1135.7594	1150.2804	1166.427	1194.0371	1248.9384	1398.8014	1449.9502	1487.1965	1489.6816	1514.0103	1528.8803	1582.499	1629.8367	1670.1722	1785.378	2713.4551	3006.1898	3056.7865	3142.807	3494.9306	3619.8666	3735.7328
CNC(=[NH2+])C(C=O)=N[O-]	CNC(=[NH2])C(=N[O])C=O	
InChI=1S/C4H7N3O2/c1-6-4(5)3(2-8)7-9/h2,9H,1H3,(H2,5,6)	InChI=1S/C4H7N3O2/c1-6-4(5)3(2-8)7-9/h2,6H,5H2,1H3
