22
gdb 118725	2.62447	1.23924	1.00041	2.4465	83.03	-0.2253	0.0767	0.302	1301.7866	0.193325	-404.289191	-404.279695	-404.278751	-404.323662	35.441	
C	 0.9783697409	 1.3953720993	 0.1790021323	-0.223346
O	 1.0196594062	-0.0100302952	 0.1278648643	-0.232894
C	 0.7764893094	-0.5191160948	-1.1694731793	-0.147042
C	 0.7213332679	-2.0294289183	-1.0901741899	 0.329929
C	-0.49235339	-2.5452228218	-0.3394181534	-0.456777
C	 1.2505146647	-2.9042566596	-2.1639550204	-0.0785
C	 2.4954295422	-2.3566832115	-2.8605192168	-0.26534
C	 3.1122099032	-2.2200238908	-1.4451262409	-0.158904
N	 1.9148707102	-2.8574637201	-0.7901389346	-0.167149
H	 1.7329471926	 1.8526710399	-0.4812610162	 0.101699
H	-0.0097345542	 1.7870393134	-0.1115941737	 0.103224
H	 1.186638446	 1.6918859956	 1.2098095214	 0.129178
H	-0.1927012917	-0.151834587	-1.5495050664	 0.087343
H	 1.5447150481	-0.1566461128	-1.8665001515	 0.087851
H	-1.4175671948	-2.2818448972	-0.8644460385	 0.10635
H	-0.4443617563	-3.6314785534	-0.2353473679	 0.124994
H	-0.52475302	-2.1038491478	 0.6601134239	 0.137624
H	 0.6934933032	-3.7772262726	-2.4941990522	 0.08645
H	 3.000375063	-3.1165804461	-3.4599313067	 0.110705
H	 2.3763308609	-1.4585570046	-3.4742463165	 0.101584
H	 3.9874474226	-2.8531794902	-1.2882082243	 0.109266
H	 3.335797346	-1.2156724742	-1.0754891628	 0.113757
61.6243	93.4732	152.2681	201.9805	223.8721	246.3133	277.9962	317.9191	371.5063	390.7846	484.3849	514.7859	688.6427	772.9017	790.1577	823.979	868.1989	952.8021	957.6899	980.9685	992.108	1012.0667	1029.9073	1059.3265	1089.2968	1128.7634	1149.0036	1163.0285	1182.6467	1215.227	1220.8434	1229.7425	1262.708	1280.3624	1303.5676	1314.6411	1400.2863	1410.7124	1435.0262	1478.801	1485.0045	1486.1117	1490.6861	1499.7207	1504.3242	1514.1463	1529.981	2954.0527	2967.729	3008.4137	3016.4529	3037.2979	3050.3978	3064.2511	3102.6836	3108.6498	3114.7636	3120.9854	3131.3994	3142.7072
COCC1(C)C2CCN12	COC[C@@]1(C)[C@H]2CCN12	
InChI=1S/C7H13NO/c1-7(5-9-2)6-3-4-8(6)7/h6H,3-5H2,1-2H3	InChI=1S/C7H13NO/c1-7(5-9-2)6-3-4-8(6)7/h6H,3-5H2,1-2H3/t6-,7+,8?/m1/s1
