20
gdb 5958	3.21913	1.14357	1.04508	1.8358	77.09	-0.2593	0.059	0.3183	1224.7203	0.173647	-348.969245	-348.959093	-348.958149	-349.003926	37.019	
C	 0.0768472736	 1.5781599089	 0.0074066142	-0.403334
C	 0.0290688727	 0.0318315982	 0.0454702212	 0.046005
C	 0.8493321681	-0.4835116835	 1.2523069163	-0.40333
C	-1.4352256824	-0.4892668807	 0.0911201348	-0.169515
C	-2.2661354146	-0.0697236406	 1.3008491874	-0.102532
O	-3.5510925453	-0.6538467301	 1.1316607975	-0.419936
C	 0.6388377372	-0.4839033976	-1.1869469487	 0.347452
C	 1.1367833453	-0.9068920834	-2.1963925721	-0.493463
H	 1.105594116	 1.9245301418	-0.1240234925	 0.123075
H	-0.5202106788	 1.9674350255	-0.8221549283	 0.123512
H	-0.3065121159	 2.0032672197	 0.9397548787	 0.112519
H	 0.4687524731	-0.0662157525	 2.1893111944	 0.112507
H	 0.8070563432	-1.5745113237	 1.3164504147	 0.123512
H	 1.8980974457	-0.1905041536	 1.1532807921	 0.123077
H	-1.9576948074	-0.1538985985	-0.8111838873	 0.11377
H	-1.4219567031	-1.5837742488	 0.0527381048	 0.113758
H	-1.7974795475	-0.4186741491	 2.2335225328	 0.087858
H	-2.3396033453	 1.0268300961	 1.3598168168	 0.087869
H	-4.0945951324	-0.4045600137	 1.8846591998	 0.285145
H	 1.576332158	-1.2805289845	-3.0878639267	 0.192052
64.2189	102.4093	125.192	178.2894	241.9201	255.1107	269.2991	269.9755	325.7795	351.4977	380.4411	431.1293	552.8225	569.3092	627.2918	628.9671	736.3339	795.9792	890.2316	939.8408	985.1127	995.1738	1024.3144	1059.6988	1073.4311	1192.2938	1207.8626	1223.7879	1262.2558	1266.3495	1327.0221	1351.4228	1397.7565	1420.0102	1461.4001	1482.3917	1487.4652	1491.9197	1502.5662	1512.3344	1530.8793	2230.9988	2978.1049	3004.8922	3039.1419	3042.4847	3047.0824	3089.8673	3111.9167	3116.3028	3117.4136	3119.7653	3502.1433	3830.6166
CC(C)(CCO)C#C	CC(C)(CCO)C#C	
InChI=1S/C7H12O/c1-4-7(2,3)5-6-8/h1,8H,5-6H2,2-3H3	InChI=1S/C7H12O/c1-4-7(2,3)5-6-8/h1,8H,5-6H2,2-3H3
