17
gdb 67205	2.93235	1.4738	1.20644	1.962	78.23	-0.2366	0.0527	0.2893	1057.1204	0.135307	-384.59321	-384.585485	-384.584541	-384.625131	31.016	
O	-0.0509759282	 1.476864854	-0.1876206177	-0.450107
C	 0.0562406547	 0.1202146977	-0.0686281339	 0.384171
C	 0.0370722973	-1.0242240958	-1.0546534776	-0.168359
C	 1.2729142659	-1.6660355655	-0.4299641621	-0.2431
C	 0.9372352089	-0.8551710801	 0.8498555289	-0.136808
C	-0.4049781477	-1.4996998704	 1.3457059287	-0.183477
C	-0.9242295419	-0.9343720907	 2.5766352083	 0.309519
C	-1.3525321276	-0.471442342	 3.6005251442	-0.443617
C	-1.0268078853	-0.8966533579	 0.0765678809	-0.106481
H	 0.7022535721	 1.8039843403	-0.6926819696	 0.290869
H	-0.2804962565	-1.0174802348	-2.0897175575	 0.091122
H	 1.3069122424	-2.7565703056	-0.3273648374	 0.093741
H	 2.1935160007	-1.3174248934	-0.9069122373	 0.095668
H	 1.6995246656	-0.5726383957	 1.5716555865	 0.084305
H	-0.3865046008	-2.5949033009	 1.4099506648	 0.092004
H	-1.7333014358	-0.0598914803	 4.5020936656	 0.190631
H	-2.0769957837	-0.7888562991	-0.1593052349	 0.099919
103.627	151.7774	253.9027	317.2531	343.9127	394.8402	468.3614	486.3279	501.5131	616.0069	618.7228	635.2617	721.7678	780.2074	831.7029	859.9303	893.3488	926.2754	958.9961	978.8164	1001.8596	1020.4077	1038.4956	1063.8732	1102.6708	1121.1487	1133.063	1189.4298	1214.885	1222.8728	1272.4746	1279.4561	1308.8995	1348.3096	1489.5584	1505.1792	2235.3647	3022.711	3036.9516	3092.1212	3151.3671	3196.7072	3212.6637	3504.5155	3785.4732
OC12C3CC1C(C#C)C23	O[C@@]12[C@H]3C[C@@H]1[C@@H](C#C)[C@@H]23	
InChI=1S/C8H8O/c1-2-4-5-3-6-7(4)8(5,6)9/h1,4-7,9H,3H2	InChI=1S/C8H8O/c1-2-4-5-3-6-7(4)8(5,6)9/h1,4-7,9H,3H2/t4-,5-,6+,7-,8-/m1/s1
