19
gdb 115811	4.20764	1.12127	0.98829	2.6492	72.37	-0.2528	0.0788	0.3316	1251.6223	0.157662	-460.142532	-460.133564	-460.13262	-460.176358	32.693	
C	-0.2860331027	 1.2838514754	 0.0323598707	-0.237925
O	-0.0835515884	-0.119005955	 0.0325525021	-0.237004
C	 0.7039461484	-0.5708059453	 1.0775119515	 0.239518
O	 0.0501957763	-0.3676597903	 2.3291350403	-0.284719
C	 0.2664059966	-1.474493343	 3.194510196	-0.133947
C	 0.6833014637	-2.6374949643	 2.3084736445	 0.394203
C	 1.327190535	-3.8649440474	 2.8867007126	-0.491561
O	-0.2501440977	-2.8211169355	 1.2333732993	-0.276903
C	 0.9366243639	-2.0640049015	 0.9837119803	-0.104185
H	 0.6729815678	 1.8244998996	 0.0268133359	 0.103062
H	-0.8352430367	 1.524144588	-0.8801954899	 0.128818
H	-0.8678287549	 1.6043723973	 0.9036092654	 0.132697
H	 1.6718017715	-0.0305522672	 1.0820286753	 0.053331
H	 1.060762041	-1.2562453575	 3.9255645731	 0.09469
H	-0.6627670098	-1.6729715541	 3.7404205562	 0.118487
H	 0.6461915872	-4.3665901865	 3.5828584699	 0.133902
H	 1.5800370266	-4.5716465848	 2.0930125863	 0.13794
H	 2.2397394179	-3.6082015912	 3.4344234819	 0.126281
H	 1.6355309343	-2.4691190769	 0.2575555189	 0.103314
78.3054	116.1032	164.2688	177.5999	191.5662	234.7213	320.5517	348.665	405.4257	496.0399	538.643	608.4212	717.7711	822.6816	865.0724	904.2647	935.1846	969.9898	1002.4731	1017.1174	1056.478	1075.7013	1095.6121	1132.3252	1167.6124	1180.2333	1232.5117	1235.3726	1258.104	1292.1465	1349.8094	1375.8369	1411.6266	1414.6516	1468.961	1480.7303	1485.6584	1489.6952	1500.6557	1508.1236	1511.7901	2902.573	2983.727	2989.1726	3038.6076	3062.6456	3070.6581	3100.6401	3128.5004	3128.6895	3161.7451
COC1OCC2(C)OC12	CO[C@H]1OC[C@@]2(C)O[C@@H]12	
InChI=1S/C6H10O3/c1-6-3-8-5(7-2)4(6)9-6/h4-5H,3H2,1-2H3	InChI=1S/C6H10O3/c1-6-3-8-5(7-2)4(6)9-6/h4-5H,3H2,1-2H3/t4-,5-,6+/m0/s1
