23
gdb 68187	2.76993	1.3946	1.38306	1.2779	85.45	-0.2319	0.0894	0.3212	1129.7953	0.204915	-388.290974	-388.281921	-388.280977	-388.323761	36.601	
C	-0.1349547031	 1.4971053335	 0.0023926308	-0.48987
C	 0.0778100561	 0.0096975646	 0.0353226991	 0.456138
C	 1.0454754664	-0.7724571668	-0.8932694913	-0.281158
C	 0.7238309326	-1.9055224117	 0.1330218985	-0.096207
C	 0.7333309952	-0.7706139848	 1.2065556388	-0.281145
C	-0.7982800749	-2.0905068364	-0.0930355374	 0.42063
C	-1.1729575536	-2.7822704108	-1.4072545491	-0.43455
C	-1.5392551097	-2.7802047553	 1.0564491053	-0.434579
O	-1.1786259632	-0.6822541647	-0.150702712	-0.36372
H	 0.8129275508	 2.0245239201	 0.1423735667	 0.114235
H	-0.5650614282	 1.8019183112	-0.956795158	 0.125738
H	-0.8246856882	 1.8035902878	 0.7950364162	 0.125733
H	 0.758658529	-0.8922557771	-1.9386342495	 0.095797
H	 2.0785956228	-0.4273246597	-0.8192099183	 0.094906
H	 1.3289092347	-2.8074559105	 0.2237641333	 0.065572
H	 1.7434147283	-0.4254316567	 1.4357112378	 0.094903
H	 0.1546483177	-0.8886222368	 2.1234111759	 0.095814
H	-0.9017627392	-3.8430878928	-1.3736320979	 0.108986
H	-2.2539391556	-2.7156087773	-1.5641019937	 0.121733
H	-0.6834869289	-2.3309675499	-2.2711565868	 0.115155
H	-1.3184639377	-2.3306196704	 2.0253346191	 0.115086
H	-2.6191466708	-2.709046309	 0.8942019317	 0.121829
H	-1.2741639704	-3.8421220667	 1.1018164107	 0.108973
131.8674	173.3995	200.9036	206.0401	259.1451	261.0959	341.6825	380.3349	407.854	491.7074	517.9283	537.0353	568.9482	647.0508	738.8696	825.5951	852.7876	856.3647	875.161	903.6629	928.8006	957.8866	970.4117	971.4894	1006.2896	1029.8444	1040.481	1073.1741	1107.2957	1156.289	1186.1987	1207.8483	1216.9511	1221.3202	1239.5873	1253.7179	1312.948	1339.9084	1398.6891	1415.0017	1419.132	1467.1003	1478.8474	1481.0322	1492.589	1493.2486	1497.2909	1505.5307	1522.8687	3037.4823	3039.2831	3044.5284	3072.5196	3080.7728	3100.5761	3108.4454	3108.7985	3116.5458	3119.3936	3128.8561	3133.8775	3142.3464	3144.455
CC12CC(C1)C(C)(C)O2	C[C@@]12C[C@@H](C1)C(C)(C)O2	
InChI=1S/C8H14O/c1-7(2)6-4-8(3,5-6)9-7/h6H,4-5H2,1-3H3	InChI=1S/C8H14O/c1-7(2)6-4-8(3,5-6)9-7/h6H,4-5H2,1-3H3/t6-,8+
