15
gdb 27993	3.97658	1.2317	0.94591	3.8229	71.46	-0.2234	-0.0521	0.1712	1179.1041	0.113058	-454.016332	-454.008444	-454.0075	-454.048724	29.226	
C	-0.046111475	 1.5086616085	 0.0485744471	-0.482469
C	-0.00023599	 0.0217947552	-0.0319916866	 0.284153
C	-0.0415480155	-0.7693234527	-1.1314167752	-0.213237
N	 0.0341637986	-2.0931454277	-0.6503473985	-0.125309
C	 0.031160493	-3.2716075707	-1.3469577692	 0.184882
O	 0.1020616179	-4.364551663	-0.8143084466	-0.337729
C	 0.1176387964	-1.9754351786	 0.7517621927	 0.479502
O	 0.2026246677	-3.0488864501	 1.5201131199	-0.404502
N	 0.099360725	-0.7444171314	 1.1400455721	-0.387363
H	 0.8556419193	 1.896587146	 0.5342462196	 0.143384
H	-0.1280828501	 1.9572394171	-0.944447022	 0.121933
H	-0.8995059901	 1.8358167603	 0.6519788811	 0.143455
H	-0.1146436911	-0.5605336977	-2.1851505917	 0.140298
H	-0.0415934915	-3.138819955	-2.4376922939	 0.126577
H	 0.1928862252	-3.8333076003	 0.931166921	 0.326426
113.6207	155.7746	219.3766	233.6967	264.8571	304.758	362.8049	484.8892	524.6283	620.3577	634.62	664.73	705.1679	746.5655	801.2483	844.5513	989.1107	1021.4393	1033.4754	1064.4808	1180.747	1233.2354	1272.2843	1312.0061	1382.3567	1417.1644	1438.8018	1472.4225	1478.8422	1489.26	1646.027	1680.6109	1778.6424	3021.307	3038.3626	3094.2304	3125.3273	3279.7451	3495.2682
CC1=CN(C=O)C(O)=N1	Cc1cn(C=O)c(O)n1	
InChI=1S/C5H6N2O2/c1-4-2-7(3-8)5(9)6-4/h2-3H,1H3,(H,6,9)	InChI=1S/C5H6N2O2/c1-4-2-7(3-8)5(9)6-4/h2-3H,1H3,(H,6,9)
