17
gdb 127510	2.36472	1.63375	0.97907	1.6816	72.82	-0.1963	0.0472	0.2435	1167.6879	0.137444	-451.338014	-451.328664	-451.32772	-451.371734	34.228	
C	 0.0148741681	 1.3879440796	-0.0826963183	-0.332288
N	 0.0234694219	-0.0487288363	 0.0191745634	-0.025985
N	 0.0926561424	-0.8218059059	-1.1170528447	-0.402842
C	 0.0891737217	-2.0619272644	-0.6614884804	 0.387347
O	 0.1349630973	-3.1289208528	-1.4912266378	-0.438367
C	 0.0458029917	-2.1369099871	 0.7497284065	-0.045382
N	 0.0395006806	-3.2364182518	 1.6518571312	-0.632199
C	 0.0142838142	-0.8052330965	 1.1405192665	 0.390842
N	-0.1018683006	-0.2775812982	 2.4245933739	-0.609481
H	 1.0279625628	 1.8089276002	-0.1245122886	 0.126761
H	-0.5144788676	 1.6673494586	-0.9952562983	 0.152142
H	-0.5102154036	 1.8038646756	 0.7812117368	 0.143922
H	 0.166920314	-2.7799850346	-2.3909343349	 0.298858
H	 0.8284024265	-3.8538310222	 1.4841436443	 0.239828
H	-0.7949726871	-3.8050017966	 1.5390798136	 0.240345
H	-0.0684829786	-1.043280565	 3.0906322552	 0.259398
H	 0.6172669861	 0.3992558473	 2.6533362416	 0.247102
111.1973	125.0474	163.9373	207.4654	240.9677	276.0388	290.0614	303.0895	316.8771	385.7894	429.1962	584.8236	618.5201	631.4118	651.0939	733.8205	757.3428	829.9586	849.5717	948.2963	1044.3441	1130.6887	1151.8145	1211.0086	1223.8162	1254.2223	1283.1237	1362.6452	1440.1595	1476.5626	1492.5126	1509.6615	1558.6825	1593.3293	1629.3024	1655.409	1685.0839	3015.7728	3095.4025	3142.4535	3485.3191	3505.7703	3544.4235	3592.601	3792.4997
CN1N=C(O)C(N)=C1N	Cn1nc(O)c(N)c1N	
InChI=1S/C4H8N4O/c1-8-3(6)2(5)4(9)7-8/h5-6H2,1H3,(H,7,9)	InChI=1S/C4H8N4O/c1-8-3(6)2(5)4(9)7-8/h5-6H2,1H3,(H,7,9)
