17
gdb 116875	4.29642	0.56198	0.51728	2.8954	79.98	-0.2648	0.0026	0.2673	2095.3289	0.133939	-417.956396	-417.945882	-417.944938	-417.994125	35.131	
C	-0.2750490747	 1.4642693523	-0.3977053514	-0.221218
O	-0.3571810025	 0.0569370679	-0.435376983	-0.227487
C	 0.9030483219	-0.5412954159	-0.6515153839	-0.200882
C	 0.7690177533	-1.9924776265	-0.6756340336	 0.013499
C	 0.6799282086	-3.1906626967	-0.6986802394	 0.21503
C	 0.5681913547	-4.6494540519	-0.7152586948	-0.304006
N	 0.5939629072	-5.1713319789	-2.0870578184	-0.484347
C	 1.6093878212	-5.2491526347	 0.1613118531	 0.272224
N	 2.422290372	-5.7658973461	 0.8001729036	-0.322329
H	 0.3780621693	 1.8140943862	 0.4172946054	 0.10886
H	 0.1057122047	 1.8771311877	-1.3452446299	 0.108055
H	-1.2860237902	 1.8401317944	-0.2281288935	 0.135511
H	 1.3404678547	-0.1968256312	-1.6050871697	 0.12115
H	 1.6139939495	-0.251941849	 0.1421077998	 0.124014
H	-0.4028714008	-4.925519695	-0.2819644425	 0.166471
H	 1.4804171598	-4.9323378632	-2.5222263115	 0.248246
H	 0.5391515412	-6.1860408394	-2.0625685703	 0.247209
20.1615	64.1275	77.4126	108.5983	161.9981	222.2039	230.4052	262.2615	321.4865	332.8147	362.6801	471.669	511.7765	587.2442	611.2735	796.9647	854.9857	950.037	980.4051	1025.2963	1063.1926	1144.8321	1180.5193	1182.2714	1195.8154	1220.6906	1253.2454	1314.3577	1390.9325	1410.3586	1477.3914	1485.0229	1493.6023	1515.5465	1656.2182	2348.5429	2384.4915	2947.6967	2966.3646	2972.8826	3017.6379	3023.2951	3125.5473	3491.3154	3576.7318
COCC#CC(N)C#N	COCC#C[C@@H](N)C#N	
InChI=1S/C6H8N2O/c1-9-4-2-3-6(8)5-7/h6H,4,8H2,1H3	InChI=1S/C6H8N2O/c1-9-4-2-3-6(8)5-7/h6H,4,8H2,1H3/t6-/m1/s1
