19
gdb 101267	2.38991	1.16447	1.00648	3.2287	76.88	-0.265	0.0042	0.2692	1267.5333	0.158277	-419.186009	-419.17649	-419.175546	-419.220598	34.75	
C	 0.311546371	 1.7749766925	 1.0381009697	-0.388225
C	 0.0258510744	 0.5411587222	 0.1830146848	 0.014896
C	 0.7987850448	-0.6925607603	 0.6705617128	-0.062773
O	 0.4733117519	-1.029592449	 2.0044418485	-0.419433
N	-1.4086185893	 0.2106462011	 0.2861168282	-0.089821
C	-2.359009668	 1.0038707805	-0.4620893041	-0.240355
C	-2.0877841727	-0.4189958712	-0.8568066721	-0.152878
C	-1.3873227938	-0.6759467801	-2.0925380992	 0.294579
N	-0.8245960824	-0.909515615	-3.0760539903	-0.33701
H	 1.3639550372	 2.0573982744	 0.9431381561	 0.12419
H	-0.2968717725	 2.6279666639	 0.7233850163	 0.113091
H	 0.1066219617	 1.5633949258	 2.0898198793	 0.138615
H	 0.3126390545	 0.7410760132	-0.8617140874	 0.089602
H	 0.6080742238	-1.5325730002	-0.016248038	 0.096854
H	 1.8735494551	-0.4861536246	 0.6450271495	 0.112202
H	-0.4910101623	-1.0392128608	 2.0474940775	 0.287439
H	-3.2940143797	 1.2435026615	 0.0361530419	 0.136878
H	-1.9759764525	 1.7727807334	-1.1304464422	 0.139546
H	-2.8030791212	-1.1925130273	-0.5925352514	 0.142603
59.5997	119.6748	122.6624	196.9651	216.8565	238.1073	266.9555	326.3489	350.7698	438.493	455.1354	555.0854	630.5408	648.5	737.1521	802.0319	868.157	912.3001	941.4097	995.4123	1011.1141	1029.0379	1072.1562	1115.2297	1126.2462	1147.3458	1152.8494	1157.8633	1242.3936	1310.387	1333.9458	1366.9617	1371.8753	1388.8618	1413.6871	1435.3932	1489.3111	1498.5243	1501.7091	1510.281	2349.9903	2975.8932	2987.6856	3046.909	3079.4908	3101.777	3114.463	3135.5058	3152.545	3194.4053	3779.6729
CC(CO)N1CC1C#N	C[C@@H](CO)N1C[C@H]1C#N	
InChI=1S/C6H10N2O/c1-5(4-9)8-3-6(8)2-7/h5-6,9H,3-4H2,1H3	InChI=1S/C6H10N2O/c1-5(4-9)8-3-6(8)2-7/h5-6,9H,3-4H2,1H3/t5-,6+,8?/m0/s1
