18
gdb 85707	2.3919	1.39382	1.00853	4.3053	82.01	-0.2707	0.0201	0.2907	1204.2926	0.146559	-364.788157	-364.77904	-364.778096	-364.822067	33.838	
C	 0.0304363639	 1.5779565599	-0.1533927436	-0.416727
C	 0.0836387984	 0.0700001971	 0.0058286286	 0.031683
C	 1.0548373686	-0.7516530774	-0.8804752968	-0.240259
C	 1.3052027956	-1.6995426014	 0.3281527078	-0.155958
C	 2.638799739	-2.2310091999	 0.5392440183	 0.284985
N	 3.703344103	-2.6544666999	 0.6940640196	-0.327971
C	 0.761962297	-0.562147079	 1.2828408542	-0.226243
C	 1.7918485056	 0.2476487601	 1.8993547721	 0.364131
C	 2.6505401387	 0.9187522532	 2.4069662389	-0.470898
H	 1.0217942408	 2.0231966977	-0.0315344218	 0.134453
H	-0.3458286673	 1.843503622	-1.1471857517	 0.119121
H	-0.6345919118	 2.0325471822	 0.5883484604	 0.122979
H	-0.9244055579	-0.3517634853	-0.071073649	 0.085527
H	 0.666113988	-1.2081755461	-1.7921346664	 0.115915
H	 1.9561191684	-0.181429727	-1.1181795581	 0.131895
H	 0.5912040359	-2.5278230139	 0.3223809526	 0.128164
H	 0.0665175904	-0.9233951802	 2.0452682601	 0.112571
H	 3.4156426738	 1.4980299178	 2.8621404648	 0.206632
72.3166	103.8142	151.8576	186.1297	230.9897	265.6405	308.1861	388.8902	438.5285	477.1598	551.5746	605.8088	639.8098	647.0822	689.0503	749.7702	807.0486	894.304	937.9723	941.3199	997.8866	1048.8787	1070.2898	1116.7899	1145.8575	1155.1575	1225.5055	1231.7753	1259.4787	1275.0575	1336.5499	1351.2371	1385.9819	1417.7216	1490.0387	1492.9826	1498.2419	2235.2223	2356.725	3035.3308	3045.2667	3066.2494	3074.0076	3078.4011	3100.1284	3117.894	3134.1771	3502.0184
CC1CC(C#N)C1C#C	C[C@H]1C[C@@H](C#N)[C@H]1C#C	
InChI=1S/C8H9N/c1-3-8-6(2)4-7(8)5-9/h1,6-8H,4H2,2H3	InChI=1S/C8H9N/c1-3-8-6(2)4-7(8)5-9/h1,6-8H,4H2,2H3/t6-,7-,8-/m0/s1
