17
gdb 67611	2.67553	2.21562	1.67179	2.9398	69.21	-0.2337	0.0729	0.3065	847.9548	0.138484	-421.78928	-421.783081	-421.782137	-421.819413	26.708	
O	-0.0590904981	 1.3366045224	 0.1260007047	-0.474192
C	 0.0565107746	-0.0394612332	 0.0432199914	 0.407343
C	-0.4071712682	-0.8788934401	-1.1305786414	-0.148592
C	 0.5011165099	-2.0924460621	-1.2565974403	-0.254232
C	 0.8220939326	-2.2524797276	 0.2197588731	-0.064232
C	-0.461098376	-2.03140599	 1.0845449513	 0.067868
O	 0.3297819742	-1.2784122263	 2.0515034996	-0.293708
C	 1.0773392261	-0.8591762638	 0.8746955306	-0.016948
C	-1.1334288668	-0.9542705791	 0.2083245114	-0.137552
H	 0.573053695	 1.7307584868	-0.4846511588	 0.284782
H	-0.8875520189	-0.4088875419	-1.9811809384	 0.088154
H	-0.0115898717	-2.9666384589	-1.6738244748	 0.103449
H	 1.3920209212	-1.8943486044	-1.8639016751	 0.098775
H	 1.4793661843	-3.0544294475	 0.5480668347	 0.083301
H	-1.0618013801	-2.8249090919	 1.5263612347	 0.079229
H	 2.0553766567	-0.4306823001	 1.0926468658	 0.075581
H	-2.1366093649	-0.5828733923	 0.3608006413	 0.100972
231.0589	302.9838	327.3751	373.8293	502.0124	540.6427	607.2957	681.0463	719.9161	746.2907	824.0328	834.7035	851.7613	880.3043	905.5575	926.0088	932.2792	953.5468	977.4973	992.4189	1022.3058	1047.5279	1053.0761	1099.845	1158.285	1176.609	1204.7531	1221.7313	1238.3562	1250.714	1268.6199	1295.6778	1302.007	1324.2217	1347.9369	1453.5509	1490.3451	3033.7573	3075.2232	3125.5054	3132.1695	3150.8119	3182.1469	3224.2855	3797.5852
OC12C3CC4C(OC14)C23	O[C@@]12[C@H]3C[C@@H]4[C@@H](O[C@H]14)[C@@H]23	
InChI=1S/C7H8O2/c8-7-3-1-2-5(4(3)7)9-6(2)7/h2-6,8H,1H2	InChI=1S/C7H8O2/c8-7-3-1-2-5(4(3)7)9-6(2)7/h2-6,8H,1H2/t2-,3+,4+,5-,6+,7-/m1/s1
