16
gdb 37505	3.87461	2.09199	1.81787	2.1933	69.3	-0.2267	-0.0093	0.2174	772.5094	0.129587	-396.861324	-396.856125	-396.85518	-396.890566	23.058	
N	-0.1039304747	 1.5020847997	-0.1015993723	-0.334864
C	 1.3775598415	 1.5021252262	 0.0343977809	-0.028661
C	 1.4314866802	 0.1740823884	 0.8066998238	-0.032716
C	 0.0516213556	 0.0084587593	 0.022314019	-0.046165
C	 0.6719431387	-0.3338724464	-1.3570425874	 0.025278
N	 1.1813262523	-1.7203642156	-1.3257817187	-0.201649
C	 2.1980450244	-1.6587935058	-0.5631714458	 0.018697
N	 2.547930267	-0.3464578864	-0.0785077564	-0.165204
C	 1.9102328784	 0.5709094783	-1.1049008686	-0.015701
H	-0.4954025154	 1.8611810708	 0.7698931958	 0.218123
H	 1.9102003319	 2.4161623451	 0.285319199	 0.088821
H	 1.5002985575	 0.0263580912	 1.8828800382	 0.085239
H	-0.7923476611	-0.582023068	 0.3716529513	 0.085568
H	 0.0280834558	-0.1254327913	-2.207089049	 0.092558
H	 2.7716756763	-2.523647386	-0.2432371175	 0.125322
H	 2.5322677117	 0.8981747004	-1.9366043525	 0.085354
348.0356	389.4222	464.2777	540.9491	653.3054	716.0444	767.257	810.5566	823.9637	852.4682	867.4639	880.5668	903.3463	916.9739	950.0269	955.0617	974.1699	990.3062	1011.7884	1033.6355	1057.2587	1065.7986	1122.7326	1154.7615	1169.5871	1185.8319	1197.9266	1242.3087	1246.8402	1271.8747	1285.0074	1315.4645	1336.5364	1351.4766	1660.0865	3130.4277	3132.7748	3150.0675	3154.8416	3162.5294	3187.0582	3451.1334
N1C2C3C1C1N=CN3C21	N1[C@H]2[C@H]3[C@@H]1[C@@H]1[N][CH]N3[C@H]21	
InChI=1S/C6H7N3/c1-7-2-3-6-4(8-3)5(2)9(1)6/h1-6,8H	InChI=1S/C6H7N3/c1-7-2-3-6-4(8-3)5(2)9(1)6/h1-6,8H/t2-,3-,4+,5-,6+/m0/s1
