25
gdb 117847	1.6877	1.23498	0.99734	2.138	85.35	-0.2482	0.073	0.3211	1442.3953	0.22586	-426.628302	-426.616715	-426.615771	-426.66496	42.51	
C	-0.6011425426	 1.8764564487	-0.1790337067	-0.383091
C	-0.2787241693	 0.4030557453	 0.0152620317	-0.053531
O	-1.4879226272	-0.3268824429	-0.1374247565	-0.304167
C	-1.4294529426	-1.7709533498	-0.1331343993	 0.323463
C	-0.5272347075	-2.3282939812	 0.9717069529	-0.445858
C	-2.8942714698	-2.2166507798	 0.042974123	-0.179592
C	-3.5790345661	-1.7140564641	 1.3164178931	-0.396003
C	-0.9149739729	-2.2151517392	-1.5201426744	-0.06909
O	-1.6340843554	-1.5952651754	-2.565758782	-0.430286
H	 0.2982387704	 2.4838297463	-0.0397448796	 0.116632
H	-0.9905321203	 2.0619509565	-1.1845502305	 0.122186
H	-1.355351747	 2.200646809	 0.5436260632	 0.128646
H	 0.4768790917	 0.0807622823	-0.7166377195	 0.095008
H	 0.1459068882	 0.2405652009	 1.0155633804	 0.09787
H	-0.8041060027	-1.9293968145	 1.9509754034	 0.128637
H	-0.6258110866	-3.4175008071	 1.0106651841	 0.120741
H	 0.5276523332	-2.0992651376	 0.7950787859	 0.116886
H	-3.4463199529	-1.8711333621	-0.8361874789	 0.109929
H	-2.9166826003	-3.3127982056	 0.0099901223	 0.090638
H	-4.6361420987	-1.9969419103	 1.3176374239	 0.110091
H	-3.1285598615	-2.1343214817	 2.2215618566	 0.1089
H	-3.5169379519	-0.6251552149	 1.3817329903	 0.128198
H	 0.1636229176	-1.9990546086	-1.5988193402	 0.077781
H	-1.0350826958	-3.2983665307	-1.6325235549	 0.102221
H	-1.7856688898	-0.6895606436	-2.2642143983	 0.283792
63.0079	86.4333	91.9413	140.5273	178.51	224.7947	236.5454	246.4001	263.7757	292.5447	342.2862	360.9235	370.2226	462.6235	477.0201	503.9862	601.3232	735.9467	778.2823	824.7603	838.2718	897.2694	952.2816	982.9344	1010.423	1023.4696	1073.1695	1089.9627	1094.122	1135.8874	1177.6132	1186.6613	1208.7748	1219.8217	1264.8246	1299.0914	1320.0101	1366.0285	1375.9383	1398.8594	1404.5819	1408.827	1421.7858	1441.9725	1480.4438	1484.5559	1491.2899	1496.6665	1501.0836	1508.2633	1511.8372	1513.2949	1531.4837	2960.3627	2989.5209	3024.269	3034.9805	3041.4779	3043.1899	3046.2334	3064.9873	3082.5706	3104.8158	3111.3518	3116.4249	3120.7637	3121.9884	3127.0233	3757.641
CCOC(C)(CC)CO	CCO[C@@](C)(CC)CO	
InChI=1S/C7H16O2/c1-4-7(3,6-8)9-5-2/h8H,4-6H2,1-3H3	InChI=1S/C7H16O2/c1-4-7(3,6-8)9-5-2/h8H,4-6H2,1-3H3/t7-/m0/s1
