21
gdb 66380	2.22016	1.47282	1.3051	2.6434	78.23	-0.2474	-0.0212	0.2262	1123.8314	0.182425	-424.250984	-424.242053	-424.241109	-424.284309	34.108	
C	 0.039983408	 1.5424861442	 0.1744272854	-0.443967
C	-0.0008514016	 0.0051166438	 0.0596698178	 0.14204
C	 0.5984509762	-0.481807323	-1.2723479278	-0.227925
C	 0.7942351734	-2.0056823584	-1.282945448	-0.221089
C	 1.5150369588	-2.4654919195	-0.0165587509	-0.069361
O	 0.8408256789	-2.0237153627	 1.1556670148	-0.247555
C	 0.7836671354	-0.6157541939	 1.2336495801	-0.099186
C	-1.4645572364	-0.3995060857	 0.1980060079	 0.162527
O	-2.1544985351	-0.8523064868	-0.6775457862	-0.257765
H	 1.0770734347	 1.8930606649	 0.187907707	 0.125561
H	-0.4663716597	 2.010771778	-0.6750882224	 0.132705
H	-0.444338069	 1.8935669496	 1.0927174365	 0.120662
H	-0.0505482219	-0.1765356478	-2.0982701644	 0.112879
H	 1.5660497883	 0.0165349548	-1.4161318654	 0.089082
H	-0.1807408779	-2.498289862	-1.3399624261	 0.129506
H	 1.3687834598	-2.3106794528	-2.1648498133	 0.094229
H	 1.552505779	-3.5563220215	 0.0497286807	 0.108684
H	 2.5533955411	-2.0892672375	-0.0077407241	 0.082304
H	 1.8003307146	-0.1853861449	 1.2496925095	 0.086457
H	 0.3056092198	-0.377525638	 2.190926534	 0.105695
H	-1.8859934963	-0.2040162206	 1.2133869748	 0.074516
87.2674	135.633	183.9216	218.866	273.2283	281.952	324.5581	336.6218	406.2206	445.2077	471.5864	584.5323	601.1279	754.6655	857.0491	866.6591	892.3766	912.4557	933.4025	948.3137	1000.0152	1048.4445	1051.7609	1077.1588	1126.2418	1139.1234	1197.6622	1227.1586	1236.0954	1278.6339	1322.4376	1336.4614	1355.7015	1377.3169	1386.0789	1404.2879	1413.2165	1431.6754	1471.9779	1484.0406	1484.8628	1495.0253	1497.4472	1502.4056	1831.6016	2844.2225	2949.1384	2955.553	3022.2721	3028.3752	3045.6845	3058.223	3085.6249	3087.9611	3095.6349	3101.9322	3108.3475
CC1(CCCOC1)C=O	C[C@]1(CCCOC1)C=O	
InChI=1S/C7H12O2/c1-7(5-8)3-2-4-9-6-7/h5H,2-4,6H2,1H3	InChI=1S/C7H12O2/c1-7(5-8)3-2-4-9-6-7/h5H,2-4,6H2,1H3/t7-/m0/s1
