18
gdb 97060	4.13973	1.06142	0.90038	3.9362	77.85	-0.2331	0.0126	0.2457	1303.0374	0.148389	-435.282718	-435.273737	-435.272792	-435.317168	32.683	
C	 0.6556811043	 1.4386289049	-0.1767591355	-0.318615
N	 0.4718587157	-0.0050078237	-0.1299931932	-0.301401
C	 0.273564751	-0.5551840634	 0.9881877954	 0.401179
C	 0.057378122	-2.0450514721	 1.1240795492	-0.271655
N	 0.6735677319	-2.629090853	 2.3120885728	-0.275947
C	 0.5894517307	-1.916757314	 3.3646534543	 0.347808
N	 0.9804288501	-2.3958125113	 4.5974945353	-0.552371
C	-0.0407318981	-0.5409706901	 3.3564549566	-0.163748
O	 0.2643443609	 0.1618576549	 2.1568570757	-0.248198
H	 1.6612988082	 1.7166598947	 0.1657855008	 0.119954
H	 0.5504454528	 1.7769634857	-1.2107478761	 0.116101
H	-0.0619067816	 1.9835919958	 0.4497792565	 0.113972
H	-1.0262909395	-2.2480981594	 1.1324189464	 0.120732
H	 0.4538936569	-2.5197192951	 0.2260474897	 0.142132
H	 1.484257009	-3.2712145621	 4.5490349377	 0.259458
H	 1.3791356646	-1.7297879304	 5.2419312672	 0.252587
H	-1.1299895401	-0.6436493785	 3.4723432076	 0.136245
H	 0.3187628511	 0.0871490971	 4.1766299797	 0.121766
41.5477	70.3876	165.9852	206.3179	225.2408	283.8169	373.648	396.498	412.6609	478.6761	549.2603	585.5829	609.0591	669.5378	776.2802	796.4893	893.8936	975.5419	991.3104	1022.0814	1053.8403	1099.1463	1113.0922	1169.2709	1202.2373	1212.3798	1244.0362	1259.7762	1334.6455	1357.0157	1436.7056	1442.7084	1480.1976	1485.9652	1491.8638	1499.8994	1629.4067	1744.8788	1778.3672	2972.7118	3001.139	3005.9929	3058.0477	3084.8683	3101.7861	3122.0255	3557.712	3671.6911
CN=C1CN=C(N)CO1	CN=C1C[N][C](N)CO1	
InChI=1S/C5H9N3O/c1-7-5-2-8-4(6)3-9-5/h2-3H2,1H3,(H2,6,8)	InChI=1S/C5H9N3O/c1-7-5-2-8-4(6)3-9-5/h2-3H2,1H3,(H2,6,8)
