16
gdb 33732	3.36961	1.56922	1.32316	3.2227	74.93	-0.2336	0.0164	0.25	971.3207	0.124694	-400.637391	-400.630506	-400.629562	-400.668415	28.477	
C	 0.0703544303	-1.1720712007	-0.0472457831	-0.330517
C	 0.0540281682	 0.0291662112	-0.0142448351	 0.060759
C	-0.009253539	 1.4641133417	 0.0321429881	 0.362931
C	-0.313675541	 2.2892481271	 1.3289709735	-0.270343
C	 0.5031286583	 3.3021264796	 0.4836758969	 0.033768
O	 1.2618953532	 2.1811620524	-0.0423209768	-0.29017
C	-0.4898014646	 3.6157508089	-0.6663340589	-0.059369
N	-0.0714020123	 3.0244274432	-1.9564042545	-0.31145
C	-0.8821094695	 2.2335330151	-1.0117339823	-0.130444
H	 0.0972695554	-2.2333321286	-0.0801054645	 0.188866
H	-1.3569062116	 2.5105006154	 1.5705421074	 0.098082
H	 0.2385872559	 1.9114437831	 2.1896963286	 0.122768
H	 1.1154401958	 4.0951715601	 0.9085597309	 0.091859
H	-1.1743161829	 4.4539361911	-0.6199431752	 0.097885
H	-0.6957641439	 3.3764945744	-2.681196433	 0.232624
H	-1.8846736224	 1.9027373859	-1.251220302	 0.102753
138.2567	161.3363	365.1237	374.3489	479.9206	503.9429	524.5559	543.7251	622.9612	672.5663	687.6095	719.4831	792.6422	806.103	860.7813	871.4146	908.4135	919.278	939.5183	968.5011	1000.2109	1047.5046	1060.0422	1108.8031	1122.9654	1140.1068	1208.1335	1221.5005	1242.2192	1258.0807	1299.2571	1325.4461	1387.7983	1482.0111	2243.0927	3064.7842	3141.8863	3150.9199	3187.3466	3200.3428	3480.2148	3501.2039
C#CC12CC(O1)C1NC21	C#C[C@@]12C[C@@H](O1)[C@H]1N[C@@H]21	
InChI=1S/C7H7NO/c1-2-7-3-4(9-7)5-6(7)8-5/h1,4-6,8H,3H2	InChI=1S/C7H7NO/c1-2-7-3-4(9-7)5-6(7)8-5/h1,4-6,8H,3H2/t4-,5-,6-,7+/m1/s1
