15
gdb 33432	2.17813	1.98007	1.16637	1.667	77.97	-0.2499	0.0133	0.2632	1026.9068	0.109486	-383.336982	-383.328979	-383.328035	-383.369185	31.301	
C	-0.0759673023	-1.2308643336	-0.0938988083	-0.429124
C	-0.0521968719	-0.0299146405	-0.049817399	 0.1993
C	-0.0264275196	 1.4232674663	 0.0006411336	 0.051417
C	-0.9942112782	 2.0181986793	-0.9060797066	 0.266567
C	-1.8076304827	 2.4640014218	-1.6691541136	-0.431075
C	 0.1402972577	 2.1406367439	 1.4030582191	 0.019412
C	 1.5779564927	 1.5897650719	 1.5244478297	-0.251809
C	 1.3698527073	 2.1638751236	 0.1059452582	 0.019412
O	 0.6775163517	 3.318827915	 0.7018814377	-0.302136
H	-0.1022552553	-2.2918002609	-0.1378791012	 0.19687
H	-2.5227082764	 2.8723452707	-2.3396907	 0.19421
H	-0.6316622549	 2.2980858198	 2.1555789769	 0.112421
H	 2.2311819673	 2.1919608555	 2.1544391895	 0.118138
H	 1.7213910757	 0.5158492353	 1.6411727062	 0.123975
H	 2.0769812788	 2.3492787818	-0.7018876321	 0.112421
135.3957	142.0626	178.8081	183.2315	385.0359	442.764	492.3659	509.2402	530.3888	576.5407	631.7731	632.2177	637.4369	647.435	651.1752	754.8943	809.6432	891.7652	902.522	918.2972	1020.61	1042.9932	1051.7493	1131.1456	1166.14	1175.9967	1196.1946	1203.6861	1243.092	1279.2879	1483.0219	2233.9275	2241.6932	3093.4445	3128.7819	3134.846	3174.7137	3500.6827	3503.6473
C#CC1(C#C)C2CC1O2	C#CC1(C#C)[C@H]2C[C@@H]1O2	
InChI=1S/C8H6O/c1-3-8(4-2)6-5-7(8)9-6/h1-2,6-7H,5H2	InChI=1S/C8H6O/c1-3-8(4-2)6-5-7(8)9-6/h1-2,6-7H,5H2/t6-,7+
