17
gdb 80441	2.76275	1.4547	1.15153	3.6658	68.77	-0.2465	-0.0326	0.2139	1071.5151	0.134458	-458.931478	-458.923192	-458.922248	-458.964136	31.999	
O	 0.1172021175	 1.3217159222	 0.0158673173	-0.418671
C	-0.0547980518	-0.069544622	-0.0576127019	 0.088725
C	-0.4024554308	-0.9198243568	 1.1224633861	-0.116053
C	-1.3029474663	-0.1490892683	 2.0972275303	-0.2968
C	-2.383194908	 0.0237743568	 0.9697600214	 0.337824
O	-3.5166819867	-0.7602442296	 1.2120471736	-0.48444
C	-2.8186616179	 1.4372315612	 0.6293929986	 0.094767
O	-3.992518993	 1.732023306	 0.5907939635	-0.284408
C	-1.4178590073	-0.6723699772	-0.0229488049	-0.153312
H	 0.9615688799	 1.4954725884	 0.4462130583	 0.290329
H	 0.6047320805	-0.5568451152	-0.7769778784	 0.100006
H	 0.1505737436	-1.8189668013	 1.3667145716	 0.092883
H	-1.732321717	-0.7760278389	 2.8784822219	 0.1314
H	-0.8762582267	 0.7569257392	 2.538117325	 0.095392
H	-4.2702641664	-0.1629375281	 1.0693048398	 0.291078
H	-2.0186619433	 2.1650857028	 0.4214176005	 0.127679
H	-1.7821554565	-1.3427356993	-0.7921893827	 0.103602
92.6806	149.98	199.6623	273.1524	314.6832	320.6124	378.614	393.2301	453.0439	508.4716	527.6088	628.7166	734.399	768.764	828.429	845.808	882.8725	943.1958	985.0292	991.1178	1010.9274	1032.3236	1078.2159	1090.7828	1110.1198	1158.7822	1204.0767	1234.0974	1253.2486	1286.5418	1302.4385	1343.4013	1377.5923	1444.3326	1450.2896	1474.6917	1794.2938	3027.1353	3056.139	3098.3589	3141.0854	3179.3943	3192.0246	3658.6773	3801.0471
OC1C2CC(O)(C=O)C12	O[C@H]1[C@H]2C[C@@](O)(C=O)[C@@H]12	
InChI=1S/C6H8O3/c7-2-6(9)1-3-4(6)5(3)8/h2-5,8-9H,1H2	InChI=1S/C6H8O3/c7-2-6(9)1-3-4(6)5(3)8/h2-5,8-9H,1H2/t3-,4+,5-,6+/m0/s1
