22
gdb 95243	2.799	1.41589	1.11004	1.0117	82.47	-0.2168	0.0822	0.299	1181.441	0.195762	-404.32508	-404.316687	-404.315743	-404.357688	33.477	
C	-0.3047075825	 1.4988715518	 0.0622369848	-0.395894
C	-0.0145737369	 0.0028144176	-0.0034654656	 0.134478
C	 0.6567966558	-0.3980559214	-1.3218187568	-0.204292
C	 0.8708531935	-1.906263023	-1.5334083301	-0.162636
N	 1.7870480554	-2.652177067	-0.6744117745	-0.085849
C	 2.9058506911	-2.0169493314	 0.0146894453	-0.257693
C	 1.7461266931	-2.5640222401	 0.7759392777	 0.003308
C	 0.8099450031	-1.6441149161	 1.5412103433	-0.118886
O	 0.8022586218	-0.2969044898	 1.1259000987	-0.251642
H	 0.6257229344	 2.0700778666	-0.0170475362	 0.123177
H	-0.9676499463	 1.8030891102	-0.752933529	 0.112523
H	-0.7797017072	 1.7517917708	 1.0135448906	 0.120964
H	-0.964095392	-0.5533695964	 0.0920973113	 0.062551
H	 0.025830423	-0.0473397531	-2.1493296144	 0.095154
H	 1.6072211131	 0.1421565275	-1.4124259132	 0.104443
H	-0.099896354	-2.4167233225	-1.474343971	 0.101505
H	 1.2275570136	-2.0516838803	-2.5605797706	 0.105953
H	 3.8505396299	-2.5538866678	-0.0280602958	 0.107785
H	 2.9931707514	-0.9339090873	-0.0007494395	 0.120498
H	 1.8549737028	-3.5298222107	 1.2733007555	 0.08348
H	-0.2134547994	-2.0562893511	 1.5177406826	 0.090656
H	 1.1287994961	-1.6382786963	 2.5909846567	 0.110417
88.3843	204.0594	221.0769	254.3165	278.6623	317.1594	341.4812	402.2616	445.4592	480.7553	564.4984	656.0448	702.8629	749.4049	811.9874	878.4363	889.8015	937.6484	962.5299	985.6389	1005.3263	1048.7161	1067.3273	1094.7069	1105.7723	1133.9991	1153.6727	1161.101	1173.6593	1182.5257	1244.4904	1290.8366	1312.6837	1339.1321	1347.9383	1378.2691	1389.2862	1393.2895	1402.484	1410.1341	1429.4174	1470.0539	1480.7809	1485.4501	1487.6474	1500.4838	1511.2443	2943.6035	2959.9154	3012.9582	3021.561	3042.5425	3045.7438	3049.9495	3065.1673	3084.7705	3103.1872	3115.0786	3123.3972	3188.7267
CC1CCN2CC2CO1	C[C@H]1CCN2C[C@H]2CO1	
InChI=1S/C7H13NO/c1-6-2-3-8-4-7(8)5-9-6/h6-7H,2-5H2,1H3	InChI=1S/C7H13NO/c1-6-2-3-8-4-7(8)5-9-6/h6-7H,2-5H2,1H3/t6-,7-,8?/m0/s1
