23
gdb 104454	3.03591	1.14326	1.03286	1.9682	81.25	-0.2392	0.062	0.3012	1289.8154	0.206257	-425.442389	-425.433014	-425.43207	-425.475983	36.723	
C	-0.1420234585	 1.5625668805	 0.1253107906	-0.41511
C	 0.0284721286	 0.0433666143	 0.0175799461	-0.196747
C	 0.737475634	-0.4503049868	-1.2594098747	 0.357215
O	 0.0156211938	-0.0232822943	-2.4240737073	-0.47559
C	 2.2049015276	 0.0230491937	-1.3414258001	-0.247371
C	 2.9332357493	-0.6334134014	-2.5174558097	-0.072442
O	 2.8804034034	-2.046167941	-2.4410378706	-0.250804
C	 1.5429962327	-2.519859657	-2.4878027371	-0.086112
C	 0.7154215523	-1.9873928787	-1.3162107568	-0.213401
H	 0.8179092536	 2.0879245395	 0.1580526076	 0.119383
H	-0.7208355571	 1.9604788661	-0.715583717	 0.111654
H	-0.6862320165	 1.8228317974	 1.0378494033	 0.120486
H	 0.581155488	-0.326466637	 0.8899857999	 0.093972
H	-0.9606203125	-0.4294288893	 0.0482264845	 0.099317
H	 0.1103293565	 0.9316143008	-2.4996530233	 0.277718
H	 2.2504274912	 1.1147904752	-1.4448048521	 0.082992
H	 2.7208612341	-0.2341941934	-0.4087363324	 0.102148
H	 2.4903668402	-0.2870669754	-3.4649606227	 0.090153
H	 3.9935203227	-0.3636049887	-2.5173932604	 0.100662
H	 1.0701690542	-2.2276298578	-3.4375831551	 0.102916
H	 1.6042033697	-3.6115867827	-2.45624535	 0.100366
H	 1.1192576434	-2.3836034569	-0.3778567048	 0.097953
H	-0.3221759308	-2.327407527	-1.407008118	 0.100641
88.15	139.7158	192.5329	221.0192	240.2474	307.4752	316.7814	340.0572	369.0667	422.5567	439.7207	508.9793	526.9693	614.9165	721.7154	783.0506	804.0562	861.9664	917.5089	943.823	958.9995	1011.1705	1024.9803	1035.4146	1052.1758	1055.6822	1098.8289	1135.9469	1182.8302	1199.3664	1206.7063	1263.4412	1267.6366	1319.4932	1328.9649	1337.2729	1359.1459	1380.1234	1388.142	1401.6412	1414.3627	1427.7153	1458.0807	1472.9873	1478.8466	1489.821	1502.1635	1506.928	1510.5616	2981.3017	2996.4153	3020.422	3024.9756	3034.9881	3039.2734	3060.456	3068.5701	3081.8784	3083.3432	3090.0738	3100.8886	3107.4909	3816.3997
CCC1(O)CCOCC1	CCC1(O)CCOCC1	
InChI=1S/C7H14O2/c1-2-7(8)3-5-9-6-4-7/h8H,2-6H2,1H3	InChI=1S/C7H14O2/c1-2-7(8)3-5-9-6-4-7/h8H,2-6H2,1H3
