17
gdb 70549	2.73165	1.63861	1.22059	5.27	68.15	-0.2702	0.0368	0.307	1034.102	0.136201	-458.996979	-458.989196	-458.988252	-459.0293	29.826	
C	-0.0028776474	 1.2984019066	-0.2937851145	-0.452406
C	-0.1143518441	-0.1359281207	 0.1511387008	 0.422476
C	-0.7975933874	-0.5362459656	 1.4207445286	-0.342258
C	 0.7029728936	-0.720703789	 1.2654350529	-0.112139
C	 1.2470546706	-2.0845572776	 0.916630367	-0.105517
O	 1.6377398557	-2.1465825149	-0.4724996981	-0.240326
C	 0.7323839858	-1.7722855797	-1.3977254341	 0.444587
O	 0.8189794294	-2.0988821468	-2.5415628154	-0.356138
O	-0.3115624765	-1.0216845328	-0.9472852307	-0.283255
H	 0.8619464834	 1.4377686398	-0.9502630126	 0.136657
H	-0.9007619178	 1.5969995671	-0.8429894116	 0.141474
H	 0.1099221588	 1.9590325245	 0.5702988006	 0.122406
H	-1.148712334	 0.2523628307	 2.0763566291	 0.124879
H	-1.4174587027	-1.4260380161	 1.3982285904	 0.131109
H	 1.3630356429	-0.0554553777	 1.810576469	 0.107273
H	 2.1567698968	-2.3201603766	 1.470007506	 0.134613
H	 0.5153657427	-2.8778828012	 1.1043241426	 0.126564
90.2264	156.1271	212.1827	227.1124	317.4635	386.7611	440.8781	473.499	513.5817	537.0317	679.6005	772.1672	797.0478	838.9879	844.3618	895.7941	947.9701	954.8041	988.0963	1034.4177	1058.6918	1093.7376	1107.9574	1129.5176	1163.2795	1173.0127	1265.83	1287.1071	1306.3023	1403.9089	1412.9226	1430.0685	1479.8013	1482.2279	1499.9779	1508.8772	1888.636	3040.3129	3048.2261	3111.0035	3120.8846	3125.4279	3137.5014	3172.9256	3228.9776
CC12CC1COC(=O)O2	C[C@]12C[C@H]1COC(=O)O2	
InChI=1S/C6H8O3/c1-6-2-4(6)3-8-5(7)9-6/h4H,2-3H2,1H3	InChI=1S/C6H8O3/c1-6-2-4(6)3-8-5(7)9-6/h4H,2-3H2,1H3/t4-,6-/m0/s1
