17
gdb 26430	4.25881	1.08249	0.9064	1.8506	80.93	-0.1991	0.007	0.2062	1265.4978	0.136909	-418.032731	-418.02421	-418.023266	-418.066791	30.736	
C	-0.3459218293	 1.4055337656	-0.0502090794	-0.343596
N	 0.0891364199	 0.0099294959	-0.0254272654	-0.148592
C	 0.3847600403	-0.572156479	 1.1876339858	 0.066874
N	 0.2444526824	 0.0626381362	 2.2848108771	-0.481243
C	 0.0042314339	-0.7722183627	-1.164643162	 0.426931
C	-0.3884513464	-2.0595321209	-1.386818642	-0.277633
C	-0.1649103967	-2.3038998132	-2.7831488149	-0.163976
C	 0.3186088085	-1.1492535297	-3.3019538502	-0.020951
O	 0.4421528564	-0.2034755834	-2.3217569837	-0.179728
H	 0.3254417528	 1.9997503162	 0.5713594478	 0.153735
H	-0.3203004326	 1.7638873476	-1.0782007605	 0.142657
H	-1.3593865126	 1.5069825446	 0.3541958422	 0.136889
H	 0.7531875918	-1.5966363105	 1.0739455779	 0.103359
H	 0.5563292475	-0.5133152095	 3.0631929507	 0.224059
H	-0.8142296024	-2.7327409404	-0.6610765351	 0.112082
H	-0.3635576924	-3.2158322755	-3.3239262375	 0.113509
H	 0.598547539	-0.8298209212	-4.2912857608	 0.135623
59.5923	73.0341	116.7704	157.5559	295.0604	305.7451	365.8971	450.6736	479.6296	609.8691	686.1015	728.8281	756.4564	786.1361	805.6942	845.3542	899.7454	918.1775	1017.9765	1036.6615	1052.8379	1100.8236	1128.6169	1152.5202	1172.2222	1201.885	1250.0741	1341.4951	1356.7275	1403.8445	1442.5427	1455.2978	1480.6699	1508.0651	1558.8313	1647.2461	1709.7774	3040.3492	3072.4567	3120.1307	3170.5514	3254.6176	3269.6602	3292.3397	3517.7726
CN(C=N)C1=CC=CO1	CN(C=N)c1ccco1	
InChI=1S/C6H8N2O/c1-8(5-7)6-3-2-4-9-6/h2-5,7H,1H3	InChI=1S/C6H8N2O/c1-8(5-7)6-3-2-4-9-6/h2-5,7H,1H3
