19
gdb 94817	2.76123	1.50732	1.13171	3.2491	70.34	-0.2497	0.0547	0.3044	1095.8625	0.15991	-460.151541	-460.143406	-460.142462	-460.184573	32.175	
O	 0.0556562947	 1.4393664468	 0.0813265194	-0.445098
C	 0.1179908532	 0.0390118473	 0.0305464431	 0.136403
C	 0.6890167001	-0.6286989507	 1.3023449923	-0.249617
C	 0.1225313401	-2.0572067616	 1.2426941171	-0.29695
C	-1.3037577842	-1.8153374258	 0.790006566	 0.377889
C	-2.4114444498	-2.7659220456	 0.8635800497	-0.249493
O	-2.292759304	-1.7116972029	 1.8370947826	-0.284654
C	-1.3002378341	-0.6069132844	-0.1655369606	 0.01435
O	-2.3279509781	 0.3112186459	 0.158167954	-0.444036
H	-0.8720198806	 1.6417406843	 0.2786871533	 0.286819
H	 0.7467225674	-0.2415604069	-0.8255031826	 0.074794
H	 1.7794829525	-0.5874991646	 1.3461926407	 0.103528
H	 0.2966440886	-0.1061155718	 2.1822160703	 0.11058
H	 0.6547247167	-2.6546815965	 0.4913298763	 0.109192
H	 0.1560684874	-2.59863192	 2.1907123045	 0.117187
H	-3.2513361707	-2.6666881692	 0.1774777524	 0.126158
H	-2.2461919329	-3.7673515199	 1.2572607849	 0.12433
H	-1.4434225767	-0.9209898547	-1.205374977	 0.087524
H	-2.7128396896	-0.0099297795	 0.9901324536	 0.301093
37.4002	167.4946	259.0377	289.4655	334.1715	374.3266	415.9984	436.3427	464.6992	539.8083	572.3017	604.4579	673.1481	751.7643	786.5417	871.6634	891.2037	902.9863	956.4432	969.2117	1001.1279	1060.3257	1112.8243	1124.3485	1139.1501	1162.7737	1176.32	1180.9732	1251.6482	1257.0555	1275.2745	1314.9302	1317.542	1344.0732	1384.9038	1418.4481	1440.3158	1450.6821	1475.1888	1495.3849	1526.31	3005.3015	3031.795	3042.7482	3050.8005	3087.5707	3108.1678	3113.2385	3176.562	3668.5844	3699.3451
OC1CCC2(CO2)C1O	O[C@H]1CC[C@]2(CO2)[C@H]1O	
InChI=1S/C6H10O3/c7-4-1-2-6(3-9-6)5(4)8/h4-5,7-8H,1-3H2	InChI=1S/C6H10O3/c7-4-1-2-6(3-9-6)5(4)8/h4-5,7-8H,1-3H2/t4-,5-,6-/m0/s1
