21
gdb 53662	4.76012	0.58384	0.56147	1.2968	88.5	-0.2406	0.0574	0.2979	2041.4621	0.179607	-387.054659	-387.043873	-387.042929	-387.092262	38.23	
C	-0.0036904571	 1.5119559562	-0.0371937595	-0.497467
C	 0.0007228092	 0.0587810627	 0.0571621293	 0.116378
C	 0.0154106988	-1.142599708	 0.1379701115	 0.018901
C	-0.0043323831	-2.5979267264	 0.2231492577	-0.373667
C	-1.3510189182	-3.2130581865	-0.2164027736	-0.232233
C	-1.3725613108	-4.7237541083	-0.0922087319	 0.436517
O	-0.4386429584	-5.3919452768	-0.9067967699	-0.47499
C	-1.7216773024	-5.3709957149	 1.2272279388	-0.322871
C	-2.6780495292	-5.4422680881	 0.0503730791	-0.313416
H	 0.877570151	 1.8801288861	-0.5744059689	 0.145842
H	-0.8895768062	 1.8742072641	-0.5708008045	 0.145929
H	-0.0035370518	 1.9773190871	 0.9548818216	 0.144982
H	 0.7966368898	-3.0102172034	-0.404946433	 0.120085
H	 0.2166537255	-2.9127929701	 1.2523481372	 0.123031
H	-2.1558324195	-2.7845354711	 0.3898441795	 0.10402
H	-1.5478830262	-2.9337342774	-1.257480122	 0.114628
H	 0.4258617455	-5.3238079617	-0.4881624214	 0.283395
H	-1.1922474627	-6.2806437079	 1.488325989	 0.112474
H	-1.9820861002	-4.7369652019	 2.0683522206	 0.111763
H	-3.5906921515	-4.8575975615	 0.0875575054	 0.113249
H	-2.7620092523	-6.3929947722	-0.4627082451	 0.123449
29.5549	43.8102	77.805	91.4278	185.4266	214.5022	268.7615	288.6319	343.2433	346.7713	389.1754	421.7202	485.4679	508.1808	717.6523	761.8967	781.3093	802.0026	905.5694	924.249	935.1601	975.3346	1029.4269	1039.2941	1050.6991	1054.6597	1063.9222	1077.5256	1169.1194	1178.3804	1188.8642	1271.1357	1273.4998	1311.3756	1321.9188	1361.4276	1395.1922	1415.6195	1452.8744	1473.7551	1479.4831	1479.7605	1487.7509	1498.4838	2374.2953	3006.1408	3024.9289	3036.1091	3043.2955	3084.4701	3084.7156	3090.1158	3129.455	3139.3676	3215.5294	3232.9504	3805.0029
CC#CCCC1(O)CC1	CC#CCCC1(O)CC1	
InChI=1S/C8H12O/c1-2-3-4-5-8(9)6-7-8/h9H,4-7H2,1H3	InChI=1S/C8H12O/c1-2-3-4-5-8(9)6-7-8/h9H,4-7H2,1H3
