14
gdb 49012	3.36717	1.34096	1.10323	2.3565	63.99	-0.257	-0.0583	0.1987	1047.674	0.100093	-473.81174	-473.804167	-473.803223	-473.844191	27.652	
O	-0.7532054542	 0.9657574431	 0.6775596587	-0.245154
C	 0.1703286364	 0.8431966519	-0.0866345534	 0.092424
C	 1.3709076134	 1.7398702236	-0.0915478783	 0.199455
C	 1.5435866292	 2.8059568199	 1.0101643134	-0.122943
O	 1.7582257625	 3.8596968108	 0.0368961488	-0.272953
C	 1.5519819499	 2.9696574758	-1.0639009949	-0.09495
C	 2.8730346989	 2.2685657464	-1.5011724073	 0.43789
O	 3.8032170557	 2.5307911991	-2.2040298538	-0.333063
N	 2.5923875779	 1.1882501748	-0.6695952738	-0.397353
H	 0.1937050722	 0.052304404	-0.8674774615	 0.094398
H	 0.6229041268	 2.9744266693	 1.5753770212	 0.143915
H	 2.3953439423	 2.6730935818	 1.683820891	 0.117511
H	 0.8387212471	 3.32769657	-1.8073656507	 0.122742
H	 3.2407087617	 0.5250576395	-0.2638902494	 0.258083
94.4291	114.6582	209.1484	244.1222	276.7136	391.0436	440.332	492.4433	530.4831	682.3125	726.454	757.5566	796.5877	874.2844	960.4718	966.963	995.7928	1023.4712	1081.7866	1107.5965	1140.7913	1165.4121	1224.0989	1262.2757	1279.1134	1335.11	1353.2665	1411.1897	1505.1196	1818.6266	1911.452	2903.4255	3051.1214	3114.5221	3117.9222	3575.7368
O=CC12COC1C(=O)N2	O=C[C@]12CO[C@H]1C(=O)N2	
InChI=1S/C5H5NO3/c7-1-5-2-9-3(5)4(8)6-5/h1,3H,2H2,(H,6,8)	InChI=1S/C5H5NO3/c7-1-5-2-9-3(5)4(8)6-5/h1,3H,2H2,(H,6,8)/t3-,5-/m0/s1
