16
gdb 94516	2.67116	1.29362	1.06688	3.8632	69.91	-0.2732	-0.0915	0.1817	1147.6797	0.122504	-437.879204	-437.870175	-437.86923	-437.914334	31.105	
C	-0.4050770311	 1.4753321469	 0.0362234607	-0.435253
C	-0.0111275967	 0.0074835335	-0.0310765942	-0.043523
C	 1.3248344973	-0.3560218071	-0.7202614922	-0.078565
O	 1.7929781906	-1.0661306364	 0.4500776927	-0.265156
C	 0.6519996421	-0.6912055602	 1.2082661791	 0.012343
C	 0.9931300119	 0.2219800476	 2.3717292332	 0.279818
O	 2.0600433073	 0.7397073718	 2.5664187579	-0.254756
C	-0.1505663275	 0.4604084122	 3.2862119867	 0.21514
N	-1.06487734	 0.6357616802	 3.9724157854	-0.297927
H	 0.4145180416	 2.0971391234	 0.4109796686	 0.139728
H	-0.6649429222	 1.8372584091	-0.9638344711	 0.131284
H	-1.2757663444	 1.6308631892	 0.6804965807	 0.143669
H	-0.8446718703	-0.5928444412	-0.4011906879	 0.104358
H	 1.2618366564	-1.0121284627	-1.5943176046	 0.116579
H	 1.9669380023	 0.5021771138	-0.9519811222	 0.118246
H	 0.0967597529	-1.5546699801	 1.6017747172	 0.114014
43.6526	48.6105	120.4234	159.5395	240.4095	272.1094	275.5641	342.6518	413.8034	471.245	583.9564	703.6013	715.956	837.3145	892.0995	912.2752	927.7985	996.7753	1032.9843	1075.5753	1116.2164	1142.2808	1150.8488	1171.8842	1228.6945	1273.0038	1340.8117	1357.0082	1386.491	1417.4764	1496.8304	1499.8238	1524.5938	1806.0434	2333.7069	3007.3654	3028.6453	3037.1928	3075.7886	3090.3403	3107.2787	3114.5349
CC1COC1C(=O)C#N	C[C@H]1CO[C@H]1C(=O)C#N	
InChI=1S/C6H7NO2/c1-4-3-9-6(4)5(8)2-7/h4,6H,3H2,1H3	InChI=1S/C6H7NO2/c1-4-3-9-6(4)5(8)2-7/h4,6H,3H2,1H3/t4-,6+/m0/s1
