16
gdb 54930	4.82472	0.88043	0.79264	3.6242	71.27	-0.2551	0.0134	0.2685	1377.5365	0.125494	-434.101392	-434.092731	-434.091787	-434.135632	30.954	
N	-0.1266135081	 1.3214079693	 0.1345376711	-0.557335
C	-0.0375348283	-0.0614782098	 0.1434905729	 0.410177
O	 1.0106536421	-0.6732709432	 0.068555873	-0.38273
N	-1.2586635716	-0.7015213832	 0.2114624313	-0.100101
C	-2.5421026953	-0.2677699904	-0.3601341348	-0.195875
C	-2.8552049686	-1.7623120225	-0.7027601644	-0.176123
C	-1.4245904861	-2.1083745806	-0.1632380831	-0.17231
C	-3.9700839504	-2.3526522021	 0.0162862642	 0.277606
N	-4.8567780288	-2.8178476989	 0.5939107471	-0.315777
H	 0.76225077	 1.7722851194	 0.2911139842	 0.266215
H	-0.9000881279	 1.7475089035	 0.6226556834	 0.256991
H	-3.2290148499	 0.1936424695	 0.3558329915	 0.133735
H	-2.4430158228	 0.3772473419	-1.2395518115	 0.133525
H	-2.9751554917	-1.9479496838	-1.7710148807	 0.140597
H	-0.7194569333	-2.4381082038	-0.930959351	 0.140029
H	-1.3993226393	-2.8050798253	 0.6777905467	 0.141375
42.3463	103.9645	139.9997	167.3038	239.6514	258.7474	409.5319	422.4916	521.7485	546.4379	559.0649	590.5599	683.1071	763.3194	780.9783	883.8872	909.413	1008.6546	1024.4711	1085.1539	1113.6029	1139.2168	1163.207	1181.4541	1201.1931	1233.884	1295.4272	1336.3333	1350.5692	1430.5025	1511.1319	1529.7297	1623.9405	1797.6714	2359.8074	3038.2286	3062.9868	3087.2854	3105.3325	3117.9162	3575.1133	3689.984
NC(=O)N1CC(C1)C#N	NC(=O)N1CC(C1)C#N	
InChI=1S/C5H7N3O/c6-1-4-2-8(3-4)5(7)9/h4H,2-3H2,(H2,7,9)	InChI=1S/C5H7N3O/c6-1-4-2-8(3-4)5(7)9/h4H,2-3H2,(H2,7,9)
