18
gdb 33408	2.48766	1.30177	0.95231	1.686	78.1	-0.2443	0.034	0.2783	1248.9138	0.14553	-401.845387	-401.836388	-401.835444	-401.879714	33.017	
C	-1.1407825712	-0.7876468323	 0.1259226502	-0.468275
C	-0.5128486704	 0.2352368925	 0.2044606635	 0.326616
C	 0.2353197607	 1.4987056055	 0.2618032796	-0.172075
C	 1.6368982565	 1.3186910088	-0.3081309387	 0.109993
C	 2.7660637339	 2.0777711748	 0.2301226967	-0.174505
O	 2.5886633425	 0.6913123353	 0.5434709425	-0.234217
N	-0.3896989095	 2.6452185282	-0.4181612945	-0.083246
C	-1.1572996915	 2.414213797	-1.6410793602	-0.227589
C	-1.8412546296	 2.7876511501	-0.3729073013	-0.22572
H	-1.6812400798	-1.7009662683	 0.0772714007	 0.202999
H	 0.3501593921	 1.7831573494	 1.3152534975	 0.119386
H	 1.667485606	 0.9917065573	-1.3475770676	 0.101528
H	 3.6167034507	 2.3084915456	-0.4086132274	 0.117426
H	 2.5993438234	 2.7694630182	 1.0542636711	 0.119562
H	-1.0034679995	 3.1479567002	-2.426733252	 0.117604
H	-1.2902453166	 1.3894505283	-1.9797568762	 0.126216
H	-2.4183418373	 2.0062136687	 0.1157859525	 0.126179
H	-2.1988343803	 3.8003680806	-0.2113566165	 0.118118
64.4119	82.5274	136.4001	162.2447	185.6857	312.4874	354.6061	370.2153	445.2947	525.5258	585.5628	636.8859	666.3151	791.5854	828.3309	845.5188	874.1767	911.4854	928.5763	1005.5214	1029.0405	1045.4182	1094.8444	1118.0873	1128.9274	1137.291	1156.3838	1170.7623	1178.9416	1190.6729	1272.4001	1292.7848	1311.1944	1328.38	1440.7095	1483.4493	1512.0362	1530.1489	2223.0503	3033.1465	3089.0566	3107.3034	3109.3518	3113.9372	3177.528	3189.4605	3202.6145	3499.966
C#CC(C1CO1)N1CC1	C#C[C@@H]([C@H]1CO1)N1CC1	
InChI=1S/C7H9NO/c1-2-6(7-5-9-7)8-3-4-8/h1,6-7H,3-5H2	InChI=1S/C7H9NO/c1-2-6(7-5-9-7)8-3-4-8/h1,6-7H,3-5H2/t6-,7+/m0/s1
