20
gdb 60357	2.73235	0.87256	0.69496	3.8512	76.43	-0.27	0.0106	0.2807	1631.7606	0.167562	-440.288792	-440.277927	-440.276983	-440.326078	37.912	
C	-0.3837894009	 1.1560139189	 0.1029841989	-0.394503
C	 0.2388756228	-0.2356714725	-0.0250142239	 0.156618
C	-0.790535544	-1.3504469683	 0.107516229	-0.391613
O	 0.8634730604	-0.4203480245	-1.297856333	-0.256334
C	 2.0509485916	 0.2927387292	-1.5078419592	-0.087165
C	 2.7844178309	-0.3736208527	-2.683898696	-0.021045
O	 3.9112094497	 0.3712155276	-3.0980376429	-0.408111
C	 3.1456989497	-1.7661810077	-2.3502304923	 0.257845
N	 3.4828751613	-2.8348007053	-2.0686200334	-0.320105
H	 0.3675835836	 1.9472410403	 0.0214690826	 0.116503
H	-1.1328602331	 1.3099637334	-0.680434383	 0.125581
H	-0.8735555221	 1.2646085354	 1.0756661333	 0.120455
H	 1.0076024136	-0.3581831722	 0.7562557434	 0.072815
H	-1.5601781965	-1.2516710202	-0.6644422637	 0.124683
H	-0.3111496762	-2.3256505798	-0.0073726005	 0.133894
H	-1.2759866798	-1.3099131859	 1.0868528282	 0.11587
H	 1.877949458	 1.3432509039	-1.7825112093	 0.111764
H	 2.6965342829	 0.275446782	-0.6136896786	 0.092073
H	 2.1012177052	-0.3953800998	-3.5389007189	 0.152682
H	 4.5876848828	 0.3079687684	-2.4139654005	 0.298095
28.766	47.6749	111.7304	133.6118	211.4732	216.7328	237.6574	253.7776	294.5867	308.2082	332.2976	413.8464	453.8072	512.7309	588.7796	609.2758	806.8061	835.7729	928.2281	933.6695	947.4542	1042.2818	1077.3089	1112.2344	1125.2414	1159.4137	1171.6411	1200.6989	1235.1113	1269.5899	1339.2672	1363.3844	1369.5254	1398.2787	1413.1562	1416.5016	1422.1024	1480.6769	1485.413	1494.7581	1508.0218	1519.9683	2357.6054	2961.8501	2967.5809	3020.6063	3037.245	3045.0635	3078.6629	3108.9179	3111.1634	3118.9873	3128.5956	3803.4897
CC(C)OCC(O)C#N	CC(C)OC[C@@H](O)C#N	
InChI=1S/C6H11NO2/c1-5(2)9-4-6(8)3-7/h5-6,8H,4H2,1-2H3	InChI=1S/C6H11NO2/c1-5(2)9-4-6(8)3-7/h5-6,8H,4H2,1-2H3/t6-/m0/s1
