18
gdb 51926	5.0992	0.53835	0.52994	4.037	85.46	-0.2392	0.0253	0.2645	2089.4882	0.146943	-401.931566	-401.921814	-401.92087	-401.969377	33.54	
O	 0.300794732	-0.0516720119	 0.5624719632	-0.323317
C	 0.2329800246	 1.1595609747	 0.5695733322	 0.16036
N	 1.0770750157	 1.9932875473	-0.0919608493	-0.268178
C	 2.2322562537	 1.5004411982	-0.839350508	-0.287456
C	 3.4388037676	 2.2722430999	-0.5691673367	 0.029169
C	 4.4263133832	 2.9299624383	-0.3543047377	 0.095019
C	 5.6051982766	 3.7036091354	-0.0982200141	-0.158804
C	 6.0453810841	 3.9739651068	 1.3336792512	-0.25195
C	 6.8453149396	 3.0376318338	 0.4805262397	-0.249756
H	-0.544887552	 1.7200301771	 1.124803529	 0.077941
H	 0.9697515733	 2.9890693435	 0.0154890962	 0.253343
H	 2.3525910231	 0.4508674369	-0.5515804232	 0.172151
H	 2.0195854012	 1.5078062074	-1.9175285534	 0.139096
H	 5.7911341137	 4.5059823371	-0.8063466069	 0.110711
H	 6.4495269636	 4.9567048701	 1.5484963418	 0.120449
H	 5.4361997854	 3.5502161567	 2.122911073	 0.129196
H	 6.7809810798	 1.9764867658	 0.6883524854	 0.130866
H	 7.8051212049	 3.3699720627	 0.1017805374	 0.121162
17.9576	22.7907	78.1103	124.8289	187.2518	237.8596	269.9913	297.7503	436.6437	501.5728	522.4912	551.2625	686.2444	781.8547	805.8522	823.5069	895.5204	910.2977	971.4179	1031.8745	1036.3165	1063.321	1063.9996	1082.2959	1118.4095	1185.819	1201.6082	1202.9267	1232.9359	1255.7129	1372.5388	1394.9475	1426.2022	1467.1415	1489.2219	1497.3175	1516.7553	1803.3029	2361.169	2939.4571	3007.2996	3080.0752	3142.2737	3143.605	3148.4915	3227.3371	3242.37	3642.6546
O=CNCC#CC1CC1	O=CNCC#CC1CC1	
InChI=1S/C7H9NO/c9-6-8-5-1-2-7-3-4-7/h6-7H,3-5H2,(H,8,9)	InChI=1S/C7H9NO/c9-6-8-5-1-2-7-3-4-7/h6-7H,3-5H2,(H,8,9)
