17
gdb 16507	3.81572	2.46365	1.86823	1.5903	71.62	-0.2108	0.0058	0.2166	761.5508	0.143938	-326.690923	-326.684585	-326.683641	-326.720835	26.094	
C	-0.0104806291	 1.4786355425	 0.0301883669	-0.491778
C	 0.0344308511	-0.0282655684	-0.0133582844	 0.313345
C	-0.0181848375	-0.7446223441	-1.3232797319	-0.137851
C	-0.5265913206	-1.9615757516	-1.1305572328	-0.08492
C	-0.7078162104	-2.1535546223	 0.3536059747	-0.06174
C	 0.7074027763	-2.267026196	 1.0150086642	-0.245751
C	 0.6368602957	-0.7581935936	 1.1658977546	-0.077957
N	-0.8561884337	-0.7402628329	 0.9361511978	-0.168441
H	 0.8933376792	 1.9101701069	-0.4136542573	 0.116814
H	-0.8772246866	 1.8541332484	-0.5234400121	 0.126453
H	-0.0892868026	 1.8343729256	 1.060940799	 0.128461
H	 0.3259889619	-0.3110540542	-2.2536577091	 0.101644
H	-0.6454809085	-2.7491824627	-1.8639374277	 0.102838
H	-1.4757924269	-2.8539849517	 0.6789646523	 0.079665
H	 0.6446983709	-2.7439912548	 1.9957471338	 0.113963
H	 1.5177455641	-2.7174860588	 0.4339877777	 0.097823
H	 1.0966096968	-0.1956539623	 1.9745782343	 0.087431
188.314	263.6526	296.5608	361.0013	401.3435	551.4619	592.2981	717.7075	730.4851	755.7308	774.7331	838.6475	863.2871	889.6475	907.3238	936.0635	976.1902	987.2364	1025.2266	1029.7167	1067.1068	1092.3825	1108.8555	1144.0827	1209.1284	1245.0386	1254.0183	1261.5566	1331.3164	1355.9692	1381.9113	1416.2097	1483.634	1486.6414	1495.3603	1660.331	3034.2031	3050.1242	3098.8483	3109.7405	3117.5425	3120.7255	3141.1638	3202.0577	3227.0637
CC12C=CC3CC1N23	C[C@@]12C=C[C@H]3C[C@@H]1N23	
InChI=1S/C7H9N/c1-7-3-2-5-4-6(7)8(5)7/h2-3,5-6H,4H2,1H3	InChI=1S/C7H9N/c1-7-3-2-5-4-6(7)8(5)7/h2-3,5-6H,4H2,1H3/t5-,6-,7+,8?/m0/s1
