16
gdb 45264	3.14385	1.70508	1.36918	4.8176	67.71	-0.2459	0.0354	0.2813	934.4028	0.12618	-437.895732	-437.88883	-437.887885	-437.927161	27.082	
O	 0.1031379827	-0.0159323504	-0.1884921637	-0.359615
C	 0.0562115684	 1.1699661709	-0.0199961881	 0.450014
N	-0.9682625919	 2.0411286105	 0.25810671	-0.325249
C	-0.1675061967	 3.2682819712	 0.2171097485	 0.02859
C	 0.061380401	 4.0396337368	 1.5362225225	-0.268801
C	 1.3243375692	 3.4505690931	 2.1414020826	 0.054088
O	 1.2401547416	 2.0493370527	 2.4065447454	-0.245158
C	 1.926773388	 2.4680693024	 1.2195219301	 0.034562
C	 1.0790485981	 2.3487068795	-0.0314139565	-0.240916
H	-1.9500683317	 1.8806171762	 0.4282480677	 0.249965
H	-0.4501913115	 3.9295819113	-0.6071973321	 0.091514
H	 0.2149318558	 5.1045693967	 1.3289407398	 0.108944
H	-0.7928086317	 3.9550376528	 2.2156800462	 0.119674
H	 1.9073508119	 4.0239466098	 2.8596115118	 0.098643
H	 2.9898635562	 2.2470516971	 1.1928640744	 0.104089
H	 1.6397170505	 2.4814137494	-0.9568163687	 0.099654
94.3944	158.7708	288.0935	356.5045	379.8782	429.4589	518.9562	648.4482	694.6049	723.4934	769.3412	823.7967	830.6948	865.1744	896.8359	933.5322	974.4144	984.6931	1042.9336	1047.3942	1065.0547	1112.6834	1147.9628	1173.8434	1199.8544	1244.2871	1261.3334	1291.8653	1311.0592	1328.7439	1378.7007	1385.0429	1429.6269	1467.9627	1904.467	3043.6975	3061.294	3091.6989	3121.7982	3131.9105	3160.7475	3611.4335
O=C1NC2CC3OC3C12	O=C1N[C@H]2C[C@H]3O[C@H]3[C@@H]12	
InChI=1S/C6H7NO2/c8-6-4-2(7-6)1-3-5(4)9-3/h2-5H,1H2,(H,7,8)	InChI=1S/C6H7NO2/c8-6-4-2(7-6)1-3-5(4)9-3/h2-5H,1H2,(H,7,8)/t2-,3+,4-,5+/m0/s1
