21
gdb 61958	5.41161	0.56047	0.52859	2.076	86.45	-0.2505	-0.0236	0.2269	2032.5125	0.178415	-387.073289	-387.062335	-387.061391	-387.110749	38.366	
C	 0.053673563	 1.5693804112	-0.102850058	-0.396132
C	 0.0019264947	 0.0408603224	 0.0440026442	 0.010227
C	-1.4356022598	-0.5060819372	 0.0852289143	-0.176543
C	-2.2660097257	-0.0113592571	 1.2886699333	-0.372855
C	-3.5832195431	-0.6330684449	 1.3494509926	 0.291785
C	-4.6626846837	-1.1611447511	 1.3748853635	-0.429932
C	 0.7919854852	-0.6411021153	-1.0946776278	-0.282263
C	 2.2755429681	-0.3620671773	-1.0159696241	 0.1589
O	 2.9482929373	 0.092779226	-1.9044923039	-0.239947
H	 1.0853091868	 1.9287208907	-0.1713643944	 0.128773
H	-0.4654487064	 1.8887861521	-1.0140531781	 0.123586
H	-0.4125533674	 2.0771268134	 0.7457902882	 0.121179
H	 0.4895333557	-0.2303130039	 0.9931236092	 0.077736
H	-1.9585642943	-0.2406355064	-0.8418294137	 0.111906
H	-1.404462992	-1.6009872076	 0.1186352528	 0.108392
H	-1.7202710459	-0.2209639015	 2.2187181319	 0.128977
H	-2.3853303254	 1.0775302219	 1.2449920852	 0.135258
H	-5.6194698415	-1.6200037797	 1.408886547	 0.194944
H	 0.6676503091	-1.7309823458	-1.014705573	 0.116699
H	 0.4265527317	-0.3298476653	-2.0786243443	 0.120037
H	 2.7316919137	-0.6196358046	-0.0293779448	 0.069272
49.8994	50.1212	71.1692	105.3139	110.1565	208.7681	235.9227	272.9833	311.245	346.6718	410.4435	425.7429	529.5115	542.2349	619.1265	638.9566	763.2568	779.0528	874.7981	933.7843	946.3732	959.3153	994.8091	1013.1804	1043.2637	1126.6703	1133.6037	1156.6645	1197.2325	1244.4836	1262.279	1305.9036	1315.5121	1363.131	1373.6235	1386.5767	1419.6348	1429.3559	1460.4331	1472.4809	1491.2318	1498.5866	1504.8989	1835.4953	2239.5595	2839.8459	2987.0663	3011.2212	3015.973	3032.1469	3035.0354	3051.9424	3078.4739	3090.305	3099.5282	3112.3518	3507.6579
CC(CCC#C)CC=O	C[C@@H](CCC#C)CC=O	
InChI=1S/C8H12O/c1-3-4-5-8(2)6-7-9/h1,7-8H,4-6H2,2H3	InChI=1S/C8H12O/c1-3-4-5-8(2)6-7-9/h1,7-8H,4-6H2,2H3/t8-/m0/s1
