24
gdb 103964	3.22046	1.14656	1.03295	1.053	89.37	-0.2244	0.0775	0.3018	1310.3897	0.216423	-368.3679	-368.358155	-368.357211	-368.401688	38.031	
C	-1.1970921917	 0.9052058949	 0.0640648302	-0.396946
C	-0.8752193407	-0.5238154501	-0.3867539715	-0.204988
C	 0.0306083783	-0.6438327011	-1.6291081698	 0.323691
C	-0.6138703948	 0.0241519281	-2.8447731425	-0.468443
C	 1.5205256879	-0.2934353578	-1.2671089289	-0.317953
C	 1.8628151258	-1.797809018	-1.2868069503	-0.039406
C	 0.4643301511	-2.1332968753	-1.755114022	-0.087619
N	 1.6249276101	-2.4197964415	-2.5638219314	-0.08548
C	 1.9745865506	-1.8184360549	-3.8403322852	-0.314024
H	-0.2862038447	 1.4843687355	 0.2506576681	 0.116109
H	-1.7873562526	 1.4464593651	-0.6810491668	 0.119056
H	-1.7755290876	 0.8932849079	 0.9931434539	 0.113033
H	-0.3985680529	-1.0638482262	 0.441354759	 0.094999
H	-1.8142832377	-1.0565060474	-0.5917704399	 0.090963
H	-0.7333927072	 1.1015676486	-2.6890853354	 0.115394
H	-0.0290484599	-0.10969627	-3.7553342632	 0.115414
H	-1.6107661592	-0.3941818719	-3.0289402788	 0.111102
H	 2.0691331597	 0.3313487914	-1.9788169161	 0.095982
H	 1.6217287531	 0.1532253798	-0.2754110826	 0.101584
H	 2.4948307478	-2.3075957452	-0.5666066989	 0.0873
H	-0.1743075045	-2.9690544015	-1.4793254424	 0.081581
H	 2.0082524721	-0.7215413069	-3.8498177077	 0.107756
H	 2.9667553002	-2.1829336534	-4.1276563404	 0.118359
H	 1.262402187	-2.14898614	-4.6026300674	 0.122535
108.3282	146.157	160.8076	190.7941	235.4701	254.0098	274.9807	305.8134	364.3049	372.4085	417.5835	473.5147	590.7648	637.0836	720.0064	789.1193	815.4305	841.0191	853.5649	898.4713	915.146	978.6994	989.203	1016.8559	1028.431	1050.5955	1059.7976	1070.7839	1122.9247	1152.287	1175.5268	1184.9744	1208.4904	1226.3561	1257.8127	1266.0341	1292.2891	1334.2839	1367.7241	1388.2635	1409.7622	1417.4159	1448.7206	1475.0692	1484.9788	1491.2553	1495.9188	1499.9125	1506.9149	1516.1075	1516.5433	3008.549	3012.0446	3032.8949	3036.6102	3043.8952	3052.5213	3071.1495	3089.6478	3099.4825	3101.1743	3104.9248	3110.7599	3134.7937	3141.9761	3159.4141
CCC1(C)CC2C1N2C	CC[C@@]1(C)C[C@H]2[C@@H]1N2C	
InChI=1S/C8H15N/c1-4-8(2)5-6-7(8)9(6)3/h6-7H,4-5H2,1-3H3	InChI=1S/C8H15N/c1-4-8(2)5-6-7(8)9(6)3/h6-7H,4-5H2,1-3H3/t6-,7-,8-,9?/m0/s1
