19
gdb 14454	3.1927	2.36384	1.9468	1.8549	74.69	-0.2215	0.0876	0.309	802.6825	0.16769	-327.87709	-327.870365	-327.869421	-327.907528	27.33	
C	 0.0156583251	 1.558022935	-0.0552837332	-0.5254
C	 0.0124711543	 0.0490745517	-0.0245852344	 0.302934
C	 0.564859665	-0.9557548583	-1.0476007996	-0.211493
N	 0.007326839	-1.9006528914	 0.0170090381	-0.166814
C	 0.5870688937	-0.9150933941	 1.0578535699	-0.002686
C	-0.3222333485	-0.9759764289	 2.2777887197	-0.240429
C	-1.6944280873	-0.9879150658	 1.5485752343	-0.240429
C	-1.1929796031	-0.9305764884	 0.1118983855	-0.002685
H	 1.0380569286	 1.9495850258	-0.0994681449	 0.120316
H	-0.5251046536	 1.9359882259	-0.9300920132	 0.120316
H	-0.4628150137	 1.9745332309	 0.8383441341	 0.118752
H	 0.0601781745	-1.0406159822	-2.0156189822	 0.091515
H	 1.6505986697	-1.0267803217	-1.1704410232	 0.091515
H	 1.6677137946	-0.9891999023	 1.2022048827	 0.064206
H	-0.1477635889	-1.8810474657	 2.8659997204	 0.109672
H	-0.1881424747	-0.113200272	 2.9372494797	 0.098416
H	-2.2672283765	-1.8994906832	 1.7396654912	 0.109672
H	-2.3276773316	-0.1318185291	 1.8002602192	 0.098416
H	-1.9161957267	-1.0203729464	-0.7023604644	 0.064206
180.927	200.7305	212.2463	320.1799	413.642	455.1366	608.6981	677.02	708.8244	743.1625	808.0853	823.893	882.3591	904.9741	929.9172	942.4073	977.8148	986.0466	997.2536	1039.4295	1043.7876	1092.6585	1122.3387	1146.1165	1178.6413	1192.3061	1213.8474	1249.7001	1256.154	1265.3994	1296.277	1313.4521	1318.2745	1389.6992	1406.8586	1474.9189	1488.6235	1489.2427	1499.0859	1531.1636	3023.8139	3034.7616	3051.138	3059.3987	3085.9771	3090.6912	3091.4479	3092.2409	3093.6665	3094.1907	3108.6399
CC12CN3C1CCC23	C[C@@]12CN3[C@@H]1CC[C@@H]23	
InChI=1S/C7H11N/c1-7-4-8-5(7)2-3-6(7)8/h5-6H,2-4H2,1H3	InChI=1S/C7H11N/c1-7-4-8-5(7)2-3-6(7)8/h5-6H,2-4H2,1H3/t5-,6+,7-
