18
gdb 124498	2.59388	1.2696	1.04729	3.3874	74.49	-0.2206	0.0014	0.222	1214.0511	0.147966	-435.276419	-435.267391	-435.266447	-435.31081	33.125	
C	-0.0272918873	 1.5777741431	 0.0466676384	-0.383228
C	-0.077517367	 0.0387526163	-0.0077551466	-0.100316
C	-1.5303149099	-0.4736542473	 0.0216436971	-0.383259
C	 0.686165647	-0.5065038178	-1.176217557	 0.271515
C	 1.7971007823	-1.3184081653	-1.2663616244	 0.275032
O	 2.5021625527	-1.8463611022	-0.2435461733	-0.435758
N	 2.116462532	-1.5369226416	-2.5625185859	-0.280902
N	 1.2574795503	-0.8993997365	-3.3192955238	-0.131097
N	 0.4025299247	-0.2835244171	-2.4928972091	-0.240049
H	 1.004173227	 1.9401361628	 0.0576687175	 0.129686
H	-0.5305160205	 2.0232426313	-0.8195226163	 0.106777
H	-0.5318850909	 1.94629454	 0.9452186981	 0.11982
H	 0.4343348443	-0.3471045854	 0.8809473566	 0.110428
H	-2.0966882651	-0.1143178041	-0.8455730013	 0.106761
H	-1.5649922112	-1.5664034754	 0.0148890838	 0.129682
H	-2.0442274231	-0.1178539135	 0.9200378563	 0.119834
H	 3.2156287722	-2.3640001609	-0.6371359495	 0.306911
H	-0.3429620975	 0.2665976836	-2.8884815606	 0.278165
30.441	133.5228	159.2235	227.009	251.4737	283.5986	305.7123	349.8298	394.8142	448.8339	528.7791	568.9888	619.4314	721.8092	750.2665	753.149	887.7537	931.0859	961.5277	1007.1832	1077.5042	1118.464	1122.413	1139.5466	1186.1968	1240.2549	1259.5367	1340.0317	1350.6438	1390.4831	1397.6721	1399.8046	1424.3736	1484.3205	1491.3787	1501.9558	1506.1005	1531.2977	1676.1471	3028.8402	3031.5967	3049.7182	3093.4704	3101.4048	3116.919	3118.9192	3657.8409	3798.3227
CC(C)C1=C(O)N=NN1	CC(C)c1c(O)nn[nH]1	
InChI=1S/C5H9N3O/c1-3(2)4-5(9)7-8-6-4/h3H,1-2H3,(H2,6,7,8,9)	InChI=1S/C5H9N3O/c1-3(2)4-5(9)7-8-6-4/h3H,1-2H3,(H2,6,7,8,9)
