19
gdb 68427	2.60922	1.62003	1.24235	3.5368	79.01	-0.2436	0.0272	0.2707	1053.334	0.161589	-382.058791	-382.050993	-382.050049	-382.090854	30.796	
C	-0.0411188177	 1.5303129568	 0.0658935379	-0.512578
C	 0.0256126259	 0.0221141839	 0.0438612916	 0.317291
C	 0.8652547876	-0.808046048	-0.9668071801	-0.222826
N	 0.7815920229	-1.9384240513	 0.0367759192	-0.117194
C	 0.7979957539	-0.8416416733	 1.0818791069	-0.222311
C	-0.6705383113	-2.2270322121	-0.0160817842	-0.191773
C	-1.3101013441	-0.7750574385	-0.0340273695	-0.200578
C	-2.220382755	-0.5062963615	 1.06951766	 0.272503
N	-2.9295375842	-0.2914740199	 1.9580326018	-0.33832
H	 0.9617712413	 1.9641496876	 0.1299592344	 0.122658
H	-0.5175350436	 1.9196964608	-0.840858276	 0.123817
H	-0.6199622498	 1.886527533	 0.9243164818	 0.145728
H	 0.4517123717	-1.0296664322	-1.9559844126	 0.101907
H	 1.896144827	-0.4589284384	-1.057915236	 0.114536
H	 1.820781901	-0.4977421323	 1.250258647	 0.113787
H	 0.3193241352	-1.0926234108	 2.0324584538	 0.122366
H	-0.9160703914	-2.7892535058	-0.9192445035	 0.118997
H	-0.9778570817	-2.8047164469	 0.8571459333	 0.132957
H	-1.8371760377	-0.573195101	-0.9718041357	 0.119032
122.8666	137.6205	223.07	268.5246	297.7205	370.9054	458.731	487.0738	526.1741	577.916	623.7748	699.6029	811.8372	827.5275	863.6159	875.1378	896.7487	953.7465	982.6297	1001.2237	1014.6099	1042.9942	1061.4402	1101.5623	1149.3226	1199.4007	1215.6484	1228.2092	1241.0913	1253.088	1262.6743	1317.9306	1328.9204	1351.3017	1418.2331	1492.6079	1495.2453	1497.9895	1501.2222	1535.9653	2347.0329	3031.2893	3049.0199	3061.0012	3062.683	3079.8208	3097.0123	3105.5729	3118.1087	3126.3883	3135.4618
CC12CN(C1)CC2C#N	C[C@@]12CN(C1)C[C@H]2C#N	
InChI=1S/C7H10N2/c1-7-4-9(5-7)3-6(7)2-8/h6H,3-5H2,1H3	InChI=1S/C7H10N2/c1-7-4-9(5-7)3-6(7)2-8/h6H,3-5H2,1H3/t6-/m1/s1
