19
gdb 117207	3.51084	0.97619	0.8248	2.0811	74.02	-0.2469	0.0106	0.2574	1440.1134	0.156533	-460.18625	-460.176297	-460.175353	-460.221954	35.63	
C	 0.1045947481	 1.5006811296	-0.1344888011	-0.39495
C	 0.0784067942	-0.0113355935	-0.0283517456	-0.044582
O	 0.7038401517	-0.5454422918	-1.2143397066	-0.269679
C	 0.771705704	-1.8915577047	-1.2891877087	 0.402738
O	 0.3522406054	-2.636684449	-0.4369793249	-0.378445
C	 1.4784675893	-2.3224291256	-2.5348612006	 0.283176
O	 1.7187830873	-1.3508180752	-3.5042913956	-0.463921
C	 2.4971793827	-3.4440294606	-2.3512366831	-0.305802
C	 1.1912004377	-3.7049674004	-3.0484549118	-0.287735
H	 1.1316357033	 1.872082665	-0.1953504805	 0.128151
H	-0.4386026151	 1.839980378	-1.0209024659	 0.133659
H	-0.3674641569	 1.9413926532	 0.7484975124	 0.127231
H	 0.6224441336	-0.373653991	 0.8493029842	 0.125441
H	-0.9416228326	-0.4020561356	 0.0339072441	 0.127934
H	 1.9627165496	-0.5410865731	-3.0425008892	 0.288585
H	 3.3876267852	-3.3555717712	-2.9624816286	 0.125018
H	 2.6351217242	-3.8422767246	-1.3530587594	 0.132934
H	 0.4360439533	-4.2765105283	-2.5229950498	 0.139664
H	 1.2040094752	-3.8049184111	-4.1274531594	 0.130582
37.6322	73.8029	127.7814	132.342	232.0356	248.3525	273.7395	286.0635	328.9996	379.8143	426.5655	486.9033	570.2166	753.6892	779.6999	806.9837	814.9953	877.9291	897.8001	937.9458	945.1505	1006.2946	1056.4312	1056.8402	1087.952	1133.9418	1182.0809	1183.9778	1203.3891	1250.5215	1291.6023	1336.3155	1398.0491	1409.3503	1426.2909	1438.1904	1484.1791	1486.7096	1496.5922	1520.2129	1808.9001	3046.523	3056.1667	3094.2606	3121.3212	3127.1019	3142.8725	3147.5675	3236.6076	3250.4225	3810.9563
CCOC(=O)C1(O)CC1	CCOC(=O)C1(O)CC1	
InChI=1S/C6H10O3/c1-2-9-5(7)6(8)3-4-6/h8H,2-4H2,1H3	InChI=1S/C6H10O3/c1-2-9-5(7)6(8)3-4-6/h8H,2-4H2,1H3
