15
gdb 32400	6.67015	0.83059	0.74828	1.283	80.66	-0.218	-0.023	0.195	1437.5422	0.111794	-420.615418	-420.607029	-420.606085	-420.648798	30.844	
O	 0.3604994073	 0.9320569083	 0.8732683559	-0.408184
C	 0.0670969087	 0.0177894367	-0.1702452229	-0.17505
C	-1.3707824848	-0.4159493019	-0.1756277657	 0.227478
C	-2.247693205	-0.3229600724	 0.8651183839	-0.112064
O	-3.4661904825	-0.8070801346	 0.5239608462	-0.175464
C	-3.3773521017	-1.2316490104	-0.7756939742	 0.24307
C	-2.1110956266	-1.0082342935	-1.245467484	-0.420119
C	-4.5253884179	-1.78204915	-1.3710681376	 0.252042
C	-5.5020171555	-2.2563106671	-1.8928244126	-0.414057
H	-0.1860106688	 1.7129052562	 0.7335220841	 0.284321
H	 0.336213564	 0.4254858154	-1.1575216149	 0.101224
H	 0.7266986993	-0.8409381143	 0.0019723429	 0.131675
H	-2.1496283194	 0.0482207971	 1.8712483762	 0.148161
H	-1.7591967991	-1.2399494617	-2.2386589666	 0.120619
H	-6.3631083682	-2.6747634478	-2.3520877207	 0.196348
59.9648	123.4198	140.2423	208.5375	267.5648	350.0867	400.2169	457.0811	538.8585	542.2594	597.1314	629.0684	687.8034	688.3427	724.8836	782.634	831.167	956.206	982.719	1008.2333	1070.2967	1157.0849	1173.0487	1204.353	1223.3905	1293.2459	1343.2571	1404.1547	1435.7337	1502.4751	1534.8516	1633.2083	2231.913	2979.8233	3052.8059	3258.6968	3287.2204	3502.9988	3807.1239
OCC1=COC(=C1)C#C	OCc1coc(c1)C#C	
InChI=1S/C7H6O2/c1-2-7-3-6(4-8)5-9-7/h1,3,5,8H,4H2	InChI=1S/C7H6O2/c1-2-7-3-6(4-8)5-9-7/h1,3,5,8H,4H2
