20
gdb 70664	2.49127	1.46753	1.11684	2.0632	79.64	-0.2394	-0.0237	0.2158	1147.1275	0.170993	-403.14897	-403.140348	-403.139403	-403.182484	32.741	
C	-0.291922658	 1.3843603111	-0.0099484163	-0.47562
C	-0.0540983088	-0.1035921321	 0.0496699324	 0.321984
C	-0.6914221528	-0.9603374325	 1.0932403834	-0.299179
N	 0.7434274589	-0.6497312421	 1.1630475495	-0.128187
C	 1.6059987049	-1.7091282252	 0.617758542	-0.15712
C	 1.0712666722	-2.0889990983	-0.7855372301	-0.28482
C	 0.3414870632	-0.8128709547	-1.258501552	-0.106565
C	-0.8699332623	-1.1002110728	-2.1164005512	 0.15481
O	-1.1476488186	-0.5273695387	-3.1383535498	-0.253406
H	 0.5949436025	 1.904435448	-0.388432621	 0.123777
H	-1.1276460946	 1.6195016202	-0.6777080531	 0.132017
H	-0.5199841181	 1.7792267754	 0.9829727941	 0.128219
H	-1.2923180605	-0.4931637977	 1.8682690216	 0.118877
H	-0.9991534741	-1.9725282171	 0.8424818154	 0.109093
H	 2.6184836852	-1.298380723	 0.5434684148	 0.113978
H	 1.6436269091	-2.5614286937	 1.3031954936	 0.111214
H	 1.8679081338	-2.3868916307	-1.4706922245	 0.117898
H	 0.3725046523	-2.9309350988	-0.7289640182	 0.109946
H	 1.0038678846	-0.1535871458	-1.8284969492	 0.093115
H	-1.5333923789	-1.8986903114	-1.7070737316	 0.069966
56.274	111.8648	186.4258	234.8485	253.2708	289.9167	364.3982	415.1995	453.4438	476.1988	589.916	653.7144	714.9563	782.0164	821.1935	911.0719	918.1537	940.2954	955.7015	987.0863	1026.2087	1049.9743	1075.5172	1104.9397	1112.2756	1123.6571	1173.261	1209.157	1233.0286	1257.0388	1275.1738	1300.9571	1339.4177	1348.3521	1386.757	1421.6106	1426.1196	1484.8854	1489.8681	1494.2859	1502.786	1522.8262	1826.8699	2849.8232	3034.4033	3045.6465	3046.217	3063.1304	3088.7239	3097.2492	3107.5913	3110.6752	3123.2561	3189.7731
CC12CN1CCC2C=O	C[C@]12CN1CC[C@H]2C=O	
InChI=1S/C7H11NO/c1-7-5-8(7)3-2-6(7)4-9/h4,6H,2-3,5H2,1H3	InChI=1S/C7H11NO/c1-7-5-8(7)3-2-6(7)4-9/h4,6H,2-3,5H2,1H3/t6-,7+,8?/m0/s1
