19
gdb 114457	4.63294	1.16637	1.09769	2.5621	74.73	-0.2427	0.0925	0.3353	1142.9685	0.161282	-422.976803	-422.969575	-422.968631	-423.008564	29.148	
O	-0.0056348334	 1.4220681371	-0.1830456097	-0.422851
C	 0.0654122868	 0.0402568121	 0.1067243922	-0.067566
C	-1.3229788662	-0.5876507941	 0.1178497677	 0.075829
O	-1.9608638876	-0.3201843749	-1.1570660408	-0.310272
C	-2.2646684256	-1.6214939372	-1.6253222327	 0.148931
C	-2.783108924	-2.5089793249	-0.4569572664	-0.088259
C	-2.1324214804	-3.7386213669	-1.1286677068	-0.258694
C	-1.0985994023	-2.6072287532	-1.324417544	-0.087205
C	-1.3881571788	-2.1103896474	 0.1379633194	-0.064902
H	-0.5471340205	 1.4929077751	-0.9787340124	 0.291357
H	 0.7020253382	-0.4918655814	-0.6186289646	 0.082818
H	 0.5302823294	-0.0570626563	 1.0942695019	 0.104022
H	-1.9257440063	-0.1255269917	 0.910803339	 0.084385
H	-2.7605362621	-1.583260756	-2.5945644609	 0.087758
H	-3.7483848232	-2.4385102389	 0.0456035908	 0.076213
H	-1.8373939568	-4.5536311453	-0.4636744659	 0.099527
H	-2.6182011422	-4.1257279479	-2.0291177825	 0.095421
H	-0.1300815044	-2.6566146869	-1.8225096616	 0.077153
H	-0.9827810906	-2.6522104215	 0.9928291974	 0.076336
96.9695	149.8938	209.4006	356.721	418.64	448.9785	463.3555	522.4632	693.328	732.7677	790.5941	809.3664	839.2792	891.8294	895.6016	916.8172	974.1264	982.772	995.3467	1016.4822	1052.6908	1066.6785	1084.2908	1090.2027	1104.6914	1121.6458	1123.1986	1169.0665	1182.6754	1222.4004	1232.6499	1239.2526	1260.1223	1275.6296	1309.2476	1329.3322	1370.9832	1401.2854	1438.4925	1499.5605	1519.8165	2974.1928	3023.9928	3052.3401	3067.5597	3107.612	3109.4271	3113.6818	3121.6125	3138.265	3787.2574
OCC1OC2C3CC2C13	OC[C@H]1O[C@@H]2[C@H]3C[C@@H]2[C@@H]13	
InChI=1S/C7H10O2/c8-2-5-6-3-1-4(6)7(3)9-5/h3-8H,1-2H2	InChI=1S/C7H10O2/c8-2-5-6-3-1-4(6)7(3)9-5/h3-8H,1-2H2/t3-,4+,5-,6-,7+/m1/s1
