19
gdb 29268	3.86472	1.06857	0.90117	3.0068	84.53	-0.1991	0.0406	0.2397	1338.4114	0.160817	-382.111226	-382.102654	-382.101709	-382.145138	32.09	
C	 0.6997018889	 1.2587782061	-0.0013857996	-0.488637
C	 0.1909424428	-0.1410992124	-0.1166407703	 0.28678
C	-0.7406748292	-0.6428536023	-0.9861525108	-0.198952
N	-0.8487448688	-1.986527891	-0.6762105525	-0.303026
C	 0.009552115	-2.2407452187	 0.3533686241	 0.378397
N	 0.6494353063	-1.1466948321	 0.7112246085	-0.365884
C	 0.1665599954	-3.5768630659	 0.9534843532	-0.11904
C	 1.5317340458	-4.0054717446	 1.4563957962	-0.253859
C	 0.4447842503	-3.691359248	 2.4400370003	-0.253853
H	 0.223668793	 1.9128094775	-0.7372482021	 0.113447
H	 0.505832665	 1.6685714126	 0.9960045699	 0.129387
H	 1.7831913787	 1.299259705	-0.158600098	 0.129398
H	-1.3216000868	-0.1898318588	-1.7721851083	 0.119722
H	-1.4494668049	-2.6548207673	-1.1282208921	 0.258139
H	-0.4564912649	-4.3483198128	 0.5113829985	 0.072975
H	 1.8213159631	-5.0403390323	 1.3109819899	 0.109174
H	 2.3268019723	-3.278305618	 1.3412397492	 0.138322
H	 0.515347089	-2.7548177383	 2.9804726358	 0.138331
H	-0.0228019809	-4.5074150188	 2.9798218383	 0.109177
44.4114	116.1136	142.6872	150.6156	266.754	327.2061	405.6769	424.5564	511.1099	605.4936	657.6167	704.8964	714.307	746.7578	797.621	820.3183	912.2322	916.254	988.9958	1008.4414	1016.8133	1064.9445	1067.8215	1089.5549	1104.4897	1120.7139	1122.4276	1205.1738	1207.2541	1227.187	1285.45	1340.3313	1410.2693	1415.6023	1457.4961	1466.303	1475.9629	1493.1271	1508.3134	1574.0238	1612.4912	3031.7335	3084.6286	3113.2329	3137.1982	3139.5048	3152.6232	3226.2108	3240.4346	3272.0215	3665.2969
CC1=CNC(=N1)C1CC1	Cc1c[nH]c(n1)C1CC1	
InChI=1S/C7H10N2/c1-5-4-8-7(9-5)6-2-3-6/h4,6H,2-3H2,1H3,(H,8,9)	InChI=1S/C7H10N2/c1-5-4-8-7(9-5)6-2-3-6/h4,6H,2-3H2,1H3,(H,8,9)
