23
gdb 111007	2.44611	1.4926	1.15667	0.9357	85.88	-0.2431	0.0894	0.3325	1194.3069	0.206519	-388.27989	-388.27097	-388.270026	-388.313061	34.981	
C	-0.0152319779	 1.3322225233	-0.2758206767	-0.240761
O	-0.0971961439	 0.0677546779	 0.3418099987	-0.262404
C	-1.3457312731	-0.5565604919	 0.1831007729	 0.146408
C	-1.5853959488	-1.2907931656	-1.175812616	-0.065912
C	-0.6593661954	-2.4071193701	-0.6151222074	-0.268225
C	-1.3191850307	-2.0102316052	 0.7475564921	 0.322768
C	-0.684206868	-2.320106673	 2.0816316024	-0.504818
C	-2.7839872119	-2.4314214576	 0.5099300658	-0.256144
C	-2.9880721737	-1.8791433571	-0.9418189468	-0.223396
H	 0.9722498252	 1.7412622802	-0.0481911785	 0.125385
H	-0.1296818406	 1.2699654327	-1.3678559156	 0.107521
H	-0.782411981	 2.0213211598	 0.1110429567	 0.103827
H	-2.150583398	 0.1102407419	 0.5351556337	 0.045619
H	-1.3953361247	-0.8070526802	-2.1345316198	 0.055853
H	-0.8124268831	-3.4285857921	-0.9775119124	 0.07936
H	 0.3955128476	-2.1376886173	-0.6551086294	 0.10849
H	 0.3128884087	-1.8758734792	 2.1490094852	 0.129022
H	-1.2857999945	-1.9232801771	 2.9080830379	 0.109277
H	-0.5896908294	-3.4017888606	 2.2311042114	 0.110461
H	-2.9080958993	-3.5168214666	 0.5717991457	 0.094841
H	-3.4663708927	-1.9765535938	 1.2353868721	 0.092185
H	-3.7750642158	-1.1203555898	-0.9956555636	 0.09322
H	-3.2322279891	-2.6649190587	-1.6620944084	 0.097422
95.8543	162.9012	183.1116	208.2474	250.5259	257.5109	313.9201	349.9334	418.1089	481.6862	535.338	605.9918	670.595	816.1631	830.2442	853.7605	898.8445	915.1615	930.3868	942.6752	978.1515	1007.6268	1018.9797	1031.5918	1077.1751	1112.9372	1135.4313	1165.4304	1170.4515	1184.2491	1207.1099	1229.3019	1242.3047	1250.4295	1258.5065	1271.3316	1281.7555	1316.0065	1350.3692	1393.1217	1410.9716	1480.5266	1487.0373	1488.2905	1491.4612	1493.8169	1497.7525	1509.164	1518.7754	2957.8089	2978.2754	3024.7509	3026.9389	3041.6486	3051.3153	3055.4318	3078.2932	3083.9351	3098.5269	3107.3128	3110.0298	3112.905	3143.0099
COC1C2CC1(C)CC2	CO[C@H]1[C@H]2C[C@]1(C)CC2	
InChI=1S/C8H14O/c1-8-4-3-6(5-8)7(8)9-2/h6-7H,3-5H2,1-2H3	InChI=1S/C8H14O/c1-8-4-3-6(5-8)7(8)9-2/h6-7H,3-5H2,1-2H3/t6-,7+,8+/m1/s1
