18
gdb 73436	3.0259	1.92516	1.44251	1.2656	73.66	-0.2117	0.064	0.2757	919.3125	0.149179	-401.869053	-401.862045	-401.861101	-401.900256	29.011	
O	-0.0487151392	 1.3236668909	 0.0267323314	-0.478578
C	 0.02153137	-0.0773572082	-0.0210647278	 0.410993
C	 1.0642691933	-0.6167096583	-0.9671683253	-0.308055
C	 1.0485796804	-2.1664315471	-1.0029828034	-0.154167
N	 0.028255381	-2.7996203254	-0.1753207455	-0.091565
C	-0.3222259202	-2.324319294	 1.1453557657	-0.078211
C	-1.2978078165	-2.2495733654	 0.0095888808	-0.079051
C	-1.3360637297	-0.692395199	 0.1279221352	-0.125374
C	-0.3365198055	-0.7669107783	 1.2780026776	-0.170413
H	 0.7834430195	 1.6449746106	 0.392670255	 0.2793
H	 0.8773349473	-0.1963387648	-1.9610306612	 0.110686
H	 2.0512114272	-0.2520851875	-0.6531437236	 0.088225
H	 0.8925774896	-2.5221257525	-2.0262719484	 0.111514
H	 2.0123805405	-2.5682995561	-0.6748061251	 0.109123
H	-0.2622815115	-3.0072368572	 1.9857396749	 0.094598
H	-2.1610801826	-2.8613177253	-0.2274354889	 0.095612
H	-2.2350118785	-0.094969139	 0.062259422	 0.096994
H	-0.3664238253	-0.2315230031	 2.2176447767	 0.088368
83.9273	259.3183	295.3415	362.7534	406.704	477.1642	497.5828	513.0148	644.2743	698.6769	741.9866	790.3848	808.0006	842.7317	849.4547	880.7286	931.0055	935.1448	961.089	986.9803	1019.8704	1030.8848	1053.0289	1090.1485	1100.8136	1141.2507	1202.2474	1227.2833	1235.8524	1242.2396	1269.7778	1301.2594	1308.5988	1328.4652	1374.2036	1396.5388	1452.7629	1490.7701	1506.7898	3013.7881	3044.8122	3059.7408	3087.3691	3162.1595	3173.7186	3200.5428	3213.106	3787.6684
OC12CCN3C4C3C1C24	O[C@]12CCN3[C@@H]4[C@H]3[C@H]1[C@H]24	
InChI=1S/C7H9NO/c9-7-1-2-8-5-3(7)4(7)6(5)8/h3-6,9H,1-2H2	InChI=1S/C7H9NO/c9-7-1-2-8-5-3(7)4(7)6(5)8/h3-6,9H,1-2H2/t3-,4+,5-,6+,7-,8?
