20
gdb 95785	2.22745	1.63731	1.00887	3.4063	75.48	-0.2331	-0.0258	0.2073	1191.908	0.171707	-440.310966	-440.302171	-440.301227	-440.344192	33.861	
C	-0.0782374619	 1.5271711959	 0.0001648203	-0.403981
C	 0.0412213227	 0.0088444629	 0.0257994709	-0.054643
N	 0.7675463796	-0.4840756793	-1.1525098429	-0.301339
C	 0.8708152614	-1.9410346715	-1.2099693316	-0.176009
C	 1.7216565803	-2.4325571966	-0.0384996504	-0.200323
C	 1.0955900865	-1.9871774348	 1.2943733846	 0.05489
O	 1.902647541	-2.3082873006	 2.3912956265	-0.443779
C	 0.8006222316	-0.4917105375	 1.2544450358	 0.390319
O	 1.1583345565	 0.222680535	 2.1653815492	-0.336928
H	 0.9120047642	 1.9849731799	-0.057424015	 0.138414
H	-0.6647773624	 1.8485999657	-0.8666335658	 0.107777
H	-0.5715136781	 1.8888328886	 0.9046124265	 0.133922
H	-0.9747738582	-0.4357550384	 0.0953571837	 0.07416
H	 0.3221847858	-0.1249000429	-1.9900064747	 0.222341
H	-0.1176468261	-2.4400600331	-1.1829670655	 0.080764
H	 1.3440397526	-2.2149048809	-2.1577527771	 0.108029
H	 1.8129204669	-3.5228289539	-0.0475275522	 0.109082
H	 2.7283815957	-2.0083079553	-0.1096429108	 0.11868
H	 0.1096601946	-2.4830992871	 1.3847496213	 0.08675
H	 1.9866980274	-1.483513996	 2.8962235871	 0.291874
86.5078	132.6159	194.6319	239.972	290.4893	322.4121	348.0538	375.9977	414.6521	431.3501	462.1514	564.3076	612.6483	668.9971	781.9362	800.7462	881.2474	918.8949	941.8338	1011.6697	1030.4121	1056.1354	1105.218	1114.4534	1161.8511	1164.8182	1173.5127	1181.0364	1260.828	1289.8648	1309.6217	1335.6005	1361.0799	1378.7293	1406.1694	1410.575	1439.0108	1471.4382	1485.0191	1493.099	1498.494	1505.6016	1805.4451	2867.8042	2910.6805	2921.8824	3047.4276	3052.123	3077.3873	3102.5533	3119.8199	3141.2417	3525.1747	3685.606
CC1NCCC(O)C1=O	C[C@H]1NCC[C@@H](O)C1=O	
InChI=1S/C6H11NO2/c1-4-6(9)5(8)2-3-7-4/h4-5,7-8H,2-3H2,1H3	InChI=1S/C6H11NO2/c1-4-6(9)5(8)2-3-7-4/h4-5,7-8H,2-3H2,1H3/t4-,5-/m1/s1
