21
gdb 117372	4.96615	0.69327	0.65311	2.1203	81.6	-0.2467	0.0393	0.2859	1794.6059	0.18166	-420.385243	-420.375286	-420.374342	-420.421303	35.449	
C	-0.0375708137	 1.494576716	-0.2720989116	-0.389424
C	-0.1049678407	-0.0130591024	-0.1149093753	-0.029027
O	 0.7049043551	-0.592425216	-1.1497199472	-0.250113
C	 0.7838503547	-1.9370808172	-1.1689779995	 0.39695
N	 0.1622762237	-2.671995384	-0.346348359	-0.530221
C	 1.7163866535	-2.3772783051	-2.2841405008	-0.245458
N	 1.6158318086	-3.8087470371	-2.509695884	-0.069213
C	 0.691549191	-4.236388707	-3.5581682052	-0.218192
C	 2.1636628042	-4.3041083262	-3.7672993767	-0.218192
H	 0.9917187577	 1.8520456634	-0.1756128808	 0.125281
H	-0.4173024279	 1.8030060799	-1.250492844	 0.124686
H	-0.6438539415	 1.977004515	 0.5004091156	 0.119509
H	 0.2701553605	-0.3430439844	 0.859584581	 0.118617
H	-1.1284000105	-0.3911100021	-0.2089039062	 0.118516
H	 0.3883373599	-3.6465163334	-0.5456424463	 0.233561
H	 1.4975763898	-1.7753934473	-3.1824773201	 0.104505
H	 2.7458877688	-2.1378314036	-1.9897325766	 0.131108
H	 0.1217408808	-5.1360624144	-3.3471856788	 0.123511
H	 0.1450021904	-3.4648648051	-4.0977368986	 0.117398
H	 2.6027744581	-3.5804931221	-4.4519143207	 0.113852
H	 2.6875497474	-5.253766287	-3.7108783551	 0.122345
47.0414	73.8943	90.4203	119.9445	144.8628	234.1194	255.0146	330.4845	372.5418	392.6513	438.9251	571.6405	690.3322	777.0503	806.7937	841.6355	879.7241	906.2656	918.2744	939.675	1017.6494	1033.8039	1056.0418	1065.9564	1118.9795	1123.3885	1128.689	1138.4079	1173.2501	1184.1411	1186.3851	1267.2246	1288.4979	1323.4804	1330.6028	1383.7631	1411.1351	1447.3485	1474.2365	1485.4711	1493.5407	1496.8805	1521.2662	1522.8263	1735.9196	2963.9388	3044.1462	3046.6721	3048.9846	3082.1036	3098.3609	3103.368	3118.7312	3122.1108	3182.992	3197.7471	3490.3745
CCOC(=N)CN1CC1	CCO[C]([NH])CN1CC1	
InChI=1S/C6H12N2O/c1-2-9-6(7)5-8-3-4-8/h7H,2-5H2,1H3	InChI=1S/C6H12N2O/c1-2-9-6(7)5-8-3-4-8/h7H,2-5H2,1H3
