17
gdb 31845	4.91374	0.98937	0.82789	2.3138	80.45	-0.1963	0.0003	0.1966	1343.4961	0.136811	-421.885129	-421.877024	-421.876079	-421.917768	31.112	
C	 0.0720191187	 1.4039177963	 0.0281004088	-0.243749
O	 0.0047784951	-0.0059482416	 0.0390594065	-0.268279
C	-1.2309016891	-0.5870291653	 0.0138422301	 0.385614
C	-2.4390651191	 0.1068979438	-0.0215509223	-0.243663
C	-3.6468028031	-0.5959545721	-0.0450136346	-0.251486
C	-3.6595355434	-1.986018721	-0.033453244	 0.378296
O	-4.8107904196	-2.7243357427	-0.0552332105	-0.450287
C	-2.446483332	-2.6803164069	 0.0020691037	-0.172966
C	-1.2484191921	-1.9870894259	 0.0253701326	-0.185112
H	 1.1327728444	 1.6601392442	 0.051523928	 0.132912
H	-0.3791680248	 1.826928931	-0.8798069304	 0.120238
H	-0.4224159948	 1.842887261	 0.9053979134	 0.120234
H	-2.4630939524	 1.1887218186	-0.0313598752	 0.09618
H	-4.582966607	-0.0440912942	-0.0725604718	 0.081657
H	-5.564595027	-2.1264579349	-0.0787594793	 0.293709
H	-2.4628110113	-3.7641923746	 0.0109199141	 0.103848
H	-0.3013672523	-2.5139723357	 0.0529631309	 0.102854
75.7033	158.4176	231.9682	247.5242	335.0094	379.9501	381.5204	427.5992	435.0581	531.1851	534.5326	652.7064	725.1627	744.3772	806.2824	851.9673	855.6012	895.2469	951.9157	1017.5959	1078.5682	1120.5363	1177.7856	1187.7027	1195.1264	1210.0953	1272.6709	1304.7165	1330.152	1371.4898	1473.0974	1478.2363	1488.3932	1507.6015	1549.9877	1636.2398	1663.9263	2995.452	3051.0448	3129.0924	3154.5803	3190.6079	3205.8205	3214.2224	3826.7027
COC1=CC=C(O)C=C1	COc1ccc(O)cc1	
InChI=1S/C7H8O2/c1-9-7-4-2-6(8)3-5-7/h2-5,8H,1H3	InChI=1S/C7H8O2/c1-9-7-4-2-6(8)3-5-7/h2-5,8H,1H3
