15
gdb 21574	5.24679	1.30428	1.07902	2.0221	64.51	-0.2042	0.0361	0.2403	1053.7847	0.120439	-395.988293	-395.980264	-395.97932	-396.02103	28.893	
N	 0.1821219904	 1.3970003524	 0.1900736672	-0.607352
C	-0.0332698185	 0.02151551	 0.0625269477	 0.391621
C	-1.1590037598	-0.7640527632	 0.2140905726	-0.352274
C	-0.6964786456	-2.0891763571	 0.0260480352	 0.369261
C	-1.4945267344	-3.350881736	 0.1048841255	-0.187443
O	-2.7314841228	-3.1493663898	-0.5717573793	-0.419773
N	 0.6051400768	-2.1332759826	-0.2298476355	-0.305507
N	 0.9926586146	-0.8310456726	-0.1894851868	-0.243762
H	 0.6668465615	 1.8014160722	-0.6032263265	 0.249385
H	-0.6873818343	 1.8942316068	 0.3294180454	 0.256056
H	-2.1687628019	-0.4355742285	 0.3951661952	 0.098509
H	-0.9050673471	-4.1650083568	-0.3398892125	 0.105775
H	-1.6738452736	-3.6114300145	 1.1612350575	 0.093562
H	-3.2789538542	-3.9244397104	-0.4150433468	 0.286053
H	 1.9655550588	-0.6022619699	-0.2980896489	 0.265888
55.8649	145.7576	168.072	221.2865	265.6731	337.5792	391.6407	426.9232	485.0095	617.9941	668.9777	703.3623	760.1813	772.3044	799.966	999.9429	1020.8649	1045.4816	1066.8131	1110.1068	1159.0552	1179.8699	1241.7243	1242.6575	1341.4664	1436.4558	1443.7698	1510.985	1515.4267	1540.9339	1620.6806	1659.9601	2960.9502	3019.4642	3273.3551	3525.8386	3624.3148	3678.7176	3827.2234
NC1=CC(CO)=NN1	Nc1cc(CO)n[nH]1	
InChI=1S/C4H7N3O/c5-4-1-3(2-8)6-7-4/h1,8H,2H2,(H3,5,6,7)	InChI=1S/C4H7N3O/c5-4-1-3(2-8)6-7-4/h1,8H,2H2,(H3,5,6,7)
