21
gdb 97992	6.3202	0.40501	0.39764	2.8463	90.87	-0.2455	-0.0225	0.223	2729.3528	0.179312	-387.08413	-387.072883	-387.071939	-387.123827	37.657	
C	 0.0479627487	 1.3009982528	-0.6939759395	-0.363598
C	-0.0672903185	 0.2520657858	 0.4271564189	-0.313735
C	-1.39159768	-0.3561784833	 0.5099585814	 0.139361
C	-2.4957285463	-0.8352003499	 0.5647884047	-0.003386
C	-3.8155385476	-1.4530952667	 0.6262755244	-0.354093
C	-3.8144288882	-2.9188532751	 0.1468981136	-0.181327
C	-5.2109346097	-3.5578891865	 0.2218059818	-0.273621
C	-5.2206498541	-4.9536500427	-0.3582912295	 0.157036
O	-5.581713783	-5.9433995539	 0.2236538969	-0.23597
H	 1.0553637579	 1.7273098147	-0.7162276158	 0.114054
H	-0.1578411313	 0.851456817	-1.6692364121	 0.126381
H	-0.6671459921	 2.1137082077	-0.5402907724	 0.127484
H	 0.6844712268	-0.5326402632	 0.2719044253	 0.127789
H	 0.1807992172	 0.7172032241	 1.3899969488	 0.128174
H	-4.1986996732	-1.4097932568	 1.6545758235	 0.129887
H	-4.5248904671	-0.876006154	 0.0173422881	 0.12555
H	-3.4402900651	-2.9565205116	-0.8829084078	 0.114187
H	-3.1094068491	-3.4947672657	 0.7560055424	 0.124147
H	-5.5816409528	-3.6041213193	 1.250175309	 0.122957
H	-5.9153863919	-2.9519907013	-0.3678245355	 0.117995
H	-4.8484324607	-5.0118714219	-1.4090598361	 0.070726
13.477	43.6186	69.0108	77.4917	99.1615	145.0879	191.0197	237.1782	284.1775	335.373	351.7881	481.2548	510.3941	536.3119	734.5899	747.4951	785.6181	809.4745	904.1602	958.9837	985.0044	1033.8345	1078.9257	1091.4185	1102.9673	1115.7295	1166.817	1183.7532	1248.4983	1285.1007	1286.9076	1322.3446	1334.4252	1351.5863	1381.97	1408.1482	1428.4208	1463.8562	1474.3006	1476.0192	1494.6373	1500.8705	1505.7987	1837.2294	2367.4663	2848.0949	3005.8867	3008.9918	3018.6392	3035.5124	3041.2204	3043.8478	3045.1563	3079.4906	3099.9573	3117.1542	3123.023
CCC#CCCCC=O	CCC#CCCCC=O	
InChI=1S/C8H12O/c1-2-3-4-5-6-7-8-9/h8H,2,5-7H2,1H3	InChI=1S/C8H12O/c1-2-3-4-5-6-7-8-9/h8H,2,5-7H2,1H3
