16
gdb 14896	4.6814	1.49673	1.18613	4.4327	70.14	-0.2444	0.0051	0.2495	976.5657	0.13316	-342.798543	-342.791427	-342.790483	-342.829926	26.864	
N	-0.0011871104	-1.1619780787	-0.0186802345	-0.318931
C	 0.0032071149	-0.0068006497	-0.0170165907	 0.275923
C	-0.0081902243	 1.4610387993	 0.0297543198	-0.119111
C	-0.7332745903	 1.9697751748	 1.2986249839	-0.253575
C	-0.5165585039	 3.4535392694	 1.4530419398	-0.075152
C	 0.4185911436	 4.1188690483	 0.7776379633	-0.046446
C	 1.3738355516	 3.4396468959	-0.1728094693	-0.221367
N	 1.3581366428	 1.9743516903	-0.1098385724	-0.293349
H	-0.5688751926	 1.8116323213	-0.8471194955	 0.134718
H	-1.8038218596	 1.7417005208	 1.2310990106	 0.125159
H	-0.3649797877	 1.4260401193	 2.1793517396	 0.125227
H	-1.1732677702	 3.9761324599	 2.1431645943	 0.097616
H	 0.5165602694	 5.1961554555	 0.8869943666	 0.09507
H	 1.1547092834	 3.7518160262	-1.205633354	 0.123452
H	 2.4010637735	 3.7691262453	 0.0209069347	 0.121032
H	 1.9029554899	 1.6658092722	 0.6900555939	 0.229735
110.5594	159.48	179.2354	310.0963	398.4649	421.2628	505.2133	546.47	566.3005	668.8779	738.9683	822.0935	866.2385	911.4664	946.4154	978.6255	1004.9653	1046.7766	1049.7581	1098.5344	1119.0162	1197.3273	1212.422	1264.8867	1305.2295	1352.4172	1368.5865	1371.9597	1407.3329	1474.4722	1475.8368	1495.9181	1724.4716	2363.891	2991.7813	3014.9426	3028.048	3057.6248	3057.9246	3150.9574	3174.0392	3511.4308
N#CC1CC=CCN1	N#C[C@H]1CC=CCN1	
InChI=1S/C6H8N2/c7-5-6-3-1-2-4-8-6/h1-2,6,8H,3-4H2	InChI=1S/C6H8N2/c7-5-6-3-1-2-4-8-6/h1-2,6,8H,3-4H2/t6-/m1/s1
