18
gdb 117513	2.14651	1.1306	0.77938	5.2098	75.02	-0.2541	0.012	0.2661	1454.4402	0.145702	-439.077001	-439.067101	-439.066157	-439.112706	35.176	
C	 0.4262637828	 1.6889362526	 0.0756196318	-0.396487
C	 0.7437534029	 0.1988302263	 0.0227837678	-0.118135
N	 0.0259803975	-0.5239502572	 1.0832570452	-0.317206
H	 0.2770810023	-0.1185221638	 1.9822480054	 0.236844
H	-1.7379016657	-1.0975013953	 1.4127230592	 0.299925
C	 0.3013814368	-1.9709866392	 1.1386749315	-0.315844
C	 1.5745853835	-2.3162023706	 1.7625716434	 0.358552
C	 2.636274485	-2.5244281236	 2.2850411309	-0.449713
C	-0.9038876456	-2.7055841938	 1.8017735173	 0.432268
O	-0.8436197983	-3.8218638636	 2.2293499672	-0.325227
O	-2.0174104115	-1.9663297969	 1.7834519384	-0.368068
H	 0.7612131073	 2.1317532204	 1.0203904205	 0.122277
H	 0.9356154359	 2.216631647	-0.7353747945	 0.128826
H	-0.6495569489	 1.8629588175	-0.0184193278	 0.130067
H	 0.4200184188	-0.2210415224	-0.9368784976	 0.116475
H	 1.8303426195	 0.0390130012	 0.0947498685	 0.110507
H	 0.301357376	-2.3331564879	 0.1007294352	 0.147857
H	 3.5668274616	-2.7380420807	 2.7507430177	 0.207084
55.3735	74.0742	105.9702	142.1866	156.9854	239.697	271.1121	336.2802	356.0609	419.0444	487.4603	541.7381	627.5199	641.6907	668.5428	728.6446	784.7685	821.1691	895.1562	901.9446	961.0765	1020.9151	1053.3548	1120.4706	1143.5801	1181.5661	1203.9587	1270.5128	1286.1728	1330.3951	1392.1127	1417.5032	1434.8916	1480.4338	1496.6947	1501.7699	1520.679	1886.7171	2238.1384	2991.122	3018.3564	3037.3905	3054.901	3106.3458	3123.1316	3434.2623	3492.3269	3501.7456
CC[NH2+]C(C#C)C([O-])=O	CCN[C@@H](C#C)C(=O)O	
InChI=1S/C6H9NO2/c1-3-5(6(8)9)7-4-2/h1,5,7H,4H2,2H3,(H,8,9)	InChI=1S/C6H9NO2/c1-3-5(6(8)9)7-4-2/h1,5,7H,4H2,2H3,(H,8,9)/t5-/m0/s1
