19
gdb 41665	3.0061	1.94099	1.46872	0.6903	86.59	-0.1954	-0.0109	0.1845	934.6163	0.162856	-348.729913	-348.72341	-348.722466	-348.760279	28.177	
C	-0.0301373653	 1.4756267321	 0.0739642752	-0.239158
C	 1.4882366935	 1.9098539182	 0.0595773618	-0.233172
C	 2.0640640638	 1.5993646087	-1.3224617417	-0.012574
C	 2.8501567618	 0.3581204632	-1.8959271841	-0.100764
C	 3.0272412454	-0.9571826584	-1.2068756012	-0.09283
C	 1.8429332984	-1.5036934363	-0.8692756503	-0.14759
C	 0.8069868633	-0.4763372706	-1.0956162641	 0.171519
C	-0.0027560619	-0.0209784158	-0.1221922759	-0.135972
C	 1.3695888598	 0.5130821568	-2.0879493504	-0.153902
H	-0.5045453691	 1.742483577	 1.0226191407	 0.0954
H	-0.5560767659	 2.0201976412	-0.7180529199	 0.108826
H	 1.5892448008	 2.9809195294	 0.2693481559	 0.091785
H	 2.0056909332	 1.3787936111	 0.8641747918	 0.109937
H	 2.3059752853	 2.4871049691	-1.9026463287	 0.085004
H	 3.5499769309	 0.6272293439	-2.6804697708	 0.085324
H	 3.9983414277	-1.390970501	-1.0005094146	 0.096959
H	 1.6997234545	-2.4064322282	-0.2873147148	 0.099676
H	-0.2599963067	-0.6563873906	 0.7219238135	 0.084813
H	 0.8834892707	 0.6823436001	-3.0434516323	 0.08672
189.8666	243.2132	358.9206	405.8621	454.6707	509.6006	600.4237	647.6135	689.2163	742.2602	760.9349	786.4091	802.4858	841.5317	849.4444	869.2275	922.138	934.6849	967.5169	983.777	998.9139	1023.637	1032.8765	1071.5694	1105.3516	1118.1043	1132.9932	1181.2844	1210.1124	1215.7827	1286.0042	1296.682	1318.8428	1346.8122	1351.4611	1369.7212	1393.4185	1485.9129	1492.3757	1596.6378	1647.5403	3036.4162	3040.7388	3079.9996	3091.7959	3126.9184	3147.9408	3151.8489	3162.8359	3193.927	3217.1247
C1CC2C3C=CC(=C1)C23	C1C[C@H]2[C@H]3C=C[C]([CH]1)[C@@H]23	
InChI=1S/C9H10/c1-2-6-4-5-8-7(3-1)9(6)8/h2,4-5,7-9H,1,3H2	InChI=1S/C9H10/c1-2-6-4-5-8-7(3-1)9(6)8/h2,4-5,7-9H,1,3H2/t7-,8+,9-/m0/s1
