20
gdb 86355	2.54468	1.19337	0.9099	3.0808	79.15	-0.2556	0.0324	0.288	1314.1163	0.169784	-403.157218	-403.147591	-403.146646	-403.192203	34.907	
C	-0.8186934624	 1.0621947873	-1.1969713182	-0.418415
C	 0.0989176883	-0.0831537324	-0.8243099504	 0.161008
O	 1.4562244146	 0.1145551338	-1.2886232235	-0.307776
C	 2.0022475899	-0.367398717	-0.0415443132	 0.140512
C	 3.1670200618	 0.4681501032	 0.449485668	-0.411185
C	 0.6028325537	-0.2982695965	 0.6315196776	-0.087465
C	 0.3903401542	 0.8472131636	 1.6326572084	-0.368469
C	-0.9891654595	 0.9128635466	 2.1124264983	 0.267468
N	-2.0835224182	 0.9447917904	 2.4825452996	-0.308622
H	-0.4449552163	 2.0205421948	-0.8261752926	 0.118467
H	-0.8864969209	 1.1315270467	-2.2870441819	 0.132406
H	-1.824845307	 0.8989223823	-0.799380444	 0.142221
H	-0.305686085	-1.0218707546	-1.2309841132	 0.079241
H	 2.325755304	-1.4142157882	-0.1473966127	 0.077061
H	 2.8929773088	 1.5193701861	 0.5727407574	 0.120576
H	 3.5468001761	 0.0852134639	 1.4028762313	 0.119872
H	 3.9810585625	 0.4197065563	-0.2801827283	 0.135424
H	 0.2732774778	-1.2331681684	 1.0889033686	 0.094179
H	 1.0474338787	 0.7085860688	 2.4989389297	 0.154719
H	 0.6521532588	 1.8144991731	 1.193031769	 0.158778
53.8444	76.8938	128.7633	196.1259	214.336	231.9185	259.0107	353.2667	379.8585	403.3621	460.8871	488.3799	563.7565	725.9222	774.3852	843.7377	881.1793	927.9035	939.13	968.0422	1009.9058	1025.3072	1076.2619	1125.9125	1137.81	1154.6035	1187.8368	1214.6496	1248.1523	1284.0877	1317.2782	1338.3657	1371.6967	1390.2477	1402.2488	1406.1518	1427.5015	1463.8147	1478.6703	1483.9623	1499.5589	1501.8258	2360.8515	2980.1015	2990.2812	3037.9352	3043.4056	3049.1941	3083.3121	3097.6936	3108.9301	3114.9311	3119.138	3124.2066
CC1OC(C)C1CC#N	C[C@H]1O[C@@H](C)[C@H]1CC#N	
InChI=1S/C7H11NO/c1-5-7(3-4-8)6(2)9-5/h5-7H,3H2,1-2H3	InChI=1S/C7H11NO/c1-5-7(3-4-8)6(2)9-5/h5-7H,3H2,1-2H3/t5-,6+,7+
