22
gdb 110934	2.58692	1.07655	0.9112	0.3761	82.13	-0.2259	0.0684	0.2944	1396.5882	0.193974	-404.291193	-404.28161	-404.280666	-404.325888	35.805	
C	-1.3937072246	-2.6866515835	 0.3804134128	-0.381504
C	-0.3704492108	-1.5503274485	 0.2653162754	-0.204677
C	 0.9441736423	-1.8984320673	 0.9503233114	 0.09719
C	 1.956882935	-2.9220040455	 0.363736636	-0.294264
C	 3.0177062499	-1.8397741555	 0.5605924092	-0.033126
C	 2.7141374346	-0.6119196999	-0.1945754449	-0.005843
C	 2.1400398713	-0.532845814	-1.5980597697	-0.102681
O	 3.1803039608	-0.4091096138	-2.5584022079	-0.415947
N	 2.0007149167	-0.8224165826	 1.0864066738	-0.195099
H	-1.6092354465	-2.9215841343	 1.4284907744	 0.117438
H	-2.3378665515	-2.4185022123	-0.1026210018	 0.115974
H	-1.0265236982	-3.6026650407	-0.0955134261	 0.119147
H	-0.2189098181	-1.3070350934	-0.7903553097	 0.101668
H	-0.7653790964	-0.6421701277	 0.7383936677	 0.108157
H	 0.7114132221	-2.186023511	 1.9817331246	 0.084713
H	 2.0993302211	-3.8013047854	 0.9934983973	 0.109504
H	 1.8027458789	-3.2583195409	-0.6666793856	 0.106902
H	 3.9689659574	-1.9945453338	 1.0603467331	 0.093124
H	 3.4445653487	 0.1843768334	-0.037391152	 0.0833
H	 1.6008914227	-1.4405849153	-1.8740041568	 0.115808
H	 1.429658768	 0.3058281905	-1.6653957839	 0.0967
H	 3.6249616665	 0.4310647415	-2.4064702271	 0.283516
69.927	87.8731	138.2727	171.8211	220.028	246.7124	279.1201	296.4505	392.3824	402.8438	480.884	565.1582	722.1066	743.2333	780.6228	794.7872	840.8953	909.9826	948.7291	958.3005	984.3025	1004.0835	1023.3192	1061.0676	1075.4093	1087.2664	1091.8872	1135.033	1144.5226	1189.6674	1222.5569	1248.1041	1267.8486	1283.1505	1307.7324	1333.3441	1354.9362	1383.3311	1404.7953	1412.1777	1415.1622	1455.4158	1484.9054	1494.1264	1500.3763	1508.1869	1513.3894	2983.4608	3029.883	3033.9988	3034.64	3049.4303	3080.7511	3083.8311	3101.8423	3107.3863	3113.2596	3118.2164	3157.3804	3814.5963
CCC1CC2C(CO)N12	CC[C@H]1C[C@H]2[C@@H](CO)N12	
InChI=1S/C7H13NO/c1-2-5-3-6-7(4-9)8(5)6/h5-7,9H,2-4H2,1H3	InChI=1S/C7H13NO/c1-2-5-3-6-7(4-9)8(5)6/h5-7,9H,2-4H2,1H3/t5-,6-,7+,8?/m0/s1
