15
gdb 131736	2.31084	1.47679	0.90713	3.7911	76.13	-0.231	-0.0068	0.2243	1204.2414	0.112746	-416.793576	-416.784968	-416.784023	-416.827465	31.169	
O	 0.3097172168	 0.9452927695	 0.9884082215	-0.4227
C	-0.0369466376	 0.3044191107	-0.2175160804	-0.156498
C	-1.4242465672	-0.2693650483	-0.1897697188	 0.237869
N	-2.0891840451	-0.3287300652	 0.95401971	-0.304222
N	-3.2658021538	-0.9145318442	 0.6449441605	-0.190462
C	-3.3699984294	-1.2279826191	-0.6625374301	-0.135671
C	-2.1841144618	-0.8272906611	-1.260903702	 0.031199
C	-1.8083851098	-0.9384390802	-2.6172431457	 0.244874
C	-1.4616026031	-1.0198536353	-3.7678326618	-0.459021
H	-0.2907169173	 0.6119155767	 1.6663764193	 0.297786
H	 0.041667126	 1.0305766202	-1.0373759565	 0.121776
H	 0.6744715768	-0.5051630986	-0.4545705202	 0.109101
H	-3.9484852354	-1.0551558997	 1.3700323759	 0.282836
H	-4.248217436	-1.6964110813	-1.0766456016	 0.152929
H	-1.159785913	-1.0925309941	-4.7830848599	 0.190204
47.5743	113.0663	168.9669	193.1646	248.9731	259.2336	398.5753	467.546	506.7343	552.5369	561.0481	594.5015	660.5051	662.7316	700.9907	765.2336	805.4037	957.4555	1033.589	1082.8338	1086.9798	1138.3758	1224.2995	1240.646	1302.7427	1323.0457	1392.5942	1453.0563	1486.1337	1499.3998	1519.4395	1588.4016	2235.0788	2958.4635	3030.5007	3270.6276	3503.8073	3677.7648	3777.5541
OCC1=NNC=C1C#C	OCc1n[nH]cc1C#C	
InChI=1S/C6H6N2O/c1-2-5-3-7-8-6(5)4-9/h1,3,9H,4H2,(H,7,8)	InChI=1S/C6H6N2O/c1-2-5-3-7-8-6(5)4-9/h1,3,9H,4H2,(H,7,8)
