18
gdb 90528	4.6327	1.06084	0.97256	2.4752	78.88	-0.2296	0.0219	0.2515	1243.2749	0.146714	-401.863448	-401.855043	-401.854099	-401.896479	32.21	
C	 0.3997499726	 1.5945996152	-0.1095863162	-0.386719
C	 0.0840479434	 0.1136219031	-0.0331583096	 0.030781
N	 0.9900506725	-0.7776388593	-0.8326659894	-0.337786
C	 1.1918835005	-1.6790377283	 0.3216484198	-0.07408
C	 2.4734780245	-1.2940342269	 1.1117802505	-0.068965
O	 1.7256200026	-0.2698212384	 1.8397697537	-0.298233
C	 0.4758622106	-0.6727875048	 1.2457045875	 0.093718
C	 3.0255665407	-2.310359559	 1.9903584943	 0.332987
C	 3.4700635039	-3.17458849	 2.6982691004	-0.433786
H	 1.4247818317	 1.7773699298	 0.2206005015	 0.136422
H	 0.2932245256	 1.9584591869	-1.1364879762	 0.114321
H	-0.28080449	 2.1696678793	 0.5279225665	 0.112817
H	-0.9769213302	-0.0692942575	-0.2572789485	 0.068183
H	 0.5418446174	-1.2189493253	-1.6264230183	 0.22097
H	 0.9544337201	-2.7356225003	 0.2023407698	 0.088815
H	 3.2488080015	-0.845054966	 0.4820217319	 0.115609
H	-0.2910822363	-0.8853942627	 1.9927999381	 0.08495
H	 3.8716505389	-3.9292291559	 3.3286842443	 0.199994
73.9878	126.8652	167.1057	219.1845	257.4762	352.66	389.433	446.9609	504.8022	575.4388	625.2258	639.9676	669.6926	744.5061	802.545	867.979	872.9779	929.8847	943.2335	967.3309	985.392	1038.6251	1053.0458	1076.6472	1111.0806	1140.6513	1172.6222	1199.6781	1238.941	1249.6551	1312.6009	1326.0258	1351.4363	1379.7669	1382.4067	1410.3858	1486.4819	1493.5722	2232.5628	2993.7468	3037.6701	3055.1498	3090.4717	3102.613	3118.1606	3132.0324	3501.7768	3549.3592
CC1NC2C(OC12)C#C	C[C@H]1N[C@H]2[C@@H](O[C@@H]12)C#C	
InChI=1S/C7H9NO/c1-3-5-6-7(9-5)4(2)8-6/h1,4-8H,2H3	InChI=1S/C7H9NO/c1-3-5-6-7(9-5)4(2)8-6/h1,4-8H,2H3/t4-,5+,6+,7+/m1/s1
