21
gdb 59555	2.53959	1.33763	1.03789	1.1878	78.5	-0.2322	0.0649	0.2971	1240.2221	0.180186	-424.187284	-424.177636	-424.176692	-424.221533	36.388	
C	 0.1875813277	 1.3462019435	 0.4030876032	-0.411403
C	-0.0844299358	-0.128412777	 0.1207115374	 0.104019
O	-1.4670353252	-0.3979752464	-0.1073518507	-0.430707
C	 0.7175522575	-0.6405450331	-1.0706281612	 0.084746
O	 2.1604292579	-0.503093944	-0.9331077477	-0.314048
C	 2.3300675799	-1.8819010902	-1.2883086412	 0.063445
C	 1.7062787893	-2.7663325522	-0.2557091048	-0.349859
C	 0.8410058119	-2.143622663	-1.3396087925	 0.261241
C	-0.0360245327	-2.923170426	-2.2729314571	-0.500162
H	 1.2506093397	 1.5052111274	 0.6038857791	 0.141951
H	-0.0853426688	 1.9644610484	-0.4621930659	 0.1036
H	-0.3945231358	 1.6847366025	 1.2645402437	 0.121486
H	 0.1742747943	-0.7202176083	 1.0050286636	 0.090495
H	-1.7765399167	 0.2152723201	-0.7834950936	 0.278605
H	 0.3896060915	-0.1091090578	-1.9793323384	 0.061415
H	 3.1547497439	-2.1380195947	-1.9436812971	 0.101054
H	 1.8725174829	-3.8314089889	-0.3902812393	 0.111659
H	 1.6679703287	-2.4388160585	 0.7793848754	 0.114089
H	-1.0267494876	-3.0794372839	-1.8319935619	 0.136161
H	-0.1727095464	-2.3972255687	-3.2249873917	 0.114881
H	 0.3921485839	-3.9062555891	-2.4929509794	 0.117329
69.5539	118.6422	157.9645	190.4617	239.1061	258.9472	284.6829	302.1986	355.8068	419.2446	436.2021	482.3442	520.5029	654.6522	752.9427	818.081	878.1472	891.6596	922.5305	973.1552	977.3276	1004.0942	1027.6411	1036.1026	1061.8735	1073.48	1095.7942	1107.4232	1140.701	1180.1799	1233.2915	1251.5422	1268.298	1293.8834	1331.9979	1385.5481	1398.0691	1411.5811	1415.7793	1430.3978	1484.517	1488.9144	1493.3896	1495.4311	1501.1559	2965.9417	3022.8314	3024.5563	3060.5315	3085.9894	3099.1032	3099.5933	3114.3959	3127.8109	3176.8957	3202.5875	3796.9117
CC(O)C1OC2CC12C	C[C@@H](O)[C@H]1O[C@H]2C[C@@]12C	
InChI=1S/C7H12O2/c1-4(8)6-7(2)3-5(7)9-6/h4-6,8H,3H2,1-2H3	InChI=1S/C7H12O2/c1-4(8)6-7(2)3-5(7)9-6/h4-6,8H,3H2,1-2H3/t4-,5+,6-,7-/m1/s1
