19
gdb 70035	3.22203	1.47742	1.29625	2.1156	73.46	-0.2356	0.0724	0.308	1028.9385	0.160616	-422.990933	-422.983209	-422.982264	-423.023128	30.472	
O	-0.1839282791	 1.364463796	-0.1307196762	-0.462849
C	-0.0690321277	-0.0099399267	-0.0108110835	 0.385007
C	-0.3165479451	-0.9417945068	-1.15994376	-0.360082
C	-1.2119059419	-1.0194595439	 0.0580071854	-0.128891
C	-0.5025455325	-1.729332968	 1.2270126192	 0.112499
O	 0.0377400913	-3.0211726012	 1.0353649017	-0.268158
C	 1.4208945662	-2.9530817563	 0.6839142902	-0.075497
C	 1.9320882588	-1.5158874697	 0.9738858458	-0.267858
C	 0.6529260808	-0.6922156879	 1.1699683911	-0.115145
H	 0.5268654032	 1.6808804236	-0.6988802426	 0.285546
H	-0.789916253	-0.4566111174	-2.0082191235	 0.11485
H	 0.3558263149	-1.7495209047	-1.4287294197	 0.113609
H	-2.2794682123	-0.855294502	-0.0192873025	 0.091103
H	-1.1002016483	-1.7335822642	 2.1426631657	 0.081566
H	 1.9544390921	-3.7079427403	 1.2728559603	 0.100933
H	 1.5494971065	-3.2159928286	-0.3747542386	 0.099467
H	 2.5372518129	-1.5013371355	 1.8843761673	 0.108454
H	 2.5583948341	-1.1441498664	 0.1577368377	 0.101767
H	 0.6914098893	-0.0250399903	 2.0321005019	 0.083678
95.4774	130.0389	232.4456	249.6385	277.0146	386.1435	464.1125	532.2536	597.1742	671.4541	704.1972	761.2532	811.3944	840.9174	879.374	910.0411	920.7135	941.9234	971.7602	983.5298	1021.5492	1043.0003	1068.528	1080.0809	1094.7982	1131.6666	1173.8526	1205.7061	1218.8401	1236.051	1242.0309	1281.1163	1294.4391	1318.2576	1338.7515	1347.2128	1396.9767	1412.0195	1489.7101	1502.9925	1538.9163	3004.3344	3045.5064	3057.6725	3067.2343	3096.204	3108.2391	3128.7231	3190.7184	3211.2679	3794.9483
OC12CC1C1OCCC21	O[C@]12C[C@H]1[C@H]1OCC[C@@H]21	
InChI=1S/C7H10O2/c8-7-3-5(7)6-4(7)1-2-9-6/h4-6,8H,1-3H2	InChI=1S/C7H10O2/c8-7-3-5(7)6-4(7)1-2-9-6/h4-6,8H,1-3H2/t4-,5+,6+,7+/m1/s1
