18
gdb 41715	3.79336	1.63382	1.51682	2.0258	73.92	-0.2405	0.0171	0.2576	918.7182	0.152512	-401.952057	-401.945919	-401.944974	-401.982221	26.005	
C	-0.012099955	 1.520268566	-0.0246767384	-0.232462
C	 1.5339671438	 1.778296541	-0.0293005693	-0.232461
C	 2.0275359883	 0.3285335655	 0.0263667765	-0.062002
C	 1.0974060118	-0.3841896271	-0.9984445602	 0.134124
O	 1.332548849	-1.7946496995	-1.0827814595	-0.249537
C	 1.4329008455	-2.3742869628	 0.1358919987	 0.110488
N	 1.3348360144	-1.7667849894	 1.2421178068	-0.282486
C	 1.0956412777	-0.3361197061	 1.0976715559	 0.023995
C	-0.0077943843	-0.0111489865	 0.0324444405	-0.062002
H	-0.5095326104	 1.9614778037	 0.8433184431	 0.106824
H	-0.5059648061	 1.9034821781	-0.9227242499	 0.102049
H	 1.8713881471	 2.3002387033	-0.9298382078	 0.10205
H	 1.8662052016	 2.3579787669	 0.83620895	 0.106824
H	 3.1006879213	 0.1378402732	 0.0326167387	 0.074381
H	 1.0339234308	-0.0221947372	-2.0259598661	 0.084412
H	 1.6111676709	-3.4435500763	 0.0617055386	 0.129765
H	 1.019386427	 0.1383437346	 2.0780401445	 0.071657
H	-0.9608046835	-0.5399950374	 0.0447446179	 0.074381
258.1508	279.6382	302.8387	329.1062	514.3181	537.5166	591.709	657.65	816.1434	818.3318	822.1874	900.9166	905.8896	936.9465	951.719	958.3539	966.426	981.6186	1005.546	1035.8861	1037.7352	1098.3954	1101.5793	1140.8915	1163.1058	1203.9101	1228.2781	1235.1613	1251.3897	1261.4267	1275.0402	1317.4539	1317.9839	1332.1066	1373.8905	1406.0669	1493.629	1514.1861	1712.7048	3049.1805	3057.8266	3085.7921	3085.9089	3100.2763	3105.2291	3118.8116	3123.192	3182.8664
C1CC2C3OC=NC2C13	C1C[C@@H]2[C@H]3O[CH][N][C@@H]2[C@@H]13	
InChI=1S/C7H9NO/c1-2-5-6-4(1)7(5)9-3-8-6/h3-7H,1-2H2	InChI=1S/C7H9NO/c1-2-5-6-4(1)7(5)9-3-8-6/h3-7H,1-2H2/t4-,5+,6-,7+
