17
gdb 6391	3.64195	1.26595	1.07726	2.2677	61.14	-0.2693	0.052	0.3213	1116.101	0.140795	-438.182779	-438.173512	-438.172567	-438.217165	32.888	
C	 0.0272913388	 1.5417397032	 0.0690997307	-0.398277
C	-0.0327263706	 0.019662663	 0.0599802146	 0.119787
C	-1.4511245972	-0.5397979409	-0.0114257756	-0.073341
O	-2.1506585102	-0.1085910068	-1.1644095857	-0.418891
O	 0.6276648885	-0.4932677358	-1.1276981829	-0.292652
C	 1.9707417577	-0.6726802865	-1.040659978	 0.499095
N	 2.4483643915	-1.1820947945	-2.2153999317	-0.560231
O	 2.637872607	-0.4481827922	-0.0582260348	-0.397887
H	 1.0658300691	 1.8789986989	 0.0608639857	 0.136435
H	-0.5008095327	 1.948794386	-0.7964165507	 0.129128
H	-0.4508209351	 1.9269781212	 0.975324129	 0.119081
H	 0.484520938	-0.3867270336	 0.9334998293	 0.110995
H	-1.4050462423	-1.6381543715	 0.0420820988	 0.094574
H	-2.0217231163	-0.185347051	 0.8530555066	 0.112819
H	-1.620718389	-0.3822820967	-1.9211620808	 0.287396
H	 1.8761026362	-1.1269109775	-3.0403452051	 0.261679
H	 3.4468778267	-1.1652872553	-2.3314386596	 0.27029
49.8594	98.7625	103.2531	198.2323	232.0251	273.3345	313.0869	337.4001	399.379	422.3185	473.8364	519.2001	625.8001	670.507	782.2362	828.029	888.8461	926.2567	1007.51	1045.602	1075.7113	1113.5079	1142.7753	1156.94	1239.296	1323.258	1358.3909	1385.5585	1392.2897	1418.8248	1430.1505	1489.0911	1493.8069	1500.891	1611.8922	1831.5956	2992.203	3049.6886	3081.1709	3084.4716	3121.7247	3142.9048	3615.8714	3744.9858	3809.3427
CC(CO)OC(N)=O	C[C@@H](CO)OC(=O)N	
InChI=1S/C4H9NO3/c1-3(2-6)8-4(5)7/h3,6H,2H2,1H3,(H2,5,7)	InChI=1S/C4H9NO3/c1-3(2-6)8-4(5)7/h3,6H,2H2,1H3,(H2,5,7)/t3-/m0/s1
