17
gdb 34204	3.95609	1.41662	1.24815	4.9582	76.42	-0.2422	0.0126	0.2547	1009.1208	0.138661	-380.832697	-380.825852	-380.824908	-380.863792	27.697	
N	 0.0723191451	-1.1542500798	 0.1355468014	-0.344601
C	 0.0417727104	-0.0005213586	 0.0646955735	 0.21671
C	-0.0368531146	 1.4476669616	-0.020039988	 0.210077
C	-1.1329141999	 2.1618690826	 0.8314135662	-0.275399
C	-1.3279596118	 3.2012365502	-0.3009928856	-0.044224
C	-0.1791405388	 4.2404825534	-0.3790774238	-0.243288
C	 0.7401087952	 3.166769064	-1.0239435636	 0.009246
N	 1.2617646713	 2.1447034849	-0.0920070627	-0.346816
C	-0.5158164512	 2.2713994024	-1.274311614	-0.094331
H	-2.0129909842	 1.5211356519	 0.9367405045	 0.124493
H	-0.8277635165	 2.5159376156	 1.8209478294	 0.103693
H	-2.3432188242	 3.545291657	-0.4914808577	 0.081697
H	-0.4147497569	 5.0282469472	-1.1019168437	 0.109641
H	 0.160018817	 4.7069784552	 0.5517564791	 0.095073
H	 1.4554813802	 3.4856987122	-1.7838864264	 0.084714
H	 1.6338947667	 2.4771959212	 0.7945886038	 0.219103
H	-0.8442246176	 1.8466365189	-2.2172782824	 0.094213
143.1158	151.6752	313.9702	324.8614	433.8341	467.5669	558.0125	568.0246	638.4556	713.3224	793.7708	825.9816	849.1376	873.0007	886.677	933.9379	962.163	976.7981	984.2848	1031.1253	1041.8427	1089.5035	1115.8998	1131.338	1154.4684	1171.3484	1213.3002	1232.3619	1247.5929	1265.4393	1292.3648	1308.4239	1333.6622	1373.9988	1471.4357	1481.8027	2350.8418	3039.0781	3048.4617	3087.7101	3094.272	3105.8477	3120.9909	3175.5024	3487.7695
N#CC12CC3CC(N1)C23	N#C[C@@]12C[C@H]3C[C@@H](N1)[C@@H]23	
InChI=1S/C7H8N2/c8-3-7-2-4-1-5(9-7)6(4)7/h4-6,9H,1-2H2	InChI=1S/C7H8N2/c8-3-7-2-4-1-5(9-7)6(4)7/h4-6,9H,1-2H2/t4-,5-,6+,7-/m1/s1
