16
gdb 58079	1.818	1.68083	1.12334	4.4842	69.69	-0.2938	-0.0196	0.2742	1121.1523	0.122405	-434.071491	-434.06149	-434.060546	-434.106175	35.533	
C	 0.0632479774	 1.519000563	-0.0850215892	-0.454562
C	 0.0084148875	 0.0061392533	 0.0821229115	 0.146187
O	 0.5962076955	-0.4270753847	 1.2925298597	-0.432073
C	-1.4714896939	-0.5535776282	 0.0487787807	-0.07332
N	-2.1615825815	-0.1008250318	 1.2586475655	-0.524478
C	-2.1791413005	-0.0435720404	-1.1388698202	 0.316444
N	-2.7177155482	 0.3666543111	-2.0740811047	-0.322874
C	-1.4114546723	-2.0344679716	-0.051703667	 0.289795
N	-1.3766442205	-3.1889424018	-0.0773554954	-0.322691
H	 1.1001344933	 1.8500825021	 0.0179787044	 0.136409
H	-0.2991923947	 1.8264470393	-1.0682920484	 0.15925
H	-0.552201766	 2.0107147234	 0.6746766208	 0.144764
H	 0.5537948069	-0.4890614469	-0.7273637634	 0.12457
H	 0.5312079798	 0.2915820261	 1.930513665	 0.297385
H	-3.1335081668	-0.3943618022	 1.2433077221	 0.260932
H	-1.717047546	-0.5571368109	 2.0505649486	 0.25426
72.8459	130.6551	139.3169	166.6536	186.463	235.421	248.3734	290.5282	346.1885	380.2208	401.1155	498.8758	516.3601	531.3717	585.6134	599.3548	722.0958	873.0179	921.6027	951.0959	999.2571	1067.047	1085.8761	1155.7883	1176.912	1298.9825	1321.4034	1369.561	1404.8591	1419.2256	1489.7043	1500.2595	1642.6972	2353.1218	2367.9235	3049.0688	3067.9934	3126.0587	3137.1307	3501.1275	3584.3962	3813.9705
CC(O)C(N)(C#N)C#N	C[C@@H](O)C(N)(C#N)C#N	
InChI=1S/C5H7N3O/c1-4(9)5(8,2-6)3-7/h4,9H,8H2,1H3	InChI=1S/C5H7N3O/c1-4(9)5(8,2-6)3-7/h4,9H,8H2,1H3/t4-/m1/s1
