17
gdb 12487	3.40054	1.86751	1.3159	2.9551	64.95	-0.2386	0.0279	0.2665	918.8899	0.144681	-401.033528	-401.026261	-401.025317	-401.065188	27.543	
O	 0.0175288745	-0.058578387	-0.2857567253	-0.365498
C	-0.0392256134	 1.1415363986	-0.0888812424	 0.370677
C	-1.3641906946	 1.8691799846	 0.1190005454	-0.310609
C	-1.4800245768	 2.6841156979	 1.4167559826	-0.086042
O	-0.8413615063	 3.9467845311	 1.3705858289	-0.237844
C	 0.5687245329	 3.905953384	 1.3878320405	-0.060045
C	 1.1885744437	 3.3522285231	 0.1013156846	-0.177357
N	 1.0954936682	 1.9066789357	-0.0335512315	-0.294765
H	-1.5551257649	 2.542143352	-0.726654323	 0.124017
H	-2.1314668922	 1.0920053149	 0.1055432045	 0.130442
H	-2.5353210812	 2.9051096188	 1.6010146755	 0.115999
H	-1.1066924592	 2.0942355752	 2.2693071167	 0.100842
H	 0.8906665528	 4.9449308166	 1.5149609258	 0.110865
H	 0.9346921513	 3.3207173482	 2.2472926877	 0.094661
H	 0.7318974734	 3.8672463617	-0.7555937798	 0.120965
H	 2.2530930207	 3.6042565766	 0.0975665941	 0.116307
H	 1.940271911	 1.3858640478	-0.2143578243	 0.247385
77.753	164.8539	236.3203	325.2752	366.6004	389.826	477.9338	507.4566	532.1385	596.5971	707.518	752.0018	833.6003	887.5344	959.7362	983.8623	1021.1139	1076.0595	1098.5928	1135.6508	1152.9031	1204.7784	1270.3172	1306.1008	1327.3122	1338.9325	1368.3082	1397.2084	1410.0505	1422.3064	1456.6958	1462.9925	1482.1613	1492.4531	1499.4977	1787.6425	2976.4265	2982.5566	3010.3508	3038.7583	3075.5837	3085.058	3090.1146	3116.8612	3621.9963
O=C1CCOCCN1	O=C1CCOCCN1	
InChI=1S/C5H9NO2/c7-5-1-3-8-4-2-6-5/h1-4H2,(H,6,7)	InChI=1S/C5H9NO2/c7-5-1-3-8-4-2-6-5/h1-4H2,(H,6,7)
