16
gdb 51055	5.20705	1.09177	1.07249	3.2919	74.16	-0.2361	0.0169	0.253	1140.9275	0.123399	-400.621512	-400.614246	-400.613302	-400.653837	27.998	
N	-0.1068810019	 1.2670738168	 0.0478531202	-0.435115
C	-0.116848827	 0.0295345611	-0.184029219	 0.104816
O	-1.0856511276	-0.7467736732	 0.3716158184	-0.225404
C	-0.9630399072	-2.1052963824	 0.1913860147	 0.427684
C	-0.1350278229	-3.1922700774	 0.9586837084	-0.180413
C	-0.1298725633	-4.0463027192	-0.3030889147	-0.078499
C	-1.2584759104	-4.1888042645	 0.7075501958	-0.079632
C	-2.0749767239	-3.0958226005	-0.0448161023	-0.166509
C	-0.9395478108	-2.9599332145	-1.0711217222	-0.184446
H	 0.6626645101	 1.7074759742	-0.4525507246	 0.232603
H	 0.5747022037	-0.5393867463	-0.8167239103	 0.098476
H	 0.5815883607	-3.1445156195	 1.7670992278	 0.099864
H	 0.6060943142	-4.7672241121	-0.6334399545	 0.092592
H	-1.5621446842	-5.0412691083	 1.3002638533	 0.093747
H	-3.1330873864	-2.9177400668	-0.1754223671	 0.10298
H	-1.0001244832	-2.6821393573	-2.1144795339	 0.097257
68.5084	108.4799	145.2454	342.4409	388.8706	439.6171	656.7598	702.2935	730.0179	781.2842	785.1832	809.5577	827.6651	845.3522	853.2973	886.7902	937.176	945.7443	955.9717	974.5927	1010.283	1030.3878	1047.575	1051.8252	1071.4051	1106.0231	1167.0867	1200.9004	1253.6669	1258.4121	1275.7352	1320.6106	1403.5759	1425.4902	1747.7076	3052.878	3193.1534	3199.8714	3209.8966	3215.8268	3221.8544	3516.8069
N=COC12C3C4C3C1C24	[NH][CH]O[C@@]12[C@@H]3[C@H]4[C@@H]3[C@@H]1[C@@H]24	
InChI=1S/C7H7NO/c8-1-9-7-4-2-3(4)6(7)5(2)7/h1-6,8H	InChI=1S/C7H7NO/c8-1-9-7-4-2-3(4)6(7)5(2)7/h1-6,8H/t2-,3+,4-,5+,6-,7-
