18
gdb 31654	3.58849	1.1422	0.87804	2.7939	76.98	-0.1741	0.0466	0.2206	1315.0411	0.148111	-435.294805	-435.285284	-435.284339	-435.329427	33.835	
C	-0.0027772083	 1.4130432727	 0.066139698	-0.22927
O	 0.016897951	-0.0062765037	 0.005570636	-0.27817
C	 0.6296511241	-0.6320306908	 1.0325600151	 0.373311
C	 0.7785226583	-1.9866420312	 1.1612866397	-0.275792
N	 1.4510877253	-2.1515112482	 2.3756794811	-0.017759
C	 1.7984930561	-3.4066836424	 3.0033003615	-0.347084
C	 1.6774820019	-0.9078143242	 2.8681576218	 0.370227
N	 2.2815615083	-0.7021382785	 4.1131091341	-0.5999
N	 1.1932027894	 0.0398409311	 2.0853569438	-0.419057
H	 1.0111514762	 1.8275613949	 0.0777722989	 0.123442
H	-0.5288393585	 1.742309	-0.8320126701	 0.11906
H	-0.5292957346	 1.7686943702	 0.9582611792	 0.125333
H	 0.4965901494	-2.8183448013	 0.5411596684	 0.119112
H	 2.7249736651	-3.8287530295	 2.5952293491	 0.132258
H	 1.9246166612	-3.2404232078	 4.0753173401	 0.15402
H	 0.9929186393	-4.1303024088	 2.8531240706	 0.143351
H	 3.2444895093	-1.0201160233	 4.1482751193	 0.248348
H	 2.2578239164	 0.2878825106	 4.3260148332	 0.258569
54.8351	120.6691	145.0994	174.3134	202.2825	226.3223	248.2302	288.0558	348.6372	398.5187	548.6428	605.0391	637.5326	667.118	671.003	723.5493	825.7658	843.2088	1003.2006	1066.9004	1085.3001	1147.3565	1153.8623	1180.0261	1205.1318	1213.3778	1260.2862	1361.0366	1387.1004	1446.7481	1475.7616	1478.9912	1492.2369	1503.9953	1506.6602	1547.487	1573.0593	1633.4528	1649.7192	3024.9424	3026.5729	3089.2282	3093.8898	3132.3804	3134.9047	3291.1114	3510.3712	3609.5045
COC1=CN(C)C(N)=N1	COc1cn(C)c(N)n1	
InChI=1S/C5H9N3O/c1-8-3-4(9-2)7-5(8)6/h3H,1-2H3,(H2,6,7)	InChI=1S/C5H9N3O/c1-8-3-4(9-2)7-5(8)6/h3H,1-2H3,(H2,6,7)
