15
gdb 84491	3.08208	1.47546	1.10503	3.3069	68.37	-0.2455	-0.0459	0.1996	1056.3745	0.111367	-457.752346	-457.744356	-457.743412	-457.785305	29.565	
O	 0.212894529	 1.3662295734	-0.2843347783	-0.4135
C	 0.0552016676	-0.0080017567	-0.0112153403	-0.005376
C	 0.6748517944	-0.5036414144	 1.2758166157	-0.143225
C	-0.1468003967	-1.2886195318	 1.9816973517	-0.154925
C	-1.4642549242	-1.4256546133	 1.3209697958	 0.312207
C	-2.3382882929	-2.6163535263	 1.30862064	-0.232283
O	-2.6650484347	-1.4833145499	 2.098373214	-0.262589
C	-1.419176383	-0.4702746229	 0.1383256589	 0.269904
O	-2.3565749277	-0.0936780869	-0.5091437713	-0.291553
H	-0.3130428797	 1.8637199691	 0.3518785266	 0.289324
H	 0.4887709685	-0.5249703993	-0.8783765081	 0.127925
H	 1.6896425713	-0.2408163419	 1.550341607	 0.12075
H	 0.0790109967	-1.7701057106	 2.925664298	 0.1231
H	-2.9769477576	-2.7820663543	 0.442055034	 0.13703
H	-2.0272551112	-3.5054252142	 1.8561791364	 0.123211
48.077	166.8463	212.6849	251.88	270.9194	297.0105	362.1657	459.7701	536.7181	590.0981	665.3749	702.6491	759.6892	823.6143	861.8843	899.2619	967.6623	980.2459	988.1269	1035.0734	1092.085	1131.215	1148.8619	1169.5641	1238.0152	1245.1669	1277.2199	1333.8155	1413.8807	1424.8904	1512.0504	1656.5429	1864.0834	3022.0977	3080.0549	3175.96	3196.6974	3218.1677	3804.3161
OC1C=CC2(CO2)C1=O	O[C@H]1C=C[C@]2(CO2)C1=O	
InChI=1S/C6H6O3/c7-4-1-2-6(3-9-6)5(4)8/h1-2,4,7H,3H2	InChI=1S/C6H6O3/c7-4-1-2-6(3-9-6)5(4)8/h1-2,4,7H,3H2/t4-,6-/m0/s1
