21
gdb 102751	2.02486	1.12922	0.81416	2.0122	80.07	-0.2433	-0.0298	0.2135	1479.4816	0.179219	-424.212889	-424.202616	-424.201672	-424.249576	36.382	
C	 0.1914510977	 1.4928120053	 0.0813702852	-0.390436
C	 0.104426143	-0.0172280596	-0.1501440025	-0.196241
C	 0.9664196288	-0.4869355117	-1.3308656789	 0.044906
O	 2.3234478262	-0.1982894732	-1.0342756954	-0.26146
C	 3.1700206742	-0.2295363911	-2.1472364326	 0.134832
C	 3.2700138273	 0.9925104451	-3.0236299704	-0.285427
C	 4.3904542216	 0.6257268029	-2.0690677616	-0.287548
C	 0.7728404863	-1.9878527257	-1.5266914373	 0.134147
O	-0.1475067896	-2.4814216506	-2.1236195366	-0.247925
H	 1.223353467	 1.7950776435	 0.2749149889	 0.133586
H	-0.1673442915	 2.0466474606	-0.7931270778	 0.115612
H	-0.4197510039	 1.7886802325	 0.9390295123	 0.116993
H	 0.4265038309	-0.5544154376	 0.7504440335	 0.109515
H	-0.9279734831	-0.320348783	-0.3542480334	 0.12059
H	 0.6478089738	 0.0270140262	-2.2494527536	 0.093912
H	 3.2547256948	-1.2055569392	-2.625700846	 0.091893
H	 3.4229243959	 0.8594871865	-4.0887999743	 0.118132
H	 2.6532935653	 1.8420404453	-2.7525948917	 0.12278
H	 4.4954820521	 1.2311737585	-1.176199601	 0.12799
H	 5.319995813	 0.2401042702	-2.4716368084	 0.118332
H	 1.5563172903	-2.6037556648	-1.0255006885	 0.085816
37.7185	68.3725	81.2758	108.9637	163.2116	220.8575	238.9973	281.5164	355.1422	380.8769	457.4978	487.4749	583.66	750.3202	777.3667	820.3435	838.6077	867.7639	950.1268	977.437	984.6679	1016.481	1042.8398	1056.452	1074.2159	1090.7264	1124.9974	1146.9706	1162.7156	1193.0769	1201.0771	1241.8081	1279.0543	1303.3249	1337.0603	1375.3003	1395.5477	1405.8432	1414.041	1454.9847	1479.925	1494.9863	1498.9114	1509.4836	1836.1078	2862.3511	3007.6549	3035.6499	3040.0304	3082.3265	3096.0023	3106.1433	3128.8907	3137.6698	3144.1308	3222.38	3236.8179
CCC(OC1CC1)C=O	CC[C@@H](OC1CC1)C=O	
InChI=1S/C7H12O2/c1-2-6(5-8)9-7-3-4-7/h5-7H,2-4H2,1H3	InChI=1S/C7H12O2/c1-2-6(5-8)9-7-3-4-7/h5-7H,2-4H2,1H3/t6-/m1/s1
