20
gdb 113461	4.37941	0.93995	0.93124	1.2359	79.98	-0.2329	0.072	0.3048	1370.4117	0.170292	-403.083213	-403.074592	-403.073647	-403.116752	32.929	
C	-0.0141624951	 1.4526403846	-0.4192843576	-0.374687
C	-0.0246161215	 0.1511328784	 0.3916152981	-0.20902
C	-1.387464891	-0.4949269704	 0.4196501873	-0.031934
O	-1.815768096	-1.1475244186	-0.8014852065	-0.308062
C	-1.5914667004	-1.9390600144	 0.3506947081	 0.481887
C	-0.6096995926	-3.1377221321	 0.3341731812	-0.31871
C	-1.7385048572	-3.980186665	 0.9523061445	-0.043347
N	-2.0947919226	-3.3188377386	 2.2294294428	-0.336181
C	-2.6737932805	-2.8196897204	 0.9492342198	-0.174191
H	 0.9834414658	 1.901347079	-0.4333514868	 0.112608
H	-0.3183888721	 1.2625117182	-1.4528225605	 0.132986
H	-0.7063113959	 2.1886692676	 0.0042327741	 0.114607
H	 0.697259724	-0.5577971089	-0.0280551999	 0.103641
H	 0.2852285139	 0.3476953612	 1.4261728378	 0.105222
H	-2.1754009021	 0.1022172683	 0.8847206818	 0.085283
H	-0.3758369698	-3.4219514602	-0.6946445769	 0.119148
H	 0.3053922041	-3.0574488711	 0.9255930837	 0.11064
H	-1.9405764957	-5.0309961503	 0.7898631431	 0.098288
H	-2.8170936334	-3.8880314887	 2.6717832231	 0.230325
H	-3.7429415916	-2.7650762086	 0.7874276028	 0.101497
69.8917	111.0287	145.4351	189.1532	250.1128	322.1091	383.5476	442.1963	461.5405	505.4531	620.3244	754.1895	772.5151	820.1726	834.7019	849.554	895.5366	917.2998	934.231	969.7042	978.218	1015.2697	1057.1515	1058.6803	1090.0753	1107.1146	1126.1618	1154.0596	1169.0157	1179.5613	1216.6649	1287.9855	1294.4779	1316.1143	1332.967	1354.9757	1385.726	1408.3603	1463.1783	1473.5995	1498.2175	1506.6465	1529.8743	3028.8101	3036.2347	3065.3147	3068.9043	3086.4353	3105.7126	3116.0414	3127.1796	3192.5926	3205.5054	3463.9959
CCC1OC11CC2NC12	CC[C@H]1O[C@]21C[C@H]1N[C@@H]21	
InChI=1S/C7H11NO/c1-2-5-7(9-5)3-4-6(7)8-4/h4-6,8H,2-3H2,1H3	InChI=1S/C7H11NO/c1-2-5-7(9-5)3-4-6(7)8-4/h4-6,8H,2-3H2,1H3/t4-,5-,6-,7+/m1/s1
