20
gdb 94298	3.1273	1.17333	1.01105	3.9208	80.04	-0.2457	0.0383	0.2841	1241.4364	0.170864	-403.170812	-403.162107	-403.161163	-403.204268	33.544	
C	-0.6304849698	 1.259503452	 0.004181516	-0.42486
C	 0.145980703	-0.0412815908	-0.1188331127	-0.007029
C	 1.5598602796	-0.0503079372	-0.7670621675	-0.233135
C	 1.9849416589	-1.1378560079	 0.2556150172	-0.29047
C	 0.7816039122	-0.7136995365	 1.1327511111	 0.396658
C	 1.0378064305	 0.0959788441	 2.4414565779	-0.473687
C	 0.2493599724	-1.0281996494	 3.1571416378	 0.437562
O	-0.071661893	-1.2827685317	 4.2861260753	-0.362423
N	 0.0411857034	-1.6663298508	 1.957105801	-0.3909
H	-0.0139761402	 2.0540541431	 0.4379013106	 0.11723
H	-0.9697956068	 1.6057104191	-0.9779816204	 0.118898
H	-1.5172892615	 1.1366590671	 0.6360390066	 0.123429
H	-0.4770062603	-0.7956591076	-0.6168007523	 0.072935
H	 1.6277535738	-0.2983333595	-1.8279013951	 0.101347
H	 2.0830887151	 0.8952364814	-0.5944391764	 0.105252
H	 1.8455088027	-2.1465046601	-0.1459644756	 0.102866
H	 2.9808868456	-1.0743305674	 0.7008240647	 0.103782
H	 2.0829175332	 0.1743996561	 2.7468837485	 0.128363
H	 0.5618395146	 1.0757644753	 2.5010534499	 0.131495
H	-0.4044156833	-2.5455469991	 1.7363294034	 0.242685
63.5387	108.2116	210.4021	215.4756	260.0325	318.8999	381.7127	421.2644	447.8941	486.7775	531.2996	567.5244	665.4914	777.4128	784.9981	870.575	876.3815	898.8304	943.6868	948.5062	979.8944	1042.3275	1055.4517	1076.7828	1140.3636	1161.8992	1166.4585	1176.6249	1196.8051	1234.583	1248.7954	1257.223	1268.1534	1308.5623	1375.7754	1387.9409	1410.5453	1458.3156	1479.9862	1495.9131	1497.3568	1500.217	1896.7303	3020.7831	3027.3761	3052.6576	3058.0492	3086.3538	3094.8239	3097.0548	3103.9694	3119.5877	3145.1605	3599.1511
CC1CCC11CC(=O)N1	C[C@H]1CC[C@]21CC(=O)N2	
InChI=1S/C7H11NO/c1-5-2-3-7(5)4-6(9)8-7/h5H,2-4H2,1H3,(H,8,9)	InChI=1S/C7H11NO/c1-5-2-3-7(5)4-6(9)8-7/h5H,2-4H2,1H3,(H,8,9)/t5-,7+/m0/s1
