20
gdb 31956	3.22442	1.00279	0.8429	1.8149	83.07	-0.2235	0.0123	0.2358	1461.9965	0.171043	-403.205148	-403.195733	-403.194789	-403.240705	33.672	
C	-0.4447749048	 1.3161515122	-0.2727596055	-0.372912
C	 0.1777849033	-0.0653922285	-0.0061397769	-0.299946
C	 1.0327280995	-0.5568655899	-1.1192906418	 0.334324
C	 2.345048944	-0.8587685777	-1.265639417	-0.210993
N	 2.5910895092	-1.2753916641	-2.5698847418	-0.304544
C	 1.4376161281	-1.2088531361	-3.1551857124	 0.380114
C	 1.0842396121	-1.5474729956	-4.5622288787	-0.287603
C	 0.1218936551	-2.7423998123	-4.674537383	-0.378417
O	 0.4350739872	-0.7797844737	-2.3377975627	-0.216288
H	 0.3319685934	 2.0730391059	-0.416913488	 0.12429
H	-1.0652274091	 1.2945545203	-1.1728977452	 0.131295
H	-1.0733295823	 1.6246307437	 0.5677598499	 0.115514
H	 0.7961768052	-0.0326075928	 0.8968215693	 0.118626
H	-0.6221405297	-0.7914715276	 0.1898752136	 0.118405
H	 3.1306871804	-0.8074780617	-0.5281282476	 0.115976
H	 0.6329655881	-0.6698376258	-5.0414555669	 0.119809
H	 2.0220826742	-1.756790245	-5.082178554	 0.134619
H	 0.5678845237	-3.6439429663	-4.2443745119	 0.129566
H	-0.8138260796	-2.5412139342	-4.1456309	 0.13025
H	-0.1152870882	-2.9450803706	-5.7228250197	 0.117913
31.191	68.5196	118.6231	149.047	204.9559	227.7107	305.9676	327.8463	425.7162	430.3957	606.1261	673.4737	704.5414	752.1643	783.4155	798.2408	850.9941	958.7486	961.9412	986.3351	1000.738	1071.4145	1078.3915	1090.5519	1093.2031	1157.2933	1222.3321	1244.8153	1270.8708	1297.584	1346.0275	1358.1779	1381.8381	1405.9548	1410.5368	1473.2661	1474.1898	1497.1669	1498.3311	1507.1025	1507.5826	1612.4675	1647.0374	3022.732	3035.2656	3042.6736	3044.0646	3077.2809	3103.5382	3115.184	3117.2498	3122.2942	3126.6745	3259.6055
CCC1=CN=C(CC)O1	CCc1cnc(CC)o1	
InChI=1S/C7H11NO/c1-3-6-5-8-7(4-2)9-6/h5H,3-4H2,1-2H3	InChI=1S/C7H11NO/c1-3-6-5-8-7(4-2)9-6/h5H,3-4H2,1-2H3
