19
gdb 31031	2.36212	1.32896	0.89815	2.1672	80.88	-0.1904	0.0267	0.2171	1336.8434	0.158815	-419.258251	-419.248504	-419.247559	-419.293315	34.826	
C	 0.3044661528	 1.5000299533	 0.2758693178	-0.362654
C	-0.1589944653	 0.0846843566	-0.1036076713	-0.303354
C	 0.5374965001	-0.4550312113	-1.3116255354	 0.201722
C	 0.030668276	-0.8952747951	-2.4939327345	 0.237023
N	-1.2427772603	-1.1144747804	-3.0058112205	-0.6009
O	 1.0661689715	-1.2870835843	-3.2933486714	-0.199135
C	 2.1889853757	-1.057223111	-2.5402238955	 0.367892
C	 3.501978609	-1.3692769865	-3.1595034983	-0.489153
N	 1.9312887564	-0.5801686748	-1.3703573428	-0.344078
H	 1.3853876786	 1.5115227589	 0.4379637094	 0.140253
H	 0.0785775413	 2.2145558668	-0.5223048566	 0.109097
H	-0.1871898021	 1.8424135805	 1.1919087302	 0.104989
H	 0.0103060591	-0.5869034544	 0.7485279611	 0.114874
H	-1.2429998802	 0.0825049152	-0.2764170462	 0.082394
H	-1.9577183925	-0.7054966636	-2.4189175288	 0.254364
H	-1.3460012942	-0.7806867747	-3.9577291569	 0.254402
H	 3.5683431766	-2.4245001532	-3.4458735054	 0.14076
H	 3.6695157085	-0.7730838065	-4.0634443334	 0.138068
H	 4.289855949	-1.1469678953	-2.4392054915	 0.153436
50.2253	115.1756	133.2438	156.5838	187.168	214.3164	274.0889	280.5113	303.9986	405.0337	519.8086	603.5552	646.2563	671.3989	709.1184	749.6936	786.0498	819.6024	960.5661	977.348	1015.8706	1062.4231	1063.8587	1080.4363	1090.826	1207.5555	1242.0063	1304.7018	1308.0544	1365.8351	1403.2119	1411.5888	1424.2663	1474.7256	1477.3762	1485.1066	1494.5871	1509.1964	1627.3914	1645.5729	1702.1691	3013.1602	3036.4059	3037.1499	3044.4203	3087.3087	3104.7714	3123.8183	3153.3958	3522.8604	3628.0944
CCC1=C(N)OC(C)=N1	CCc1c(N)oc(C)n1	
InChI=1S/C6H10N2O/c1-3-5-6(7)9-4(2)8-5/h3,7H2,1-2H3	InChI=1S/C6H10N2O/c1-3-5-6(7)9-4(2)8-5/h3,7H2,1-2H3
