23
gdb 116451	2.52036	1.23929	0.96488	1.9615	81.57	-0.2372	0.065	0.3022	1328.488	0.206647	-425.438309	-425.428824	-425.42788	-425.472437	36.276	
C	 0.066000301	 1.5591017644	 0.0497324126	-0.395176
C	 0.0042473093	 0.0297281531	-0.0331603543	-0.182596
C	-1.4201378866	-0.5468125698	-0.0492275237	 0.02021
C	-2.208844501	-0.1702430084	-1.3142965552	-0.082165
O	-3.5301075823	-0.6907171135	-1.2938216211	-0.25432
C	-3.5461925767	-2.1057010218	-1.2384504085	-0.059306
C	-2.8576539601	-2.6174077189	 0.0285270064	-0.243428
C	-1.4223164661	-2.076888752	 0.1133991632	 0.09741
O	-0.6044126166	-2.6146419555	-0.9272553947	-0.437839
H	 1.1023114846	 1.9024312647	 0.1280137538	 0.112149
H	-0.3683024787	 2.0375923895	-0.8335658717	 0.119735
H	-0.474187733	 1.9325306707	 0.9273233943	 0.112329
H	 0.5436299888	-0.3220971118	-0.918920308	 0.114393
H	 0.5356326409	-0.3959910283	 0.8281245952	 0.089486
H	-1.9731898006	-0.1423023411	 0.8101546731	 0.071945
H	-2.3197096498	 0.9135530142	-1.399678866	 0.102196
H	-1.6693570996	-0.5322807601	-2.2038891484	 0.10006
H	-4.5984518232	-2.4036105339	-1.263394648	 0.100938
H	-3.0485561436	-2.527625598	-2.1261041954	 0.091568
H	-3.4208786757	-2.2873890993	 0.9094927063	 0.103837
H	-2.8513767323	-3.7157609858	 0.0410129809	 0.079969
H	-0.9881068051	-2.3296120186	 1.09423322	 0.056394
H	-0.6126640237	-3.5734153199	-0.847381721	 0.282213
70.6244	123.5069	171.4516	199.4666	228.7211	280.7925	301.9166	323.463	350.7016	412.8246	436.9392	525.5458	567.7892	682.9593	768.2422	807.3637	868.586	883.1332	933.5589	946.1446	989.664	1022.9756	1027.3744	1042.0926	1067.6657	1117.667	1132.8524	1156.6686	1164.6844	1210.1104	1240.6948	1260.2768	1286.0498	1305.3097	1336.5804	1351.983	1357.6595	1374.1287	1391.869	1398.1228	1413.5584	1417.9127	1438.9289	1472.7539	1487.5516	1489.5889	1501.6323	1505.0522	1507.9727	2960.0384	2982.1947	2985.7164	3012.0633	3018.7755	3022.6567	3031.3201	3065.7598	3071.4279	3084.1842	3093.397	3099.5885	3106.0951	3821.3753
CCC1COCCC1O	CC[C@H]1COCC[C@H]1O	
InChI=1S/C7H14O2/c1-2-6-5-9-4-3-7(6)8/h6-8H,2-5H2,1H3	InChI=1S/C7H14O2/c1-2-6-5-9-4-3-7(6)8/h6-8H,2-5H2,1H3/t6-,7+/m0/s1
