16
gdb 64691	4.77493	0.87012	0.83095	2.955	74.8	-0.2733	-0.0015	0.2718	1347.9394	0.124233	-396.939799	-396.9308	-396.929856	-396.973848	32.627	
N	-0.1786213167	 1.5618951666	-0.0643763828	-0.548007
C	-0.0182042407	 0.1404976537	-0.0679397319	 0.306325
C	 1.0622187186	-0.4665280069	-0.9748587416	-0.40891
C	 2.3883984755	 0.0460837557	-0.6302152233	 0.263691
N	 3.4168583545	 0.4814357206	-0.3338378492	-0.298866
C	-0.3279894503	-0.5444550134	 1.2300589258	-0.28968
C	-1.3002490426	-0.6771123918	 0.0644383371	-0.233805
C	-2.5756358155	-0.0188791198	 0.0908389352	 0.307306
N	-3.6183756051	 0.4811069287	 0.0847800816	-0.333441
H	 0.6638450209	 2.02377773	 0.263982472	 0.254621
H	-0.4012203788	 1.9228809548	-0.9866588267	 0.243394
H	 1.0748387072	-1.5595068077	-0.9010763413	 0.153488
H	 0.8521477259	-0.2187625962	-2.0225074636	 0.157897
H	 0.2247399042	-1.434621956	 1.5070923426	 0.134968
H	-0.6332355452	 0.0940731789	 2.0488206416	 0.15608
H	-1.3176898519	-1.6367682873	-0.4424119654	 0.134939
59.8962	96.359	146.0081	175.4891	270.2608	306.1503	353.4395	382.317	395.5931	420.7904	480.1266	551.4293	661.8088	738.4077	803.2171	822.0932	875.0628	903.6755	947.1895	979.4268	999.4455	1062.721	1090.8993	1132.9935	1200.4661	1212.6231	1275.9324	1327.4413	1360.7335	1405.304	1459.6318	1480.6897	1662.361	2360.3967	2362.4286	3037.7675	3080.7623	3152.4182	3163.6281	3252.6374	3500.0124	3582.0489
NC1(CC#N)CC1C#N	N[C@@]1(CC#N)C[C@H]1C#N	
InChI=1S/C6H7N3/c7-2-1-6(9)3-5(6)4-8/h5H,1,3,9H2	InChI=1S/C6H7N3/c7-2-1-6(9)3-5(6)4-8/h5H,1,3,9H2/t5-,6-/m0/s1
