19
gdb 124773	2.51077	1.39318	0.95233	1.5585	77.41	-0.2324	0.0283	0.2607	1239.0719	0.159602	-419.23476	-419.225487	-419.224543	-419.269097	34.411	
C	 0.1938581955	 1.4063149492	-0.3148347096	-0.403609
C	 0.0433839688	-0.0388007129	 0.1725170118	-0.003167
O	 0.536944717	-0.1711053861	 1.5053319746	-0.421735
C	-1.3664075247	-0.5664300414	 0.0674373363	 0.131835
C	-2.0811760119	-1.1450037349	 1.0962262903	-0.122946
N	-3.2824519817	-1.4995512258	 0.5831968288	-0.1951
N	-3.4032607099	-1.2040547716	-0.724499366	-0.284419
C	-2.2442112655	-0.6340836563	-1.0531972524	 0.263731
C	-2.0185329614	-0.185756337	-2.4645601796	-0.497898
H	 1.2265677005	 1.7369146796	-0.1726365972	 0.122204
H	-0.0591544238	 1.5038731369	-1.3736150232	 0.124554
H	-0.4704879333	 2.0720751376	 0.2489965044	 0.109192
H	 0.7127814799	-0.6743620281	-0.4227082941	 0.100464
H	 0.0716307109	 0.4783381399	 2.0449872842	 0.275821
H	-1.8097068147	-1.3427102905	 2.1201476892	 0.13695
H	-4.0458043305	-1.9544829267	 1.053053494	 0.271452
H	-2.0119044299	 0.9064333531	-2.5538668964	 0.129647
H	-1.0625285009	-0.5503712271	-2.8562188011	 0.123744
H	-2.8197460342	-0.5691160081	-3.0999430842	 0.139281
37.8376	144.8998	167.9583	194.5635	257.5576	269.3097	306.3827	325.063	356.0909	470.263	492.2245	507.401	624.7594	675.1001	710.1026	739.5581	809.1826	905.0102	949.4558	1008.8792	1027.2109	1058.6886	1065.7356	1084.4015	1099.0427	1164.0734	1221.069	1293.402	1308.1999	1349.1821	1387.3161	1399.7041	1411.7647	1414.5589	1473.4687	1484.0022	1487.3009	1493.8598	1499.2539	1508.3167	1602.48	3015.6476	3031.4354	3033.3291	3082.2956	3106.1094	3127.0162	3130.1271	3272.6971	3681.6025	3792.4768
CC(O)C1=CNN=C1C	C[C@@H](O)c1c[nH]nc1C	
InChI=1S/C6H10N2O/c1-4-6(5(2)9)3-7-8-4/h3,5,9H,1-2H3,(H,7,8)	InChI=1S/C6H10N2O/c1-4-6(5(2)9)3-7-8-4/h3,5,9H,1-2H3,(H,7,8)/t5-/m1/s1
