15
gdb 27478	2.09276	1.82551	0.98097	4.8077	73.72	-0.2364	-0.0368	0.1997	1139.5176	0.113533	-454.025939	-454.017998	-454.017054	-454.058623	29.531	
C	 0.0088108738	 1.4980683999	 0.022652835	-0.494005
C	-0.0530840974	 0.0032683507	-0.0034124754	 0.375311
C	-1.1685134152	-0.7296087822	 0.153745951	-0.250699
C	-1.112839357	-2.1737438574	 0.1104020172	 0.399175
N	-2.1144578131	-2.9339897811	 0.2491402612	-0.521053
O	 0.1604974471	-2.7340584108	-0.1024786899	-0.265369
C	 1.3065215904	-2.0184789684	-0.2649043971	 0.481628
O	 2.3604678099	-2.5621037359	-0.4429105306	-0.366853
N	 1.1541558506	-0.6470304951	-0.2080933245	-0.442493
H	 0.6743047804	 1.8466365361	 0.8212501491	 0.148731
H	 0.3998807894	 1.8884169049	-0.9243629526	 0.14876
H	-0.9820988187	 1.9216002234	 0.1885602922	 0.154159
H	-2.1337852152	-0.2740635045	 0.3158940388	 0.127398
H	-1.8369592373	-3.9136959375	 0.1821991826	 0.232403
H	 2.0080084322	-0.1255704321	-0.3293282671	 0.272908
119.7911	131.7741	153.375	198.8551	294.3275	373.1535	479.5971	507.118	539.9735	565.8241	576.5461	630.9368	705.772	765.1693	836.1132	880.6998	882.2461	972.4899	1033.1127	1048.1638	1066.7535	1103.1772	1187.8486	1207.6262	1334.7047	1379.2229	1416.6499	1473.4341	1477.2753	1507.4964	1710.6426	1748.762	1871.7911	3031.6007	3084.1747	3148.7808	3250.5524	3492.6709	3647.0639
CC1=CC(=N)OC(=O)N1	C[C]1C=C([NH])OC(=O)N1	
InChI=1S/C5H6N2O2/c1-3-2-4(6)9-5(8)7-3/h2,6H,1H3,(H,7,8)	InChI=1S/C5H6N2O2/c1-3-2-4(6)9-5(8)7-3/h2,6H,1H3,(H,7,8)
