18
gdb 28584	4.6412	0.97711	0.84891	2.8536	80.91	-0.1829	0.0434	0.2263	1352.5206	0.150209	-398.12963	-398.121073	-398.120129	-398.163817	31.923	
N	 0.2037423007	 1.3758697046	 0.2375002473	-0.610487
C	-0.0109915087	-0.0041823194	 0.0472217096	 0.276919
C	-1.146775322	-0.7610395662	-0.1326309588	-0.209738
C	-0.7399768664	-2.1279018163	-0.1783959517	-0.2242
C	 0.6272632375	-2.1719670962	-0.0300233901	 0.286353
N	 1.057852333	-0.8641669758	 0.1053785877	-0.323988
C	 1.5755782566	-3.3060923727	-0.0453153762	-0.135633
C	 2.1417819455	-3.8408018061	 1.2291442687	-0.234657
N	 1.1502140566	-4.6177503316	 0.4692416394	-0.308366
H	 0.6185568849	 1.8184976712	-0.5779886306	 0.243298
H	-0.6718296504	 1.8468303136	 0.4291487857	 0.247197
H	-2.1501769152	-0.3774798049	-0.2387416723	 0.082427
H	-1.3781316787	-2.9826706679	-0.3464547617	 0.094486
H	 1.9910709962	-0.581402065	 0.3522212047	 0.256235
H	 2.2022906186	-3.3920755238	-0.9334003411	 0.098319
H	 3.1424771472	-4.2640067169	 1.2410430299	 0.114777
H	 1.8301394392	-3.3660551005	 2.155373626	 0.113353
H	 0.2403579054	-4.5094722062	 0.9121091836	 0.233706
28.8327	122.4506	139.2556	165.1939	263.1196	350.0465	384.2226	475.9163	489.4227	607.5636	646.0136	682.8105	702.7106	764.0812	818.3302	831.5562	840.871	880.4161	962.3079	985.9285	1017.4597	1019.9627	1059.1743	1100.1358	1142.0479	1151.7801	1171.4892	1218.1673	1260.2185	1267.0781	1297.3208	1302.9782	1396.0391	1430.866	1469.8191	1504.3858	1556.6809	1631.4379	1658.8228	3091.8423	3108.4418	3197.0792	3236.0744	3251.1404	3488.1285	3495.6489	3597.5601	3671.1507
NC1=CC=C(N1)C1CN1	Nc1ccc([nH]1)[C@H]1CN1	
InChI=1S/C6H9N3/c7-6-2-1-4(9-6)5-3-8-5/h1-2,5,8-9H,3,7H2	InChI=1S/C6H9N3/c7-6-2-1-4(9-6)5-3-8-5/h1-2,5,8-9H,3,7H2/t5-/m1/s1
