18
gdb 62978	2.27418	1.63887	1.2949	4.6762	75.7	-0.2509	0.0087	0.2596	1049.0994	0.147813	-398.088317	-398.079708	-398.078764	-398.121102	33.047	
C	-0.0787781708	 1.6438128799	-0.0469268524	-0.441275
C	 0.0124666364	 0.125585484	-0.0205807957	 0.277202
N	-1.2862649795	-0.4222335251	 0.3469520355	-0.546977
C	 0.7072705412	-0.5736844195	-1.2085980163	-0.069607
C	 2.1561009904	-0.3124663911	-1.2766216297	-0.259353
N	 1.6828945466	-1.3271774541	-0.3133872665	-0.135754
C	 1.1215026614	-0.5625375067	 0.8662925595	-0.161738
C	 2.0669447082	 0.2817856006	 1.5826716968	 0.311039
N	 2.8129002549	 0.9770386901	 2.1283829942	-0.339865
H	 0.8893637972	 2.1109408197	-0.2348617171	 0.135787
H	-0.766313505	 1.9635598816	-0.8386718498	 0.115758
H	-0.4612593507	 2.0142133415	 0.908105425	 0.143532
H	-2.0065803403	-0.0457411142	-0.2631893575	 0.231634
H	-1.2980411196	-1.4315134806	 0.2234026064	 0.235928
H	 0.1682745118	-1.0865738241	-2.0005757132	 0.096639
H	 2.7056601176	-0.7564596626	-2.1008378602	 0.133807
H	 2.5800582997	 0.6156621929	-0.9032454598	 0.138733
H	 0.6661476305	-1.2648658125	 1.5676254208	 0.13451
116.4832	137.1236	191.0105	218.04	267.9734	306.0868	373.1317	387.1405	409.2119	480.6787	557.2728	564.7328	656.5063	747.5405	784.9326	828.3663	854.3032	916.9537	981.9273	990.1806	1004.7323	1026.7812	1055.6065	1074.3747	1118.8859	1134.6711	1163.6766	1195.6344	1227.698	1248.2874	1332.0162	1354.5068	1367.0828	1418.5895	1486.6337	1490.0363	1507.3602	1660.8067	2348.0979	3038.1558	3092.5061	3108.7801	3118.662	3139.105	3150.961	3206.183	3481.1028	3562.0064
CC1(N)C2CN2C1C#N	C[C@@]1(N)[C@H]2CN2[C@H]1C#N	
InChI=1S/C6H9N3/c1-6(8)4(2-7)9-3-5(6)9/h4-5H,3,8H2,1H3	InChI=1S/C6H9N3/c1-6(8)4(2-7)9-3-5(6)9/h4-5H,3,8H2,1H3/t4-,5+,6-,9?/m0/s1
