21
gdb 120689	3.09086	0.80531	0.72267	2.7946	80.62	-0.2448	-0.0149	0.23	1638.9184	0.180504	-424.234451	-424.224117	-424.223173	-424.270679	36.921	
C	 0.0080640899	 1.4874123304	 0.0287687063	-0.482592
C	 0.0926821265	-0.0189854657	-0.1363198244	 0.392201
O	 1.1502035184	-0.5765576188	-0.3554180232	-0.327807
C	-1.1967433373	-0.7603156299	-0.0128655086	-0.144403
C	-1.3160102479	-2.1279728543	-0.6625753589	-0.284004
C	-1.2860007624	-2.0447450265	 0.8277727174	 0.000406
C	-0.1255373688	-2.5790856108	 1.6391637562	-0.243163
C	-0.241961908	-4.0887226022	 1.8773817751	-0.050733
O	 0.7978773166	-4.590968423	 2.7004147202	-0.419774
H	 1.001908975	 1.928363044	-0.0533061049	 0.140569
H	-0.6494091404	 1.9144414759	-0.7375396845	 0.139984
H	-0.4329343467	 1.7394563982	 1.000019626	 0.140108
H	-2.0848382958	-0.1373833132	 0.0051294361	 0.086103
H	-2.2448558546	-2.3655408242	-1.1685193021	 0.116295
H	-0.4128652848	-2.4703942633	-1.1573024254	 0.13715
H	-2.2517615792	-2.1494588919	 1.31776118	 0.09388
H	 0.8139587794	-2.3629923142	 1.1209098208	 0.126361
H	-0.0809978966	-2.0778909157	 2.6138312344	 0.102388
H	-1.1733646556	-4.320009987	 2.4070190384	 0.10484
H	-0.2822307556	-4.6161109676	 0.910950294	 0.090027
H	 1.632249288	-4.4223458002	 2.250706677	 0.282163
53.4571	80.4548	97.4702	124.8997	140.8239	205.7103	239.4198	314.2911	340.7554	356.0995	426.7226	467.8127	596.5705	633.1319	759.9743	790.0915	815.2399	866.3886	897.2309	947.343	979.9812	1020.0579	1047.3602	1052.9214	1075.462	1082.7502	1116.5599	1134.1781	1146.8483	1185.913	1223.8812	1243.0647	1299.4141	1318.9974	1376.185	1386.7012	1410.3904	1423.5011	1428.3721	1463.9444	1475.42	1479.1335	1496.0432	1516.8141	1783.0061	2978.3511	3033.4251	3035.4707	3057.2072	3093.0953	3093.4468	3130.0992	3134.0854	3153.4638	3163.0092	3226.9226	3812.8913
CC(=O)C1CC1CCO	CC(=O)[C@H]1C[C@H]1CCO	
InChI=1S/C7H12O2/c1-5(9)7-4-6(7)2-3-8/h6-8H,2-4H2,1H3	InChI=1S/C7H12O2/c1-5(9)7-4-6(7)2-3-8/h6-8H,2-4H2,1H3/t6-,7-/m1/s1
