22
gdb 113999	4.38655	0.63019	0.58817	3.822	85.58	-0.2451	0.0353	0.2804	1935.4507	0.193699	-404.367362	-404.357012	-404.356067	-404.404441	36.748	
C	 0.5183171592	 1.662904096	-0.0182414624	-0.375222
C	-0.0449466898	 0.2366220446	-0.0073309771	-0.195907
C	 0.3339119455	-0.5386347316	-1.2549961385	 0.013277
C	 1.6398510728	-1.2926985868	-1.3433019238	-0.305042
C	 0.3247993383	-2.0465684128	-1.3472113629	-0.026671
C	-0.0592363262	-2.9411947877	-0.189314866	-0.181057
N	 0.545005272	-4.261489168	-0.3167151878	-0.271258
C	-0.1620715073	-5.4195264582	-0.2476220833	 0.153668
O	-1.3541295392	-5.5060263987	-0.0386655387	-0.324132
H	 1.6119598383	 1.6534636702	-0.0721854095	 0.11806
H	 0.1496703682	 2.2255606981	-0.8829655279	 0.115385
H	 0.2286034098	 2.2106263924	 0.8837342217	 0.112553
H	 0.3144365871	-0.284988251	 0.8868279661	 0.096194
H	-1.1384185538	 0.2766464308	 0.0815318372	 0.102452
H	 0.0294372237	-0.0390352274	-2.1724833728	 0.085142
H	 2.2231059552	-1.2447555762	-2.2562651196	 0.112076
H	 2.2382165765	-1.3414229902	-0.4369571971	 0.106243
H	 0.017592159	-2.4502343886	-2.3087477126	 0.092468
H	 0.2346830811	-2.4889682651	 0.765420078	 0.106285
H	-1.1388014169	-3.1076327667	-0.1522476699	 0.149396
H	 1.530964248	-4.3145335284	-0.5193863993	 0.245897
H	 0.4877364383	-6.3036911446	-0.4071090839	 0.070192
31.3276	47.6484	89.4954	112.4211	188.0852	221.8056	235.2944	272.2851	329.7684	371.4762	436.7197	544.0623	560.8114	740.2608	762.3866	799.0136	844.7003	875.8987	899.1827	950.1965	990.06	992.8187	1032.2011	1049.098	1064.5234	1081.9263	1117.8564	1149.8148	1174.3771	1198.2339	1212.2945	1247.2677	1283.7365	1300.3247	1341.4436	1358.9296	1406.3628	1414.5325	1430.8196	1439.8974	1483.8282	1491.029	1497.7869	1502.0996	1508.056	1529.2601	1805.2713	2928.123	3021.5685	3031.3487	3032.4681	3061.4475	3100.1253	3106.1295	3107.0013	3118.2536	3123.7042	3140.4575	3205.6985	3630.9425
CCC1CC1CNC=O	CC[C@H]1C[C@H]1CNC=O	
InChI=1S/C7H13NO/c1-2-6-3-7(6)4-8-5-9/h5-7H,2-4H2,1H3,(H,8,9)	InChI=1S/C7H13NO/c1-2-6-3-7(6)4-8-5-9/h5-7H,2-4H2,1H3,(H,8,9)/t6-,7-/m0/s1
