17
gdb 52534	3.59655	0.83972	0.72192	4.3866	79.57	-0.25	-0.0546	0.1954	1567.0658	0.133731	-421.790919	-421.781192	-421.780247	-421.828593	32.2	
C	 0.1690356543	 1.3289585473	 0.4397081519	-0.503871
C	 0.0519904847	-0.0946891153	 0.1770356392	 0.122992
C	-0.0686415414	-1.2757248101	-0.0427529501	-0.00173
C	-0.1872550482	-2.6945986968	-0.3083373901	 0.210234
O	-1.2591233835	-3.2310669449	-0.4976905578	-0.289093
C	 1.1276691326	-3.4500106752	-0.3077674328	-0.149866
C	 1.7556362158	-3.6912803893	 1.0945340721	-0.072674
O	 1.6008802523	-5.1128559148	 0.9603201116	-0.268025
C	 1.0393897022	-4.9846418089	-0.3661577136	-0.09462
H	 1.2159891009	 1.6440824452	 0.4943515442	 0.158772
H	-0.3216775328	 1.9097708304	-0.3487091978	 0.166265
H	-0.3135110071	 1.5867818441	 1.3887421957	 0.166494
H	 1.8107960267	-2.9801611603	-1.0193587891	 0.106601
H	 2.8065469481	-3.3925170174	 1.1905099845	 0.106128
H	 1.1896781918	-3.2862821189	 1.9426526846	 0.111991
H	 0.0187353404	-5.3736586775	-0.4268013016	 0.130969
H	 1.6691738632	-5.4638722876	-1.1243062609	 0.099433
20.5462	34.6992	72.5298	83.6794	133.1277	219.3104	286.8951	317.6308	392.8986	427.5074	555.1271	669.054	744.7785	820.3534	879.9897	911.9251	975.0114	1034.6025	1043.6129	1044.6126	1054.0363	1080.7598	1105.1164	1158.3968	1166.622	1197.4542	1225.3482	1306.7547	1353.1434	1375.5777	1409.8192	1469.604	1472.9352	1511.6508	1536.5246	1758.213	2337.3434	3013.0819	3032.9088	3033.327	3056.1991	3083.8666	3096.1672	3097.2937	3101.174
CC#CC(=O)C1COC1	CC#CC(=O)C1COC1	
InChI=1S/C7H8O2/c1-2-3-7(8)6-4-9-5-6/h6H,4-5H2,1H3	InChI=1S/C7H8O2/c1-2-3-7(8)6-4-9-5-6/h6H,4-5H2,1H3
