20
gdb 66177	3.75322	0.84845	0.80512	3.0481	78.24	-0.2613	0.0147	0.2759	1497.9548	0.169799	-440.270296	-440.260744	-440.2598	-440.305838	34.719	
O	 0.0938930458	 1.5909801849	-0.2658893408	-0.486187
C	 0.0089972015	 0.2130272761	 0.007868352	 0.420786
C	 0.8731814227	-0.5638003732	-0.9756073327	-0.1329
O	 2.2130571551	-0.0817035074	-0.8110964258	-0.207684
C	 3.1272690311	-0.4991349247	-1.7094945412	 0.13242
N	 4.3241924086	-0.113029409	-1.6145143999	-0.435706
C	 0.1984407435	-0.2424357134	 1.4892532413	-0.275899
C	-1.0794131217	-1.1139038356	 1.3471097579	-0.215078
C	-1.4440369372	-0.3143527474	 0.0654050343	-0.271171
H	 1.0327481675	 1.8088868808	-0.3270099703	 0.288678
H	 0.8330539517	-1.6426581599	-0.7789436664	 0.108782
H	 0.5292048203	-0.3712765857	-2.0000605698	 0.113253
H	 2.713300137	-1.1688656212	-2.4757388533	 0.088853
H	 4.8803006564	-0.5135922368	-2.3669609273	 0.231647
H	 1.138028754	-0.7344818059	 1.7502262343	 0.105984
H	 0.0418642318	 0.6093364418	 2.1548075898	 0.111556
H	-0.8522035467	-2.1621815875	 1.1354508665	 0.102245
H	-1.7961970757	-1.0800936634	 2.1692228732	 0.10561
H	-2.1208515249	 0.5171818267	 0.2737552787	 0.12078
H	-1.8175267104	-0.8651641392	-0.8028588505	 0.09403
37.6173	72.5736	116.0393	133.6639	172.5839	284.3401	308.1046	357.5728	413.7261	442.5269	488.6162	624.2017	663.8157	745.5931	790.3353	824.1034	870.5866	913.5247	932.8761	948.6251	981.5126	1001.1451	1038.3323	1045.0143	1082.5402	1131.1821	1164.1893	1197.3557	1203.1549	1247.3599	1260.6196	1268.0204	1284.0699	1296.3692	1320.4455	1364.3429	1414.2047	1429.3114	1470.1411	1485.3294	1497.1607	1507.5941	1749.0824	3007.4602	3028.7167	3056.3408	3062.623	3065.3634	3071.053	3108.813	3122.0217	3132.7592	3520.3967	3778.2444
OC1(COC=N)CCC1	OC1(CO[CH][NH])CCC1	
InChI=1S/C6H11NO2/c7-5-9-4-6(8)2-1-3-6/h5,7-8H,1-4H2	InChI=1S/C6H11NO2/c7-5-9-4-6(8)2-1-3-6/h5,7-8H,1-4H2
