15
gdb 12936	2.68586	2.25163	1.68176	2.3052	62.64	-0.2503	0.0131	0.2634	825.9158	0.117803	-399.76536	-399.757828	-399.756884	-399.796923	28.219	
C	 0.0040528741	 1.6039912684	 0.0206375859	-0.496503
C	 0.0235621619	 0.1051169702	 0.0124289935	 0.123461
C	-0.9032706603	-0.7982977816	 0.8606121591	 0.086567
O	-1.7445602393	-1.7808873968	 0.3699136796	-0.422659
C	 0.5639609685	-0.9670018482	 0.9706801383	-0.026898
O	 0.9973741861	-1.7866766985	-0.1520936905	-0.299365
C	 0.6298136972	-0.7604522912	-1.0398166753	 0.399737
N	 0.8360700159	-0.6495997648	-2.2687394277	-0.550589
H	 0.9967462819	 2.0167735799	-0.1842623276	 0.135223
H	-0.67997494	 1.9802145118	-0.7465951734	 0.148155
H	-0.3332699864	 1.9875299441	 0.9881608608	 0.122695
H	-1.3770669735	-0.2430717267	 1.6662514146	 0.121613
H	-1.1888861962	-2.4426856764	-0.0621970848	 0.300834
H	 1.2202337404	-0.9284318866	 1.830880838	 0.124561
H	 1.3306117196	-1.4603801236	-2.6437958706	 0.233168
132.4142	154.4852	216.2101	234.598	262.1219	386.2116	418.6609	461.7631	633.271	653.4073	713.8879	744.1081	813.8878	864.3471	880.0627	912.0256	933.2147	996.5267	1009.039	1050.2328	1107.7066	1156.0298	1174.6711	1250.212	1286.8536	1299.7424	1398.1804	1421.4357	1467.9502	1482.4493	1497.0526	1832.4885	3037.9954	3105.3627	3110.4223	3155.6762	3198.6916	3483.8349	3772.2475
CC12C(O)C1OC2=N	C[C@]12[C@@H](O)[C@H]1O[C]2[NH]	
InChI=1S/C5H7NO2/c1-5-2(7)3(5)8-4(5)6/h2-3,6-7H,1H3	InChI=1S/C5H7NO2/c1-5-2(7)3(5)8-4(5)6/h2-3,6-7H,1H3/t2-,3+,5-/m0/s1
