18
gdb 26242	4.04718	0.95909	0.89343	3.0557	76.	-0.2004	0.0322	0.2326	1354.2011	0.14864	-435.301469	-435.292164	-435.29122	-435.33688	34.061	
C	 0.0466418349	 1.5757181883	 0.1286025901	-0.39023
C	-0.0513383364	 0.0592580622	-0.0436118974	 0.021593
O	 0.7031307303	-0.6298627947	 0.9584111765	-0.430916
C	-1.4778570383	-0.4092892102	-0.0427626208	 0.3341
N	-2.3965318091	-0.0400256394	 0.8221377507	-0.303401
C	-3.5107133261	-0.7996543769	 0.541220954	-0.152659
C	-3.266759088	-1.6354500766	-0.5202953893	 0.264786
N	-4.0480480781	-2.5372914149	-1.2630163819	-0.613103
N	-1.962818517	-1.3747714443	-0.8846917576	-0.323369
H	 1.0965657301	 1.8687161335	 0.2089712544	 0.1159
H	-0.4058717585	 2.0973147535	-0.7206899671	 0.114374
H	-0.4856508779	 1.8846723702	 1.0324705562	 0.138349
H	 0.4197961586	-0.2330163725	-0.9902260049	 0.07974
H	 0.2158753963	-0.5217942897	 1.7839626515	 0.285115
H	-4.4249924546	-0.7000007895	 1.107148479	 0.095961
H	-5.0314553415	-2.4116229398	-1.0571990097	 0.25205
H	-3.812699193	-3.5071419808	-1.071776336	 0.247866
H	-1.4835982016	-1.7956182385	-1.6637640677	 0.263843
12.874	119.7033	164.995	182.5541	244.5519	270.9535	301.4543	359.1158	399.193	445.7512	506.5412	538.0133	661.0194	667.7536	724.9753	761.0603	808.1287	826.3089	899.055	991.1174	1019.4893	1052.0547	1094.1339	1102.5711	1147.1296	1190.9161	1196.275	1279.2655	1299.3823	1353.0062	1400.795	1416.7336	1435.3242	1467.5511	1485.9003	1495.6334	1531.7819	1624.7883	1659.3044	3035.8304	3042.6016	3115.8644	3130.2875	3242.412	3492.741	3598.4484	3657.0883	3792.8594
CC(O)C1=NC=C(N)N1	C[C@@H](O)c1ncc(N)[nH]1	
InChI=1S/C5H9N3O/c1-3(9)5-7-2-4(6)8-5/h2-3,9H,6H2,1H3,(H,7,8)	InChI=1S/C5H9N3O/c1-3(9)5-7-2-4(6)8-5/h2-3,9H,6H2,1H3,(H,7,8)/t3-/m1/s1
