27
gdb 104193	2.23194	1.21802	1.17677	0.0758	95.21	-0.2702	0.0754	0.3456	1332.9877	0.250638	-353.562371	-353.551634	-353.55069	-353.596955	42.409	
C	-0.2264648865	 1.6107509021	-0.0431582339	-0.391567
C	-0.3917973643	 0.1247486792	-0.3913187716	-0.2416
C	 0.7364200875	-0.4667449451	-1.2487776192	 0.32347
C	 0.8031147169	 0.2345477307	-2.612217418	-0.448355
C	 2.1556600296	-0.5307947624	-0.6009786444	-0.258479
C	 2.3403963608	-1.9533082163	-1.1838796373	-0.260355
C	 0.7970145026	-2.0577405761	-1.3834275254	 0.297151
C	 0.1552670262	-2.7999743163	-0.2036347619	-0.437902
C	 0.3120367158	-2.6887840623	-2.6882870728	-0.453991
H	 0.737655574	 1.7996445176	 0.4419892072	 0.116662
H	-0.2858554627	 2.2543374086	-0.9256252744	 0.116971
H	-1.011489014	 1.9327926709	 0.6483689444	 0.109634
H	-0.4653493802	-0.4358449383	 0.5457733336	 0.091432
H	-1.3512052671	-0.0201764748	-0.9078129019	 0.087522
H	 0.9900624468	 1.3054738771	-2.4864511266	 0.111958
H	 1.6121790605	-0.1574059852	-3.2355451731	 0.111172
H	-0.1327053773	 0.1227190111	-3.1710895456	 0.108914
H	 2.8726501947	 0.2342757073	-0.9114484243	 0.088683
H	 2.1123427094	-0.5339574413	 0.4922710722	 0.093192
H	 2.8814156912	-1.944847331	-2.1344115066	 0.093539
H	 2.8005179697	-2.7053812252	-0.5364843534	 0.087794
H	 0.5116037939	-2.4366930182	 0.7650476126	 0.11157
H	-0.9368254957	-2.7147762361	-0.2127299957	 0.110638
H	 0.4037901969	-3.8659350509	-0.2617788673	 0.106323
H	 0.5473606251	-3.759694174	-2.701083393	 0.107982
H	-0.7749183207	-2.5936072641	-2.7996543415	 0.108575
H	 0.7789425466	-2.2413508872	-3.569009502	 0.109067
79.801	121.8598	188.6969	214.8195	232.5762	267.8853	286.9429	292.8833	330.7498	340.9272	359.4753	373.7982	381.4541	443.0444	500.6183	587.8414	668.159	746.8846	788.1783	857.6694	890.5359	910.8024	924.0294	950.2539	951.0332	974.4143	1001.3367	1013.0219	1020.647	1061.3511	1074.1219	1145.5457	1179.6884	1216.2413	1222.9786	1227.726	1247.8623	1264.9988	1290.5001	1297.8995	1329.6936	1367.5511	1401.0258	1406.9347	1414.7677	1420.8644	1478.0431	1479.6098	1485.9294	1487.3624	1496.2889	1497.8562	1500.8433	1506.6463	1510.7602	1513.9455	1518.0767	3010.2359	3021.0983	3026.7671	3031.2815	3034.9142	3045.2614	3052.0991	3068.7646	3077.9649	3086.6743	3089.0981	3095.8771	3097.6904	3099.8804	3100.5467	3106.4615	3111.6626	3115.5964
CCC1(C)CCC1(C)C	CC[C@@]1(C)CCC1(C)C	
InChI=1S/C9H18/c1-5-9(4)7-6-8(9,2)3/h5-7H2,1-4H3	InChI=1S/C9H18/c1-5-9(4)7-6-8(9,2)3/h5-7H2,1-4H3/t9-/m0/s1
