16
gdb 124701	4.07359	0.98209	0.85129	2.8719	66.19	-0.2832	-0.0689	0.2143	1308.3829	0.122714	-471.147184	-471.138415	-471.137471	-471.181608	30.781	
C	 0.1658442776	 1.4391044659	 0.2036405711	-0.401422
C	-0.0754308202	-0.0629755127	-0.0411545083	-0.080307
C	-1.5667651485	-0.4102435713	-0.0734409004	-0.085107
O	-2.0909202294	-0.0835826669	 1.2024233244	-0.422174
C	 0.6135621696	-0.5138682803	-1.2872717444	 0.410003
N	 0.0383658845	-0.9225552108	-2.3817878545	-0.154598
O	 1.0587027717	-1.2066621917	-3.2275976481	-0.14511
N	 2.2619892585	-0.9450596565	-2.5787368035	 0.04508
N	 1.9963031865	-0.5319464402	-1.423970251	-0.205341
H	 1.2341437186	 1.6561206692	 0.2783225445	 0.137953
H	-0.2505314003	 2.0353602392	-0.6151003525	 0.123733
H	-0.3248277193	 1.734697436	 1.1321149737	 0.147659
H	 0.3734841004	-0.6188415311	 0.7917563182	 0.123772
H	-2.0613975065	 0.1590035997	-0.8747428801	 0.106639
H	-1.6944416433	-1.4783145379	-0.301697366	 0.105491
H	-3.0395796899	-0.2380724106	 1.188018087	 0.29373
40.1449	105.6511	144.8099	186.8284	239.4539	243.7973	297.3017	365.3651	424.9272	466.1414	673.8403	694.8338	727.1212	787.4299	884.8533	936.7392	959.1678	1026.3938	1061.8127	1080.9533	1106.5142	1118.9615	1159.3966	1211.1824	1265.3332	1279.0653	1344.4664	1362.1609	1400.0295	1463.5991	1483.6019	1499.2945	1507.2609	1521.7025	1591.5752	2987.1267	3018.6913	3040.6351	3048.5963	3119.8732	3148.7922	3839.8843
CC(CO)C1=NON=N1	C[C@@H](CO)c1nonn1	
InChI=1S/C4H7N3O2/c1-3(2-8)4-5-7-9-6-4/h3,8H,2H2,1H3	InChI=1S/C4H7N3O2/c1-3(2-8)4-5-7-9-6-4/h3,8H,2H2,1H3/t3-/m0/s1
