21
gdb 90001	3.59957	1.11199	1.06109	1.7824	84.25	-0.2447	0.012	0.2567	1237.7592	0.183716	-387.088635	-387.080223	-387.079279	-387.121913	33.128	
O	-0.2348687404	 1.4866556109	-0.691308703	-0.435309
C	 0.1584837467	 0.2267359381	-0.1420041504	 0.092159
C	-1.0185448731	-0.6311143153	 0.3944931992	-0.343498
C	-1.2605515672	-1.7603504515	-0.6320451672	 0.324638
C	-1.6484077841	-3.1851098741	-0.1173783085	-0.267629
C	-2.6381110561	-3.3282220226	-1.3019703121	-0.210745
C	-2.5758120743	-1.7910040707	-1.4894960511	-0.264043
C	-0.0077658004	-1.7144100614	-1.4699267293	-0.103906
C	 0.7747576132	-0.6727048127	-1.1883666643	-0.135663
H	-0.718876052	 1.3019331083	-1.5040470262	 0.272712
H	 0.8570759986	 0.4955889983	 0.6568100782	 0.084794
H	-0.7393876646	-1.0751927568	 1.3564294552	 0.101982
H	-1.9002243035	-0.0077979218	 0.5679059636	 0.101758
H	-0.8419027422	-3.9181849515	-0.0278575824	 0.096211
H	-2.1702079128	-3.1237929524	 0.842656765	 0.100049
H	-2.1936712513	-3.8627739911	-2.1461622266	 0.10251
H	-3.6141415525	-3.7712317998	-1.0922510147	 0.097613
H	-3.3929672339	-1.2826433661	-0.9686111295	 0.101569
H	-2.5165621108	-1.401972444	-2.5099713197	 0.091922
H	 0.1977344443	-2.462254948	-2.2306118952	 0.095991
H	 1.7070497965	-0.4249418558	-1.6837885509	 0.096886
50.6994	118.7933	174.3008	265.7701	328.7392	340.9658	369.5268	396.6589	480.1481	567.3875	677.167	757.1745	767.9607	799.2487	810.5924	847.6956	873.1695	905.5289	917.9718	942.2059	976.6603	984.2747	989.8477	1035.2661	1057.2	1085.8989	1104.623	1166.8545	1189.5973	1210.1458	1218.7825	1251.5179	1253.3137	1274.8117	1281.0968	1286.3737	1300.634	1328.6206	1381.5533	1432.9208	1473.4154	1474.9058	1485.1157	1506.1116	1675.3558	3039.718	3044.4883	3048.7415	3059.9866	3061.5528	3092.1235	3095.0788	3099.8834	3116.7227	3167.804	3202.0326	3797.2091
OC1CC2(CCC2)C=C1	O[C@H]1CC2(CCC2)C=C1	
InChI=1S/C8H12O/c9-7-2-5-8(6-7)3-1-4-8/h2,5,7,9H,1,3-4,6H2	InChI=1S/C8H12O/c9-7-2-5-8(6-7)3-1-4-8/h2,5,7,9H,1,3-4,6H2/t7-/m1/s1
