19
gdb 67568	2.83556	2.00532	1.47791	1.8591	77.48	-0.2485	0.0766	0.3251	932.8829	0.160744	-385.822005	-385.815216	-385.814272	-385.852669	28.825	
C	 0.0286880616	 1.5214760108	-0.0623850793	-0.515791
C	 0.0286689696	 0.0095249112	-0.0030679999	 0.347494
C	 0.4252526068	-0.7423255583	-1.2775138991	-0.039271
O	 1.6162487628	-1.5431005549	-1.1444015457	-0.259831
C	 0.3313057252	-2.1384050713	-0.8716160769	 0.005646
C	-0.1099053405	-2.0036468877	 0.5773254047	-0.05175
C	 0.6530879875	-0.7897496964	 1.1994746727	-0.073084
C	-0.5964742632	-0.4811568301	 2.0610756829	-0.26759
C	-1.1507906757	-0.8234935329	 0.6611538323	-0.099253
H	 1.0331741554	 1.8970791243	-0.287109178	 0.127762
H	-0.6397109149	 1.8797214054	-0.8540090649	 0.116906
H	-0.2958791028	 1.9806929566	 0.8751755166	 0.12028
H	 0.2150569035	-0.3599083593	-2.2719613274	 0.091732
H	 0.0351945114	-2.9591260452	-1.5163778999	 0.096819
H	-0.2701319083	-2.894861129	 1.1844932033	 0.068067
H	 1.6995841792	-0.777894475	 1.5017618168	 0.080384
H	-0.8206056438	-1.1952169579	 2.8582868292	 0.090853
H	-0.7223210699	 0.5427204859	 2.4186755083	 0.093625
H	-2.1953714039	-0.8486282161	 0.3411808144	 0.067001
197.691	233.0455	290.0133	321.7114	393.8459	458.7001	547.6471	612.6766	705.578	730.6633	762.9824	817.7314	829.6666	872.911	879.2837	910.6403	915.774	931.6781	972.5275	995.5683	1013.9877	1050.1869	1065.2215	1070.3705	1098.7373	1116.5554	1150.3596	1179.3599	1193.6188	1209.1942	1228.692	1239.2953	1246.2146	1278.0337	1317.0892	1323.745	1413.6591	1420.107	1491.2388	1493.7874	1526.7143	3029.6381	3057.6506	3082.1403	3086.6778	3108.6941	3112.8623	3118.2226	3123.6249	3157.119	3175.4173
CC12C3OC3C3C1CC23	C[C@@]12[C@H]3O[C@H]3[C@H]3[C@@H]1C[C@@H]23	
InChI=1S/C8H10O/c1-8-3-2-4(8)5(3)6-7(8)9-6/h3-7H,2H2,1H3	InChI=1S/C8H10O/c1-8-3-2-4(8)5(3)6-7(8)9-6/h3-7H,2H2,1H3/t3-,4+,5-,6-,7-,8+/m0/s1
