21
gdb 104474	2.16081	1.31768	1.15234	2.9603	81.34	-0.2354	-0.0179	0.2175	1229.9148	0.179127	-424.2186	-424.208074	-424.20713	-424.253741	37.7	
C	-0.5531145487	 0.1531733214	-2.8252528671	-0.25972
O	-0.3210748705	-0.6176062889	-1.6471955689	-0.288044
C	-1.4499748012	-0.9224669534	-0.9065201515	 0.308984
C	-2.2102586986	 0.1986715232	-0.3023592532	 0.121249
O	-1.9500062858	 1.3713548108	-0.4193209298	-0.282074
C	-2.2527967445	-2.1937846336	-1.2597150809	-0.093216
C	-1.9272611104	-2.9719141923	-2.5161546162	-0.415465
C	-1.3527278721	-2.192557125	-0.0584752272	-0.087698
C	-0.0455236637	-2.9523600091	 0.0033663643	-0.407544
H	 0.4022159214	 0.1968229595	-3.3530307914	 0.12571
H	-1.2976849925	-0.3244875069	-3.4751530502	 0.106115
H	-0.8825474963	 1.164475848	-2.5751956027	 0.149547
H	-3.08549802	-0.142890757	 0.3008119822	 0.067624
H	-3.3159121872	-2.134669226	-1.0375347415	 0.089899
H	-0.8840235704	-2.8451774518	-2.809930961	 0.138477
H	-2.1096996864	-4.0412439018	-2.3636574878	 0.122746
H	-2.5552786418	-2.6452333232	-3.3508369019	 0.122809
H	-1.8672762946	-2.1274612277	 0.8976236445	 0.093869
H	 0.5256691009	-2.8515966277	-0.9195741108	 0.140339
H	 0.5770289251	-2.5727435868	 0.8192751277	 0.127382
H	-0.2292776127	-4.0161000916	 0.1884021034	 0.119012
101.2899	126.0299	142.9268	155.9399	168.0756	189.5185	213.7693	240.0304	277.7969	297.9628	342.5668	409.9551	517.3777	574.9181	607.718	745.1949	790.6878	819.0645	955.0315	995.7553	1017.5577	1036.4844	1041.5703	1054.0642	1093.5988	1133.127	1143.723	1179.8228	1186.9414	1219.9397	1248.6143	1324.7354	1370.6771	1412.8897	1418.7257	1425.1642	1440.3827	1479.635	1482.654	1486.6812	1493.461	1503.4494	1510.713	1519.155	1812.2144	2844.1289	3017.9978	3038.6577	3043.4733	3094.6422	3101.0304	3102.0257	3120.0974	3129.599	3134.8019	3140.3807	3153.451
COC1(C=O)C(C)C1C	CO[C@@]1(C=O)[C@@H](C)[C@H]1C	
InChI=1S/C7H12O2/c1-5-6(2)7(5,4-8)9-3/h4-6H,1-3H3	InChI=1S/C7H12O2/c1-5-6(2)7(5,4-8)9-3/h4-6H,1-3H3/t5-,6+,7-
