20
gdb 67825	3.04802	1.77805	1.45873	1.5355	82.35	-0.2092	0.0105	0.2197	980.1506	0.173614	-366.014048	-366.006809	-366.005865	-366.045144	30.131	
C	-0.0457331643	 1.5193988248	 0.0340223122	-0.487566
C	 0.023920707	 0.0114544277	-0.0178074954	 0.312162
C	-0.1233606096	-0.6771947339	-1.3350559106	-0.14504
C	-0.816184451	-1.8052855327	-1.191670908	-0.079246
C	-1.1025422331	-2.0541957291	 0.277303458	-0.065635
C	-0.0585088517	-3.0377097181	 0.8532427871	-0.194451
C	 1.2282451669	-2.1753588096	 0.8834401619	-0.250038
C	 0.6882637396	-0.7620701364	 1.0907659407	-0.065154
N	-0.7905952149	-0.7533379211	 0.9611639532	-0.154662
H	 0.8072220548	 1.9679779381	-0.4877876341	 0.113626
H	-0.9640778589	 1.8822351766	-0.4400937219	 0.123026
H	-0.0374748622	 1.8714462277	 1.0687616176	 0.12645
H	 0.2776828616	-0.2759109232	-2.2582154596	 0.096858
H	-1.0447916785	-2.5249494843	-1.9697091115	 0.097845
H	-2.1320842989	-2.3595038077	 0.4857537251	 0.077909
H	-0.3507690074	-3.326047909	 1.8685409659	 0.106557
H	 0.0447852695	-3.9504696713	 0.2586877731	 0.096835
H	 1.9020250466	-2.4612426226	 1.6944624464	 0.101104
H	 1.7831358396	-2.2713523823	-0.0543703745	 0.108479
H	 1.074778285	-0.1930027537	 1.9336956843	 0.080941
176.5587	207.577	245.3619	277.3663	344.2067	387.7239	543.8177	568.2759	659.3903	691.8006	742.0467	774.9553	782.3227	800.1228	864.8664	895.8753	911.2312	924.1298	944.2433	955.7111	974.6769	1031.0173	1032.3133	1063.252	1096.9895	1099.0529	1128.6808	1177.7528	1196.4364	1242.2545	1270.5667	1285.9644	1310.0515	1319.5933	1345.0835	1370.4263	1395.5812	1411.4748	1480.5444	1485.5372	1493.2146	1495.3419	1672.539	3030.5809	3044.5825	3058.283	3064.0382	3091.5672	3093.6233	3105.0065	3117.5992	3124.9603	3187.8079	3213.7756
CC12C=CC3CCC1N23	C[C@@]12C=C[C@H]3CC[C@@H]1N23	
InChI=1S/C8H11N/c1-8-5-4-6-2-3-7(8)9(6)8/h4-7H,2-3H2,1H3	InChI=1S/C8H11N/c1-8-5-4-6-2-3-7(8)9(6)8/h4-7H,2-3H2,1H3/t6-,7+,8-,9?/m1/s1
