17
gdb 81668	3.70709	1.33051	1.26381	5.725	67.9	-0.2827	0.037	0.3196	1043.3899	0.137104	-458.995144	-458.987843	-458.986899	-459.026805	28.597	
C	-0.2275325335	 1.4111695681	-0.0280799772	-0.433716
C	 0.0597970195	-0.0844560298	 0.019555969	-0.014917
C	 1.2870163806	-0.5815621158	-0.7951962083	 0.111895
C	 2.1758277229	-0.2880823861	 0.435316462	-0.279521
C	 0.8873086619	-0.593746458	 1.2331666423	 0.111895
O	 0.7335847839	-2.0243831114	 1.3153759128	-0.267902
C	 0.8919114228	-2.7341531616	 0.1676150714	 0.463503
O	 0.7859388677	-3.9208434818	 0.1396033457	-0.36328
O	 1.1792340451	-2.010797992	-0.9461170919	-0.267901
H	 0.6618487468	 2.0224187903	 0.1508509912	 0.12377
H	-0.6301029713	 1.6915275097	-1.0066054447	 0.132878
H	-0.9718696544	 1.6811081775	 0.7277447365	 0.132878
H	-0.8561978926	-0.6534383302	-0.1643669408	 0.101091
H	 1.517747926	-0.1858888271	-1.7837834148	 0.098269
H	 3.0389886642	-0.9345413617	 0.6015267474	 0.128561
H	 2.468323928	 0.759731842	 0.4992499866	 0.12423
H	 0.7248465424	-0.2100594719	 2.2398887528	 0.098269
115.01	187.7531	239.5848	278.9113	331.5889	439.6636	450.6802	478.2876	559.1493	675.9778	774.6131	802.5691	821.9956	875.6635	881.4929	887.7743	975.2874	978.2024	1044.5348	1065.9665	1096.5023	1117.9667	1125.6337	1135.1027	1158.3593	1171.9336	1238.0205	1271.4339	1287.81	1331.5146	1380.2296	1388.0957	1416.5658	1479.0991	1497.9784	1502.1172	1897.9208	3039.9116	3068.6899	3089.4411	3106.0948	3113.0284	3123.2995	3125.4009	3155.0257
CC1C2CC1OC(=O)O2	C[C@H]1[C@H]2C[C@@H]1OC(=O)O2	
InChI=1S/C6H8O3/c1-3-4-2-5(3)9-6(7)8-4/h3-5H,2H2,1H3	InChI=1S/C6H8O3/c1-3-4-2-5(3)9-6(7)8-4/h3-5H,2H2,1H3/t3-,4+,5-
