21
gdb 83339	2.08277	1.65508	1.52644	2.0798	78.05	-0.2333	0.0719	0.3052	1056.039	0.182101	-424.210415	-424.201552	-424.200608	-424.243077	34.919	
C	-0.1204998311	 1.6222929347	 0.0167632003	-0.443988
C	 0.0025064259	 0.1088598303	-0.0186424166	-0.00292
C	 1.1690750063	-0.6109901126	-0.7795922856	-0.154608
C	 2.3936786666	-0.0063041973	-0.0928029581	-0.091929
O	 1.9566428433	-0.0449790365	 1.286486806	-0.317298
C	 0.6491681347	-0.6504407778	 1.1825884164	 0.423251
C	 0.0192957659	-0.8270618242	 2.532548835	-0.50642
C	 0.9275706685	-1.8161823451	 0.1945436595	 0.096855
O	-0.2183968516	-2.6006821097	-0.0359044295	-0.445109
H	 0.764374467	 2.0914609031	 0.4544084545	 0.131069
H	-0.2660386925	 2.0319046646	-0.9891727019	 0.111208
H	-0.9845367876	 1.9239086619	 0.61884404	 0.116034
H	-0.9420708216	-0.364419814	-0.2881138254	 0.090149
H	 1.1918015399	-0.7237689882	-1.8644656899	 0.060634
H	 3.3026426303	-0.6080905948	-0.2158126745	 0.097128
H	 2.6122126019	 1.0245254048	-0.3939540389	 0.100259
H	-0.1963800599	 0.1426035723	 2.9921334957	 0.124099
H	-0.9145345422	-1.3872056076	 2.4363492707	 0.133349
H	 0.6905916658	-1.3774946483	 3.1989958852	 0.125886
H	 1.8046649883	-2.4331138572	 0.4339872831	 0.065991
H	-0.0702390677	-3.1269302283	-0.8278148759	 0.286361
172.0687	193.1286	195.3092	215.5088	247.5589	267.1587	291.3694	327.3468	381.5167	432.3816	517.763	625.4722	638.4711	691.2642	754.5484	809.9054	885.9636	898.9239	931.8435	946.7719	976.5875	1015.1897	1037.8559	1070.5517	1101.2106	1128.5176	1142.9652	1153.8717	1176.2871	1203.4314	1210.198	1234.9305	1274.1591	1287.0337	1340.165	1363.4772	1388.9859	1405.9887	1414.9509	1433.4432	1482.3855	1490.2002	1493.3157	1504.5812	1536.1814	3009.2335	3020.9131	3033.4709	3041.2793	3058.1822	3089.457	3104.3351	3108.6807	3109.6897	3124.3847	3126.3823	3816.3542
CC1C2COC1(C)C2O	C[C@H]1[C@H]2CO[C@]1(C)[C@H]2O	
InChI=1S/C7H12O2/c1-4-5-3-9-7(4,2)6(5)8/h4-6,8H,3H2,1-2H3	InChI=1S/C7H12O2/c1-4-5-3-9-7(4,2)6(5)8/h4-6,8H,3H2,1-2H3/t4-,5+,6-,7-/m0/s1
