16
gdb 125865	3.36681	1.64798	1.17488	5.1725	76.72	-0.2437	-0.0333	0.2104	1013.8012	0.127093	-396.935509	-396.928591	-396.927647	-396.966834	26.893	
C	-0.0905394112	 1.591982098	-0.0265270144	-0.387561
C	 0.0026447855	 0.0553032814	 0.0015984577	-0.215813
C	 0.8607911699	-0.5271040719	-1.1213551432	-0.116931
C	 1.8602074369	-1.2631936474	-0.6226000354	-0.027849
N	 1.7600903645	-1.2460554728	 0.7823823917	 0.058228
N	 2.4644208868	-1.783072098	 1.7904074356	-0.175832
N	 1.8683411411	-1.3892212303	 2.8888077874	-0.19069
C	 0.7891988266	-0.603948384	 2.5794453751	-0.220759
C	 0.7065752485	-0.5022488832	 1.2115881315	 0.36226
H	 0.9036011619	 2.041777682	 0.0388586446	 0.135302
H	-0.5637454191	 1.9301379429	-0.9531148559	 0.123783
H	-0.6885876001	 1.9552589628	 0.8139082682	 0.131216
H	-1.0146960364	-0.3543931695	-0.0687412565	 0.121924
H	 0.6720819868	-0.3480279167	-2.1702374091	 0.122528
H	 2.6543187862	-1.8158407738	-1.0995038661	 0.156514
H	 0.1678112223	-0.1830678594	 3.352393829	 0.123681
135.793	158.5797	246.3197	285.3129	366.6655	467.0679	552.7259	654.621	694.5754	701.6123	720.4885	776.7431	829.7265	842.9342	915.4957	917.8394	991.7167	1026.7851	1075.7509	1086.4066	1098.1302	1118.8818	1176.1631	1244.4985	1253.4181	1278.9682	1299.0256	1327.7479	1387.0791	1409.8372	1438.0398	1495.8865	1496.2276	1575.183	1649.3537	3014.9422	3043.5429	3116.7112	3125.9257	3238.6461	3275.7745	3276.3189
CC1C=CN2N=NC=C12	C[C@H]1C=Cn2nncc12	
InChI=1S/C6H7N3/c1-5-2-3-9-6(5)4-7-8-9/h2-5H,1H3	InChI=1S/C6H7N3/c1-5-2-3-9-6(5)4-7-8-9/h2-5H,1H3/t5-/m0/s1
