16
gdb 84976	2.9795	1.26247	0.93524	4.2846	82.4	-0.2461	-0.0466	0.1996	1229.9957	0.123533	-400.77219	-400.763549	-400.762605	-400.805601	32.172	
C	-0.0819215839	 1.5931694883	-0.0083114632	-0.391098
C	 0.0120906718	 0.059628357	-0.0011265683	-0.001143
N	 0.7951905012	-0.4737294229	-1.0962719092	-0.336873
C	 1.8563973729	-1.2556998034	-0.7055788061	 0.330675
O	 2.6469044691	-1.8231941694	-1.4228971119	-0.367935
C	 1.8020114369	-1.236388904	 0.8081963475	 0.063257
C	 0.7510585123	-0.4929731552	 1.1896961008	-0.221053
C	 2.7426671801	-1.9178769583	 1.6093621179	 0.265919
C	 3.5545656998	-2.5064236013	 2.275179469	-0.405555
H	 0.9162453978	 2.0376632688	 0.0261482041	 0.136061
H	-0.5892207941	 1.942954374	-0.9128149454	 0.123123
H	-0.6550158496	 1.944073469	 0.8554307636	 0.12596
H	-1.0104298638	-0.3516325881	-0.0186976215	 0.105646
H	 0.5775170271	-0.3346486003	-2.06860277	 0.254833
H	 0.4439896271	-0.2839030456	 2.2058488037	 0.121237
H	 4.2738010453	-3.0281799684	 2.8566303191	 0.196944
78.7085	110.3622	136.1696	248.5078	255.9941	334.6022	397.4834	401.6001	488.6056	509.1529	539.6245	615.5054	622.0479	638.7003	714.9869	774.6916	795.8683	878.0189	904.1469	971.932	1042.6606	1092.4111	1135.4621	1158.279	1223.9178	1288.7624	1316.1861	1363.8432	1401.6031	1420.3076	1493.2668	1495.807	1663.6807	1832.0262	2234.685	2971.9308	3039.4772	3110.6223	3126.6295	3226.102	3503.2054	3667.1871
CC1NC(=O)C(=C1)C#C	C[C@H]1NC(=O)C(=C1)C#C	
InChI=1S/C7H7NO/c1-3-6-4-5(2)8-7(6)9/h1,4-5H,2H3,(H,8,9)	InChI=1S/C7H7NO/c1-3-6-4-5(2)8-7(6)9/h1,4-5H,2H3,(H,8,9)/t5-/m1/s1
