16
gdb 66264	2.04191	1.63911	1.40192	4.1096	69.05	-0.2668	-0.0558	0.211	1022.5732	0.123406	-437.91572	-437.907163	-437.906219	-437.94906	30.908	
C	-0.1695215668	 1.5853422186	 0.006401234	-0.439533
C	 0.012408214	 0.0631704572	-0.0400329088	-0.021766
C	 0.8708915315	-0.4880463077	-1.2026920073	-0.116188
O	 1.4112951392	-1.7154530322	-0.7310904625	-0.241948
C	 1.7805228536	-1.5371969333	 0.6204342224	-0.182355
C	 0.8630722312	-0.4478545765	 1.1735636843	 0.35794
O	 0.8258525872	-0.0135375638	 2.286846819	-0.283086
C	-1.2781292587	-0.6268521663	 0.0049048855	 0.278415
N	-2.2997792882	-1.1668650767	 0.0445915449	-0.329535
H	 0.803198314	 2.0793353789	-0.0689097085	 0.130915
H	-0.8041080792	 1.9298425969	-0.813465279	 0.142295
H	-0.6280317582	 1.8735112454	 0.9545794127	 0.162776
H	 0.3036691	-0.6980373479	-2.1099410494	 0.143927
H	 1.6677714583	 0.2369562598	-1.4331496041	 0.105756
H	 1.6616977004	-2.4789128932	 1.1633002208	 0.159406
H	 2.8252922119	-1.2026227593	 0.7286936558	 0.132981
78.3297	132.6287	164.3667	195.2571	226.4693	251.3507	327.8992	419.9607	496.2454	529.8886	582.5463	628.0494	638.0055	719.1653	834.8124	922.8365	961.6207	996.5182	1013.2863	1077.8462	1100.6454	1167.8134	1170.9295	1199.0152	1236.0179	1275.0207	1326.222	1380.9556	1413.11	1471.6814	1488.0581	1492.6286	1509.3074	1877.6787	2348.7645	2979.4152	2985.3247	3052.1623	3097.0826	3127.6667	3130.3883	3141.9741
CC1(COCC1=O)C#N	C[C@]1(COCC1=O)C#N	
InChI=1S/C6H7NO2/c1-6(3-7)4-9-2-5(6)8/h2,4H2,1H3	InChI=1S/C6H7NO2/c1-6(3-7)4-9-2-5(6)8/h2,4H2,1H3/t6-/m1/s1
