19
gdb 36772	4.79437	0.71213	0.64831	1.3653	77.72	-0.2467	0.0278	0.2745	1707.5511	0.15719	-422.952371	-422.942771	-422.941827	-422.988629	33.653	
C	 0.1829026577	-0.7167364957	 0.3809921381	-0.46263
C	-0.00103604	 0.4312672401	 0.0765607387	 0.311241
C	-0.2139468092	 1.8337253751	-0.2925232986	-0.208088
O	 0.9765579938	 2.5341546704	-0.5927793985	-0.238959
C	 1.827933079	 2.7291935095	 0.5221761481	-0.081845
C	 3.0396393179	 3.5034351271	 0.0382467682	 0.138327
C	 2.8683942908	 5.0130279951	-0.2332716799	-0.282361
C	 3.8976379895	 5.1853058057	 0.9021710758	-0.061197
O	 3.9553273729	 3.758434308	 1.1267176688	-0.295148
H	 0.3403759708	-1.7328470731	 0.6472267359	 0.204154
H	-0.8298467432	 1.888571125	-1.1965057409	 0.140316
H	-0.76904997	 2.3410011157	 0.5140330163	 0.119017
H	 1.310869545	 3.2956841757	 1.3145957512	 0.08548
H	 2.1505536804	 1.7695923892	 0.9512671471	 0.113988
H	 3.5228196403	 2.9472040629	-0.7754801427	 0.085414
H	 3.184357265	 5.3563480956	-1.2186631443	 0.113692
H	 1.8691283712	 5.3986820874	-0.0225743947	 0.111832
H	 4.8717733991	 5.5874706131	 0.5977009493	 0.103073
H	 3.556726529	 5.7250577033	 1.7936091118	 0.103696
39.1657	51.721	74.553	122.7687	175.7829	225.2781	308.037	343.4482	400.6659	447.3477	599.2826	619.9917	685.5897	772.4672	806.1769	884.1371	920.2424	939.3805	946.7339	979.5602	1014.4397	1035.2719	1060.8153	1124.3584	1139.0223	1158.3826	1178.1236	1211.3526	1252.3043	1256.5827	1272.0215	1293.0337	1350.8661	1378.5254	1393.5262	1429.3852	1474.7409	1492.0995	1518.0894	1532.4173	2233.8305	2966.1639	2971.1574	3014.4503	3019.606	3033.0348	3056.5077	3068.6261	3083.6863	3139.308	3504.3164
C#CCOCC1CCO1	C#CCOC[C@H]1CCO1	
InChI=1S/C7H10O2/c1-2-4-8-6-7-3-5-9-7/h1,7H,3-6H2	InChI=1S/C7H10O2/c1-2-4-8-6-7-3-5-9-7/h1,7H,3-6H2/t7-/m1/s1
