21
gdb 86312	1.96877	1.68775	1.13632	1.2588	77.75	-0.2492	0.0574	0.3065	1157.2597	0.182119	-424.198716	-424.18963	-424.188685	-424.232308	35.149	
O	 0.8965548784	 0.7916561508	-0.5767459259	-0.430935
C	 0.3267516825	-0.2400359698	 0.1897526987	 0.082236
C	-0.0335335848	 0.0017226889	 1.6794326204	-0.327636
C	-1.2632646864	-0.91743613	 1.4626108984	 0.100835
O	-2.4693873865	-0.661722245	 2.1378616753	-0.428776
C	-1.1406173707	-0.6733048657	-0.0717693122	 0.281313
C	-2.1401352544	 0.3416199696	-0.6972621657	-0.293603
C	-2.8720387712	-0.8533457009	-1.3632750241	-0.200854
C	-1.6156263042	-1.7257394592	-1.0968005746	-0.306716
H	 0.3558585637	 1.580416171	-0.463784598	 0.278546
H	 1.0053075404	-1.0922502093	 0.0803812893	 0.092581
H	 0.6927621979	-0.2563174649	 2.4527423896	 0.106968
H	-0.3543087046	 1.0410611764	 1.830267633	 0.084033
H	-1.0194185667	-1.9597421986	 1.6935737647	 0.092098
H	-2.6699146409	 0.275583042	 2.0491238732	 0.279042
H	-2.7264186881	 0.9810267087	-0.0291813145	 0.076693
H	-1.6407592949	 0.9774121924	-1.4358280066	 0.10122
H	-3.7234492715	-1.1812811812	-0.7622058132	 0.114602
H	-3.1956180236	-0.7287550754	-2.3990033168	 0.096502
H	-0.9511149101	-1.7709162576	-1.9659348963	 0.105377
H	-1.7739342543	-2.7416837424	-0.7231528448	 0.096474
92.8156	100.36	180.3086	228.5167	255.319	264.2375	301.8669	332.611	470.249	488.6206	499.1742	559.947	643.5479	706.7313	782.0163	807.3147	874.5475	878.8281	893.2355	941.5888	965.2193	1030.7931	1037.668	1075.3858	1088.5386	1098.9822	1159.1052	1168.2618	1196.3587	1205.9214	1212.89	1245.034	1256.9557	1270.4207	1278.2508	1297.988	1301.0614	1313.714	1322.97	1424.0566	1448.2017	1469.6741	1477.7495	1479.8853	1501.7662	3024.6949	3033.6059	3042.6809	3054.9939	3062.7313	3064.7991	3080.2059	3091.4667	3111.1208	3122.0446	3809.7097	3814.0977
OC1CC(O)C11CCC1	O[C@H]1C[C@@H](O)C21CCC2	
InChI=1S/C7H12O2/c8-5-4-6(9)7(5)2-1-3-7/h5-6,8-9H,1-4H2	InChI=1S/C7H12O2/c8-5-4-6(9)7(5)2-1-3-7/h5-6,8-9H,1-4H2/t5-,6+
