23
gdb 118289	5.66972	0.53946	0.51384	4.1534	84.69	-0.2763	0.01	0.2862	2167.7289	0.203011	-425.461918	-425.450647	-425.449703	-425.500034	38.893	
C	 0.0448315047	 1.5283642312	 0.0750243508	-0.380113
C	 0.0236802162	-0.0028504512	 0.066070996	-0.177255
C	-1.3997126842	-0.5729333393	 0.0294045214	-0.168488
C	-1.4794430396	-2.1078851561	-0.0661474578	 0.014586
C	-0.9261122005	-2.8168066377	 1.1762961363	-0.403203
C	-2.9304065078	-2.5144388347	-0.333387381	-0.088619
O	-3.020942308	-3.9216448376	-0.5975206037	-0.181499
C	-3.8904665945	-4.6577877277	 0.1166988129	 0.171121
O	-4.0423999489	-5.8297350157	-0.0551194613	-0.276435
H	 1.0692329705	 1.9120892989	 0.1023547288	 0.11488
H	-0.4404918543	 1.9371860709	-0.818209155	 0.115077
H	-0.4830964844	 1.9269102955	 0.9485725138	 0.115066
H	 0.5820008521	-0.3727897817	-0.8039593502	 0.098739
H	 0.553621124	-0.3757734953	 0.950069844	 0.103028
H	-1.9470852116	-0.2371546543	 0.9223589849	 0.09292
H	-1.9264723632	-0.135241381	-0.8302243979	 0.092147
H	-0.8943567669	-2.4287657621	-0.9389285755	 0.091172
H	-1.4656542545	-2.503593898	 2.0789750784	 0.109611
H	-1.0209351862	-3.9017960255	 1.0828506067	 0.13505
H	 0.1323117965	-2.5906058575	 1.327127759	 0.123707
H	-3.5685520721	-2.2562846077	 0.5237822885	 0.105421
H	-3.3199448227	-1.9943857255	-1.2152565985	 0.117743
H	-4.4388187647	-4.0600341877	 0.8718533394	 0.075344
37.503	52.3676	63.7753	102.2402	130.5612	180.636	229.2261	246.0488	270.6163	297.422	335.6923	378.2607	431.5624	522.1481	677.9045	742.5443	837.2086	869.4838	899.1453	924.6806	961.0285	1019.5372	1040.285	1047.3578	1049.6992	1085.0367	1139.8945	1150.419	1187.1764	1215.8658	1264.6924	1292.2167	1307.745	1331.0791	1347.4031	1385.979	1397.2537	1398.7141	1412.148	1417.6091	1436.3953	1479.7834	1493.1969	1496.7037	1498.7824	1502.8089	1508.627	1513.6349	1865.1807	2939.4765	2996.4114	3004.9869	3016.6196	3021.8425	3029.8981	3030.2068	3034.1462	3062.6232	3072.1387	3097.1466	3103.2775	3104.4846	3123.1546
CCCC(C)COC=O	CCC[C@@H](C)COC=O	
InChI=1S/C7H14O2/c1-3-4-7(2)5-9-6-8/h6-7H,3-5H2,1-2H3	InChI=1S/C7H14O2/c1-3-4-7(2)5-9-6-8/h6-7H,3-5H2,1-2H3/t7-/m1/s1
