17
gdb 56996	3.92996	1.13103	1.03632	2.0653	73.62	-0.2486	0.0354	0.284	1175.5952	0.134412	-421.73295	-421.724624	-421.72368	-421.766055	31.948	
O	-0.0117956682	 1.5073991322	-0.197892341	-0.40677
C	 0.0261282355	 0.0949540483	-0.0772406425	-0.087797
C	 0.6639128833	-0.532191363	-1.2435826234	 0.316219
C	 1.2075879698	-1.0408714746	-2.1870425951	-0.453885
C	 0.7334986978	-0.3365672639	 1.2245140556	 0.115498
O	 1.9018214645	 0.4926830889	 1.4934074714	-0.314307
C	 1.4484920074	 0.6968217537	 2.8433191398	 0.108344
C	 0.1658238204	 1.4587718456	 2.8904168416	-0.303364
C	 0.1467976835	-0.0316587496	 2.6031312714	-0.159835
H	 0.8951364205	 1.7994397483	-0.0301601053	 0.292711
H	-1.018631804	-0.2352531311	-0.0195573846	 0.124312
H	 1.679591978	-1.4861695458	-3.0279064056	 0.200043
H	 1.0363687423	-1.3867006992	 1.1464193615	 0.101371
H	 2.1901476913	 0.6339495351	 3.6301224158	 0.110709
H	-0.170191639	 1.7062020803	 3.8932152755	 0.116396
H	-0.0866686226	 2.1777305057	 2.1214759893	 0.138047
H	-0.3770879204	-0.7484631309	 3.2200657958	 0.102306
58.7159	130.3995	181.2813	224.606	273.9765	334.08	444.3106	471.983	489.1765	570.5975	631.0146	668.6488	704.3394	730.9226	777.1635	818.1873	884.7779	941.4521	956.6406	975.2107	999.0079	1030.5577	1046.331	1053.5879	1089.2401	1096.0108	1111.9135	1200.8242	1233.6384	1269.5147	1287.8598	1315.8307	1362.7168	1379.8881	1434.0084	1476.0281	2232.7508	3038.7476	3047.4651	3136.0495	3189.0873	3208.947	3234.406	3502.9531	3755.2523
OC(C#C)C1OC2CC12	O[C@@H](C#C)[C@H]1O[C@H]2C[C@@H]12	
InChI=1S/C7H8O2/c1-2-5(8)7-4-3-6(4)9-7/h1,4-8H,3H2	InChI=1S/C7H8O2/c1-2-5(8)7-4-3-6(4)9-7/h1,4-8H,3H2/t4-,5+,6+,7+/m1/s1
