16
gdb 51268	4.36723	1.17305	0.99776	0.6032	72.56	-0.2088	-0.0146	0.1942	1156.9833	0.126569	-434.094627	-434.087138	-434.086194	-434.126828	28.731	
O	 0.6578593718	 2.3837944665	 1.1350706356	-0.320381
C	 0.2049669353	 1.803639878	 0.169891626	 0.161938
N	 0.8712824745	 0.886886559	-0.5933432304	-0.386601
C	 2.1870381914	 0.4558296559	-0.4269816671	 0.488264
N	 2.7449266627	-0.3466819575	-1.2663887632	-0.362484
C	 4.1107434177	-0.4743540378	-0.8126489166	 0.002241
C	 4.9708542976	 0.772894083	-0.8011271527	-0.305435
C	 4.257030419	 0.3604981606	 0.4650297	-0.023775
N	 2.9213448778	 0.8540413673	 0.6554264863	-0.333768
H	-0.82291872	 1.9676079715	-0.1999714291	 0.10128
H	 0.4109310645	 0.492982722	-1.4009645191	 0.275242
H	 4.579669517	-1.4406852085	-0.9544266128	 0.096205
H	 6.0440500672	 0.6177359713	-0.8153693686	 0.114756
H	 4.6210779626	 1.6470867196	-1.3406758118	 0.113167
H	 4.7987852927	 0.0640157492	 1.3553071619	 0.103811
H	 2.6344661682	 1.6323633	 1.2293451417	 0.275539
73.7528	171.2307	199.9934	285.0588	361.0789	378.4792	468.9199	507.6843	616.8055	631.0558	713.842	739.108	762.956	803.0784	874.9059	911.9294	959.9648	1011.5106	1024.3218	1027.7005	1054.9624	1084.0381	1122.0727	1135.739	1155.9148	1189.5682	1294.459	1324.4581	1367.1455	1435.3086	1460.5582	1481.0878	1520.9502	1680.953	1794.7036	2978.8407	3127.7342	3173.1522	3180.9385	3222.1559	3623.3875	3625.6751
O=CNC1=NC2CC2N1	O=CNC1=N[C@H]2C[C@H]2N1	
InChI=1S/C5H7N3O/c9-2-6-5-7-3-1-4(3)8-5/h2-4H,1H2,(H2,6,7,8,9)	InChI=1S/C5H7N3O/c9-2-6-5-7-3-1-4(3)8-5/h2-4H,1H2,(H2,6,7,8,9)/t3-,4+
