18
gdb 124689	3.77614	0.9776	0.83673	3.3482	73.47	-0.2482	-0.0014	0.2467	1358.2958	0.14852	-435.264508	-435.255652	-435.254708	-435.298944	32.195	
C	 0.0246240443	 1.5990157043	-0.0939364413	-0.401761
C	 0.0952016387	 0.0708586407	-0.0166187016	-0.103077
C	 0.7202069823	-0.5254242377	-1.2980982164	-0.069066
O	-0.0056738549	-0.1902754878	-2.469501977	-0.417634
C	 0.8390359279	-0.4233086442	 1.1882538759	 0.311503
C	 1.671788256	 0.2327617538	 2.0667428805	-0.176871
N	 2.0677269931	-0.7332361238	 2.9297969422	-0.155597
N	 1.5239786572	-1.9235873105	 2.6224746387	-0.113715
N	 0.7827546563	-1.7371995725	 1.5702222105	-0.255103
H	 1.0294695372	 2.036851042	-0.1231267823	 0.111061
H	-0.4896843056	 1.8983569631	-1.0094955285	 0.132966
H	-0.5070830364	 2.021624333	 0.7638358506	 0.113295
H	-0.9270316801	-0.3282577227	 0.0504611672	 0.087252
H	 1.7255346265	-0.1114571207	-1.4386935297	 0.107382
H	 0.8217400631	-1.612166652	-1.179202356	 0.114725
H	-0.8345939541	-0.6793396587	-2.451137976	 0.284345
H	 1.9944423389	 1.2558442391	 2.1526081694	 0.147948
H	 2.6766905496	-0.6605272153	 3.7290160638	 0.282347
36.5515	111.2316	126.6953	222.8127	244.9136	283.7087	312.3725	375.7343	411.4644	477.9749	571.7196	684.7685	720.0947	758.2226	798.3671	884.3474	911.1854	986.841	1010.4851	1047.1105	1059.3263	1071.7923	1114.0619	1118.4607	1134.3956	1219.2596	1252.4609	1290.3379	1330.3939	1340.3817	1367.7624	1390.7847	1404.0599	1416.8523	1486.6788	1494.4599	1506.7597	1507.1737	1587.3158	3003.9581	3017.5316	3033.5002	3072.8321	3098.6958	3131.7304	3290.9914	3659.0018	3815.2589
CC(CO)C1=CNN=N1	C[C@@H](CO)c1c[nH]nn1	
InChI=1S/C5H9N3O/c1-4(3-9)5-2-6-8-7-5/h2,4,9H,3H2,1H3,(H,6,7,8)	InChI=1S/C5H9N3O/c1-4(3-9)5-2-6-8-7-5/h2,4,9H,3H2,1H3,(H,6,7,8)/t4-/m0/s1
