18
gdb 126473	5.20248	0.87177	0.78952	1.9132	76.57	-0.2248	0.0143	0.2391	1485.2394	0.146734	-439.083927	-439.074749	-439.073805	-439.118755	32.445	
C	 0.0591304529	 1.3999038345	-0.484448261	-0.375444
C	-0.0825331834	 0.0923941606	 0.3108731777	-0.288782
C	-1.4421467185	-0.5257937048	 0.1815372616	 0.424852
N	-2.2122770385	-0.6132191235	 1.2437144244	-0.233718
O	-3.4075469347	-1.2224836014	 0.7833157044	-0.230923
C	-3.2793445833	-1.4627632262	-0.5251601074	 0.564822
O	-4.2855334422	-2.0374182681	-1.172262002	-0.266447
C	-5.4536963598	-2.3636150453	-0.4090076252	-0.249993
C	-2.0637067344	-1.0505840196	-0.9850298834	-0.50599
H	 1.0647052008	 1.8141346735	-0.3661267308	 0.117594
H	-0.1150447955	 1.2387019271	-1.5528122631	 0.120751
H	-0.6608362332	 2.1465570408	-0.1367785823	 0.130539
H	 0.6697831476	-0.6284371773	-0.0316710311	 0.113988
H	 0.1061409348	 0.2736803114	 1.3730289727	 0.126566
H	-6.145624731	-2.8184542844	-1.1173639282	 0.143024
H	-5.2126868668	-3.070622525	 0.3898001249	 0.146507
H	-5.8976016838	-1.4645001632	 0.0275328887	 0.146339
H	-1.6828447208	-1.1182558991	-1.9887950698	 0.116314
52.6746	71.3098	130.8054	167.7723	185.7415	234.3765	270.9439	353.8148	438.8712	499.3499	608.0574	683.1571	718.0652	736.5043	768.7641	797.3276	897.6368	966.3776	990.4449	1020.695	1058.3232	1075.5948	1097.2039	1176.5734	1188.1729	1211.1166	1280.2844	1339.4988	1353.1285	1409.1791	1461.9584	1475.5552	1480.0568	1486.3615	1497.7215	1499.6338	1509.1724	1548.2021	1661.6027	3036.4791	3040.6434	3044.9586	3088.2313	3113.0665	3118.0209	3118.5091	3160.0229	3286.9012
CCC1=NOC(OC)=C1	CCc1noc(OC)c1	
InChI=1S/C6H9NO2/c1-3-5-4-6(8-2)9-7-5/h4H,3H2,1-2H3	InChI=1S/C6H9NO2/c1-3-5-4-6(8-2)9-7-5/h4H,3H2,1-2H3
