17
gdb 23279	2.85966	1.4709	1.17373	1.5542	71.7	-0.2321	-0.0127	0.2193	1060.4081	0.136576	-455.075664	-455.067666	-455.066722	-455.108155	30.991	
O	-0.2324476631	 1.2726728906	 0.285036168	-0.406451
N	-0.0274759561	-0.1183033001	 0.126214847	-0.247637
C	-1.141266753	-0.711521339	-0.0433644058	 0.423656
C	-1.2712209383	-2.176890676	-0.2007798153	-0.126496
C	-2.2224150146	-2.815425832	 0.7648104307	-0.24665
N	-2.6643985801	-2.4951482697	-0.5900494974	-0.105619
C	-3.4013030573	-1.2125987705	-0.6720440123	-0.177713
C	-2.5267452001	-0.0785529259	-0.1006553809	-0.008218
O	-2.9792458741	 0.2998225416	 1.1961046411	-0.430412
H	 0.6676741599	 1.6035395124	 0.3732027967	 0.311556
H	-0.4655239736	-2.7467484503	-0.649563771	 0.109733
H	-2.1175259303	-3.8761030189	 0.9742447746	 0.122653
H	-2.5864854431	-2.2066427315	 1.5882502367	 0.14044
H	-3.6116304	-1.0260896831	-1.7292317453	 0.116018
H	-4.3518281167	-1.279792344	-0.1370165753	 0.126981
H	-2.5126718416	 0.7917094385	-0.7676728687	 0.100925
H	-2.3557136079	 0.9625666178	 1.5177524873	 0.297235
78.5115	166.5419	195.6658	286.1585	335.9875	392.3187	404.5357	434.2296	439.7795	499.9621	643.925	680.1537	709.471	778.1272	811.7475	872.6548	917.4477	949.5317	982.3774	1013.2407	1024.7111	1065.3028	1112.4315	1118.2099	1171.9643	1226.5656	1230.1399	1257.4539	1271.5323	1319.4891	1327.1604	1363.0491	1406.9903	1420.9684	1483.8737	1501.7884	1748.0904	3030.0763	3061.0879	3109.0825	3113.4179	3178.0422	3203.6003	3790.0745	3822.5404
ON=C1C2CN2CC1O	ON=C1[C@H]2CN2C[C@H]1O	
InChI=1S/C5H8N2O2/c8-4-2-7-1-3(7)5(4)6-9/h3-4,8-9H,1-2H2	InChI=1S/C5H8N2O2/c8-4-2-7-1-3(7)5(4)6-9/h3-4,8-9H,1-2H2/t3-,4-,7?/m1/s1
