16
gdb 35112	3.19117	1.47908	1.15039	2.1994	74.22	-0.255	0.016	0.271	1046.5699	0.124868	-400.700617	-400.693044	-400.692099	-400.732941	29.241	
C	-0.323332019	-1.2293444543	-0.708069947	-0.466428
C	-0.187632267	-0.1119162591	-0.2887773518	 0.35824
C	 0.0108248634	 1.2578001702	 0.198581275	-0.183707
N	-0.5447165815	 1.3900255843	 1.5503820323	-0.263228
C	 0.1189188532	 1.9766777683	 2.4509896393	 0.125491
O	 1.3607564276	 2.5157235048	 2.4193008116	-0.220295
C	 2.1001530588	 2.3701350054	 1.2279822074	 0.099706
C	 2.5572464164	 0.999106538	 0.8199712113	-0.314112
C	 1.4655362708	 1.7034393094	 0.0451491733	-0.072002
H	-0.4567647046	-2.2174383083	-1.073510278	 0.197031
H	-0.5950299281	 1.9214831627	-0.4347621628	 0.125891
H	-0.3056504925	 2.1094778763	 3.4440393133	 0.131473
H	 2.7526400549	 3.2249756021	 1.097351697	 0.114666
H	 3.5353767438	 0.8949886969	 0.3647858113	 0.122489
H	 2.2584561556	 0.1704484083	 1.453686937	 0.140433
H	 1.7192618682	 2.0857033148	-0.9379523591	 0.10435
63.3992	138.3364	206.7541	292.1808	381.2037	423.5291	478.7056	560.5025	579.661	625.0924	651.135	655.0766	762.2899	807.9283	837.1512	863.4862	933.5554	966.0422	1010.3523	1013.434	1045.3103	1058.4636	1106.519	1123.412	1147.3112	1200.8573	1238.2737	1305.5552	1318.7421	1361.3298	1398.4662	1423.7665	1482.6705	1731.5628	2240.3754	3000.1416	3137.5477	3161.218	3163.9977	3184.1448	3227.7703	3503.5083
C#CC1N=COC2CC12	C#C[C@H]1N=CO[C@H]2C[C@@H]12	
InChI=1S/C7H7NO/c1-2-6-5-3-7(5)9-4-8-6/h1,4-7H,3H2	InChI=1S/C7H7NO/c1-2-6-5-3-7(5)9-4-8-6/h1,4-7H,3H2/t5-,6+,7-/m0/s1
