17
gdb 72449	2.53512	2.21023	1.58919	1.7992	65.85	-0.2548	0.0863	0.3411	880.0248	0.136741	-458.943533	-458.936702	-458.935758	-458.974358	27.933	
C	 0.042030786	 1.4760491827	 0.0210165462	-0.494204
C	-0.0278521495	-0.0236728832	 0.0272041175	 0.462007
O	 0.6462322318	-0.5878276062	-1.1180726518	-0.308176
C	 1.0488924671	-1.9020205178	-0.6963038023	-0.091234
C	 0.4648607941	-1.9674141559	 0.738207219	-0.034243
O	 0.6354284081	-0.6047948548	 1.132142206	-0.256662
C	-1.0566911708	-2.0680550032	 0.5457927013	 0.033408
O	-1.8096538348	-1.1624209732	 1.3495616873	-0.242273
C	-1.3989580083	-0.7360009613	 0.047793705	-0.021609
H	 1.0844322118	 1.8005793936	 0.0478884039	 0.139336
H	-0.4263056176	 1.8660541285	-0.88603505	 0.132995
H	-0.4846482062	 1.8743997032	 0.8914973891	 0.142871
H	 0.6354302994	-2.6616066603	-1.3693451899	 0.106155
H	 2.1416521268	-1.9714992846	-0.6948277696	 0.113646
H	 0.9495780474	-2.6400045585	 1.4431547337	 0.098747
H	-1.5398804912	-2.9882762354	 0.2343928358	 0.108455
H	-2.1694742641	-0.5196878335	-0.6838903914	 0.11078
194.3532	221.0543	287.9473	293.5074	369.6747	420.897	505.7293	617.205	664.4554	691.9453	815.4032	828.5911	845.1172	867.9442	893.7969	904.6869	924.2091	932.2901	990.2024	1010.7726	1046.8744	1049.2185	1097.6785	1127.7069	1181.508	1194.9763	1230.6538	1257.1902	1280.3297	1310.244	1330.1117	1354.291	1409.8173	1434.646	1480.8989	1486.4868	1517.1076	3033.6752	3057.8692	3079.9437	3136.1783	3142.106	3145.639	3171.292	3186.1188
CC12OCC(O1)C1OC21	C[C@@]12OC[C@@H](O1)[C@H]1O[C@@H]21	
InChI=1S/C6H8O3/c1-6-5-4(8-5)3(9-6)2-7-6/h3-5H,2H2,1H3	InChI=1S/C6H8O3/c1-6-5-4(8-5)3(9-6)2-7-6/h3-5H,2H2,1H3/t3-,4-,5-,6-/m1/s1
