19
gdb 64395	2.22641	1.53152	1.13676	1.9151	76.65	-0.248	0.0472	0.2952	1136.5307	0.157593	-422.993592	-422.984393	-422.983449	-423.027582	35.137	
C	-0.0906015128	 1.5665859109	-0.1780109538	-0.450581
C	-0.0007677897	 0.0505128767	-0.0326728128	 0.357664
O	-1.3048141971	-0.5199536548	 0.0856424723	-0.470191
C	 0.793145951	-0.6168108753	-1.1841238543	-0.113191
O	 1.4266227117	-1.7542575872	-0.6313833066	-0.237732
C	 1.9151358064	-1.3307845802	 0.6252818093	-0.102754
C	 0.7748115325	-0.4690923735	 1.2344139338	-0.210729
C	 1.2498996963	 0.536657129	 2.1667341139	 0.329251
C	 1.670976551	 1.3547676857	 2.9410530082	-0.481177
H	 0.8983787837	 2.0316793541	-0.1730076622	 0.129144
H	-0.5802142647	 1.8263442027	-1.1251205088	 0.102857
H	-0.6731870868	 1.9928260943	 0.6418206517	 0.136831
H	-1.8384017236	-0.1967049677	-0.6485136782	 0.277075
H	 0.1404056437	-0.9444801205	-1.9975657977	 0.102558
H	 1.5418289003	 0.0864437232	-1.5870151357	 0.083689
H	 2.1511007317	-2.2136744474	 1.2222615933	 0.121539
H	 2.8262648757	-0.7217110366	 0.51359463	 0.096969
H	 0.0690221033	-1.1305692043	 1.7452980771	 0.131765
H	 2.0347335674	 2.0743508209	 3.6319987204	 0.197014
37.4698	148.5693	185.5582	257.4158	261.0572	287.3191	324.8452	363.2593	406.1333	411.4341	508.9946	546.5602	583.9456	624.7651	643.8019	646.0758	763.7254	873.4187	947.2094	960.367	978.5668	1022.9754	1049.3459	1054.5394	1112.9471	1124.3252	1158.847	1205.0112	1232.3134	1271.2262	1304.9304	1322.628	1349.3675	1368.1651	1404.8112	1416.7636	1488.7934	1489.9604	1494.8316	1515.7573	2234.9901	2961.1958	2981.4543	3029.01	3067.8365	3093.1688	3103.5899	3113.7326	3134.2427	3503.425	3804.4826
CC1(O)COCC1C#C	C[C@@]1(O)COC[C@H]1C#C	
InChI=1S/C7H10O2/c1-3-6-4-9-5-7(6,2)8/h1,6,8H,4-5H2,2H3	InChI=1S/C7H10O2/c1-3-6-4-9-5-7(6,2)8/h1,6,8H,4-5H2,2H3/t6-,7-/m1/s1
