20
gdb 118929	2.48006	1.1615	1.06176	1.6247	76.91	-0.2504	0.0208	0.2712	1283.1328	0.168934	-440.279942	-440.270125	-440.269181	-440.315115	35.405	
C	-0.0911871589	 1.4965316402	 0.1303610283	-0.382998
C	-0.0040266532	-0.0094108789	-0.0486201502	-0.067502
O	 0.7980109386	-0.5231867846	 1.0171299987	-0.299086
C	 0.8055501872	-1.9219728508	 1.1706080831	 0.276736
C	 1.4040353257	-2.6730938481	-0.013203565	-0.460991
C	 1.3557117129	-2.2913446735	 2.5679825951	-0.122724
O	 0.0612582534	-2.8656914033	 2.9389887224	-0.254976
C	-0.4938978428	-2.5171347386	 1.7293213611	 0.399696
N	-1.6619994069	-2.6526902675	 1.2922003099	-0.552826
H	 0.9068598946	 1.9445148085	 0.1233294172	 0.123641
H	-0.6756887499	 1.9398250998	-0.681382243	 0.116833
H	-0.5718044222	 1.7443419729	 1.080868206	 0.127186
H	-0.9996074744	-0.4685204705	-0.0208433128	 0.133475
H	 0.453473864	-0.2509190025	-1.0190859409	 0.090798
H	 2.3943582211	-2.2703708449	-0.2478155572	 0.12688
H	 1.5015985401	-3.7380111995	 0.2165227428	 0.127592
H	 0.7671582721	-2.5831656424	-0.8965198729	 0.142773
H	 2.1444097904	-3.0456562803	 2.6061779566	 0.116922
H	 1.5970540179	-1.4267018516	 3.1880427243	 0.130376
H	-2.2752783296	-3.0850466642	 1.9863807166	 0.228195
53.2413	89.7065	115.4423	171.7386	206.4365	229.8874	248.6482	307.6601	335.9456	390.5732	420.2139	531.1704	688.6792	716.999	759.3626	825.2526	860.9088	879.4172	909.9553	950.0837	970.4307	986.4951	1021.0468	1086.7082	1127.9209	1153.531	1170.9822	1188.4536	1228.9629	1246.2222	1251.0515	1306.1119	1369.7399	1401.4431	1404.1515	1430.613	1483.0137	1483.7014	1493.5736	1501.3502	1505.9647	1529.3378	1816.7011	2996.3223	3043.1828	3044.0862	3057.742	3072.1938	3117.4375	3118.5469	3122.2444	3126.597	3142.3296	3463.8229
CCOC1(C)COC1=N	CCO[C@@]1(C)CO[C]1[NH]	
InChI=1S/C6H11NO2/c1-3-9-6(2)4-8-5(6)7/h7H,3-4H2,1-2H3	InChI=1S/C6H11NO2/c1-3-9-6(2)4-8-5(6)7/h7H,3-4H2,1-2H3/t6-/m0/s1
