19
gdb 35258	2.94726	1.15555	0.93337	3.06	81.21	-0.2543	0.0134	0.2677	1285.3221	0.159849	-382.040958	-382.032436	-382.031491	-382.07494	31.658	
N	-0.294977921	-1.2127432551	 0.3944337191	-0.339831
C	-0.1916329169	-0.067749832	 0.2637190207	 0.28674
C	-0.0733935997	 1.3565642418	 0.0620709993	-0.144691
C	 0.5308205661	 2.1968576343	 1.1484283905	-0.243699
N	 1.2437170786	 1.9935342833	-0.0988071016	-0.085029
C	 2.4272479586	 1.1456687097	-0.0632218805	 0.082146
C	 2.9234500107	 0.5912247542	-1.421210906	-0.238754
C	 4.3738174534	 0.9183372989	-0.968873451	-0.21417
C	 3.7805805726	 1.8829181784	 0.0957116443	-0.242178
H	-0.8566981947	 1.7752614678	-0.5632223003	 0.139762
H	 0.1350757624	 3.193125826	 1.3227140286	 0.133158
H	 0.8786182281	 1.6699770859	 2.0352031854	 0.134983
H	 2.3337317672	 0.336166485	 0.6762830399	 0.082504
H	 2.6738029295	-0.4427879419	-1.6659318313	 0.112765
H	 2.5986375333	 1.2441436018	-2.2360059955	 0.111604
H	 4.8634975188	 0.0550557661	-0.5107768914	 0.109028
H	 5.0483885038	 1.3461021388	-1.7125534362	 0.104187
H	 3.700015451	 2.904331017	-0.2858443755	 0.112927
H	 4.2350534284	 1.9053987202	 1.0887384914	 0.098547
50.4182	95.9734	136.1997	175.6711	242.6179	312.1128	386.114	437.2708	554.8751	592.1987	648.8299	734.6048	786.4651	793.8541	859.2051	905.4264	927.5074	935.1193	956.2856	985.4378	1020.2258	1065.1108	1080.4523	1117.35	1122.5841	1142.405	1177.1912	1202.2034	1245.5396	1252.27	1260.4934	1278.6147	1296.0749	1318.3745	1364.1693	1391.2811	1474.5735	1485.494	1501.9895	1508.9827	2348.6314	2986.7898	3061.7313	3065.6905	3069.0345	3101.7604	3110.5911	3121.0003	3132.0711	3151.7946	3195.142
N#CC1CN1C1CCC1	N#C[C@H]1CN1C1CCC1	
InChI=1S/C7H10N2/c8-4-7-5-9(7)6-2-1-3-6/h6-7H,1-3,5H2	InChI=1S/C7H10N2/c8-4-7-5-9(7)6-2-1-3-6/h6-7H,1-3,5H2/t7-,9?/m0/s1
