21
gdb 86206	2.45005	1.29122	0.99953	2.0847	79.86	-0.2485	0.0098	0.2583	1253.7078	0.182879	-424.238125	-424.228913	-424.227969	-424.271604	35.885	
C	-0.1233844104	 1.5682130971	 0.0110392737	-0.412135
C	 0.0284965129	 0.0347403939	 0.0153454442	-0.038129
C	 0.7036694529	-0.4525102402	-1.2442031637	-0.066846
C	 1.9265223771	-0.9817926998	-1.287900039	-0.104959
C	 2.8156137343	-1.1548667783	-0.0824331815	 0.093969
O	 4.1741683084	-0.8455582109	-0.3875716919	-0.436457
C	 2.2909724366	-0.3479217731	 1.1138872347	-0.26339
C	 0.7740543805	-0.5030066225	 1.261015684	 0.110234
O	 0.2857005167	 0.05256324	 2.4745793928	-0.44214
H	 0.8483434389	 2.0739867934	 0.0183640967	 0.112319
H	-0.6529139905	 1.8994561378	-0.8874998053	 0.119572
H	-0.7005662107	 1.9006104173	 0.8787828651	 0.120911
H	-0.9883329365	-0.3803989684	 0.0411436471	 0.084921
H	 0.1312064181	-0.354232377	-2.1649363748	 0.090425
H	 2.3507215399	-1.3232082516	-2.2293689255	 0.093658
H	 2.8468432649	-2.2185504656	 0.191067026	 0.101083
H	 4.1927339365	 0.0572974402	-0.724709024	 0.274191
H	 2.7896861244	-0.6638596026	 2.0344554929	 0.110705
H	 2.5424170799	 0.7110501173	 0.9553605207	 0.080345
H	 0.5463687724	-1.573035797	 1.343008006	 0.092277
H	 0.6007809637	 0.9605117397	 2.5333485217	 0.279446
81.1733	158.8598	214.4337	230.3545	271.7022	294.0553	310.6672	338.5006	373.7826	430.6283	437.7338	479.6874	590.145	595.837	703.7878	771.5574	797.1038	876.738	926.1112	979.7623	999.4067	1013.7918	1051.7343	1065.358	1081.5641	1096.177	1109.7219	1149.5698	1171.723	1215.2135	1248.5651	1283.2078	1313.294	1341.7539	1343.4245	1363.3186	1380.0562	1393.9501	1407.4638	1426.6575	1434.7972	1488.2505	1502.2126	1507.7662	1713.7481	3000.7222	3007.7772	3015.9411	3034.262	3038.5283	3091.5181	3101.4467	3111.9628	3135.5603	3164.122	3795.5217	3811.8853
CC1C=CC(O)CC1O	C[C@H]1C=C[C@@H](O)C[C@H]1O	
InChI=1S/C7H12O2/c1-5-2-3-6(8)4-7(5)9/h2-3,5-9H,4H2,1H3	InChI=1S/C7H12O2/c1-5-2-3-6(8)4-7(5)9/h2-3,5-9H,4H2,1H3/t5-,6+,7+/m0/s1
