14
gdb 28629	5.14561	1.03295	0.86026	2.9093	76.03	-0.2519	-0.0615	0.1904	1235.0542	0.102825	-436.771383	-436.764237	-436.763292	-436.803195	26.879	
O	 0.0788571488	 1.3366562763	 0.0952941586	-0.403108
C	 0.0648800008	-0.0043727573	 0.0629075382	 0.446851
N	 0.0965445284	-0.582865051	-1.1385794397	-0.362761
C	 0.0829690226	-1.9128459063	-1.1804455547	-0.041033
C	 0.0377621539	-2.7224313626	-0.0413742583	 0.136835
C	 0.0249113694	-4.1905816535	-0.1550762939	 0.088527
O	 0.0507069006	-4.8053089704	-1.1971034294	-0.273362
C	 0.0052878824	-2.0854820731	 1.2070961947	-0.14653
C	 0.0185459778	-0.7070846818	 1.2751873554	-0.206527
H	 0.1114128348	 1.6287705833	-0.8275380078	 0.305305
H	 0.1088784152	-2.3786573208	-2.1611934285	 0.145546
H	-0.0119875161	-4.7223988684	 0.8233579019	 0.069301
H	-0.0301828809	-2.6802579638	 2.1158158125	 0.119275
H	-0.0051440177	-0.1659651204	 2.2123594211	 0.121682
102.3168	183.102	194.1488	325.8783	392.8671	430.4762	453.7893	519.2804	589.5107	622.2577	654.8373	788.0876	811.7981	860.4119	884.6183	982.8707	997.4524	1029.975	1045.9162	1142.5238	1188.08	1232.3295	1317.5408	1348.2003	1368.2475	1422.3739	1464.3168	1523.8786	1625.7637	1641.4625	1795.8565	2867.666	3172.1196	3183.6074	3217.8689	3753.6543
OC1=NC=C(C=O)C=C1	Oc1ncc(C=O)cc1	
InChI=1S/C6H5NO2/c8-4-5-1-2-6(9)7-3-5/h1-4H,(H,7,9)	InChI=1S/C6H5NO2/c8-4-5-1-2-6(9)7-3-5/h1-4H,(H,7,9)
