20
gdb 59378	4.46176	0.80017	0.72218	4.4649	80.33	-0.2772	0.0287	0.3058	1556.7888	0.170299	-403.15676	-403.147194	-403.14625	-403.191546	35.216	
C	 0.3529090508	 1.3807631616	-0.3208504106	-0.408998
C	 0.0084002432	-0.0881747215	-0.0741481373	 0.130144
O	 0.9039670442	-0.679256787	 0.8632801808	-0.429873
C	-1.4466300859	-0.2838987176	 0.3650488321	-0.008072
C	-2.4983492328	-0.1484866522	-0.7756380632	-0.252307
C	-2.5843465201	-1.7077450664	-0.8467179802	-0.127912
C	-1.8532936473	-1.773842275	 0.5337495529	-0.248074
C	-3.9021984871	-2.3086769646	-0.9510714585	 0.260496
N	-4.9591867658	-2.7738404002	-1.0160261303	-0.327581
H	 1.3971520137	 1.4775580527	-0.6288593402	 0.129807
H	-0.2797559948	 1.8207065341	-1.0979703196	 0.122108
H	 0.2095670253	 1.9677554539	 0.595247411	 0.109446
H	 0.1791968627	-0.655070182	-0.9994620157	 0.086661
H	 0.8525235115	-0.1701016947	 1.6802812794	 0.27798
H	-1.6385117562	 0.3466442856	 1.2404894681	 0.066761
H	-3.4361228961	 0.2934572915	-0.4349138633	 0.127038
H	-2.1863436881	 0.353890258	-1.6941077646	 0.11436
H	-1.9546967374	-2.1034451115	-1.6479053695	 0.125323
H	-1.0361198098	-2.4909273046	 0.6183890484	 0.131464
H	-2.55651969	-1.9313710003	 1.3533456202	 0.121228
56.1073	88.5988	127.7099	205.4473	226.9974	235.6844	286.5775	320.3254	358.4748	458.3148	474.0784	548.1836	552.1453	643.1205	793.4571	827.1911	873.6837	915.4038	945.8676	967.9986	991.0265	1010.5747	1068.5963	1075.4749	1086.7304	1124.7401	1151.755	1204.7002	1232.8261	1244.872	1264.9494	1279.0353	1289.8321	1327.6222	1352.0099	1398.0808	1404.4488	1419.5274	1477.2946	1490.8688	1494.1739	1497.6703	2351.7002	3016.8103	3026.5036	3042.4784	3072.4914	3076.0905	3085.0293	3096.8224	3122.3174	3131.3375	3144.3661	3794.3282
CC(O)C1CC(C1)C#N	C[C@@H](O)[C@H]1C[C@@H](C1)C#N	
InChI=1S/C7H11NO/c1-5(9)7-2-6(3-7)4-8/h5-7,9H,2-3H2,1H3	InChI=1S/C7H11NO/c1-5(9)7-2-6(3-7)4-8/h5-7,9H,2-3H2,1H3/t5-,6-,7-/m1/s1
