14
gdb 130713	3.37461	1.67949	1.14015	3.5542	62.46	-0.2153	0.0466	0.262	981.2539	0.10417	-470.038969	-470.031772	-470.030828	-470.07118	25.828	
O	 0.0010819829	-0.0478932712	-0.2072387123	-0.420677
C	 0.0060588488	 1.1554174913	-0.0791484386	 0.449427
N	-1.0373947861	 2.0564000737	-0.0113707526	-0.3227
N	-0.6651089757	 3.3994487905	 0.1739413188	-0.355244
C	 0.6169795694	 3.2949952039	 0.2019977084	 0.52954
O	 1.583584292	 4.2002707861	 0.402692063	-0.263213
C	 2.8437971649	 3.510653035	 0.1789294926	-0.105296
C	 2.533218468	 1.9830264367	 0.2213087269	-0.20226
N	 1.1019726628	 2.0320363881	 0.0320260166	-0.167873
H	-2.0109983453	 1.8182302684	-0.0702008665	 0.281639
H	 3.2265889365	 3.8123010005	-0.8005829002	 0.140024
H	 3.5392813214	 3.8304383219	 0.9551874258	 0.144069
H	 3.0409070075	 1.4385496074	-0.5776515851	 0.149642
H	 2.7975707629	 1.5271826576	 1.1813822831	 0.14292
96.4474	124.9915	147.9644	243.3996	299.2556	444.5568	608.5167	642.6843	674.6711	688.3501	746.6049	778.1351	810.1111	872.0982	945.9186	1021.155	1070.2271	1112.4871	1140.181	1184.8848	1219.8931	1245.0788	1296.0551	1347.166	1368.3321	1398.2519	1492.201	1522.6191	1539.17	1724.1709	1852.8613	3049.6848	3063.9168	3108.3931	3138.8162	3706.3061
O=C1NN=C2OCCN12	O=c1[nH]nc2OCCn12	
InChI=1S/C4H5N3O2/c8-3-5-6-4-7(3)1-2-9-4/h1-2H2,(H,5,8)	InChI=1S/C4H5N3O2/c8-3-5-6-4-7(3)1-2-9-4/h1-2H2,(H,5,8)
