18
gdb 8597	4.39816	1.85982	1.73712	1.5184	72.71	-0.2388	0.0638	0.3026	835.3232	0.154233	-347.665927	-347.65925	-347.658306	-347.696275	27.425	
C	-0.1700185843	 1.6100383605	-0.1639777963	-0.405435
C	 0.005531024	 0.1248985085	 0.0789719326	 0.077146
O	 0.9166394588	-0.5329404263	-0.9129494942	-0.364571
C	 1.7980073977	-0.791852916	 0.1781441635	 0.422686
C	 2.5578053537	-1.8108329681	 1.0784317645	-0.298819
C	 2.2159209635	-0.4968996364	 1.9422446497	-0.094263
C	 2.7220034223	 0.3295356135	 0.7497883598	-0.266734
C	 0.785980847	-0.5727197354	 1.2741578096	-0.10653
H	 0.7702686668	 2.1608143011	-0.1735523141	 0.131071
H	-0.6582527165	 1.7653226971	-1.1317673578	 0.130358
H	-0.8155449387	 2.0330268299	 0.6131341973	 0.123384
H	-0.9703889656	-0.3652492258	 0.0087711003	 0.096245
H	 2.0185055987	-2.7208291557	 1.3481895228	 0.105788
H	 3.6212891358	-1.9958959517	 0.8974219407	 0.098659
H	 2.4734626565	-0.3635923226	 2.9939146318	 0.084556
H	 3.7857425875	 0.2531854605	 0.5136336144	 0.092649
H	 2.3721823496	 1.3572942539	 0.6871016949	 0.096894
H	 0.2252686232	-1.459306797	 1.5773582204	 0.076917
173.9533	219.7844	233.4301	394.2411	436.6934	473.3031	538.4365	573.2091	691.8161	722.4688	784.874	810.0417	838.4542	887.1067	928.5033	952.5309	983.7765	1011.3786	1019.9576	1045.0227	1076.958	1089.7258	1109.5299	1130.5764	1143.4857	1162.3292	1191.8869	1200.7284	1221.4224	1235.5945	1291.9493	1363.1268	1390.1674	1415.9977	1480.372	1488.7855	1501.3915	1537.8987	3041.6109	3047.8511	3051.5707	3075.7855	3078.3341	3102.6263	3103.9704	3131.7018	3145.9054	3170.4156
CC1OC23CC(C2)C13	C[C@H]1O[C@@]23C[C@@H](C2)[C@@H]13	
InChI=1S/C7H10O/c1-4-6-5-2-7(6,3-5)8-4/h4-6H,2-3H2,1H3	InChI=1S/C7H10O/c1-4-6-5-2-7(6,3-5)8-4/h4-6H,2-3H2,1H3/t4-,5-,6-,7-/m1/s1
