17
gdb 29803	3.21014	1.22237	0.89131	1.9621	89.97	-0.1777	0.0038	0.1815	1269.5649	0.135583	-380.872026	-380.862676	-380.861731	-380.906482	34.317	
C	 0.0167726593	 1.4254853623	 0.0336895039	-0.345085
N	-0.0236713366	-0.020925839	 0.0202056523	-0.070407
C	-0.0220928918	-0.7971759884	-1.1133744908	-0.177514
C	-0.0108346517	-2.1304393059	-0.7390671757	 0.268786
N	-0.0900380029	-3.2467826954	-1.5912429145	-0.612581
C	 0.0009549668	-2.1609447334	 0.6750076868	-0.357553
C	-0.0032851813	-0.8451930735	 1.1266272949	 0.208935
C	 0.0061768095	-0.3482173726	 2.4436326617	 0.260349
C	 0.0147704667	 0.074713785	 3.5738156123	-0.471972
H	 0.9843464519	 1.8010796384	-0.3187664607	 0.134372
H	-0.772010436	 1.8343496598	-0.605316312	 0.136082
H	-0.1416388381	 1.7719960056	 1.0553269978	 0.157823
H	-0.0373813193	-0.3436638884	-2.0918750123	 0.105949
H	 0.2873731526	-3.0622195688	-2.5118975128	 0.237914
H	 0.377930408	-4.0562731061	-1.2042558023	 0.241493
H	-0.002279527	-3.0350245674	 1.3075490777	 0.09709
H	 0.02171197	 0.4365712477	 4.5716203637	 0.186319
39.9962	134.6559	147.3148	162.2487	180.2398	286.827	318.0397	399.7797	452.5532	488.1143	533.6312	565.9215	621.4685	642.7489	660.0472	676.9414	689.4213	750.183	788.24	809.804	1013.7823	1081.2552	1103.2377	1151.6045	1177.9892	1189.0232	1248.1319	1384.3489	1433.8924	1462.3662	1469.3118	1488.2011	1510.1354	1523.2396	1622.2082	1657.9956	2216.1334	3029.0021	3087.418	3148.9146	3252.337	3253.9062	3503.3645	3534.9596	3623.1387
CN1C=C(N)C=C1C#C	Cn1cc(N)cc1C#C	
InChI=1S/C7H8N2/c1-3-7-4-6(8)5-9(7)2/h1,4-5H,8H2,2H3	InChI=1S/C7H8N2/c1-3-7-4-6(8)5-9(7)2/h1,4-5H,8H2,2H3
