14
gdb 14550	5.25002	1.53532	1.42796	2.8442	60.56	-0.2386	-0.0392	0.1994	862.6315	0.105761	-419.629272	-419.622254	-419.62131	-419.660481	26.167	
O	-0.128448665	 1.3756368576	 0.0487439931	-0.470194
C	-0.0965854927	-0.0023126716	 0.0344814259	 0.352911
C	 1.0350751109	-0.591102579	 0.7745356502	 0.091985
O	 1.864184315	 0.1065414898	 1.318720589	-0.294789
C	-1.3827768952	-0.8172599599	 0.0379601065	-0.230165
C	-2.3890986951	-0.0793818484	-0.8445621026	-0.093222
O	-1.4589403923	-0.0708688824	-1.9643394494	-0.272332
C	-0.5205435108	-0.8025567796	-1.203671744	 0.03171
H	 0.6731100996	 1.6383036253	 0.5293462328	 0.299099
H	 1.0956309926	-1.6980749921	 0.7931388285	 0.093598
H	-1.6091433185	-1.5866948019	 0.764788094	 0.112813
H	-3.2675668545	-0.6833780168	-1.0898237345	 0.122141
H	-2.6796400975	 0.9282545629	-0.5368247493	 0.137169
H	 0.0924100437	-1.5396043237	-1.7114701004	 0.119275
97.5699	193.4191	241.6916	297.0923	337.0199	390.3486	428.0334	544.1829	628.1029	760.9963	803.4922	853.7842	877.3584	941.851	973.521	988.8185	1035.8657	1047.7909	1069.659	1092.4188	1149.2815	1162.611	1242.0798	1277.7476	1329.2639	1363.967	1390.6129	1461.6009	1503.7475	1783.789	2929.5676	3054.1037	3116.1253	3169.1366	3193.4537	3693.7027
OC1(C=O)C2COC12	O[C@@]1(C=O)[C@H]2CO[C@@H]12	
InChI=1S/C5H6O3/c6-2-5(7)3-1-8-4(3)5/h2-4,7H,1H2	InChI=1S/C5H6O3/c6-2-5(7)3-1-8-4(3)5/h2-4,7H,1H2/t3-,4+,5-/m0/s1
