16
gdb 76021	2.72129	1.20044	1.08615	2.4623	75.66	-0.276	-0.0252	0.2508	1161.9277	0.122327	-396.922255	-396.912833	-396.911888	-396.956376	33.249	
C	-0.2701825059	 1.465537963	-0.0237429105	-0.334462
N	 0.040588141	 0.0406105089	 0.0561807883	-0.10709
C	 1.3652325563	-0.4531018972	-0.3068831051	-0.207284
C	 2.4305057897	 0.4571616567	-0.6528627277	 0.308993
N	 3.2692920518	 1.196412416	-0.9492289389	-0.329163
C	 0.8779246863	-0.4777049786	 1.1353872144	 0.117533
C	 1.5140889309	 0.401899094	 2.1984439899	-0.470373
C	 0.4348526104	-1.7686712837	 1.637773038	 0.289567
N	 0.1060785703	-2.7939426985	 2.0572193476	-0.327693
H	 0.5745424969	 2.1350601584	 0.1771577018	 0.136238
H	-0.6385121269	 1.6703374848	-1.0321669267	 0.151785
H	-1.0743190577	 1.6790830454	 0.6846467145	 0.146341
H	 1.3706716336	-1.3778592803	-0.8775654522	 0.158683
H	 1.9701616634	 1.2939164019	 1.7687449019	 0.157147
H	 0.7633974814	 0.7035650135	 2.9343313354	 0.150607
H	 2.2933291286	-0.1586567541	 2.721099899	 0.159172
111.411	129.6184	145.8794	162.1408	172.9168	182.0852	260.7784	340.5479	366.4491	428.7369	488.8013	562.8504	581.0923	625.0024	693.7315	753.4147	870.712	937.4271	1029.4022	1048.1402	1096.9659	1140.4438	1150.167	1169.7356	1248.191	1329.0995	1375.0988	1415.9211	1453.9909	1480.3625	1484.9989	1496.0623	1504.2881	2350.463	2361.0337	3026.9425	3057.4558	3103.6289	3125.4537	3130.6132	3150.6432	3152.6851
CN1C(C#N)C1(C)C#N	CN1[C@@H](C#N)[C@]1(C)C#N	
InChI=1S/C6H7N3/c1-6(4-8)5(3-7)9(6)2/h5H,1-2H3	InChI=1S/C6H7N3/c1-6(4-8)5(3-7)9(6)2/h5H,1-2H3/t5-,6-,9?/m0/s1
