19
gdb 62731	2.50653	1.52739	1.26904	2.3812	78.41	-0.2315	0.0122	0.2437	1084.9848	0.157757	-419.175316	-419.166053	-419.165109	-419.208572	35.416	
C	 0.0323583322	 1.5264552652	 0.0336481165	-0.46159
C	 0.0788455908	 0.0102467651	 0.0550607092	 0.253573
C	-1.1725932066	-0.6483422065	-0.504974277	-0.448141
C	 1.3510176004	-0.7758054118	-0.1985304152	-0.160768
N	 2.5458684613	-0.1489685409	 0.3807467037	-0.347289
C	 1.9616026188	-0.1258677358	 1.6839848742	 0.269141
N	 2.3636430868	 0.190438452	 2.8383603223	-0.548289
C	 0.6980654923	-0.7763269202	 1.2045504503	 0.305593
O	-0.0480367381	-1.6901905447	 1.9043140885	-0.45386
H	 0.939633503	 1.9811237472	 0.439522021	 0.114543
H	-0.1029653366	 1.8926862035	-0.9906247127	 0.115605
H	-0.8094854294	 1.8912925433	 0.631490472	 0.12997
H	-1.3609410979	-0.2912873342	-1.5232658799	 0.114713
H	-1.084966486	-1.7369563064	-0.5290495838	 0.129093
H	-2.0466643974	-0.4028507679	 0.1066865729	 0.130335
H	 1.4446645513	-1.5730569116	-0.9254400146	 0.107854
H	 2.8904069625	 0.7222996642	-0.0119091605	 0.231614
H	 3.3106677742	 0.574051983	 2.8109527808	 0.217765
H	 0.5506282085	-2.1848789033	 2.4760986425	 0.300138
111.6269	180.7547	187.244	195.7964	217.1607	270.8875	287.8169	327.7734	352.3886	408.8872	505.0068	538.3465	619.7886	648.977	703.2651	732.4256	784.9516	871.5463	907.3462	931.1187	937.0139	967.4469	1002.8636	1042.2745	1055.98	1089.5231	1149.924	1200.8153	1233.5749	1300.2703	1302.1504	1324.32	1357.9002	1407.1908	1422.956	1453.13	1478.0742	1489.0615	1499.0834	1512.825	1790.5586	3030.42	3037.0105	3092.4546	3099.3569	3112.0953	3123.7058	3193.0247	3456.6122	3506.8711	3795.6
CC1(C)C2NC(=N)C12O	CC1(C)[C@H]2N[C]([NH])[C@@]12O	
InChI=1S/C6H10N2O/c1-5(2)3-6(5,9)4(7)8-3/h3,9H,1-2H3,(H2,7,8)	InChI=1S/C6H10N2O/c1-5(2)3-6(5,9)4(7)8-3/h3,9H,1-2H3,(H2,7,8)/t3-,6-/m1/s1
