19
gdb 36792	8.86702	0.50321	0.49377	2.3276	79.63	-0.2622	0.0526	0.3148	2167.7197	0.156112	-422.953958	-422.94395	-422.943006	-422.990458	34.786	
C	-0.0617301258	-1.1464716871	-0.1388299533	-0.44796
C	-0.0263339623	 0.0546209958	-0.1213027796	 0.286357
C	 0.053197117	 1.5085804422	-0.0963431528	-0.350315
C	 1.4947385906	 2.0068858643	 0.0515839384	-0.045489
O	 1.4565644921	 3.4157256954	 0.0689330794	-0.246644
C	 2.7293632933	 4.0077437597	 0.2085062172	-0.077362
C	 2.5634951175	 5.5018776335	 0.2173408409	 0.082194
C	 3.6567804375	 6.3901898445	-0.1918770617	-0.181353
O	 2.5407451179	 6.1591624666	-1.0499486034	-0.225381
H	-0.1086177415	-2.2069883452	-0.1566813147	 0.196643
H	-0.3693048558	 1.9303047052	-1.015853102	 0.144462
H	-0.5422673632	 1.9091804071	 0.7325454746	 0.140037
H	 1.9375798534	 1.6133958305	 0.9807698159	 0.098891
H	 2.1084292031	 1.6399579701	-0.7861420187	 0.102964
H	 3.2045732763	 3.6813448925	 1.1505412251	 0.091116
H	 3.3943390665	 3.7194888332	-0.6213830263	 0.097816
H	 1.8256100203	 5.8731217314	 0.9290020673	 0.101842
H	 3.7272631396	 7.388906792	 0.2361788084	 0.118175
H	 4.6015568134	 5.9640055782	-0.5285132945	 0.114006
39.1339	62.874	84.2012	115.6853	145.846	172.296	298.1368	321.4025	355.0038	445.7187	475.944	550.8811	623.4429	649.9077	798.6596	806.5261	870.6473	944.5494	969.8265	994.9559	1035.6056	1064.5674	1090.0181	1109.1587	1149.4994	1159.039	1167.2664	1176.2899	1229.114	1271.6327	1293.4666	1301.0295	1306.2106	1367.849	1421.5476	1469.0658	1477.1859	1497.7615	1529.368	1534.0472	2242.4353	2949.9165	2972.3663	2997.0795	3003.7581	3036.9063	3074.5723	3082.0841	3115.3508	3167.8256	3507.3834
C#CCCOCC1CO1	C#CCCOC[C@H]1CO1	
InChI=1S/C7H10O2/c1-2-3-4-8-5-7-6-9-7/h1,7H,3-6H2	InChI=1S/C7H10O2/c1-2-3-4-8-5-7-6-9-7/h1,7H,3-6H2/t7-/m0/s1
