17
gdb 70990	3.30722	1.63016	1.47496	0.6112	73.47	-0.2416	-0.016	0.2257	946.8728	0.133968	-421.668531	-421.661194	-421.660249	-421.699681	30.051	
C	-0.0256356527	 1.5725773292	-0.0262863267	-0.511976
C	-0.0735173877	 0.0748719426	 0.0403856474	 0.273351
O	 0.9571957827	-0.611985782	-0.8423880885	-0.383547
C	 0.6174449501	-1.7753617907	 0.0551272065	 0.276749
C	 1.1472133061	-2.7836583246	 1.1077181967	-0.192836
O	 0.440147098	-1.9526833896	 2.1185214295	-0.314581
C	 0.6386651218	-0.8225835272	 1.177386884	 0.082442
C	-0.8675404529	-1.9733157164	-0.2648046438	-0.112677
C	-1.3281960218	-0.7241562084	-0.2831274682	-0.096324
H	 0.9609367572	 1.9435108569	 0.2625010419	 0.134976
H	-0.2388864803	 1.9171348778	-1.0430306928	 0.140382
H	-0.7742719741	 2.0016456976	 0.6470061644	 0.132724
H	 0.7497137961	-3.8020430652	 1.0813406726	 0.122976
H	 2.2280364555	-2.775962787	 1.2787772503	 0.124102
H	 1.6093999012	-0.3712256887	 1.4068825461	 0.098044
H	-1.3629225646	-2.9206056144	-0.4203661092	 0.110032
H	-2.3154630847	-0.32459686	-0.4625973303	 0.116165
184.9458	217.8905	253.2524	266.147	346.3545	392.6268	500.5544	549.5467	571.499	619.5718	667.9484	712.6014	760.2531	803.6783	824.4116	852.0147	860.7045	898.9157	903.0823	917.2046	1009.9488	1059.2404	1067.4559	1100.4909	1125.8349	1159.0985	1168.1619	1231.054	1277.5274	1315.5338	1322.0584	1381.8036	1412.4185	1475.8527	1489.9157	1495.955	1628.0913	3042.3452	3044.399	3056.6536	3112.9285	3115.6276	3124.5998	3228.5187	3256.29
CC12OC3(COC13)C=C2	C[C@@]12O[C@]3(CO[C@H]13)C=C2	
InChI=1S/C7H8O2/c1-6-2-3-7(9-6)4-8-5(6)7/h2-3,5H,4H2,1H3	InChI=1S/C7H8O2/c1-6-2-3-7(9-6)4-8-5(6)7/h2-3,5H,4H2,1H3/t5-,6+,7+/m1/s1
