17
gdb 27541	5.53923	0.91043	0.82554	2.6074	76.88	-0.1865	0.0453	0.2318	1368.9365	0.137292	-418.011971	-418.003538	-418.002594	-418.045523	31.291	
N	 0.167747515	 1.4359296144	 0.008048279	-0.609052
C	-0.0174640765	 0.0373095521	-0.0113179209	 0.308949
C	-1.1368625262	-0.7649997826	 0.0164565844	-0.353611
C	-0.6954493342	-2.1198348891	-0.1020804545	 0.291981
C	 0.6778824572	-2.0979750979	-0.1823877244	-0.186105
N	 1.0761532618	-0.7825397014	-0.1344859302	-0.271293
C	-1.5426762147	-3.3294794467	-0.1230326038	-0.041197
C	-1.555085895	-4.273835821	-1.2578973001	-0.170906
O	-0.8665598449	-4.590310274	-0.048899597	-0.235161
H	 0.4462600856	 1.7752033885	 0.9248881309	 0.243595
H	-0.6906639205	 1.9107787138	-0.2430521317	 0.246752
H	-2.1560114061	-0.4237916472	 0.1218865576	 0.081116
H	 1.38523285	-2.9077152107	-0.2391820818	 0.129866
H	 2.0172940566	-0.4444896752	-0.2369059346	 0.258722
H	-2.4505361653	-3.2795367975	 0.4807370584	 0.087694
H	-2.4422508653	-4.8737804241	-1.461409499	 0.108111
H	-0.9192467375	-4.0638573414	-2.1164454424	 0.110538
59.6402	118.1015	140.854	160.8486	268.6754	333.6107	414.7871	456.8361	502.0114	638.3121	648.2611	675.8887	720.2372	725.0706	782.8479	829.2644	853.5645	890.4347	975.5489	999.6769	1031.8704	1096.6585	1120.9665	1140.5766	1154.0004	1171.4917	1186.3423	1263.1156	1286.5545	1313.3017	1399.9382	1453.5986	1470.7448	1518.0781	1560.4621	1629.3115	1657.0785	3074.9054	3091.1933	3168.7174	3239.0915	3281.0649	3486.6795	3593.8182	3680.2355
NC1=CC(=CN1)C1CO1	Nc1cc(c[nH]1)[C@H]1CO1	
InChI=1S/C6H8N2O/c7-6-1-4(2-8-6)5-3-9-5/h1-2,5,8H,3,7H2	InChI=1S/C6H8N2O/c7-6-1-4(2-8-6)5-3-9-5/h1-2,5,8H,3,7H2/t5-/m1/s1
