21
gdb 113378	2.67198	0.98725	0.83273	1.01	74.99	-0.2605	0.0685	0.329	1454.5087	0.180324	-461.335253	-461.324738	-461.323794	-461.371549	37.795	
C	-1.1435133086	 0.5819276679	 2.4406526089	-0.383198
C	-1.7507978028	-0.82356946	 2.5615079159	-0.265531
C	-2.642028638	-1.2088554968	 1.3920382584	 0.347741
C	-3.9413029768	-0.4235328893	 1.2309312931	-0.12441
O	-3.7122372138	 0.8631979434	 0.6840882437	-0.410478
O	-1.9811046527	-1.3671128476	 0.1126918166	-0.317993
C	-2.5753933631	-2.5268587355	 0.72779066	-0.015512
C	-1.6222293754	-3.6502246522	 1.0534697458	-0.096753
O	-1.2511139599	-4.3469003315	-0.1255993173	-0.415701
H	-0.5103411657	 0.7965581601	 3.3066989259	 0.10859
H	-0.5223020134	 0.6496106856	 1.5422066943	 0.123486
H	-1.9152665302	 1.350152084	 2.3693440256	 0.143735
H	-0.9428121965	-1.5518912848	 2.6666771073	 0.103097
H	-2.3520423253	-0.8943904184	 3.4771004477	 0.103376
H	-4.638134372	-0.9969432124	 0.6016327442	 0.09205
H	-4.4190234804	-0.2694106734	 2.2039383571	 0.11075
H	-3.1933775011	 0.7209650533	-0.1171041954	 0.293923
H	-3.4758797436	-2.8731043404	 0.2161136545	 0.095548
H	-0.7403472395	-3.2734257751	 1.5865293262	 0.098318
H	-2.1205477663	-4.3832178757	 1.6974952178	 0.115957
H	-0.8326392349	-3.7041030413	-0.7093510601	 0.293006
48.0443	60.9914	95.7228	170.0496	178.3884	203.9896	236.9601	317.8102	332.0041	375.7937	399.9793	452.8298	461.8973	504.7732	658.7436	720.0104	785.166	812.3004	908.1773	956.1048	964.8707	1000.0269	1044.6605	1065.1884	1072.1657	1104.4386	1122.152	1141.8702	1197.7043	1224.3865	1263.0517	1309.5821	1322.7309	1362.1052	1369.9921	1399.0427	1412.4635	1422.1019	1431.7625	1472.8187	1488.6382	1492.0912	1495.3244	1503.0792	1514.3074	2991.4033	3022.0928	3031.6797	3046.0553	3073.9738	3078.5627	3090.9172	3096.6781	3110.3525	3143.7368	3787.8555	3803.3009
CCC1(CO)OC1CO	CC[C@@]1(CO)O[C@H]1CO	
InChI=1S/C6H12O3/c1-2-6(4-8)5(3-7)9-6/h5,7-8H,2-4H2,1H3	InChI=1S/C6H12O3/c1-2-6(4-8)5(3-7)9-6/h5,7-8H,2-4H2,1H3/t5-,6-/m0/s1
