13
gdb 47952	9.60997	0.43674	0.41883	3.9986	97.21	-0.2647	-0.0852	0.1795	2396.9183	0.085557	-382.206832	-382.197195	-382.196251	-382.243754	31.918	
O	-0.1020781023	-0.0904127871	 0.0033298039	-0.220757
C	-0.0289775903	 1.1177952786	 0.007519297	-0.033328
C	 1.2047025215	 1.856643234	-0.0000699525	 0.232802
C	 2.2292356745	 2.509181125	-0.0061524211	-0.147211
C	 3.3746589981	 3.2323881109	-0.0130045647	-0.194057
C	 4.3987932528	 3.8771979068	-0.0191432455	 0.335518
C	 5.6404213708	 4.6451133458	-0.0268226658	-0.529984
C	 5.4339047693	 6.0939364465	-0.0169886271	 0.311803
C	 5.2751035118	 7.2831885831	-0.0090562016	-0.427095
H	-0.9359981419	 1.7551628478	 0.0179155391	 0.105997
H	 6.2477819648	 4.3508541232	 0.8409429994	 0.178118
H	 6.2310519578	 4.3603497643	-0.9091837471	 0.178128
H	 5.1313977631	 8.3355713411	-0.0021997438	 0.210067
18.4154	48.4643	89.4252	105.3695	214.8799	223.4833	315.4586	333.5627	381.5413	410.9952	536.0113	590.5169	601.4159	635.8529	663.8115	742.879	921.2976	924.0882	988.9664	1017.0237	1227.567	1269.9904	1343.0336	1418.9925	1439.758	1754.5042	2251.0579	2256.8935	2361.8703	2924.2966	3007.0355	3032.6273	3504.1564
O=CC#CC#CCC#C	O=CC#CC#CCC#C	
InChI=1S/C8H4O/c1-2-3-4-5-6-7-8-9/h1,8H,3H2	InChI=1S/C8H4O/c1-2-3-4-5-6-7-8-9/h1,8H,3H2
