23
gdb 119875	3.00484	0.92621	0.78454	1.7151	89.2	-0.2236	0.0247	0.2483	1572.4279	0.204899	-388.309501	-388.299411	-388.298467	-388.345358	36.729	
C	-0.0939293562	 1.5605140316	 0.0029924506	-0.379774
C	-0.1215219447	 0.0324325234	 0.0827759127	-0.161662
C	 0.8567129392	-0.5228749209	 1.1369740783	-0.305283
C	 0.8663384718	-2.0192318283	 1.2266094223	 0.32422
C	 1.8613885439	-2.8529936821	 0.9338440363	-0.223183
C	 1.4357256434	-4.2759855531	 1.1420100598	-0.113442
O	 0.1032190361	-4.1933030985	 1.6376045796	-0.280612
C	-0.3323488363	-2.8306771288	 1.6799020959	 0.053318
C	-0.834933095	-2.4977671224	 3.0861095126	-0.39283
H	 0.9048023242	 1.9257095994	-0.2611224636	 0.115309
H	-0.7944662361	 1.9320157742	-0.7511749486	 0.113831
H	-0.3669780848	 2.0127081588	 0.96306785	 0.114752
H	-1.1401465303	-0.3034376291	 0.3123901032	 0.103129
H	 0.128246592	-0.3975636145	-0.8947623082	 0.102876
H	 1.8693644463	-0.1694595948	 0.9092715762	 0.100849
H	 0.5942249411	-0.0952714348	 2.1151695352	 0.105188
H	 2.8492977158	-2.5748072082	 0.5860881762	 0.09396
H	 1.4569991635	-4.8606287961	 0.2070206564	 0.099025
H	 2.0689816689	-4.8115814411	 1.8669634906	 0.101604
H	-1.1725805001	-2.7103187472	 0.9742844087	 0.076125
H	-0.0174111104	-2.5590280927	 3.8109572939	 0.117327
H	-1.2631042456	-1.4903826204	 3.1223364633	 0.109839
H	-1.6121773868	-3.2088702545	 3.3790842286	 0.125433
50.1318	78.4219	88.4433	124.4185	227.9626	241.0558	256.9738	279.5844	311.676	378.1829	415.9693	568.3244	683.8003	745.7599	765.2235	794.4401	825.9124	873.6282	884.2197	903.5119	957.1622	1034.5792	1042.7536	1048.6892	1060.7596	1096.6412	1112.5829	1119.5248	1124.9203	1196.6639	1211.2712	1249.9163	1289.9256	1310.9389	1323.6316	1360.7681	1372.791	1382.4502	1383.5971	1397.9381	1413.7494	1477.0074	1486.7342	1493.5387	1495.4707	1500.5821	1510.0693	1526.5687	1726.8774	2943.6855	2961.7171	2982.0435	3004.7315	3027.7855	3030.4909	3035.9824	3047.0809	3067.4848	3097.8707	3103.9655	3108.6113	3119.7939	3203.4019
CCCC1=CCOC1C	CCCC1=CCO[C@H]1C	
InChI=1S/C8H14O/c1-3-4-8-5-6-9-7(8)2/h5,7H,3-4,6H2,1-2H3	InChI=1S/C8H14O/c1-3-4-8-5-6-9-7(8)2/h5,7H,3-4,6H2,1-2H3/t7-/m0/s1
