17
gdb 28103	5.10206	1.24137	1.00468	0.3435	84.67	-0.1646	0.0381	0.2027	1157.9714	0.138716	-380.927121	-380.919255	-380.91831	-380.95913	30.571	
C	-0.0168906694	 1.4921389976	 0.0634014028	-0.502952
C	-0.0006985576	 0.0036571316	-0.0467384649	 0.337303
C	-0.0385507436	-0.7994761228	-1.1719652909	-0.414173
C	 0.0016070283	-2.1381328807	-0.6945007808	 0.341479
C	 0.0623645823	-2.1207799228	 0.697971624	 0.325564
N	 0.0603603684	-0.7974784922	 1.0844817478	-0.459375
C	 0.1019178844	-3.4563984336	 1.1788371777	-0.323202
C	 0.0635217954	-4.2505294758	 0.0495748734	-0.068045
N	 0.002853489	-3.4581739439	-1.083212805	-0.403591
H	 0.8837444906	 1.8824136967	 0.5554474684	 0.123174
H	-0.0672328004	 1.9385503259	-0.9323418113	 0.1342
H	-0.8812642464	 1.8574367178	 0.6334736302	 0.123155
H	-0.0881101256	-0.4415004227	-2.188632601	 0.084985
H	 0.0965012029	-0.4506335572	 2.0259676763	 0.250191
H	 0.1514710487	-3.8112298278	 2.1960996923	 0.086364
H	 0.0749284204	-5.3253734756	-0.0365604248	 0.110368
H	-0.0333601974	-3.8040648546	-2.0243442943	 0.254556
109.4887	145.3425	259.9547	273.5074	302.8566	324.7368	386.1619	492.698	555.6182	603.9841	623.1512	677.1607	735.9761	750.8528	752.5653	777.8576	809.7421	933.1124	987.2618	1007.1875	1058.6937	1077.4263	1102.9232	1163.4355	1183.1949	1246.8579	1325.4557	1377.1277	1406.8546	1414.4612	1462.7072	1477.3087	1493.8527	1512.0413	1539.6942	1596.4949	1611.7637	3008.8647	3049.5037	3120.7476	3246.7338	3247.7203	3267.9963	3689.0822	3699.1352
CC1=CC2=C(N1)C=CN2	Cc1cc2c([nH]1)cc[nH]2	
InChI=1S/C7H8N2/c1-5-4-7-6(9-5)2-3-8-7/h2-4,8-9H,1H3	InChI=1S/C7H8N2/c1-5-4-7-6(9-5)2-3-8-7/h2-4,8-9H,1H3
