19
gdb 86020	2.86883	1.18346	1.12746	3.4102	82.3	-0.2397	-0.007	0.2327	1207.3291	0.159054	-382.092397	-382.083328	-382.082384	-382.125977	34.28	
C	 0.1009545655	 1.6461372348	-0.0157400722	-0.379138
C	 0.0092912552	 0.1189330756	 0.0537992098	-0.007435
N	 0.6924040899	-0.5140722268	-1.0921675746	-0.340462
C	 1.398027916	-1.7319965317	-0.6558113355	 0.102738
C	 2.7632682918	-1.8686703189	-1.3527009311	-0.405954
C	 1.4978309607	-1.5129801245	 0.8460932375	-0.097038
C	 0.7327362571	-0.4972525211	 1.2242869383	-0.059041
C	 0.5947204323	-2.9559810231	-0.9201291657	 0.239689
N	-0.0518696629	-3.8869333014	-1.1517913801	-0.344726
H	 1.1469865091	 1.9634316148	-0.042515747	 0.123959
H	-0.3930881824	 2.0199993779	-0.917861793	 0.117884
H	-0.3887377426	 2.1042591555	 0.8502453179	 0.112779
H	-1.0583246949	-0.1601629859	 0.1060293645	 0.087458
H	 0.0754153494	-0.68493968	-1.8760839315	 0.231464
H	 3.3533405068	-0.9743292547	-1.1416290062	 0.130573
H	 3.2992069086	-2.7539508319	-0.997578323	 0.127021
H	 2.6333085455	-1.9568736992	-2.4347733342	 0.131083
H	 2.1093845853	-2.1492534159	 1.4722737386	 0.116738
H	 0.6112628996	-0.1337083934	 2.2374589775	 0.112409
69.8103	140.0609	179.2584	228.0366	232.9119	257.2474	289.3902	361.6856	410.3531	493.4455	515.0739	581.4976	633.158	656.4237	728.3403	788.1774	845.3009	875.5802	905.6323	959.7353	967.7702	977.9413	1054.0536	1092.422	1118.7444	1145.3925	1150.4074	1180.3839	1198.9171	1330.2752	1333.9667	1371.1641	1399.905	1403.9472	1441.627	1483.9777	1488.4799	1494.3381	1496.2195	1692.2743	2335.4288	2936.1189	3035.7891	3045.0083	3105.6248	3120.853	3121.2474	3137.7546	3205.3435	3232.1035	3567.8818
CC1NC(C)(C=C1)C#N	C[C@H]1N[C@@](C)(C=C1)C#N	
InChI=1S/C7H10N2/c1-6-3-4-7(2,5-8)9-6/h3-4,6,9H,1-2H3	InChI=1S/C7H10N2/c1-6-3-4-7(2,5-8)9-6/h3-4,6,9H,1-2H3/t6-,7+/m1/s1
