16
gdb 127228	3.1015	1.42693	0.98933	7.0162	77.67	-0.2281	-0.0549	0.1732	1159.7865	0.123723	-434.068629	-434.060103	-434.059159	-434.102142	30.557	
C	 0.0034631351	 1.4770500673	 0.0411627516	-0.330139
N	-0.0337025169	 0.0220706878	 0.0123565994	-0.01724
C	-1.2070613764	-0.6777752244	 0.0277638606	-0.018142
C	-1.2047097477	-2.0293417737	-0.0002732434	 0.097986
C	-2.4396484406	-2.8711920307	 0.0137986276	-0.476566
C	 0.0948969343	-2.6925705174	-0.0471584627	 0.365452
O	 0.2365209132	-3.8994311127	-0.0758142254	-0.347057
N	 1.2522972549	-1.8492854351	-0.0591104222	-0.256448
N	 1.174931949	-0.5866582893	-0.031004557	-0.050815
H	 1.0517790686	 1.7717476341	 0.0219896781	 0.174403
H	-0.5105785662	 1.8931828458	-0.8305515477	 0.149317
H	-0.4677471347	 1.8566543839	 0.9528220431	 0.149295
H	-2.1122975273	-0.0794297712	 0.0632163953	 0.136901
H	-2.4701670604	-3.5118885618	-0.8737043087	 0.154527
H	-2.4256249725	-3.5480015643	 0.8745069606	 0.154523
H	-3.3478962024	-2.2636254581	 0.0494944609	 0.114003
73.5875	111.8774	146.2219	176.7449	259.9165	306.1084	341.9727	410.808	476.4709	521.1086	547.341	586.898	727.6384	807.1583	810.9805	906.9521	913.581	1011.446	1063.2173	1066.2807	1108.0443	1152.2808	1175.7516	1315.0345	1346.5237	1415.2946	1423.0479	1446.2173	1463.7638	1484.3538	1486.1811	1500.5914	1514.8009	1688.0795	1770.0347	3037.9433	3043.0297	3096.8165	3106.9329	3121.3174	3170.4942	3175.3091
CN1C=C(C)C(=O)N=N1	Cn1cc(C)c(=O)nn1	
InChI=1S/C5H7N3O/c1-4-3-8(2)7-6-5(4)9/h3H,1-2H3	InChI=1S/C5H7N3O/c1-4-3-8(2)7-6-5(4)9/h3H,1-2H3
