17
gdb 30175	4.44137	1.29697	1.05188	4.6141	74.57	-0.1863	0.0277	0.214	1122.6659	0.138749	-418.039308	-418.031816	-418.030872	-418.071539	28.734	
C	 0.1895742418	 1.5099084636	 0.0978752344	-0.397103
C	 0.0711287547	 0.0027909672	-0.0163903512	 0.135259
C	 0.7749525745	-0.6178335804	-1.2898081323	-0.391727
C	 1.423983873	-1.7848680662	-0.6302801501	 0.197651
C	 1.3469274284	-1.6785562185	 0.721104912	 0.38618
O	 0.6552121741	-0.6037176954	 1.1807718482	-0.290305
N	 2.0300544123	-2.6410357442	 1.3856332068	-0.352244
C	 2.5562420319	-3.3607965684	 0.4032483717	-0.009881
N	 2.2384879511	-2.879183992	-0.8403216039	-0.368071
H	 1.2413907888	 1.8109508597	 0.1180683457	 0.128127
H	-0.2953513972	 1.9942999089	-0.7560465693	 0.117026
H	-0.2887299787	 1.8654580246	 1.0143640612	 0.13355
H	-0.9840877648	-0.2971476464	-0.0247775268	 0.093283
H	 0.030145147	-0.8530250556	-2.0579196954	 0.113313
H	 1.49068657	 0.0892047012	-1.7344512192	 0.109994
H	 3.1592211607	-4.2463635401	 0.5332575453	 0.129324
H	 2.5025410823	-3.294197848	-1.717291437	 0.265623
60.0324	165.609	238.0666	270.5991	326.6981	438.8612	469.9442	480.1872	590.525	654.2594	726.0329	737.2665	761.3758	786.2786	824.5863	893.1368	937.008	971.5043	1059.1641	1088.9164	1109.0951	1120.1992	1171.8954	1199.5128	1235.6806	1282.1452	1335.9986	1366.3482	1380.9989	1404.8715	1419.3978	1460.6552	1483.3923	1496.8079	1503.6901	1531.5316	1647.4861	2990.0523	3022.5376	3040.3716	3053.2873	3112.8551	3123.4027	3257.8582	3673.463
CC1CC2=C(O1)N=CN2	C[C@H]1Cc2c(O1)nc[nH]2	
InChI=1S/C6H8N2O/c1-4-2-5-6(9-4)8-3-7-5/h3-4H,2H2,1H3,(H,7,8)	InChI=1S/C6H8N2O/c1-4-2-5-6(9-4)8-3-7-5/h3-4H,2H2,1H3,(H,7,8)/t4-/m0/s1
