18
gdb 55776	4.12802	1.05223	0.95121	5.4307	72.14	-0.2537	0.0191	0.2727	1245.2724	0.148852	-439.109753	-439.101523	-439.100578	-439.142883	31.284	
O	-0.2267641223	 0.1372633018	 0.5295982616	-0.220385
C	-0.0532685556	 1.410187445	 0.0840636695	 0.437184
O	 1.0288550547	 1.874169116	-0.1261937747	-0.337201
C	-1.4163685506	 2.0830882794	-0.0688708984	-0.461897
C	-2.3913853767	 0.9278745446	 0.0180538212	 0.33282
C	-3.3355611798	 0.5887429717	-1.1086100281	-0.334947
C	-3.8749405961	 1.0830878704	 0.212136518	-0.082776
N	-4.5271234957	 0.1101634269	 1.0533563458	-0.508849
H	-4.5779390133	 0.439952368	 2.0123315488	 0.2338
H	-5.4821780146	-0.0433302937	 0.7443923449	 0.235868
C	-1.6171164003	-0.1712347268	 0.7372858799	-0.128532
H	-1.5324091188	 2.7996021121	 0.7544986489	 0.135565
H	-1.4497183937	 2.6480627278	-1.0021440392	 0.140663
H	-3.3796919991	 1.256345989	-1.962797129	 0.116849
H	-3.4876862243	-0.4611203266	-1.3363653306	 0.123012
H	-4.2469789578	 2.1107561874	 0.2189889095	 0.077019
H	-1.8048613544	-1.1710332768	 0.3435656294	 0.129772
H	-1.8116051315	-0.1829144362	 1.8160704823	 0.112036
57.9063	148.0661	173.8719	225.6614	275.236	354.3874	386.1068	453.0886	517.7475	555.9685	571.9096	689.617	773.9468	829.7032	844.5703	860.2303	908.7141	941.2166	965.5027	1010.0646	1046.3553	1060.3279	1078.7056	1114.4335	1151.8131	1173.8234	1185.1934	1225.7669	1255.6281	1268.8242	1275.5778	1343.5258	1395.5663	1429.8783	1466.1589	1489.3581	1518.0924	1661.0594	1883.6445	3035.0661	3038.7667	3058.9416	3114.3468	3116.5121	3127.8431	3218.6568	3493.4426	3567.7204
[O-]C(=O)CC12CC1[NH2+]C2	O1C(=O)C[C@@]2(C[C@H]2N)C1	
InChI=1S/C6H9NO2/c8-5(9)2-6-1-4(6)7-3-6/h4,7H,1-3H2,(H,8,9)	InChI=1S/C6H9NO2/c7-4-1-6(4)2-5(8)9-3-6/h4H,1-3,7H2/t4-,6+/m1/s1
