18
gdb 67389	2.86046	1.55525	1.41797	3.5478	76.08	-0.2376	-0.0241	0.2135	1000.7711	0.148573	-401.938189	-401.930734	-401.92979	-401.969885	29.591	
C	 0.097370603	 1.508686354	 0.0537430942	-0.514996
C	-0.0486557877	 0.024359761	-0.0586786588	 0.340712
C	 0.5461373583	-0.8639408834	-1.0941951235	-0.188206
N	 0.9948965198	-0.964681524	 0.3481019226	-0.179142
C	-0.0475817572	-1.7221548626	 1.1186547855	-0.158973
C	-1.190931098	-0.8969003777	 0.4839873272	-0.124129
C	-1.7391428629	-1.6461478371	-0.730464423	-0.332685
C	-0.5045099172	-1.7937916684	-1.6320082688	 0.411061
O	-0.4166587629	-2.465476207	-2.6291455252	-0.327394
H	 1.0972235716	 1.8180116029	-0.2636819357	 0.139486
H	-0.6375899344	 2.0234678388	-0.57501658	 0.128237
H	-0.0490674867	 1.8428514703	 1.0865709064	 0.128627
H	 1.3469519479	-0.5423226714	-1.7492338498	 0.111999
H	-0.0531374445	-2.8059882129	 0.955872193	 0.110017
H	 0.1101406803	-1.5155861815	 2.1796233071	 0.11735
H	-1.9385661773	-0.462751399	 1.146869839	 0.08103
H	-2.1862955027	-2.6174531998	-0.500336678	 0.126804
H	-2.4860112393	-1.0517800922	-1.2719154624	 0.130201
113.6692	194.63	201.8904	265.9206	382.9084	392.9967	460.5054	556.7307	563.9173	616.8417	661.1292	745.6725	785.0424	831.7202	878.9186	893.5227	931.2145	941.1498	1003.9722	1027.4819	1060.0381	1091.2298	1104.8066	1131.8671	1153.3822	1182.2124	1214.6372	1236.0936	1256.5042	1274.2611	1308.0126	1324.0807	1400.0001	1431.9899	1451.2239	1481.9744	1491.0411	1505.8149	1832.9364	3031.2611	3037.7452	3039.5398	3093.8537	3097.705	3105.5205	3114.8647	3119.5831	3193.9614
CC12C3N1CC2CC3=O	C[C@@]12[C@H]3N1C[C@@H]2CC3=O	
InChI=1S/C7H9NO/c1-7-4-2-5(9)6(7)8(7)3-4/h4,6H,2-3H2,1H3	InChI=1S/C7H9NO/c1-7-4-2-5(9)6(7)8(7)3-4/h4,6H,2-3H2,1H3/t4-,6-,7+,8?/m0/s1
