20
gdb 62850	2.7342	1.58423	1.35634	3.8166	78.46	-0.2339	0.0224	0.2563	1039.7486	0.171798	-403.163752	-403.155485	-403.154541	-403.195966	33.13	
C	-0.1464359436	 1.5132530572	 0.0026338362	-0.462057
C	-0.0122798908	-0.0128469983	 0.0061392501	 0.333511
C	-1.4025910299	-0.6168329352	-0.1982512241	-0.467223
C	 1.1866791751	-0.5998204742	-0.8397345479	-0.054989
C	 2.1365326236	-0.1814445213	 0.3117064882	-0.235307
C	 0.9028975466	-0.6082875276	 1.1713313799	-0.187761
C	 0.8206087341	-2.0968942788	 0.8002032971	 0.406884
O	 0.5170990995	-3.0584648112	 1.4604996514	-0.382458
N	 1.131741869	-2.0530111007	-0.5629989766	-0.306944
H	 0.7900313547	 2.0485223644	 0.1636970199	 0.119167
H	-0.5574882073	 1.8503539025	-0.9560705312	 0.11868
H	-0.846431024	 1.8310043082	 0.7830474056	 0.123032
H	-1.8345769495	-0.2676877075	-1.1431663211	 0.112647
H	-1.4046117699	-1.7082987807	-0.2079109438	 0.129319
H	-2.0759935744	-0.2970702924	 0.6042976371	 0.12515
H	 1.3631860115	-0.3561946228	-1.8872972307	 0.075604
H	 3.0462017966	-0.7747153044	 0.4155533498	 0.113101
H	 2.3652664829	 0.8802399076	 0.361221566	 0.110301
H	 0.772988778	-0.3604400797	 2.2225599394	 0.082231
H	 0.6708944978	-2.6972519249	-1.1887473953	 0.247112
147.2495	157.8532	192.4673	207.3238	328.4129	369.1712	400.9733	425.5228	491.0182	521.8953	541.1126	628.9729	671.0215	740.1939	795.4104	843.3586	873.0115	890.7886	951.8635	958.6132	983.0736	1008.0549	1015.5898	1031.5571	1087.3724	1106.8611	1156.6036	1178.3238	1190.0496	1217.2953	1233.7709	1262.9855	1278.9752	1311.9027	1367.3633	1408.0465	1425.9716	1482.3827	1483.2035	1500.9765	1508.0757	1521.2188	1860.9554	3030.9935	3037.0895	3086.5268	3093.2189	3093.8779	3120.327	3127.1301	3131.5823	3147.7212	3169.3078	3616.062
CC1(C)C2CC1C(=O)N2	CC1(C)[C@H]2C[C@@H]1C(=O)N2	
InChI=1S/C7H11NO/c1-7(2)4-3-5(7)8-6(4)9/h4-5H,3H2,1-2H3,(H,8,9)	InChI=1S/C7H11NO/c1-7(2)4-3-5(7)8-6(4)9/h4-5H,3H2,1-2H3,(H,8,9)/t4-,5-/m1/s1
