24
gdb 101706	3.6095	0.75724	0.69139	2.4529	86.41	-0.2205	0.0752	0.2957	1712.6328	0.215428	-405.51157	-405.50069	-405.499746	-405.547739	39.814	
C	-0.176938871	 1.5511004189	-0.1730147982	-0.39347
C	-0.0589070221	 0.0308832497	-0.0098473886	 0.037706
C	-1.4378907691	-0.6134660113	 0.137421502	-0.082712
O	-2.0644445612	-0.0802321204	 1.2953550762	-0.4235
C	 0.7189401868	-0.6445339886	-1.1550764875	-0.228993
C	 2.1657866121	-0.1927251229	-1.2575426711	 0.022508
C	 3.0267368122	-0.5863213232	-2.4096025538	-0.266118
N	 2.6791605681	 0.8131852589	-2.1967973251	-0.076942
C	 1.8043706995	 1.431351726	-3.1798644936	-0.313523
H	 0.80762176	 2.0262829402	-0.2030447076	 0.125642
H	-0.7013394682	 1.8035462487	-1.1029229579	 0.103911
H	-0.7436823039	 1.9774220674	 0.6573975207	 0.132108
H	 0.4804067525	-0.1711694417	 0.9267647384	 0.08305
H	-2.0367684436	-0.4102738556	-0.766958235	 0.080678
H	-1.3281658939	-1.7071915295	 0.218398879	 0.080331
H	-2.9566120282	-0.4343560933	 1.3460228519	 0.28631
H	 0.7183825042	-1.7301378471	-0.9861910859	 0.099377
H	 0.1956791186	-0.4885590638	-2.1061174286	 0.095092
H	 2.6541873517	-0.1201977564	-0.2849917869	 0.086802
H	 4.0704590862	-0.8564389001	-2.2670976105	 0.109561
H	 2.5340241646	-1.1074135538	-3.2315445337	 0.099302
H	 1.0641020019	 0.7524822043	-3.6334152514	 0.096658
H	 1.2678754432	 2.2677272257	-2.7223240771	 0.124257
H	 2.4253734596	 1.8287017979	-3.9895617459	 0.121963
56.0402	81.4555	118.5045	138.6597	196.9364	237.2324	246.344	266.3642	276.1633	313.1021	359.9659	390.6558	421.5739	509.0852	534.4141	740.6661	786.8478	839.6417	896.4195	927.3812	932.6296	958.4692	1035.3207	1050.0816	1075.8097	1092.5503	1111.8177	1117.0233	1135.1231	1166.1716	1171.2946	1185.4793	1206.1837	1230.3642	1260.1864	1280.7282	1308.0724	1338.6085	1359.0474	1381.8621	1402.6029	1424.3406	1449.032	1459.2484	1476.9623	1487.4498	1496.3759	1502.0468	1507.6616	1513.8177	1521.3637	2951.5763	2969.0391	2980.066	3008.7564	3014.7213	3029.2947	3058.5756	3066.8414	3076.9196	3093.0918	3099.9461	3107.9507	3130.695	3163.4263	3835.8471
CC(CO)CC1CN1C	C[C@@H](CO)C[C@H]1CN1C	
InChI=1S/C7H15NO/c1-6(5-9)3-7-4-8(7)2/h6-7,9H,3-5H2,1-2H3	InChI=1S/C7H15NO/c1-6(5-9)3-7-4-8(7)2/h6-7,9H,3-5H2,1-2H3/t6-,7+,8?/m1/s1
