19
gdb 40609	3.56598	1.42932	1.2401	2.2496	79.14	-0.2054	0.0682	0.2737	1056.5603	0.15988	-381.926202	-381.918738	-381.917794	-381.95816	30.104	
C	-0.029288612	 1.336834185	-0.3508313608	-0.176728
C	 1.2929062652	 0.8920638452	 0.1630637435	-0.23807
N	 0.1882359311	-0.0562465718	-0.0135656052	-0.07316
C	-0.380154976	-0.5923041151	 1.1987860463	 0.043325
C	-1.5458909766	-0.1450964892	 2.0570221843	-0.122317
C	-2.871865126	 0.1594364662	 1.3033830487	-0.060818
N	-2.6558166685	 0.0489695569	-0.1641602425	-0.320492
C	-2.8584432634	-1.1662118017	 0.6617270282	-0.054167
C	-1.5346720956	-1.5380485356	 1.3744786035	-0.105283
H	-0.6449324487	 1.9285269823	 0.3219684063	 0.110408
H	-0.1832502564	 1.5446920208	-1.4055976873	 0.110173
H	 2.1409409623	 0.7534506459	-0.5025461296	 0.108385
H	 1.5538105535	 1.190923359	 1.1778476835	 0.100571
H	 0.4229551726	-0.9319062082	 1.8546427988	 0.095532
H	-1.4398161951	 0.0738971094	 3.1133008885	 0.08466
H	-3.6916314604	 0.7362188307	 1.7110664098	 0.092471
H	-3.5536184371	 0.253173074	-0.6048500004	 0.226081
H	-3.6651135169	-1.8579783843	 0.4579277218	 0.092884
H	-1.4020945921	-2.5038784494	 1.8477528423	 0.086546
85.1906	156.3325	183.245	300.5033	321.5411	441.024	571.3199	619.8913	699.6355	708.642	738.5624	791.6232	824.8682	843.4565	855.974	875.0007	904.028	911.8965	963.7926	988.8478	995.2205	999.7243	1041.753	1043.7674	1081.6336	1106.8772	1121.8996	1123.3724	1141.3713	1167.2789	1175.8084	1196.1061	1250.3778	1257.2363	1317.5702	1331.1387	1355.9299	1380.9099	1444.2889	1488.3341	1518.5882	3085.9409	3094.2755	3108.8145	3168.2811	3170.1397	3178.752	3192.2809	3194.1299	3205.5068	3456.6167
C1CN1C1C2C3NC3C12	C1CN1[C@H]1[C@H]2[C@H]3N[C@H]3[C@@H]12	
InChI=1S/C7H10N2/c1-2-9(1)7-3-4(7)6-5(3)8-6/h3-8H,1-2H2	InChI=1S/C7H10N2/c1-2-9(1)7-3-4(7)6-5(3)8-6/h3-8H,1-2H2/t3-,4+,5-,6+,7+
