22
gdb 61232	2.897	0.94435	0.78494	0.888	88.78	-0.2254	0.0526	0.278	1516.8556	0.191469	-367.149381	-367.13893	-367.137986	-367.184957	38.597	
C	 0.3570087293	 1.7496150908	-0.087188626	-0.396754
C	 0.0011005465	 0.2620122862	 0.0379502912	-0.001929
C	 0.4801604719	-0.5405733033	-1.2012012256	-0.362291
C	-0.1546808934	-0.1276467926	-2.4466879157	 0.298786
C	-0.6998722869	 0.2200654192	-3.4604328698	-0.442425
C	 0.6195686197	-0.3201340233	 1.2978865272	 0.026565
C	-0.0443908436	-0.1850902792	 2.6258689798	-0.268915
N	 0.1152538871	-1.4974981992	 2.0107093589	-0.091205
C	-1.0898248599	-2.1790437805	 1.5627484997	-0.317836
H	 1.4442700579	 1.890951487	-0.102971677	 0.113433
H	-0.0495379066	 2.1698435203	-1.0109375005	 0.131073
H	-0.0411419907	 2.3184358809	 0.7579993666	 0.116586
H	-1.0892823626	 0.1755586081	 0.0891923606	 0.085822
H	 1.5702309251	-0.4360756689	-1.2914584864	 0.128206
H	 0.2919853633	-1.6082759995	-1.03727227	 0.135016
H	-1.1715889485	 0.5193463351	-4.3632604753	 0.193609
H	 1.7108545101	-0.2881713869	 1.2821137465	 0.085234
H	 0.5318662489	-0.0003372566	 3.5291117343	 0.11283
H	-1.0433194715	 0.253103621	 2.6301776901	 0.102673
H	-1.8857478036	-1.5176741815	 1.186635707	 0.103574
H	-0.8362619933	-2.8954142453	 0.7743473824	 0.122932
H	-1.4996361294	-2.7435503716	 2.4065642422	 0.125018
59.887	76.6642	120.6128	164.7409	205.1131	229.0713	250.1556	315.167	341.1093	349.4235	380.5397	424.379	517.5632	565.3205	615.8997	637.9504	753.0088	818.3671	865.1309	890.6366	927.7927	961.4335	991.0684	1036.962	1085.0499	1100.1842	1117.1008	1124.975	1134.5479	1165.8875	1200.4593	1204.848	1240.5931	1283.0479	1339.1761	1345.774	1355.0671	1407.0501	1431.4375	1452.7556	1467.5833	1489.9653	1497.9024	1499.563	1501.4706	1514.1306	2235.7601	2979.0436	3015.822	3031.8331	3047.8409	3061.043	3064.9988	3078.1653	3082.3876	3097.0621	3101.5253	3120.7266	3166.2597	3506.1901
CC(CC#C)C1CN1C	C[C@@H](CC#C)[C@H]1CN1C	
InChI=1S/C8H13N/c1-4-5-7(2)8-6-9(8)3/h1,7-8H,5-6H2,2-3H3	InChI=1S/C8H13N/c1-4-5-7(2)8-6-9(8)3/h1,7-8H,5-6H2,2-3H3/t7-,8+,9?/m0/s1
