23
gdb 102478	1.92555	1.25843	0.8509	3.6929	84.64	-0.2225	0.0646	0.2871	1478.4078	0.204109	-421.649068	-421.63737	-421.636426	-421.687568	40.2	
C	-0.0091956269	 1.5593637554	 0.1001855955	-0.37265
C	-0.0013892322	 0.03257604	-0.0091802498	-0.149472
N	 0.683194809	-0.4557594857	-1.2056856746	-0.116305
C	 2.1123277241	-0.7166430611	-1.1170576901	-0.178219
C	 2.4643869446	-2.1777300875	-0.8069816079	-0.375227
C	-0.091093011	-0.6950537519	-2.3251939031	 0.500756
O	-1.2930448985	-0.4622254836	-2.3437502731	-0.43507
N	 0.5587561042	-1.2409232381	-3.4146940004	-0.369768
C	-0.1257154798	-1.3358632801	-4.690166311	-0.321988
H	 1.0066991178	 1.9691903139	 0.1166282831	 0.107101
H	-0.542780738	 1.9904132164	-0.7508813516	 0.139912
H	-0.513604902	 1.874822883	 1.0196355252	 0.111584
H	 0.4871854414	-0.411809147	 0.86613735	 0.091666
H	-1.0265348888	-0.3383265506	-0.0443383555	 0.141671
H	 2.6144897812	-0.3892212303	-2.0367956816	 0.103944
H	 2.5140075497	-0.0672607816	-0.3323027699	 0.115758
H	 2.0172563333	-2.4878745479	 0.1422982642	 0.127825
H	 2.0885257627	-2.8448110548	-1.587790596	 0.129507
H	 3.5492361039	-2.3071339193	-0.7321040229	 0.113978
H	 1.5628651436	-1.2525418973	-3.4338949586	 0.237082
H	-1.1891900767	-1.4669495273	-4.4915065095	 0.166771
H	-0.0014223164	-0.4366938218	-5.3094358481	 0.115487
H	 0.2487219548	-2.1989906628	-5.2483755043	 0.115658
36.576	51.2189	81.3199	83.1854	97.1002	146.943	212.4066	226.3268	267.0948	320.3303	365.6059	373.9961	408.039	453.5324	548.0073	607.5672	761.6657	776.3315	788.3559	819.6129	926.5573	948.2324	1029.1098	1090.0309	1100.2821	1113.7478	1126.2655	1150.9183	1163.5716	1215.0794	1256.8362	1289.6367	1340.13	1377.99	1398.898	1406.0495	1411.1143	1419.2354	1437.8578	1471.9374	1489.068	1491.5037	1492.5896	1499.0373	1502.9529	1508.9179	1520.7038	1559.0643	1749.5974	3007.617	3015.0445	3032.4992	3033.7561	3038.677	3066.8328	3082.2059	3094.702	3109.9648	3119.9871	3120.6804	3131.6694	3158.6088	3669.2719
CCN(CC)C(=O)NC	CCN(CC)C(=O)NC	
InChI=1S/C6H14N2O/c1-4-8(5-2)6(9)7-3/h4-5H2,1-3H3,(H,7,9)	InChI=1S/C6H14N2O/c1-4-8(5-2)6(9)7-3/h4-5H2,1-3H3,(H,7,9)
