24
gdb 113930	3.82334	0.70764	0.6573	2.9539	87.72	-0.2346	0.0845	0.319	1837.7452	0.21581	-405.525783	-405.515097	-405.514153	-405.562113	39.295	
C	 0.2452288141	-2.8544484523	 0.1444736289	-0.381072
C	-0.0718347019	-1.5319535395	 0.8529030009	-0.201396
C	-1.507950526	-1.1048640726	 0.6224194978	 0.027659
C	-2.5960833659	-1.4923399216	 1.5669864278	-0.257023
N	-2.1848651741	-0.0961056564	 1.4360493825	-0.111491
C	-1.5056179311	 0.5464601622	 2.5593236929	-0.153107
C	-2.5307764587	 1.4097951029	 3.307055059	 0.15334
C	-1.8916843386	 2.2516246156	 4.4025069031	-0.387367
O	-3.1758344652	 2.2809596552	 2.3960787897	-0.44297
H	 1.2911342392	-3.1391633154	 0.2918595731	 0.116233
H	-0.3835864576	-3.6659936521	 0.5248459207	 0.120807
H	 0.0699191937	-2.7767987322	-0.934011382	 0.119534
H	 0.1279220664	-1.6325089387	 1.9245527626	 0.101002
H	 0.6022795113	-0.748581159	 0.4823522382	 0.105339
H	-1.770504301	-1.0308031708	-0.4336050698	 0.089456
H	-3.5929035116	-1.7371840314	 1.2102092279	 0.116356
H	-2.2971894435	-2.0193928683	 2.4729202257	 0.108121
H	-1.0346612903	-0.1640653692	 3.2564773412	 0.083713
H	-0.7220863919	 1.1995629397	 2.156029635	 0.105011
H	-3.2701191179	 0.7282291058	 3.7668033092	 0.056756
H	-1.1350499583	 2.9198535127	 3.9787162952	 0.1183
H	-2.6503810132	 2.8673008129	 4.8928920342	 0.125227
H	-1.4184575827	 1.6176796636	 5.1592929914	 0.105688
H	-3.3033143853	 1.7504423588	 1.5959259348	 0.281884
49.6649	84.3169	102.1252	107.219	201.8816	222.0303	225.7094	268.9525	312.1716	374.6537	443.9516	459.4137	482.6634	534.5449	582.4586	752.4917	796.3297	841.3461	859.9966	908.1968	944.5292	951.0364	962.114	1004.9272	1046.5675	1065.2397	1075.1868	1116.6414	1142.1008	1151.6288	1165.908	1183.0109	1198.8685	1274.5313	1291.2261	1307.2586	1334.7846	1348.1933	1353.0516	1385.7025	1402.3232	1410.7202	1429.9633	1452.0217	1478.3948	1486.2568	1486.6397	1498.8419	1500.6828	1507.5942	1514.4297	2927.5491	2975.556	3024.4981	3034.6716	3037.8976	3055.7753	3070.0567	3088.2139	3094.4057	3106.429	3109.5757	3109.8487	3119.1984	3176.3366	3719.2498
CCC1CN1CC(C)O	CC[C@H]1CN1C[C@@H](C)O	
InChI=1S/C7H15NO/c1-3-7-5-8(7)4-6(2)9/h6-7,9H,3-5H2,1-2H3	InChI=1S/C7H15NO/c1-3-7-5-8(7)4-6(2)9/h6-7,9H,3-5H2,1-2H3/t6-,7+,8?/m1/s1
