20
gdb 120781	3.29975	0.8634	0.76465	1.8171	75.25	-0.2482	0.0743	0.3225	1526.0376	0.17068	-440.226141	-440.216731	-440.215787	-440.261321	34.037	
O	-0.0144139844	 1.2717702329	 0.3956353508	-0.417743
C	-0.2168705768	-0.1296625478	 0.4537865211	-0.054441
C	-1.3720879124	-0.595186357	-0.441709005	-0.263291
C	-1.5089606478	-2.0979208042	-0.4531413771	 0.062943
O	-1.9952332396	-2.7414814332	 0.7439083632	-0.26628
C	-2.7893253134	-2.8262355697	-0.4433509248	 0.01783
C	-4.1307987298	-2.1540367261	-0.393523161	-0.032541
C	-5.1099901571	-2.5661490653	 0.6435168964	-0.239891
N	-4.4532768826	-1.2479683309	 0.715847461	-0.316444
H	-0.7963000504	 1.698280796	 0.760885365	 0.283928
H	 0.723799798	-0.5791128173	 0.1161866236	 0.110935
H	-0.3883081255	-0.4741476836	 1.4846284617	 0.103821
H	-2.3070249158	-0.1293140022	-0.114456914	 0.120351
H	-1.1814609893	-0.2519928799	-1.4661358057	 0.113728
H	-0.6562549409	-2.6247590735	-0.8874517013	 0.095986
H	-2.7979410814	-3.8174230891	-0.9021314658	 0.0981
H	-4.5072101226	-1.8321720019	-1.3629526568	 0.10012
H	-6.1740677084	-2.5426978017	 0.4277148244	 0.120304
H	-4.8002885057	-3.3298226725	 1.3521630259	 0.12271
H	-3.6926528042	-1.3177613029	 1.3909664585	 0.239874
54.3805	92.1754	104.6054	135.0355	196.432	243.8709	308.6236	312.3862	374.1876	499.822	546.246	626.3341	750.9216	782.7248	829.3443	861.09	878.9813	949.333	971.4416	1000.468	1010.5859	1059.1104	1076.3915	1098.1672	1112.1314	1136.5004	1148.8334	1155.9853	1187.2165	1212.1821	1274.9259	1289.5471	1300.3142	1315.2494	1321.8971	1381.2699	1399.0942	1422.6236	1424.5186	1480.0664	1486.6081	1505.7272	1514.2538	2995.1176	3039.6332	3062.9767	3076.3029	3087.2885	3101.533	3110.7958	3124.3517	3199.2552	3476.8102	3814.1941
OCCC1OC1C1CN1	OCC[C@H]1O[C@H]1[C@H]1CN1	
InChI=1S/C6H11NO2/c8-2-1-5-6(9-5)4-3-7-4/h4-8H,1-3H2	InChI=1S/C6H11NO2/c8-2-1-5-6(9-5)4-3-7-4/h4-8H,1-3H2/t4-,5-,6+/m1/s1
