18
gdb 16349	2.59729	2.19714	1.405	2.9623	73.17	-0.2348	-0.0164	0.2184	933.2623	0.152684	-347.808324	-347.800284	-347.79934	-347.840965	30.125	
C	-0.4550047605	 1.4090967312	 0.0344709426	-0.401274
C	 0.0506116983	-0.0251705431	-0.056848423	-0.081952
C	 1.3757862706	-0.2398734783	-0.8686989316	-0.36981
C	 2.0125357008	-0.8383504099	 0.4008527802	 0.352727
O	 3.0824195342	-1.3158337446	 0.6619287491	-0.318033
C	 0.7596496298	-0.6031551353	 1.1901457233	 0.238524
C	 0.7244824828	-0.1427202088	 2.633062242	-0.310255
C	 0.2427589913	-1.5127955606	 2.2824040189	-0.310368
H	 0.3348148445	 2.0836136442	 0.3827721083	 0.118114
H	-0.797167076	 1.7664180069	-0.9425078674	 0.11916
H	-1.2968538547	 1.4940162785	 0.7305163737	 0.115256
H	-0.7492761324	-0.6825738346	-0.4117261438	 0.078301
H	 1.322051078	-0.9282653438	-1.7164164004	 0.128477
H	 1.8620674059	 0.6830041815	-1.201453059	 0.127425
H	 1.6821688028	-0.0418956152	 3.1327101656	 0.13507
H	-0.0104744168	 0.6125635173	 2.8912681868	 0.122563
H	-0.8254032046	-1.7038840811	 2.298836506	 0.121093
H	 0.8671904759	-2.3622586341	 2.5390185288	 0.134982
48.1069	170.9924	194.51	213.6179	243.055	298.782	433.1498	484.7644	526.0148	605.1572	678.4037	766.9789	802.6729	827.9825	872.7172	909.282	935.0964	984.3954	1032.3178	1057.2049	1064.2466	1073.5738	1082.1308	1114.2796	1177.5892	1193.8868	1201.6261	1250.6809	1263.6334	1350.3569	1367.8084	1410.5557	1439.0001	1456.2694	1486.5075	1494.3857	1499.0695	1875.2913	3027.1068	3051.381	3055.7084	3093.3524	3100.0225	3111.5987	3127.7939	3130.6111	3211.0334	3225.9834
CC1CC(=O)C11CC1	C[C@H]1CC(=O)C21CC2	
InChI=1S/C7H10O/c1-5-4-6(8)7(5)2-3-7/h5H,2-4H2,1H3	InChI=1S/C7H10O/c1-5-4-6(8)7(5)2-3-7/h5H,2-4H2,1H3/t5-/m0/s1
