15
gdb 11444	3.79345	1.62132	1.27122	3.588	58.4	-0.2611	0.0476	0.3087	937.1105	0.119865	-436.950349	-436.942977	-436.942032	-436.982636	26.592	
O	 0.0440912242	 1.3003057049	 0.3194434327	-0.416858
C	-0.0145205257	-0.0981922289	 0.1733673357	-0.066881
C	-1.4225000646	-0.5655214075	-0.1892640378	 0.064529
C	-1.6093501655	-2.0880120868	-0.1670749025	-0.128994
O	-2.1706856582	-2.3326642595	 1.1258317024	-0.248472
C	-2.6532839941	-1.1653814651	 1.6404609062	 0.492932
N	-3.3041675881	-1.0145937163	 2.7035823821	-0.573113
O	-2.3327540937	-0.1223918347	 0.832862062	-0.247064
H	-0.6234757522	 1.5408845857	 0.9731765695	 0.299831
H	 0.6758295706	-0.3672787486	-0.6340497855	 0.116354
H	 0.3138452587	-0.6256190805	 1.0850344708	 0.101431
H	-1.7407873	-0.1044612481	-1.1271928852	 0.11248
H	-2.3023462216	-2.4388418772	-0.9387758389	 0.128126
H	-0.6682891287	-2.638245051	-0.2495157959	 0.131329
H	-3.4733231113	-1.9160980264	 3.1429583645	 0.23437
71.1742	131.6631	139.9757	228.6372	367.5121	433.4839	455.3852	512.4169	709.7271	718.0444	773.8258	806.1931	846.6216	904.4423	952.4451	1010.2137	1021.8252	1081.3904	1104.7569	1114.0345	1144.6706	1216.6017	1232.382	1264.6527	1322.1163	1363.9004	1396.3895	1418.1864	1437.4561	1496.4531	1520.1241	1803.4299	2968.2431	3047.255	3068.1312	3093.152	3103.7163	3539.6938	3794.2951
OCC1COC(=N)O1	OC[C@H]1CO[C]([NH])O1	
InChI=1S/C4H7NO3/c5-4-7-2-3(1-6)8-4/h3,5-6H,1-2H2	InChI=1S/C4H7NO3/c5-4-7-2-3(1-6)8-4/h3,5-6H,1-2H2/t3-/m0/s1
