21
gdb 68847	2.39566	1.76696	1.38786	1.286	81.41	-0.2452	0.0799	0.3251	1040.9273	0.182909	-387.081332	-387.072914	-387.07197	-387.113542	34.142	
C	-0.0752705727	 1.5129267977	 0.1151287587	-0.480069
C	-0.0402849917	 0.0036220953	 0.0989418401	 0.309738
C	 1.2783346018	-0.695903823	-0.2102429436	-0.403217
C	 0.6803291117	-0.7828017682	 1.1731869535	 0.364995
O	 1.2778886724	-0.0827565038	 2.2265742627	-0.475307
C	-0.1102508997	-2.0242843508	 1.4730359452	-0.107344
C	-1.4782307047	-1.7966799078	 2.0619728578	-0.295013
C	-1.3307598721	-2.0098547066	 0.5750631818	-0.01589
C	-1.3019526537	-0.7637427583	-0.3129861729	-0.30785
H	 0.8297981508	 1.9179397714	 0.5746128924	 0.127039
H	-0.158153824	 1.9191178144	-0.8996608723	 0.110925
H	-0.9329678888	 1.8800491967	 0.6905363409	 0.113357
H	 1.2789670473	-1.5783014402	-0.8437343856	 0.102911
H	 2.14360001	-0.0501316675	-0.3218188623	 0.106039
H	 2.0906735632	-0.5405502583	 2.4656968448	 0.280169
H	 0.4162340882	-2.9496245781	 1.6899606684	 0.074761
H	-1.9161852129	-2.6014941812	 2.6422656747	 0.106023
H	-1.7166475642	-0.8013101476	 2.4241892913	 0.117146
H	-1.7096061605	-2.9355337699	 0.1569337403	 0.079875
H	-2.1967724319	-0.1454925185	-0.1683810123	 0.096396
H	-1.2753847985	-1.0367300357	-1.3750294736	 0.095312
144.3046	192.0352	201.0773	225.6087	264.9645	349.0006	362.2417	419.9849	454.7971	502.938	544.8046	631.037	693.7265	764.5829	802.8744	831.2816	881.1458	902.3783	919.4547	940.2118	974.8742	996.8887	1012.6539	1040.4497	1043.3801	1064.6917	1088.5193	1110.3558	1129.845	1154.9745	1201.105	1211.3884	1247.1841	1263.8007	1293.0132	1327.7209	1364.0187	1387.5298	1401.9598	1417.6218	1475.3282	1488.6085	1489.8862	1498.2676	1505.2927	3017.9733	3026.0668	3051.7324	3080.7792	3114.7147	3118.8322	3126.3613	3141.3563	3171.6909	3206.6907	3212.9866	3800.7126
CC12CC1(O)C1CC1C2	C[C@@]12C[C@]1(O)[C@H]1C[C@H]1C2	
InChI=1S/C8H12O/c1-7-3-5-2-6(5)8(7,9)4-7/h5-6,9H,2-4H2,1H3	InChI=1S/C8H12O/c1-7-3-5-2-6(5)8(7,9)4-7/h5-6,9H,2-4H2,1H3/t5-,6-,7+,8-/m0/s1
