18
gdb 6532	3.38643	1.54613	1.29459	1.2892	64.83	-0.2364	0.065	0.3015	996.4667	0.150523	-422.052499	-422.043161	-422.042217	-422.08567	34.875	
C	-0.0322797946	 1.5295657199	 0.0044776794	-0.441543
C	 0.0069042841	 0.0193543644	 0.029490748	 0.325372
O	-1.1561663333	-0.6002626943	-0.4685931313	-0.466894
C	 1.3235324376	-0.7134456004	-0.1761140848	-0.410529
C	 0.6332007297	-0.696265884	 1.1829905267	 0.405727
O	 1.1781006993	 0.1097687718	 2.1880731312	-0.482097
C	 0.0308193786	-1.9666202061	 1.7284464763	-0.144362
O	 1.078126387	-2.6114016043	 2.4602899058	-0.437856
H	 0.840799499	 1.9522451957	 0.5041503049	 0.139193
H	-0.0536889646	 1.8952661331	-1.0293634092	 0.101923
H	-0.9310797008	 1.8914589748	 0.5133004331	 0.125255
H	-1.1755496117	-0.4577378384	-1.4215933801	 0.280466
H	 1.3008599597	-1.6378188669	-0.7433068005	 0.109083
H	 2.2247883946	-0.1187488776	-0.276574104	 0.112495
H	 1.711404551	-0.489968042	 2.7263445594	 0.288254
H	-0.8075274238	-1.7140336689	 2.3931263502	 0.098968
H	-0.3482540711	-2.5983414783	 0.9182611061	 0.10476
H	 0.6804189793	-3.2560473685	 3.051612869	 0.291785
98.773	158.7674	188.9863	204.3718	241.718	265.8663	291.4957	319.8334	396.6108	405.8154	427.4077	454.0351	475.9984	588.7629	708.1834	780.551	911.6171	913.7811	919.6796	976.3553	1008.2089	1035.1088	1045.0336	1088.6288	1132.9728	1218.1299	1231.404	1246.859	1286.9798	1313.1332	1346.7592	1409.4672	1419.534	1447.8784	1485.1981	1488.0345	1511.0703	1531.2061	3003.7474	3029.5871	3069.9984	3095.0326	3129.2732	3142.4756	3226.3643	3766.2936	3791.9007	3842.8986
CC1(O)CC1(O)CO	C[C@@]1(O)C[C@]1(O)CO	
InChI=1S/C5H10O3/c1-4(7)2-5(4,8)3-6/h6-8H,2-3H2,1H3	InChI=1S/C5H10O3/c1-4(7)2-5(4,8)3-6/h6-8H,2-3H2,1H3/t4-,5+/m1/s1
