15
gdb 56489	2.12426	1.42568	0.88636	4.3696	75.69	-0.2931	-0.0179	0.2752	1240.2315	0.110202	-379.65591	-379.64638	-379.645436	-379.690609	33.489	
C	 0.0056676894	 1.5654082391	-0.000319492	-0.414222
C	 0.0312647932	 0.0263258244	 0.0196030363	-0.169102
C	 0.7281838652	-0.4837393854	 1.1948756598	 0.31295
C	 1.2834826015	-0.884786475	 2.1814056879	-0.426066
C	-1.4284565869	-0.5623139505	-0.0144300558	-0.291584
C	-2.1821935598	-0.0598731981	-1.1714842351	 0.300264
N	-2.7580737193	 0.364086443	-2.0778367948	-0.306047
C	-1.4234514584	-2.0312787079	-0.0160669752	 0.310037
N	-1.4118602713	-3.1853149447	-0.0157606201	-0.29932
H	 1.0285167814	 1.9469589544	 0.016480654	 0.146197
H	-0.4907236384	 1.9350692139	-0.9006696392	 0.15439
H	-0.5156498518	 1.9559718266	 0.878558417	 0.136797
H	 0.537892996	-0.333913134	-0.8833764644	 0.146627
H	 1.785891378	-1.2536630035	 3.0419459108	 0.21379
H	-1.9428713289	-0.2282025122	 0.8954474709	 0.185288
55.0529	109.7762	140.6814	175.7466	193.0694	216.9886	264.5747	332.0618	386.9114	463.9154	504.132	522.2877	572.1425	589.4076	651.6403	676.2936	838.8242	879.3198	968.1493	1017.2254	1057.174	1094.0908	1135.4747	1236.8475	1308.4718	1329.0561	1345.1799	1415.1105	1493.2235	1497.1036	2243.2388	2368.6394	2375.4249	3038.5204	3050.79	3055.0505	3129.3322	3140.7814	3501.2496
CC(C#C)C(C#N)C#N	C[C@@H](C#C)C(C#N)C#N	
InChI=1S/C7H6N2/c1-3-6(2)7(4-8)5-9/h1,6-7H,2H3	InChI=1S/C7H6N2/c1-3-6(2)7(4-8)5-9/h1,6-7H,2H3/t6-/m0/s1
