21
gdb 6292	3.83473	1.0782	0.99732	3.8558	76.64	-0.2393	0.0323	0.2716	1275.4958	0.186974	-366.298745	-366.288732	-366.287788	-366.334048	35.222	
C	-0.0234700476	 1.4510961199	 0.3009789464	-0.3874
C	-0.0377215257	-0.0540778858	 0.0128472061	 0.028694
C	-1.4698883106	-0.5935396202	-0.0914637923	-0.386947
C	 0.7355433737	-0.3955467312	-1.2773069251	-0.169961
N	 2.14154632	-0.0315654806	-1.266097537	-0.027778
C	 3.0517675178	-0.7743200465	-0.4112430604	-0.348557
C	 2.6360019339	 0.9385831976	-2.0888628585	 0.151123
O	 3.7964706548	 1.2866371943	-2.1572126128	-0.345097
H	 0.9968076788	 1.8364741736	 0.3834291777	 0.127798
H	-0.5271074644	 2.0069417603	-0.4994492176	 0.112736
H	-0.5441639765	 1.6747730111	 1.2372742752	 0.116091
H	 0.4552416279	-0.5698330899	 0.8479294619	 0.080219
H	-2.0101510362	-0.1164517916	-0.9180785839	 0.115902
H	-1.4819538377	-1.6748366209	-0.2654202708	 0.113392
H	-2.0309739578	-0.3960076821	 0.8268667683	 0.117812
H	 0.6494452713	-1.4738198663	-1.4744773447	 0.101829
H	 0.2641740658	 0.1207192804	-2.1224715412	 0.111932
H	 2.959870797	-1.851028596	-0.598936162	 0.121658
H	 4.065339442	-0.4467096074	-0.6426979694	 0.168537
H	 2.8511520316	-0.5908316116	 0.6502758108	 0.128045
H	 1.8375895417	 1.3897291028	-2.7103312909	 0.069972
49.4731	69.942	108.3914	154.721	218.8345	243.4079	264.7233	298.5005	346.9171	351.0693	394.9172	422.3796	443.2719	713.8199	819.6449	872.6809	908.3199	931.5287	950.912	971.5371	1030.1863	1089.7124	1135.9644	1143.9	1161.6871	1194.2327	1263.584	1279.0754	1332.901	1366.4385	1391.9113	1403.3651	1424.521	1432.747	1437.826	1442.8573	1478.2491	1488.2559	1493.7888	1498.2844	1504.9499	1510.8324	1522.1075	1793.394	2936.1863	2998.4739	3011.366	3023.021	3025.9042	3030.3139	3057.4569	3073.2306	3090.5336	3096.3915	3105.4767	3112.2695	3155.6093
CC(C)CN(C)C=O	CC(C)CN(C)C=O	
InChI=1S/C6H13NO/c1-6(2)4-7(3)5-8/h5-6H,4H2,1-3H3	InChI=1S/C6H13NO/c1-6(2)4-7(3)5-8/h5-6H,4H2,1-3H3
