14
gdb 129806	3.3793	1.61282	1.10632	3.224	64.92	-0.201	0.0262	0.2272	1010.0075	0.103683	-469.981833	-469.97449	-469.973546	-470.013594	27.499	
N	 0.1614568953	 1.4243748803	-0.0847841867	-0.617222
C	-0.0387575698	 0.0427587837	-0.0280637101	 0.187949
C	-1.1255215541	-0.7818843076	-0.0631273139	 0.200295
O	-2.4972389387	-0.8099559582	 0.0295583795	-0.300643
C	-2.7953377424	-2.1962546565	-0.2297042535	-0.000619
O	-1.6201063025	-2.9889434292	 0.0289633682	-0.270445
C	-0.6101854608	-2.0790499246	-0.0503593795	 0.383411
N	 0.6900388544	-2.1698265125	-0.0168428065	-0.353289
N	 1.046789325	-0.821100751	 0.0429556317	-0.265414
H	 0.6900673777	 1.7743353893	 0.7070652438	 0.256305
H	-0.7158123268	 1.9249058338	-0.1429671172	 0.259793
H	-3.5976257397	-2.519532149	 0.4358585155	 0.136736
H	-3.0762604855	-2.3137135578	-1.2862267345	 0.116976
H	 1.944113558	-0.5872970407	-0.3525907668	 0.266167
147.2405	159.9222	196.1656	270.9974	309.6628	383.7905	440.7008	565.4154	598.8403	614.225	676.5764	721.7147	774.989	786.7662	811.9361	923.1989	1052.2647	1077.7099	1094.6918	1133.2563	1140.0714	1224.1021	1260.0934	1323.2566	1401.2417	1460.5239	1516.6477	1534.1397	1629.4642	1641.6898	1741.0262	2999.5089	3120.0453	3519.0835	3619.8236	3640.8567
NC1=C2OCOC2=NN1	Nc1c2OCOc2n[nH]1	
InChI=1S/C4H5N3O2/c5-3-2-4(7-6-3)9-1-8-2/h1H2,(H3,5,6,7)	InChI=1S/C4H5N3O2/c5-3-2-4(7-6-3)9-1-8-2/h1H2,(H3,5,6,7)
