20
gdb 103123	2.41529	1.19239	1.00679	2.5182	77.1	-0.2502	0.0026	0.2528	1275.3429	0.16823	-440.283198	-440.27289	-440.271945	-440.318419	36.888	
C	 0.0837757882	 1.3273796008	-0.3824347368	-0.41519
C	-0.0489372355	-0.1187223994	 0.0345865635	-0.048592
N	 1.0538306982	-1.0530481965	-0.1078241916	-0.108026
C	 2.2682428584	-0.823488165	-0.7160085969	 0.140234
O	 2.4201482114	-0.2751653629	-1.7824937054	-0.30338
C	 0.6287225009	-0.7153449004	 1.2504573052	 0.241527
C	 1.5388095735	 0.0995975644	 2.1469354275	-0.465957
C	-0.0624628881	-1.8744516951	 1.9538062322	-0.108118
O	 0.8678164653	-2.8482949713	 2.3946574302	-0.415536
H	 1.0234417096	 1.7750418495	-0.0553569481	 0.130122
H	 0.0455977733	 1.4079754397	-1.4717627583	 0.15246
H	-0.7426045735	 1.9090519523	 0.0385471225	 0.121765
H	-1.0115498899	-0.5589403071	-0.2283530793	 0.097342
H	 3.1041918999	-1.2784225513	-0.1476902485	 0.079254
H	 2.1415325284	 0.8210310912	 1.5918155664	 0.129529
H	 0.9462447352	 0.64570093	 2.8886609095	 0.12934
H	 2.2120611314	-0.5702192803	 2.6891266732	 0.145131
H	-0.5762139262	-1.5144812793	 2.8517433513	 0.114082
H	-0.8153105458	-2.3135416677	 1.2839410354	 0.095495
H	 1.2812178253	-3.2149117516	 1.6045955082	 0.288517
72.7348	112.3752	139.1362	162.794	172.6438	188.1919	250.0304	277.2944	312.5637	329.3788	400.9752	424.1182	484.5776	547.2271	633.0938	759.5271	820.6124	872.6761	937.5077	989.904	1010.5226	1034.3916	1060.2049	1077.2396	1084.8422	1150.1431	1169.1441	1195.2148	1230.3805	1306.5865	1364.133	1390.49	1412.0294	1416.2438	1417.6168	1427.5217	1451.2355	1478.926	1485.3736	1491.2023	1496.9525	1512.6653	1789.3116	2931.2424	3003.2896	3043.8682	3050.5323	3077.1713	3096.113	3109.752	3119.2644	3131.5647	3143.9759	3797.8093
CC1N(C=O)C1(C)CO	C[C@H]1N(C=O)[C@]1(C)CO	
InChI=1S/C6H11NO2/c1-5-6(2,3-8)7(5)4-9/h4-5,8H,3H2,1-2H3	InChI=1S/C6H11NO2/c1-5-6(2,3-8)7(5)4-9/h4-5,8H,3H2,1-2H3/t5-,6-,7?/m1/s1
