18
gdb 71361	3.05976	1.86905	1.52942	1.8102	74.11	-0.2244	0.0833	0.3076	912.3185	0.148525	-401.853916	-401.847017	-401.846073	-401.884898	28.504	
C	 0.0573522054	 1.5024350401	-0.1412637426	-0.523701
C	-0.0090124955	 0.0095318338	-0.0083468216	 0.40051
O	 0.64400178	-0.7503288834	-1.092458691	-0.350429
C	 0.1397437662	-1.776110249	-0.1948743446	 0.057943
C	 0.5737014022	-0.9559966678	 1.0745283333	-0.105211
C	-0.4785935789	-1.2270052516	 2.1278584988	-0.054058
C	-1.5968728857	-0.2615288226	 2.3090061455	-0.249271
N	-1.730052576	-1.3497422197	 1.3243224528	-0.11814
C	-1.2069274846	-1.0240333236	-0.0051802634	-0.065815
H	 1.0976592415	 1.8063492693	-0.2967590748	 0.138422
H	-0.5279742136	 1.8346983738	-1.0042593761	 0.136995
H	-0.316722285	 2.014059731	 0.7483986757	 0.130388
H	 0.3231199498	-2.8209628216	-0.4432810243	 0.096758
H	 1.6283944073	-0.8912511424	 1.3370317939	 0.080411
H	-0.2985734955	-1.9956826571	 2.874312043	 0.099449
H	-2.2434263586	-0.3733329875	 3.1748521882	 0.120875
H	-1.4935588377	 0.7591033051	 1.9584620804	 0.117353
H	-1.9406470714	-0.9995410567	-0.8095094934	 0.087522
122.1729	225.3751	258.3009	359.0909	393.7409	489.4248	525.7404	622.8296	673.503	707.5767	775.1359	789.9256	807.4741	829.3881	874.4391	906.0139	933.9489	972.3928	1004.9861	1019.2217	1026.5933	1063.2206	1085.6165	1103.5957	1113.5948	1148.6439	1154.7765	1187.7092	1205.1184	1233.8748	1238.5734	1264.7957	1270.595	1363.2279	1385.8782	1411.9006	1474.4645	1485.6147	1510.8122	3042.0977	3109.029	3123.5312	3124.6429	3130.3246	3137.4637	3141.2347	3150.5509	3216.6872
CC12OC3C1C1CN1C23	C[C@@]12O[C@H]3[C@@H]1[C@H]1CN1[C@@H]23	
InChI=1S/C7H9NO/c1-7-4-3-2-8(3)6(7)5(4)9-7/h3-6H,2H2,1H3	InChI=1S/C7H9NO/c1-7-4-3-2-8(3)6(7)5(4)9-7/h3-6H,2H2,1H3/t3-,4+,5+,6-,7-,8?/m1/s1
