14
gdb 129856	5.37862	1.26142	1.02433	5.8108	72.77	-0.1936	-0.0005	0.1931	1073.4984	0.104032	-432.86411	-432.857117	-432.856173	-432.895241	27.315	
N	 0.0908836943	 1.3864371949	 0.1268276139	-0.600992
C	-0.0092670534	-0.0015256047	 0.0198832393	 0.362027
C	-1.1271518885	-0.8220705266	-0.0047183445	-0.425361
C	-0.5938954647	-2.1367550119	-0.0001935321	 0.439884
C	 0.7830201995	-2.0883558814	 0.0161496043	 0.172364
N	 1.1534721972	-0.752281361	 0.0000423233	-0.447931
C	 1.1828578866	-3.4361101846	-0.0349449673	-0.100827
N	 0.1329761511	-4.2377321614	-0.0610093196	-0.161896
O	-1.0152777989	-3.4069258384	-0.0496311889	-0.245536
H	 0.6513596376	 1.8072093465	-0.6064028202	 0.252867
H	-0.8183804659	 1.8283408152	 0.1474380608	 0.258297
H	-2.1537626454	-0.4992582174	-0.0526719918	 0.108696
H	 2.0460117686	-0.3789252358	 0.2734193055	 0.264146
H	 2.166474312	-3.8830672734	-0.0407821928	 0.124262
153.1867	210.6238	281.0652	315.0326	334.1522	405.2906	513.9461	563.263	604.5846	649.1942	712.3389	745.6219	766.9121	776.2061	840.8727	858.1292	880.2937	966.0774	1008.4095	1115.181	1183.5331	1189.5614	1214.285	1294.952	1415.5423	1437.8616	1493.7753	1536.9936	1602.1101	1605.3216	1655.978	3245.307	3268.4029	3519.2989	3626.2757	3675.1811
NC1=CC2=C(N1)C=NO2	Nc1cc2c([nH]1)cno2	
InChI=1S/C5H5N3O/c6-5-1-4-3(8-5)2-7-9-4/h1-2,8H,6H2	InChI=1S/C5H5N3O/c6-5-1-4-3(8-5)2-7-9-4/h1-2,8H,6H2
