19
gdb 111658	2.26484	1.64846	1.24839	3.7275	75.67	-0.2329	0.0186	0.2515	1084.8928	0.160751	-419.221098	-419.212722	-419.211777	-419.254283	31.699	
C	 0.3887261423	 1.4076778537	-0.2000382399	-0.379047
C	-0.2922497402	 0.0853667767	 0.1450228465	-0.13393
N	 0.4714912683	-0.613990663	 1.1789445971	-0.084736
C	 0.442863367	-2.0510147339	 1.3482843423	-0.042476
C	-0.0538221383	-2.9390388638	 0.2062312025	-0.204402
N	 0.8642628099	-2.6389093126	-0.8779068144	-0.301815
C	 1.9053521948	-1.8018543097	-0.561602385	 0.401735
O	 2.8088067323	-1.4754894622	-1.3011075244	-0.384384
C	 1.6895674346	-1.3669402679	 0.8738025083	-0.156758
H	 1.3711673199	 1.2293437647	-0.6477672112	 0.142701
H	-0.2141316834	 1.9723510135	-0.9174236694	 0.112693
H	 0.5252786013	 2.0166254303	 0.6979725656	 0.125591
H	-1.2870993272	 0.2693926299	 0.567379126	 0.103564
H	-0.434765428	-0.504532665	-0.7721772987	 0.097027
H	 0.3108617623	-2.4129856778	 2.3632993323	 0.103613
H	-0.0012604964	-3.9941423425	 0.5038956137	 0.118688
H	-1.0939833476	-2.7213957691	-0.0696100402	 0.118046
H	 0.7497785817	-2.9798515957	-1.8194240074	 0.252763
H	 2.5665171367	-1.1543339256	 1.4753183763	 0.111125
70.7889	111.9484	184.8421	209.1557	253.8704	304.9265	417.7222	452.9774	489.4542	519.9055	639.6278	688.5096	764.4217	783.5063	826.5745	848.9343	889.1427	935.7133	967.4004	998.3881	1039.6472	1077.1174	1089.8767	1111.5374	1137.9511	1178.0577	1223.3083	1260.7433	1285.6713	1300.6298	1304.2704	1345.5638	1382.6517	1399.6021	1414.8564	1447.3129	1491.3553	1499.8522	1515.0716	1522.8484	1822.4384	2997.6816	3012.9596	3041.5707	3043.0356	3051.1404	3116.3463	3122.2698	3155.3185	3175.9331	3637.2654
CCN1C2CNC(=O)C12	CCN1[C@H]2CNC(=O)[C@@H]12	
InChI=1S/C6H10N2O/c1-2-8-4-3-7-6(9)5(4)8/h4-5H,2-3H2,1H3,(H,7,9)	InChI=1S/C6H10N2O/c1-2-8-4-3-7-6(9)5(4)8/h4-5H,2-3H2,1H3,(H,7,9)/t4-,5-,8?/m0/s1
