13
gdb 27614	3.51061	1.28652	0.9415	1.3669	79.14	-0.2435	-0.0638	0.1797	1143.1546	0.090211	-415.631769	-415.624571	-415.623627	-415.663463	27.51	
O	 0.1086291939	 1.3262067321	 0.0818687492	-0.415807
C	 0.0694396355	-0.016569761	 0.0431831855	 0.395328
N	 0.0778555201	-0.6128236024	-1.1359649259	-0.401532
C	 0.0375960251	-1.9601243878	-1.1325868819	 0.151563
C	-0.0103956009	-2.6745053303	 0.068920193	-0.076515
N	-0.0183071564	-2.0570497536	 1.2536530609	-0.223185
C	 0.0212091305	-0.7328864868	 1.2523156724	-0.064203
C	 0.0450851336	-2.6423854922	-2.3851010576	 0.238562
C	 0.0500706263	-3.2495741315	-3.4239467313	-0.36822
H	 0.1380531154	 1.6285360106	-0.8371847641	 0.30466
H	-0.0426275822	-3.758560761	 0.0648719432	 0.124004
H	 0.0156383604	-0.2106225024	 2.2039444868	 0.131501
H	 0.0548991403	-3.7759271136	-4.3467092701	 0.203842
136.4971	144.5193	209.216	372.932	390.7511	483.4544	495.0893	545.9149	553.9979	590.9194	626.3789	663.3191	690.224	716.3983	780.8086	904.3146	948.3773	1008.4569	1019.6073	1179.1967	1195.8366	1266.9511	1290.973	1359.3562	1457.9072	1491.5229	1591.0615	1617.4218	2232.309	3180.8389	3192.3543	3499.8085	3761.2785
OC1=NC(=CN=C1)C#C	Oc1nc(cnc1)C#C	
InChI=1S/C6H4N2O/c1-2-5-3-7-4-6(9)8-5/h1,3-4H,(H,8,9)	InChI=1S/C6H4N2O/c1-2-5-3-7-4-6(9)8-5/h1,3-4H,(H,8,9)
