16
gdb 83410	2.79223	1.39903	1.18014	3.574	65.54	-0.2435	0.0093	0.2529	1067.5538	0.123622	-475.005921	-474.997403	-474.996458	-475.039123	31.72	
N	 0.076839548	 0.8795674014	 0.8782131329	-0.541996
C	-0.0283401323	 0.0353789762	-0.1807552074	 0.310136
O	 0.804906879	-0.0911175835	-1.0592013576	-0.374973
C	-1.2889002006	-0.757538138	-0.1867549728	 0.287658
O	-2.2525434177	-0.6124564833	 0.8733901904	-0.355985
C	-2.4383630247	-2.0646719179	 0.9186009739	-0.116339
C	-1.5378121521	-2.2688763909	-0.2918357016	-0.212536
C	-1.9755938071	-1.3263597954	-1.3888771652	 0.090032
O	-3.3065475812	-1.0323885968	-1.6556291596	-0.432624
H	 0.8998772365	 1.4510773519	 0.9684612801	 0.265334
H	-0.6378402329	 0.8981223413	 1.5859767127	 0.273399
H	-2.0330168742	-2.4660284946	 1.8515635451	 0.124217
H	-3.4916448839	-2.3420049091	 0.8101120813	 0.12337
H	-0.8209679014	-3.0658770741	-0.4335912266	 0.121302
H	-1.3558614614	-1.3604150874	-2.2788116835	 0.14141
H	-3.6271445138	-0.4992977499	-0.915826822	 0.297593
73.1338	147.2949	176.898	217.4827	236.8272	281.1404	358.7229	405.8871	479.404	523.3833	594.0007	622.3697	678.6091	745.7188	801.1426	842.6551	904.9485	959.032	969.0039	988.9452	1023.9886	1083.3014	1099.5872	1114.5321	1160.4235	1168.8439	1205.2453	1306.6829	1314.3636	1360.8366	1393.699	1465.8366	1511.7469	1603.447	1792.4884	3047.3289	3102.7691	3185.1847	3214.1407	3600.5775	3741.3587	3760.6188
NC(=O)C12OCC1C2O	NC(=O)[C@]12OC[C@H]1[C@H]2O	
InChI=1S/C5H7NO3/c6-4(8)5-2(1-9-5)3(5)7/h2-3,7H,1H2,(H2,6,8)	InChI=1S/C5H7NO3/c6-4(8)5-2(1-9-5)3(5)7/h2-3,7H,1H2,(H2,6,8)/t2-,3+,5-/m0/s1
