16
gdb 97514	3.39792	0.773	0.64693	2.5563	78.03	-0.2573	-0.0397	0.2175	1672.6237	0.122612	-437.837469	-437.827944	-437.827	-437.873742	32.343	
O	 0.070608316	 1.4312410009	 0.0700680138	-0.396475
C	-0.0506414733	 0.0405903656	-0.1770334925	-0.20499
C	-1.4178247298	-0.4624824959	-0.0613128477	 0.098392
C	-2.5487646926	-0.8612600248	 0.0725342131	 0.016273
C	-3.8945912672	-1.3870779106	 0.185481944	 0.203079
O	-4.1690188783	-2.5501667454	-0.0188451643	-0.319793
N	-4.8241568427	-0.4437713798	 0.6191646372	-0.074207
C	-5.1988950956	 0.7425351016	-0.1310838507	-0.225822
C	-6.1652434562	-0.385687677	 0.0852915527	-0.220365
H	-0.2906125604	 1.6054869424	 0.9456502161	 0.291974
H	 0.3134606093	-0.1180212137	-1.1982840866	 0.153403
H	 0.6012488763	-0.5517414164	 0.4848252001	 0.132754
H	-5.2906477731	 1.658401844	 0.4454568346	 0.131062
H	-4.7768435772	 0.8632229604	-1.1253907113	 0.139148
H	-6.3875327937	-1.039052986	-0.7537636478	 0.143595
H	-6.9612372614	-0.2804063053	 0.8163937993	 0.131971
33.4588	58.4947	85.2909	144.1283	184.1146	226.9546	264.4565	311.2034	399.133	420.986	544.7462	613.2228	690.2345	773.2333	815.5665	876.1759	970.7061	976.3512	1016.941	1048.0344	1070.4135	1127.7529	1134.9426	1166.9077	1174.8345	1210.2055	1213.72	1360.8693	1388.4978	1414.1001	1479.0898	1497.7802	1524.7542	1758.0537	2336.1827	2982.0793	3066.7257	3113.3452	3119.971	3198.5602	3212.8781	3815.4908
OCC#CC(=O)N1CC1	OCC#CC(=O)N1CC1	
InChI=1S/C6H7NO2/c8-5-1-2-6(9)7-3-4-7/h8H,3-5H2	InChI=1S/C6H7NO2/c8-5-1-2-6(9)7-3-4-7/h8H,3-5H2
