22
gdb 107668	3.15084	1.24027	1.04558	1.7621	81.57	-0.2352	0.0829	0.3181	1246.3386	0.196433	-404.337221	-404.328562	-404.327618	-404.370475	33.647	
C	 0.1059321701	 1.4551270921	-0.4612529292	-0.384308
C	-0.0092086879	 0.0949780011	 0.2391084439	-0.243876
C	-1.4127376357	-0.4816983209	 0.2126923279	 0.307084
C	-2.4614751007	 0.2804528927	 1.0111880761	-0.162988
O	-3.7163475176	-0.3748006639	 1.0297639677	-0.245151
C	-3.6146878721	-1.6668964838	 1.6102704293	-0.07534
C	-2.8314876116	-2.6292692941	 0.7101426393	-0.248092
C	-1.6318898868	-1.9500434449	 0.0627645085	-0.059279
N	-1.8394875774	-1.0356633953	-1.0823242288	-0.37242
H	 1.1472893212	 1.789028087	-0.4950491931	 0.111594
H	-0.2620541472	 1.3823753529	-1.4890869748	 0.13477
H	-0.4697658985	 2.2326377147	 0.0515661206	 0.113168
H	 0.6590896386	-0.618944486	-0.2540118186	 0.105377
H	 0.3298376539	 0.1753435922	 1.2807053509	 0.090724
H	-2.0968389256	 0.4359450751	 2.0415651259	 0.08988
H	-2.6440255705	 1.2651101123	 0.5681895046	 0.113076
H	-3.1240209275	-1.5863786297	 2.5941195812	 0.090251
H	-4.6382923441	-2.0157167872	 1.7726902955	 0.108409
H	-2.4970273776	-3.4866966181	 1.3049527278	 0.103968
H	-3.4853814791	-3.0314718267	-0.073931292	 0.111216
H	-0.7542278277	-2.5816571065	-0.0607396449	 0.084917
H	-2.8416859463	-0.8800684531	-1.1883841678	 0.227018
74.8275	128.892	171.081	226.438	272.0077	330.0122	352.8026	402.1531	416.9932	503.1021	552.1952	630.7545	737.5388	778.7557	805.819	864.9728	894.1366	923.7114	944.5229	977.6937	1018.8734	1041.2142	1058.5677	1082.9358	1103.8361	1129.8695	1134.3257	1168.5719	1194.2502	1248.7051	1273.6717	1287.9122	1311.286	1325.4654	1356.5492	1365.4087	1373.1798	1394.5764	1406.713	1422.5935	1456.4822	1477.4761	1484.9981	1492.1581	1501.1706	1504.5099	1509.476	2956.1502	2972.3528	3020.5506	3025.0383	3037.4265	3066.6638	3067.647	3069.8979	3088.2712	3104.4459	3115.6739	3118.698	3467.9993
CCC12COCCC1N2	CC[C@]12COCC[C@H]1N2	
InChI=1S/C7H13NO/c1-2-7-5-9-4-3-6(7)8-7/h6,8H,2-5H2,1H3	InChI=1S/C7H13NO/c1-2-7-5-9-4-3-6(7)8-7/h6,8H,2-5H2,1H3/t6-,7+/m1/s1
