19
gdb 94158	2.17927	1.51378	1.29913	3.5713	71.44	-0.2385	-0.0286	0.2099	1099.1239	0.156419	-460.170087	-460.160463	-460.159519	-460.204582	35.849	
C	 0.2145364601	 1.3104909022	-0.0035103011	-0.493791
C	 0.0118734597	-0.1854679059	-0.0915863705	 0.366017
O	 0.944649909	-0.9492870488	-0.26056357	-0.338587
C	-1.4115379371	-0.719693436	 0.0465476025	 0.217656
O	-2.2820105747	 0.205289127	 0.6634408637	-0.472948
C	-1.908700588	-1.3991002499	-1.2759430167	-0.285823
C	-1.5222611045	-2.7847540198	-0.700597652	-0.260729
C	-1.4466763143	-2.1465178854	 0.712164804	 0.141009
O	-0.4415849752	-2.531185165	 1.594345494	-0.432917
H	 1.2690567884	 1.5454012145	-0.1498753195	 0.143482
H	-0.386414632	 1.8302817788	-0.7595431203	 0.128181
H	-0.1280529061	 1.6704654377	 0.9711844383	 0.164627
H	-2.5805967159	 0.8410204391	 0.0048212129	 0.281103
H	-2.9900373361	-1.2625640859	-1.3619203489	 0.109862
H	-1.4280163542	-1.0897782466	-2.2062251256	 0.108955
H	-2.2260997095	-3.6065555974	-0.8438108709	 0.10378
H	-0.5300143266	-3.0935107286	-1.0351463585	 0.121269
H	-2.3966677342	-2.2276058249	 1.2471045869	 0.103563
H	 0.3954359611	-2.4035521952	 1.1263666916	 0.295292
43.2782	133.091	158.1727	189.5372	211.3185	237.0559	291.9277	316.1035	397.535	457.4742	465.4296	547.0511	565.2116	612.7803	637.0953	677.0126	792.2645	845.9092	906.9862	946.5123	956.104	977.491	1049.9987	1074.5462	1118.3228	1148.1925	1168.2484	1209.9223	1224.5873	1239.4042	1260.5604	1311.8955	1325.1957	1346.5286	1378.8667	1450.2769	1457.4434	1470.9115	1471.8976	1485.7527	1770.9882	3037.1632	3061.2731	3076.2295	3084.2345	3103.7646	3117.5124	3138.5806	3158.6948	3742.7085	3811.0689
CC(=O)C1(O)CCC1O	CC(=O)[C@@]1(O)CC[C@H]1O	
InChI=1S/C6H10O3/c1-4(7)6(9)3-2-5(6)8/h5,8-9H,2-3H2,1H3	InChI=1S/C6H10O3/c1-4(7)6(9)3-2-5(6)8/h5,8-9H,2-3H2,1H3/t5-,6+/m1/s1
