23
gdb 96489	2.44097	1.3947	1.0053	1.0197	87.89	-0.2348	0.0231	0.2579	1275.0295	0.207256	-388.294338	-388.285449	-388.284505	-388.327387	35.173	
C	-0.0940833996	 1.6217855431	-0.0317710884	-0.402035
C	-0.0854192012	 0.086405396	-0.0020289068	 0.030146
C	 0.5190584015	-0.4419712446	-1.315149788	-0.068761
O	 0.2985295335	-1.8271519256	-1.5146890502	-0.238165
C	 1.4270887786	-2.6707862087	-1.4587672763	-0.062286
C	 2.123747462	-2.7193065097	-0.0781663376	-0.285457
C	 1.1386682229	-2.8917756541	 1.0420578735	-0.02592
C	 0.4664570535	-1.8832708748	 1.597135697	-0.04945
C	 0.6433879135	-0.419051498	 1.26914634	-0.251055
H	 0.9261904628	 2.0237300001	-0.0617732696	 0.112612
H	-0.6265669079	 2.0024193974	-0.9095841979	 0.112877
H	-0.5815265674	 2.0300405565	 0.8587320078	 0.114942
H	-1.1229033632	-0.2704388995	 0.030996145	 0.084389
H	 0.0384029741	 0.0829698625	-2.1522776787	 0.095368
H	 1.5919405758	-0.1990672675	-1.3613757841	 0.084219
H	 1.0475787328	-3.6652710991	-1.716723422	 0.106336
H	 2.1680094573	-2.3883063073	-2.2247228589	 0.085302
H	 2.8516527377	-3.5385997181	-0.1014450633	 0.096663
H	 2.6998588311	-1.7971532737	 0.0611271908	 0.103621
H	 0.9157348203	-3.9100339253	 1.3527814355	 0.082467
H	-0.2805652436	-2.1127344816	 2.3542059383	 0.082257
H	 1.7106319959	-0.1770449567	 1.1667239223	 0.098809
H	 0.2846149996	 0.1724417585	 2.1192959913	 0.093123
116.478	151.9592	205.0305	218.5445	259.7927	281.9534	340.4192	373.2161	401.2669	471.1078	482.296	553.2201	608.4734	728.0157	840.6207	848.572	865.6578	891.532	925.9085	944.5754	985.5346	991.8208	997.8272	1032.5873	1077.9946	1093.0941	1135.4242	1153.7258	1167.1144	1228.3573	1247.9961	1277.1666	1285.9714	1301.5889	1319.6744	1341.425	1354.2665	1375.0219	1397.0488	1404.9296	1419.1935	1431.2012	1477.2133	1487.7204	1494.6819	1498.2143	1503.4958	1507.8222	1722.1481	2967.8597	2982.5411	3006.2778	3019.544	3026.661	3031.5521	3035.2126	3055.4321	3060.7796	3078.6692	3090.57	3104.3143	3135.9293	3160.8082
CC1COCCC=CC1	C[C@H]1COCCC=CC1	
InChI=1S/C8H14O/c1-8-5-3-2-4-6-9-7-8/h2-3,8H,4-7H2,1H3/b3-2-	InChI=1S/C8H14O/c1-8-5-3-2-4-6-9-7-8/h2-3,8H,4-7H2,1H3/b3-2-/t8-/m1/s1
