22
gdb 84029	2.71503	1.38629	1.13807	1.1857	82.56	-0.2142	0.0878	0.3019	1177.414	0.196068	-404.32109	-404.312639	-404.311694	-404.35377	33.419	
C	-0.1786712946	 1.5977729578	 0.0571524361	-0.417033
C	 0.0150129729	 0.0989741167	-0.0219894371	-0.010249
C	 0.5958748622	-0.5996646917	-1.2123072788	-0.017268
C	 1.1102352809	 0.1008807985	-2.4565262017	-0.242284
C	 2.4975115979	-0.4060293507	-2.8813026352	-0.062863
O	 3.5550117609	 0.1203608637	-2.1019468528	-0.243464
C	 3.6423511006	-0.3497105511	-0.7680442859	-0.064997
C	 2.5620592903	 0.2093890032	 0.1612368787	-0.164274
N	 1.3233870047	-0.5606953989	 0.0608520369	-0.108433
H	 0.5074391843	 2.1642328262	-0.5749872384	 0.127112
H	-1.198009682	 1.8524152069	-0.2521622791	 0.12257
H	-0.0502403053	 1.9494991515	 1.0870294091	 0.124197
H	-0.7507729807	-0.4448988458	 0.5325958778	 0.085698
H	 0.2122960655	-1.5977820014	-1.4313585735	 0.08282
H	 0.401854769	-0.08416677	-3.2742455376	 0.098934
H	 1.1730208411	 1.1859021789	-2.3339577021	 0.10612
H	 2.5165700143	-1.5091520736	-2.8636688132	 0.087332
H	 2.7102887308	-0.0854720227	-3.9064566362	 0.1025
H	 3.6146991242	-1.4506759819	-0.7378908664	 0.09608
H	 4.6253284578	-0.0231108934	-0.4134418095	 0.103958
H	 2.9118096587	 0.126030813	 1.1985895036	 0.1002
H	 2.4565264065	 1.2821287449	-0.0545723948	 0.093345
116.5573	140.8314	198.0125	257.9032	280.5012	319.0233	350.9503	388.7997	482.3786	492.9005	550.3427	595.0877	716.2848	764.7498	785.2278	849.8452	900.9431	969.5015	985.1121	991.3691	1016.7616	1047.4397	1067.0088	1095.6236	1137.7455	1140.1472	1155.8148	1168.505	1193.8688	1235.1924	1248.5506	1299.2642	1329.1093	1349.0682	1359.2025	1379.8012	1393.9422	1397.3161	1413.991	1423.6708	1444.2335	1470.6256	1483.4923	1491.2465	1498.3962	1501.0255	1506.463	2964.1237	2984.5618	2999.5006	3029.4257	3036.5366	3038.5638	3070.2073	3073.2126	3077.4921	3088.4538	3092.6817	3094.5478	3130.566
CC1C2CCOCCN12	C[C@H]1[C@H]2CCOCCN12	
InChI=1S/C7H13NO/c1-6-7-2-4-9-5-3-8(6)7/h6-7H,2-5H2,1H3	InChI=1S/C7H13NO/c1-6-7-2-4-9-5-3-8(6)7/h6-7H,2-5H2,1H3/t6-,7+,8?/m0/s1
