17
gdb 11337	4.17577	1.49838	1.22689	1.6331	67.36	-0.2519	0.027	0.2789	1018.6332	0.141327	-401.015967	-401.00756	-401.006616	-401.049714	29.259	
C	-0.0236358724	 1.4324850164	 0.0580975568	-0.334481
N	 0.2290162371	 0.0033699131	-0.030293255	-0.320632
C	 0.668725063	-0.6181345188	 0.9674993037	 0.400956
C	 1.0018024158	-2.0934375706	 1.0198422609	-0.189965
O	 1.2195633936	-2.3557134894	 2.3966804947	-0.258191
C	 1.5009219683	-1.1248826341	 3.0312025655	 0.213363
C	 2.9902584347	-0.8926327146	 3.2299647921	-0.399864
O	 0.9393662788	-0.0993360981	 2.2061311039	-0.248082
H	 0.4843247856	 1.9348974989	-0.7723536166	 0.12564
H	-1.0967157717	 1.6157320451	-0.0705382289	 0.12798
H	 0.2985589438	 1.8912128796	 0.9997827819	 0.121796
H	 0.1757998742	-2.7101866851	 0.6582380518	 0.143242
H	 1.8920220177	-2.312122669	 0.4131687307	 0.125268
H	 0.9655697402	-1.1100859803	 3.9874384662	 0.102017
H	 3.5131576337	-0.9052107063	 2.2690796796	 0.126776
H	 3.1604952959	 0.0751971744	 3.7094629338	 0.13135
H	 3.4022509016	-1.6802334014	 3.8665332089	 0.132829
54.4458	80.0989	102.5464	209.5557	235.6838	239.9412	363.6106	466.1842	487.3081	582.7667	675.747	751.2649	839.5215	866.4767	941.7719	1024.5318	1040.8976	1063.4611	1079.5011	1122.8258	1133.9736	1136.2488	1176.6349	1205.9524	1242.7771	1344.2557	1379.0404	1394.291	1412.5012	1440.7373	1482.8301	1486.4751	1493.9711	1497.9005	1510.2547	1824.3812	3007.7318	3017.7007	3046.2457	3047.9851	3079.2192	3088.8807	3100.6404	3126.5265	3129.9492
CN=C1COC(C)O1	CN=C1CO[C@@H](C)O1	
InChI=1S/C5H9NO2/c1-4-7-3-5(6-2)8-4/h4H,3H2,1-2H3	InChI=1S/C5H9NO2/c1-4-7-3-5(6-2)8-4/h4H,3H2,1-2H3/t4-/m1/s1
