16
gdb 50933	2.75064	1.07239	0.80965	3.2665	68.63	-0.2582	-0.0464	0.2118	1359.9527	0.121265	-474.987267	-474.978091	-474.977147	-475.02246	31.343	
N	-0.1117248943	 1.4096875218	 0.3946970473	-0.440938
C	-0.091316808	 0.1546757036	 0.3022024721	 0.148582
O	-1.2233781251	-0.5006207075	-0.0589608963	-0.189011
C	-1.1694420473	-1.9082780182	-0.1122434066	-0.014817
C	-1.0072773948	-2.5490412408	 1.2683812108	 0.140812
O	-0.738011729	-1.9348487106	 2.2649012409	-0.230608
C	-2.4562808735	-2.3818150645	-0.7628766947	 0.054555
C	-2.5051682457	-2.7519853507	-2.1793411991	-0.172203
O	-2.4575644566	-3.7517845873	-1.1546920653	-0.233582
H	 0.8091688718	 1.7554398275	 0.6556122396	 0.233583
H	 0.7686270382	-0.5059624938	 0.4617535964	 0.095525
H	-0.325251689	-2.2650304474	-0.7265847793	 0.108923
H	-1.1473975049	-3.6507933338	 1.2639787072	 0.116336
H	-3.3653156135	-2.0324893897	-0.274157361	 0.124937
H	-3.4477813177	-2.6844319064	-2.7178715721	 0.133138
H	-1.6069335206	-2.6616662722	-2.7877695999	 0.124768
58.637	88.1065	100.5304	136.9518	165.6039	218.1642	282.1682	345.167	412.8407	440.9339	599.6782	721.0555	813.7942	838.9523	871.473	892.4318	954.329	1012.5424	1035.2678	1042.4018	1104.2439	1151.3386	1163.5592	1171.4828	1179.4889	1260.7017	1282.9216	1288.1819	1331.7406	1402.4692	1426.1258	1441.7707	1527.8896	1751.0311	1841.3447	2918.2808	2971.4133	3053.3476	3095.1276	3124.7643	3187.7425	3523.3074
N=COC(C=O)C1CO1	[NH][CH]O[C@@H](C=O)[C@H]1CO1	
InChI=1S/C5H7NO3/c6-3-9-4(1-7)5-2-8-5/h1,3-6H,2H2	InChI=1S/C5H7NO3/c6-3-9-4(1-7)5-2-8-5/h1,3-6H,2H2/t4-,5+/m0/s1
