17
gdb 71564	3.03815	1.67886	1.5	4.8321	71.5	-0.2218	-0.0122	0.2096	935.4499	0.137482	-417.947265	-417.940206	-417.939262	-417.978373	28.674	
C	-0.1211873417	 1.5312831036	 0.0732414967	-0.517933
C	-0.0236721552	 0.033891982	 0.0766489398	 0.345265
N	-1.265701669	-0.7984483044	 0.1503547029	-0.371368
C	-0.3081812929	-1.9144557181	 0.5343603742	-0.157287
C	 0.7654870593	-0.8784697147	 1.0538383416	-0.076204
N	 1.9493129993	-1.0092508165	 0.1547984459	-0.336571
C	 0.940240904	-0.7232227288	-0.9437813484	-0.208983
C	 0.2613608069	-2.0988513635	-0.8817214656	 0.556102
O	 0.1908486134	-2.996650825	-1.6646729704	-0.331614
H	 0.8743537446	 1.9880041481	 0.0613868371	 0.123466
H	-0.6655094061	 1.8791125833	-0.8107599647	 0.142487
H	-0.6475058589	 1.8948270306	 0.9628653558	 0.122548
H	-1.7770393096	-0.5146262063	 0.9871103549	 0.2194
H	-0.684841787	-2.7723664814	 1.0840287682	 0.094615
H	 0.9077574109	-0.7301277597	 2.1252116474	 0.081053
H	 2.5318312357	-0.181798286	 0.2802684438	 0.224582
H	 1.2872830161	-0.3301867333	-1.8961819992	 0.090442
153.9594	223.0056	246.3022	264.6927	428.328	430.7031	488.6885	545.499	643.9713	720.9083	758.5947	793.2803	807.3741	826.4567	852.8368	882.2403	899.0276	935.8342	949.5429	1005.2242	1026.1205	1109.3775	1115.808	1117.5074	1141.3194	1150.5649	1154.591	1224.7535	1255.7219	1281.0474	1325.2988	1344.5709	1368.1246	1412.8984	1482.9608	1491.1701	1916.1301	3028.632	3095.1277	3104.5393	3108.5138	3159.2038	3168.9956	3445.7983	3462.4757
CC12NC3C1NC2C3=O	C[C@]12N[C@@H]3[C@H]1N[C@H]2C3=O	
InChI=1S/C6H8N2O/c1-6-4-2(8-6)3(9)5(6)7-4/h2,4-5,7-8H,1H3	InChI=1S/C6H8N2O/c1-6-4-2(8-6)3(9)5(6)7-4/h2,4-5,7-8H,1H3/t2-,4+,5-,6-/m0/s1
