18
gdb 50434	2.69581	1.44215	1.10276	3.5712	81.8	-0.2277	-0.0372	0.1905	1125.5684	0.149799	-401.980575	-401.972589	-401.971645	-402.014003	29.983	
O	 0.079401461	-0.1500567763	 0.0929867193	-0.34366
C	 0.0535197598	 1.0623945168	 0.0735086321	 0.157688
N	 1.1504477211	 1.8739672853	 0.0670059008	-0.034676
C	 2.4750143103	 1.2634921411	 0.0266084235	-0.245344
C	 3.0554527819	 1.1731653879	-1.3624011097	-0.07067
C	 2.962754177	 2.1211520803	-2.3035296011	-0.05939
C	 2.3429327681	 3.441626502	-2.2033860153	-0.070804
C	 1.5635241901	 3.9636626295	-1.2451201933	-0.064079
C	 1.0248757591	 3.31353791	 0.001511578	-0.245385
H	-0.8896198431	 1.6434301891	 0.0717422031	 0.072618
H	 3.1432974137	 1.8387703604	 0.682034017	 0.118863
H	 2.3696466605	 0.2628865648	 0.4502064808	 0.150378
H	 3.5895889832	 0.2561681155	-1.5949503826	 0.102551
H	 3.4362742591	 1.919511528	-3.2613213996	 0.092918
H	 2.5783890341	 4.1022846327	-3.035123215	 0.092721
H	 1.2555044777	 5.0017372759	-1.3553968711	 0.09793
H	-0.0427808076	 3.5515052699	 0.0881771881	 0.126945
H	 1.498917564	 3.7762874571	 0.8827847851	 0.121396
49.7159	58.5457	259.7285	303.91	319.9048	357.9735	374.0117	417.3197	525.7537	602.2969	651.1731	735.1321	787.3026	845.7157	893.8537	901.6522	941.5623	983.6923	1000.0552	1005.7604	1016.215	1027.5455	1054.0751	1207.7421	1232.8863	1255.929	1266.9378	1308.9526	1377.7687	1401.4749	1417.1862	1430.1008	1450.6175	1455.6202	1467.1781	1478.7774	1686.5584	1716.4319	1793.3754	2936.3602	2967.0544	3012.5572	3043.3715	3115.4151	3133.9214	3148.4644	3160.0716	3176.4288
O=CN1CC=CC=CC1	O=CN1CC=CC=CC1	
InChI=1S/C7H9NO/c9-7-8-5-3-1-2-4-6-8/h1-4,7H,5-6H2	InChI=1S/C7H9NO/c9-7-8-5-3-1-2-4-6-8/h1-4,7H,5-6H2
