16
gdb 34678	5.30823	1.09513	1.09265	4.6374	73.46	-0.2761	0.0245	0.3006	1109.9326	0.12659	-400.713791	-400.707197	-400.706253	-400.744821	26.555	
N	-0.0249335891	-1.0841051933	-0.0311790906	-0.332316
C	-0.0168191957	 0.0726356281	-0.0090927283	 0.261819
C	-0.0047619994	 1.5084787388	 0.0199738328	-0.19389
C	 0.4939477116	 2.1870183169	 1.2875785061	-0.063208
C	 1.3480725956	 2.2049693287	 0.0463250172	-0.063213
C	 1.3023629408	 3.7270570317	-0.2334388404	 0.038206
C	 1.6051022938	 4.3251877678	 1.1684694835	-0.21919
C	 0.1958053388	 3.7038016898	 1.3746778771	 0.038207
O	-0.1003213561	 4.0584957014	-0.0089012654	-0.281373
H	-0.8071659951	 1.991435993	-0.5251775013	 0.153346
H	 0.7182114715	 1.6039951585	 2.1705557577	 0.120412
H	 2.2606725442	 1.6364174456	-0.0710177721	 0.120411
H	 1.7097538686	 4.1123754748	-1.1665706554	 0.097527
H	 2.4471788804	 3.9307026168	 1.7422040348	 0.105796
H	 1.5819729501	 5.415632028	 1.1683203547	 0.119939
H	-0.5351961999	 4.0651955834	 2.0959291696	 0.097527
138.8952	149.8515	329.1802	368.0625	448.6421	524.3392	537.7182	639.2386	707.8588	805.5768	840.7361	856.9379	861.3943	874.2412	926.0919	936.9014	950.7294	959.3043	1018.2279	1070.1308	1070.3863	1074.3204	1096.936	1098.386	1177.0826	1178.0652	1224.0123	1229.0767	1254.4694	1274.7445	1285.9442	1309.6877	1394.1696	1485.8286	2354.9774	3071.7583	3139.9023	3141.2252	3150.2451	3185.6018	3208.5542	3216.9814
N#CC1C2C1C1CC2O1	N#C[C@H]1[C@H]2[C@@H]1[C@@H]1C[C@H]2O1	
InChI=1S/C7H7NO/c8-2-3-6-4-1-5(9-4)7(3)6/h3-7H,1H2	InChI=1S/C7H7NO/c8-2-3-6-4-1-5(9-4)7(3)6/h3-7H,1H2/t3-,4+,5-,6+,7-
