16
gdb 64996	3.60705	1.02235	0.87258	1.4981	68.57	-0.2662	-0.0301	0.2361	1300.3246	0.121706	-475.025977	-475.016964	-475.016019	-475.060603	32.471	
O	 0.3215060594	 1.302742017	 0.010777245	-0.457866
C	 0.0918306956	-0.0717186748	-0.0146881393	 0.336618
C	-0.5834804487	-0.7242733147	 1.1889238531	-0.306186
C	-1.3461026089	-0.4876519092	-0.0862826286	-0.289497
C	 1.1131362213	-0.8845813441	-0.7346734766	 0.33755
N	 0.8821345264	-2.0055863368	-1.2646910994	-0.496838
O	 2.3626044203	-0.2632248883	-0.6598642261	-0.216776
C	 3.1482266174	-0.2219666096	-1.7773162847	 0.155732
O	 4.2617314856	 0.1943963307	-1.7464365125	-0.248005
H	 1.1713765528	 1.4549574223	 0.4401175247	 0.293757
H	-0.2992278641	-1.7396474125	 1.438975699	 0.132443
H	-0.7755604983	-0.0630625917	 2.0261684147	 0.127678
H	-2.0565737515	 0.3301731206	-0.1031547684	 0.133849
H	-1.5809178392	-1.3395808366	-0.7115241553	 0.149699
H	 1.7212974755	-2.4673440538	-1.6125490991	 0.23591
H	 2.6214910165	-0.5917316586	-2.6724713766	 0.111931
44.3686	68.2856	143.0117	218.249	254.5554	284.5378	325.2178	346.8027	396.899	456.8999	519.0879	626.6748	711.2981	769.6644	790.2069	868.8305	909.881	916.6319	943.0168	1004.8165	1029.9905	1050.2169	1058.8678	1091.8117	1119.572	1200.1688	1208.6946	1268.7753	1336.3789	1397.3123	1415.8415	1444.107	1485.0311	1745.9043	1877.577	3010.5351	3141.3762	3153.3487	3236.2455	3253.8575	3500.4156	3797.5974
OC1(CC1)C(=N)OC=O	OC1(CC1)[C]([NH])OC=O	
InChI=1S/C5H7NO3/c6-4(9-3-7)5(8)1-2-5/h3,6,8H,1-2H2	InChI=1S/C5H7NO3/c6-4(9-3-7)5(8)1-2-5/h3,6,8H,1-2H2
