16
gdb 30297	3.06863	1.58973	1.12931	1.2579	71.15	-0.1909	0.0268	0.2177	1037.7646	0.126792	-437.894912	-437.887555	-437.886611	-437.927035	28.489	
O	 0.1401084085	 1.4444490033	 0.0078176155	-0.426924
C	 0.0687167073	 0.0202965351	-0.0217276528	-0.030338
C	 0.6161785148	-0.6667739674	 1.2986889567	-0.19791
N	-0.5058859243	-1.4120922504	 1.9522715786	-0.414111
C	-1.559322622	-1.2192387924	 1.0745909201	 0.374527
C	-1.3199876516	-0.5344623788	-0.070592376	 0.178453
C	-2.5494454115	-0.5975528204	-0.811390771	-0.356776
C	-3.4109429365	-1.3096793974	-0.0359985028	-0.025981
O	-2.8019411797	-1.7144037229	 1.1474809062	-0.202155
H	-0.6121504194	 1.7527483704	 0.5254693482	 0.272179
H	 0.7029479961	-0.2615380618	-0.8672809061	 0.095572
H	 1.4150156051	-1.374663078	 1.0604473679	 0.122629
H	 1.0232099004	 0.1004252942	 1.9622514753	 0.118068
H	-0.6867240766	-1.1479711833	 2.9141135099	 0.241544
H	-2.7772327272	-0.1747080817	-1.7776791078	 0.117151
H	-4.4384805234	-1.6115740484	-0.1423424119	 0.134072
64.8762	153.6743	253.1571	315.5956	338.9641	428.9648	495.1215	596.1577	610.7918	651.2728	669.6334	717.2584	747.5334	814.1545	826.2149	885.9534	926.2373	960.6053	1009.5812	1025.9487	1065.9987	1105.217	1154.3573	1219.3	1239.4324	1273.1354	1288.4556	1332.3586	1340.0933	1405.4037	1432.7729	1489.9167	1505.9888	1542.7027	1659.5312	3053.3689	3068.2082	3109.6087	3253.2322	3295.5362	3531.4544	3797.3877
OC1CNC2=C1C=CO2	O[C@H]1CNc2c1cco2	
InChI=1S/C6H7NO2/c8-5-3-7-6-4(5)1-2-9-6/h1-2,5,7-8H,3H2	InChI=1S/C6H7NO2/c8-5-3-7-6-4(5)1-2-9-6/h1-2,5,7-8H,3H2/t5-/m0/s1
