15
gdb 98718	2.37058	1.38695	1.04145	3.2222	67.1	-0.278	-0.021	0.257	1153.1162	0.111796	-453.950752	-453.941776	-453.940832	-453.985581	30.642	
C	 0.6428477589	 1.4489142491	-0.1632174185	-0.240423
O	 1.1547895504	 0.1474350791	-0.4877970373	-0.2153
C	 0.3014762833	-0.6710533869	-1.1049939097	 0.476633
O	-0.826298957	-0.3900434683	-1.4270461142	-0.369556
C	 0.8866309725	-2.0335166551	-1.3496010761	-0.14887
N	 2.3371164962	-2.182745822	-1.4590388655	-0.299278
C	 1.6680068971	-2.7951610611	-0.3095357809	-0.190628
C	 1.96237698	-2.2640318015	 1.0011306664	 0.355452
N	 2.1805067751	-1.899142303	 2.0754706682	-0.334261
H	 0.3694760318	 1.9873099141	-1.0738133137	 0.143641
H	-0.2371366678	 1.3629583446	 0.4781514248	 0.14827
H	 1.4512282552	 1.9588082076	 0.3587699044	 0.146838
H	 0.2384037044	-2.6361846859	-1.9788566902	 0.127338
H	 2.5738141353	-2.8941077188	-2.1458798697	 0.256466
H	 1.5108733546	-3.8711904918	-0.307334258	 0.143679
49.3365	84.9626	109.6468	151.2085	192.0187	237.6803	307.2283	322.9504	453.4716	541.6614	572.5885	667.5481	784.3174	807.5239	847.1533	904.7438	943.0269	978.999	1029.9931	1099.2033	1175.3924	1179.5883	1201.7697	1210.3543	1230.9336	1321.7238	1397.2306	1445.2249	1477.2307	1482.565	1494.8268	1817.7106	2366.4603	3057.5282	3134.6746	3141.3651	3166.9846	3172.2538	3513.5339
COC(=O)C1NC1C#N	COC(=O)[C@H]1N[C@H]1C#N	
InChI=1S/C5H6N2O2/c1-9-5(8)4-3(2-6)7-4/h3-4,7H,1H3	InChI=1S/C5H6N2O2/c1-9-5(8)4-3(2-6)7-4/h3-4,7H,1H3/t3-,4-/m0/s1
