19
gdb 75030	2.64496	1.63177	1.19581	1.6647	84.76	-0.2113	-0.0259	0.1854	1087.608	0.160219	-385.887579	-385.879635	-385.87869	-385.919862	31.172	
C	 0.271015375	 1.4818391505	 0.2465328479	-0.478142
C	-0.0055984756	 0.0290453288	-0.0219064272	 0.307758
C	 0.154463042	-0.5018626581	-1.2442968079	-0.143747
C	-0.0380247865	-1.8966419	-1.6190237428	-0.101752
C	 0.1454765925	-2.9884192292	-0.8568767866	-0.081285
C	 0.6515804278	-3.0383377772	 0.5335337891	 0.014375
O	 1.6646271476	-2.0966404274	 0.9506790179	-0.244056
C	 0.3741514074	-1.9828274872	 1.5295774269	 0.053118
C	-0.4964342905	-0.7831738298	 1.1594740552	-0.368692
H	 1.0634672225	 1.5900455735	 0.999296668	 0.132509
H	 0.5868830315	 2.0101254403	-0.6565702565	 0.121587
H	-0.6133011243	 1.9908533011	 0.6519566478	 0.122647
H	 0.4333001276	 0.1664110086	-2.0570672494	 0.079743
H	-0.3326466382	-2.063539209	-2.6537711293	 0.093023
H	-0.0576031091	-3.9607104145	-1.2975823818	 0.088818
H	 0.8318332772	-4.0439069736	 0.9126386143	 0.089441
H	 0.3323702017	-2.2736905656	 2.5820071837	 0.088088
H	-0.5843835722	-0.1312551489	 2.0347386323	 0.104495
H	-1.5070007165	-1.1656195921	 0.9536964884	 0.122074
90.2339	163.2099	216.3902	267.7407	314.0027	340.1909	376.0674	466.5912	508.1768	596.5229	673.8538	713.7484	759.3937	812.0866	837.1717	872.4309	905.8216	938.7396	959.1373	969.2357	993.5245	1024.9562	1064.0815	1086.7134	1115.4883	1132.3835	1175.1318	1249.2072	1257.9301	1306.5363	1342.5294	1364.0641	1399.0467	1410.2115	1444.7807	1462.576	1476.9659	1482.5272	1490.6663	1676.0691	1714.5569	3002.5172	3010.4791	3054.9717	3063.3091	3079.6217	3111.4087	3113.2849	3129.6615	3143.3421	3168.7186
CC1=CC=CC2OC2C1	CC1=CC=C[C@H]2O[C@H]2C1	
InChI=1S/C8H10O/c1-6-3-2-4-7-8(5-6)9-7/h2-4,7-8H,5H2,1H3	InChI=1S/C8H10O/c1-6-3-2-4-7-8(5-6)9-7/h2-4,7-8H,5H2,1H3/t7-,8+/m1/s1
