14
gdb 132054	2.36865	1.85079	1.04563	2.3748	67.52	-0.2408	-0.0458	0.195	1040.6674	0.101819	-478.054261	-478.046651	-478.045707	-478.086767	27.795	
C	-0.0173292195	 1.5384414963	 0.0043021531	-0.487815
C	-0.0125810203	 0.0396690404	-0.0145238254	-0.041803
C	-0.1515984487	-0.7203964595	-1.1384779125	 0.283221
F	-0.3038182813	-0.1256601613	-2.3157541132	-0.05794
N	-0.1553165694	-2.0731910022	-1.2184319049	-0.324165
C	-0.0092234965	-2.6959301778	-0.0904704298	 0.109913
N	 0.1383192588	-2.0694434844	 1.0956815262	-0.341633
C	 0.150628529	-0.6590139906	 1.2454965074	 0.387131
O	 0.2880909739	-0.1622772913	 2.3473627212	-0.37768
H	 0.9183883204	 1.9192102842	 0.4268367571	 0.146548
H	-0.146677056	 1.9443423825	-0.9991125528	 0.135449
H	-0.821289544	 1.910909731	 0.6477327287	 0.146549
H	-0.0017187847	-3.7820218406	-0.0719872043	 0.149475
H	 0.2494560984	-2.5967968467	 1.9517499091	 0.272751
84.9822	129.9058	198.132	271.2816	271.6181	372.4559	506.2173	507.7326	540.1391	568.8652	680.6158	697.9924	754.3482	789.9204	880.0863	938.0898	954.4485	1061.6501	1101.0146	1130.2077	1199.5088	1262.134	1363.9838	1412.0572	1442.4475	1470.4335	1479.3832	1483.0952	1614.9175	1668.516	1791.8799	3043.2048	3092.9721	3151.5546	3178.7115	3598.9022
CC1=C(F)N=CNC1=O	Cc1c(F)nc[nH]c1=O	
InChI=1S/C5H5FN2O/c1-3-4(6)7-2-8-5(3)9/h2H,1H3,(H,7,8,9)	InChI=1S/C5H5FN2O/c1-3-4(6)7-2-8-5(3)9/h2H,1H3,(H,7,8,9)
