13
gdb 129223	3.24221	1.55549	1.17777	3.5374	73.24	-0.2579	-0.0911	0.1669	986.6453	0.090626	-445.046962	-445.039759	-445.038815	-445.079071	26.777	
N	-0.0062352484	 1.0476876234	 1.033799014	-0.489332
C	 0.0028536767	 0.1347621351	 0.1427064114	 0.362124
N	 1.1623364023	-0.3413607847	-0.5030853499	-0.323585
N	 1.4088434157	-1.6332060018	-0.9873128571	-0.053163
N	 0.575631511	-2.2126509521	-1.6977049651	-0.165888
C	-0.6183819552	-1.5324928455	-2.1599576614	 0.370317
N	-0.8171199853	-1.3782812488	-3.3986984357	-0.442274
N	-1.5894795811	-1.188777585	-1.2195392995	-0.188463
C	-1.3026124368	-0.4721089528	-0.2108938908	 0.034228
H	 0.9229049923	 1.4249365501	 1.2307986761	 0.225796
H	 2.0165916906	-0.0145720279	-0.0689984601	 0.26444
H	-0.023262845	-1.7470396933	-3.9267603674	 0.243599
H	-2.0910726269	-0.2206530868	 0.4967205655	 0.162201
70.3921	115.8942	271.9017	331.3931	354.8934	433.3197	456.0976	567.4069	625.3023	666.2027	696.2925	721.8049	796.7036	868.5288	879.3597	909.7653	940.7463	988.2068	996.3605	1031.1204	1126.6409	1291.6019	1347.3331	1389.4819	1458.5973	1628.5389	1687.4094	1722.8739	1739.8886	3158.2987	3460.2631	3470.7217	3576.8109
N=C1NN=NC(=N)N=C1	[NH][C]1NN=N[C]([NH])N=C1	
InChI=1S/C3H4N6/c4-2-1-6-3(5)8-9-7-2/h1H,(H3,4,5,7,8)	InChI=1S/C3H4N6/c4-2-1-6-3(5)8-9-7-2/h1H,(H3,4,5,7,8)
