15
gdb 28948	3.1287	1.24478	0.97297	2.127	72.11	-0.2057	0.0274	0.2331	1174.399	0.112861	-416.805349	-416.797081	-416.796136	-416.839469	30.412	
O	 0.5797321883	 1.300724135	 0.0016297284	-0.430396
C	 0.2861300767	-0.0115282363	-0.0610012206	 0.450254
N	 0.2875731412	-0.7617022637	-1.1282750994	-0.377642
C	-0.0730072302	-2.0177725753	-0.6628108196	-0.09591
C	-0.2820522541	-1.9971513187	 0.6827559695	-0.130538
N	-0.046151639	-0.6797890344	 1.0755656463	-0.050171
C	-0.1114052995	-0.1282947595	 2.4213982521	-0.327891
C	-1.4329678585	-0.2507150107	 3.0325461313	 0.311293
C	-2.5106860369	-0.3620688877	 3.5498532568	-0.44243
H	 0.7818920556	 1.5729546915	-0.9021555611	 0.31627
H	-0.1585615909	-2.8562615661	-1.3361867151	 0.110528
H	-0.5820487756	-2.7467734286	 1.394917182	 0.131918
H	 0.6348647954	-0.6236809423	 3.0554614575	 0.151828
H	 0.1778688874	 0.9237886793	 2.3507732322	 0.174098
H	-3.4677625901	-0.4532767325	 4.0014248696	 0.208788
21.2598	91.7521	213.1182	262.5406	309.4228	322.4774	389.0932	421.5036	525.8509	627.6091	628.6634	673.3048	680.3231	698.3121	733.5787	796.5482	839.0026	930.0537	957.6236	977.6553	1097.1231	1116.2464	1193.796	1216.2384	1293.6011	1317.1266	1363.3895	1407.3342	1475.0277	1554.5355	1571.382	1605.949	2246.6333	3027.4473	3099.1218	3254.9332	3287.9374	3503.7782	3808.9671
OC1=NC=CN1CC#C	Oc1nccn1CC#C	
InChI=1S/C6H6N2O/c1-2-4-8-5-3-7-6(8)9/h1,3,5H,4H2,(H,7,9)	InChI=1S/C6H6N2O/c1-2-4-8-5-3-7-6(8)9/h1,3,5H,4H2,(H,7,9)
