19
gdb 114823	2.5877	1.25097	1.10861	1.5172	71.15	-0.2435	0.0586	0.3021	1176.3794	0.158145	-460.113058	-460.104176	-460.103232	-460.147007	33.308	
O	-0.3102044736	 1.5928878898	 0.0900688053	-0.42206
C	-0.100361902	 0.2143879206	 0.3646658077	-0.110756
C	-1.348107567	-0.5253390683	-0.0743909254	 0.006948
C	-1.6363946372	-0.6750458293	-1.6034002527	-0.250195
C	-1.7718816302	-2.2036198941	-1.4280992346	 0.03198
O	-0.5241237099	-2.8951493148	-1.6615273968	-0.28739
C	-0.1727365098	-2.8808931517	-0.2636704598	-0.142873
C	-1.4301454965	-2.0626167931	 0.0986527171	 0.311519
O	-2.1943297192	-2.4471419098	 1.1956415325	-0.471566
H	 0.5006915417	 2.067538879	 0.2945891013	 0.287059
H	 0.7787704022	-0.1626751847	-0.1816187852	 0.08661
H	 0.0760091856	 0.0406688957	 1.4390297543	 0.091839
H	-2.2073020831	-0.0850961981	 0.4390872416	 0.099234
H	-2.5442360686	-0.1672823555	-1.9350480856	 0.107426
H	-0.81091292	-0.3982933977	-2.2629104448	 0.112112
H	-2.6324695049	-2.7265614926	-1.852911496	 0.076063
H	-0.1877072585	-3.8941464853	 0.1683083506	 0.086288
H	 0.8131545299	-2.4394396646	-0.0764966363	 0.105688
H	-2.2469793288	-3.4093555155	 1.2156375966	 0.282078
53.9932	94.325	184.1427	225.6879	264.3492	308.9379	319.0085	362.9217	407.4161	451.7366	489.3264	642.698	661.9519	801.5227	846.6435	881.3891	922.3451	949.0957	985.2234	1010.8174	1037.7319	1076.901	1089.0434	1106.5968	1118.2417	1151.6103	1163.6243	1174.548	1184.0078	1259.7208	1264.1811	1275.3266	1282.0355	1316.0695	1352.9542	1372.7148	1391.8679	1462.5042	1467.1812	1520.1575	1522.891	2962.2726	2977.0023	2992.9747	3051.9162	3068.3873	3076.8476	3081.094	3128.5637	3795.359	3829.9249
OCC1CC2OCC12O	OC[C@H]1C[C@H]2OC[C@@]12O	
InChI=1S/C6H10O3/c7-2-4-1-5-6(4,8)3-9-5/h4-5,7-8H,1-3H2	InChI=1S/C6H10O3/c7-2-4-1-5-6(4,8)3-9-5/h4-5,7-8H,1-3H2/t4-,5-,6-/m1/s1
