18
gdb 110077	2.00736	1.24812	0.94492	4.2836	78.04	-0.2628	-0.0405	0.2223	1306.9245	0.146012	-401.964818	-401.955298	-401.954354	-401.999901	33.601	
C	 0.2424484351	 1.5160460654	-0.1340661372	-0.382192
C	-0.1741142601	 0.0589922378	 0.0982264603	-0.215773
C	 0.6078206496	-0.5772908802	 1.2311774608	-0.019422
C	 0.7106429097	-2.077675609	 1.4453570924	-0.155708
C	 0.0727200158	-3.0516853947	 0.5167711572	 0.15897
O	-0.5073180947	-4.0348261692	 0.9045390506	-0.258403
C	 1.9381905618	-1.2607887601	 1.0055898915	-0.198236
C	 2.4577890652	-1.3987876415	-0.3280557563	 0.295283
N	 2.8820314748	-1.490259647	-1.4007001687	-0.337679
H	 1.2945248179	 1.5823867745	-0.427710815	 0.13573
H	-0.3566762532	 1.9682272567	-0.9291314951	 0.125785
H	 0.10559965	 2.1168660297	 0.7716377906	 0.118254
H	-1.2420886032	 0.0090614462	 0.3416254511	 0.11614
H	-0.0385716237	-0.5084290285	-0.8274078462	 0.125867
H	 0.5659108454	-0.0144566064	 2.1604988782	 0.115915
H	 0.725638619	-2.4256286926	 2.4724938399	 0.125465
H	 0.1646928721	-2.8248174641	-0.5651808988	 0.103132
H	 2.7079592185	-1.1360089071	 1.7595292946	 0.146871
66.4189	77.2941	122.3965	144.2179	180.4602	225.9614	274.268	321.3086	387.739	433.5738	491.024	598.7461	629.9972	753.0166	798.1999	819.39	878.592	948.06	957.9687	1001.8345	1045.6743	1048.0642	1104.1238	1130.0936	1143.6179	1181.6795	1238.7236	1295.6062	1333.5155	1338.7059	1374.1572	1412.1639	1422.0428	1450.9622	1484.9113	1499.2131	1505.0925	1817.0049	2350.9315	2922.1047	3037.3668	3040.6709	3082.1717	3109.4681	3118.1011	3141.9236	3170.6415	3182.5244
CCC1C(C=O)C1C#N	CC[C@H]1[C@@H](C=O)[C@H]1C#N	
InChI=1S/C7H9NO/c1-2-5-6(3-8)7(5)4-9/h4-7H,2H2,1H3	InChI=1S/C7H9NO/c1-2-5-6(3-8)7(5)4-9/h4-7H,2H2,1H3/t5-,6+,7-/m1/s1
