20
gdb 95394	2.23254	1.64193	1.1202	2.7652	81.95	-0.2123	-0.0462	0.1661	1157.8409	0.171587	-403.182104	-403.17304	-403.172095	-403.215752	34.105	
C	-0.219360057	 1.4985630984	 0.0538282272	-0.387569
C	 0.0461136797	-0.0128454171	-0.0274065024	-0.08813
N	 0.7526360849	-0.3691828841	-1.2647385237	-0.298826
C	 2.161292182	 0.0227227161	-1.2597569651	-0.235239
C	 2.8847309228	-0.2410257023	 0.0331617268	-0.136216
C	 2.2604616649	-0.5159800994	 1.1896621614	 0.20524
C	 2.971468962	-0.8276080225	 2.4769961954	-0.475771
C	 0.7734351453	-0.4766927078	 1.2412313732	 0.314636
O	 0.1623493922	-0.7474346582	 2.2578745223	-0.333208
H	 0.7116560943	 2.0701043317	 0.1273344304	 0.118209
H	-0.7556147331	 1.8275341737	-0.84007894	 0.12667
H	-0.8210356525	 1.7235781036	 0.9379730561	 0.13587
H	-0.9198078216	-0.5273677275	-0.037579948	 0.099071
H	 0.7065542271	-1.3772785128	-1.3760018932	 0.221809
H	 2.6669571481	-0.4984321498	-2.0810571023	 0.117522
H	 2.2449207844	 1.093250036	-1.5050575919	 0.127719
H	 3.973167856	-0.1892597322	 0.0053064043	 0.095519
H	 4.0563054549	-0.807539705	 2.345616833	 0.112757
H	 2.694362268	-0.1137171897	 3.2594253877	 0.139214
H	 2.6797889677	-1.8147411913	 2.8501754188	 0.140724
67.2846	139.4648	169.7792	210.525	242.4947	281.7483	290.935	361.8136	391.51	423.1966	528.8233	562.7538	672.6688	717.788	784.8486	793.5724	853.1636	876.3429	895.2035	989.0579	1019.2726	1034.102	1071.0574	1074.822	1120.4204	1142.6591	1192.4479	1248.3733	1256.0723	1305.511	1345.7622	1375.7883	1391.4931	1396.1766	1413.8236	1470.0126	1471.1126	1485.6741	1490.9013	1493.4657	1504.8156	1704.2256	1765.6058	2989.3863	3039.8515	3043.0697	3052.6064	3063.751	3096.8379	3113.7995	3121.6084	3128.3216	3130.952	3511.3929
CC1NCC=C(C)C1=O	C[C@H]1NCC=C(C)C1=O	
InChI=1S/C7H11NO/c1-5-3-4-8-6(2)7(5)9/h3,6,8H,4H2,1-2H3	InChI=1S/C7H11NO/c1-5-3-4-8-6(2)7(5)9/h3,6,8H,4H2,1-2H3/t6-/m1/s1
