22
gdb 62789	2.9332	1.29497	1.15407	1.7115	82.79	-0.2259	0.064	0.2899	1201.6836	0.192013	-404.311983	-404.302329	-404.301385	-404.345301	37.954	
C	-0.0967688138	 1.570661059	 0.0397132997	-0.475587
C	 0.0291897824	 0.0621897091	-0.072424136	 0.3204
C	-1.1018349293	-0.6805846994	 0.6198867585	-0.442816
C	 0.6110280016	-0.6543812047	-1.23357417	-0.096625
N	 1.3101798371	-0.6594978962	 0.1329483853	-0.176423
C	 2.4126302772	 0.1654818488	-0.4728314479	-0.241088
C	 1.8015937664	 0.0268770756	-1.9010964227	 0.377194
C	 2.5889977951	-0.9260878572	-2.7951905444	-0.449408
O	 1.4548293507	 1.2067831471	-2.6095011334	-0.472108
H	 0.5781399674	 2.1120259821	-0.6196793776	 0.144709
H	-1.1165679315	 1.8662388116	-0.2279509505	 0.118048
H	 0.0741845004	 1.8859166649	 1.0762160362	 0.11308
H	-2.0616455794	-0.4626586805	 0.139124538	 0.112756
H	-0.9319663734	-1.7596770655	 0.5958877608	 0.124153
H	-1.1702452284	-0.3741680538	 1.6692281088	 0.118273
H	 0.1445949542	-1.5518001134	-1.633757589	 0.078531
H	 2.4920282225	 1.1813095195	-0.0782210345	 0.103326
H	 3.3708934505	-0.344389502	-0.3468688904	 0.101176
H	 2.8071735653	-1.8649492666	-2.2786846421	 0.134585
H	 2.0197001592	-1.1504580124	-3.7029484511	 0.124906
H	 3.5460429938	-0.4763099579	-3.0888301544	 0.106943
H	 2.232136822	 1.5044684217	-3.0947825133	 0.275975
141.5377	166.5606	199.2913	208.0081	247.0925	272.6168	282.8248	312.4694	354.6495	388.9057	413.4769	445.1849	486.442	563.2333	638.6664	658.1292	794.6008	848.5125	877.3659	924.4758	944.8536	966.303	972.5009	994.2344	1021.2425	1043.4891	1074.2535	1126.9775	1137.3095	1150.4899	1182.8819	1211.5135	1257.6847	1285.0402	1305.2483	1369.569	1404.3432	1407.6813	1419.6771	1427.4651	1482.4676	1483.727	1489.0552	1495.5594	1497.2673	1507.699	1521.4017	3021.6454	3030.8765	3035.3081	3059.3121	3089.865	3090.99	3097.5368	3111.2358	3118.7559	3122.0489	3133.3482	3169.1839	3799.9928
CC1(C)C2N1CC2(C)O	CC1(C)[C@@H]2N1C[C@]2(C)O	
InChI=1S/C7H13NO/c1-6(2)5-7(3,9)4-8(5)6/h5,9H,4H2,1-3H3	InChI=1S/C7H13NO/c1-6(2)5-7(3,9)4-8(5)6/h5,9H,4H2,1-3H3/t5-,7-,8?/m0/s1
