20
gdb 8243	4.62705	1.03249	1.01367	2.6794	71.66	-0.2389	0.071	0.3099	1261.4716	0.175941	-386.123467	-386.114432	-386.113488	-386.15774	32.589	
C	-0.0227530553	 1.5178299799	-0.1257146973	-0.406669
C	-0.0287409559	-0.004422445	 0.0047844266	 0.140619
O	 0.7876485512	-0.4341224449	 1.094445003	-0.43211
C	-1.448815465	-0.5789789223	 0.1164971859	-0.217897
C	-1.4637988964	-2.0963977778	 0.0778163812	 0.168984
C	-2.8268292502	-2.8174145818	-0.0217582276	-0.304415
C	-2.2529987381	-3.4160099812	-1.3208952931	-0.05637
O	-1.0617331776	-2.6105029771	-1.2206578092	-0.296423
H	 1.0042125825	 1.8891757145	-0.1800962446	 0.124384
H	-0.558452091	 1.8415062398	-1.0238627044	 0.117702
H	-0.5109873178	 1.9857225704	 0.7393230758	 0.102146
H	 0.4446191144	-0.4457099864	-0.8795236034	 0.112487
H	 0.4580528739	-0.0034400704	 1.8914328837	 0.273214
H	-1.9065722837	-0.2380211797	 1.0578024284	 0.080662
H	-2.0691490136	-0.1940152733	-0.7024491981	 0.094501
H	-0.8054327726	-2.4890995233	 0.8627073247	 0.084958
H	-3.0612437279	-3.5232045139	 0.7764456324	 0.108056
H	-3.6754722515	-2.1452525427	-0.1684888204	 0.105368
H	-2.024922911	-4.4889346956	-1.2740778303	 0.099554
H	-2.8095143244	-3.2152917992	-2.244088553	 0.101249
67.3212	72.2467	107.1166	150.2826	240.7309	293.1471	315.2626	341.4911	432.1285	478.2396	500.1923	736.9758	808.0338	837.1733	865.0152	891.9125	945.0826	957.3566	985.4746	1026.7366	1050.1837	1072.4623	1106.9654	1140.4161	1152.3391	1168.7696	1205.9798	1224.4345	1256.1219	1285.8862	1308.1138	1328.5839	1359.0529	1380.2981	1401.4393	1408.5729	1426.3342	1460.6736	1490.73	1491.5946	1496.1279	1532.9761	2997.196	3009.8766	3020.2491	3028.3245	3050.855	3053.8219	3063.2186	3072.6692	3093.5702	3118.4472	3129.2138	3791.7503
CC(O)CC1CCO1	C[C@@H](O)C[C@H]1CCO1	
InChI=1S/C6H12O2/c1-5(7)4-6-2-3-8-6/h5-7H,2-4H2,1H3	InChI=1S/C6H12O2/c1-5(7)4-6-2-3-8-6/h5-7H,2-4H2,1H3/t5-,6-/m1/s1
