19
gdb 107810	3.44088	1.50848	1.31241	1.3525	79.01	-0.2229	0.0051	0.228	1036.7513	0.159362	-385.85245	-385.844857	-385.843913	-385.884271	30.812	
C	-0.0108904288	 1.5057711132	 0.2219712095	-0.388498
C	-0.0139193206	-0.0065733245	-0.0288586642	-0.292398
C	-1.398828066	-0.5853942334	-0.170646187	 0.417904
O	-2.2018144433	-0.3849131371	 1.09459441	-0.32649
C	-2.5968508523	-1.7272451744	 1.0222998075	 0.097172
C	-3.1052102809	-2.1330776735	-0.4213228834	-0.143529
C	-3.3447385693	-1.0057542262	-1.3489753511	-0.063711
C	-2.3340367039	-0.1278532383	-1.2651169727	-0.153548
C	-1.6432614019	-2.1246943672	-0.0392454652	-0.222393
H	 1.0081158264	 1.8678390075	 0.3858974303	 0.112515
H	-0.4266411222	 2.0579558255	-0.6266173772	 0.118058
H	-0.6067752934	 1.7467700981	 1.1063109188	 0.14232
H	 0.5482490018	-0.2462269618	-0.9408997982	 0.102564
H	 0.4896696597	-0.5187298272	 0.7989645108	 0.106026
H	-2.9766823991	-2.1988796874	 1.9205786925	 0.109259
H	-3.6410608968	-3.0722703527	-0.4870603107	 0.087368
H	-4.254946743	-0.880977876	-1.9228483979	 0.101888
H	-2.2784626472	 0.8425910671	-1.7398778425	 0.10038
H	-0.9308294491	-2.9332656616	-0.1482256292	 0.095112
94.599	169.6955	203.1202	302.2761	354.9814	409.5824	451.1725	611.2307	612.3803	675.1599	711.2726	737.5637	767.9062	790.791	807.6926	819.8721	857.662	919.2729	932.2305	966.3282	987.9969	1007.0649	1033.4507	1056.1705	1067.7724	1083.8259	1114.6949	1127.1119	1188.5921	1213.0695	1260.4678	1283.5377	1323.4026	1365.5322	1373.6553	1389.7299	1410.1369	1474.7128	1499.5846	1508.0567	1625.6341	3025.8757	3044.0211	3065.2968	3110.0021	3124.035	3178.1257	3186.2556	3196.7029	3203.6111	3228.8149
CCC12OC3C(C=C1)C23	CC[C@@]12O[C@H]3[C@@H](C=C1)[C@@H]23	
InChI=1S/C8H10O/c1-2-8-4-3-5-6(8)7(5)9-8/h3-7H,2H2,1H3	InChI=1S/C8H10O/c1-2-8-4-3-5-6(8)7(5)9-8/h3-7H,2H2,1H3/t5-,6+,7-,8+/m0/s1
