17
gdb 19121	2.71627	2.12142	1.46578	0.5591	75.36	-0.2405	0.0413	0.2818	908.9264	0.140835	-326.64286	-326.634998	-326.634054	-326.674831	30.254	
C	 0.1233428627	-1.246579843	 0.0707891864	-0.525739
C	 0.0941630217	-0.0427194893	 0.0666678039	 0.324874
C	 0.0068814546	 1.3964118175	 0.0276898311	 0.210022
C	 0.4679034797	 2.1771690194	 1.2464761344	-0.299285
C	 1.2995024925	 2.1937332962	-0.0035480333	-0.299288
N	-1.0895837921	 2.0114187133	-0.6935547445	-0.125775
C	-1.5716867086	 1.3769539998	-1.9176895801	-0.235535
C	-2.3970136254	 1.3604004312	-0.6771094181	-0.235533
H	 0.1679781035	-2.3074922936	 0.0855238299	 0.196621
H	-0.1153830191	 3.0604320564	 1.4772995141	 0.128661
H	 0.8228311869	 1.6114161966	 2.0992973935	 0.125153
H	 2.2300769671	 1.639450189	-0.0160168749	 0.12515
H	 1.276142612	 3.0881466601	-0.6143953951	 0.128653
H	-1.8050226581	 2.0577466318	-2.7311479133	 0.114941
H	-1.1204958479	 0.4332885883	-2.214113649	 0.126061
H	-2.4844041092	 0.4059307697	-0.1639851033	 0.126081
H	-3.2457551204	 2.0288516766	-0.5655289318	 0.11494
86.1579	146.9156	201.1597	252.3948	263.3287	376.1809	445.994	552.9032	571.7789	597.521	610.8707	669.5108	776.02	805.7888	837.0922	890.4416	905.7426	955.2335	956.9788	1011.4577	1050.1011	1063.1627	1086.8489	1117.5394	1127.0059	1177.0145	1177.299	1196.671	1226.8082	1305.6056	1336.9955	1450.4157	1484.0356	1484.3647	1511.4168	2219.4018	3107.6807	3110.239	3145.8507	3149.1211	3190.0965	3203.7386	3235.3222	3248.754	3500.2657
C#CC1(CC1)N1CC1	C#CC1(CC1)N1CC1	
InChI=1S/C7H9N/c1-2-7(3-4-7)8-5-6-8/h1H,3-6H2	InChI=1S/C7H9N/c1-2-7(3-4-7)8-5-6-8/h1H,3-6H2
