15
gdb 42620	2.9012	1.97261	1.40822	4.0103	70.76	-0.2367	-0.0679	0.1688	894.7186	0.114902	-416.776227	-416.769753	-416.768808	-416.807086	25.805	
N	-0.0865485383	 1.2465890054	-0.2782374121	-0.480065
C	-0.024216416	 0.0181487202	 0.0002859658	 0.244292
N	-1.1601187658	-0.8423058188	 0.1681934261	-0.148046
C	-1.2359522499	-1.7387775417	-1.0645396287	-0.199841
C	-0.476631959	-2.8145600425	-0.3020108807	-0.082885
C	-0.6695602166	-2.0253228608	 0.9457441833	-0.050466
C	 0.7480225832	-2.2087893082	 0.4360431881	-0.186707
C	 1.2369432626	-0.8447615701	 0.1014866022	 0.367177
O	 2.3652349536	-0.442247307	-0.0382921054	-0.328736
H	 0.8743615637	 1.5945741076	-0.3798954924	 0.243622
H	-2.2768916103	-2.0110372619	-1.2536327362	 0.134183
H	-0.7951827444	-1.312004277	-1.9702469412	 0.129383
H	-0.5181710993	-3.88718076	-0.4470974318	 0.113394
H	-1.0316563014	-2.2573564394	 1.9381565871	 0.120147
H	 1.4197524379	-2.9257285757	 0.890228866	 0.124548
114.7198	207.1802	307.6547	366.0469	477.4466	503.8272	622.1085	651.0598	705.7266	755.5958	798.2699	824.1678	859.0075	894.5979	941.9492	948.2491	976.4163	1005.2564	1019.962	1043.4618	1051.1918	1069.9169	1104.7529	1172.0379	1179.6065	1229.2533	1298.5992	1310.6307	1340.6067	1363.8715	1512.85	1757.6334	1831.8347	3056.9583	3115.3781	3189.4217	3206.0026	3215.701	3407.1444
N=C1N2CC3C2C3C1=O	[NH][C]1N2C[C@@H]3[C@H]2[C@@H]3C1=O	
InChI=1S/C6H6N2O/c7-6-5(9)3-2-1-8(6)4(2)3/h2-4,7H,1H2	InChI=1S/C6H6N2O/c7-6-5(9)3-2-1-8(6)4(2)3/h2-4,7H,1H2/t2-,3+,4-/m0/s1
