17
gdb 11290	3.91573	1.43944	1.27322	4.3531	68.01	-0.2751	0.0217	0.2968	1002.3199	0.143025	-363.884956	-363.877071	-363.876126	-363.91771	28.491	
C	-0.2708427878	 1.3785810832	-0.0551629506	-0.417533
C	 0.1119918689	-0.0899090971	 0.1095793704	 0.005363
C	 0.8865294398	-0.676495049	-1.0811345894	-0.06998
O	 1.7216346654	-1.7264871407	-0.5689600575	-0.258217
C	 1.6626895549	-1.7462637115	 0.8496632456	-0.027525
C	 1.0759267305	-0.3872491848	 1.2704265874	-0.245999
C	 0.8231641112	-2.8734041673	 1.3161662108	 0.273982
N	 0.1642317088	-3.7474691471	 1.6866996061	-0.326015
H	 0.6189345464	 2.0045693622	-0.1870486161	 0.120171
H	-0.9146288286	 1.523238649	-0.9287681507	 0.125338
H	-0.8148420094	 1.7459865678	 0.8202307271	 0.125823
H	-0.7969890358	-0.6848879752	 0.2605732235	 0.103376
H	 0.2310321504	-1.0928344203	-1.8526109401	 0.117877
H	 1.5290525833	 0.0835429531	-1.5477298533	 0.101518
H	 2.6754715247	-1.9047440845	 1.2354062971	 0.128863
H	 1.8831567689	 0.3525686342	 1.2998361847	 0.113415
H	 0.5934072784	-0.4146897223	 2.2490301848	 0.129544
60.3709	98.5454	193.7908	234.1936	263.7926	301.4243	418.1924	469.2458	557.3337	606.4323	757.0105	809.0775	867.8175	917.1326	933.3872	949.3705	962.3502	1013.7305	1065.6406	1120.3262	1136.3371	1166.8793	1195.1926	1253.7945	1272.0325	1308.3299	1345.5156	1355.9821	1370.3775	1405.14	1418.2752	1485.6576	1496.8168	1501.9717	1526.1645	2353.2267	3005.346	3030.845	3033.8934	3050.6461	3061.7631	3074.969	3100.2289	3107.4213	3124.5723
CC1COC(C1)C#N	C[C@H]1CO[C@@H](C1)C#N	
InChI=1S/C6H9NO/c1-5-2-6(3-7)8-4-5/h5-6H,2,4H2,1H3	InChI=1S/C6H9NO/c1-5-2-6(3-7)8-4-5/h5-6H,2,4H2,1H3/t5-,6+/m1/s1
