19
gdb 41743	3.78345	1.39134	1.21614	0.0177	74.46	-0.2525	0.0942	0.3467	1053.3092	0.162561	-423.019066	-423.012056	-423.011112	-423.050289	28.105	
C	-0.0032644587	 1.4132185449	-0.1479068776	-0.104883
O	 0.9608225141	 1.9468665673	 0.7618051635	-0.257764
C	 2.0419917921	 1.0248744129	 0.8725806938	-0.183136
C	 1.4179576966	-0.3346233256	 0.6674483977	 0.316729
C	 2.1268929098	-1.6518368494	 0.4622480258	-0.183139
O	 1.1063282837	-2.6404913983	 0.5730541039	-0.257757
C	 0.1104976911	-2.169056718	 1.4829355166	-0.104889
C	 0.1160490817	-0.6550424744	 1.3674742896	-0.114237
C	 0.0982890217	-0.0973969077	-0.0324568674	-0.114239
H	-0.9751035446	 1.8289469754	 0.1386494707	 0.109881
H	 0.2130651233	 1.7231908886	-1.1830752578	 0.093751
H	 2.8133048204	 1.2164912369	 0.1070756882	 0.091417
H	 2.4950716285	 1.1729066077	 1.8589994777	 0.109453
H	 2.588396756	-1.7708417458	-0.5241926256	 0.109455
H	 2.9088302308	-1.7942007538	 1.2277194148	 0.091418
H	-0.8330691535	-2.6455824142	 1.1965484798	 0.109883
H	 0.3462317175	-2.4646737282	 2.5180677326	 0.09375
H	-0.2461297782	-0.0551618129	 2.1957928384	 0.097152
H	-0.2251967223	-0.7190290154	-0.8607511149	 0.097154
181.0251	206.5279	238.0434	281.4272	319.8597	376.4791	451.3324	641.9179	705.4661	737.2849	788.0034	865.0779	890.2818	927.212	937.675	952.6089	996.4122	1001.4	1044.2588	1071.5752	1072.3089	1102.9853	1104.5557	1123.9114	1131.4558	1211.1694	1211.4231	1233.2697	1241.7302	1258.5659	1277.1525	1288.7458	1352.2623	1370.2664	1371.6327	1406.8754	1451.344	1511.129	1512.9747	1521.7113	1525.627	2956.1511	2960.0303	2975.3634	2976.2349	3060.3301	3060.8928	3065.9492	3066.2919	3168.7919	3171.2438
C1OCC23COCC2C13	C1OC[C@@]23COC[C@@H]2[C@@H]13	
InChI=1S/C7H10O2/c1-5-6-2-9-4-7(5,6)3-8-1/h5-6H,1-4H2	InChI=1S/C7H10O2/c1-5-6-2-9-4-7(5,6)3-8-1/h5-6H,1-4H2/t5-,6-,7+/m1/s1
