19
gdb 6381	5.05807	1.04938	0.93657	1.8579	69.66	-0.2144	0.0165	0.2309	1293.1905	0.163037	-402.213721	-402.203984	-402.20304	-402.248815	33.418	
C	 0.0708540668	 1.3561424443	 0.2109145397	-0.238184
O	-0.0832050455	-0.0611006564	 0.06894489	-0.230163
C	-1.3548203227	-0.5119254414	 0.1199226474	 0.440584
O	-2.310409982	 0.2025572095	 0.2743411774	-0.346507
C	-1.3555322569	-2.0252415065	-0.0510813585	-0.271435
N	-2.6668890349	-2.6251289837	 0.0557745343	-0.042547
C	-3.5330613938	-2.3013184692	-1.0702743224	-0.327772
C	-2.5793640934	-4.0609268833	 0.2669677638	-0.310533
H	 1.1422605032	 1.5465216533	 0.1470911466	 0.132815
H	-0.4594874032	 1.8839662708	-0.585895725	 0.13991
H	-0.3209015561	 1.6926053323	 1.1741753731	 0.141549
H	-0.8402670488	-2.2477514291	-1.0080427485	 0.105707
H	-0.7072462075	-2.4307096013	 0.7336943763	 0.131981
H	-3.1486484645	-2.6955132682	-2.0317495083	 0.082961
H	-4.5227495622	-2.7359762175	-0.9011021864	 0.11718
H	-3.6448455269	-1.219564253	-1.1500692637	 0.14706
H	-1.9876876579	-4.2738113781	 1.1632167581	 0.116558
H	-3.5836775536	-4.4677258906	 0.4195242685	 0.121094
H	-2.12070984	-4.6043251818	-0.5823777124	 0.089742
43.2493	90.1708	119.3411	155.96	171.031	249.0687	258.5432	303.4446	335.1215	365.7291	373.7627	487.1869	599.9411	719.9584	868.4827	906.4206	1004.1393	1021.9562	1068.9118	1092.247	1124.1609	1176.7406	1180.1571	1189.2567	1209.892	1231.6272	1310.6847	1319.3704	1404.6423	1441.5715	1454.1632	1473.1308	1480.3249	1481.9858	1486.9465	1497.5803	1499.3358	1506.004	1513.3575	1831.94	2898.6388	2911.4451	2922.6872	3051.2641	3058.1019	3064.7412	3077.8298	3104.3733	3125.3574	3144.8747	3157.9782
COC(=O)CN(C)C	COC(=O)CN(C)C	
InChI=1S/C5H11NO2/c1-6(2)4-5(7)8-3/h4H2,1-3H3	InChI=1S/C5H11NO2/c1-6(2)4-5(7)8-3/h4H2,1-3H3
