19
gdb 111768	2.42926	1.31746	1.00668	1.8607	72.18	-0.2346	0.0664	0.301	1238.9254	0.157429	-460.090922	-460.081605	-460.080661	-460.125498	33.623	
C	-0.3959567955	 1.0181459289	-0.1553801976	-0.235361
O	 0.3792604275	-0.1379047949	-0.4099424224	-0.237415
C	 1.021484636	-0.6128123062	 0.7239462015	 0.054789
C	 0.3291134305	-1.4625659871	 1.7736055522	-0.253553
C	-0.5982582273	-2.4481488819	 1.0707273433	-0.089166
O	 0.4628420147	-2.9020007134	 0.1886950068	-0.313752
C	 1.3997527143	-2.0503517211	 0.8430931108	 0.375859
C	 2.7869948947	-2.6095800846	 1.0211214541	-0.182989
O	 3.7149528034	-1.6533270006	 1.5000438415	-0.407286
H	 0.2289971689	 1.8576142372	 0.1856207099	 0.10615
H	-0.8787345247	 1.2950609018	-1.0951827946	 0.13031
H	-1.1664381552	 0.8302705578	 0.6058299147	 0.111304
H	 1.7523419547	 0.0698846321	 1.1637374876	 0.091587
H	 0.3462939106	-1.2411583875	 2.8327571182	 0.102593
H	-0.9367405971	-3.2676269222	 1.713183668	 0.11016
H	-1.4442181477	-2.0342331129	 0.5121299948	 0.112184
H	 2.7715164588	-3.421761567	 1.755075472	 0.122974
H	 3.0974827056	-3.0490627359	 0.0600124832	 0.111411
H	 3.8846221478	-1.0296594323	 0.7867867161	 0.290202
64.1758	86.5252	165.7197	174.1942	195.5227	243.4718	251.518	334.8334	342.6469	434.6779	560.1731	595.6934	683.064	792.4067	820.6465	894.9656	960.3145	969.7869	993.4681	1021.4672	1032.6162	1048.1109	1087.2987	1120.9999	1136.8329	1164.4527	1182.5051	1187.5931	1216.9458	1233.9673	1263.4031	1323.2295	1336.2472	1387.3191	1413.8872	1455.3751	1485.9867	1491.6149	1499.3898	1509.4645	1515.0457	2982.7072	2987.2269	3034.4581	3036.9221	3075.4931	3083.8605	3086.5933	3121.3102	3196.7263	3820.6111
COC1C2COC12CO	CO[C@H]1[C@H]2CO[C@@]12CO	
InChI=1S/C6H10O3/c1-8-5-4-2-9-6(4,5)3-7/h4-5,7H,2-3H2,1H3	InChI=1S/C6H10O3/c1-8-5-4-2-9-6(4,5)3-7/h4-5,7H,2-3H2,1H3/t4-,5+,6-/m1/s1
