19
gdb 115404	3.19892	1.04684	0.89489	3.8563	75.58	-0.2147	0.0566	0.2714	1353.3017	0.159669	-456.353552	-456.344057	-456.343113	-456.388714	33.583	
C	-0.0934053882	 1.2689884195	 0.0591337195	-0.327908
N	 0.2674801455	-0.1357784945	 0.0199462621	-0.372105
C	 0.6131023401	-0.6602963086	-1.0713620162	 0.48787
N	 1.0364241232	-1.9755473224	-1.2313826587	-0.351068
C	 0.9379392823	-2.351358103	-2.6322987268	 0.00412
C	-0.4016713666	-3.0029316624	-2.9800428722	-0.085541
O	-0.5180677987	-4.157034354	-2.1631967267	-0.42324
C	 1.1254866248	-0.9705176251	-3.2807611402	-0.107765
O	 0.6519835256	-0.0416640854	-2.3008419201	-0.25488
H	 0.5792794701	 1.8027816189	 0.7420320313	 0.116309
H	-0.0625534089	 1.7723530323	-0.9147606376	 0.115571
H	-1.1049670539	 1.3758325256	 0.4698683912	 0.113292
H	 0.6848376964	-2.6328321534	-0.550694829	 0.259793
H	 1.7444692548	-3.0394674834	-2.9056843642	 0.09734
H	-1.2158647842	-2.2871386686	-2.7887869218	 0.10436
H	-0.4188048451	-3.2612505398	-4.0512444716	 0.090419
H	-1.4141531247	-4.4974336909	-2.2346300009	 0.295652
H	 2.1808238854	-0.7677489633	-3.4942869329	 0.120275
H	 0.5434977821	-0.8371261015	-4.1970325451	 0.117507
59.1864	67.3483	130.5609	148.639	207.1096	233.762	254.2082	263.7955	380.1577	483.1264	526.7844	596.1142	712.5564	724.1116	780.0737	849.8555	896.7308	963.8169	998.5659	1049.412	1087.6439	1096.7594	1113.1398	1137.8621	1138.6538	1163.5399	1218.1503	1237.14	1251.9336	1272.0075	1309.502	1379.9018	1413.0433	1419.1147	1446.3328	1454.0412	1496.6655	1503.0141	1514.7988	1517.9775	1817.4948	2967.8852	3006.242	3008.0385	3038.198	3058.0117	3060.5643	3072.58	3094.4839	3626.228	3839.6347
CN=C1NC(CO)CO1	CN=C1N[C@@H](CO)CO1	
InChI=1S/C5H10N2O2/c1-6-5-7-4(2-8)3-9-5/h4,8H,2-3H2,1H3,(H,6,7)	InChI=1S/C5H10N2O2/c1-6-5-7-4(2-8)3-9-5/h4,8H,2-3H2,1H3,(H,6,7)/t4-/m0/s1
