17
gdb 14887	4.56602	1.41997	1.13233	4.718	76.68	-0.2589	-0.0339	0.225	1036.1453	0.144807	-326.772492	-326.765268	-326.764324	-326.80398	27.418	
N	 0.067711548	-1.1784362771	 0.0089882684	-0.33845
C	-0.0061880046	-0.0220924578	 0.0084396655	 0.213989
C	-0.0482034119	 1.4072995509	 0.0082408314	 0.162196
C	-1.2294764107	 2.0439743677	 0.0263734203	-0.111346
C	-1.3647463722	 3.5391025983	 0.0577507142	-0.247888
C	-0.0422451434	 4.2444724682	 0.3908546302	-0.203711
C	 1.1213221948	 3.6113686408	-0.3809540243	-0.20869
C	 1.2860119865	 2.1309851722	-0.0128140915	-0.28916
H	-2.1444029405	 1.4581753817	 0.0175471993	 0.112939
H	-1.744120265	 3.8774010973	-0.9185189493	 0.12304
H	-2.1438461922	 3.8150373536	 0.7792005851	 0.117586
H	-0.1206628485	 5.3127695751	 0.1665743522	 0.101494
H	 0.1507360535	 4.1607811991	 1.4678623776	 0.106754
H	 0.9310808022	 3.6972991653	-1.4583902866	 0.106617
H	 2.0550894295	 4.1464180891	-0.1817147483	 0.103269
H	 1.7612609058	 2.0306902972	 0.9725018853	 0.125847
H	 1.9572612686	 1.6301974284	-0.7188328196	 0.125514
103.0656	162.0483	206.4266	277.9869	383.0209	402.3949	472.0033	562.537	575.9201	604.0996	763.1133	814.8043	856.7707	876.1154	928.7503	949.2188	972.0301	1055.5044	1088.1923	1099.7103	1152.2733	1160.6658	1196.3152	1265.6061	1296.0876	1334.5999	1368.5689	1372.9761	1382.6749	1390.0634	1465.6649	1478.0929	1490.6658	1499.4774	1696.8811	2333.3235	2998.6958	3018.9203	3025.1768	3031.5298	3047.8257	3067.6658	3079.8478	3083.1693	3172.2931
N#CC1=CCCCC1	N#CC1=CCCCC1	
InChI=1S/C7H9N/c8-6-7-4-2-1-3-5-7/h4H,1-3,5H2	InChI=1S/C7H9N/c8-6-7-4-2-1-3-5-7/h4H,1-3,5H2
