16
gdb 55992	3.65152	0.98319	0.82662	2.5873	67.29	-0.2609	0.0153	0.2762	1340.4888	0.125057	-471.236411	-471.22762	-471.226676	-471.271376	31.573	
N	 0.1208196206	 1.3385162245	-0.0078923841	-0.566606
C	-0.1275033237	 0.0304333416	 0.367037332	 0.459413
O	 0.2912637144	-0.4643902477	 1.397238817	-0.389891
N	-0.8871404447	-0.6893067093	-0.5370024897	-0.362564
C	-0.9679222582	-2.1170467992	-0.3612935296	-0.061835
C	-2.0614505878	-2.6939803905	 0.5642797921	-0.083441
O	-2.6465301869	-3.406517732	-0.5818765701	-0.252504
C	-1.7574711423	-2.820403947	-1.4476036348	 0.405288
N	-1.6786117946	-2.8233020478	-2.6987599016	-0.550908
H	 0.4681493461	 1.9093204948	 0.7471040329	 0.264756
H	-0.5418506563	 1.7984238225	-0.6130052127	 0.253055
H	-0.9312330404	-0.377997425	-1.496823037	 0.259108
H	 0.0133587422	-2.5609828939	-0.1670500793	 0.130828
H	-1.7342893535	-3.3919418532	 1.3355650729	 0.132671
H	-2.7611808494	-1.9573064707	 0.9623239138	 0.129098
H	-2.4200766355	-3.3807626772	-3.1257549918	 0.233531
25.001	90.5477	122.4184	158.7854	233.3028	367.2873	389.5514	434.4454	471.687	501.0253	535.1101	646.1873	668.781	738.0395	778.6086	867.3181	893.1667	946.7668	952.3277	1017.3746	1023.6063	1078.4333	1103.4148	1150.9972	1203.6399	1227.5902	1242.8316	1331.6882	1348.3676	1401.6929	1504.3592	1516.7977	1628.1041	1800.3469	1827.7332	3064.3506	3083.0068	3153.0189	3481.3633	3582.2131	3603.5484	3698.7477
NC(=O)NC1COC1=N	NC(=O)N[C@H]1CO[C]1[NH]	
InChI=1S/C4H7N3O2/c5-3-2(1-9-3)7-4(6)8/h2,5H,1H2,(H3,6,7,8)	InChI=1S/C4H7N3O2/c5-3-2(1-9-3)7-4(6)8/h2,5H,1H2,(H3,6,7,8)/t2-/m0/s1
