21
gdb 92014	2.85281	1.57641	1.20906	1.7695	81.06	-0.2528	0.0827	0.3355	1099.0816	0.184637	-387.079171	-387.071367	-387.070423	-387.111088	31.775	
C	 0.0394134458	 1.5526887294	 0.0501031248	-0.40156
C	-0.0089205941	 0.0197295383	 0.0054558592	-0.0066
C	 0.6530591122	-0.5224737737	-1.279327623	-0.227351
C	 0.7370439177	-2.0462769478	-1.3312566718	-0.048352
C	 2.0543900175	-2.7526465515	-1.1201244698	-0.29862
C	 1.0053692045	-2.7840560475	-0.0368239402	-0.030694
C	 1.156245008	-1.9613534363	 1.2073417186	 0.018717
O	 2.0515754785	-0.8420572618	 1.1606741452	-0.262838
C	 0.639129446	-0.5844900545	 1.2386232946	 0.062195
H	 1.0761149547	 1.9058938615	 0.0711554484	 0.126944
H	-0.446615093	 1.986914005	-0.8296956166	 0.111368
H	-0.4663024977	 1.9434872204	 0.9393694574	 0.110023
H	-1.0636125937	-0.295016567	 0.0217166073	 0.074398
H	 0.0911354782	-0.1561340891	-2.1446634899	 0.093877
H	 1.6548134796	-0.0871054047	-1.3520966161	 0.112407
H	 0.0401142659	-2.5268486245	-2.0107048024	 0.081687
H	 2.2485508241	-3.6684108174	-1.6673093489	 0.106614
H	 2.9245061565	-2.1316156984	-0.9380806881	 0.128801
H	 0.4861191908	-3.7240283106	 0.1247457186	 0.080983
H	 1.2051866626	-2.5215290439	 2.1414271918	 0.08715
H	 0.3185112757	-0.1673314358	 2.1948035709	 0.080851
118.0488	190.9657	223.5925	252.5493	320.6918	380.8463	405.9205	485.4023	534.8653	592.8188	668.7633	750.1522	796.9108	830.9562	843.5292	878.5591	888.7991	916.5659	960.5896	980.9017	1016.0157	1035.6007	1071.4042	1080.1004	1099.8162	1107.0207	1127.6143	1134.3532	1159.2853	1175.2308	1222.4963	1251.5707	1284.6262	1311.8647	1339.3799	1369.1458	1381.1622	1395.132	1408.5115	1413.7203	1463.17	1475.933	1493.8889	1498.0631	1502.4784	2991.6976	3029.0056	3044.5494	3082.7423	3090.3597	3098.7767	3101.8914	3105.5622	3134.8871	3145.8613	3155.7045	3226.2982
CC1CC2CC2C2OC12	C[C@H]1C[C@H]2C[C@H]2[C@H]2O[C@@H]12	
InChI=1S/C8H12O/c1-4-2-5-3-6(5)8-7(4)9-8/h4-8H,2-3H2,1H3	InChI=1S/C8H12O/c1-4-2-5-3-6(5)8-7(4)9-8/h4-8H,2-3H2,1H3/t4-,5-,6+,7-,8+/m0/s1
