12
gdb 130602	2.7193	1.68217	1.03927	3.4758	67.75	-0.2635	-0.1122	0.1512	1024.1331	0.07685	-472.58847	-472.581203	-472.580259	-472.621889	25.917	
O	-0.0081486435	 0.0254288679	-0.6276371465	-0.296268
C	 0.0068597023	 1.1762334085	-0.2514082589	 0.27699
C	-1.1931864872	 1.9989341434	-0.2190117125	-0.231321
C	-1.3945204146	 3.2737880285	 0.155409812	 0.098717
O	-0.6042423681	 4.2575213732	 0.6289116942	-0.226884
N	 0.7543015432	 4.2206516981	 0.8824612155	-0.047406
C	 1.4866663404	 3.1878883494	 0.6905105029	-0.022196
C	 1.3437963539	 1.7784803716	 0.2051911526	 0.242936
O	 2.3449504893	 1.1038480808	 0.1818206021	-0.263602
H	-2.0819168417	 1.4789763028	-0.5613632102	 0.139885
H	-2.3949741402	 3.692026088	 0.0957103811	 0.159146
H	 2.5222475662	 3.3934279776	 0.9596118477	 0.170002
20.2465	92.5383	329.8785	344.2213	354.6206	368.1861	421.5182	530.7829	585.3156	626.2339	790.9068	808.246	819.3504	866.9705	895.4227	958.1082	981.7207	998.4227	1170.8317	1277.3647	1313.4501	1353.0466	1437.7662	1642.9693	1658.883	1768.3658	1781.5712	3152.7651	3183.1104	3200.5166
O=C1C=CON=CC1=O	O=c1cconcc1=O	
InChI=1S/C5H3NO3/c7-4-1-2-9-6-3-5(4)8/h1-3H	InChI=1S/C5H3NO3/c7-4-1-2-9-6-3-5(4)8/h1-3H
