12
gdb 21921	3.61406	1.92915	1.293	2.5445	52.98	-0.2485	-0.0446	0.2039	855.2525	0.082761	-451.758862	-451.751481	-451.750537	-451.791202	25.741	
O	 0.1948741415	 1.2240396023	-0.512010717	-0.405362
C	-0.0233273955	 0.1296434397	 0.3529978052	-0.181429
C	-1.3580831941	-0.5090005618	 0.1234700328	 0.299277
C	-2.115311425	-0.6715072553	-0.9971963581	 0.25027
O	-1.8281326038	-0.290007832	-2.2581162267	-0.437798
N	-3.2583247199	-1.3237270468	-0.642952332	-0.200108
N	-3.2494438167	-1.5709920906	 0.6015579478	-0.015637
O	-2.0442222721	-1.0643100532	 1.1325273983	-0.203047
H	 0.1106989911	 0.9165250563	-1.421655076	 0.303161
H	 0.7710070177	-0.6293315	 0.2630620073	 0.12285
H	 0.0180214653	 0.5160181101	 1.3757078437	 0.148829
H	-2.5949952986	-0.4793870388	-2.8123033953	 0.318996
46.5406	146.9019	212.5697	256.1554	335.1072	352.4997	407.3117	444.1028	655.5617	698.1849	722.5684	748.8297	763.0098	989.1258	1016.3336	1078.9644	1137.6941	1190.7777	1271.7563	1310.4909	1369.426	1402.1757	1431.3027	1463.1855	1495.3504	1707.9502	2971.5839	3088.262	3806.074	3807.8968
OCC1=C(O)N=NO1	OCc1c(O)nno1	
InChI=1S/C3H4N2O3/c6-1-2-3(7)4-5-8-2/h6-7H,1H2	InChI=1S/C3H4N2O3/c6-1-2-3(7)4-5-8-2/h6-7H,1H2
