16
gdb 83415	2.91668	1.36354	1.11592	13.4843	65.99	-0.1761	-0.0265	0.1496	1084.2963	0.12479	-474.932105	-474.924089	-474.923144	-474.965105	29.751	
N	-0.2277150272	 0.9864700095	 0.0522410318	-0.422739
H	-0.1777704921	-0.0466113919	 0.1968712644	 0.327336
H	 0.7005817977	 1.3552492834	-0.1624820767	 0.330108
H	-0.8561480278	 1.1959730323	-0.7251096514	 0.322614
C	-0.7567420327	 1.4688679843	 1.366423477	-0.152006
C	-1.3199300443	 0.3816846482	 2.2076216304	 0.034025
O	-0.5983617012	-0.8255552039	 1.8973297198	-0.331643
C	 0.6127356874	-0.2431223555	 2.5301570791	-0.175152
C	-0.0477057674	 1.1143419386	 2.6457632253	 0.156274
C	 0.159003145	 2.2267955487	 3.7213349852	 0.294087
O	 0.9665733659	 1.9030990764	 4.5996753992	-0.469484
O	-0.5349547816	 3.2362090106	 3.5031068223	-0.492913
H	-1.1683900491	 2.4717214439	 1.3848969072	 0.175172
H	-2.3260027446	 0.3012439675	 2.5986470222	 0.13911
H	 0.7765381815	-0.6866188756	 3.5126339222	 0.171914
H	 1.5056488304	-0.3735761463	 1.905061302	 0.093297
68.3282	127.7302	163.752	249.4314	274.6623	354.5435	384.4241	463.2394	485.022	623.0922	716.7851	755.6567	783.4472	817.5348	864.8534	892.7365	919.8057	971.991	991.1054	1013.3341	1063.2887	1083.6685	1124.0783	1141.4518	1202.4615	1214.4309	1262.6269	1315.4812	1321.6369	1403.8016	1429.8701	1521.8686	1636.5813	1673.5547	1801.0264	3023.2998	3129.9447	3140.3128	3202.8631	3208.0153	3448.0215	3506.5162
[NH3+]C1C2OCC12C([O-])=O	[NH3][C@H]1[C@H]2OC[C@@]12C(=O)[O]	
InChI=1S/C5H7NO3/c6-2-3-5(2,1-9-3)4(7)8/h2-3H,1,6H2,(H,7,8)	InChI=1S/C5H7NO3/c6-2-3-5(2,1-9-3)4(7)8/h2-3H,1H2,6H3/t2-,3+,5+/m0/s1
