16
gdb 84736	2.38956	1.72349	1.3469	3.8926	74.72	-0.2226	-0.0365	0.1861	987.1337	0.126283	-437.924933	-437.917136	-437.916192	-437.957053	29.976	
O	 0.0822803851	 1.3710198826	-0.222671455	-0.433892
C	 0.0461709539	-0.0406114752	-0.0347908084	-0.022774
C	 0.7541951177	-0.4985910363	 1.213187481	-0.146436
C	 0.3954056694	-0.0999311997	 2.4475512253	-0.072569
C	-0.7931171853	 0.6532707078	 2.7831584943	-0.153279
C	-1.9553436416	 0.6548297347	 2.0914549759	-0.001692
N	-2.2414365282	-0.0253837575	 0.9265915004	-0.309547
C	-1.4035473372	-0.5421134749	-0.0622345845	 0.38439
O	-1.8440360115	-1.2870000329	-0.9091845087	-0.353852
H	-0.0252604687	 1.7839480215	 0.6416300013	 0.293566
H	 0.5109188616	-0.4765749687	-0.9205294547	 0.117707
H	 1.6267898253	-1.1304896173	 1.0859432174	 0.108144
H	 1.0427268211	-0.3591124094	 3.2823753596	 0.105838
H	-0.7918555711	 1.2081370067	 3.715292621	 0.101499
H	-2.806298579	 1.2018262298	 2.484679807	 0.122386
H	-3.2171588713	-0.1847913412	 0.715396098	 0.260513
112.0639	145.6667	242.9371	260.1878	290.1244	375.8474	416.4483	446.8885	510.8603	611.5468	628.8018	731.1473	741.8614	760.9078	791.3491	887.2808	913.4989	923.1705	958.4436	972.8518	994.8905	1065.226	1134.1108	1215.2741	1241.5892	1289.8735	1311.4528	1328.2446	1407.1086	1433.9361	1460.8672	1492.6589	1638.4169	1689.0621	1798.6102	3108.042	3149.9962	3175.0572	3187.1204	3194.4544	3596.7649	3797.2856
OC1C=CC=CNC1=O	O[C@H]1C=CC=CNC1=O	
InChI=1S/C6H7NO2/c8-5-3-1-2-4-7-6(5)9/h1-5,8H,(H,7,9)	InChI=1S/C6H7NO2/c8-5-3-1-2-4-7-6(5)9/h1-5,8H,(H,7,9)/t5-/m0/s1
