18
gdb 5224	6.42124	1.06189	0.984	3.3909	74.46	-0.2134	0.0366	0.25	1228.1524	0.155633	-344.035813	-344.02774	-344.026796	-344.069704	29.152	
C	 0.0990943465	 1.5644729697	-0.0335804428	-0.380841
C	 0.2305509064	 0.0404965313	-0.0675268155	-0.156423
C	 0.5170707325	-0.5624536021	 1.3225675046	-0.294315
C	 0.6163263839	-2.0541052311	 1.3121538183	 0.342812
N	-0.3748508975	-2.8977766573	 1.5126241287	-0.297986
C	 0.1634977728	-4.1552161046	 1.3603764232	-0.087574
C	 1.4966730973	-4.0768974217	 1.0637340356	-0.114996
N	 1.7752536534	-2.7266648368	 1.0338892578	-0.273864
H	 1.016524585	 2.0356921664	 0.3374773862	 0.110861
H	-0.1022417228	 1.9679936044	-1.0306134629	 0.114561
H	-0.7201998275	 1.8756520467	 0.6237238437	 0.119822
H	-0.6890967861	-0.4098186654	-0.4572049964	 0.119292
H	 1.031261681	-0.2486809383	-0.760300361	 0.089603
H	 1.4402777305	-0.1261447227	 1.7267381074	 0.093429
H	-0.2906415896	-0.2910994093	 2.0091532258	 0.130072
H	-0.4390873012	-5.0430404303	 1.4783338971	 0.102751
H	 2.2544580859	-4.8211690155	 0.8844302465	 0.122525
H	 2.6734719794	-2.3117995234	 0.8514391438	 0.26027
23.7723	86.978	115.079	238.3867	305.4953	343.1888	363.6086	530.8454	646.1577	697.7423	722.3249	742.9522	781.4507	854.7497	868.514	896.3237	929.3894	989.1969	1043.7309	1074.7048	1106.7397	1109.3219	1139.4823	1190.1737	1239.2607	1284.722	1310.1892	1329.2811	1379.6396	1395.3504	1412.1386	1462.7193	1475.6381	1492.0579	1498.3208	1508.9583	1511.3073	1590.6693	3019.6583	3025.8261	3029.3606	3065.2278	3088.8701	3100.5261	3104.3824	3247.1672	3279.7052	3663.8439
CCCC1=NC=CN1	CCCc1ncc[nH]1	
InChI=1S/C6H10N2/c1-2-3-6-7-4-5-8-6/h4-5H,2-3H2,1H3,(H,7,8)	InChI=1S/C6H10N2/c1-2-3-6-7-4-5-8-6/h4-5H,2-3H2,1H3,(H,7,8)
