20
gdb 76221	2.67452	1.49178	1.19846	2.264	80.64	-0.2275	0.0103	0.2378	1126.6418	0.170865	-403.141552	-403.132715	-403.131771	-403.174468	34.395	
C	-0.0478457512	 1.5147602444	 0.0291361752	-0.487924
C	-0.0784327844	 0.0238728153	-0.0421844467	 0.276643
C	-0.0317288778	-0.7608117115	-1.1235982789	-0.164654
C	 0.0205197525	-2.2017487068	-0.7375432514	-0.126186
N	 1.2417008725	-2.5333218542	 0.0751339312	-0.387878
C	-0.0576732086	-2.2624327155	 0.7383888088	 0.304245
C	-0.7457798562	-3.3336174942	 1.5377412477	-0.504843
C	-0.0676423537	-0.8075725917	 1.2429642167	-0.000146
O	 1.0526060737	-0.5190685204	 2.0652039606	-0.437517
H	 0.7905055434	 1.8433599656	 0.6535588652	 0.1426
H	 0.0493244348	 1.9707275493	-0.9596101712	 0.119103
H	-0.9587932046	 1.9064878259	 0.5007368303	 0.122997
H	 0.0168664263	-0.4172420462	-2.1510119746	 0.094131
H	-0.3931284053	-2.9786892251	-1.372260345	 0.088162
H	 1.3877903997	-3.5424779207	 0.0576495242	 0.224033
H	-0.6840056306	-4.3070977812	 1.0393557684	 0.111217
H	-0.2882572405	-3.4277863655	 2.5293249927	 0.135196
H	-1.8056900845	-3.0972418779	 1.6820878166	 0.126721
H	-0.9501163686	-0.6042813434	 1.8635293724	 0.077715
H	 1.8020154932	-0.9106007864	 1.5918109679	 0.286386
108.2773	174.3303	203.7799	211.3131	243.2956	250.8595	304.1077	367.1306	480.2095	512.1848	539.2253	550.1502	619.496	695.1294	743.2117	838.9594	861.9749	889.1778	898.8978	922.2891	985.1826	1010.9019	1049.2224	1061.8901	1075.7062	1082.3304	1122.2092	1138.4534	1191.3963	1256.2247	1271.3466	1304.1236	1336.8743	1351.4106	1405.6024	1410.8544	1434.6779	1454.3555	1474.7524	1483.3214	1489.637	1500.5107	1708.4112	3019.5559	3022.8446	3027.507	3074.6326	3090.3224	3095.5844	3115.6404	3164.6035	3191.8626	3463.5766	3721.672
CC1=CC2NC2(C)C1O	CC1=C[C@H]2N[C@@]2(C)[C@H]1O	
InChI=1S/C7H11NO/c1-4-3-5-7(2,8-5)6(4)9/h3,5-6,8-9H,1-2H3	InChI=1S/C7H11NO/c1-4-3-5-7(2,8-5)6(4)9/h3,5-6,8-9H,1-2H3/t5-,6+,7-/m1/s1
