22
gdb 101341	3.35684	0.77071	0.71344	3.5178	79.47	-0.2468	0.0588	0.3056	1684.5114	0.192986	-441.453267	-441.442729	-441.441784	-441.489835	38.185	
C	-0.0984559417	 1.524716277	-0.5185690315	-0.381875
C	 0.0463015022	 0.1680510638	 0.1798116383	-0.178122
C	-1.2885044529	-0.5193439984	 0.3595757242	 0.001739
N	-1.8273970674	-1.2709940911	-0.7881772794	-0.337061
C	-1.4819129557	-1.9920290792	 0.450114126	-0.076698
C	-0.3608517454	-3.0006187094	 0.3622150754	 0.106336
O	 0.3435205293	-3.1254171078	 1.6065261716	-0.445622
C	-0.8520615506	-4.3830819174	-0.0751817994	-0.065515
O	 0.2040097486	-5.3174476301	-0.072181463	-0.426071
H	 0.8738947079	 2.0094280594	-0.6469741054	 0.113784
H	-0.5499963704	 1.4018590158	-1.5080096427	 0.128379
H	-0.735200032	 2.2043914827	 0.0592391374	 0.109253
H	 0.7124773644	-0.4735287937	-0.4039250668	 0.109428
H	 0.5133786691	 0.2955879469	 1.1642258007	 0.103101
H	-2.0090335694	 0.0690640169	 0.9298199034	 0.079042
H	-2.8334557245	-1.1528869301	-0.8651072672	 0.232887
H	-2.3130160263	-2.3221647187	 1.0779864402	 0.073061
H	 0.3906881108	-2.6610653881	-0.3544623889	 0.106338
H	-0.3098424043	-3.2692599328	 2.3014621628	 0.28075
H	-1.6740380946	-4.7009981508	 0.5951594583	 0.062921
H	-1.2572361488	-4.3325020837	-1.0910557176	 0.120095
H	 0.7185459617	-5.1139146112	 0.7201486637	 0.28385
39.2449	61.495	96.7057	133.9216	189.6568	228.6391	254.9501	276.0048	320.9351	377.8097	416.3754	469.972	517.4605	546.0721	594.2164	758.8379	818.1505	858.0446	874.6302	933.6278	953.382	987.778	1039.3987	1051.991	1073.3778	1084.4677	1106.9818	1112.4777	1154.4333	1181.7627	1215.3826	1245.837	1267.0711	1284.8414	1300.206	1308.3235	1346.1675	1383.3073	1405.907	1407.462	1432.4537	1442.1071	1473.7545	1488.1989	1498.999	1507.4014	1507.9322	2916.9625	3031.9802	3036.6411	3069.4135	3076.5471	3080.5598	3092.8494	3098.2647	3108.2479	3112.3491	3510.4561	3760.676	3787.9045
CCC1NC1C(O)CO	CC[C@H]1N[C@H]1[C@@H](O)CO	
InChI=1S/C6H13NO2/c1-2-4-6(7-4)5(9)3-8/h4-9H,2-3H2,1H3	InChI=1S/C6H13NO2/c1-2-4-6(7-4)5(9)3-8/h4-9H,2-3H2,1H3/t4-,5+,6-/m1/s1
