16
gdb 41625	3.52038	1.67294	1.41118	2.7825	68.58	-0.2523	0.0082	0.2605	918.7094	0.126878	-437.83362	-437.827223	-437.826279	-437.864415	25.446	
C	 0.0507064735	 1.5022250526	-0.1808595807	-0.066615
O	 1.4412843473	 1.5237950312	 0.2303589605	-0.292123
C	 1.3858438262	 0.1633670518	 0.6892446937	 0.066459
C	-0.0160099459	-0.0312443949	-0.0435029038	-0.050144
N	 0.2552504327	-0.6633417235	-1.3515157405	-0.301505
C	 1.466128208	-1.0148716581	-1.2725067907	 0.41723
O	 2.4895743654	-1.1621705647	-2.1638526269	-0.266528
C	 3.3947595621	-0.6072347482	-1.1162434755	-0.127322
C	 2.2897437782	-0.8213312183	-0.0418589106	-0.162245
H	-0.5839331997	 2.0467952513	 0.5304094742	 0.100995
H	-0.0869132033	 1.895913462	-1.1914927558	 0.124588
H	 1.4112350866	 0.095604128	 1.7816263775	 0.076257
H	-0.8701352496	-0.4627410057	 0.4807102692	 0.087258
H	 4.2967049243	-1.21244937	-1.0262094491	 0.132337
H	 3.6167717797	 0.4361300324	-1.3445294448	 0.150851
H	 2.4649612046	-1.7305366361	 0.538408413	 0.110507
160.7128	172.2806	240.805	434.9065	467.4352	491.4744	630.4183	704.4406	748.8259	790.3738	805.5923	870.5131	895.2016	908.6596	941.8184	965.0689	999.3852	1031.7408	1063.1325	1080.1145	1117.3915	1149.3893	1165.6089	1174.5694	1193.8643	1215.7531	1226.5385	1299.1234	1320.7087	1332.479	1348.0786	1378.5786	1494.8478	1510.0465	1756.9604	3017.6789	3053.1648	3084.5436	3087.2098	3097.6763	3103.3805	3162.3828
C1OC2C1N=C1OCC21	C1O[C@H]2[C@@H]1[N][C]1OC[C@@H]21	
InChI=1S/C6H7NO2/c1-3-5-4(2-8-5)7-6(3)9-1/h3-5H,1-2H2	InChI=1S/C6H7NO2/c1-3-5-4(2-8-5)7-6(3)9-1/h3-5H,1-2H2/t3-,4+,5+/m0/s1
