21
gdb 68313	2.93651	1.20655	1.01374	0.5445	88.69	-0.2571	0.0582	0.3153	1256.6641	0.1816	-349.877597	-349.868656	-349.867712	-349.911317	34.921	
C	 0.047790268	 1.3558344204	 0.116992198	-0.511695
C	 0.0518053541	-0.1487421785	 0.0606045534	 0.340868
C	 0.6483300862	-1.0541448843	-1.0642828316	-0.257565
C	 0.060293846	-2.0390599156	-0.0158059635	-0.073697
C	 0.7172608309	-1.1403618032	 1.0697565761	-0.266779
C	-1.1905713347	-1.1093293911	 0.0220571444	 0.030898
C	-2.1989279733	-1.1810449445	 1.1766687051	-0.414822
C	-3.1119660326	-0.041969264	 1.1870456514	 0.315359
C	-3.853640711	 0.9043417795	 1.1719230711	-0.461351
H	 1.0704551056	 1.7491976971	 0.1303514621	 0.113129
H	-0.4655631658	 1.7791341271	-0.7531204431	 0.119761
H	-0.4677093136	 1.7169953541	 1.0125942659	 0.127619
H	 0.1535603805	-1.0159021879	-2.0395064977	 0.086363
H	 1.7372590625	-1.0458748584	-1.1657069021	 0.086186
H	 0.0667245104	-3.1290280693	-0.0629700047	 0.067466
H	 1.8110414281	-1.1353472919	 1.0924117574	 0.087692
H	 0.3176323613	-1.1810069542	 2.0848925012	 0.088719
H	-1.7413330992	-1.065818862	-0.9244607581	 0.069281
H	-2.7814181753	-2.1068697593	 1.0754773704	 0.129637
H	-1.6964784765	-1.2490644941	 2.1473222585	 0.129238
H	-4.5138414916	 1.73569272	 1.168560426	 0.193691
52.5611	101.7369	188.0616	213.7401	290.3871	320.2476	344.792	360.8952	444.0602	568.5879	583.6798	615.1282	632.1437	637.1007	745.796	780.7771	842.9589	903.4559	905.4163	954.9148	957.0048	971.2654	1005.1132	1021.6986	1039.9428	1078.2588	1092.541	1132.8035	1142.9149	1173.4821	1200.4462	1213.5649	1224.4361	1234.4675	1257.9749	1309.4601	1335.0554	1410.3551	1421.1865	1467.3893	1486.4299	1488.3111	1503.1654	1546.047	2235.3735	3018.8614	3027.9175	3035.6811	3042.9744	3055.5844	3069.5715	3093.6939	3101.2114	3102.0693	3107.7937	3115.5025	3507.3493
CC12CC(C1)C2CC#C	C[C@@]12C[C@@H](C1)[C@H]2CC#C	
InChI=1S/C9H12/c1-3-4-8-7-5-9(8,2)6-7/h1,7-8H,4-6H2,2H3	InChI=1S/C9H12/c1-3-4-8-7-5-9(8,2)6-7/h1,7-8H,4-6H2,2H3/t7-,8-,9+/m1/s1
