17
gdb 133713	3.30513	0.92504	0.87424	2.9763	62.08	-0.2409	0.0799	0.3207	1346.7958	0.131305	-549.488452	-549.479451	-549.478507	-549.523245	32.425	
C	 0.1510153108	 1.5583404011	-0.3939881673	-0.414338
C	-0.0034708485	 0.0979846261	-0.0290100971	 0.025925
C	 1.1762780854	-0.8061577491	 0.0785545276	-0.248515
N	 0.4035010277	-0.4538167031	 1.2680995197	-0.08679
C	 1.0303725172	 0.4027728779	 2.2512767907	-0.286717
C	 1.7359024069	-0.4461756521	 3.2984911025	 0.290759
F	 2.6982754446	-1.2038998243	 2.7480516196	-0.082689
F	 2.3214870256	 0.3481587201	 4.2120333221	-0.083444
F	 0.8989976936	-1.2603719698	 3.9451458987	-0.069288
H	 1.1310242252	 1.9584615339	-0.1227907229	 0.122556
H	 0.0352184752	 1.6806026359	-1.4758363171	 0.129251
H	-0.6162800049	 2.1724473908	 0.0903788708	 0.126816
H	-0.9381214236	-0.3401638027	-0.3761896611	 0.098001
H	 1.1237155196	-1.8466027051	-0.2289678406	 0.122627
H	 2.1585028625	-0.3496995658	-0.0386111973	 0.112509
H	 1.7853031336	 1.0995475171	 1.8562142917	 0.11031
H	 0.2659078192	 0.9892570592	 2.7708577001	 0.133026
44.3061	85.0106	127.2898	185.2157	220.623	292.4608	356.0903	372.1616	442.2479	476.9799	536.289	547.4177	666.5799	758.7832	831.2114	858.7029	899.9783	952.1101	980.6506	1040.2424	1062.9012	1118.1742	1148.404	1153.7376	1180.6465	1195.0701	1209.7272	1284.3409	1321.2223	1344.7574	1402.0815	1409.4525	1425.8712	1476.1849	1493.2079	1500.1731	1514.0134	2989.5978	3037.4741	3084.8406	3094.8065	3097.0545	3106.7902	3127.4007	3183.8462
CC1CN1CC(F)(F)F	C[C@H]1CN1CC(F)(F)F	
InChI=1S/C5H8F3N/c1-4-2-9(4)3-5(6,7)8/h4H,2-3H2,1H3	InChI=1S/C5H8F3N/c1-4-2-9(4)3-5(6,7)8/h4H,2-3H2,1H3/t4-,9?/m0/s1
