16
gdb 43114	2.56656	2.15961	1.63146	3.9188	66.73	-0.2375	-0.0219	0.2156	854.8798	0.127059	-437.863469	-437.857011	-437.856067	-437.894463	25.437	
O	-0.0400538806	 0.0063420528	 0.3282081978	-0.303204
C	-0.0658332908	 1.1738337806	 0.0851259876	 0.354588
C	-1.1709596751	 2.2922848871	 0.0085560957	-0.038616
O	-1.8253831259	 2.5061254945	 1.2338539124	-0.247399
C	-0.8693133706	 2.9774005017	 2.1954156758	-0.09772
C	 0.3461446805	 3.5599645606	 1.4242861608	-0.077742
C	 1.5511155376	 2.5823988672	 1.2646840572	-0.198
N	 1.01120394	 2.1139619766	-0.0642532718	-0.164687
C	 0.0255032309	 3.259890876	-0.0617315434	-0.007844
H	-1.9115596692	 2.2442454773	-0.7908286266	 0.109998
H	-1.3747849584	 3.727443493	 2.8097012776	 0.119353
H	-0.56005106	 2.1506541153	 2.8492771385	 0.115666
H	 0.5802504987	 4.5843442218	 1.7138393549	 0.08966
H	 2.509367491	 3.0869954551	 1.1251186427	 0.12492
H	 1.6615109755	 1.7835432616	 2.0039001819	 0.130757
H	 0.1142883963	 4.0210389387	-0.8337886912	 0.09027
104.389	185.1045	249.7548	372.7799	472.0768	611.3209	642.8266	698.6201	714.1798	798.294	837.7215	856.3375	912.8261	918.5361	933.0368	947.7215	963.2518	997.9869	1039.9619	1078.4401	1107.0239	1131.2717	1175.3721	1185.8644	1216.0261	1232.1504	1245.3481	1265.2247	1296.6412	1309.3164	1326.2698	1388.4953	1497.5595	1521.2219	1897.3064	3013.8166	3058.2366	3084.5434	3110.0976	3112.0491	3120.5565	3142.72
O=C1C2OCC3CN1C23	O=C1[C@H]2OC[C@H]3CN1[C@@H]23	
InChI=1S/C6H7NO2/c8-6-5-4-3(2-9-5)1-7(4)6/h3-5H,1-2H2	InChI=1S/C6H7NO2/c8-6-5-4-3(2-9-5)1-7(4)6/h3-5H,1-2H2/t3-,4-,5+/m1/s1
