18
gdb 39695	3.7088	1.72538	1.5935	1.4966	77.95	-0.2245	0.0756	0.3001	900.8403	0.149708	-364.734568	-364.728305	-364.727361	-364.764822	27.171	
C	-0.0865534997	 1.472142261	-0.0075055432	-0.327462
C	 1.2777605826	 0.8048800224	-0.0232173972	-0.327457
C	 0.0296920462	-0.020188612	 0.0529157387	 0.422782
C	-0.3770353547	-0.8792166703	 1.2122325102	-0.175371
C	-1.6085823858	-1.6621774074	 0.8067229867	-0.097775
C	-0.2472737568	-2.3283818734	 0.7911750894	-0.097699
C	-0.2365531538	-2.2391303609	-0.763305815	-0.072759
C	-1.5732767496	-1.5856391797	-0.7480834585	-0.072652
N	-0.3684111035	-0.8069038231	-1.1016282364	-0.168755
H	-0.3904251899	 2.0023178127	 0.8889223202	 0.109945
H	-0.4445711996	 1.9039789713	-0.9350667004	 0.121733
H	 1.8210907643	 0.7958494408	-0.9611608124	 0.121729
H	 1.8993832832	 0.8824411612	 0.8625469036	 0.109947
H	-0.2243249338	-0.591435827	 2.24472699	 0.090358
H	-2.4668983634	-1.8499083466	 1.4347951367	 0.090103
H	 0.1425124321	-3.1269701377	 1.4049719078	 0.09012
H	 0.2349954351	-2.916619788	-1.4628709878	 0.091599
H	-2.4102635528	-1.6234534532	-1.4327432525	 0.091616
164.1587	258.8814	283.3247	489.9622	589.2419	591.2245	709.4312	728.3269	767.8693	780.5641	796.1069	808.6665	843.7266	884.9154	886.16	921.2804	934.4632	940.9453	978.1771	984.1641	995.361	1003.8408	1008.3335	1032.8699	1041.2557	1056.2437	1056.5314	1077.9952	1179.7112	1188.3764	1196.3335	1248.4904	1251.6845	1265.7088	1287.9756	1354.4226	1409.245	1456.1726	1507.0299	3132.2244	3135.45	3191.1711	3197.9446	3203.6001	3215.785	3218.9302	3229.1651	3230.7696
C1CC11C2C3C2C2C3N12	C1CC21[C@H]1[C@@H]3[C@H]1[C@H]1[C@@H]3N21	
InChI=1S/C8H9N/c1-2-8(1)5-3-4(5)7-6(3)9(7)8/h3-7H,1-2H2	InChI=1S/C8H9N/c1-2-8(1)5-3-4(5)7-6(3)9(7)8/h3-7H,1-2H2/t3-,4+,5-,6+,7-,9?
