21
gdb 77700	2.96651	1.28538	1.06604	1.7494	82.87	-0.2549	0.0737	0.3286	1210.3007	0.181391	-387.047259	-387.03849	-387.037546	-387.080593	34.24	
C	-0.6165767259	 1.1612026062	 0.066783039	-0.421283
C	-0.0513447406	-0.2506724541	 0.0580417313	-0.125611
C	 0.7995963153	-0.7374814889	-1.139138242	 0.363609
C	 0.3317618722	-1.2488163061	-2.4647809897	-0.331683
C	 1.1074612585	 0.0484608323	-2.3804199688	-0.317835
C	 1.8465305668	-1.357420555	-0.1970216917	-0.405111
C	 1.1659594043	-0.5834936418	 0.9374030847	 0.452547
C	 1.7818322205	 0.2145916808	 1.9982182775	-0.26427
O	 1.0954818976	-1.0149579244	 2.2824735327	-0.277633
H	 0.1645118581	 1.9047565028	-0.1217727096	 0.116695
H	-1.3893960009	 1.2832972429	-0.7004798732	 0.11575
H	-1.0781586481	 1.3900328494	 1.0333495847	 0.122238
H	-0.8481859818	-0.9751498216	 0.2703525414	 0.08495
H	 0.8284292538	-2.118497617	-2.8836533393	 0.11151
H	-0.7289057087	-1.1919112832	-2.6909124834	 0.110595
H	 0.5685670853	 0.9742162128	-2.555153735	 0.112201
H	 2.1323156558	 0.0572564826	-2.7386174544	 0.110277
H	 1.7310303307	-2.4397491985	-0.0759089729	 0.113073
H	 2.8980925557	-1.1305456327	-0.3939341897	 0.104522
H	 2.8625424394	 0.1883527108	 2.1353847811	 0.111935
H	 1.2905306922	 1.1159589827	 2.3624179671	 0.113526
53.7768	199.0972	205.5259	226.9223	234.4699	262.4613	349.253	363.0095	442.2964	462.3864	528.2155	665.8006	754.8673	779.5315	830.6857	865.609	868.2067	899.3518	917.0194	931.4227	979.1473	1006.9989	1048.9505	1066.5318	1078.5717	1089.526	1124.0774	1132.6044	1147.2209	1161.0189	1175.8967	1187.3406	1219.4066	1260.2537	1261.813	1364.2274	1377.2221	1403.4303	1434.5072	1465.5153	1481.0805	1495.5405	1496.7735	1506.4756	1538.231	3023.5667	3027.9374	3044.823	3078.2557	3091.5035	3097.0093	3102.6561	3118.6946	3123.5379	3163.9313	3195.9099	3211.1712
CC1C2(CC2)CC11CO1	C[C@H]1C2(CC2)C[C@]21CO2	
InChI=1S/C8H12O/c1-6-7(2-3-7)4-8(6)5-9-8/h6H,2-5H2,1H3	InChI=1S/C8H12O/c1-6-7(2-3-7)4-8(6)5-9-8/h6H,2-5H2,1H3/t6-,8+/m0/s1
