16
gdb 81209	3.48467	1.38874	1.27783	1.8039	71.29	-0.2552	0.0047	0.26	1009.7933	0.124041	-437.747832	-437.740693	-437.739749	-437.779114	28.89	
O	 0.0204478714	 1.4681979687	 0.1086209123	-0.442335
C	 0.0671671279	 0.0702697102	 0.1158065264	 0.115009
C	-0.0324998041	-0.5838822353	 1.4944398231	-0.117884
C	-1.5948232	-0.1714642899	 1.5181970329	-0.315537
C	-1.2502519321	-0.767873715	 0.1198417236	 0.328084
O	-1.565600109	-1.5433075445	-1.083380427	-0.328347
C	-0.5287315536	-2.4381799368	-0.6778994341	 0.355444
N	 0.0065388918	-3.3653281785	-1.3222866409	-0.538261
C	-0.5196789699	-1.905453305	 0.7679674046	-0.142567
H	-0.0816422546	 1.7632366724	-0.8017633046	 0.293145
H	 0.8551682168	-0.3271722542	-0.5354823568	 0.089658
H	 0.6583829141	-0.4781277677	 2.3304390262	 0.102992
H	-2.2361531564	-0.7766267427	 2.1593082663	 0.115856
H	-1.7974589395	 0.8956014448	 1.58918963	 0.133045
H	-0.3869731161	-3.4450808727	-2.2620758044	 0.237007
H	-1.1281696567	-2.5552480537	 1.3990566124	 0.114692
129.3432	246.409	273.3682	305.9256	340.2648	447.9273	479.7339	516.7873	602.6122	619.1052	721.9563	736.8639	822.1687	838.4291	875.0001	883.7097	930.3018	950.422	969.6831	1024.0703	1035.5952	1058.4392	1108.6772	1141.8325	1148.1734	1171.7398	1186.853	1203.2062	1226.0035	1242.3833	1303.5298	1332.5661	1440.5777	1500.0366	1811.4304	3038.2539	3092.5283	3096.3511	3123.0812	3178.1681	3471.7855	3822.4526
OC1C2CC11OC(=N)C21	O[C@H]1[C@H]2C[C@]31O[C]([NH])[C@@H]23	
InChI=1S/C6H7NO2/c7-5-3-2-1-6(3,9-5)4(2)8/h2-4,7-8H,1H2	InChI=1S/C6H7NO2/c7-5-3-2-1-6(3,9-5)4(2)8/h2-4,7-8H,1H2/t2-,3+,4-,6-/m0/s1
