18
gdb 93176	2.74426	1.36952	0.95865	6.1852	74.04	-0.2377	-0.0582	0.1795	1211.9119	0.148415	-439.147835	-439.139339	-439.138395	-439.181315	31.901	
C	-0.1977253517	 1.5046945332	 0.0590651268	-0.410221
C	 0.0012451844	-0.0070553313	-0.0520883878	 0.063928
C	 0.7681533127	-0.4052890026	-1.3135733568	-0.216268
C	 1.0534017102	-1.9107464937	-1.3209922043	-0.32893
C	 1.8447734697	-2.3310962772	-0.0950413153	 0.314288
O	 2.6642571258	-3.2107260863	-0.1015607419	-0.26989
C	 1.5442403908	-1.5799305811	 1.2319618718	 0.298533
O	 2.0320493272	-1.9398206556	 2.2814338796	-0.340851
N	 0.7163193496	-0.4957320474	 1.1272166657	-0.324625
H	 0.7663508789	 2.0221219936	 0.0864336507	 0.132733
H	-0.7688499329	 1.8764060267	-0.7965784247	 0.1282
H	-0.7523527575	 1.7649050707	 0.9669066769	 0.122561
H	-0.9929846451	-0.4822988309	-0.0967164429	 0.088976
H	 0.1841842932	-0.122651119	-2.1947090496	 0.113273
H	 1.7103360975	 0.1555804506	-1.354571175	 0.116831
H	 0.1021225233	-2.4635302463	-1.2993277159	 0.131755
H	 1.5945063412	-2.2380207539	-2.2122431947	 0.132062
H	 0.5003311629	-0.0660329395	 2.0174560472	 0.247645
56.6225	100.0219	211.2034	253.7134	282.7269	343.4449	360.9086	412.4241	435.0822	506.0323	569.2378	605.5128	642.3292	674.6209	757.0287	833.993	906.7484	955.571	988.7855	1022.8211	1065.5423	1089.0272	1143.6968	1191.6962	1212.8089	1241.9346	1330.9958	1342.1997	1348.1704	1381.956	1388.9401	1412.8348	1457.0302	1463.6003	1490.9663	1497.4235	1500.4296	1797.2831	1836.4622	2956.968	3009.0354	3034.179	3037.6663	3088.7581	3103.2466	3105.4289	3119.2085	3580.424
CC1CCC(=O)C(=O)N1	C[C@H]1CCC(=O)C(=O)N1	
InChI=1S/C6H9NO2/c1-4-2-3-5(8)6(9)7-4/h4H,2-3H2,1H3,(H,7,9)	InChI=1S/C6H9NO2/c1-4-2-3-5(8)6(9)7-4/h4H,2-3H2,1H3,(H,7,9)/t4-/m0/s1
