19
gdb 95456	3.10151	1.31765	1.02026	1.8247	78.33	-0.2369	0.0081	0.245	1186.6796	0.160256	-423.01453	-423.006372	-423.005428	-423.047361	31.445	
O	 0.0460317155	 1.4389238583	 0.0592210922	-0.443253
C	-0.0316731702	 0.0200859454	 0.0372901507	 0.044381
C	 0.6013448916	-0.5703779229	 1.3080311853	-0.225843
C	-0.2187677556	-1.8459464546	 1.6169596841	-0.258108
C	-1.5242583761	-1.5877371308	 0.9017737373	-0.188244
C	-1.4448766763	-0.5512876875	 0.0651397385	 0.31426
C	-2.519896233	-0.0121435225	-0.7946985712	-0.055832
C	-2.9500864217	 1.3982672497	-0.7186245308	-0.185885
O	-2.1252640662	 0.9479131472	-1.7975963506	-0.250792
H	-0.2822259446	 1.7312705275	-0.8001392589	 0.291872
H	 0.4788444712	-0.3548193485	-0.8655983142	 0.077691
H	 1.6727151112	-0.7547610912	 1.2034987257	 0.09962
H	 0.4630814289	 0.1678367787	 2.1044176051	 0.117951
H	 0.2703624415	-2.7466517271	 1.2197324504	 0.10945
H	-0.3493250197	-2.0190559857	 2.6910060927	 0.106428
H	-2.405554479	-2.2042341639	 1.0503532128	 0.088973
H	-3.2606412579	-0.7293520433	-1.1483601955	 0.103215
H	-3.9699196049	 1.6602621735	-0.9952399993	 0.12083
H	-2.4588215549	 2.0550745878	-0.0052505643	 0.133286
99.6617	111.9254	192.3301	195.9167	307.7198	334.9939	402.9927	453.7492	541.3636	595.0027	614.5199	682.5582	805.4251	835.2302	839.0798	884.1474	888.5175	935.3374	956.4752	1005.7469	1028.0015	1055.0409	1095.1204	1101.5051	1147.1934	1161.8793	1174.2689	1198.7856	1239.0551	1267.1896	1280.7158	1302.56	1310.6073	1336.818	1359.8981	1407.2933	1433.1422	1483.8734	1500.2022	1508.7371	1714.1415	2954.7152	3009.1948	3052.2127	3064.6484	3094.4819	3110.1827	3113.8528	3176.6543	3195.7995	3783.856
OC1CCC=C1C1CO1	O[C@H]1CCC=C1[C@H]1CO1	
InChI=1S/C7H10O2/c8-6-3-1-2-5(6)7-4-9-7/h2,6-8H,1,3-4H2	InChI=1S/C7H10O2/c8-6-3-1-2-5(6)7-4-9-7/h2,6-8H,1,3-4H2/t6-,7+/m0/s1
