15
gdb 15333	3.41236	1.43371	1.12341	2.4044	70.77	-0.2565	-0.0079	0.2485	1059.3181	0.118146	-358.82137	-358.813287	-358.812343	-358.854283	28.273	
C	-0.2431093873	 1.0481317875	 0.5463751093	-0.312642
N	-0.1035426537	-0.3451948303	 0.1730427989	-0.171524
C	-1.1167667895	-0.9343897525	-0.2944068834	 0.055375
N	-1.0533950492	-2.2505425277	-0.7831581211	-0.08356
C	-0.2010306457	-3.2170394296	-0.1379874186	-0.223362
C	-1.7004382905	-3.3533501755	-0.0611881737	-0.162298
C	-2.3649232055	-3.1060743922	 1.1959072505	 0.295646
N	-2.9275975227	-2.9082529969	 2.1867335117	-0.324715
H	 0.4560038255	 1.6542347542	-0.0408383894	 0.132677
H	-1.2586468192	 1.448751593	 0.4045070083	 0.105973
H	 0.0365828849	 1.1690385815	 1.5985232235	 0.135969
H	-2.1062605364	-0.4788375442	-0.4258660593	 0.106051
H	 0.3428742755	-3.8892094749	-0.7942182118	 0.140395
H	 0.3203989955	-2.8942699643	 0.7580779634	 0.159515
H	-2.2040770918	-4.0789415481	-0.6934071082	 0.146499
70.0135	131.7209	171.4878	210.6582	221.0452	250.6848	383.9541	404.4135	535.3144	587.5554	635.039	781.3438	861.5904	930.0919	983.7138	1023.6025	1056.6139	1070.5969	1125.6207	1133.4612	1140.8649	1152.6095	1173.8779	1346.4407	1380.0367	1387.07	1444.3393	1479.5563	1499.9346	1502.0972	1743.7856	2354.8452	2982.8208	3046.4885	3067.8373	3086.0826	3125.2715	3155.8829	3221.6805
CN=CN1CC1C#N	CN=CN1C[C@H]1C#N	
InChI=1S/C5H7N3/c1-7-4-8-3-5(8)2-6/h4-5H,3H2,1H3	InChI=1S/C5H7N3/c1-7-4-8-3-5(8)2-6/h4-5H,3H2,1H3/t5-,8?/m1/s1
