18
gdb 31158	2.05298	1.77076	1.00468	1.139	76.35	-0.1648	0.0595	0.2243	1174.8662	0.148192	-435.270925	-435.261121	-435.260177	-435.305152	35.77	
C	 0.1522645372	 1.4182372209	 0.0943019754	-0.256163
O	-0.1242859308	 0.0280825096	-0.0716842873	-0.298488
C	 0.547946867	-0.5477364573	-1.1228271234	 0.194025
C	-0.0335250405	-0.9928801229	-2.2900114086	 0.215863
N	-1.3528173713	-0.8869465607	-2.7685647938	-0.611675
N	 0.9485336416	-1.584769893	-3.0366212654	-0.298367
C	 2.1666876269	-1.5011412642	-2.3688320477	-0.185806
C	 1.942409394	-0.8693198498	-1.1694619125	 0.172939
N	 2.8584482457	-0.533511538	-0.1509872622	-0.618161
H	 1.221000607	 1.593984841	 0.2638430001	 0.133698
H	-0.1623347459	 1.9918201903	-0.7876776851	 0.108435
H	-0.4169268901	 1.7513047089	 0.9661324554	 0.117102
H	-1.881516111	-0.289142931	-2.1424414198	 0.248983
H	-1.8227523466	-1.7889828333	-2.7844555192	 0.241416
H	 0.8374812291	-1.811852896	-4.0086165356	 0.255222
H	 3.064649766	-1.919879112	-2.79145988	 0.100864
H	 3.7177917447	-1.0645929764	-0.2210809263	 0.236496
H	 2.455401567	-0.6951111463	 0.7656496459	 0.243615
90.9992	150.0908	166.4486	174.4712	193.4154	222.2534	267.283	276.1575	292.6266	394.0902	446.7754	548.757	569.5357	598.8243	629.0565	700.3759	739.1385	768.4891	829.0979	868.4194	1029.3936	1046.7172	1085.4212	1134.8427	1168.4657	1183.7831	1214.1236	1258.779	1304.5846	1358.3373	1448.251	1473.6816	1485.5547	1513.1235	1533.3	1598.4788	1636.2566	1651.6496	1681.1572	3005.0211	3072.3051	3116.2696	3267.1605	3474.9824	3511.7165	3577.6232	3603.2971	3688.0789
COC1=C(N)NC=C1N	COc1c(N)[nH]cc1N	
InChI=1S/C5H9N3O/c1-9-4-3(6)2-8-5(4)7/h2,8H,6-7H2,1H3	InChI=1S/C5H9N3O/c1-9-4-3(6)2-8-5(4)7/h2,8H,6-7H2,1H3
