19
gdb 62727	2.41844	1.68726	1.33937	2.297	76.27	-0.2147	0.0176	0.2322	1031.4465	0.157961	-423.018977	-423.010372	-423.009428	-423.051239	34.465	
C	-0.1437130404	 1.5291865005	-0.039353094	-0.45802
C	 0.0576436782	 0.0382040771	 0.0651214605	 0.306616
O	-1.0836981791	-0.7097901319	-0.3061846771	-0.477617
C	 1.3878383661	-0.6801842994	-0.2370868523	-0.248877
C	 2.6502372477	 0.0948282526	-0.1075214485	-0.077321
C	 2.8431453871	 0.5302476334	 1.1423867155	-0.083208
C	 1.738550163	 0.0900103076	 2.0760081854	-0.337761
C	 0.7752856835	-0.6784464866	 1.1757968346	 0.406478
O	 0.1739796656	-1.7759486168	 1.7736011995	-0.481455
H	 0.761271589	 2.0759027581	 0.2311820229	 0.132407
H	-0.4070088809	 1.807034535	-1.067529508	 0.105739
H	-0.9604126809	 1.8503366196	 0.6151053678	 0.125386
H	-1.1393970714	-0.728278122	-1.2676275795	 0.288272
H	 1.3241151936	-1.5497068324	-0.8845542349	 0.083125
H	 3.3163491321	 0.2815582274	-0.9429155954	 0.093297
H	 3.6770533687	 1.1380095859	 1.4738636341	 0.095033
H	 2.105051714	-0.5749076063	 2.8686927807	 0.12461
H	 1.2513562228	 0.9347158044	 2.5791726328	 0.112041
H	-0.6183162785	-1.9630100062	 1.2514086158	 0.291254
185.6701	192.5236	215.7455	227.8004	261.901	303.1123	371.0445	400.5014	430.5088	455.9047	466.3185	538.9293	634.7039	686.9273	712.5321	759.3446	812.1585	910.938	939.6462	950.4481	957.919	970.8751	995.5916	1033.8476	1070.7399	1110.0483	1130.803	1155.7102	1190.7928	1219.4768	1260.7401	1280.8056	1316.9902	1363.8267	1406.7381	1418.0854	1444.0889	1473.0687	1491.8018	1497.4009	1660.1462	3024.5968	3027.5147	3053.5706	3089.2948	3135.8665	3155.0032	3181.5048	3208.8356	3752.4087	3801.9854
CC1(O)C2C=CCC12O	C[C@@]1(O)[C@H]2C=CC[C@@]12O	
InChI=1S/C7H10O2/c1-6(8)5-3-2-4-7(5,6)9/h2-3,5,8-9H,4H2,1H3	InChI=1S/C7H10O2/c1-6(8)5-3-2-4-7(5,6)9/h2-3,5,8-9H,4H2,1H3/t5-,6-,7+/m1/s1
