15
gdb 51958	4.38853	0.84896	0.79887	2.8874	63.31	-0.2654	-0.0356	0.2298	1399.3767	0.109464	-494.90217	-494.893234	-494.89229	-494.937627	30.15	
O	 0.3861476931	 0.1924646026	 0.0470282982	-0.227888
C	 0.5236082383	 1.2946753234	-0.4061599322	 0.155406
C	 1.1718896872	 2.4308441211	 0.3752484769	-0.158481
O	 1.3746218113	 3.5977087613	-0.4268184397	-0.23526
C	 2.3278346047	 3.4741106313	-1.3721594501	 0.434366
O	 2.9460976967	 2.4598302995	-1.5786890484	-0.360202
C	 2.5229007399	 4.7349540171	-2.158049368	-0.038233
C	 1.3738277687	 5.5745215472	-2.5534198409	-0.165072
O	 2.2527992846	 5.976072909	-1.5154037643	-0.20832
H	 0.1557417975	 1.5789756958	-1.4170213052	 0.091701
H	 0.5006800863	 2.7436290683	 1.1795923789	 0.152409
H	 2.1136910231	 2.0793550857	 0.8042201696	 0.162214
H	 3.4086466459	 4.7027326713	-2.7873314415	 0.129863
H	 1.4404854676	 6.141523292	-3.480279565	 0.132776
H	 0.3746080151	 5.2874689245	-2.2343954281	 0.134721
37.3894	64.5949	92.1035	147.2005	176.9267	252.9116	313.0473	374.9076	472.9705	497.8838	681.2727	711.5416	763.4007	847.6736	888.3477	919.0473	983.0312	1035.326	1079.2459	1099.4319	1114.5045	1158.2058	1168.5875	1259.8524	1277.9243	1295.4661	1359.7176	1399.8087	1409.9944	1450.0907	1514.801	1814.667	1848.9342	2890.9929	3071.1671	3096.2665	3128.8631	3157.6772	3193.3525
O=CCOC(=O)C1CO1	O=CCOC(=O)[C@H]1CO1	
InChI=1S/C5H6O4/c6-1-2-8-5(7)4-3-9-4/h1,4H,2-3H2	InChI=1S/C5H6O4/c6-1-2-8-5(7)4-3-9-4/h1,4H,2-3H2/t4-/m1/s1
