25
gdb 122069	3.03846	0.66636	0.57423	0.5596	95.83	-0.2586	0.0543	0.3129	2061.4776	0.226121	-352.340984	-352.329294	-352.32835	-352.378497	42.097	
C	 0.0969907425	 1.5828443923	-0.0051845745	-0.379882
C	 0.037017922	 0.0529739735	-0.0188098239	-0.16334
C	-1.3943708381	-0.4927475862	 0.0274341513	-0.170926
C	-1.4554048625	-2.0224555884	 0.0106342125	-0.190335
C	-2.8884270936	-2.6033562445	 0.0496393574	-0.148012
C	-2.8763002324	-4.1406467901	-0.1279511151	-0.174492
C	-4.2683248445	-4.7642227834	-0.2415588322	-0.390516
C	-3.5841423462	-2.2199893324	 1.2785381032	 0.358978
C	-4.1379122436	-1.9227050507	 2.3044214598	-0.500462
H	 1.1298488363	 1.9436489733	-0.0384220588	 0.109682
H	-0.4319042644	 2.0074478366	-0.8658393773	 0.112547
H	-0.3689063231	 1.9884324587	 0.899775676	 0.114888
H	 0.5425888555	-0.3257500383	-0.9173239306	 0.091672
H	 0.6022775359	-0.3433744522	 0.8351601395	 0.094847
H	-1.9002027616	-0.1200334628	 0.9265060142	 0.109571
H	-1.9609755769	-0.0971084118	-0.8275774975	 0.088133
H	-0.9666973865	-2.3987528957	-0.8974311551	 0.090955
H	-0.8893322366	-2.4252005765	 0.8602638109	 0.101243
H	-3.4448088881	-2.1757406192	-0.7984234486	 0.098777
H	-2.2936226138	-4.36707238	-1.0291734178	 0.093789
H	-2.3351366867	-4.5855199084	 0.7157092312	 0.104211
H	-4.2014094954	-5.8493264007	-0.3660135292	 0.111406
H	-4.864078307	-4.5608545682	 0.6528885219	 0.131814
H	-4.812481746	-4.3629877997	-1.1040335108	 0.111692
H	-4.635582545	-1.6515189551	 3.2022987937	 0.193758
57.7104	74.1531	88.8568	115.3823	139.5041	166.5931	217.5445	239.7189	249.4413	261.7364	299.4443	385.2907	450.9201	535.7728	586.563	622.355	631.1438	738.3008	757.3367	788.516	849.2202	900.0712	922.7106	963.8703	999.1898	1038.5899	1046.1065	1070.461	1084.8581	1120.361	1147.3774	1160.024	1238.6943	1263.9996	1286.592	1308.8585	1318.8736	1332.9649	1363.7171	1370.4239	1377.285	1400.7002	1412.3452	1413.9366	1478.3886	1486.2692	1488.2931	1496.986	1499.6591	1500.2341	1507.9197	1513.1158	2227.2247	2989.1435	3005.957	3011.5613	3018.4533	3027.9628	3028.8422	3034.4343	3038.1135	3050.5404	3064.4075	3073.3193	3095.831	3100.5956	3100.6745	3116.0131	3504.0685
CCCCC(CC)C#C	CCCC[C@@H](CC)C#C	
InChI=1S/C9H16/c1-4-7-8-9(5-2)6-3/h2,9H,4,6-8H2,1,3H3	InChI=1S/C9H16/c1-4-7-8-9(5-2)6-3/h2,9H,4,6-8H2,1,3H3/t9-/m1/s1
