21
gdb 86222	2.35143	1.29138	0.90299	1.8122	85.31	-0.245	0.0389	0.2839	1348.9651	0.180918	-387.073472	-387.063788	-387.062844	-387.108296	36.353	
C	-0.142010039	 1.535012396	 0.0653588453	-0.399686
C	-0.0217548374	 0.0269815612	-0.0771438196	 0.148486
C	 0.8457125839	-0.4711633597	-1.2354856886	-0.248947
C	 1.262203835	-1.866541922	-0.7534590266	 0.000251
C	 2.5012948902	-2.4642102366	-1.4121991912	-0.417812
C	 1.4240643423	-1.6235972814	 0.7729103965	-0.037281
O	 0.6042004137	-0.4975921092	 1.1034509693	-0.285057
C	 1.0772881876	-2.7899921927	 1.5816455806	 0.323537
C	 0.8083923728	-3.7652300288	 2.2308138867	-0.458069
H	 0.8486708462	 1.9937770464	 0.1428702999	 0.118112
H	-0.6598170266	 1.9612073884	-0.8000712621	 0.112707
H	-0.7095817119	 1.7904172837	 0.9644467451	 0.128163
H	-1.0304646787	-0.409483661	-0.1667625263	 0.069812
H	 0.3114043321	-0.4908809097	-2.1892665646	 0.102226
H	 1.7260489901	 0.174397221	-1.3506550407	 0.097879
H	 0.4169092476	-2.5506116108	-0.8919489556	 0.090209
H	 3.3656426005	-1.7994763293	-1.3010152955	 0.116325
H	 2.7568791046	-3.4291529952	-0.962718822	 0.128835
H	 2.3385598378	-2.6267490913	-2.4821544511	 0.118506
H	 2.469755697	-1.3518998103	 0.9863812534	 0.095504
H	 0.5668873623	-4.6192576389	 2.8139519372	 0.1963
38.6371	119.8556	134.3792	215.9629	224.6531	238.6143	265.6275	336.0248	409.0387	440.2189	498.5081	520.6683	558.5928	613.7976	652.7608	667.1154	836.3427	856.4013	894.3236	918.7785	947.529	999.9752	1005.2481	1050.8001	1068.3443	1128.2933	1145.1922	1162.8416	1181.0234	1211.0372	1277.0554	1300.0237	1340.9364	1356.6478	1377.753	1386.7693	1397.521	1410.6276	1415.0374	1484.403	1488.5523	1496.9342	1498.6891	1500.0469	2235.2317	2959.3966	2974.4265	3026.155	3029.9989	3038.5214	3042.8755	3095.4358	3101.0872	3105.6808	3111.5362	3118.325	3503.4319
CC1CC(C)C(O1)C#C	C[C@H]1C[C@@H](C)[C@@H](O1)C#C	
InChI=1S/C8H12O/c1-4-8-6(2)5-7(3)9-8/h1,6-8H,5H2,2-3H3	InChI=1S/C8H12O/c1-4-8-6(2)5-7(3)9-8/h1,6-8H,5H2,2-3H3/t6-,7+,8+/m1/s1
