17
gdb 56702	2.03531	1.35066	1.23812	5.7974	76.65	-0.3047	0.0074	0.3121	1144.3051	0.135262	-380.890286	-380.881115	-380.880171	-380.924468	33.092	
C	 0.0848996637	 1.4574526581	-0.235778984	-0.407717
C	-0.0026718169	-0.0509282211	 0.0632577054	-0.230033
C	 0.6509803406	-0.3757664991	 1.3387814641	 0.288242
N	 1.1734113473	-0.6332368766	 2.3364916085	-0.311606
C	-1.4448229758	-0.5792739503	 0.0395467148	 0.187807
C	-2.0018538045	-1.0752976721	-1.2882195285	-0.306274
C	-1.678014733	-2.0604180986	-0.2065168165	-0.291711
C	-2.3622352703	 0.0981459852	 0.9221518864	 0.258421
N	-3.0968527746	 0.6538269182	 1.6218201975	-0.339713
H	 1.1262862565	 1.7863110262	-0.2458044197	 0.143425
H	-0.3593186701	 1.6645197386	-1.2129307402	 0.132617
H	-0.4532614175	 2.0332366412	 0.5208345443	 0.165602
H	 0.5434869708	-0.5965668592	-0.7159481118	 0.131828
H	-3.0428101314	-0.8648323408	-1.5004829996	 0.151138
H	-1.3411442499	-1.006974994	-2.1455361167	 0.133906
H	-0.7910474346	-2.675751231	-0.3085995029	 0.141252
H	-2.4955305903	-2.5304196546	 0.3258319889	 0.152815
55.7092	118.0682	149.2315	208.1744	225.538	234.5256	253.1164	335.9013	397.277	484.2652	556.8683	577.7787	605.5195	708.3002	778.3814	838.7964	913.0529	920.7939	962.1259	974.5455	1024.9616	1074.2532	1097.1502	1103.6667	1122.3832	1193.4879	1256.9311	1289.9649	1322.4477	1365.2381	1414.8285	1469.8135	1491.5087	1497.1378	1499.6126	2352.6082	2361.4238	3039.4759	3054.7034	3133.3715	3140.3898	3144.7031	3148.5791	3231.6863	3244.9376
CC(C#N)C1(CC1)C#N	C[C@@H](C#N)C1(CC1)C#N	
InChI=1S/C7H8N2/c1-6(4-8)7(5-9)2-3-7/h6H,2-3H2,1H3	InChI=1S/C7H8N2/c1-6(4-8)7(5-9)2-3-7/h6H,2-3H2,1H3/t6-/m0/s1
