18
gdb 35195	3.33699	1.19923	1.09963	4.5895	81.18	-0.2587	0.0326	0.2913	1154.9199	0.148466	-364.784845	-364.777053	-364.776109	-364.817292	30.388	
N	-0.015527427	-1.0996855314	-0.1306280979	-0.346819
C	-0.0169027086	 0.0564299635	-0.0676224943	 0.290113
C	 0.007860735	 1.4881326382	 0.0006801828	-0.242567
C	 0.5413764348	 2.1723814369	 1.2585378193	-0.363374
C	 1.3509240774	 2.2104865511	 0.0122359468	 0.378864
C	 2.7551445162	 1.6038751696	-0.1868997007	-0.320637
C	 3.1220110647	 2.8495457607	-1.0114596897	-0.037258
C	 2.1838579959	 3.0094189087	-2.1715672837	-0.278598
C	 1.7168399225	 3.4317148069	-0.8026706778	-0.136211
H	-0.8093510806	 1.978510571	-0.5183823931	 0.130254
H	 0.0205313718	 3.071220673	 1.5721044034	 0.128171
H	 0.8701082922	 1.5307657363	 2.0689977196	 0.138428
H	 3.3057503501	 1.5312248078	 0.7541414993	 0.114288
H	 2.8088924791	 0.6426112424	-0.7071746767	 0.122668
H	 4.0726253785	 3.364843071	-0.9654594999	 0.095616
H	 2.4159066529	 3.8251169765	-2.8487713056	 0.116763
H	 1.7482919109	 2.1371271803	-2.6533464867	 0.11751
H	 1.4186732644	 4.4480086476	-0.574111815	 0.09279
90.4411	119.6917	172.4531	284.1521	323.859	386.5191	474.0912	480.4837	551.7678	618.6371	750.9218	782.9458	804.6718	818.9392	880.4341	901.8347	920.763	946.6173	971.7975	984.2783	1028.0445	1054.3297	1061.0064	1081.3537	1087.9915	1100.9012	1118.2258	1150.0983	1198.9467	1215.5964	1256.6766	1289.895	1311.0832	1353.3614	1416.72	1480.538	1484.7225	1496.5225	2346.4229	3053.5866	3107.9626	3110.6117	3131.3187	3164.3431	3180.4556	3194.4118	3206.872	3221.6007
N#CC1CC11CC2CC12	N#C[C@H]1C[C@]21C[C@H]1C[C@@H]21	
InChI=1S/C8H9N/c9-4-6-3-8(6)2-5-1-7(5)8/h5-7H,1-3H2	InChI=1S/C8H9N/c9-4-6-3-8(6)2-5-1-7(5)8/h5-7H,1-3H2/t5-,6-,7-,8+/m1/s1
