17
gdb 61733	4.26563	0.57589	0.52402	2.6	82.68	-0.264	-0.0672	0.1969	1989.0582	0.131613	-421.814605	-421.804119	-421.803175	-421.852824	34.403	
C	-0.0452778359	 1.6395383753	 0.1032448662	-0.387218
C	 0.0361029829	 0.1012540782	 0.0341240676	-0.195719
C	 0.7524253741	-0.3807512407	-1.2549359292	-0.27154
C	-0.0477859767	-0.0541427065	-2.4988310245	 0.156441
O	 0.3929229262	 0.4802250933	-3.4812355337	-0.229731
C	 0.6857715564	-0.4587456977	 1.2135564345	 0.103302
C	 1.23766274	-0.9339125339	 2.1777239184	 0.043089
C	 1.892557349	-1.4680467101	 3.3446447321	 0.018477
O	 2.1348438036	-2.6404946323	 3.5172944073	-0.226751
H	 0.9571064618	 2.0764647337	 0.125409654	 0.138469
H	-0.5698240559	 2.0349258949	-0.7718107804	 0.133721
H	-0.5794978901	 1.9604463186	 1.0005155255	 0.135166
H	-0.9890739513	-0.2984397892	 0.0103503946	 0.12537
H	 1.7501454617	 0.0572157254	-1.3420249519	 0.136373
H	 0.8604852921	-1.4725866432	-1.2138512861	 0.143299
H	-1.1180031951	-0.3684101677	-2.4459659625	 0.076774
H	 2.1687262572	-0.7037604382	 4.0992886981	 0.100478
22.8384	52.3531	65.1307	80.2493	134.8949	204.1551	222.6748	236.7923	304.6368	354.2735	445.568	520.9997	555.0795	621.1146	757.6309	810.5315	903.6864	949.7084	1002.1409	1022.029	1061.9926	1108.948	1124.7354	1179.7438	1226.6292	1267.549	1325.2688	1355.1611	1414.3282	1422.7662	1428.6065	1459.6747	1490.0889	1500.3716	1767.7901	1840.7381	2327.5297	2845.7481	2920.0663	2995.9638	3034.3765	3045.9295	3111.3605	3119.2906	3130.3352
CC(CC=O)C#CC=O	C[C@@H](CC=O)C#CC=O	
InChI=1S/C7H8O2/c1-7(4-6-9)3-2-5-8/h5-7H,4H2,1H3	InChI=1S/C7H8O2/c1-7(4-6-9)3-2-5-8/h5-7H,4H2,1H3/t7-/m1/s1
