20
gdb 9430	6.6865	0.77255	0.72149	3.2363	69.04	-0.2577	0.0739	0.3317	1583.9745	0.174869	-423.265024	-423.255015	-423.254071	-423.300549	34.966	
C	 0.2223294333	 1.4884533466	-0.078798213	-0.386819
C	 0.1020752315	-0.0246501317	-0.0245379022	-0.030165
O	 0.6321851402	-0.5643136919	-1.2214634676	-0.261922
C	 0.5936697715	-1.9774975208	-1.2808453045	-0.082529
C	 1.3243678438	-2.3789760181	-2.5550766592	 0.0936
O	 2.6439669317	-1.8459060967	-2.5493996479	-0.455293
C	 1.4824432138	-3.8870482902	-2.7144312878	-0.048426
O	 2.2072707195	-4.1983749467	-3.8856461637	-0.428447
H	 1.2699721083	 1.7885170704	-0.1737883662	 0.125428
H	-0.3282023042	 1.887526731	-0.9353053764	 0.129906
H	-0.1837112279	 1.9346655023	 0.8337010532	 0.119793
H	 0.6473454369	-0.4286305236	 0.8444001262	 0.09185
H	-0.9523064597	-0.3262546522	 0.0871293282	 0.091717
H	 1.0997538337	-2.4108150304	-0.4026431376	 0.093079
H	-0.4462194423	-2.3425412554	-1.293011504	 0.091349
H	 0.7646962757	-1.9881781113	-3.4198639041	 0.079563
H	 2.5573343044	-0.9172174691	-2.3038644114	 0.292945
H	 1.9775276771	-4.2907086127	-1.8154731905	 0.08643
H	 0.5005028384	-4.3637334309	-2.8042656563	 0.103833
H	 2.9806789046	-3.6213773886	-3.8737407353	 0.294108
53.5748	75.8549	100.5085	131.4551	162.3093	238.9301	247.6196	319.08	327.7627	407.8413	454.9675	467.8279	500.2343	583.1817	820.7701	865.7989	903.2832	934.8554	1013.4071	1063.6598	1082.8375	1113.9346	1134.5488	1146.0081	1169.6563	1187.7339	1212.0213	1264.8917	1281.2013	1298.3064	1334.9345	1378.9537	1394.5849	1407.1736	1430.7988	1446.3733	1456.6684	1484.0258	1497.5133	1499.766	1506.7189	1534.0133	2958.2323	2965.3835	2970.6241	2982.1639	2990.9538	3007.2489	3045.5812	3073.5601	3119.7216	3122.6817	3790.5254	3796.242
CCOCC(O)CO	CCOC[C@@H](O)CO	
InChI=1S/C5H12O3/c1-2-8-4-5(7)3-6/h5-7H,2-4H2,1H3	InChI=1S/C5H12O3/c1-2-8-4-5(7)3-6/h5-7H,2-4H2,1H3/t5-/m0/s1
