18
gdb 49176	4.00568	1.13148	0.94828	2.8175	82.33	-0.2321	-0.0592	0.1729	1221.9171	0.14903	-401.945286	-401.937603	-401.936659	-401.977643	29.562	
O	-0.0873878695	-0.0303109179	-0.0882192568	-0.274426
C	-0.0104324287	 1.1766510382	-0.027821766	 0.086244
C	 1.2513518998	 1.933286168	-0.0186835028	 0.209287
C	 1.2231390317	 3.2728903505	 0.0669642496	-0.149495
C	 2.4724304932	 4.059427653	 0.0246935003	-0.056275
C	 3.2751300388	 4.352961572	 1.2514897864	-0.240167
N	 3.7482578369	 3.3801490659	 0.2696014029	-0.094409
C	 3.6560616213	 1.9571563243	 0.6638044805	-0.168488
C	 2.5677070379	 1.2026667084	-0.1067844185	-0.305631
H	-0.9243027349	 1.8107848033	 0.0272791148	 0.06757
H	 0.2753083989	 3.8071209465	 0.107601298	 0.106368
H	 2.5097734799	 4.7971645082	-0.7779578402	 0.110134
H	 3.838221232	 5.2802621791	 1.3188992679	 0.120667
H	 2.8960507643	 3.9739203521	 2.1989520198	 0.115329
H	 4.6360050973	 1.5024244962	 0.4858608486	 0.112339
H	 3.4478621351	 1.8656174921	 1.7386422741	 0.100321
H	 2.4524328611	 0.1896353688	 0.2882102773	 0.133318
H	 2.8548543849	 1.0906871413	-1.1603450258	 0.127314
89.1512	151.9897	200.994	217.2317	360.9662	396.0247	436.6791	487.4152	542.2628	602.7203	732.2479	751.0313	787.6634	827.0724	876.9346	913.8887	970.0211	994.329	1027.5547	1045.8657	1059.4254	1092.24	1103.9637	1121.8183	1154.6622	1194.9932	1238.8959	1263.3706	1305.8128	1321.4801	1359.8759	1399.2315	1401.954	1428.1217	1476.2705	1496.9461	1518.0732	1690.887	1785.9723	2873.6245	3005.5155	3031.241	3066.3065	3092.9945	3094.3704	3098.4559	3144.8497	3183.0968
O=CC1=CC2CN2CC1	O=CC1=C[C@H]2CN2CC1	
InChI=1S/C7H9NO/c9-5-6-1-2-8-4-7(8)3-6/h3,5,7H,1-2,4H2	InChI=1S/C7H9NO/c9-5-6-1-2-8-4-7(8)3-6/h3,5,7H,1-2,4H2/t7-,8?/m0/s1
