17
gdb 36630	6.43017	0.78306	0.7097	1.608	77.12	-0.2191	0.0266	0.2457	1549.1255	0.136365	-417.981177	-417.972459	-417.971515	-418.015585	31.438	
C	 0.1003781865	-1.1623083487	-0.0453646193	-0.412452
C	 0.0771807415	 0.0379653245	-0.0327748143	 0.295686
C	 0.0035587587	 1.4891609134	-0.0220777224	-0.2359
O	 1.3344401834	 2.0195343362	 0.1144687769	-0.267161
C	 1.3974207549	 3.3548553348	 0.1102187463	 0.494835
N	 0.412697053	 4.1593024961	-0.0104786537	-0.35986
C	 1.0026816775	 5.5050939187	 0.0658269811	-0.156785
C	 2.5391565979	 5.3016449376	-0.0858079957	-0.181287
N	 2.6660090559	 3.8872835589	 0.2902656001	-0.365278
H	 0.1231862783	-2.2240546451	-0.055104548	 0.20304
H	-0.4447882966	 1.8740693154	-0.9447677572	 0.153153
H	-0.6146599611	 1.852077979	 0.8064571812	 0.153982
H	 0.5917439632	 6.1587094319	-0.7088113308	 0.108406
H	 0.7617890321	 5.9588353778	 1.0363100155	 0.10846
H	 2.8662057348	 5.4746728492	-1.1206584475	 0.102895
H	 3.1262991128	 5.9462180773	 0.5732220547	 0.112901
H	 3.4364169872	 3.3523037131	-0.0845497267	 0.245366
33.6755	113.8795	118.2422	185.7881	235.9448	278.81	330.3708	417.1771	518.1829	563.5736	611.1234	685.374	705.997	752.2366	773.0641	868.9962	920.0721	971.4151	995.3055	1013.1747	1028.9129	1064.2162	1107.6043	1116.9397	1209.5735	1240.704	1246.1769	1299.8954	1315.7755	1348.3648	1393.1193	1480.437	1496.0029	1506.6297	1533.805	1715.0733	2250.8591	3001.8354	3016.4362	3043.2166	3076.1112	3076.4222	3089.4143	3505.8399	3601.5515
C#CCOC1=NCCN1	C#CCO[C]1[N]CCN1	
InChI=1S/C6H8N2O/c1-2-5-9-6-7-3-4-8-6/h1H,3-5H2,(H,7,8)	InChI=1S/C6H8N2O/c1-2-5-9-6-7-3-4-8-6/h1H,3-5H2,(H,7,8)
