20
gdb 94159	2.24523	1.47563	1.19682	5.4951	74.62	-0.2467	0.0246	0.2713	1133.3395	0.17146	-440.311513	-440.302345	-440.301401	-440.345046	35.128	
C	-0.0140271596	 1.5860917045	 0.0719709412	-0.457741
C	 0.0351283792	 0.0516905747	-0.0136674079	 0.177035
C	 1.1345122161	-0.4446608519	-0.9925699857	-0.263692
C	 2.1026717171	-0.5833903448	 0.2209507964	-0.269683
C	 0.8436239723	-0.6260293562	 1.1355234323	 0.005176
N	 0.6985381985	-0.0347225304	 2.4527205957	-0.541661
H	 1.129094497	 0.883496049	 2.4974766113	 0.236991
H	-1.4514121919	-0.2395067195	 1.756985931	 0.309727
H	 1.1317630758	-0.6058706339	 3.1708656065	 0.240726
C	-1.3757451659	-0.4863156307	-0.1448624801	 0.366277
O	-1.8907596292	-0.8650527166	-1.1608452196	-0.336416
O	-2.0482664799	-0.5083579212	 1.0350118878	-0.38879
H	 0.9895182331	 2.012714492	 0.1699293149	 0.115542
H	-0.4576252347	 1.9910555443	-0.8425730379	 0.143474
H	-0.6164808503	 1.9296265768	 0.9180356688	 0.126677
H	 0.8727701918	-1.4075052783	-1.4357499359	 0.124145
H	 1.4233836931	 0.243275435	-1.7890022253	 0.105791
H	 2.7726355114	-1.4455651791	 0.247331723	 0.102199
H	 2.6945206914	 0.3235489127	 0.3776776854	 0.100939
H	 0.5155895149	-1.6682560464	 1.2172850983	 0.103285
89.1115	126.567	187.718	236.7727	246.8624	250.9726	313.4636	327.9753	383.7381	444.3019	465.8503	584.4477	659.1232	726.1706	732.8407	778.655	798.6835	855.5519	903.0403	915.3611	922.3546	967.494	991.2082	1063.5221	1117.9858	1127.4115	1158.4765	1176.1295	1216.9761	1238.1408	1250.145	1275.3232	1286.9792	1321.2566	1379.8375	1408.3645	1433.9895	1482.9096	1496.8245	1502.7947	1505.3981	1655.9787	1866.7972	3035.622	3046.016	3057.723	3078.4643	3104.6642	3110.8559	3113.0373	3134.8493	3502.1059	3582.2023	3623.3387
CC1(CCC1[NH3+])C([O-])=O	C[C@]1(CC[C@H]1N)C(=O)O	
InChI=1S/C6H11NO2/c1-6(5(8)9)3-2-4(6)7/h4H,2-3,7H2,1H3,(H,8,9)	InChI=1S/C6H11NO2/c1-6(5(8)9)3-2-4(6)7/h4H,2-3,7H2,1H3,(H,8,9)/t4-,6-/m1/s1
