19
gdb 22446	2.12855	1.14514	0.92208	3.7649	78.92	-0.2636	-0.0101	0.2535	1360.2011	0.156989	-419.189537	-419.179162	-419.178218	-419.225506	36.839	
C	 0.0221862913	 1.5697994729	-0.0424620436	-0.380805
C	-0.0066985014	 0.0321830875	 0.0483262898	-0.274117
C	-1.4104249471	-0.5137309819	-0.0190037872	 0.358237
N	-2.0782253003	-0.7061556794	-1.0888074429	-0.164176
O	-1.3529704404	-0.3585769085	-2.2336239034	-0.394883
C	-2.139013234	-0.8255347696	 1.2857771544	-0.205586
C	-3.617621831	-1.2193888115	 1.1254803136	-0.388638
C	-1.4027508149	-1.8640838607	 2.0237724327	 0.273303
N	-0.8264311452	-2.6809565646	 2.6038712738	-0.327905
H	 1.0513683833	 1.9344161626	 0.0204798398	 0.123929
H	-0.4052486711	 1.9058110306	-0.9900254972	 0.141371
H	-0.54522534	 2.0315579945	 0.7724127008	 0.115848
H	 0.5690722686	-0.3900835683	-0.7794323591	 0.13722
H	 0.4639320491	-0.2975950871	 0.9796159965	 0.122561
H	-1.9656334594	-0.5874088572	-2.9408356994	 0.310891
H	-2.082492658	 0.0815092423	 1.9062214336	 0.137737
H	-3.714316711	-2.1266831356	 0.5276068899	 0.150532
H	-4.0653866418	-1.3911713299	 2.1069910957	 0.128826
H	-4.1581333667	-0.4191504759	 0.6173304123	 0.135655
43.0532	66.2933	122.9658	176.0847	215.6467	228.3615	241.3725	263.5451	324.4979	336.5901	413.3897	435.0307	473.7231	574.1123	593.5938	728.1298	750.4447	806.2973	856.9207	966.7263	988.55	1028.8201	1046.7841	1089.1573	1114.2965	1127.4043	1218.5468	1289.7876	1310.1657	1316.5699	1354.4993	1404.3094	1405.869	1416.9297	1484.2117	1486.9681	1494.2723	1498.084	1508.1831	1732.7566	2355.1373	3001.9207	3041.4663	3057.7205	3063.7856	3098.3678	3113.6167	3132.1377	3141.9006	3152.9882	3818.072
CCC(=NO)C(C)C#N	CCC(=NO)[C@@H](C)C#N	
InChI=1S/C6H10N2O/c1-3-6(8-9)5(2)4-7/h5,9H,3H2,1-2H3	InChI=1S/C6H10N2O/c1-3-6(8-9)5(2)4-7/h5,9H,3H2,1-2H3/t5-/m0/s1
