20
gdb 12635	3.35458	1.81433	1.34797	1.3887	76.33	-0.2354	0.0272	0.2626	983.6139	0.176843	-349.01897	-349.01048	-349.009535	-349.051391	32.624	
C	-0.1378808762	 1.612001183	-0.0462952962	-0.425633
C	 0.0609757926	 0.0931272534	-0.0294426596	-0.027861
C	 0.8487113898	-0.4590610127	-1.1983262526	-0.072589
C	 1.6740260025	-1.4330743465	-0.8248082842	-0.069963
C	 1.5910310311	-1.7126807679	 0.6614730169	-0.024812
C	 2.927026924	-2.028593576	 1.3409273538	-0.393363
C	 0.8595396308	-0.4508902359	 1.1980296593	 0.079948
O	 1.8511727803	 0.4653067694	 1.6444992573	-0.424868
H	 0.823543335	 2.1327041755	-0.0648171061	 0.128977
H	-0.7020190276	 1.9167723922	-0.9334150422	 0.116301
H	-0.7030772758	 1.9543744506	 0.8292059536	 0.103619
H	-0.9351880649	-0.377310188	-0.0169126785	 0.075984
H	 0.7094075553	-0.101905683	-2.2135304483	 0.08564
H	 2.3173113824	-2.004934106	-1.4855124797	 0.086452
H	 0.921589903	-2.5734227189	 0.8169818596	 0.077286
H	 3.6323893458	-1.2043868968	 1.2209571828	 0.135413
H	 2.7937306021	-2.2033364201	 2.4130709598	 0.10986
H	 3.3677888301	-2.931573659	 0.9052743789	 0.102475
H	 0.1863737254	-0.7033243006	 2.0301926716	 0.05306
H	 1.4033621145	 1.2268965675	 2.023774014	 0.284075
76.2044	207.4278	225.7479	246.9494	249.17	289.0661	309.9149	324.3172	446.3156	455.825	597.5488	681.0066	741.9366	787.4742	832.3279	846.0228	896.6336	940.9267	967.2263	987.6036	1018.6279	1081.764	1092.2106	1100.4217	1132.8406	1151.8454	1189.4572	1202.8717	1284.4882	1302.07	1320.0245	1330.8	1352.7856	1383.7531	1401.8512	1405.8928	1427.4666	1492.2009	1499.3397	1501.1079	1508.4407	1684.9923	2967.5203	2974.8759	2997.0291	3026.4336	3039.7817	3090.1428	3100.8669	3114.0103	3136.1227	3172.4365	3198.5867	3832.397
CC1C=CC(C)C1O	C[C@H]1C=C[C@@H](C)[C@H]1O	
InChI=1S/C7H12O/c1-5-3-4-6(2)7(5)8/h3-8H,1-2H3	InChI=1S/C7H12O/c1-5-3-4-6(2)7(5)8/h3-8H,1-2H3/t5-,6+,7-
