20
gdb 6609	4.1411	1.49581	1.3688	1.5157	75.51	-0.2211	0.0851	0.3062	1013.9412	0.175039	-348.986884	-348.978437	-348.977493	-349.019613	32.759	
C	-0.5027731398	 1.5876486592	-0.0114403532	-0.427574
C	-0.0007892845	 0.151732127	-0.0613796556	 0.430108
C	-1.0743027671	-0.8547363636	 0.3271316694	-0.427563
C	 0.8429405705	-0.219252009	-1.3131151075	-0.413882
C	 1.98895781	-0.3501417114	-0.3217298175	 0.469761
C	 3.0659998572	-1.3791930541	-0.2230825774	-0.334955
C	 3.4107140428	 0.0927674183	-0.4271676052	-0.334962
O	 1.1764573088	-0.0046411536	 0.7978302205	-0.344791
H	 0.2970633727	 2.2861447635	-0.2723083567	 0.119498
H	-1.3339446818	 1.7335019357	-0.7102218867	 0.112418
H	-0.8551283463	 1.8325757468	 0.9958079667	 0.122274
H	-1.9264659005	-0.7987175353	-0.3592320024	 0.112417
H	-0.6761564798	-1.8728937984	 0.3042729646	 0.1195
H	-1.4366516519	-0.6523330604	 1.3402597892	 0.122272
H	 0.5452118547	-1.1432065734	-1.8142068517	 0.105284
H	 0.9481189813	 0.5778925665	-2.052660597	 0.105284
H	 3.2551689741	-1.8012368392	 0.758250545	 0.122108
H	 3.2086639396	-2.0675462454	-1.0502959754	 0.110345
H	 3.7889653981	 0.4104142499	-1.3938588005	 0.110346
H	 3.8239447119	 0.6274621869	 0.4215154715	 0.12211
42.8474	205.5067	226.5766	230.3826	282.6798	324.0991	350.8749	373.5445	424.9256	487.6332	526.3365	713.8706	757.3974	826.4471	861.3855	891.9778	906.6468	917.852	921.204	959.8941	981.3534	1004.5975	1021.261	1047.2922	1065.3911	1140.4464	1151.022	1186.7318	1216.6216	1267.8781	1282.4738	1284.4005	1384.6167	1399.5366	1412.4207	1448.1007	1475.0565	1482.2597	1485.7008	1492.1529	1504.8502	1508.1086	3029.896	3035.476	3062.3908	3099.2709	3106.4489	3111.6625	3116.4583	3117.0574	3123.9214	3126.846	3207.5363	3221.9996
CC1(C)CC2(CC2)O1	CC1(C)CC2(CC2)O1	
InChI=1S/C7H12O/c1-6(2)5-7(8-6)3-4-7/h3-5H2,1-2H3	InChI=1S/C7H12O/c1-6(2)5-7(8-6)3-4-7/h3-5H2,1-2H3
