14
gdb 48183	7.22851	0.59078	0.54991	6.0805	65.6	-0.2659	-0.109	0.1569	1830.7892	0.096463	-473.813181	-473.803573	-473.802629	-473.849678	31.007	
O	-0.1662179312	 0.0575628996	 0.0025969874	-0.195413
C	-0.0299908951	 1.2478166106	 0.007619394	 0.083908
C	 1.3650296551	 1.9192260948	-0.0014177485	 0.289638
O	 2.3731179955	 1.2708295478	-0.0141100967	-0.23248
C	 1.3189374614	 3.439539299	 0.0072478515	-0.176211
O	 2.6172529644	 3.9539216916	-0.0016396054	-0.213722
C	 2.641939346	 5.3631756553	 0.0057509617	-0.186359
C	 4.0336213402	 5.8201646395	-0.0044064682	 0.273162
N	 5.1158868807	 6.2207819083	-0.0120629942	-0.28123
H	-0.9004049196	 1.9436652547	 0.0191514699	 0.091021
H	 0.7319440217	 3.7750650764	-0.8691529963	 0.126711
H	 0.7478230383	 3.765489479	 0.8976421503	 0.126707
H	 2.1277019445	 5.7804043812	-0.8749649712	 0.147133
H	 2.1438044781	 5.7708135222	 0.9001074156	 0.147135
35.3409	71.1894	82.4095	94.7664	144.2498	188.5805	282.5836	321.2451	382.9408	397.5069	460.8116	575.9384	730.4147	856.4277	875.2552	965.0693	1011.6721	1028.509	1058.7058	1087.1985	1194.002	1245.015	1259.5472	1374.6083	1415.9099	1429.9617	1475.1174	1503.6064	1829.2943	1858.1683	2377.9513	2866.0207	2929.8699	2949.5757	2977.4736	3005.3627
O=CC(=O)COCC#N	O=CC(=O)COCC#N	
InChI=1S/C5H5NO3/c6-1-2-9-4-5(8)3-7/h3H,2,4H2	InChI=1S/C5H5NO3/c6-1-2-9-4-5(8)3-7/h3H,2,4H2
