19
gdb 105181	2.46754	1.00722	0.82317	2.7139	82.52	-0.2296	0.0346	0.2643	1479.8297	0.15548	-422.969762	-422.959192	-422.958247	-423.006311	37.107	
C	 0.1527467105	 1.1246706692	 0.3441818077	-0.250606
O	-0.1798178612	-0.1491365214	-0.1856076973	-0.287961
C	 0.6299468638	-0.5632254359	-1.255670584	 0.137031
C	 1.9884127972	-1.1632108576	-0.8798927279	-0.376512
C	 0.8337506375	-2.0667425578	-1.231588121	 0.09793
O	 0.1820110524	-2.8008077682	-0.2508913698	-0.432789
C	 0.4676472508	 0.153817762	-2.4901662962	 0.069157
C	 0.334749789	 0.7581251439	-3.5249040887	 0.072198
C	 0.1658075077	 1.4771830068	-4.7787715871	-0.502628
H	 1.1805872079	 1.1416908118	 0.7310060928	 0.112917
H	 0.0475946791	 1.9062906351	-0.417986297	 0.126695
H	-0.5457421789	 1.318051679	 1.160926156	 0.129448
H	 2.8068422655	-1.0499082858	-1.5816066131	 0.121886
H	 2.2554078606	-1.1073185805	 0.1703070893	 0.121119
H	 0.858210585	-2.5811479019	-2.1866540805	 0.113095
H	-0.2808719992	-2.1572370971	 0.3036819221	 0.295939
H	 0.4061140784	 0.8357059452	-5.6339361154	 0.152458
H	-0.8685308661	 1.8162422067	-4.9030004796	 0.152696
H	 0.8150725298	 2.3582238063	-4.8317582304	 0.147928
35.5346	78.1878	102.1181	118.2431	183.4162	194.5415	256.6841	282.5474	334.1952	352.9844	395.4013	419.9935	490.3662	551.1482	605.0984	646.2076	802.498	893.1923	904.3355	990.0723	1009.2241	1043.609	1051.0563	1055.1543	1096.4163	1116.3426	1155.903	1184.0788	1220.5943	1256.5424	1285.8766	1363.6691	1413.74	1426.439	1467.035	1475.5803	1475.8598	1479.4042	1483.8647	1509.2543	2359.8603	3005.9025	3026.4781	3068.7395	3086.3384	3089.5861	3128.0641	3132.9551	3167.3529	3230.9184	3745.2831
COC1(CC1O)C#CC	CO[C@]1(C[C@H]1O)C#CC	
InChI=1S/C7H10O2/c1-3-4-7(9-2)5-6(7)8/h6,8H,5H2,1-2H3	InChI=1S/C7H10O2/c1-3-4-7(9-2)5-6(7)8/h6,8H,5H2,1-2H3/t6-,7+/m1/s1
