20
gdb 78377	2.8371	1.46264	1.23608	1.4889	78.57	-0.2114	0.0563	0.2677	1100.8897	0.171401	-403.068741	-403.060631	-403.059686	-403.100932	32.289	
C	 0.0211185125	 1.5079712088	 0.0268194408	-0.424646
C	 0.0410369921	-0.0062970313	-0.0141867052	-0.022635
C	 0.6877848151	-0.6333419324	-1.2220654824	-0.080779
C	 1.3927077163	-0.6541250839	 0.1408763819	-0.032083
N	 1.4091666424	-2.135670208	 0.1712523617	-0.132966
C	 0.2468635011	-2.8242530972	 0.8289134803	-0.227972
C	-0.469695175	-2.9853687521	-0.5518385421	 0.088013
O	-1.7448140052	-2.4117795302	-0.7290104576	-0.419668
C	 0.7019112642	-2.1637854507	-1.1578515415	-0.008494
H	 0.9370987324	 1.9304248384	-0.4009238451	 0.114933
H	-0.8246536824	 1.9068431041	-0.5434136742	 0.12126
H	-0.0645132587	 1.8735747643	 1.0557608357	 0.116769
H	-0.8444026596	-0.4766769299	 0.397889809	 0.098194
H	 0.9207481659	-0.0575732955	-2.1096803307	 0.084551
H	 2.253515155	-0.0981096121	 0.4990598978	 0.086414
H	 0.549976909	-3.7605315031	 1.3072853163	 0.098507
H	-0.3021332424	-2.2146260198	 1.5527301846	 0.106387
H	-0.4587942965	-4.0252643027	-0.9047632307	 0.073948
H	-2.3991894771	-3.0140576589	-0.3611855649	 0.286595
H	 1.245920691	-2.6383457381	-1.9798542938	 0.073673
137.7801	190.4817	213.804	250.7934	259.6196	270.6761	372.4667	414.7295	493.4387	594.0773	665.356	749.7804	772.4949	821.1519	846.2387	880.9457	895.5151	923.9877	982.8572	1014.2317	1023.4174	1039.6896	1046.1576	1052.0584	1094.6526	1123.9263	1139.2823	1171.632	1185.6525	1190.2586	1210.3566	1213.8778	1263.2674	1283.7602	1300.9601	1305.7591	1346.0555	1415.6719	1420.2076	1432.0821	1491.708	1494.6016	1503.1694	3004.8176	3027.0592	3042.383	3059.0456	3092.8057	3093.0626	3095.788	3151.5414	3172.5649	3182.1751	3816.5975
CC1C2C1N1CC(O)C21	C[C@H]1[C@H]2[C@@H]1N1C[C@@H](O)[C@@H]21	
InChI=1S/C7H11NO/c1-3-5-6(3)8-2-4(9)7(5)8/h3-7,9H,2H2,1H3	InChI=1S/C7H11NO/c1-3-5-6(3)8-2-4(9)7(5)8/h3-7,9H,2H2,1H3/t3-,4+,5-,6+,7-/m0/s1
