19
gdb 120361	3.15601	1.03918	0.82963	3.1319	78.82	-0.2379	-0.0238	0.2141	1419.7672	0.157565	-423.043195	-423.033978	-423.033034	-423.078571	32.98	
C	 0.0442504313	 1.5377353072	 0.0723056903	-0.385258
C	-0.0650422526	 0.0256965345	-0.0206497378	-0.036512
O	 0.6825111404	-0.4034611751	-1.1459158521	-0.246801
C	 0.7294497589	-1.8012319657	-1.3179010925	-0.015973
C	-0.4145509189	-2.4035160145	-2.0966198755	-0.090266
C	-0.0007302887	-3.113805779	-3.1475907693	-0.075008
C	 1.4967004608	-3.1255118344	-3.2982360435	-0.371023
C	 1.9605717717	-2.1664806831	-2.1931623783	 0.375111
O	 3.0715842221	-1.7468084561	-2.0294124438	-0.288931
H	 1.0905010366	 1.8380246284	 0.1751991436	 0.134401
H	-0.3603661261	 2.0078945691	-0.8283379449	 0.128281
H	-0.5136316638	 1.9068672631	 0.9381387632	 0.114399
H	 0.3294004325	-0.4501610349	 0.8925852133	 0.091099
H	-1.1204274281	-0.2776745888	-0.1141618324	 0.086569
H	 0.8531373316	-2.2937834982	-0.3360583462	 0.090228
H	-1.4497723986	-2.2645083657	-1.808044842	 0.104853
H	-0.6550087114	-3.638707375	-3.8347809562	 0.105858
H	 1.9424060323	-4.1158477519	-3.1332873223	 0.13869
H	 1.8527660402	-2.7899372499	-4.2796078935	 0.140284
50.0689	58.3096	74.4858	149.3334	238.5797	275.0077	297.4104	359.6215	456.7453	528.1866	578.2991	643.5561	722.0231	766.326	803.0482	822.1709	887.3552	965.1271	975.2352	990.4687	1003.5886	1055.3428	1107.2773	1130.6409	1143.022	1161.4631	1170.5428	1186.5677	1267.8143	1286.0317	1296.0962	1331.1172	1384.3609	1401.5829	1434.5286	1446.8367	1482.27	1499.25	1526.6453	1678.0294	1868.0889	2934.7401	2961.5555	2988.6389	3025.6296	3046.2685	3061.0449	3120.1115	3125.7551	3186.1302	3210.6301
CCOC1C=CCC1=O	CCO[C@H]1C=CCC1=O	
InChI=1S/C7H10O2/c1-2-9-7-5-3-4-6(7)8/h3,5,7H,2,4H2,1H3	InChI=1S/C7H10O2/c1-2-9-7-5-3-4-6(7)8/h3,5,7H,2,4H2,1H3/t7-/m0/s1
