22
gdb 95781	2.18713	1.60495	0.9914	3.0488	82.65	-0.2209	-0.0109	0.2101	1253.5267	0.194884	-404.383099	-404.373771	-404.372827	-404.416942	35.571	
C	-0.0722585848	 1.5630114851	-0.0205583219	-0.398947
C	 0.0820872914	 0.0437296455	 0.0098907444	-0.082774
C	 0.7394075156	-0.5277317154	-1.264792662	-0.179802
C	 0.9611936507	-2.0347254274	-1.1474778098	-0.170543
N	 1.789439027	-2.3046503191	 0.0226721832	-0.299865
C	 1.1386301657	-1.9453838212	 1.2884949938	-0.047884
C	 2.0161775523	-2.3228459614	 2.4744861048	-0.402828
C	 0.8315600164	-0.4383506777	 1.2522718238	 0.410797
O	 1.1344150441	 0.2997780386	 2.1602796869	-0.315015
H	 0.9043689121	 2.0506429244	-0.0975867419	 0.125373
H	-0.67763603	 1.8700327586	-0.8790410016	 0.105592
H	-0.5469486617	 1.9284426272	 0.8925487631	 0.129297
H	-0.9157809684	-0.4194695231	 0.0875195647	 0.092066
H	 0.1108730955	-0.3011142791	-2.1331860149	 0.096493
H	 1.7076839423	-0.0381586644	-1.4226146246	 0.111774
H	-0.0213131128	-2.5457656592	-1.1030095848	 0.074542
H	 1.4809018951	-2.4107199724	-2.0347701026	 0.10068
H	 2.0552615864	-3.2832325392	 0.0519737139	 0.218736
H	 0.1520642161	-2.4479660564	 1.3929625926	 0.06478
H	 2.9907028342	-1.8349190265	 2.3959183233	 0.134073
H	 1.551904832	-2.0075874422	 3.4106600697	 0.132067
H	 2.1682641908	-3.4070090247	 2.5084257601	 0.10139
73.5397	127.6579	184.2191	198.1078	238.4733	282.5213	315.8685	337.5577	370.6568	413.4325	427.3974	555.5969	579.9176	662.9029	764.3143	788.1901	853.9232	889.5776	926.091	978.0577	996.4301	1007.7268	1025.1604	1089.0637	1116.3744	1142.1134	1155.6986	1167.4067	1190.6156	1193.6645	1267.3664	1312.8751	1318.9209	1345.7113	1360.7089	1385.2638	1408.415	1410.0796	1412.8551	1472.2731	1481.8862	1490.2687	1492.4536	1495.3234	1498.6982	1505.2362	1813.7523	2856.918	2902.3571	2974.2646	3032.6928	3043.96	3044.4491	3067.5637	3078.7132	3110.6341	3116.8509	3129.226	3142.3352	3520.0032
CC1CCNC(C)C1=O	C[C@H]1CCN[C@@H](C)C1=O	
InChI=1S/C7H13NO/c1-5-3-4-8-6(2)7(5)9/h5-6,8H,3-4H2,1-2H3	InChI=1S/C7H13NO/c1-5-3-4-8-6(2)7(5)9/h5-6,8H,3-4H2,1-2H3/t5-,6-/m0/s1
