15
gdb 42236	4.24033	0.92155	0.82042	3.7089	74.28	-0.2517	-0.0704	0.1813	1338.6394	0.109332	-420.610221	-420.60147	-420.600525	-420.645281	31.198	
O	 0.412615092	-0.0281412714	 0.5090105664	-0.288249
C	 0.1502595698	 1.1229069795	 0.2311862117	 0.229424
C	 1.1909765485	 2.0901520394	-0.0699362853	 0.254697
C	 2.0356739234	 2.9106508503	-0.3199739277	-0.401638
C	-1.267218979	 1.6435828151	 0.1245598331	-0.108839
C	-1.8804079766	 1.5451585703	-1.3246993701	-0.353583
C	-3.0950747059	 0.8486011264	-0.6811534023	 0.405565
O	-4.1964709828	 0.601464198	-1.0721934413	-0.280906
C	-2.3813225407	 0.7056804278	 0.6670273513	-0.366294
H	 2.7967355284	 3.6203524004	-0.5383934565	 0.219878
H	-1.3227383387	 2.6652925963	 0.5047103289	 0.105488
H	-2.0792598867	 2.4781834026	-1.8556048653	 0.140703
H	-1.3240999419	 0.8708880318	-1.9841038756	 0.147946
H	-1.9967439527	-0.308295185	 0.8213397018	 0.162387
H	-2.9353901471	 1.0210778986	 1.5534414708	 0.133421
24.4053	58.9147	130.8207	186.51	254.564	279.3173	406.8568	442.9779	486.4476	568.1925	645.3259	651.026	686.7869	710.4439	731.5639	757.3104	874.4225	927.0396	974.5921	998.7322	1065.4863	1090.1997	1123.0612	1181.1431	1199.8087	1232.1931	1237.3584	1356.5453	1424.8493	1443.0772	1762.0997	1901.4821	2211.2535	3059.0192	3063.4046	3095.0839	3127.0899	3129.0379	3492.6907
O=C(C#C)C1CC(=O)C1	O=C(C#C)C1CC(=O)C1	
InChI=1S/C7H6O2/c1-2-7(9)5-3-6(8)4-5/h1,5H,3-4H2	InChI=1S/C7H6O2/c1-2-7(9)5-3-6(8)4-5/h1,5H,3-4H2
