13
gdb 128352	7.08014	0.90507	0.80729	4.7917	69.8	-0.2511	-0.0788	0.1724	1327.1099	0.089859	-448.929248	-448.921151	-448.920207	-448.962368	28.03	
C	 0.0044462813	 1.433249481	-0.0794259685	-0.330264
N	-0.0505089502	-0.0061234113	 0.1065142186	-0.391868
C	-1.2232419552	-0.6745233215	 0.0425232952	 0.453362
N	-2.4086270337	-0.0868124562	 0.0108814467	-0.195626
O	-3.3012835923	-1.1727601555	 0.0030075764	-0.19695
C	-2.5442913519	-2.2717695911	 0.0137125988	 0.355047
N	-1.265690843	-2.0557073435	 0.0361213196	-0.364268
C	-3.2021591408	-3.5347318307	-0.0000567287	 0.273295
N	-3.7414822759	-4.5566926273	-0.0117223548	-0.307667
H	 1.020735155	 1.7743965424	 0.1235214141	 0.137097
H	-0.281902624	 1.7382531765	-1.0943147111	 0.138051
H	-0.675042461	 1.9197476433	 0.6251689783	 0.161954
H	 0.7633610316	-0.5564614562	-0.1124120746	 0.267836
83.0963	128.1534	141.3496	175.5781	222.9948	335.6353	393.9909	444.8527	478.7787	558.5051	640.5406	717.201	750.9307	779.1261	928.359	1019.7949	1045.1168	1134.5967	1156.1393	1181.3065	1285.4875	1336.4832	1458.6587	1482.9541	1498.0905	1518.9431	1613.3406	1644.2506	2370.2046	3021.5673	3098.1429	3143.3588	3656.0838
CNC1=NOC(=N1)C#N	CNc1noc(n1)C#N	
InChI=1S/C4H4N4O/c1-6-4-7-3(2-5)9-8-4/h1H3,(H,6,8)	InChI=1S/C4H4N4O/c1-6-4-7-3(2-5)9-8-4/h1H3,(H,6,8)
