17
gdb 69795	2.65526	1.88279	1.30286	2.9802	71.56	-0.2377	-0.0334	0.2043	982.5209	0.13582	-421.823064	-421.815452	-421.814508	-421.854918	29.751	
C	-0.027409979	 1.5621298662	 0.0214465685	-0.488076
C	 0.1567745245	 0.0754225634	 0.033420603	 0.275036
O	-0.7487772126	-0.707838504	 0.8489020383	-0.284253
C	 0.6529372595	-0.7760734261	 1.1297965198	-0.040001
C	 1.3255138622	-2.0270535924	 0.5777780911	-0.071198
C	 0.4135057262	-3.009156699	-0.0914430309	-0.286809
C	 1.1518251159	-1.9767782929	-0.9320737771	-0.160265
C	 0.5097644835	-0.6555960025	-1.2660579858	 0.376495
O	 0.41371775	-0.1674748156	-2.3649334767	-0.320436
H	 0.8934909998	 2.0628190773	-0.2922432217	 0.133573
H	-0.8119060089	 1.8386235118	-0.6891248501	 0.146929
H	-0.3069743493	 1.9177671772	 1.0158377227	 0.129676
H	 0.9579823367	-0.3716214332	 2.0909929376	 0.104488
H	 2.2530286147	-2.3529013674	 1.0318703306	 0.099114
H	 0.7697283823	-4.0274544291	-0.2009605255	 0.122084
H	-0.6521887265	-2.900770465	 0.0566748931	 0.150618
H	 1.9031166509	-2.3306347785	-1.6270173968	 0.113025
124.2866	162.025	215.326	249.3224	291.6036	372.893	465.9859	536.4783	578.6212	625.5719	675.2772	766.1849	796.5879	807.3208	825.6282	874.6158	946.5563	954.6764	974.2579	1001.5659	1050.7213	1081.1753	1090.2642	1101.7777	1109.6799	1143.9596	1185.5504	1277.433	1289.0772	1332.2732	1354.5739	1405.4273	1443.4964	1475.0488	1479.8109	1491.362	1829.5274	3047.0452	3114.8402	3132.7344	3149.5293	3153.2591	3188.6342	3196.4203	3249.7247
CC12OC1C1CC1C2=O	C[C@]12O[C@H]1[C@H]1C[C@H]1C2=O	
InChI=1S/C7H8O2/c1-7-5(8)3-2-4(3)6(7)9-7/h3-4,6H,2H2,1H3	InChI=1S/C7H8O2/c1-7-5(8)3-2-4(3)6(7)9-7/h3-4,6H,2H2,1H3/t3-,4+,6+,7-/m1/s1
