14
gdb 28196	5.31508	1.30319	1.04704	3.6712	69.3	-0.1756	0.0506	0.2262	1050.0562	0.103966	-432.910028	-432.902734	-432.90179	-432.941582	27.987	
O	 0.1112570797	 1.2901747347	 0.1671027174	-0.426755
C	 0.096766056	-0.0463032518	 0.0148129497	 0.413663
N	 0.0787510067	-0.7047735574	-1.1071136053	-0.452805
C	 0.0216463556	-2.0415062656	-0.6996974615	 0.268505
C	-0.0007005479	-2.1158086574	 0.6763873611	 0.37004
N	 0.0580690027	-3.4152511618	 1.0861459715	-0.402514
C	 0.0561371236	-4.1945476677	-0.0744732976	-0.080248
C	 0.0529670071	-3.3816049554	-1.1870867529	-0.288702
N	 0.0909170699	-0.8220077416	 1.1608509833	-0.454343
H	 0.0981926397	 1.6576834984	-0.7257772189	 0.314129
H	-0.0614575576	-3.7730489939	 2.0164135891	 0.259799
H	 0.0378784465	-5.268996233	 0.0064722934	 0.114318
H	 0.0751860723	-3.7211967791	-2.2104904	 0.095873
H	-0.0484765843	-0.4711044085	 2.0920531807	 0.26904
99.5545	191.5718	276.1343	330.6903	354.6185	374.4153	407.2061	544.5633	587.2703	602.8628	647.1431	704.8443	749.7811	765.2714	814.9314	832.7251	938.3937	1008.4418	1058.9786	1098.5353	1170.5329	1189.9555	1245.6646	1307.4365	1366.6042	1461.2673	1479.1153	1518.2739	1568.1017	1605.7794	1632.1859	3253.0712	3274.5714	3681.6253	3690.4915	3803.2822
OC1=NC2=C(NC=C2)N1	Oc1nc2c([nH]cc2)[nH]1	
InChI=1S/C5H5N3O/c9-5-7-3-1-2-6-4(3)8-5/h1-2,6H,(H2,7,8,9)	InChI=1S/C5H5N3O/c9-5-7-3-1-2-6-4(3)8-5/h1-2,6H,(H2,7,8,9)
