16
gdb 45016	2.44332	1.77032	1.14831	2.6124	72.46	-0.2538	-0.0164	0.2374	1036.732	0.127603	-434.097998	-434.090751	-434.089807	-434.12991	28.237	
N	-0.1049551145	 1.2552555368	 0.3726164432	-0.525266
C	-0.0216397068	 0.031246967	 0.0302841856	 0.439312
N	 1.1643792161	-0.6764943156	-0.1750731135	-0.385034
C	 1.3398963842	-1.924826376	-0.7573248183	 0.40678
O	 2.4341064006	-2.4411679568	-0.7850752278	-0.351109
C	 0.1198667906	-2.5431987608	-1.4248315181	-0.33403
C	-1.2061490448	-2.0587608287	-0.8914183415	-0.046574
N	-1.3238211671	-2.0473410774	 0.5674137215	-0.332168
C	-1.2643667633	-0.7603613921	-0.1688608164	-0.083091
H	 0.8166870456	 1.6885810349	 0.4620693025	 0.210373
H	 2.0265923396	-0.2598364793	 0.1525456314	 0.252968
H	 0.1970887502	-2.3087969993	-2.4945010633	 0.139958
H	 0.2188094971	-3.6277074786	-1.3290030593	 0.147123
H	-2.0786626294	-2.3361328981	-1.4781112719	 0.100437
H	-2.2822490337	-2.2231248492	 0.856493864	 0.244767
H	-2.1566652343	-0.1483542069	-0.2267725582	 0.115553
92.1707	132.256	263.1036	339.7611	368.8813	473.6788	516.0112	530.9471	546.7099	646.1616	677.8753	719.1726	805.9225	858.07	865.2699	895.6623	913.5089	948.3428	1001.7439	1011.5152	1092.1082	1142.8732	1158.5781	1179.1245	1222.9176	1260.364	1297.9308	1352.2208	1372.6646	1418.6362	1428.352	1451.7041	1465.7362	1732.4143	1810.1034	3039.7145	3102.5586	3137.0693	3191.7392	3448.3705	3513.8094	3585.2934
N=C1NC(=O)CC2NC12	[NH][C]1NC(=O)C[C@H]2N[C@@H]12	
InChI=1S/C5H7N3O/c6-5-4-2(7-4)1-3(9)8-5/h2,4,7H,1H2,(H2,6,8,9)	InChI=1S/C5H7N3O/c6-5-4-2(7-4)1-3(9)8-5/h2,4,7H,1H2,(H2,6,8,9)/t2-,4-/m1/s1
