21
gdb 107729	3.45435	1.24055	1.14103	1.4201	82.58	-0.2225	0.0898	0.3123	1202.0062	0.18116	-387.043782	-387.035019	-387.034075	-387.076957	34.196	
C	 0.1905474762	 1.4679820653	 0.094624047	-0.374577
C	-0.1098329168	-0.0056826339	-0.2104234328	-0.31052
C	 0.7057907077	-0.5317944682	-1.3453758846	 0.51798
O	 0.5278926249	 0.035983	-2.6490746661	-0.366846
C	 1.3005508512	-1.0940664107	-3.1671186799	 0.425655
C	 0.9664884998	-1.4657598693	-4.5774156519	-0.50543
C	 2.7377756355	-0.7788778067	-2.6600201742	-0.265695
C	 2.1645219463	-1.0306656693	-1.2680400107	-0.161331
C	 1.0388153208	-1.8994296586	-1.8316297511	-0.28638
H	 1.2331552474	 1.6008055971	 0.4002779599	 0.117082
H	 0.021277868	 2.0850390904	-0.7922602484	 0.136927
H	-0.4509883892	 1.8403389175	 0.8986684356	 0.108499
H	 0.0861133142	-0.6270950489	 0.6719083224	 0.102604
H	-1.1730483891	-0.1274174671	-0.451487358	 0.108364
H	 1.188389064	-0.6289354598	-5.24882665	 0.13187
H	 1.5558598764	-2.3301047232	-4.898073572	 0.121288
H	-0.095503827	-1.7092010461	-4.6734794445	 0.129915
H	 3.44851367	-1.5580023427	-2.9499110301	 0.097695
H	 3.129632011	 0.2133899059	-2.9069846252	 0.094715
H	 2.6891257069	-1.1522820178	-0.3284945028	 0.085608
H	 0.6807511116	-2.893368834	-1.5989029926	 0.092577
79.791	132.1316	183.4452	202.9577	253.8334	274.065	353.5288	378.3682	466.8533	541.2304	621.9377	638.098	743.5817	790.4336	801.0434	827.2864	832.3879	863.968	898.6658	953.4573	959.084	973.3497	997.8248	1004.4462	1064.1298	1088.2578	1110.0138	1123.8617	1136.0805	1152.6936	1222.6234	1234.3843	1246.2676	1302.7677	1343.9503	1349.594	1406.3216	1414.7565	1456.9377	1474.3952	1479.7721	1486.2994	1489.5851	1495.1248	1510.6599	3027.177	3036.1143	3040.5837	3042.0231	3062.7913	3102.9034	3106.8421	3110.2308	3117.4215	3119.6449	3190.7123	3203.2594
CCC12OC3(C)CC1C23	CC[C@@]12O[C@@]3(C)C[C@@H]1[C@@H]23	
InChI=1S/C8H12O/c1-3-8-5-4-7(2,9-8)6(5)8/h5-6H,3-4H2,1-2H3	InChI=1S/C8H12O/c1-3-8-5-4-7(2,9-8)6(5)8/h5-6H,3-4H2,1-2H3/t5-,6-,7+,8-/m1/s1
