19
gdb 68246	2.94183	1.81932	1.45268	2.8727	73.73	-0.2382	0.0752	0.3135	954.9275	0.160647	-422.988464	-422.981348	-422.980404	-423.01957	29.253	
C	 0.0763875366	 1.5143092785	 0.1252547528	-0.500381
C	 0.0406079133	 0.0181224566	-0.0042647116	 0.400434
C	 0.8441107885	-0.7971183024	-1.0598675471	-0.277431
C	 0.7446308152	-1.8202451686	 0.096059183	 0.032946
O	 0.7831792461	-0.7063582475	 1.0339764529	-0.315054
C	-0.7561589462	-2.1793635	 0.0640352659	 0.135157
O	-1.3553760543	-2.4099070449	 1.3467602716	-0.292972
C	-1.9188114019	-1.0768081154	 1.3766641116	-0.087572
C	-1.3145866917	-0.7322587003	-0.0003000861	-0.133645
H	 1.1070718064	 1.8781390782	 0.1492966354	 0.129968
H	-0.4400235019	 1.9816914221	-0.7195168682	 0.122467
H	-0.4216057775	 1.8333547959	 1.0468193742	 0.131594
H	 0.3781906187	-1.0263670178	-2.023165729	 0.095411
H	 1.8582608289	-0.416344198	-1.1861908301	 0.11243
H	 1.4822420265	-2.5964428989	 0.2954192353	 0.08575
H	-1.0265857566	-2.9373376851	-0.6776223859	 0.076238
H	-3.0143457243	-1.1103012229	 1.404941336	 0.095486
H	-1.5407103824	-0.4937965849	 2.222902332	 0.110479
H	-1.9986001835	-0.4421235048	-0.7974357724	 0.078694
183.8726	204.5382	242.241	300.958	320.2872	436.8759	461.397	578.1703	644.7728	705.3759	773.5925	824.0313	849.7307	870.7174	881.4891	893.2007	925.8213	971.9517	995.0969	1006.0133	1019.9602	1038.0164	1064.7786	1083.587	1122.589	1164.0704	1170.7096	1204.8638	1209.8928	1232.9633	1249.2321	1291.2428	1299.6563	1319.1147	1349.0785	1365.2014	1415.8113	1479.332	1486.5459	1494.5552	1507.2788	3024.2277	3038.1726	3056.0637	3063.671	3077.7875	3106.3797	3117.1803	3119.1155	3134.0023	3140.8166
CC12CC(O1)C1OCC21	C[C@@]12C[C@@H](O1)[C@H]1OC[C@@H]21	
InChI=1S/C7H10O2/c1-7-2-5(9-7)6-4(7)3-8-6/h4-6H,2-3H2,1H3	InChI=1S/C7H10O2/c1-7-2-5(9-7)6-4(7)3-8-6/h4-6H,2-3H2,1H3/t4-,5-,6+,7+/m1/s1
