16
gdb 74236	2.66022	1.39026	0.99349	4.284	78.53	-0.2366	-0.0052	0.2314	1186.8233	0.12345	-396.922287	-396.913455	-396.91251	-396.956017	32.47	
C	-0.051162689	 1.4942097454	 0.0320273066	-0.492846
C	 0.0067330623	 0.0038589175	-0.0245560703	 0.373318
N	 0.0255045406	-0.6894063542	-1.0987465964	-0.280761
C	 0.0814849551	-2.1094936323	-0.6810018183	-0.231455
C	 1.2339924629	-2.8015911102	-1.2442061805	 0.380319
C	 2.1854307333	-3.3689117825	-1.706530346	-0.473573
C	 0.084502112	-2.0958527601	 0.8640892118	 0.378252
N	 0.1047993584	-3.1133080194	 1.6169394507	-0.534209
N	 0.0353603673	-0.7367624154	 1.1583952568	-0.376423
H	 0.8193321269	 1.897218337	 0.5615495592	 0.142099
H	-0.0669889496	 1.8901296899	-0.9830195902	 0.165282
H	-0.9477092019	 1.8306757572	 0.5642833951	 0.141069
H	-0.8360264156	-2.6091255754	-1.0195185809	 0.144233
H	 3.0239907771	-3.8765106659	-2.1145914218	 0.19938
H	 0.0885810967	-2.8613754251	 2.6064685417	 0.20913
H	 0.0510151336	-0.3519318065	 2.0880766324	 0.256183
65.4676	128.6233	137.1203	155.1592	284.2392	296.0406	356.9088	394.7369	453.8376	525.1692	604.2006	613.0345	626.4756	649.5801	672.018	730.5456	851.8853	889.6068	958.9287	989.43	1020.5884	1064.0924	1069.2603	1097.3188	1215.3517	1255.6614	1288.0027	1316.2216	1402.7604	1443.0392	1480.5147	1482.3954	1712.1455	1769.2127	2247.6754	3022.5772	3039.943	3095.4032	3162.5556	3458.1811	3505.7507	3656.8437
CC1=NC(C#C)C(=N)N1	CC1=N[C@@H](C#C)[C]([NH])N1	
InChI=1S/C6H7N3/c1-3-5-6(7)9-4(2)8-5/h1,5H,2H3,(H2,7,8,9)	InChI=1S/C6H7N3/c1-3-5-6(7)9-4(2)8-5/h1,5H,2H3,(H2,7,8,9)/t5-/m0/s1
