19
gdb 39066	2.6225	1.87565	1.2931	1.7506	80.33	-0.243	0.023	0.266	1013.4336	0.161359	-385.878845	-385.871696	-385.870752	-385.910198	29.284	
C	 0.2992435628	 1.5966324783	 0.44683126	-0.238956
C	 1.5403737572	 1.593917676	-0.502382745	-0.33302
C	 1.4508799733	 0.0725097189	-0.4649860637	 0.460712
O	 1.9719811969	-0.8890993648	-1.3551043733	-0.306974
C	 2.4120699985	-0.9173862941	 0.0211468291	-0.069112
C	 1.9297164612	-2.0621224093	 0.8907826554	-0.288757
C	 0.5134188074	-1.9108509238	 1.3953962051	-0.056421
C	-0.3336933964	-0.9431340144	 1.0426119975	-0.07639
C	 0.0153913372	 0.1041956806	 0.0366256168	-0.115864
H	 0.5861351374	 1.6762549201	 1.497638811	 0.108564
H	-0.4864193807	 2.3219108071	 0.2313179415	 0.104359
H	 1.2942591228	 1.9879743553	-1.4931275637	 0.114132
H	 2.461160648	 2.0640364981	-0.1500903466	 0.105158
H	 3.4553616445	-0.6266674652	 0.1411079778	 0.092404
H	 2.036445604	-3.0087024182	 0.3420950823	 0.126977
H	 2.6037042473	-2.1499463271	 1.7539468035	 0.110744
H	 0.1912537137	-2.666478911	 2.1083260822	 0.087746
H	-1.3326398272	-0.9197436453	 1.4723665721	 0.086068
H	-0.6934394778	 0.0914706788	-0.8013215218	 0.088628
112.5313	210.8474	234.1301	350.9527	397.7132	465.4875	498.6246	531.5388	567.0631	695.9449	720.3492	792.8553	811.6638	836.7517	889.6718	906.0945	919.6488	960.9681	990.5171	1004.1561	1016.0667	1067.2045	1078.1222	1092.0011	1112.7075	1160.3885	1199.0967	1209.4071	1232.9694	1240.0856	1261.9585	1267.5042	1326.6771	1364.5566	1368.9629	1417.214	1458.4666	1478.6858	1484.4297	1515.1587	1716.9603	3008.6601	3023.9933	3033.9713	3058.0806	3074.9783	3110.7219	3112.3852	3135.641	3140.3515	3163.4966
C1CC23OC2CC=CC13	C1C[C@@]23O[C@@H]2CC=C[C@@H]13	
InChI=1S/C8H10O/c1-2-6-4-5-8(6)7(3-1)9-8/h1-2,6-7H,3-5H2	InChI=1S/C8H10O/c1-2-6-4-5-8(6)7(3-1)9-8/h1-2,6-7H,3-5H2/t6-,7+,8-/m0/s1
