25
gdb 85850	2.03	1.38396	1.27708	1.483	87.69	-0.2484	0.0674	0.3158	1230.3348	0.226415	-389.493347	-389.482688	-389.481744	-389.527462	42.068	
C	-0.8189830047	 1.402322483	 0.1553072417	-0.452178
C	-0.0861311663	 0.0736941986	-0.0313491315	 0.301083
C	-1.0495799236	-0.9436922129	-0.6583572661	-0.439239
C	 1.2586422462	 0.12695066	-0.8222045934	-0.322582
C	 1.8578296789	-0.8768122347	 0.1890392127	 0.135907
O	 3.2106121059	-0.7835046288	 0.5656315481	-0.438835
C	 0.7251591156	-0.5097548429	 1.2078284096	 0.251445
C	 1.1992169401	 0.5717010183	 2.1862432247	-0.458644
C	 0.1195405563	-1.669546348	 1.9966212238	-0.46256
H	-0.170917077	 2.1870463922	 0.5538460703	 0.108273
H	-1.2112454393	 1.7569796186	-0.8049729159	 0.11114
H	-1.6725301802	 1.2950195	 0.8354805636	 0.11076
H	-1.4304483997	-0.5573593534	-1.6106005174	 0.109647
H	-0.5701822801	-1.9047776199	-0.8658923689	 0.115063
H	-1.9121143565	-1.1341059347	-0.0103948005	 0.112598
H	 1.2387391408	-0.1618265398	-1.8767111042	 0.09473
H	 1.7396203708	 1.1083157999	-0.7431119766	 0.084758
H	 1.7341938926	-1.9067443704	-0.1584307855	 0.084287
H	 3.3913738069	 0.1299780849	 0.8092444527	 0.277839
H	 1.651897077	 1.4351543049	 1.6869064281	 0.101383
H	 0.3689207767	 0.9493837214	 2.7912945933	 0.117104
H	 1.9472620206	 0.1548665072	 2.8687603769	 0.120857
H	 0.8526079377	-2.0647352006	 2.7092390861	 0.117801
H	-0.7580316899	-1.3512765228	 2.5723448473	 0.108424
H	-0.1876564388	-2.4963129402	 1.3508379413	 0.110939
107.6988	182.1463	205.0285	220.0934	250.2889	255.6103	270.011	291.7668	322.1921	326.0828	351.87	360.9527	388.0188	428.1832	494.4991	537.8968	573.8072	668.7401	754.1945	832.9659	904.2447	935.5253	952.1071	957.2168	975.0767	989.131	1004.8629	1038.341	1061.5171	1111.7678	1164.3122	1178.398	1185.5433	1228.5061	1246.3358	1277.4284	1288.4859	1302.5019	1316.7688	1397.9423	1402.4702	1413.2229	1423.9649	1443.1643	1480.5097	1482.4674	1485.2308	1489.4546	1494.0277	1503.8244	1508.6263	1512.2228	1520.4183	3021.9882	3023.3144	3027.8768	3029.8416	3039.1766	3063.4009	3080.0738	3082.607	3089.106	3091.715	3095.5967	3100.6725	3103.9707	3110.2524	3111.3039	3816.1736
CC1(C)CC(O)C1(C)C	CC1(C)C[C@@H](O)C1(C)C	
InChI=1S/C8H16O/c1-7(2)5-6(9)8(7,3)4/h6,9H,5H2,1-4H3	InChI=1S/C8H16O/c1-7(2)5-6(9)8(7,3)4/h6,9H,5H2,1-4H3/t6-/m1/s1
