19
gdb 80604	2.79492	1.46051	1.23134	2.7168	74.74	-0.2478	-0.0134	0.2344	1087.1776	0.159077	-423.020094	-423.011838	-423.010894	-423.052698	31.926	
C	-0.094742468	 1.5385689094	-0.1161273726	-0.413275
C	 0.0294392583	 0.0183743799	-0.0178554902	-0.006498
C	 0.949872476	-0.5734226915	-1.1100402905	-0.060377
O	 2.2912249956	-0.3488501683	-0.5589315335	-0.293504
C	 1.9199091786	-1.3052576169	 0.490253637	-0.060377
C	 0.7967647262	-0.5605259171	 1.2480196627	-0.006498
C	 1.3406214979	 0.4556746179	 2.2518255351	-0.413275
C	 1.1568589743	-2.0283554314	-0.6393816497	 0.457403
O	 0.983995776	-3.1352477332	-1.0407939558	-0.318122
H	 0.8877148078	 2.0157289861	-0.1598201536	 0.13472
H	-0.6436730456	 1.8141902264	-1.0226552166	 0.115878
H	-0.6392236271	 1.9541716635	 0.7367062612	 0.119839
H	-0.9685719912	-0.428468595	-0.0858911129	 0.087488
H	 0.8299793196	-0.2664051859	-2.1478476315	 0.099337
H	 2.7619019731	-1.7239265221	 1.0392915861	 0.099337
H	 0.1591251689	-1.2792471053	 1.7744980957	 0.087488
H	 2.0665343342	 1.12638153	 1.7849039347	 0.13472
H	 0.5402834959	 1.0643069971	 2.682565059	 0.119839
H	 1.8415683597	-0.0607729433	 3.0773065156	 0.115878
104.8062	134.8196	226.4332	263.7578	276.3816	281.0446	292.0957	461.6278	510.9416	520.1654	662.1932	708.8101	732.0208	769.4927	840.3529	870.7928	872.0748	922.7023	998.554	1018.384	1039.4839	1047.6365	1067.3981	1067.8332	1120.971	1135.5739	1184.9466	1223.4709	1225.9763	1237.5983	1295.0328	1311.5296	1364.519	1370.8898	1403.9653	1415.1416	1486.1393	1496.7096	1508.0919	1515.1479	1925.0511	3036.853	3039.4241	3042.7871	3053.7029	3101.4037	3106.5366	3119.678	3128.363	3142.1822	3145.274
CC1C2OC(C1C)C2=O	C[C@H]1[C@H]2O[C@@H]([C@H]1C)C2=O	
InChI=1S/C7H10O2/c1-3-4(2)7-5(8)6(3)9-7/h3-4,6-7H,1-2H3	InChI=1S/C7H10O2/c1-3-4(2)7-5(8)6(3)9-7/h3-4,6-7H,1-2H3/t3-,4+,6-,7+
