21
gdb 107384	3.78735	1.04593	0.93429	1.3985	85.05	-0.2188	0.024	0.2428	1336.0087	0.182471	-387.092201	-387.083167	-387.082223	-387.125703	34.846	
C	-0.064703332	 1.5255337863	 0.4966505966	-0.486814
C	-0.0614193107	 0.0726651266	 0.1408674792	 0.31788
C	-0.2264519549	-0.4678020978	-1.0721733013	-0.264731
C	-0.0934915621	-1.9575333098	-1.0642324451	 0.316411
C	-1.010848883	-2.7802069892	-1.9483878393	-0.175692
O	-0.825498396	-4.1816399943	-1.82124817	-0.41184
C	 1.2893245028	-2.4494365697	-0.6762062079	-0.333958
C	 0.2186230241	-2.2997642867	 0.3807606588	-0.073337
C	 0.1680427302	-1.0059662288	 1.188498874	-0.323234
H	 0.9036033214	 1.8395852475	 0.9074915008	 0.124231
H	-0.2812322482	 2.153636561	-0.3719648845	 0.122021
H	-0.8131344299	 1.742933055	 1.269953113	 0.123073
H	-0.4075624636	 0.0970162128	-1.9816942577	 0.081085
H	-2.0538035716	-2.5925330855	-1.6672684144	 0.113261
H	-0.8999227357	-2.4604542641	-2.9977051941	 0.085704
H	 0.0070393796	-4.4060815618	-2.2476551649	 0.285015
H	 1.5588400168	-3.4710133793	-0.92711376	 0.093583
H	 2.1120971109	-1.7421850928	-0.7110099934	 0.105043
H	-0.1703366712	-3.2147945375	 0.8110714471	 0.094315
H	 1.0883566258	-0.828104395	 1.7616907881	 0.104348
H	-0.6492485527	-1.0174777869	 1.923622125	 0.103634
78.1134	136.3207	176.7648	213.4665	226.4716	304.3257	313.2516	377.9124	410.4326	431.6159	491.017	612.4347	645.07	751.9877	812.5425	846.2895	862.1062	871.5744	927.5449	953.5458	992.2631	1018.1056	1022.3341	1054.4972	1066.2936	1076.5881	1090.6331	1102.7628	1165.791	1195.836	1223.4094	1230.8318	1276.0841	1314.3337	1335.2045	1391.3831	1392.6668	1413.4654	1418.9696	1470.3226	1478.2964	1481.7133	1491.2151	1503.8787	1706.9286	2966.2423	3003.8903	3014.2922	3030.6517	3054.3348	3057.7068	3107.4115	3115.7643	3175.1498	3183.424	3204.0079	3826.0988
CC1=CC2(CO)CC2C1	CC1=C[C@@]2(CO)C[C@H]2C1	
InChI=1S/C8H12O/c1-6-2-7-4-8(7,3-6)5-9/h3,7,9H,2,4-5H2,1H3	InChI=1S/C8H12O/c1-6-2-7-4-8(7,3-6)5-9/h3,7,9H,2,4-5H2,1H3/t7-,8+/m1/s1
