19
gdb 102744	2.97177	0.89549	0.76154	4.3213	76.91	-0.2513	0.0295	0.2808	1516.6897	0.158575	-419.179497	-419.169858	-419.168913	-419.215038	34.207	
O	 0.0633427141	 1.365934473	-0.1346041574	-0.415824
C	 0.0658001557	-0.0340242052	 0.0059375357	-0.068643
C	-1.3605797029	-0.6383543679	 0.0039709228	-0.164209
C	-1.3365749421	-2.1738763582	 0.1077905762	-0.158145
N	-2.678337127	-2.7186191887	-0.0019354229	-0.056018
C	-3.1416264628	-3.0517042303	-1.3468200707	-0.224053
C	-2.7804527954	-4.1231395058	-0.3774963995	-0.22028
C	-2.1290009435	-0.0303969076	 1.0936566883	 0.28147
N	-2.6612568081	 0.5098686379	 1.9664168904	-0.331904
H	-0.3616492675	 1.7445490647	 0.6441125317	 0.299816
H	 0.610545017	-0.4306530647	-0.8562048787	 0.120312
H	 0.5934197123	-0.3580295662	 0.9159995178	 0.10661
H	-1.8427828845	-0.3530007011	-0.938747084	 0.136224
H	-0.6558201403	-2.558467014	-0.6738098376	 0.08955
H	-0.922865538	-2.4704003165	 1.0781136767	 0.124133
H	-4.1816108638	-2.8227834001	-1.5579030736	 0.128678
H	-2.4580332709	-2.8864867875	-2.1789956467	 0.111247
H	-1.8576925686	-4.6703779594	-0.565131102	 0.11305
H	-3.5516738736	-4.6916527026	 0.1333470134	 0.127987
53.7515	73.4569	104.5725	137.6463	164.1495	247.1342	311.6295	329.0279	396.2725	407.0052	445.0348	563.1373	635.0757	768.4726	792.8445	837.2416	901.667	932.958	1023.2665	1027.4433	1061.0487	1079.5283	1088.095	1110.0981	1116.6814	1121.9629	1172.3195	1187.0652	1209.0776	1258.989	1286.0894	1327.4848	1370.455	1386.2322	1398.564	1425.9773	1486.4195	1494.9105	1505.8108	1522.8838	2352.6918	2934.3543	2991.1293	3046.8219	3066.8126	3087.0249	3093.0629	3099.5905	3183.0204	3196.6586	3793.6895
OCC(CN1CC1)C#N	OC[C@@H](CN1CC1)C#N	
InChI=1S/C6H10N2O/c7-3-6(5-9)4-8-1-2-8/h6,9H,1-2,4-5H2	InChI=1S/C6H10N2O/c7-3-6(5-9)4-8-1-2-8/h6,9H,1-2,4-5H2/t6-/m1/s1
