18
gdb 68057	2.05963	1.83991	1.1682	4.7904	77.46	-0.2551	0.0202	0.2752	1098.7472	0.145521	-401.915965	-401.907144	-401.9062	-401.949045	33.34	
C	 0.0428020376	 1.4450753734	 0.1242482685	-0.514493
C	-0.0128637724	-0.0356606931	-0.064667947	 0.402123
C	 0.5872721939	-0.9442447161	-1.167428273	-0.307514
C	 0.042428746	-1.8461954058	-0.0310052878	 0.402043
C	 0.1880782348	-3.3127255352	 0.2127408052	-0.514456
O	 0.6355925946	-0.9034594238	 0.9484186957	-0.358423
C	-1.2623986991	-0.9793688219	-0.0176953542	-0.244713
C	-2.0556041977	-0.9809706387	 1.1971045347	 0.280124
N	-2.7182240964	-0.9834771112	 2.1444661384	-0.330509
H	 1.083084086	 1.781689758	 0.1554211857	 0.14187
H	-0.463516367	 1.9533147388	-0.7019446835	 0.132319
H	-0.4452257117	 1.7277644016	 1.0613860177	 0.154025
H	 0.0973482226	-0.977329604	-2.1442615779	 0.098871
H	 1.6750390996	-0.9121994661	-1.2336436964	 0.11554
H	 1.2469138243	-3.5840417241	 0.2542032311	 0.141852
H	-0.2819716433	-3.5893643406	 1.1608105441	 0.154034
H	-0.2862895695	-3.881270656	-0.5928576159	 0.132324
H	-1.8931854124	-1.0152444951	-0.9096624952	 0.114982
111.3405	152.5091	193.464	195.6616	221.4677	235.3933	353.3211	379.2877	425.6547	492.7052	537.4585	596.0628	661.9351	675.5718	732.3014	762.8836	862.4173	904.0526	940.6928	1010.2404	1023.5818	1048.1467	1069.8999	1120.2742	1148.4096	1155.5099	1173.5778	1208.0354	1262.5973	1337.4562	1384.7461	1412.2074	1427.1515	1475.1893	1476.6419	1486.4859	1487.6877	1505.1975	2357.1493	3044.0975	3044.201	3060.9651	3084.8874	3119.9321	3120.1247	3123.3614	3123.474	3150.7398
CC12CC(C)(O1)C2C#N	C[C@@]12C[C@@](C)(O1)[C@H]2C#N	
InChI=1S/C7H9NO/c1-6-4-7(2,9-6)5(6)3-8/h5H,4H2,1-2H3	InChI=1S/C7H9NO/c1-6-4-7(2,9-6)5(6)3-8/h5H,4H2,1-2H3/t5-,6-,7+
