20
gdb 59694	2.14346	1.50915	0.99572	5.0486	80.33	-0.2249	0.0166	0.2414	1233.7513	0.170877	-399.29321	-399.283643	-399.282699	-399.328434	34.627	
C	 0.0189969121	 1.4227503244	-0.1516020455	-0.321037
N	 0.0355147064	-0.0261887645	 0.0151101073	-0.058464
C	 0.780961344	-0.3850578417	 1.2184748973	-0.332918
C	-1.2978369391	-0.5808892673	 0.0294401416	 0.049871
C	-2.152038936	-0.3845942981	-1.2525490383	-0.195969
N	-2.1341448481	-1.8420318108	-1.5131999492	-0.298313
C	-1.4428739419	-2.1276421123	-0.2385485667	-0.169765
C	-0.2325865401	-2.9371134409	-0.4081964915	 0.33495
N	 0.7009486931	-3.6087046917	-0.5246120499	-0.341476
H	 1.0482819426	 1.7876671532	-0.2113387952	 0.127866
H	-0.4891190521	 1.7017903899	-1.0774763281	 0.124418
H	-0.4784533162	 1.946394091	 0.6874012605	 0.09266
H	 0.3267384584	 0.0336841339	 2.1371608103	 0.089696
H	 0.8416163037	-1.4695439931	 1.3240787197	 0.141732
H	 1.8020235014	-0.0017538242	 1.139268245	 0.126785
H	-1.8499964082	-0.3012154042	 0.9454687702	 0.06177
H	-3.1401373492	 0.0471959209	-1.0584805092	 0.104044
H	-1.6696977	 0.1830038713	-2.0535489557	 0.121116
H	-3.0383712732	-2.2866639165	-1.6075401002	 0.230464
H	-2.0609082475	-2.6129819893	 0.5271504975	 0.112571
27.9124	88.8752	137.6704	216.2561	235.8448	244.611	251.7477	321.6366	364.4502	406.3052	466.223	552.9599	565.814	667.2807	749.209	825.4117	912.1347	960.1493	978.774	1029.3317	1052.9354	1067.1171	1094.618	1120.6031	1123.8947	1152.634	1182.9348	1225.1053	1240.87	1289.6776	1316.759	1328.2811	1347.2378	1386.4468	1400.2755	1445.387	1480.9892	1485.9683	1493.5848	1501.8713	1509.6633	1512.4817	2354.0892	2915.4055	2921.2101	2932.0391	3023.2206	3034.8641	3075.8026	3083.3664	3084.4772	3122.8868	3136.0039	3561.0878
CN(C)C1CNC1C#N	CN(C)[C@H]1CN[C@H]1C#N	
InChI=1S/C6H11N3/c1-9(2)6-4-8-5(6)3-7/h5-6,8H,4H2,1-2H3	InChI=1S/C6H11N3/c1-9(2)6-4-8-5(6)3-7/h5-6,8H,4H2,1-2H3/t5-,6-/m0/s1
