21
gdb 10523	2.78488	1.38988	1.0875	2.189	74.53	-0.2459	0.0658	0.3117	1186.9501	0.188419	-366.239046	-366.229719	-366.228775	-366.273319	34.173	
C	-1.7113590824	 1.7442983477	 0.8746057476	-0.380759
C	-1.0828123066	 0.4085527457	 0.4700755109	-0.166109
C	-2.1232286268	-0.7181241404	 0.3625051254	-0.269293
C	-1.5588880747	-2.0752319276	-0.0241476829	 0.314491
C	-0.5722882953	-2.7231998022	 0.939626807	-0.111439
O	 0.7278467537	-2.176854578	 0.8046140501	-0.415704
C	-2.358361244	-2.9569775587	-0.913048478	-0.289513
N	-1.1412555125	-2.2986336643	-1.4279904699	-0.360362
H	-0.9580477892	 2.5356270073	 0.9363053107	 0.113696
H	-2.4715817525	 2.0640862258	 0.152423635	 0.10891
H	-2.1984879307	 1.672846117	 1.8537726458	 0.113502
H	-0.5724008752	 0.5201394539	-0.4956217015	 0.089107
H	-0.3042849998	 0.1220083583	 1.1828765248	 0.127396
H	-2.6492312892	-0.8166054941	 1.3225310113	 0.099903
H	-2.8893846226	-0.4318333453	-0.3718031865	 0.084253
H	-0.8791866357	-2.5526822602	 1.9770308311	 0.10405
H	-0.5583652202	-3.8103828491	 0.7697066479	 0.08824
H	 0.9208452636	-2.2234403261	-0.1408511712	 0.290333
H	-2.2881628503	-4.0374701958	-0.8201589955	 0.117574
H	-3.3245809508	-2.5966167931	-1.2568200798	 0.111078
H	-1.4013670487	-1.4966801808	-1.9974202623	 0.230647
76.2134	85.2362	106.5523	158.1547	241.5554	263.1255	299.9058	357.1098	358.0289	460.547	487.6265	553.7877	742.7866	751.1065	864.6617	882.7092	896.4962	916.4951	950.0505	979.4006	992.936	1044.4528	1070.5291	1072.91	1114.2328	1125.0691	1149.9753	1206.503	1251.1564	1264.54	1305.6514	1324.4392	1352.6549	1369.7037	1390.5272	1408.7423	1415.4051	1438.2936	1474.413	1491.5963	1499.0418	1501.001	1511.0319	1515.2878	2986.88	2999.1566	3022.2861	3026.2569	3037.0464	3072.7487	3078.7686	3100.834	3104.5747	3105.838	3189.7165	3491.8208	3768.612
CCCC1(CO)CN1	CCC[C@@]1(CO)CN1	
InChI=1S/C6H13NO/c1-2-3-6(5-8)4-7-6/h7-8H,2-5H2,1H3	InChI=1S/C6H13NO/c1-2-3-6(5-8)4-7-6/h7-8H,2-5H2,1H3/t6-/m0/s1
