16
gdb 87618	2.76204	1.58905	1.1787	4.4794	73.4	-0.2224	-0.0155	0.2069	1034.4416	0.125357	-434.072327	-434.064441	-434.063497	-434.104598	30.328	
O	 0.0130075771	 1.3714972693	-0.0487316762	-0.429502
C	 0.047643001	-0.0122307737	 0.0209425153	 0.109216
C	-0.3694671588	-0.7448057891	 1.250496724	-0.357827
C	-1.2829830211	-0.7657844348	 0.0279875579	 0.245339
N	-2.4698954148	 0.0490464719	 0.0129605476	-0.323622
C	-3.3121276279	-0.5991739994	-0.7033563707	 0.046891
N	-2.8561995596	-1.8107323948	-1.1936173022	-0.360863
C	-1.5329494383	-2.0015796093	-0.7656270505	 0.322478
N	-0.7196147578	-2.9583131406	-0.9664034727	-0.563422
H	-0.9120679437	 1.6338375299	 0.0578985211	 0.298736
H	 0.8337771318	-0.4464446653	-0.5891550963	 0.128849
H	 0.1149156523	-1.6886502606	 1.4775763911	 0.142963
H	-0.7251818513	-0.1624752865	 2.092953501	 0.129289
H	-4.3142666113	-0.2579010895	-0.936774433	 0.141276
H	-3.3776415552	-2.4456219717	-1.7743388174	 0.260679
H	-1.1206919324	-3.6978854657	-1.5426146789	 0.209522
109.8853	146.0345	197.7914	245.6218	330.2824	359.2451	406.8645	460.6101	519.8488	566.3011	655.97	687.9692	732.4266	821.3418	843.7611	871.4118	889.1118	919.6938	938.3994	1022.0502	1037.7242	1054.5911	1092.8157	1105.0207	1150.9902	1198.9346	1275.5942	1318.5936	1350.6115	1366.6341	1415.4786	1422.0411	1467.1216	1657.6127	1756.4277	3134.028	3166.66	3206.929	3237.5788	3478.663	3663.2797	3743.6015
OC1CC11N=CNC1=N	O[C@H]1C[C@]21N=CN[C]2[NH]	
InChI=1S/C5H7N3O/c6-4-5(1-3(5)9)8-2-7-4/h2-3,9H,1H2,(H2,6,7,8)	InChI=1S/C5H7N3O/c6-4-5(1-3(5)9)8-2-7-4/h2-3,9H,1H2,(H2,6,7,8)/t3-,5+/m0/s1
