17
gdb 71347	3.43852	1.52567	1.23605	1.3569	72.24	-0.2319	0.0852	0.3171	1017.0812	0.134288	-421.709238	-421.70186	-421.700916	-421.74081	29.42	
C	 0.0001497583	 1.4468929716	-0.0254810876	-0.527869
C	 0.0038690533	-0.0457924396	-0.0056265638	 0.499668
O	 0.570251863	-0.7869979998	-1.134128745	-0.366802
C	 0.1211931826	-1.8159833073	-0.2097601637	 0.099237
C	 0.564497121	-1.0486114575	 1.0766118767	-0.287634
C	-0.8218606231	-1.207761655	 1.6807204093	 0.512814
C	-1.384162432	-1.9052734415	 2.8273558167	-0.296606
O	-1.3594398684	-0.4603078067	 2.7510240171	-0.289904
C	-1.182212296	-1.0644870247	 0.2103867653	-0.287635
H	 1.0221113044	 1.8318039582	-0.0943495089	 0.136212
H	-0.5686542567	 1.8173155529	-0.8837088288	 0.136217
H	-0.4584668039	 1.8274685144	 0.8917685954	 0.148591
H	 0.2623395267	-2.8619219309	-0.4752071308	 0.101608
H	 1.5517586826	-1.0381548182	 1.535024071	 0.091713
H	-2.375265249	-2.3527040945	 2.7651707206	 0.119339
H	-0.7284091168	-2.3377361309	 3.5818818992	 0.119339
H	-2.1446691648	-1.0717566904	-0.2981015371	 0.091713
119.7432	204.0518	229.8987	301.4019	304.6669	360.0289	508.6065	565.7197	569.8409	672.3252	728.9783	773.0524	801.6512	812.8755	878.5198	886.1768	892.4184	958.3069	986.4935	995.2833	1089.8241	1097.0467	1108.2427	1108.7296	1115.5276	1139.9282	1140.6159	1166.4083	1203.1196	1224.7344	1278.8816	1362.9632	1415.9136	1469.0174	1475.2801	1490.4717	1559.4194	3041.4543	3082.4776	3114.1122	3123.8217	3132.7879	3139.015	3148.0423	3167.6858
CC12OC3C1C1(CO1)C23	C[C@@]12O[C@H]3[C@@H]1[C@]1(CO1)[C@@H]23	
InChI=1S/C7H8O2/c1-6-4-3(9-6)5(6)7(4)2-8-7/h3-5H,2H2,1H3	InChI=1S/C7H8O2/c1-6-4-3(9-6)5(6)7(4)2-8-7/h3-5H,2H2,1H3/t3-,4-,5+,6+,7+
