23
gdb 106775	2.01965	1.56476	1.09086	1.7426	86.	-0.2347	0.0863	0.3211	1257.505	0.203597	-388.278136	-388.268142	-388.267198	-388.312501	38.015	
C	 0.2461438003	-1.6832333189	 0.9650663196	-0.386822
C	-0.0089026975	-0.5326517654	-0.0133741566	-0.304924
C	 0.5511568692	-0.7332163106	-1.391943951	 0.359564
O	 1.8985700318	-1.2275233903	-1.5201007862	-0.33266
C	 0.8571452847	-1.8973711652	-2.2598073956	 0.341273
C	 0.73592939	-3.3820368272	-2.1257354054	-0.502571
C	 0.6514889061	-1.0598954701	-3.5318754428	-0.30298
C	 0.3262042624	 0.1778785788	-2.6234346964	-0.035861
C	-1.0822812026	 0.7348747035	-2.7909408361	-0.411525
H	-0.2964044958	-2.5864693813	 0.6701221826	 0.117247
H	 1.3111568607	-1.9241465312	 1.0048777903	 0.137609
H	-0.0856468758	-1.4114834263	 1.9713513167	 0.109873
H	-1.0853878258	-0.3399038142	-0.0987659261	 0.105504
H	 0.430023478	 0.3916511677	 0.3892514893	 0.108427
H	 0.8672435073	-3.6977342253	-1.0890876969	 0.134197
H	-0.2419737402	-3.7257409795	-2.4789765012	 0.119948
H	 1.502118763	-3.880217306	-2.7318368974	 0.127394
H	 1.5283506456	-0.985249497	-4.1804052528	 0.101236
H	-0.2138663414	-1.375527329	-4.1227395835	 0.095712
H	 1.0681607087	 0.9807552221	-2.6812445836	 0.074702
H	-1.8369626017	-0.0562459647	-2.707529123	 0.11103
H	-1.308228257	 1.492764436	-2.0330678725	 0.116058
H	-1.2010587599	 1.2020948343	-3.7742017113	 0.11757
81.4763	121.3375	162.9548	183.7378	218.1025	244.027	260.4265	283.9967	325.9101	381.3604	449.582	479.6462	511.4791	619.1556	655.083	721.7485	791.4598	827.6567	869.2663	893.8143	914.7846	974.984	980.835	1023.842	1060.7547	1081.0437	1122.944	1131.9082	1153.1562	1178.7962	1200.0461	1222.055	1234.4137	1289.3247	1304.8691	1345.7086	1385.0509	1406.2613	1408.1784	1409.5059	1461.3296	1478.4675	1479.669	1488.8139	1497.0117	1498.9357	1499.1653	1510.038	1521.2442	3008.5245	3023.7568	3031.9042	3044.7153	3049.99	3051.0781	3054.7003	3089.8375	3090.2963	3096.2398	3109.1373	3109.6777	3128.6002	3134.9137
CCC12OC1(C)CC2C	CC[C@@]12O[C@]1(C)C[C@H]2C	
InChI=1S/C8H14O/c1-4-8-6(2)5-7(8,3)9-8/h6H,4-5H2,1-3H3	InChI=1S/C8H14O/c1-4-8-6(2)5-7(8,3)9-8/h6H,4-5H2,1-3H3/t6-,7-,8+/m1/s1
