17
gdb 21032	3.74914	1.78686	1.23817	2.8923	71.47	-0.2385	0.0187	0.2572	993.7005	0.14234	-360.092552	-360.083851	-360.082907	-360.126775	29.694	
C	-0.1258970368	 1.3992613329	-0.0624087481	-0.324979
N	-0.0449284542	-0.0416800572	 0.0208928098	 0.005398
N	-0.1440493769	-0.7932609467	-1.1089119824	-0.3097
C	-0.0276613758	-2.0292149453	-0.6478488738	 0.338007
C	-0.0760547379	-3.2252061735	-1.5382118145	-0.482755
N	 0.1393835834	-2.1114668456	 0.7050650561	-0.350383
C	 0.1242353953	-0.8471887264	 1.0958891981	 0.34207
C	 0.2704324395	-0.3722836046	 2.5033632728	-0.505907
H	-0.026499471	 1.8234006923	 0.9374527442	 0.140941
H	 0.6745801561	 1.7870072985	-0.6983544183	 0.151518
H	-1.0877915941	 1.7002282394	-0.4863377922	 0.151526
H	 0.8500396778	-3.8037040098	-1.4609677469	 0.135942
H	-0.8969567944	-3.8897315505	-1.2504571036	 0.135942
H	-0.2162429862	-2.9171421838	-2.5757265761	 0.135738
H	 1.1457243982	 0.274332803	 2.6287973019	 0.137948
H	-0.6085364106	 0.188064478	 2.8401205685	 0.137946
H	 0.3909039276	-1.2435364307	 3.1477444246	 0.160749
31.3427	102.1625	112.3711	168.8463	209.2134	271.5059	277.2844	347.7792	484.9988	620.191	662.624	672.028	722.2012	810.5439	994.6569	1020.5922	1043.6874	1064.2465	1069.6147	1072.0142	1152.4969	1216.7507	1309.9452	1372.1522	1406.0615	1411.1125	1447.5282	1460.9732	1473.8185	1478.2466	1480.9403	1489.0085	1499.583	1518.1115	1553.9444	1570.7991	3036.9197	3044.512	3050.794	3089.4002	3099.5766	3114.4928	3142.0798	3150.2798	3152.4791
CN1N=C(C)N=C1C	Cn1nc(C)nc1C	
InChI=1S/C5H9N3/c1-4-6-5(2)8(3)7-4/h1-3H3	InChI=1S/C5H9N3/c1-4-6-5(2)8(3)7-4/h1-3H3
