13
gdb 12219	4.2226	1.52376	1.18886	4.4768	57.51	-0.2561	-0.0476	0.2085	944.2394	0.094346	-435.763251	-435.75549	-435.754546	-435.795928	26.4	
O	-0.0067535767	 1.4427945715	 0.1706635361	-0.421406
C	 0.0242201774	 0.0464623421	 0.0608546449	-0.015593
C	-1.3844255241	-0.5914866081	-0.0588799267	-0.193129
N	-0.9721707543	-1.1413166703	-1.3698689667	-0.137714
C	-1.6566896713	-1.9355433429	-2.2757045936	 0.155078
O	-1.2203699761	-2.3090698922	-3.3313100925	-0.262213
C	 0.2934661636	-0.5175226406	-1.3589939304	 0.408189
O	 1.1757706341	-0.4385319105	-2.1576321762	-0.315442
H	 0.8504676124	 1.781176214	-0.1128489568	 0.305362
H	 0.6536820831	-0.427006205	 0.8268534779	 0.107785
H	-1.6308657433	-1.3522640409	 0.6844257551	 0.132348
H	-2.1771834482	 0.1563027825	-0.129280532	 0.144524
H	-2.6679241865	-2.1897858194	-1.8989929291	 0.09221
67.9299	149.6475	176.3667	185.8324	206.3148	288.699	387.4695	490.4205	517.7045	691.4766	768.74	832.7952	900.4005	993.2182	1032.0176	1061.1888	1138.807	1149.0049	1179.1089	1211.2499	1271.9836	1311.0378	1363.8138	1410.5748	1436.1278	1507.1454	1810.3066	1916.0693	2932.9234	3015.0545	3071.4674	3133.2532	3805.0477
OC1CN(C=O)C1=O	O[C@H]1CN(C=O)C1=O	
InChI=1S/C4H5NO3/c6-2-5-1-3(7)4(5)8/h2-3,7H,1H2	InChI=1S/C4H5NO3/c6-2-5-1-3(7)4(5)8/h2-3,7H,1H2/t3-/m0/s1
