20
gdb 116659	3.05	0.70596	0.59493	5.6349	81.72	-0.2326	-0.0115	0.2211	1859.4171	0.166911	-440.285815	-440.274823	-440.273879	-440.323985	36.889	
C	 0.4241715246	 1.0265932614	-0.5986695701	-0.251545
O	-0.4518914839	 0.4373371768	 0.3551352898	-0.192653
C	-1.1799418298	-0.6071010077	-0.0897833034	 0.127485
N	-1.9848307313	-1.1831495812	 0.6851187994	-0.235217
C	-2.7800816106	-2.3239038258	 0.249279955	 0.04903
C	-2.5675820659	-2.8287533048	-1.184210671	-0.415535
C	-2.5587682011	-3.4699669882	 1.2659030396	-0.264485
C	-2.943322649	-3.0972597671	 2.6830549313	 0.154652
O	-3.6616628704	-3.769843273	 3.3807323977	-0.251381
H	 0.9323563351	 1.8430513116	-0.0846287255	 0.149251
H	 1.1721087273	 0.3084793082	-0.9566301392	 0.127331
H	-0.1275152907	 1.4314744869	-1.4558494248	 0.128014
H	-0.9914105979	-0.8658509879	-1.1395354797	 0.078415
H	-3.830632074	-2.010945287	 0.3391092275	 0.10203
H	-2.7741259388	-2.0481442834	-1.9234222036	 0.118535
H	-1.543453773	-3.1878942247	-1.337829549	 0.118218
H	-3.2461808571	-3.6619781521	-1.3871547843	 0.123482
H	-3.1252029102	-4.3612508064	 0.9816279246	 0.113578
H	-1.4891489245	-3.7250556015	 1.2628995924	 0.116941
H	-2.5103105188	-2.1427713443	 3.0444488636	 0.103855
39.3758	48.2612	64.3654	92.5737	147.6892	156.0948	203.7235	231.4154	287.091	336.853	394.1238	411.7332	514.6122	526.3539	582.8508	791.5457	867.95	939.6126	962.6767	991.2477	1021.0355	1059.3497	1115.7359	1122.024	1148.0058	1176.6671	1185.556	1230.6019	1277.0293	1293.1108	1344.8725	1371.1321	1397.5995	1414.6637	1422.6685	1453.7023	1484.9863	1493.9345	1495.2674	1500.5756	1502.0303	1775.5993	1824.5882	2937.9776	2995.0687	3011.7092	3017.103	3028.8486	3040.88	3076.8145	3097.6343	3100.027	3112.3969	3146.2256
COC=NC(C)CC=O	COC=N[C@@H](C)CC=O	
InChI=1S/C6H11NO2/c1-6(3-4-8)7-5-9-2/h4-6H,3H2,1-2H3	InChI=1S/C6H11NO2/c1-6(3-4-8)7-5-9-2/h4-6H,3H2,1-2H3/t6-/m0/s1
