14
gdb 124325	4.55119	1.1027	0.8925	0.4634	66.86	-0.2451	-0.0635	0.1815	1213.1154	0.100476	-470.030945	-470.022899	-470.021955	-470.064042	28.914	
C	 0.0009515095	 1.5085886738	-0.1059078197	-0.487285
C	-0.0006173341	 0.01429029	 0.0718814437	 0.43776
O	 0.012791894	-0.5709332973	 1.1225838352	-0.296958
N	-0.0202429535	-0.7420550057	-1.1372733086	-0.005364
C	-0.0258092172	-2.1083545804	-1.254282708	-0.17623
C	-0.0458630926	-2.3026129272	-2.6081706646	 0.373195
O	-0.0588904025	-3.4582481202	-3.2879439035	-0.418035
N	-0.0516564612	-1.0920342492	-3.2433510894	-0.266996
N	-0.0361759394	-0.1480169715	-2.3545033754	-0.139888
H	 0.8705804428	 1.8241448317	-0.687620274	 0.169362
H	-0.8829963976	 1.8289900752	-0.6628538175	 0.169376
H	 0.0161963546	 1.9665145126	 0.8823108477	 0.151038
H	-0.0153327314	-2.760239835	-0.4011977318	 0.176931
H	-0.0718540413	-3.2345819366	-4.2275735242	 0.313093
80.3685	117.1226	135.8881	188.6924	354.7638	357.2259	387.3525	427.4319	529.9976	585.7807	624.529	665.7174	725.7374	753.2746	790.6205	958.0143	1023.0978	1037.5105	1059.936	1088.3818	1189.2047	1222.2941	1290.1059	1306.7601	1392.87	1408.5084	1457.7921	1467.9859	1477.7078	1675.5392	1835.1903	3066.1604	3133.8953	3174.0816	3323.2854	3791.0845
CC(=O)N1C=C(O)N=N1	CC(=O)n1cc(O)nn1	
InChI=1S/C4H5N3O2/c1-3(8)7-2-4(9)5-6-7/h2,9H,1H3	InChI=1S/C4H5N3O2/c1-3(8)7-2-4(9)5-6-7/h2,9H,1H3
