19
gdb 108524	2.69423	1.49639	1.21584	1.9505	70.17	-0.2539	0.0721	0.326	1077.4974	0.160244	-460.146294	-460.138182	-460.137238	-460.179166	30.969	
O	 0.0291557127	 1.4267005856	 0.1385992728	-0.421146
C	 0.0704685526	 0.0164814496	 0.0204951701	-0.134734
C	-1.3257321797	-0.5647814805	-0.0301667157	 0.343102
C	-2.1729525253	-0.5738570696	 1.2638006371	-0.125164
O	-2.4216114813	-1.9941945039	 1.1335972412	-0.300914
C	-1.5897509236	-2.0931094721	-0.0440257225	 0.055023
C	-2.3814039973	-2.3366929741	-1.3251683188	-0.243635
C	-2.9724393018	-0.9473711174	-1.6107722331	-0.095962
O	-1.9786818916	-0.0189764879	-1.1683074097	-0.31711
H	-0.5314619535	 1.7393440119	-0.5812450323	 0.294884
H	 0.622825822	-0.3006551925	-0.8786071629	 0.089616
H	 0.6056125031	-0.3606116968	 0.8975831654	 0.110923
H	-1.6221987977	-0.3358900253	 2.1810087192	 0.10853
H	-3.0941469996	 0.0179718831	 1.2248563449	 0.107794
H	-0.7494055285	-2.7787042203	 0.1052583767	 0.077147
H	-1.6998997799	-2.6403831183	-2.1269923842	 0.109152
H	-3.1411883591	-3.1108720189	-1.1956199576	 0.119395
H	-3.163122254	-0.7504584829	-2.6681339386	 0.113859
H	-3.9087957575	-0.8029245598	-1.0542811218	 0.109239
81.2413	129.748	164.9987	214.5249	313.6544	341.846	413.4296	441.7268	457.1402	631.2942	651.5947	701.2826	835.3297	890.4817	898.3584	911.8273	929.3082	967.3044	1007.7851	1022.4755	1045.9628	1065.7181	1091.2434	1110.9408	1137.1556	1148.7259	1171.0901	1222.3104	1253.6511	1271.9416	1285.5491	1314.0744	1338.7734	1367.5273	1380.0932	1387.7483	1438.8875	1466.7468	1495.6002	1510.6829	1519.345	2978.7976	3012.2392	3025.7401	3048.7734	3063.4078	3075.6742	3083.7691	3104.2705	3119.0274	3798.379
OCC12COC1CCO2	OC[C@]12CO[C@H]1CCO2	
InChI=1S/C6H10O3/c7-3-6-4-8-5(6)1-2-9-6/h5,7H,1-4H2	InChI=1S/C6H10O3/c7-3-6-4-8-5(6)1-2-9-6/h5,7H,1-4H2/t5-,6-/m0/s1
