22
gdb 76376	2.34214	1.15824	1.12579	3.3207	83.62	-0.2394	0.0366	0.276	1288.0311	0.192346	-404.386454	-404.37561	-404.374666	-404.421981	39.759	
C	-0.1463268636	 1.0298267312	-1.93575467	-0.423059
C	-0.0337368631	-0.1767153259	-1.0299465694	-0.035601
C	 1.2445511632	-0.6328030311	-0.3902433279	-0.034663
C	 2.577840926	 0.0584666541	-0.5736140071	-0.42325
C	 0.1279090949	-0.0587448262	 0.4909148441	 0.177865
C	 0.2842991172	 1.2991028931	 1.1497886665	-0.504965
C	-0.630858589	-1.1217786203	 1.2469796811	 0.374074
N	-1.1125408498	-0.7725572105	 2.4779887058	-0.549877
O	-0.7988022036	-2.2457688345	 0.8000601707	-0.384102
H	 0.5377421426	 1.8391773115	-1.6696262407	 0.112578
H	 0.0763688589	 0.7456034942	-2.9702456393	 0.122922
H	-1.1626832322	 1.438724991	-1.920573007	 0.118956
H	-0.6931384796	-0.9947035745	-1.3053899861	 0.109292
H	 1.3184252131	-1.712333023	-0.2975052585	 0.110196
H	 2.4917361148	 1.139374503	-0.7076874252	 0.112575
H	 3.2334207923	-0.1170389161	 0.2864617081	 0.119917
H	 3.0872417398	-0.3371338007	-1.4593596814	 0.122705
H	 0.8640525723	 1.9892857916	 0.5360594071	 0.123127
H	-0.6876901855	 1.7773086621	 1.3239185197	 0.117079
H	 0.8028633439	 1.2193341792	 2.1124563325	 0.122008
H	-1.095094267	 0.1688475709	 2.8242888134	 0.25519
H	-1.6826996257	-1.4514734089	 2.9546772337	 0.257032
56.7151	132.9776	146.5871	163.7868	176.2347	203.4251	218.0311	236.6822	269.7076	336.547	375.2938	429.2762	462.8573	534.7165	573.7066	586.854	676.7795	719.591	792.9915	825.8102	907.2042	960.6868	1026.7352	1032.947	1041.2501	1081.7884	1096.8177	1113.4525	1144.8366	1151.7189	1196.5098	1233.2911	1313.2767	1364.4706	1368.9921	1412.7878	1418.245	1431.5761	1442.8594	1483.0544	1494.4768	1499.4317	1503.7955	1508.4919	1525.2272	1613.9172	1765.6687	3020.9123	3032.5079	3035.8385	3073.5428	3087.6618	3088.8827	3109.5322	3116.1675	3137.3915	3152.7253	3159.7201	3612.7013	3750.3078
CC1C(C)C1(C)C(N)=O	C[C@H]1[C@@H](C)[C@]1(C)C(=O)N	
InChI=1S/C7H13NO/c1-4-5(2)7(4,3)6(8)9/h4-5H,1-3H3,(H2,8,9)	InChI=1S/C7H13NO/c1-4-5(2)7(4,3)6(8)9/h4-5H,1-3H3,(H2,8,9)/t4-,5+,7+
