20
gdb 115108	2.75163	1.37012	1.08889	2.0475	75.92	-0.25	0.0244	0.2744	1181.374	0.17123	-440.297431	-440.288333	-440.287389	-440.331314	33.302	
C	-0.0150242554	 1.3810895355	-0.0801376909	-0.246116
O	-0.0101442292	-0.0386105329	-0.0590667479	-0.239292
C	-1.2592287011	-0.6167052654	 0.0220198702	 0.248426
O	-1.9752653981	-0.3217888035	-1.2005940699	-0.252205
C	-3.0174193442	-1.1395433479	-1.4976433976	 0.127655
N	-3.3806764013	-2.2067028116	-0.9281162967	-0.261716
C	-2.5761360085	-2.6896720547	 0.1922245662	-0.171178
C	-1.142707689	-2.1255466512	 0.2218613149	-0.068976
C	-0.2325150754	-2.7821250501	-0.8243805703	-0.391673
H	 1.0288673798	 1.698954234	-0.0551555679	 0.132712
H	-0.4930316701	 1.7667110816	-0.9866439066	 0.134555
H	-0.5362121466	 1.7874427358	 0.7989613098	 0.110389
H	-1.8453274861	-0.1590297273	 0.8380491269	 0.071789
H	-3.5582712562	-0.7525575121	-2.3596394878	 0.12327
H	-3.1069129337	-2.4512156871	 1.1237582824	 0.109257
H	-2.5416823748	-3.7832736799	 0.1359186303	 0.112415
H	-0.7132538834	-2.284310136	 1.2176819416	 0.085127
H	-0.6509356899	-2.693788499	-1.8309478478	 0.131183
H	 0.7550956671	-2.3171030891	-0.8262494644	 0.133299
H	-0.116405554	-3.8472765792	-0.6028973445	 0.111077
102.9709	109.0386	149.8571	170.2064	198.4004	206.7106	320.9832	353.0968	402.0454	474.3284	520.2399	578.6737	665.399	820.9576	860.8333	885.5118	936.4653	943.358	970.7066	982.8507	1038.4077	1096.0545	1117.8224	1135.5653	1149.8794	1180.2285	1191.02	1241.8085	1263.6484	1299.1568	1350.5063	1375.6205	1387.4059	1403.679	1408.4411	1424.2414	1481.5351	1484.4924	1485.808	1497.3701	1506.1605	1511.396	1736.3046	2949.7989	3000.4043	3015.4415	3045.6437	3049.392	3059.7105	3079.3652	3115.8468	3133.8497	3136.7552	3155.8742
COC1OC=NCC1C	CO[C@H]1OC=NC[C@H]1C	
InChI=1S/C6H11NO2/c1-5-3-7-4-9-6(5)8-2/h4-6H,3H2,1-2H3	InChI=1S/C6H11NO2/c1-5-3-7-4-9-6(5)8-2/h4-6H,3H2,1-2H3/t5-,6+/m1/s1
