16
gdb 25612	4.26918	0.89574	0.80256	4.2912	71.95	-0.2175	0.0109	0.2284	1383.1286	0.125265	-437.938411	-437.930157	-437.929212	-437.973024	29.45	
O	 0.4084202825	 0.2980141599	 0.8131210015	-0.279168
C	 0.5824250416	 1.289816859	 0.1703689477	 0.176554
O	 0.4687147139	 2.5249734737	 0.6929951396	-0.172999
C	 0.79449406	 3.6249338385	-0.1748120429	-0.215284
C	 2.2575048313	 3.9412392947	-0.1463411203	 0.25266
C	 3.1565080318	 3.5461151926	 0.8199752799	-0.164148
N	 4.380148805	 4.0676140089	 0.4890133405	-0.234475
C	 4.2825121373	 4.7909326568	-0.670887804	-0.065797
C	 2.9754246924	 4.7319213969	-1.0919678923	-0.256957
H	 0.8363821727	 1.3008266728	-0.9076003478	 0.080642
H	 0.4588802966	 3.4046637247	-1.1975049636	 0.116081
H	 0.1840747395	 4.4558305482	 0.1928578126	 0.135937
H	 3.0185606127	 2.9414006459	 1.7006329096	 0.141523
H	 5.2270227729	 3.9195357864	 1.0090307223	 0.266249
H	 5.14411662	 5.2761159754	-1.1001124618	 0.124405
H	 2.5743234997	 5.2002799258	-1.9781955511	 0.094776
30.9099	54.6081	139.1765	215.7718	245.9496	347.8276	405.4743	495.0499	634.175	640.4981	669.9133	699.9375	722.1624	783.9723	825.8373	907.2715	974.3591	1005.908	1037.7245	1054.7377	1088.1908	1096.8276	1151.732	1167.5938	1252.6907	1299.6821	1310.2677	1381.8495	1422.6399	1438.4513	1467.3931	1501.3884	1523.2471	1612.5338	1865.1937	2949.709	3013.7377	3070.7848	3243.0272	3271.2476	3278.6707	3686.918
O=COCC1=CNC=C1	O=COCc1c[nH]cc1	
InChI=1S/C6H7NO2/c8-5-9-4-6-1-2-7-3-6/h1-3,5,7H,4H2	InChI=1S/C6H7NO2/c8-5-9-4-6-1-2-7-3-6/h1-3,5,7H,4H2
