18
gdb 98349	2.59749	0.96736	0.74136	3.8875	71.81	-0.2704	-0.0388	0.2316	1497.7055	0.143959	-476.230272	-476.219993	-476.219049	-476.26718	35.365	
C	 1.3172910073	 1.5145393749	-0.443377941	-0.392337
C	 0.3097841976	 0.4465626107	-0.0229189936	 0.009639
O	 0.3867632045	-0.7044216286	-0.8633586802	-0.191943
C	-0.4244619006	-0.7451990314	-1.9438854608	 0.131218
N	-0.32229358	-1.690526483	-2.7694689173	-0.435956
C	 0.5282942947	 0.0003599657	 1.4225310153	 0.332049
O	 0.6680836776	 0.8210831889	 2.3037528192	-0.330079
C	 0.5507448826	-1.4803703108	 1.7511597529	-0.128087
O	 0.7126206055	-1.6869696349	 3.1221077833	-0.422907
H	 2.3242688401	 1.0899449465	-0.4771964718	 0.142888
H	 1.070887122	 1.9024112281	-1.4352614336	 0.126187
H	 1.3017430814	 2.3334949324	 0.278475444	 0.152881
H	-0.7093010855	 0.8617565831	-0.0610562268	 0.118007
H	-1.1352484178	 0.0924395222	-1.9843786916	 0.091657
H	-1.0138025496	-1.5878673605	-3.5090153272	 0.235675
H	-0.3818273942	-1.9337778008	 1.3786061457	 0.126903
H	 1.3576007805	-1.9479630564	 1.1652747995	 0.139586
H	 0.7922237139	-0.8018782162	 3.5109384538	 0.294619
36.5026	43.3441	103.4927	123.3776	159.9242	227.353	233.0419	314.795	344.1792	378.9529	426.7883	431.6023	513.5672	623.4577	691.1972	817.6844	825.2684	900.9719	946.3152	1010.8201	1040.8364	1083.3154	1113.3049	1131.8842	1144.9328	1185.3498	1238.7754	1283.325	1304.7215	1326.8563	1356.6063	1399.5735	1422.8762	1447.4701	1475.0844	1487.9893	1494.5801	1749.6772	1796.2787	2989.7953	2993.687	3006.4493	3017.1866	3052.6363	3128.0176	3146.7891	3523.851	3696.3909
CC(OC=N)C(=O)CO	C[C@@H](O[CH][NH])C(=O)CO	
InChI=1S/C5H9NO3/c1-4(9-3-6)5(8)2-7/h3-4,6-7H,2H2,1H3	InChI=1S/C5H9NO3/c1-4(9-3-6)5(8)2-7/h3-4,6-7H,2H2,1H3/t4-/m1/s1
