19
gdb 32432	3.04112	1.21478	0.92695	2.6084	80.64	-0.1761	0.0463	0.2224	1297.7105	0.159392	-419.23145	-419.221663	-419.220719	-419.266576	35.475	
C	 0.2422260413	 0.9659020108	-0.6530143199	-0.320058
N	-0.0354593977	 0.0096751567	 0.4236409359	-0.401705
C	-1.2852138385	-0.665135596	 0.3287164859	 0.10044
C	-2.5841555254	-0.2377893968	 0.5246521731	-0.161671
N	-3.4035548486	-1.3111375868	 0.2975220911	-0.306585
C	-2.6693853049	-2.4370733075	-0.0464364877	 0.215271
C	-3.290827156	-3.7581555876	-0.3452541845	-0.510537
C	-1.3520158262	-2.0427651338	-0.0288224607	 0.234917
O	-0.2617076118	-2.8130958472	-0.2932725269	-0.462378
H	 1.2365079494	 1.4001351682	-0.5056318056	 0.11175
H	 0.239284596	 0.4371492461	-1.6105735374	 0.131921
H	-0.4903511906	 1.7853480638	-0.7214863118	 0.101689
H	 0.0710684867	 0.4628389514	 1.3240069497	 0.227039
H	-2.9814581734	 0.7227166732	 0.8112618671	 0.110491
H	-4.4045171273	-1.2948735327	 0.3762786381	 0.254839
H	-3.9306675725	-3.7334455012	-1.2375189077	 0.119824
H	-2.5014855419	-4.4912075249	-0.527219623	 0.149881
H	-3.9036084435	-4.1307667816	 0.486134907	 0.11785
H	 0.4946162849	-2.238437874	-0.0999805426	 0.287022
37.8533	101.7405	118.8386	180.3757	217.169	239.5287	273.6468	305.8286	346.109	434.2959	516.5306	534.5296	575.8596	633.3117	686.3548	705.7812	727.5931	757.1395	812.9444	967.2655	998.7904	1063.6029	1076.953	1127.2422	1147.2244	1169.728	1236.8684	1255.4139	1320.6001	1344.0679	1416.819	1432.0402	1454.4389	1472.021	1483.8246	1490.1144	1493.2244	1508.6928	1517.9109	1574.478	1688.9308	2979.1612	3006.0723	3045.8797	3067.2569	3109.9404	3123.1969	3258.5242	3526.0906	3688.3854	3714.6265
CNC1=CNC(C)=C1O	CNc1c[nH]c(C)c1O	
InChI=1S/C6H10N2O/c1-4-6(9)5(7-2)3-8-4/h3,7-9H,1-2H3	InChI=1S/C6H10N2O/c1-4-6(9)5(7-2)3-8-4/h3,7-9H,1-2H3
