15
gdb 126079	4.83847	1.3148	1.07123	2.7095	67.22	-0.1934	0.0298	0.2232	1072.43	0.114369	-453.932181	-453.924894	-453.92395	-453.964025	27.638	
C	-0.5176762747	 1.5142448036	-0.0334105732	-0.401746
C	 0.2171927779	 0.2020308049	 0.0224472426	 0.193518
O	 1.1415844143	 0.0893164559	-1.120335395	-0.299303
C	 2.2101952823	-0.5067675839	-0.5386346291	 0.407402
C	 2.1496815579	-0.5308606739	 0.8174116611	 0.197356
O	 0.9866562297	 0.0938376426	 1.2343614651	-0.298628
C	 3.3540907407	-1.1036113921	 1.2425457489	-0.142556
N	 4.1074202719	-1.421326097	 0.1754502542	-0.242355
N	 3.3837284906	-1.0318842823	-0.920764998	-0.336505
H	 0.1934500645	 2.3419569255	 0.013171602	 0.142726
H	-1.0930538542	 1.5809913687	-0.9601124054	 0.137438
H	-1.2043514501	 1.5829302212	 0.8141159161	 0.141793
H	-0.4543216793	-0.668247198	-0.0410057832	 0.097927
H	 3.7248208198	-1.3098025187	 2.2338995215	 0.121363
H	 3.7528449586	-1.1989872266	-1.8399289475	 0.281571
77.0426	212.5529	240.5585	264.7323	317.6253	427.8337	464.4884	494.7973	633.4791	654.8158	695.5436	755.4997	765.0124	821.1011	860.8106	869.6048	974.2436	1045.9438	1064.6511	1102.8978	1155.6434	1185.0221	1232.5672	1321.1839	1361.0731	1382.2854	1404.1169	1421.2349	1479.5992	1484.2759	1503.8609	1596.1603	1653.69	2986.402	3057.0131	3137.1496	3144.1281	3262.9046	3690.8512
CC1OC2=C(O1)C=NN2	C[C@H]1Oc2c(O1)cn[nH]2	
InChI=1S/C5H6N2O2/c1-3-8-4-2-6-7-5(4)9-3/h2-3H,1H3,(H,6,7)	InChI=1S/C5H6N2O2/c1-3-8-4-2-6-7-5(4)9-3/h2-3H,1H3,(H,6,7)/t3-/m1/s1
