15
gdb 18943	6.78172	1.52296	1.45937	1.4291	71.43	-0.2388	0.0407	0.2796	866.3181	0.119005	-325.385638	-325.37931	-325.378365	-325.415936	25.139	
C	-0.0885813664	-1.2869513147	-0.1281294081	-0.440348
C	-0.0612115293	-0.0860005998	-0.0720022339	 0.291223
C	-0.0245303815	 1.3581934761	-0.0006436454	-0.194611
C	 0.0457997251	 2.0405258073	 1.3817230014	-0.005064
C	 1.5642371472	 1.7604100212	 1.5865658909	-0.071869
C	 1.7801846648	 3.2487138611	 1.8369808722	-0.186368
N	 0.6961544375	 3.3054660981	 0.7620251006	-0.167935
C	 1.3414157428	 2.0720907442	 0.076836325	-0.005065
H	-0.1155323509	-2.3471669324	-0.1803902031	 0.196065
H	-0.7306974746	 1.8322744028	-0.6903249696	 0.112261
H	-0.7321581487	 2.127484487	 2.1417354038	 0.09119
H	 2.0336983299	 0.879112192	 2.0313734382	 0.080977
H	 1.4608752159	 3.6648726492	 2.79801144	 0.104175
H	 2.7284742	 3.6957548774	 1.5213422729	 0.104176
H	 2.0933078582	 2.1963207607	-0.7039480649	 0.09119
127.9386	158.4158	362.389	398.2366	517.4579	533.2758	626.3952	644.8289	718.2269	800.5615	809.0076	850.4123	861.0658	912.8303	918.5386	938.8273	1019.5212	1028.7276	1058.1819	1061.6557	1103.22	1134.8216	1152.7846	1164.9227	1185.0138	1215.0583	1254.1361	1274.1029	1305.5451	1355.5407	1520.1632	2236.2895	3038.3172	3060.0516	3072.7723	3097.6152	3104.7477	3111.1978	3504.2421
C#CC1C2C3CN2C13	C#C[C@H]1[C@H]2[C@@H]3CN2[C@H]13	
InChI=1S/C7H7N/c1-2-4-6-5-3-8(6)7(4)5/h1,4-7H,3H2	InChI=1S/C7H7N/c1-2-4-6-5-3-8(6)7(4)5/h1,4-7H,3H2/t4-,5-,6-,7+
