18
gdb 62144	6.42599	0.59304	0.56603	6.0837	76.27	-0.2599	0.0062	0.266	1874.1949	0.146642	-435.266029	-435.255749	-435.254805	-435.30317	34.833	
N	-0.1029694837	 1.4688328461	-0.0440735561	-0.495545
C	 0.0053470148	 0.0174701838	-0.0338376095	 0.011488
C	 0.6789338624	-0.5779827713	-1.2778349507	-0.089558
O	-0.0699665115	-0.1287538818	-2.4035219733	-0.190953
C	 0.3844531903	-0.4928056892	-3.6212326546	 0.129441
N	-0.2296385018	-0.1175381282	-4.6559195552	-0.431759
C	 0.7613381411	-0.4427064915	 1.2285400712	-0.350823
C	 0.0711994388	-0.0895632537	 2.4666275555	 0.284139
N	-0.4682427353	 0.1585383826	 3.4571931984	-0.301791
H	 0.8177170098	 1.8938534803	-0.1277169943	 0.224815
H	-0.6306787772	 1.7586922522	-0.8616733571	 0.253805
H	-1.0141174572	-0.3830944356	 0.0076025025	 0.123041
H	 1.7205963281	-0.2295427356	-1.3495550847	 0.101813
H	 0.6827217466	-1.6764953261	-1.2383726369	 0.10973
H	 1.2909634566	-1.1125746393	-3.5840838295	 0.088638
H	 0.2350749155	-0.4739758186	-5.4882321077	 0.234177
H	 0.9044860842	-1.5291862427	 1.2112766346	 0.151987
H	 1.7622841185	 0.0073109387	 1.2460789974	 0.147356
29.0351	60.1193	82.7129	91.8853	155.8123	183.0122	277.0798	294.0172	325.4583	391.9615	403.6466	458.3004	602.1776	635.0585	823.0049	857.8139	892.5591	904.2502	941.8293	1000.1659	1022.4327	1044.4378	1092.5071	1145.8342	1161.1447	1174.1036	1245.3686	1281.6996	1301.6808	1330.1009	1366.5247	1402.7154	1420.0843	1430.0827	1463.7931	1505.9621	1666.6223	1751.7443	2370.1607	2980.7439	3025.5278	3028.0571	3033.2232	3056.8889	3078.767	3483.1981	3522.3508	3572.6792
NC(COC=N)CC#N	N[C@@H](CO[CH][NH])CC#N	
InChI=1S/C5H9N3O/c6-2-1-5(8)3-9-4-7/h4-5,7H,1,3,8H2	InChI=1S/C5H9N3O/c6-2-1-5(8)3-9-4-7/h4-5,7H,1,3,8H2/t5-/m1/s1
