17
gdb 105344	2.35037	1.60282	1.18225	2.636	73.86	-0.2517	0.0198	0.2716	1078.8939	0.133854	-421.733103	-421.724604	-421.72366	-421.76608	32.676	
O	 0.0885215972	 1.3224239934	-0.3569350949	-0.415425
C	 0.0772712589	 0.0200471489	 0.182805128	-0.105597
C	-1.3353967693	-0.5720773299	 0.1327374283	 0.122819
O	-1.8494185391	-0.5070691717	-1.2492351137	-0.332536
C	-2.1547681729	-1.9083842775	-1.2165306169	 0.117918
C	-0.9133776686	-2.7260926932	-1.0956886663	-0.318874
C	-1.5298786057	-2.1010839348	 0.1419569132	-0.173628
C	-2.2458409493	 0.1094734936	 1.0436856139	 0.368129
C	-2.9840533909	 0.6404477655	 1.828943845	-0.437122
H	-0.3297034757	 1.258724088	-1.2246077731	 0.296026
H	 0.7649810328	-0.6493919609	-0.3526838303	 0.088882
H	 0.4124441931	 0.0938978698	 1.2217503014	 0.119301
H	-3.0978874012	-2.2260918985	-1.6435521804	 0.112827
H	-1.0567379468	-3.8010764373	-1.1531910754	 0.121801
H	 0.0176199348	-2.366405078	-1.5211721852	 0.121891
H	-1.8651356594	-2.6677645249	 0.9983111237	 0.113649
H	-3.635895998	 1.1271980174	 2.5118770029	 0.199938
90.9457	135.7275	164.2003	193.2935	257.9187	383.1223	421.7361	449.5053	486.3693	500.2221	547.7893	631.7566	665.6215	685.1984	763.7875	807.866	875.6972	893.3975	950.321	974.548	1011.1933	1026.0923	1050.5317	1071.2163	1077.6816	1086.5013	1138.0486	1168.6495	1216.5334	1250.2205	1281.9778	1349.2417	1377.8863	1429.7311	1471.064	1498.5857	2237.2909	3006.5668	3088.9619	3124.8353	3191.7692	3211.5678	3224.2575	3501.306	3784.5646
OCC1(OC2CC12)C#C	OC[C@]1(O[C@H]2C[C@@H]12)C#C	
InChI=1S/C7H8O2/c1-2-7(4-8)5-3-6(5)9-7/h1,5-6,8H,3-4H2	InChI=1S/C7H8O2/c1-2-7(4-8)5-3-6(5)9-7/h1,5-6,8H,3-4H2/t5-,6+,7-/m1/s1
