22
gdb 96122	2.1834	1.74331	1.20035	2.0544	81.52	-0.237	0.0696	0.3066	1133.5654	0.195608	-404.338027	-404.329277	-404.328333	-404.370836	34.549	
C	-0.0665214071	 1.5199604148	-0.0014995642	-0.411119
C	 0.0246001491	-0.0108162995	 0.0089481973	-0.029656
C	 0.72693052	-0.5192445663	-1.2593921349	-0.099176
O	 0.8989284985	-1.9241971278	-1.2324936264	-0.251261
C	 1.8658085264	-2.3271673911	-0.2791712436	-0.082792
C	 1.6658770757	-1.6894338703	 1.0876377699	-0.109103
N	 2.1880817971	-0.3154317536	 1.257770658	-0.369655
C	 0.7300172016	-0.5421686268	 1.2561766402	 0.33773
C	-0.0267873201	-0.4054279926	 2.5603627235	-0.483077
H	 0.9327270013	 1.960010746	 0.0762157348	 0.13208
H	-0.525477702	 1.8772954197	-0.9296545746	 0.11113
H	-0.670396911	 1.8993579206	 0.8281150741	 0.11212
H	-0.9886458271	-0.4350352922	 0.0070367715	 0.073915
H	 0.1130185975	-0.3009452472	-2.1386108828	 0.100703
H	 1.6964253202	-0.0112760034	-1.3795613838	 0.1027
H	 1.771392472	-3.4147809796	-0.2018167894	 0.103726
H	 2.8806706524	-2.0942564198	-0.6406137746	 0.095416
H	 1.7726535892	-2.3650902382	 1.934024738	 0.081937
H	 2.5223312701	-0.1822773149	 2.2092130632	 0.22377
H	-0.1938540968	 0.6461461724	 2.8181879593	 0.124661
H	-1.0071964379	-0.8906653607	 2.4988116744	 0.125729
H	 0.5248035309	-0.8689980396	 3.3851479603	 0.110222
100.9689	196.5803	211.7779	242.0267	250.7546	275.0243	337.3809	364.3025	406.8772	477.0195	497.7156	548.5183	667.2409	699.1686	791.3457	864.9685	895.0684	913.8556	953.8825	965.448	984.1713	1024.1442	1039.0012	1080.8397	1095.6805	1115.5029	1142.2428	1147.3966	1166.4045	1206.6767	1263.6472	1291.4075	1321.1848	1325.6909	1330.7432	1382.8301	1395.3665	1406.1356	1414.6553	1423.8994	1451.8323	1485.3022	1486.2712	1495.6823	1501.8247	1505.2728	1506.6943	2972.4557	2990.3978	3016.2257	3026.2183	3035.163	3075.1911	3080.287	3091.2345	3096.5345	3100.1694	3112.5032	3122.8863	3492.3437
CC1COCC2NC12C	C[C@H]1COC[C@H]2N[C@@]12C	
InChI=1S/C7H13NO/c1-5-3-9-4-6-7(5,2)8-6/h5-6,8H,3-4H2,1-2H3	InChI=1S/C7H13NO/c1-5-3-9-4-6-7(5,2)8-6/h5-6,8H,3-4H2,1-2H3/t5-,6+,7-/m0/s1
