15
gdb 13471	3.3523	1.89753	1.23993	2.0093	64.06	-0.2586	-0.0298	0.2288	933.8659	0.118015	-399.861527	-399.853499	-399.852554	-399.894823	27.702	
C	-0.0331671566	 1.4993655016	 0.0289185312	-0.480921
C	-0.0513148363	-0.0101424568	 0.0742515245	 0.381603
O	-0.1015563085	-0.6750266264	 1.0848797775	-0.328294
N	-0.0052602853	-0.6424242583	-1.1662129404	-0.13464
C	-0.0077485255	-2.0831535495	-1.4735771095	-0.165718
C	 0.0604800318	-1.7015952851	-2.9801354413	-0.378573
C	 0.056328464	-0.2363057477	-2.5084353097	 0.427979
O	 0.0896702962	 0.8494098091	-3.0131587645	-0.344127
H	 0.8685578555	 1.8579567311	-0.4755010509	 0.157832
H	-0.8810738164	 1.8766717983	-0.5497463797	 0.157822
H	-0.0724821164	 1.8779586888	 1.0499300041	 0.143607
H	 0.8631572761	-2.6067916263	-1.0747984788	 0.136304
H	-0.9204671393	-2.5875149218	-1.1506875643	 0.136303
H	 0.9713985482	-1.9955384407	-3.5041960664	 0.14541
H	-0.8088645574	-1.9761424963	-3.5798755918	 0.145413
52.6048	110.2677	114.9903	173.4317	206.5107	371.8381	387.2306	537.0462	595.6604	605.21	671.3021	774.5632	803.2532	930.6613	964.6397	1036.2783	1049.3717	1060.692	1132.1012	1154.4789	1175.8347	1188.6599	1229.7552	1329.0572	1363.7324	1402.5294	1453.2283	1456.9451	1473.2445	1520.5956	1796.7631	1885.6149	3057.1252	3078.4069	3091.5935	3121.736	3128.8563	3149.5638	3167.4084
CC(=O)N1CCC1=O	CC(=O)N1CCC1=O	
InChI=1S/C5H7NO2/c1-4(7)6-3-2-5(6)8/h2-3H2,1H3	InChI=1S/C5H7NO2/c1-4(7)6-3-2-5(6)8/h2-3H2,1H3
