12
gdb 129054	3.13901	1.55765	1.16325	1.688	67.57	-0.272	-0.1013	0.1707	977.972	0.078226	-464.947554	-464.940391	-464.939447	-464.979984	25.861	
N	-0.0702096293	 1.0556625988	-0.6241302373	-0.446947
C	-0.0416366013	-0.0460113231	 0.0042443769	 0.303718
C	-1.3308932044	-0.7034524506	 0.3565391302	 0.02581
N	-1.6118837721	-1.937195251	 0.2425526957	-0.224119
C	-0.7053824649	-2.8683361529	-0.2814545357	 0.45338
O	-1.0515587147	-3.8229688227	-0.9239529116	-0.311533
N	 0.6609011075	-2.7700564807	 0.1004353432	-0.258496
N	 1.4777667143	-1.7882570593	 0.5562889921	-0.035491
N	 1.1810422277	-0.5743708355	 0.5194037423	-0.209598
H	 0.8839929184	 1.4056575247	-0.7585316875	 0.248151
H	-2.1010718789	-0.0368946955	 0.7471937847	 0.165163
H	 1.1629153876	-3.6429672822	-0.0034294328	 0.289962
56.4718	96.8646	260.9208	315.9823	394.7188	417.6476	464.8794	556.521	635.3364	675.2689	706.566	754.7173	786.0515	862.3135	912.2002	953.337	991.095	1047.2707	1104.9075	1174.0596	1332.6945	1381.9185	1435.6764	1606.7865	1698.7766	1737.5819	1821.1024	3129.865	3433.5848	3592.2872
N=C1C=NC(=O)NN=N1	[NH][C]1C=NC(=O)NN=N1	
InChI=1S/C3H3N5O/c4-2-1-5-3(9)7-8-6-2/h1H,(H2,4,6,7,9)	InChI=1S/C3H3N5O/c4-2-1-5-3(9)7-8-6-2/h1H,(H2,4,6,7,9)
