18
gdb 91046	2.19354	1.89181	1.5591	1.7842	71.05	-0.2287	0.057	0.2857	961.2646	0.146839	-438.998612	-438.990727	-438.989783	-439.030415	31.483	
C	-0.2194336735	 1.5651398931	-0.0895118265	-0.418868
C	 0.0689548267	 0.0831995983	 0.0122507526	 0.095863
O	 1.1448139955	-0.3908665987	-0.8530554145	-0.305914
C	 1.7568217222	-1.143047886	 0.206397058	 0.036109
C	 2.912631328	-0.4568293189	 0.9838164746	-0.074696
N	 2.631701281	 0.9943963643	 1.0159941809	-0.321794
C	 1.9347904139	 0.1058976691	 1.9673914475	-0.0998
C	 0.7493383427	-0.5799764394	 1.2442051938	 0.337535
O	-0.004834595	-1.3235700564	 2.1448988801	-0.480524
H	 0.6809314094	 2.1453565544	 0.1072269283	 0.153995
H	-0.5922387937	 1.8087744721	-1.0898705789	 0.119911
H	-0.9970674933	 1.8374441021	 0.6331645198	 0.11184
H	-0.8486565117	-0.4871590312	-0.219303073	 0.054507
H	 1.8838510478	-2.2077712357	-0.0067858285	 0.077059
H	 3.9199658551	-0.8276224599	 1.1288360098	 0.095101
H	 3.3978286382	 1.4313398729	 1.5276376332	 0.234873
H	 2.0052566651	 0.2416753814	 3.0394628557	 0.1006
H	-0.6188131083	-1.8745860416	 1.6467723072	 0.284201
168.6806	195.5578	219.0026	244.0037	315.6873	332.5943	340.2759	431.9945	532.335	567.7622	656.0185	681.1462	782.5438	817.7115	828.9654	855.2643	904.4125	945.3535	946.8944	993.8534	1014.4811	1040.4311	1083.0039	1095.3972	1103.7344	1117.2517	1153.0715	1168.4213	1224.5911	1250.9704	1281.496	1317.4663	1325.5175	1364.2491	1378.4646	1394.6307	1426.6455	1478.8295	1507.101	2932.8412	3038.5578	3077.6543	3097.6908	3165.4609	3183.4518	3198.6678	3473.8206	3801.0949
CC1OC2C3NC3C12O	C[C@H]1O[C@H]2[C@H]3N[C@H]3[C@@]12O	
InChI=1S/C6H9NO2/c1-2-6(8)4-3(7-4)5(6)9-2/h2-5,7-8H,1H3	InChI=1S/C6H9NO2/c1-2-6(8)4-3(7-4)5(6)9-2/h2-5,7-8H,1H3/t2-,3+,4-,5+,6+/m1/s1
