13
gdb 21809	7.04821	1.19379	1.09837	1.4955	59.63	-0.266	-0.0479	0.218	1013.3341	0.096464	-394.804469	-394.797408	-394.796464	-394.83817	23.612	
O	-0.1605427864	 0.1659616422	 0.5960696929	-0.220026
C	 0.0299407745	 1.0577935601	-0.183134869	 0.15093
C	 1.3703639416	 1.7938565467	-0.2699313895	-0.250705
N	 1.3477773631	 2.8754070284	-1.2248056026	 0.047308
C	 1.3897652134	 4.2116996528	-1.0312168284	 0.018252
N	 1.2985831323	 4.8482570166	-2.1829750628	-0.269815
C	 1.1928490419	 3.8271644123	-3.0761290886	 0.042979
N	 1.2158807859	 2.6126163236	-2.5499423708	-0.252044
H	-0.7420691796	 1.411342799	-0.8985835251	 0.11565
H	 1.6228587952	 2.1911154772	 0.7169611644	 0.15968
H	 2.1430563776	 1.0705070231	-0.5490785145	 0.172803
H	 1.4918208021	 4.6592954907	-0.0536735678	 0.149823
H	 1.0990495183	 3.9807317774	-4.1407030382	 0.135164
15.6571	72.341	112.6529	309.3881	373.9235	432.8414	663.0518	693.8403	707.4884	799.4447	854.1458	912.8011	972.9333	1019.7587	1023.6134	1068.0582	1170.1684	1192.1329	1240.0534	1308.8821	1328.4651	1339.1087	1386.2111	1405.239	1444.4521	1476.8909	1548.9622	1845.9835	2922.1919	3064.0627	3118.5595	3255.4367	3263.9857
O=CCN1C=NC=N1	O=CCn1cncn1	
InChI=1S/C4H5N3O/c8-2-1-7-4-5-3-6-7/h2-4H,1H2	InChI=1S/C4H5N3O/c8-2-1-7-4-5-3-6-7/h2-4H,1H2
