21
gdb 91663	2.46667	1.7216	1.36055	1.7574	81.85	-0.2468	0.0826	0.3294	1041.5972	0.184657	-387.061215	-387.053548	-387.052603	-387.092823	32.052	
O	 0.0904864686	 1.3644724167	-0.1228678943	-0.449276
C	-0.0105049235	-0.0412151359	-0.0109954224	 0.165282
C	 0.5003735986	-0.6336994137	 1.3513491552	-0.258522
C	-0.788665005	-1.3406280778	 1.8146828633	-0.100089
C	-1.2408848647	-2.0467031781	 0.4980472504	-0.231228
C	-1.4594724772	-0.5804719888	 0.0176292697	-0.138706
C	-1.8671871211	-0.2943916333	 1.4751918619	 0.442587
C	-3.2447727493	-0.2147262367	 2.0371367708	-0.366689
C	-2.288255882	 0.9621425612	 2.1781891693	-0.38966
H	-0.3851629368	 1.7449558053	 0.6233168333	 0.280443
H	 0.5464533601	-0.4347205275	-0.8658437445	 0.08138
H	 1.3396675764	-1.3245164779	 1.229246489	 0.096946
H	 0.8175664364	 0.1699501134	 2.0229872793	 0.094362
H	-0.7751805927	-1.857748272	 2.775017713	 0.059816
H	-0.499429202	-2.6515801928	-0.0332486967	 0.087941
H	-2.177123774	-2.5963324822	 0.6077745594	 0.10292
H	-2.0971787762	-0.3248377689	-0.8289562889	 0.063187
H	-4.0827246689	-0.1020944738	 1.3561288368	 0.114859
H	-3.4739566404	-0.7846694121	 2.9323025925	 0.113294
H	-1.8824777892	 1.1695288374	 3.1638761216	 0.115607
H	-2.5095025572	 1.8506758576	 1.5935830415	 0.115546
147.4991	187.3134	237.8022	285.7175	354.9217	386.1487	427.5143	472.7222	543.5499	605.5776	688.3222	786.2536	822.5043	827.4562	840.9275	878.5596	919.7769	934.2311	941.4686	962.4037	968.6579	1002.7852	1020.1158	1042.9554	1049.2401	1080.5226	1082.8633	1099.9291	1126.6997	1164.1995	1187.1628	1207.8794	1215.8212	1235.2362	1247.6063	1265.8838	1301.2633	1313.108	1317.9519	1401.661	1441.7143	1463.373	1488.8548	1501.1324	1515.046	3050.1428	3052.3627	3070.3659	3098.33	3104.5419	3114.1551	3115.4533	3121.1487	3126.2157	3192.2143	3207.5713	3810.124
OC1CC2CC1C21CC1	O[C@H]1C[C@@H]2C[C@H]1C12CC1	
InChI=1S/C8H12O/c9-7-4-5-3-6(7)8(5)1-2-8/h5-7,9H,1-4H2	InChI=1S/C8H12O/c9-7-4-5-3-6(7)8(5)1-2-8/h5-7,9H,1-4H2/t5-,6+,7-/m0/s1
