14
gdb 15105	8.42044	0.73656	0.70885	1.487	73.04	-0.2532	0.0158	0.2691	1525.1894	0.104552	-345.307269	-345.298837	-345.297893	-345.342175	29.006	
C	-0.087984715	-1.2331591906	 0.0197842628	-0.440023
C	-0.0319985117	-0.0341869724	 0.0225532166	 0.315721
C	 0.0210727469	 1.4288348498	 0.0262512084	-0.493617
C	 1.3841248856	 1.960934812	-0.0226282168	 0.11642
C	 2.49914831	 2.4110521599	-0.0654212183	 0.089845
C	 3.8433840953	 2.9216761832	-0.0863868234	-0.112019
C	 4.3643175063	 3.702806782	-1.2258235815	-0.160262
O	 4.0135324237	 4.3470300783	-0.0082479227	-0.214648
H	-0.1337581444	-2.2940258024	 0.0177537636	 0.202841
H	-0.5541632344	 1.815671152	-0.8261903519	 0.164771
H	-0.4870100644	 1.8087023263	 0.9235235308	 0.166627
H	 4.5624867975	 2.3618350572	 0.510769059	 0.119568
H	 5.4292289505	 3.6633236188	-1.4517308146	 0.120352
H	 3.7076885641	 3.9024267958	-2.0703686419	 0.124425
14.6212	74.6887	130.8223	161.1536	297.4279	322.3431	325.8242	480.1321	527.4285	555.4179	625.1795	652.8066	744.9782	837.9895	896.5546	934.7326	949.5222	1000.3264	1085.4914	1148.1093	1159.9486	1183.4053	1228.6266	1282.8191	1334.4303	1409.3642	1453.565	1519.4442	2248.7854	2376.4601	3009.2535	3034.0492	3085.9978	3115.2745	3179.692	3506.3334
C#CCC#CC1CO1	C#CCC#C[C@H]1CO1	
InChI=1S/C7H6O/c1-2-3-4-5-7-6-8-7/h1,7H,3,6H2	InChI=1S/C7H6O/c1-2-3-4-5-7-6-8-7/h1,7H,3,6H2/t7-/m0/s1
