21
gdb 119383	3.17667	1.01122	0.8963	0.9664	80.14	-0.2526	0.0743	0.3269	1391.1758	0.181705	-424.160108	-424.150897	-424.149953	-424.194571	34.425	
C	 0.0463882361	 1.3392545045	-0.0000847512	-0.217902
O	 0.0450594467	-0.0675384703	-0.0213185062	-0.238206
C	 0.6272148282	-0.6342873798	 1.1348831716	-0.215475
C	 0.5938631153	-2.1292202398	 1.0165771776	 0.302527
C	-0.6494226363	-3.065165888	 0.9679369658	-0.2515
C	 0.5723289899	-4.0221512438	 0.8740904777	-0.103574
C	 1.1827788419	-3.0040632766	-0.1360752493	-0.282741
C	 1.1953100588	-3.1688183148	 2.0216345199	 0.144149
O	 2.5639529613	-3.1970060978	 2.3131754783	-0.45166
H	 1.0683358079	 1.7472129748	 0.058731174	 0.102623
H	-0.4173588378	 1.6819851293	-0.9283984781	 0.125854
H	-0.5279569541	 1.736957854	 0.8520182872	 0.103097
H	 1.670811868	-0.2919090569	 1.2506759359	 0.088186
H	 0.0822666974	-0.3143998129	 2.0406663532	 0.086582
H	-1.2577867642	-3.1250027831	 1.8756212663	 0.088526
H	-1.2669269603	-2.985823399	 0.0719513744	 0.1047
H	 0.5530313398	-5.108989207	 0.788539039	 0.073635
H	 0.6848692452	-2.9179825812	-1.1041115765	 0.106152
H	 2.2690944928	-3.0014602903	-0.277613815	 0.072196
H	 0.6844979147	-3.2322347551	 2.9868344808	 0.080152
H	 3.0627046688	-3.2205949661	 1.4901934446	 0.282678
62.362	87.7114	113.0681	218.7316	237.2862	280.0579	303.9994	343.2026	357.3285	485.2762	536.3165	615.6192	705.8733	763.7889	825.8526	871.9597	907.9499	924.4033	951.583	993.5715	998.3466	1024.6621	1061.5684	1085.4415	1133.7657	1146.4157	1152.0006	1155.0983	1175.2193	1187.5649	1211.5031	1227.0759	1229.9048	1247.8418	1267.6425	1291.0807	1329.4101	1422.7941	1450.7084	1479.5467	1484.7007	1500.5495	1507.7242	1520.9774	1549.3528	2940.7645	2968.0143	2968.2204	3009.851	3038.4223	3052.506	3074.5565	3108.7069	3112.0035	3113.1161	3130.4725	3815.9821
COCC12CC(C1)C2O	COC[C@@]12C[C@@H](C1)[C@H]2O	
InChI=1S/C7H12O2/c1-9-4-7-2-5(3-7)6(7)8/h5-6,8H,2-4H2,1H3	InChI=1S/C7H12O2/c1-9-4-7-2-5(3-7)6(7)8/h5-6,8H,2-4H2,1H3/t5-,6-,7+/m1/s1
