17
gdb 8530	3.3512	2.31925	1.663	1.5633	68.41	-0.2303	0.0605	0.2908	811.0754	0.141956	-363.76111	-363.754036	-363.753092	-363.791863	27.921	
C	 0.0073948006	 1.5418430386	-0.0593788996	-0.527967
C	 0.0191229573	 0.0359420414	-0.0533016234	 0.328437
C	 0.5259847706	-0.9494109054	-1.1057650855	-0.224516
N	 0.0344918683	-1.9284974595	-0.0447794754	-0.172425
C	 0.5296732957	-0.9509316794	 1.0551387426	-0.071079
C	-0.8165509405	-1.0428188632	 1.7644473218	 0.119183
O	-1.1256559031	 0.0461611821	 2.5984100121	-0.438795
C	-1.1444430221	-0.9679410715	 0.2642439706	-0.100863
H	 1.0246228651	 1.9389969005	-0.1520196157	 0.117566
H	-0.5753822459	 1.9236455567	-0.9055629088	 0.114956
H	-0.4298385579	 1.9255236954	 0.8654202389	 0.140733
H	-0.0206141774	-1.0240065804	-2.0528865028	 0.095276
H	 1.6059348433	-1.0081543348	-1.2839380551	 0.096402
H	 1.5398813218	-1.0388516966	 1.4596825887	 0.079673
H	-1.0268523311	-2.0123951864	 2.2351377443	 0.081481
H	-2.0340449849	-0.0520474073	 2.9001560879	 0.288025
H	-2.0952370998	-1.0778997801	-0.2630049206	 0.073914
183.019	205.7635	244.2195	275.829	323.5314	358.2656	466.0833	532.2054	645.2166	711.1103	800.4251	854.3237	859.7035	867.4798	918.9286	926.232	934.5434	1012.7064	1063.664	1071.7283	1100.7676	1128.2969	1143.1318	1154.0272	1192.8421	1211.246	1220.5947	1251.9819	1281.8198	1295.1143	1356.3487	1403.8359	1436.3366	1488.7525	1496.8017	1517.4641	3020.8985	3023.7231	3029.6005	3080.9547	3085.6515	3088.0781	3100.2291	3127.051	3821.0371
CC12CN3C1C(O)C23	C[C@@]12CN3[C@@H]1[C@@H](O)[C@@H]23	
InChI=1S/C6H9NO/c1-6-2-7-4(6)3(8)5(6)7/h3-5,8H,2H2,1H3	InChI=1S/C6H9NO/c1-6-2-7-4(6)3(8)5(6)7/h3-5,8H,2H2,1H3/t3-,4-,5+,6-
