14
gdb 54072	2.15005	1.29144	0.84427	6.4208	71.04	-0.2246	-0.0227	0.2018	1279.8389	0.09984	-470.03947	-470.030103	-470.029159	-470.074356	32.883	
N	-0.1981506428	 1.2903504712	 0.1665631611	-0.546957
C	-0.1025457908	-0.0622853461	-0.0242532113	 0.306079
N	 1.1156824309	-0.508901363	-0.4832598982	-0.576887
H	 1.211813498	-1.5144134494	-0.5237392997	 0.280519
H	 1.9174977486	-0.053500976	-0.0686185669	 0.264874
C	-1.1525861514	-0.9024115794	 0.2347800574	 0.100732
O	-2.382042956	-0.3258841242	 0.5953193373	-0.239928
C	-3.4060688677	-0.4524277602	-0.3008212077	 0.161071
O	-4.4771774843	 0.0247469484	-0.0989702684	-0.255198
C	-1.015349406	-2.3030606102	 0.2558460817	 0.224942
N	-0.8665735716	-3.4568328552	 0.2466874433	-0.372051
H	 0.3037300649	 1.8708425827	-0.4886456089	 0.267412
H	-1.1159082869	 1.6262489624	 0.4161798324	 0.281535
H	-3.109894635	-1.0325257909	-1.1929671121	 0.103858
49.5307	117.9073	134.0234	139.5779	150.2049	305.0757	379.035	387.7978	423.1409	437.5454	488.4738	536.4016	549.17	594.1746	633.2345	642.0727	720.323	841.7437	1045.3422	1050.1461	1118.3237	1130.2394	1225.103	1253.697	1405.3785	1469.3859	1619.7721	1641.2509	1703.3134	1876.5589	2295.2128	2988.02	3551.9264	3577.6827	3654.3732	3689.7026
NC(=[NH2+])[C-](OC=O)C#N	NC(=[NH2])[C](OC=O)C#N	
InChI=1S/C4H4N3O2/c5-1-3(4(6)7)9-2-8/h2H,(H3,6,7)/q-1/p+1	InChI=1S/C4H5N3O2/c5-1-3(4(6)7)9-2-8/h2H,6-7H2
