21
gdb 95362	2.75644	1.50033	1.08113	1.3253	84.76	-0.2271	0.0189	0.246	1165.5943	0.185066	-387.111785	-387.103725	-387.10278	-387.144473	32.023	
O	-0.1845552159	 1.4515251074	 0.0146743661	-0.434353
C	-0.0037194662	 0.0362860284	 0.0281957328	-0.007797
C	 0.6973710341	-0.4970146025	 1.3195620328	-0.236744
C	-0.4347265854	-1.0224767907	 2.2354023381	-0.2351
C	-1.4302441162	-1.6204431754	 1.222980406	-0.042438
C	-2.9433596918	-1.6949055676	 1.5174181998	-0.243303
C	-3.6212168242	-1.2187620043	 0.1970703607	-0.24574
C	-2.5431571455	-0.3725186521	-0.4545157004	-0.223947
C	-1.3566719181	-0.6186551199	 0.0917848123	 0.379496
H	 0.6837949267	 1.8521420373	-0.0974247431	 0.279152
H	 0.5626139806	-0.2700833992	-0.8648184361	 0.069973
H	 1.3666040355	-1.3231733809	 1.0506080359	 0.095337
H	 1.3098358415	 0.2803773365	 1.7861464333	 0.091149
H	-0.0750247786	-1.7305040293	 2.9875060633	 0.090196
H	-0.9095780626	-0.1852659194	 2.7605970509	 0.10486
H	-1.0517256407	-2.6025441582	 0.8963788333	 0.067556
H	-3.2797948768	-2.6857599086	 1.8345888157	 0.090914
H	-3.1908225395	-0.9913531401	 2.3206158694	 0.10168
H	-3.9019608588	-2.0680373093	-0.4433015857	 0.101981
H	-4.5446476176	-0.6579584787	 0.380131227	 0.10132
H	-2.7449983605	 0.3472966767	-1.239252502	 0.095807
66.3689	163.241	173.0341	286.5055	306.645	335.8669	415.4474	478.2993	568.7109	582.0571	616.5705	738.4091	791.3689	817.7947	841.7922	885.9887	912.5699	915.2261	959.0097	966.2293	980.0056	1011.7987	1032.0701	1077.9103	1103.5788	1140.827	1172.357	1177.9752	1204.5432	1221.403	1231.0319	1266.5752	1297.2263	1297.6881	1313.0602	1320.9783	1339.5611	1358.4331	1361.5577	1424.9892	1474.3781	1483.7484	1494.2938	1500.5864	1737.1738	2966.7243	2970.8098	2998.7096	3034.6822	3036.5359	3040.4807	3058.2942	3084.87	3092.777	3096.3131	3201.1573	3808.5552
OC1CCC2CCC=C12	O[C@H]1CC[C@H]2CCC=C12	
InChI=1S/C8H12O/c9-8-5-4-6-2-1-3-7(6)8/h3,6,8-9H,1-2,4-5H2	InChI=1S/C8H12O/c9-8-5-4-6-2-1-3-7(6)8/h3,6,8-9H,1-2,4-5H2/t6-,8+/m1/s1
