15
gdb 128497	2.70813	1.33419	0.89901	6.5129	71.92	-0.2369	-0.0276	0.2093	1220.6997	0.11321	-453.963681	-453.955378	-453.954434	-453.997135	29.289	
C	-0.0040071618	 1.4099625011	-0.0036578448	-0.271971
O	 0.0017995755	-0.0137076276	-0.0066678641	-0.248177
C	 0.5912687299	-0.6270584737	-1.0359637902	 0.455501
C	 0.7209182445	-1.9994547189	-1.2476580318	-0.050196
C	 0.2465501201	-3.076836125	-0.3991915971	 0.066633
O	 0.3925557395	-4.2576699947	-0.641719265	-0.296415
C	 1.4228812372	-2.0798508623	-2.4822399348	-0.046
N	 1.7038170175	-0.8967811691	-2.990624939	-0.238576
N	 1.1816278621	-0.0097867304	-2.0828880702	-0.299327
H	 1.0177161	 1.8089303529	 0.0134317679	 0.137927
H	-0.5443435226	 1.8044694327	-0.8730469794	 0.137836
H	-0.5218586301	 1.7089764028	 0.9071182641	 0.161821
H	-0.2789701487	-2.7425621383	 0.5218859657	 0.06645
H	 1.7211891308	-2.9810603449	-2.9963694178	 0.144872
H	 1.276006966	 0.9747220954	-2.2609758536	 0.279624
70.7517	143.4903	157.8144	199.9814	245.8944	253.1248	334.0497	393.1684	457.5221	586.8965	669.9329	674.2077	714.1163	798.5006	922.7947	945.9435	1040.4358	1048.7526	1081.1943	1175.1445	1199.7813	1221.7898	1232.3391	1312.3965	1389.7051	1428.2607	1464.4741	1483.1232	1494.2179	1504.9696	1562.2455	1623.5023	1778.7008	2888.5258	3012.6459	3078.4657	3157.4543	3260.7197	3686.491
COC1=C(C=O)C=NN1	COc1c(C=O)cn[nH]1	
InChI=1S/C5H6N2O2/c1-9-5-4(3-8)2-6-7-5/h2-3H,1H3,(H,6,7)	InChI=1S/C5H6N2O2/c1-9-5-4(3-8)2-6-7-5/h2-3H,1H3,(H,6,7)
