21
gdb 86212	2.464	1.31331	1.00641	2.1134	80.16	-0.2543	0.0053	0.2596	1249.3658	0.182556	-424.238128	-424.228807	-424.227863	-424.271779	35.969	
C	-0.0190017621	 1.5645035021	-0.0092451107	-0.400453
C	 0.0424909317	 0.0354940167	-0.0096630888	-0.006294
C	 0.7405940336	-0.5233226514	-1.257459223	-0.210974
C	 0.631688145	-2.0451464656	-1.3125943103	 0.077784
O	 1.5180811643	-2.4989581017	-2.3341427918	-0.438274
C	 0.9610251285	-2.6661256408	 0.0243322213	-0.07776
C	 0.9787313609	-1.9931701251	 1.1744536232	-0.108818
C	 0.7186514043	-0.510459692	 1.2672555415	 0.092171
O	 1.9360002744	 0.17358954	 1.591281492	-0.434992
H	 0.9864158637	 1.9929017411	 0.0065599018	 0.125634
H	-0.5410656316	 1.9336387794	-0.8978213761	 0.10572
H	-0.5489532029	 1.937413342	 0.8738064503	 0.109748
H	-0.9867807	-0.3531456697	 0.0004970966	 0.071958
H	 0.3205212654	-0.0903530535	-2.1705044386	 0.100309
H	 1.8062886518	-0.2595446645	-1.2475678412	 0.097396
H	-0.4065582874	-2.3152221067	-1.5783207115	 0.073886
H	 1.4128911779	-3.4517803431	-2.4225916876	 0.280053
H	 1.1842050884	-3.732638119	 0.013240112	 0.082314
H	 1.2440317344	-2.494206175	 2.1022221741	 0.096071
H	 0.0642510656	-0.3020369244	 2.1227669766	 0.083698
H	 2.6227216739	-0.1762030488	 1.0132806802	 0.280822
77.4404	155.0135	207.028	228.5255	254.4148	260.7529	294.1864	329.9706	375.1544	416.1167	446.3708	482.3965	593.2901	615.3161	707.8699	772.4441	824.9564	902.1323	919.8764	968.3642	1000.6402	1008.5209	1025.4538	1053.0337	1074.0189	1088.9452	1126.8087	1154.0222	1165.8358	1222.2291	1254.2534	1270.3388	1306.6408	1332.6605	1350.4986	1364.8573	1397.7153	1403.4342	1408.1872	1422.9491	1431.5233	1491.4601	1497.0693	1502.0725	1713.8679	2928.805	2994.347	3030.2281	3032.0202	3036.7357	3081.0452	3099.1799	3121.0724	3126.8823	3163.0114	3807.5301	3813.3553
CC1CC(O)C=CC1O	C[C@H]1C[C@@H](O)C=C[C@H]1O	
InChI=1S/C7H12O2/c1-5-4-6(8)2-3-7(5)9/h2-3,5-9H,4H2,1H3	InChI=1S/C7H12O2/c1-5-4-6(8)2-3-7(5)9/h2-3,5-9H,4H2,1H3/t5-,6-,7+/m0/s1
