23
gdb 77697	2.52058	1.34117	1.11351	1.7492	85.45	-0.2547	0.0744	0.3291	1234.1243	0.203273	-388.271961	-388.262077	-388.261133	-388.306278	38.079	
C	-0.2873530606	 1.3896807723	-0.1045546627	-0.403522
C	-0.0410088526	-0.113893369	-0.0055214758	-0.13051
C	 0.7619741722	-0.6842053395	-1.1835262799	 0.482118
C	 0.2969035428	-1.4959106962	-2.3090217809	-0.270592
O	 0.7402221241	-0.1438849327	-2.4947980829	-0.276657
C	 2.0190904352	-0.8381595223	-0.3326778097	-0.370201
C	 1.1272810387	-0.6138250064	 0.9373997439	 0.337351
C	 1.6758309591	 0.3684023073	 1.9677503286	-0.454196
C	 0.7555446864	-1.9415670576	 1.6044072423	-0.43639
H	 0.6285318191	 1.9432253646	-0.3330134349	 0.120044
H	-0.9971536993	 1.599499496	-0.9103137968	 0.124534
H	-0.7018957022	 1.7869634227	 0.8273163783	 0.111596
H	-0.992017329	-0.6242116005	 0.1841657157	 0.063982
H	 0.9472574556	-2.2607752973	-2.7328946524	 0.111629
H	-0.7703856463	-1.6610215027	-2.4560715722	 0.111305
H	 2.5627866783	-1.7848141162	-0.3977502108	 0.098531
H	 2.7216185621	-0.0167207575	-0.5041385298	 0.107965
H	 1.9611584222	 1.3224570404	 1.5162001738	 0.114016
H	 0.9401690572	 0.5750669305	 2.7536605753	 0.112034
H	 2.5668819241	-0.0465311332	 2.4532673514	 0.112294
H	 1.6255015533	-2.3936473643	 2.0943903053	 0.110709
H	-0.018970173	-1.7941729906	 2.3659200083	 0.111782
H	 0.3719696026	-2.6627918478	 0.8746998459	 0.112179
44.1524	184.7678	207.9994	213.094	242.6932	247.2232	255.89	309.7463	330.6856	359.5546	370.9933	471.5177	519.8253	531.9467	693.6646	772.0438	827.85	857.9013	883.793	915.7399	937.4543	955.5355	978.359	1010.839	1033.3422	1059.151	1087.0201	1128.2669	1148.7635	1159.6079	1168.4311	1206.795	1216.2769	1241.5863	1280.6656	1293.2558	1349.0791	1400.8615	1406.9917	1421.5855	1434.1573	1477.2555	1481.8188	1485.6575	1492.0944	1496.5261	1504.666	1508.4748	1535.1783	3019.2755	3025.2948	3035.6548	3037.7825	3049.3013	3073.0994	3082.9367	3088.9576	3091.9989	3100.4663	3102.8531	3108.2093	3111.26	3158.7267
CC1C2(CO2)CC1(C)C	C[C@H]1[C@]2(CO2)CC1(C)C	
InChI=1S/C8H14O/c1-6-7(2,3)4-8(6)5-9-8/h6H,4-5H2,1-3H3	InChI=1S/C8H14O/c1-6-7(2,3)4-8(6)5-9-8/h6H,4-5H2,1-3H3/t6-,8-/m1/s1
