18
gdb 31798	4.78046	0.95624	0.82254	0.9818	82.87	-0.2461	-0.0236	0.2225	1393.7703	0.148656	-402.011206	-402.002472	-402.001528	-402.045792	31.639	
C	-0.0353287477	 1.4986247741	 0.0753645915	-0.465963
C	 0.0177810143	-0.0061093283	 0.0244202264	 0.319484
N	-0.0616193776	-0.5664184649	-1.1906892804	-0.317394
C	-0.0173398923	-1.8958078231	-1.2738098939	-0.078086
C	 0.0977318458	-2.7552407072	-0.1806517091	 0.197447
C	 0.1161257906	-4.257500407	-0.3499449197	-0.162877
O	 1.0129845108	-4.9110924568	 0.5361122831	-0.407275
C	 0.189756456	-2.1625718925	 1.0786743325	-0.146254
C	 0.1497583104	-0.778854499	 1.1822880693	-0.156342
H	 0.7855078951	 1.9294119328	-0.507034262	 0.13968
H	-0.9663583384	 1.8620646859	-0.371193137	 0.14032
H	 0.0299590054	 1.8722136217	 1.1001566477	 0.11633
H	-0.0752287134	-2.310428998	-2.2799722881	 0.09912
H	-0.868957009	-4.6787237165	-0.1161583072	 0.127253
H	 0.3266394021	-4.5080621916	-1.4011367042	 0.097769
H	 1.8939905026	-4.5594662059	 0.3686546992	 0.283997
H	 0.300743672	-2.7876730875	 1.9587326175	 0.116416
H	 0.2204319834	-0.2956196863	 2.1510458347	 0.096376
44.6529	50.5761	117.0667	203.3293	282.1015	357.0177	362.2989	406.6805	422.401	493.7502	582.7091	654.5737	743.8441	767.0718	847.3404	859.9668	954.7703	987.0198	1002.8847	1010.406	1039.7557	1061.1607	1071.0555	1154.3131	1204.3048	1232.3537	1259.053	1294.2286	1329.9181	1364.8367	1407.8592	1410.4625	1429.631	1475.9985	1489.1817	1500.0419	1521.9364	1605.1612	1641.0142	2986.2215	3040.7108	3051.4318	3100.7954	3124.5241	3127.5905	3177.4786	3194.2536	3806.671
CC1=NC=C(CO)C=C1	Cc1ncc(CO)cc1	
InChI=1S/C7H9NO/c1-6-2-3-7(5-9)4-8-6/h2-4,9H,5H2,1H3	InChI=1S/C7H9NO/c1-6-2-3-7(5-9)4-8-6/h2-4,9H,5H2,1H3
