15
gdb 34182	4.49002	1.48593	1.32638	5.323	72.35	-0.2525	0.0109	0.2634	933.9119	0.114891	-379.623828	-379.617573	-379.616629	-379.654346	25.482	
N	 0.0828829273	-1.0733961214	-0.0022647543	-0.337478
C	 0.0367558563	 0.0818987406	-0.0021489838	 0.202029
C	-0.0648484598	 1.5134656465	 0.0053250027	 0.204766
C	-1.1184517337	 2.2302256453	-0.818096156	-0.301091
C	-0.6887628548	 3.6483412867	-0.5157666366	-0.088762
C	-0.1135341252	 3.7591396164	 0.8910649914	-0.114966
C	 0.799841103	 3.6843458967	-0.3064538769	-0.018764
N	 1.2414368385	 2.2749801092	 0.0354514438	-0.177743
C	 0.3242062921	 2.3241747428	 1.2057903168	-0.083238
H	-1.0430601231	 1.9818017896	-1.8808250043	 0.13233
H	-2.1284780042	 1.9967902585	-0.4684200385	 0.129924
H	-1.1854605461	 4.5072777951	-0.9481852456	 0.108483
H	-0.3156865505	 4.5573738004	 1.5895999669	 0.109721
H	 1.5044410819	 4.3763038086	-0.7455234659	 0.114904
H	 0.5936449882	 1.9013876052	 2.1658071204	 0.119884
155.6521	163.2717	381.7188	499.1363	501.5155	534.7795	576.1281	705.6565	727.179	767.8351	776.2954	808.0379	836.0466	904.5236	927.5755	945.648	969.4286	1001.0502	1018.808	1034.7541	1045.4762	1066.9497	1086.6075	1176.882	1187.3318	1212.6964	1237.4265	1286.0982	1297.0899	1351.6474	1383.8417	1488.9803	2359.7382	3060.3842	3108.2974	3193.3823	3206.223	3215.7266	3231.6537
N#CC12CC3C4C3N1C24	N#C[C@]12C[C@H]3[C@@H]4[C@H]3N1[C@H]24	
InChI=1S/C7H6N2/c8-2-7-1-3-4-5(3)9(7)6(4)7/h3-6H,1H2	InChI=1S/C7H6N2/c8-2-7-1-3-4-5(3)9(7)6(4)7/h3-6H,1H2/t3-,4+,5-,6-,7-,9?/m0/s1
