14
gdb 129271	4.29065	1.14984	0.96981	1.6165	66.56	-0.2552	-0.0228	0.2324	1160.7503	0.101869	-469.96174	-469.954471	-469.953527	-469.994097	26.782	
N	-0.1867664756	 1.1533180085	 0.5116568592	-0.575477
C	-0.0169340802	-0.0424025452	 0.185529291	 0.508078
O	 0.9881825886	-0.6305578788	-0.5229430944	-0.240855
N	 0.7180482986	-2.0261434883	-0.6332773614	-0.196677
C	-0.383797728	-2.1819332215	 0.0029269882	 0.45453
O	-0.9033554626	-1.0412860681	 0.5262447265	-0.222189
C	-1.1048005883	-3.4416517265	 0.1884824221	-0.112083
C	-1.8712363805	-3.6616613414	 1.4521091468	-0.233367
N	-2.5795827471	-3.445020538	 0.1916366166	-0.309698
H	 0.5706663829	 1.7386615486	 0.169341641	 0.249644
H	-0.6377090985	-4.2779639632	-0.3194783414	 0.136046
H	-1.9292414688	-4.6706247563	 1.848433706	 0.141293
H	-1.8603507268	-2.8677506832	 2.1925947981	 0.144301
H	-2.9278972037	-2.4895052865	 0.1478841415	 0.256456
86.0816	129.2902	158.3835	234.1064	392.5261	416.3993	500.5339	642.0311	702.0834	740.956	762.5087	785.3455	823.632	885.0021	904.8575	941.172	967.492	975.6229	1011.7359	1045.2264	1109.8145	1136.0892	1173.4729	1250.113	1267.6233	1296.4004	1361.6701	1422.9638	1506.0466	1690.5007	1819.1224	3123.2848	3183.643	3216.3935	3502.8378	3550.5214
N=C1ON=C(O1)C1CN1	[NH][C@H]1ON=C(O1)[C@H]1CN1	
InChI=1S/C4H5N3O2/c5-4-8-3(7-9-4)2-1-6-2/h2,5-6H,1H2	InChI=1S/C4H6N3O2/c5-4-8-3(7-9-4)2-1-6-2/h2,4-6H,1H2/t2-,4-/m1/s1
