20
gdb 99314	5.3726	0.65213	0.6103	2.0589	76.76	-0.2436	0.0182	0.2619	1851.8437	0.170135	-440.298589	-440.288401	-440.287457	-440.336049	35.28	
N	 0.0198042438	 1.2638632451	-0.3358658902	-0.486035
C	 0.2425390221	-0.1439545907	-0.058576891	-0.272574
C	 0.869974169	-0.4470807076	 1.3008625495	 0.417283
O	 1.1900356937	 0.3874805328	 2.1113599627	-0.362393
O	 1.0241393174	-1.7708959438	 1.475808686	-0.243222
C	 1.6082417193	-2.1796736944	 2.7340653268	-0.079079
C	 1.7038390431	-3.6759010564	 2.7415132948	 0.003703
C	 2.8669581646	-4.3592806595	 2.0692860175	-0.249698
C	 2.7764164034	-4.3356069775	 3.5733129537	-0.271912
H	-0.5740120973	 1.6525897681	 0.3918898426	 0.234818
H	 0.901121406	 1.7609779121	-0.2376058899	 0.235306
H	-0.7039918197	-0.6929680667	-0.1239957984	 0.136933
H	 0.8882821739	-0.57948508	-0.830347866	 0.13765
H	 2.5946962182	-1.7144391765	 2.8353135824	 0.115647
H	 0.981662618	-1.8017314242	 3.5485505429	 0.121885
H	 0.7464040773	-4.1859603165	 2.6910745026	 0.093205
H	 2.6816169986	-5.2951747598	 1.5548640873	 0.116979
H	 3.6148889519	-3.7322609619	 1.5954234859	 0.116296
H	 3.4659270201	-3.6958745021	 4.114358831	 0.117331
H	 2.5243572466	-5.2527120704	 4.0931603197	 0.117878
26.955	44.9031	59.2593	111.3212	152.5933	218.2012	237.4301	284.2327	337.4424	397.2393	505.7214	578.6883	692.8806	775.1826	813.2637	839.7071	893.0607	920.5	929.4172	942.5935	964.7406	1001.7857	1041.8602	1061.6514	1082.3102	1136.0387	1153.3871	1178.5845	1196.2543	1200.0597	1218.8749	1230.4006	1278.1584	1361.0244	1382.4694	1388.9138	1440.644	1456.2252	1471.2513	1500.5335	1512.2255	1678.3198	1814.7423	3042.1257	3043.9359	3078.0965	3086.5845	3134.2094	3138.7712	3154.413	3212.9751	3227.7832	3492.0048	3558.5126
NCC(=O)OCC1CC1	NCC(=O)OCC1CC1	
InChI=1S/C6H11NO2/c7-3-6(8)9-4-5-1-2-5/h5H,1-4,7H2	InChI=1S/C6H11NO2/c7-3-6(8)9-4-5-1-2-5/h5H,1-4,7H2
