16
gdb 12459	3.62886	1.942	1.33038	3.0371	68.05	-0.2126	0.0163	0.229	897.0684	0.134495	-379.974048	-379.967039	-379.966095	-380.005338	26.783	
O	 0.0005145648	-0.1582694399	-0.0851911639	-0.401129
C	-0.0163143509	 1.0604810591	-0.0750419414	 0.421563
N	-1.0949469441	 1.7850758777	 0.3678591581	-0.327199
C	-1.4510219836	 3.1305471413	-0.0704553198	-0.182497
C	-0.599838679	 4.2198611991	 0.5846875878	-0.246188
C	 0.8531559784	 4.1393441296	 0.2181664809	-0.088334
C	 1.5207881025	 3.0848626991	-0.2588306862	 0.013968
N	 1.0934150334	 1.7792369941	-0.5141212833	-0.348211
H	-1.8586529551	 1.1685438726	 0.5985480248	 0.252324
H	-1.3800121633	 3.2180506194	-1.1630830071	 0.120407
H	-2.5003786565	 3.2798022295	 0.1963911058	 0.113321
H	-0.9940171098	 5.1979676111	 0.2781512629	 0.103087
H	-0.7338588673	 4.1668292859	 1.6739173687	 0.116224
H	 1.4347181574	 5.0479228056	 0.3366789126	 0.088204
H	 2.570313828	 3.2062170099	-0.5078588932	 0.107005
H	 1.8077986653	 1.137875176	-0.8214494665	 0.257456
110.8584	121.8925	263.9619	342.4929	396.5926	460.4548	511.178	546.4051	620.7969	660.5844	737.8178	758.4557	774.7864	855.1783	908.9867	961.4667	969.5858	978.4315	1071.5482	1126.1252	1158.3926	1235.0749	1284.9845	1298.0571	1353.6788	1386.0156	1435.9795	1454.5802	1458.967	1477.0597	1486.4649	1504.4579	1745.2387	1798.3821	3007.1998	3014.1199	3041.1973	3094.4187	3167.1762	3188.241	3631.7368	3637.6128
O=C1NCCC=CN1	O=C1NCCC=CN1	
InChI=1S/C5H8N2O/c8-5-6-3-1-2-4-7-5/h1,3H,2,4H2,(H2,6,7,8)	InChI=1S/C5H8N2O/c8-5-6-3-1-2-4-7-5/h1,3H,2,4H2,(H2,6,7,8)
