23
gdb 116498	2.8694	1.14281	0.90289	0.6624	82.55	-0.24	0.0851	0.3251	1379.4921	0.206596	-425.427211	-425.417873	-425.416928	-425.461374	35.37	
C	-0.1238000562	 1.5824581576	 0.0007247431	-0.386024
C	 0.0153406776	 0.0587482881	 0.0065697177	-0.18377
C	 0.7549855882	-0.4872202665	-1.2170465195	 0.14242
C	 0.8889419342	-2.0195474458	-1.1729157559	-0.239539
C	 2.0113786557	-2.6000001322	-2.0557364369	-0.083912
O	 2.3237300607	-1.8507535408	-3.2180769346	-0.245173
C	 1.2238348211	-1.4595162683	-4.0194985311	-0.089237
C	 0.6810215733	-0.09601614	-3.5926136032	-0.068361
O	-0.0065942992	-0.0941401978	-2.3604457371	-0.259244
H	 0.8584233378	 2.0687064346	 0.0132797935	 0.10828
H	-0.6514705039	 1.9154942348	-0.8959098597	 0.132545
H	-0.678356872	 1.930529181	 0.877478497	 0.107644
H	 0.5523901243	-0.2673668746	 0.9052255844	 0.09184
H	-0.9771741366	-0.407986797	 0.0454811422	 0.1016
H	 1.7542288184	-0.0246464224	-1.2722913433	 0.071783
H	 1.0687985935	-2.3516118863	-0.1433541808	 0.097315
H	-0.0850250583	-2.4266148628	-1.4656167935	 0.10957
H	 2.9510714101	-2.6304417393	-1.4945300501	 0.108971
H	 1.7604517472	-3.6382012471	-2.3274611151	 0.089404
H	 1.5966436987	-1.3803435501	-5.0483822109	 0.104122
H	 0.4244693967	-2.2152009392	-4.0089139824	 0.095809
H	 1.5272574576	 0.6098819676	-3.5666521934	 0.093959
H	-0.0395849088	 0.2610764764	-4.3376050904	 0.099998
85.4481	96.4013	153.0072	190.5927	222.1783	253.2065	320.9836	349.9047	379.9287	428.8436	480.3701	559.321	590.638	755.748	799.3622	851.8277	887.2802	890.6649	931.8588	965.849	1003.2427	1027.2775	1053.2799	1097.5561	1114.0352	1131.0648	1154.8098	1161.7656	1175.691	1259.3466	1264.1247	1288.657	1296.2534	1326.1612	1332.3471	1366.5074	1387.4395	1393.3238	1397.8717	1406.7083	1418.8784	1422.5789	1470.1906	1479.4032	1482.1886	1490.6504	1495.8316	1507.3608	1510.2592	2970.7789	2972.3259	2976.7618	2997.6214	3025.2377	3035.6063	3037.3641	3056.5463	3060.1416	3065.3807	3065.8767	3085.5729	3099.363	3128.4426
CCC1CCOCCO1	CC[C@H]1CCOCCO1	
InChI=1S/C7H14O2/c1-2-7-3-4-8-5-6-9-7/h7H,2-6H2,1H3	InChI=1S/C7H14O2/c1-2-7-3-4-8-5-6-9-7/h7H,2-6H2,1H3/t7-/m0/s1
