16
gdb 19574	3.46014	2.41702	2.02909	3.0414	67.32	-0.2336	-0.0042	0.2295	729.9499	0.132641	-346.579879	-346.573984	-346.57304	-346.609578	24.486	
O	 0.0056311114	-0.0108695465	 0.1578896899	-0.334933
C	-0.0135254574	 1.1733863074	 0.0003449901	 0.427162
C	-1.0842304197	 2.2776142594	 0.0158597539	-0.150602
C	-0.0269485441	 2.9900995482	 0.9481379684	-0.241072
C	 1.0249980864	 2.3079668557	-0.0124498011	-0.150602
C	 0.7034538322	 3.0173756456	-1.3414758551	-0.036231
C	-0.0614216295	 2.2601994022	-2.4027695667	-0.310911
C	-0.8190038555	 2.9954705752	-1.3210388815	-0.03623
H	-2.1114331895	 2.0884074262	 0.3199185026	 0.084729
H	-0.0428912611	 4.0816360872	 0.9306256811	 0.110153
H	-0.0077283802	 2.6097498858	 1.9724476511	 0.116044
H	 2.0650075322	 2.148508028	 0.2638646397	 0.084728
H	 1.2682446586	 3.9025978814	-1.6086049587	 0.095232
H	-0.0811519314	 2.7100587374	-3.3902936703	 0.11221
H	-0.0459677614	 1.1745444764	-2.4153018227	 0.135092
H	-1.415988121	 3.8639782901	-1.5725725409	 0.095232
157.5003	313.0204	358.4707	458.8811	519.4434	619.9654	626.4743	757.6476	792.1233	794.915	816.878	839.7147	901.457	912.7992	962.7339	993.2617	993.6598	1047.8329	1055.6409	1070.1113	1083.3896	1084.5584	1098.5884	1117.2695	1190.6781	1203.5132	1210.0845	1244.3846	1253.5109	1320.9868	1364.229	1487.3925	1491.9589	1898.2837	3065.1309	3123.3828	3134.4488	3145.6604	3147.5873	3174.5176	3181.8217	3208.6467
O=C1C2CC1C1CC21	O=C1[C@H]2C[C@@H]1[C@H]1C[C@@H]21	
InChI=1S/C7H8O/c8-7-5-2-6(7)4-1-3(4)5/h3-6H,1-2H2	InChI=1S/C7H8O/c8-7-5-2-6(7)4-1-3(4)5/h3-6H,1-2H2/t3-,4+,5+,6-
