15
gdb 66742	2.54771	2.45616	1.82219	2.8902	68.36	-0.2053	-0.0604	0.1449	792.6336	0.112768	-416.652927	-416.64657	-416.645626	-416.683126	26.553	
O	 0.1357970651	 1.5072425987	-0.3656145897	-0.476177
C	 0.0578198153	 0.1541883928	-0.1664525289	 0.348985
C	-1.1447181729	-0.7877235076	 0.1859190255	-0.14945
C	-0.3776549018	-1.8434667435	-0.5286358939	-0.026607
C	 0.5916609367	-0.8134313573	-1.2458249305	-0.103509
C	 2.1265802172	-0.8315975835	-0.8906400066	-0.191612
N	 2.0533474297	-1.1218394801	 0.5863258676	-0.215473
C	 0.871232825	-0.7247335566	 0.8380398091	 0.106632
N	-0.2610970662	-1.6362677797	 1.0188488553	-0.16078
H	 0.0867807608	 1.958351087	 0.4848543823	 0.296683
H	-2.2001561594	-0.648525124	 0.3730837158	 0.111962
H	-0.6613596553	-2.8367284535	-0.8496492901	 0.117827
H	 0.3016252835	-0.6383740213	-2.2854075139	 0.090678
H	 2.7042758087	-1.6461421777	-1.3364076546	 0.125874
H	 2.5909924136	 0.1203255163	-1.1829444072	 0.124967
229.0576	254.1017	332.8274	357.1768	443.6508	553.7306	577.8682	607.3288	654.9599	704.4411	758.9665	813.6212	840.8765	862.4253	892.6931	912.2342	943.5888	966.461	986.2321	1015.1278	1032.4788	1079.0022	1123.7759	1157.7253	1181.6942	1190.0822	1241.9278	1282.2362	1290.932	1321.7455	1390.962	1475.1004	1606.8855	3012.8172	3087.0882	3091.2116	3208.1002	3224.0752	3794.1647
OC12C3C4C1CN=C2N34	O[C@@]12[C@H]3[C@H]4[C@@H]1C[N][C]2N34	
InChI=1S/C6H6N2O/c9-6-2-1-7-5(6)8-3(2)4(6)8/h2-4,9H,1H2	InChI=1S/C6H6N2O/c9-6-2-1-7-5(6)8-3(2)4(6)8/h2-4,9H,1H2/t2-,3+,4+,6+,8?/m0/s1
