20
gdb 105921	3.27981	1.55997	1.35592	1.7975	80.96	-0.2117	0.0769	0.2885	1029.4117	0.172275	-365.921146	-365.913752	-365.912808	-365.953029	29.905	
C	-0.3070705935	 1.4677286429	-0.0741008229	-0.376217
C	 0.2068335165	 0.0234042101	 0.0042377196	-0.319085
C	 0.8546640364	-0.4446256038	-1.2653802393	 0.37517
C	 1.1010561428	-1.8602698483	-1.7743345087	-0.190781
C	 0.1076258852	-0.9896082638	-2.4894851206	-0.073877
N	 1.0001627161	-0.6613913416	-3.6447440212	-0.159423
C	 1.5146355832	 0.7246274409	-3.3301470234	-0.184633
C	 2.0808668144	 0.1458906888	-2.0203760346	-0.137736
C	 2.1208342268	-1.2381380654	-2.7506479863	-0.005422
H	 0.5073427094	 2.1649466521	-0.297937845	 0.119637
H	-1.0621749871	 1.5760193608	-0.8593328083	 0.118743
H	-0.7571754443	 1.7770586104	 0.8740929308	 0.112382
H	 0.915984642	-0.0654546731	 0.838280484	 0.099407
H	-0.6245773012	-0.6519965999	 0.2460029086	 0.099448
H	 1.0030697745	-2.8307599873	-1.3069267199	 0.090978
H	-0.9696937469	-1.0620912069	-2.5731214458	 0.08733
H	 2.2890710124	 0.9932440302	-4.0554847009	 0.103744
H	 0.751733856	 1.508157173	-3.2874579117	 0.100082
H	 2.9005884553	 0.5799262635	-1.4469548415	 0.063906
H	 2.9851301317	-1.6976921225	-3.2264227028	 0.076346
84.7145	136.9467	202.6558	307.4264	353.1233	435.7435	544.7535	621.6475	743.2236	763.0776	773.0962	813.0229	829.2141	837.1621	855.0402	886.3544	893.5495	929.6063	939.7514	978.1461	991.2622	995.5935	1043.6135	1044.3517	1087.3071	1109.0527	1137.7133	1150.7627	1162.691	1199.0525	1206.9853	1210.6513	1237.8361	1273.1161	1285.0264	1318.2637	1352.5141	1407.9105	1423.5695	1482.8396	1495.5004	1498.4674	1506.9543	3010.2077	3034.1594	3039.6669	3043.6587	3101.2431	3102.511	3107.3353	3108.6392	3131.4517	3186.531	3205.31
CCC12C3C1N1CC2C31	CC[C@@]12[C@H]3[C@@H]1N1C[C@@H]2[C@@H]31	
InChI=1S/C8H11N/c1-2-8-4-3-9-6(4)5(8)7(8)9/h4-7H,2-3H2,1H3	InChI=1S/C8H11N/c1-2-8-4-3-9-6(4)5(8)7(8)9/h4-7H,2-3H2,1H3/t4-,5-,6+,7+,8-/m1/s1
