17
gdb 69090	2.57746	1.6298	1.23773	1.2087	75.02	-0.2257	0.0276	0.2533	1044.6287	0.133788	-421.77104	-421.762598	-421.761654	-421.803694	32.375	
C	-0.1267411909	 1.5718354274	-0.0074707867	-0.46219
C	 0.1389967148	 0.0973549352	-0.0000157577	 0.355301
C	-0.6504696416	-0.8926917858	 0.8281449115	-0.414551
C	 0.8438854401	-0.6823221844	 1.0918863749	 0.185829
O	 1.7278023946	-1.5701340769	 0.4399554013	-0.291487
C	 1.3519898113	-1.5871479369	-0.9256524768	-0.004175
O	 0.6848727088	-0.3735871515	-1.2099555935	-0.289653
C	 1.332722747	-0.1336826078	 2.3147590611	 0.230232
C	 1.7111633916	 0.3478384106	 3.3496215273	-0.385921
H	 0.7652040894	 2.1141137311	-0.3336321981	 0.136262
H	-0.9488778632	 1.8139886375	-0.6883760726	 0.131732
H	-0.3952610254	 1.9132594948	 0.9951075675	 0.1325
H	-1.326276229	-0.4782385719	 1.5675215286	 0.132572
H	-0.966734438	-1.8364936718	 0.3983362652	 0.12743
H	 2.2496270575	-1.6611311866	-1.5471190435	 0.126519
H	 0.6884306111	-2.4444296062	-1.1246627254	 0.096745
H	 2.055483802	 0.7672717831	 4.2623382969	 0.192855
122.9686	138.3993	184.5317	209.2659	247.1253	318.0888	388.0592	451.707	503.0025	521.6106	571.383	580.7682	686.5277	688.4364	732.766	772.5127	859.7251	900.9075	941.581	951.1566	993.6048	1050.5515	1081.5265	1109.5534	1130.4038	1163.012	1222.264	1239.9562	1288.821	1377.1407	1422.5653	1432.7111	1468.2145	1476.5802	1499.0481	1552.6123	2240.4747	2964.9262	3043.9033	3079.1269	3112.2874	3130.1047	3140.4338	3233.1222	3502.4965
CC12CC1(OCO2)C#C	C[C@]12C[C@]1(OCO2)C#C	
InChI=1S/C7H8O2/c1-3-7-4-6(7,2)8-5-9-7/h1H,4-5H2,2H3	InChI=1S/C7H8O2/c1-3-7-4-6(7,2)8-5-9-7/h1H,4-5H2,2H3/t6-,7+/m0/s1
