17
gdb 43421	2.31033	1.69142	1.10849	4.1747	78.67	-0.2401	-0.0565	0.1836	1097.1849	0.136203	-421.827292	-421.819225	-421.818281	-421.861502	29.774	
O	 0.4836605873	 0.2949299272	 1.0696025317	-0.327224
C	 0.0651855368	 1.1937978065	 0.3624025363	 0.312382
C	-1.4116337159	 1.282984321	 0.1382089897	-0.147313
C	-2.1325381086	 1.5655206848	-0.945880109	-0.045622
C	-1.6662008352	 1.8132309306	-2.3482177003	-0.139339
O	-0.2924931063	 1.6067597522	-2.5707820672	-0.23461
C	 0.5450161902	 2.7341496295	-2.4881038903	-0.139334
C	 1.1981676933	 2.9508433298	-1.1569984257	-0.045582
C	 1.011037269	 2.2900314063	-0.0154607445	-0.147302
H	-1.9471235471	 1.0048840197	 1.0431133514	 0.119522
H	-3.2181374591	 1.5450745877	-0.8531575504	 0.101473
H	-2.1963876761	 1.1082711576	-3.0045605742	 0.128221
H	-1.9731753206	 2.821274761	-2.6744758769	 0.107762
H	 1.3428381013	 2.5832736226	-3.2294389931	 0.12819
H	 0.0109394845	 3.6479937783	-2.7987045664	 0.107788
H	 1.9819436032	 3.7075217385	-1.1829401211	 0.101476
H	 1.6801416633	 2.5119910366	 0.8127707901	 0.119511
21.3681	62.7671	207.0117	283.9153	311.5967	336.7082	435.6727	498.1774	533.8856	570.4969	667.2425	690.5351	758.8666	804.0164	869.0701	904.0085	905.8586	981.4206	1001.6127	1026.1762	1046.1134	1067.9223	1134.7496	1195.2829	1248.5911	1271.4134	1307.6101	1325.6179	1399.1311	1408.5218	1409.4257	1418.6912	1461.6425	1482.6143	1712.651	1725.6906	1743.5343	2961.9934	2969.3437	3017.8353	3021.3289	3130.28	3130.569	3161.9128	3163.3271
O=C1C=CCOCC=C1	O=C1C=CCOCC=C1	
InChI=1S/C7H8O2/c8-7-3-1-5-9-6-2-4-7/h1-4H,5-6H2/b3-1-,4-2-	InChI=1S/C7H8O2/c8-7-3-1-5-9-6-2-4-7/h1-4H,5-6H2/b3-1-,4-2-
