17
gdb 87300	2.23323	1.30402	0.95737	3.3025	79.53	-0.2672	0.0132	0.2805	1261.7139	0.133902	-380.826025	-380.816482	-380.815538	-380.860733	34.447	
C	 0.0231825618	 1.5121883071	-0.1537601429	-0.407073
C	 0.0604152673	 0.0148303693	 0.031299733	-0.036144
N	 1.365473368	-0.6488171074	 0.0141166295	-0.343072
C	 0.585584484	-0.6706935966	 1.2657129762	 0.142934
C	 1.1833327864	 0.0850011304	 2.4534339199	-0.421563
C	 2.1921117486	-0.6926740579	 3.1630988996	 0.31021
C	 3.0170094088	-1.3466365483	 3.7408675452	-0.429039
C	-0.079871707	-1.9098652313	 1.6121427541	 0.257137
N	-0.6160469041	-2.9008637492	 1.8740371578	-0.338085
H	 0.899879657	 1.997203863	 0.2790465065	 0.135971
H	 0.0095581955	 1.7489899441	-1.2225578316	 0.13476
H	-0.8788073125	 1.9383795265	 0.2967669794	 0.131337
H	-0.7639000493	-0.5133144583	-0.4455185062	 0.112037
H	 1.3288730958	-1.549972175	-0.4548393532	 0.253754
H	 1.6273471404	 1.0117730661	 2.0805945886	 0.146966
H	 0.3759571919	 0.3665242503	 3.1407062712	 0.145807
H	 3.7456554374	-1.9241348027	 4.2539728529	 0.204064
51.1721	107.6039	145.2953	170.9427	177.1256	235.1311	322.4128	330.0268	388.4646	432.252	500.1349	571.3151	591.9528	628.5451	656.5364	716.4668	802.7566	865.3444	924.3971	963.6638	979.6437	1040.1545	1059.3565	1099.7801	1121.9383	1214.5099	1238.0849	1299.5531	1315.5307	1355.5852	1410.2662	1452.8687	1454.8723	1487.7431	1500.8391	2246.2309	2348.7329	3037.489	3044.7677	3096.2322	3106.5592	3119.3917	3142.0386	3506.3146	3516.3623
CC1NC1(CC#C)C#N	C[C@H]1N[C@]1(CC#C)C#N	
InChI=1S/C7H8N2/c1-3-4-7(5-8)6(2)9-7/h1,6,9H,4H2,2H3	InChI=1S/C7H8N2/c1-3-4-7(5-8)6(2)9-7/h1,6,9H,4H2,2H3/t6-,7-/m1/s1
