19
gdb 86675	2.23543	1.42751	1.08647	1.329	76.37	-0.2504	-0.0277	0.2227	1181.1412	0.157061	-423.00647	-422.997443	-422.996499	-423.040846	33.056	
C	-0.5140803097	 1.0926157152	-1.2784715391	-0.417303
C	 0.2371886259	-0.1296557897	-0.7736357606	-0.050506
C	 1.7394503631	-0.3093678773	-1.1542635417	-0.264116
C	 2.0642651351	-0.735807068	 0.3002772663	-0.171614
C	 3.2389566554	-0.0966364893	 0.9877149597	 0.130417
O	 3.928849527	 0.7666450215	 0.5047515785	-0.243284
C	 0.6626882288	-0.1984500749	 0.6988758416	 0.420983
C	 0.2990163541	 0.6714477766	 1.8206396112	-0.260868
O	-0.1224797743	-0.701510288	 1.7529173229	-0.265908
H	 0.0281055857	 2.0144966203	-1.042886001	 0.120631
H	-0.6420570827	 1.0482922351	-2.3651228235	 0.122413
H	-1.5117650336	 1.1596858724	-0.8310907857	 0.123075
H	-0.3225703338	-1.0420855195	-1.0105759988	 0.089798
H	 1.9655921696	-1.0351573203	-1.936114817	 0.108672
H	 2.2305077811	 0.6375382337	-1.3903521141	 0.129044
H	 2.0941867624	-1.8206911658	 0.4509874048	 0.102919
H	 3.4247700712	-0.4597094218	 2.0244307917	 0.082089
H	 1.0269441939	 0.8981443203	 2.5984236731	 0.120917
H	-0.4937295593	 1.4077940194	 1.7014051418	 0.122639
50.7223	73.1274	197.2218	210.5011	219.4388	236.0931	283.2903	352.2683	437.1608	479.5025	533.4289	647.2395	718.0528	815.5085	852.9484	872.1509	916.5058	920.9813	937.6565	978.7051	1053.6788	1078.2451	1118.6472	1122.2231	1134.9784	1155.1643	1163.7921	1167.1273	1214.9177	1254.4989	1275.2136	1336.962	1377.1322	1406.1313	1417.6778	1422.1351	1492.0221	1495.7969	1498.137	1534.0542	1819.3454	2869.0905	3029.6353	3040.3703	3056.2033	3078.9625	3086.8631	3097.7119	3102.1924	3136.7557	3173.4913
CC1CC(C=O)C11CO1	C[C@H]1C[C@@H](C=O)[C@]21CO2	
InChI=1S/C7H10O2/c1-5-2-6(3-8)7(5)4-9-7/h3,5-6H,2,4H2,1H3	InChI=1S/C7H10O2/c1-5-2-6(3-8)7(5)4-9-7/h3,5-6H,2,4H2,1H3/t5-,6-,7+/m0/s1
