18
gdb 20821	3.12534	1.78799	1.2477	1.9387	73.89	-0.2273	0.0316	0.2589	1007.6891	0.154852	-344.022064	-344.013682	-344.012737	-344.055458	30.289	
C	-0.0485638641	 1.5917143363	 0.077516378	-0.365377
C	-0.052034598	 0.0554401838	-0.0137058836	-0.306525
C	 0.6658396374	-0.4778206259	-1.2194247995	 0.154545
C	 0.1181745836	-0.8810759879	-2.4202582237	-0.120916
N	 1.1490492738	-1.2641466643	-3.2115066761	-0.189133
N	 2.3469863453	-1.1445080346	-2.6071164425	-0.286565
C	 2.0660155146	-0.6647432815	-1.396409999	 0.277395
C	 3.1645414985	-0.4009600667	-0.4145494938	-0.499883
H	 0.9725143519	 1.9839812568	 0.117367774	 0.121016
H	-0.5376357413	 2.0348808299	-0.7956280533	 0.11655
H	-0.5757580445	 1.9331274065	 0.9744432551	 0.108783
H	 0.4036264433	-0.3564932592	 0.8955294112	 0.103161
H	-1.0886361264	-0.3011214936	-0.0193885204	 0.099583
H	-0.9061153568	-0.9274260252	-2.7575130532	 0.126296
H	 1.1093733318	-1.6251619979	-4.1486656277	 0.270345
H	 3.266075779	 0.667784789	-0.1932510523	 0.127152
H	 2.9822035785	-0.9107025404	 0.5384282965	 0.124366
H	 4.1148249335	-0.7560797353	-0.8187196297	 0.139205
41.2177	115.1376	155.6347	191.4457	263.3561	269.3761	403.7722	411.9323	479.1613	620.1817	674.1352	702.3391	723.7892	783.8335	795.4535	945.9064	966.5037	1006.6177	1054.4408	1062.8973	1081.2917	1092.8487	1167.9662	1226.5785	1282.1246	1320.2002	1360.6006	1400.0466	1406.5016	1411.7849	1476.0485	1480.3007	1485.1526	1492.0917	1496.1231	1504.2596	1514.5755	1609.025	3023.1268	3029.5473	3033.8002	3057.2372	3077.7066	3103.9344	3108.8964	3130.3866	3250.9516	3682.1375
CCC1=CNN=C1C	CCc1c[nH]nc1C	
InChI=1S/C6H10N2/c1-3-6-4-7-8-5(6)2/h4H,3H2,1-2H3,(H,7,8)	InChI=1S/C6H10N2/c1-3-6-4-7-8-5(6)2/h4H,3H2,1-2H3,(H,7,8)
