19
gdb 113307	2.55691	1.05161	0.84424	1.7512	78.83	-0.2584	0.0217	0.2801	1412.8818	0.155723	-422.967732	-422.957507	-422.956563	-423.003379	36.923	
C	 0.5412407991	 1.3708073371	 0.3247277662	-0.382564
C	-0.2578195425	 0.1534234017	-0.1549866646	-0.270234
C	 0.3927500893	-0.5240406388	-1.351924273	 0.172422
O	 1.6001158505	-1.2699024785	-1.0759747801	-0.292964
C	 0.4539290044	-1.9956067821	-1.5387097647	-0.011309
C	-0.1050932458	-3.0314139721	-0.5934029461	-0.095351
O	 0.7292005207	-4.1780614543	-0.5673671676	-0.414843
C	 0.4506654459	 0.2904801276	-2.5489717494	 0.30573
C	 0.4689273238	 0.9792928075	-3.5340126014	-0.429455
H	 1.5521118959	 1.0741799425	 0.6194711674	 0.13268
H	 0.6252059609	 2.1229075277	-0.4648047064	 0.133063
H	 0.0551407221	 1.8345031127	 1.1876245175	 0.115106
H	-0.351964599	-0.5686152558	 0.6591458805	 0.10862
H	-1.2723295016	 0.4544479186	-0.4412145431	 0.112649
H	 0.5520659555	-2.350670945	-2.5656937367	 0.105427
H	-0.2409498024	-2.6137538976	 0.4121583228	 0.097103
H	-1.0817809917	-3.3713493372	-0.9543957658	 0.118627
H	 1.6020933234	-3.8840599747	-0.2830016328	 0.294561
H	 0.4948326415	 1.5815227807	-4.4086213428	 0.200732
53.349	78.5231	130.4636	143.6082	172.2172	207.7692	254.2192	312.9445	379.9245	397.4273	417.7288	494.8772	556.4446	622.3714	650.7534	664.3168	671.2593	774.5969	815.2125	906.6819	966.7482	981.2681	1042.4536	1065.8888	1090.2912	1113.8613	1132.8242	1216.5592	1239.0731	1294.9971	1320.8079	1365.8274	1369.796	1408.7581	1417.3769	1466.0683	1473.9214	1492.545	1497.0637	1509.0051	2235.5409	3022.6979	3044.961	3046.8624	3077.6828	3101.4176	3108.9993	3117.8451	3125.6854	3500.8921	3801.9384
CCC1(OC1CO)C#C	CC[C@]1(O[C@H]1CO)C#C	
InChI=1S/C7H10O2/c1-3-7(4-2)6(5-8)9-7/h1,6,8H,4-5H2,2H3	InChI=1S/C7H10O2/c1-3-7(4-2)6(5-8)9-7/h1,6,8H,4-5H2,2H3/t6-,7+/m0/s1
