21
gdb 111101	2.3296	1.46945	1.17207	1.8134	77.26	-0.2423	0.0663	0.3086	1163.3576	0.183258	-424.202989	-424.194368	-424.193424	-424.236256	33.517	
C	 0.0555360236	 1.6911651823	 0.0044994425	-0.380333
C	-0.2209257815	 0.1832381022	-0.0448732817	-0.225195
C	 0.5834339038	-0.50905944	-1.1362223166	 0.055309
C	 2.1163353408	-0.747686466	-1.0699486112	 0.059054
C	 2.3466702856	-1.5659517413	 0.2162575322	-0.271059
C	 1.2173403771	-2.6250961859	-0.021863838	 0.126654
O	 0.198326137	-2.688429267	 0.9598064887	-0.434425
C	 0.6785571498	-2.0433702722	-1.3465915011	 0.013693
O	 1.9355631193	-1.8188297221	-2.0563960015	-0.303419
H	 1.1060733946	 1.8977221278	 0.2384318096	 0.113334
H	-0.166758065	 2.1696453674	-0.9559390671	 0.114107
H	-0.5552697772	 2.1801898019	 0.7694374384	 0.112617
H	-0.0256653812	-0.27195491	 0.9280886799	 0.113328
H	-1.2872329047	 0.013616529	-0.2418409215	 0.09915
H	 0.3655308088	-0.0651051885	-2.1129063193	 0.082729
H	 2.8527710525	 0.0031297039	-1.3572613477	 0.076326
H	 3.3466654937	-2.0045143373	 0.2340434777	 0.104035
H	 2.1880514207	-0.9984409341	 1.1376586554	 0.101047
H	 1.6379603085	-3.620851417	-0.2076859353	 0.079098
H	 0.5614076855	-3.1113821016	 1.7434344047	 0.287103
H	-0.0604794518	-2.6239116115	-1.898616658	 0.076848
67.427	151.074	188.9248	220.5341	259.1007	263.1033	350.1702	408.6756	455.7829	527.3371	583.8333	712.5082	746.5561	813.3686	836.6587	849.1392	871.7518	904.5177	941.3937	961.9214	986.9428	1008.7829	1046.2792	1066.4414	1091.0464	1107.9346	1152.9437	1168.0542	1187.0219	1200.9681	1221.3897	1250.9443	1280.8094	1289.2839	1300.708	1322.0946	1347.1267	1355.9994	1407.5038	1415.5697	1427.1094	1475.7382	1495.6264	1500.457	1511.8363	3025.9732	3027.8536	3032.7347	3061.2259	3064.2497	3086.1685	3101.7181	3115.1479	3118.3283	3120.5427	3126.274	3828.5754
CCC1C2CC(O)C1O2	CC[C@H]1[C@H]2C[C@@H](O)[C@@H]1O2	
InChI=1S/C7H12O2/c1-2-4-6-3-5(8)7(4)9-6/h4-8H,2-3H2,1H3	InChI=1S/C7H12O2/c1-2-4-6-3-5(8)7(4)9-6/h4-8H,2-3H2,1H3/t4-,5+,6+,7+/m0/s1
