17
gdb 127038	3.36105	1.0873	0.8309	1.3762	72.05	-0.1975	0.0154	0.2129	1359.5269	0.136671	-451.324369	-451.315019	-451.314075	-451.359134	32.789	
C	-0.0137112711	 1.4993436562	-0.0180725515	-0.393409
C	-0.0010772443	-0.0169715046	 0.0023898005	-0.041728
O	 0.6948239847	-0.4633365461	-1.1685021127	-0.285244
C	 0.805103814	-1.7938537885	-1.3152257176	 0.356502
N	 0.3152336106	-2.7099020491	-0.4925610873	-0.301663
N	 0.6506494762	-3.8548971245	-1.0923597101	-0.115616
N	 1.3491190359	-3.7443258677	-2.2294822332	-0.276937
C	 1.4538158244	-2.432417817	-2.4015320109	 0.247386
N	 2.14726487	-1.8332631175	-3.4462628625	-0.598559
H	 1.0053378711	 1.8961864894	-0.0134453441	 0.130815
H	-0.5249126127	 1.8719799733	-0.9103158557	 0.127225
H	-0.5373039725	 1.8792750277	 0.8640578845	 0.12201
H	 0.5073116763	-0.406596284	 0.8927196665	 0.117462
H	-1.0162882844	-0.4323346948	-0.0014888504	 0.11619
H	 0.5087033413	-4.7433718722	-0.6465238888	 0.285482
H	 2.2394733645	-2.4415777113	-4.2488186036	 0.254983
H	 1.7578396458	-0.9378595591	-3.7087548931	 0.255099
67.0763	82.3104	128.5305	151.2589	224.6635	244.242	283.3753	295.53	350.9535	409.4623	539.0066	660.1008	673.6284	706.3252	773.5148	814.8045	823.6675	927.3112	968.8272	1069.5824	1101.9052	1131.4763	1184.1953	1186.9653	1242.0167	1292.58	1292.8527	1396.5583	1419.4195	1434.6935	1471.6161	1484.2905	1498.6549	1522.2081	1602.4074	1608.1045	1649.5369	3025.7141	3046.3435	3061.7964	3121.524	3123.9705	3548.8227	3648.0733	3701.8822
CCOC1=NNN=C1N	CCOc1n[nH]nc1N	
InChI=1S/C4H8N4O/c1-2-9-4-3(5)6-8-7-4/h2H2,1H3,(H3,5,6,7,8)	InChI=1S/C4H8N4O/c1-2-9-4-3(5)6-8-7-4/h2H2,1H3,(H3,5,6,7,8)
