18
gdb 89914	5.47214	0.87459	0.82926	4.0035	74.28	-0.2226	-0.0001	0.2225	1394.5326	0.145925	-439.048735	-439.040009	-439.039065	-439.082557	31.865	
C	-0.2156532606	 1.5083593699	 0.2058832952	-0.327345
N	 0.0513866416	 0.0877137149	 0.0759289092	-0.067882
C	 0.9830443813	-0.3702553261	-0.9974304919	-0.245564
C	 1.807521205	-1.1007559227	 0.0625948658	 0.400887
C	 2.3150971244	-0.1441238103	 1.1087293229	-0.355118
C	 0.855506783	-0.5713094979	 1.1026947757	-0.087903
O	 2.2648317344	-2.4096643811	-0.0938135133	-0.230302
C	 3.5806177566	-2.5737080373	-0.3805091074	 0.149555
O	 4.0610406464	-3.6480937015	-0.5700110937	-0.265686
H	 0.6880039578	 2.1331175854	 0.319145065	 0.095179
H	-0.7598589633	 1.8567944884	-0.677460123	 0.126606
H	-0.853256447	 1.675625399	 1.0798123151	 0.127546
H	 0.4890081456	-1.0385911262	-1.7093410565	 0.126777
H	 1.5056557059	 0.4265328904	-1.5430668792	 0.100342
H	 2.9007127385	-0.6068939906	 1.8973219065	 0.129862
H	 2.6225063976	 0.8640008376	 0.8445206994	 0.1187
H	 0.3949550041	-1.0624585521	 1.9524277949	 0.11465
H	 4.1311979588	-1.6160625598	-0.4063947646	 0.089695
61.7289	112.0486	138.0205	210.0977	229.5931	270.5002	355.7211	387.0963	418.731	497.7527	525.2455	672.7802	775.2195	832.51	875.426	942.3995	968.3699	986.2186	1003.9899	1045.6186	1050.8254	1070.2442	1089.9224	1122.8707	1158.9526	1179.1033	1208.6389	1224.0624	1236.2322	1296.8825	1306.2242	1382.1266	1418.9609	1451.3555	1477.9055	1487.3319	1500.8879	1508.9874	1872.5411	2949.4719	2980.3619	3014.6361	3064.4508	3081.0577	3106.4131	3118.0599	3177.7246	3208.3436
CN1CC2(CC12)OC=O	CN1C[C@]2(C[C@@H]12)OC=O	
InChI=1S/C6H9NO2/c1-7-3-6(9-4-8)2-5(6)7/h4-5H,2-3H2,1H3	InChI=1S/C6H9NO2/c1-7-3-6(9-4-8)2-5(6)7/h4-5H,2-3H2,1H3/t5-,6+/m1/s1
