23
gdb 67450	2.09493	1.80778	1.7405	0.2285	87.57	-0.2567	0.0769	0.3336	1023.9782	0.208494	-351.155192	-351.147318	-351.146374	-351.187163	32.489	
C	-0.0414155835	 1.5251498143	 0.0466944117	-0.520567
C	 0.0011324628	 0.0185022294	-0.0223967387	 0.390872
C	 0.6704283153	-0.8216869009	-1.1736443511	-0.074895
C	 1.676375304	-1.3988980895	-0.1560340992	-0.234213
C	 0.8539926081	-0.7879567752	 1.0223626596	-0.059806
C	-0.0897997343	-1.7658531327	 1.766407425	-0.228992
C	-1.5116727734	-1.5356820494	 1.1881764853	-0.218538
C	-1.3044826345	-0.8203421577	-0.1492949371	-0.057826
C	-0.6451942846	-1.6371130449	-1.3084603703	-0.242522
H	 0.9666580415	 1.9562404678	 0.0546503011	 0.11209
H	-0.5766946622	 1.9512755368	-0.809864252	 0.111572
H	-0.5508338587	 1.8656685758	 0.9572779574	 0.112501
H	 1.0695961751	-0.3827022728	-2.0899333818	 0.054431
H	 1.8125403924	-2.4863658185	-0.1496441106	 0.084989
H	 2.6609174489	-0.9313363086	-0.2495366067	 0.093582
H	 1.4485516497	-0.1833703665	 1.7112764865	 0.060059
H	 0.2366972093	-2.7997384118	 1.6113201323	 0.096484
H	-0.0744776733	-1.5998058908	 2.8476180576	 0.093789
H	-2.08062992	-2.466123004	 1.0857789184	 0.092355
H	-2.0878581408	-0.8865626317	 1.8586795591	 0.092967
H	-2.1912764302	-0.2664626583	-0.4695050882	 0.056925
H	-1.1460475595	-1.4833547784	-2.2674502825	 0.096751
H	-0.5538243622	-2.7165470125	-1.1455970056	 0.08799
92.7537	195.3756	216.3621	246.4881	339.2803	354.2497	390.4612	567.2548	579.6245	633.6067	658.3763	771.6899	792.6892	810.0747	849.611	867.8359	878.3078	906.1539	929.4593	956.6048	978.8865	1019.7203	1044.7917	1049.835	1082.5018	1111.9579	1135.5779	1147.5477	1156.5542	1170.8738	1186.1199	1213.8097	1223.7678	1247.5943	1254.3467	1285.7604	1293.491	1306.9929	1326.2822	1336.7438	1342.0245	1366.7047	1409.9747	1474.9338	1483.7445	1487.8098	1490.0389	1493.2585	1507.9182	3011.6373	3025.6358	3030.6549	3038.8504	3042.1924	3060.8112	3062.768	3070.3411	3072.9848	3077.9372	3080.608	3085.5448	3091.1524	3101.2402
CC12C3CC1CCC2C3	C[C@@]12[C@H]3C[C@@H]1CC[C@@H]2C3	
InChI=1S/C9H14/c1-9-6-2-3-7(9)5-8(9)4-6/h6-8H,2-5H2,1H3	InChI=1S/C9H14/c1-9-6-2-3-7(9)5-8(9)4-6/h6-8H,2-5H2,1H3/t6-,7+,8-,9+
