17
gdb 132519	3.07582	1.28342	0.91145	2.6344	80.21	-0.2031	0.0084	0.2115	1217.6494	0.136553	-426.049942	-426.041841	-426.040896	-426.082163	31.9	
C	-0.0006432852	 1.5218415496	 1.8274*^-6	-0.517713
C	 0.0043249066	 0.0148030716	-0.0040516026	 0.255238
C	-0.0516825814	-0.7067832493	-1.1939660615	-0.169158
C	-0.0343841201	-2.0996217827	-1.2265205114	-0.285555
C	 0.0414799033	-2.7684638756	-0.015758459	 0.317045
F	 0.0591661384	-4.1083213435	-0.004947705	-0.087444
C	 0.0945821974	-2.0984830282	 1.1950622661	-0.344888
C	 0.0780008192	-0.6990096786	 1.211715984	 0.262935
N	 0.1951313764	-0.0143009206	 2.4219950689	-0.590391
H	 0.8823342301	 1.9290084109	 0.5081109648	 0.134333
H	-0.0110282833	 1.914756952	-1.0194295504	 0.126305
H	-0.8821440442	 1.933339687	 0.5125915554	 0.118614
H	-0.1090261647	-0.1591924243	-2.1301248186	 0.092345
H	-0.0760251498	-2.6550779839	-2.1546900482	 0.101336
H	 0.1513320629	-2.6685165969	 2.1161027713	 0.091945
H	-0.0472837063	-0.5558895608	 3.2386395555	 0.247048
H	-0.2325457891	 0.8994083736	 2.4435465831	 0.248004
141.762	178.2958	228.0219	296.675	318.7461	327.9446	362.9997	449.5666	464.641	502.3781	563.7384	596.364	646.9505	726.5988	741.1963	766.151	806.7319	853.4872	924.2131	977.6329	1016.2903	1060.5536	1092.2984	1144.5505	1199.7922	1223.8415	1301.625	1333.145	1354.9038	1412.4471	1465.2803	1483.6281	1505.6792	1545.7631	1631.007	1650.7644	1667.8486	3001.8709	3053.0918	3115.0573	3168.6391	3187.6097	3214.5804	3568.2789	3667.0141
CC1=CC=C(F)C=C1N	Cc1ccc(F)cc1N	
InChI=1S/C7H8FN/c1-5-2-3-6(8)4-7(5)9/h2-4H,9H2,1H3	InChI=1S/C7H8FN/c1-5-2-3-6(8)4-7(5)9/h2-4H,9H2,1H3
