15
gdb 6733	2.77431	0.74505	0.58914	1.725	72.36	-0.2359	-0.0456	0.1903	1801.5819	0.108739	-399.803754	-399.790444	-399.7895	-399.848588	38.699	
N	-0.0941790678	 0.9577593805	-0.7057259598	-0.705934
H	 0.5548192739	 0.5036740939	-0.0676682638	 0.248857
H	 0.47413353	 1.5311860357	-1.3232810062	 0.239983
H	-0.4817831642	 0.2182105186	-1.2853827754	 0.239983
C	-0.8547149698	 1.6045101059	 2.5108435175	-0.436679
C	 0.1574171791	 0.8799809327	 2.9289308079	 0.118537
C	 1.1388396961	 0.1768038095	 3.3132908061	 0.125505
C	 2.1503168696	-0.5472085603	 3.7338350253	-0.437762
C	-0.1469719084	 1.1997241784	 6.3195770387	 0.59409
O	-1.0492554201	 1.8466057526	 5.9736125423	-0.295244
O	 0.7497282187	 0.5575858602	 6.6889688551	-0.296761
H	-1.512397916	 2.1036348692	 3.217124263	 0.144886
H	-1.0510958105	 1.7166255822	 1.4461727586	 0.178771
H	 2.8182661084	-1.053374954	 3.0423141568	 0.133086
H	 2.3552752008	-0.665702155	 4.793940634	 0.148682
10.9203	19.2281	29.7652	52.9537	69.864	70.8037	80.3099	111.9481	126.688	192.4124	215.6612	245.0678	256.2551	360.5373	574.8308	678.161	686.6368	803.8475	884.8362	907.1588	938.9334	1025.6562	1054.7625	1097.2085	1377.9141	1411.0191	1467.6343	1676.6875	1683.5347	1688.8393	2217.7153	2430.7897	3111.7517	3129.14	3204.2456	3205.552	3464.3553	3581.4021	3585.7023
[NH3+]CC#CCC([O-])=O	N.[CH2]C#C[CH2].C(=O)=O	
InChI=1S/C5H7NO2/c6-4-2-1-3-5(7)8/h3-4,6H2,(H,7,8)	InChI=1S/C4H4.CO2.H3N/c1-3-4-2;2-1-3;/h1-2H2;;1H3
