21
gdb 93816	2.32349	1.34209	0.98914	0.5028	81.01	-0.2447	0.0066	0.2513	1264.6262	0.182624	-424.244435	-424.235078	-424.234134	-424.278113	36.068	
C	-0.0493434628	 1.5467431874	 0.0797174026	-0.477229
C	-0.0365015882	 0.0452395617	-0.0143727688	 0.277305
C	-0.0493297709	-0.6110892352	-1.179343624	-0.201837
C	-0.0155430632	-2.1113590785	-1.3342131582	 0.107203
O	 0.7529899925	-2.4976876828	-2.4721973087	-0.43545
C	 0.4598579117	-2.7944682625	-0.0490080135	-0.236423
C	-0.2600367103	-2.1959357264	 1.1630540629	-0.236959
C	 0.0340298459	-0.6962708783	 1.3087931655	 0.055494
O	 1.2976979231	-0.4514591549	 1.9436257022	-0.436849
H	 0.7859281676	 1.8964021439	 0.6960099593	 0.137973
H	 0.0158742157	 2.0171421866	-0.9047102312	 0.117994
H	-0.96695453	 1.9009467173	 0.5673079687	 0.125085
H	-0.0935340132	-0.0577387539	-2.1162959941	 0.087631
H	-1.0280301286	-2.4690400057	-1.5714428603	 0.098063
H	 1.6402950852	-2.140224393	-2.3543728081	 0.272393
H	 0.3025021417	-3.8745684847	-0.1190654886	 0.104745
H	 1.5454693104	-2.6437820764	 0.0476337638	 0.074395
H	-1.3427519473	-2.3351671302	 1.0459880778	 0.099752
H	 0.0327984924	-2.6983184198	 2.0897271497	 0.10606
H	-0.6912578613	-0.2572787543	 2.0046791216	 0.084749
H	 1.9861997796	-0.6851345902	 1.3117064514	 0.275904
81.9819	152.5002	197.1777	224.3647	240.3029	286.7359	305.1632	331.4082	365.2447	416.0665	437.3957	476.655	579.3152	606.8224	651.4029	791.3308	840.5063	890.1342	892.6557	960.5568	993.7857	1014.4076	1053.3535	1063.7896	1066.0499	1088.0064	1140.1917	1159.7697	1191.1514	1212.5262	1259.6066	1279.3509	1319.0834	1345.2886	1361.4907	1375.5321	1391.6552	1406.7057	1419.5296	1421.7532	1476.0317	1478.7454	1492.8535	1496.5093	1726.4665	2995.3924	3008.6866	3021.181	3024.126	3039.4309	3078.9832	3084.6295	3086.8421	3118.3876	3139.8054	3795.9952	3807.7157
CC1=CC(O)CCC1O	CC1=C[C@@H](O)CC[C@H]1O	
InChI=1S/C7H12O2/c1-5-4-6(8)2-3-7(5)9/h4,6-9H,2-3H2,1H3	InChI=1S/C7H12O2/c1-5-4-6(8)2-3-7(5)9/h4,6-9H,2-3H2,1H3/t6-,7+/m0/s1
