16
gdb 67757	2.50213	2.04343	1.60765	4.0292	72.09	-0.2366	-0.0293	0.2073	891.4146	0.124473	-400.730448	-400.723261	-400.722317	-400.761751	28.462	
C	-0.0331220279	 1.553083339	 0.040498037	-0.500131
C	-0.0389138099	 0.0412088266	 0.0726490578	 0.117873
C	-1.3549972408	-0.6968479237	-0.1140432507	-0.129595
C	-1.2414159905	-1.9430843751	 0.3512410221	-0.09414
C	 0.11777197	-2.1163695663	 0.9503659658	-0.062227
C	 0.7046336698	-0.7910208903	 1.1622881832	-0.08371
N	 1.3431361945	-1.7246827094	 0.1097760585	-0.224152
C	 0.9437098117	-0.7252989421	-0.8550293871	 0.420457
O	 1.422831515	-0.491746744	-1.9213202017	-0.319686
H	 0.9776471692	 1.9483229311	 0.1770862673	 0.132343
H	-0.3985476388	 1.9106109338	-0.9267111237	 0.141889
H	-0.6757552323	 1.9688057672	 0.822939238	 0.126179
H	-2.1774525682	-0.2807547929	-0.6819839346	 0.119049
H	-1.967304127	-2.7414957189	 0.2813766951	 0.117257
H	 0.3628516248	-2.9619718863	 1.5816681951	 0.11555
H	 1.2949997604	-0.4275502589	 1.994258238	 0.123045
141.3242	167.6434	220.9417	291.8818	354.4626	434.2654	536.7649	618.4226	644.1239	676.5366	709.0253	733.0431	811.7472	824.2942	832.6963	873.4123	890.7556	936.1821	942.3357	960.5624	1039.1694	1072.5542	1100.2216	1127.3194	1194.553	1205.1341	1249.4172	1277.2158	1357.4343	1370.7216	1415.1588	1489.6197	1492.9031	1645.7005	1895.6584	3040.3588	3110.127	3115.7228	3188.2266	3199.504	3211.0726	3238.9534
CC12C=CC3C1N3C2=O	C[C@]12C=C[C@@H]3[C@H]1N3C2=O	
InChI=1S/C7H7NO/c1-7-3-2-4-5(7)8(4)6(7)9/h2-5H,1H3	InChI=1S/C7H7NO/c1-7-3-2-4-5(7)8(4)6(7)9/h2-5H,1H3/t4-,5-,7+,8?/m1/s1
