19
gdb 69005	2.9141	1.26598	1.1461	2.7657	76.46	-0.241	0.0761	0.317	1153.4066	0.15843	-422.968957	-422.960491	-422.959547	-423.002099	32.491	
O	-0.1607148533	 1.413235723	 0.1169710594	-0.459347
C	-0.033649205	 0.0363055506	 0.0824901523	 0.350949
C	-0.2413393738	-0.751468446	-1.1805123361	-0.409751
C	-1.1650577553	-0.9889933862	-0.0002049389	 0.328348
C	-0.4483210238	-1.8698333906	 1.032119598	-0.297936
C	 0.6863852196	-0.7957775573	 1.1468185091	-0.288637
C	-2.6291449383	-0.7900400629	-0.0868264501	-0.045807
C	-3.5863045188	-1.876946592	 0.1668612687	-0.185441
O	-3.363102711	-0.8585343778	 1.1433247441	-0.236887
H	 0.5437273133	 1.799538678	-0.4150597857	 0.286131
H	-0.6842751405	-0.1755349541	-1.9882545037	 0.113649
H	 0.453612369	-1.5257278959	-1.5009789319	 0.103524
H	-1.0221717254	-1.9730962798	 1.9543091848	 0.12494
H	-0.1415943926	-2.8599381665	 0.680195482	 0.092235
H	 1.7076058721	-1.1167609239	 0.914821249	 0.090004
H	 0.6789958802	-0.2988583292	 2.119073054	 0.115981
H	-2.944812888	 0.0213202199	-0.7440899934	 0.093784
H	-4.5642033391	-1.862719895	-0.3131190049	 0.113309
H	-3.2142706994	-2.8659935642	 0.4315084234	 0.110952
78.5215	126.385	166.1187	223.7118	263.2427	309.1485	373.9315	432.5239	453.5536	576.0215	583.7629	710.4203	729.5096	798.0812	845.1153	859.8434	899.1549	928.455	939.5456	981.1827	1004.4431	1030.0302	1069.6552	1095.65	1115.6722	1148.2895	1155.583	1167.7661	1213.0516	1225.7563	1236.8003	1253.3377	1288.6166	1299.5074	1352.719	1385.0595	1452.2603	1479.6876	1483.9057	1520.664	1531.2203	3041.5033	3052.4205	3079.2544	3093.8889	3102.0466	3109.2648	3128.2174	3165.5852	3191.303	3791.2595
OC12CC1(CC2)C1CO1	O[C@]12C[C@]1(CC2)[C@H]1CO1	
InChI=1S/C7H10O2/c8-7-2-1-6(7,4-7)5-3-9-5/h5,8H,1-4H2	InChI=1S/C7H10O2/c8-7-2-1-6(7,4-7)5-3-9-5/h5,8H,1-4H2/t5-,6-,7-/m1/s1
