15
gdb 48810	2.23468	1.54893	1.13432	2.6904	73.26	-0.259	-0.0458	0.2131	1089.4664	0.109821	-420.558024	-420.5498	-420.548856	-420.591125	30.328	
O	-0.1428604084	 0.0225055606	 0.1631389311	-0.25658
C	-0.0164877338	 1.2176499628	 0.0594710167	 0.069078
C	 1.2916573525	 1.8898665205	-0.0467347462	 0.315014
O	 1.378926667	 3.283464433	 0.2558443714	-0.264165
C	 1.740527743	 2.8929879076	-1.0570895615	-0.035346
C	 3.1745806665	 2.3549864912	-1.0243764463	-0.261587
C	 2.7054422983	 1.2717221921	 0.0289214904	-0.260899
C	 3.3555882392	 1.2353237484	 1.3219887577	 0.328463
C	 3.9055090048	 1.2121040465	 2.3901853122	-0.446423
H	-0.8812290022	 1.9140760706	 0.0146513009	 0.093341
H	 1.1887905847	 3.3334066047	-1.8798940571	 0.125383
H	 3.4975961005	 1.9050225439	-1.9644138891	 0.124053
H	 3.9193060508	 3.0696285503	-0.6717482548	 0.133941
H	 2.6879943504	 0.2783307205	-0.4273061999	 0.134455
H	 4.3836769666	 1.1894837574	 3.3381968047	 0.20127
82.5566	125.6948	145.6279	201.2398	249.2149	332.853	450.1148	479.024	509.7745	577.1495	628.2625	639.6416	699.9076	759.099	807.8175	860.567	910.1295	952.2562	1003.7936	1019.435	1050.086	1077.4146	1132.3528	1183.8607	1201.1052	1257.3347	1279.6416	1338.102	1374.7794	1437.6451	1472.0101	1809.365	2241.438	2908.0628	3081.0296	3086.3686	3149.2902	3189.5418	3502.288
O=CC12OC1CC2C#C	O=C[C@]12O[C@H]1C[C@H]2C#C	
InChI=1S/C7H6O2/c1-2-5-3-6-7(5,4-8)9-6/h1,4-6H,3H2	InChI=1S/C7H6O2/c1-2-5-3-6-7(5,4-8)9-6/h1,4-6H,3H2/t5-,6+,7-/m1/s1
