18
gdb 124612	4.06507	1.06827	0.93949	2.4947	75.16	-0.228	-0.0089	0.2191	1289.8577	0.148565	-431.448996	-431.440008	-431.439064	-431.483672	32.84	
C	-0.1271541997	 1.3985223637	-0.2188284062	-0.385764
C	-0.0037749291	-0.1012390845	 0.0737158461	 0.066211
C	 0.7439979893	-0.3949565943	 1.3722501003	-0.391681
N	-1.3383311977	-0.7147245937	 0.0968990487	 0.135237
N	-2.0287208222	-0.9404422556	 1.1939488218	-0.133047
N	-3.1958365488	-1.4152450356	 0.8157747969	-0.280854
C	-3.1565925767	-1.4435752966	-0.5398402231	 0.448986
N	-4.2267304231	-1.8332439383	-1.3112890449	-0.576465
N	-1.9984902458	-1.0082461283	-1.0312531127	-0.330344
H	 0.8681101449	 1.8382784111	-0.330834983	 0.123453
H	-0.6877321027	 1.5655911038	-1.1415660624	 0.142013
H	-0.6414288635	 1.9083841241	 0.6014854565	 0.135608
H	 0.5048323573	-0.5869424383	-0.7643837522	 0.115901
H	 0.2424680577	 0.0631962937	 2.2272267934	 0.149319
H	 0.8152364845	-1.4697299558	 1.555246441	 0.133218
H	 1.7552774754	 0.0143973802	 1.2992248629	 0.120256
H	-4.8673983016	-2.4422406499	-0.8239826705	 0.265291
H	-3.9762498781	-2.1714310757	-2.2282679527	 0.262664
19.8335	111.3399	194.3835	225.8231	261.2604	296.8434	301.5764	329.7628	395.4057	450.107	511.017	603.7873	642.518	701.3723	772.1128	796.1321	894.7352	939.343	956.878	1029.7542	1092.3521	1107.3771	1115.1208	1148.9677	1192.4018	1252.6732	1263.8973	1353.686	1376.2271	1400.5604	1405.9657	1425.1408	1478.787	1481.9433	1488.2551	1495.7707	1511.8017	1581.1654	1652.7143	3044.8706	3055.4381	3070.2813	3120.1845	3128.6174	3132.1414	3140.8472	3578.0736	3683.3471
CC(C)N1N=NC(N)=N1	CC(C)n1nnc(N)n1	
InChI=1S/C4H9N5/c1-3(2)9-7-4(5)6-8-9/h3H,1-2H3,(H2,5,7)	InChI=1S/C4H9N5/c1-3(2)9-7-4(5)6-8-9/h3H,1-2H3,(H2,5,7)
