16
gdb 31323	2.51546	1.33238	0.92022	2.6303	75.52	-0.2596	-0.0659	0.1937	1242.079	0.124348	-437.936975	-437.928636	-437.927692	-437.970855	29.458	
C	-0.2804957869	 1.6144702777	 0.1181206712	-0.374025
C	 0.0983318076	 0.1323891538	-0.0449592616	-0.299386
C	 0.8457917214	-0.3973539626	 1.1352540164	 0.21276
C	 2.1278416308	-0.8768272877	 1.2351398689	 0.165087
O	 2.3365473394	-1.2315228718	 2.5490291557	-0.155188
C	 1.1789019237	-0.9453731684	 3.1559722219	 0.084738
N	 0.2559689442	-0.4518616504	 2.3890039538	-0.305924
C	 3.2014024791	-1.0576205239	 0.2739501372	 0.064238
O	 4.2982934204	-1.5027302908	 0.5264158044	-0.275908
H	 0.6128626665	 2.2425575573	 0.1868094073	 0.123395
H	-0.8720896832	 1.9535435696	-0.7367170906	 0.120716
H	-0.8690256507	 1.7602830306	 1.0272722742	 0.145613
H	-0.8154476597	-0.4621579919	-0.1638197604	 0.13196
H	 0.6903231728	-0.0101941864	-0.9539390829	 0.113991
H	 1.1192117939	-1.1512866153	 4.2140638747	 0.164573
H	 2.9205448806	-0.7400556497	-0.7527231502	 0.083361
46.0587	139.2796	157.1602	175.3051	224.9192	270.6874	327.3189	399.1062	543.302	629.3311	654.7723	750.2334	794.3226	800.8137	884.8519	955.1253	974.1722	1015.9091	1029.7809	1080.4776	1118.6895	1179.998	1250.5449	1293.838	1307.0732	1352.1219	1372.7225	1405.746	1427.5216	1476.9169	1495.7844	1507.1099	1540.8219	1621.6307	1785.7959	2902.5792	3039.0986	3045.8089	3086.0996	3117.3265	3131.2552	3271.0525
CCC1=C(OC=N1)C=O	CCc1c(ocn1)C=O	
InChI=1S/C6H7NO2/c1-2-5-6(3-8)9-4-7-5/h3-4H,2H2,1H3	InChI=1S/C6H7NO2/c1-2-5-6(3-8)9-4-7-5/h3-4H,2H2,1H3
