16
gdb 109194	3.63393	1.04202	0.95964	2.9602	70.65	-0.2419	0.009	0.251	1252.1165	0.125888	-434.090343	-434.081874	-434.08093	-434.124049	30.066	
C	 0.0081883279	 1.311231411	 0.1417197968	-0.237462
O	-0.078137455	-0.1084462012	-0.0380757766	-0.258775
C	-1.3106785315	-0.600394367	-0.0817141914	 0.496669
N	-2.4045264465	 0.0486638709	 0.0160524498	-0.355243
C	-3.4728244325	-0.940191659	-0.1078385646	-0.172965
C	-2.7688547467	-2.3457705865	 0.0074424962	-0.143036
N	-1.3841383389	-1.9781962508	-0.301638014	-0.3611
C	-2.9035978481	-2.9422447653	 1.346158053	 0.266546
N	-2.9970288957	-3.4190373893	 2.3951026878	-0.315607
H	 1.0735274916	 1.5401958183	 0.1637125495	 0.136468
H	-0.4818234823	 1.8302978495	-0.6856424883	 0.146133
H	-0.4705107436	 1.6066639108	 1.0786058835	 0.147965
H	-4.2369237912	-0.8063771889	 0.6613035999	 0.134352
H	-3.961643494	-0.857336164	-1.0860871581	 0.120421
H	-3.1636404793	-3.0581668924	-0.7219687249	 0.135955
H	-0.6426588242	-2.5431773661	 0.0897395214	 0.259679
62.8588	128.2233	148.872	167.9622	241.7929	262.6352	297.9812	455.5825	483.6724	571.5587	616.3071	710.6885	740.1378	803.9875	808.5437	942.6604	997.1355	1034.8188	1047.2162	1088.1924	1106.8497	1183.457	1219.481	1221.4387	1250.0152	1307.8358	1338.5547	1369.3528	1441.8604	1478.5246	1492.9224	1502.3164	1506.4884	1730.7282	2351.0583	3031.8765	3053.2152	3073.9032	3099.2832	3130.3184	3161.7077	3596.6428
COC1=NCC(N1)C#N	CO[C]1[N]C[C@@H](N1)C#N	
InChI=1S/C5H7N3O/c1-9-5-7-3-4(2-6)8-5/h4H,3H2,1H3,(H,7,8)	InChI=1S/C5H7N3O/c1-9-5-7-3-4(2-6)8-5/h4H,3H2,1H3,(H,7,8)/t4-/m0/s1
