16
gdb 31681	4.8222	0.86394	0.74389	5.9566	76.86	-0.218	-0.0271	0.1908	1447.3308	0.12463	-437.92766	-437.919025	-437.918081	-437.962196	30.731	
O	 0.0878068659	 1.2979723201	 0.4959837936	-0.403076
C	 0.0026532051	 0.0108986867	-0.0913879638	-0.190206
C	-1.4182767613	-0.4469932163	-0.0153419455	 0.342418
C	-2.5948253074	 0.2526432777	-0.0931534183	-0.330266
C	-3.6670460995	-0.6891769646	 0.0061233978	 0.187879
C	-5.0968581798	-0.4091519613	-0.0199414079	 0.070803
O	-5.9738998845	-1.2447516999	 0.0592561941	-0.292507
C	-3.0949413958	-1.9447582246	 0.1403981078	-0.149756
N	-1.745555859	-1.7832403506	 0.1292072234	-0.313826
H	 0.9249939458	 1.6904680171	 0.2307438841	 0.292057
H	 0.3418726769	 0.0398286092	-1.1404741034	 0.107632
H	 0.651338447	-0.7168561562	 0.4283037911	 0.087565
H	-2.6805574736	 1.322812728	-0.1983353636	 0.116044
H	-5.3480316693	 0.6711422708	-0.1225671236	 0.059198
H	-3.5593154327	-2.9110326483	 0.2467863451	 0.151199
H	-1.0767934478	-2.5290993479	 0.2285944192	 0.264842
28.3955	100.8239	147.5032	206.7716	246.9197	261.8066	308.9577	436.1304	480.4938	541.6616	645.1149	656.1784	718.7074	772.7869	782.6082	838.0275	980.2477	1004.1208	1027.7499	1042.8549	1080.1826	1133.7745	1153.394	1225.2315	1242.5622	1275.9481	1338.3551	1390.0734	1445.5545	1462.9895	1477.1229	1514.3578	1536.1276	1622.5061	1781.5057	2869.693	2939.4707	2961.8616	3260.8356	3279.1454	3659.6791	3827.9391
OCC1=CC(C=O)=CN1	OCc1cc(C=O)c[nH]1	
InChI=1S/C6H7NO2/c8-3-5-1-6(4-9)7-2-5/h1-3,7,9H,4H2	InChI=1S/C6H7NO2/c8-3-5-1-6(4-9)7-2-5/h1-3,7,9H,4H2
