18
gdb 128794	3.24548	1.01088	0.78213	3.9654	74.8	-0.2488	0.0004	0.2492	1443.6764	0.146367	-439.073813	-439.064563	-439.063619	-439.108908	32.212	
C	 0.0059778297	 1.39058028	-0.0201139052	-0.225344
O	 0.0137712872	-0.0178712588	-0.0165823413	-0.233551
C	 0.6764904163	-0.5592693181	 1.1021967418	-0.187254
C	 0.6297788707	-2.0486328069	 1.0127849456	 0.063284
C	 0.0630562059	-2.8145957552	 0.0475883552	 0.012216
O	 0.2292716619	-4.1178382287	 0.3201604624	-0.173197
N	 0.9338770541	-4.2394569738	 1.5128087232	-0.201835
C	 1.1695016127	-3.0138124546	 1.9203308708	 0.310347
C	 1.9189057058	-2.7729925487	 3.1911627417	-0.501645
H	 1.0265616691	 1.80375243	-0.0434164748	 0.108409
H	-0.5258529706	 1.7104756541	-0.9188318294	 0.132733
H	-0.5099827951	 1.7975255597	 0.8636430028	 0.108409
H	 1.7232914377	-0.2060157623	 1.1403007835	 0.100791
H	 0.2020408405	-0.2122352459	 2.0384163555	 0.100787
H	-0.4716905811	-2.5743771259	-0.8564966112	 0.160704
H	 2.8341255482	-2.1996612951	 3.0068755218	 0.135756
H	 1.313692098	-2.2020892748	 3.9039405346	 0.135682
H	 2.1912455589	-3.7250786649	 3.6500501528	 0.153708
50.4969	81.614	117.9483	140.5973	229.3353	247.3998	261.7437	303.3821	353.3534	466.5811	614.0219	648.3625	679.5401	791.7823	850.2195	916.1998	952.41	992.8668	1030.6276	1044.9848	1071.3955	1147.4031	1160.5296	1184.5771	1186.3638	1232.0007	1253.8461	1289.188	1393.4383	1416.766	1446.3259	1477.2197	1482.071	1485.9382	1488.3339	1501.9796	1520.4475	1532.9504	1662.9627	2931.3503	2943.8786	2974.2011	3019.3858	3036.672	3089.4796	3121.2853	3140.2801	3283.7396
COCC1=CON=C1C	COCc1conc1C	
InChI=1S/C6H9NO2/c1-5-6(3-8-2)4-9-7-5/h4H,3H2,1-2H3	InChI=1S/C6H9NO2/c1-5-6(3-8-2)4-9-7-5/h4H,3H2,1-2H3
