17
gdb 6036	2.95841	1.52753	1.42391	4.4328	59.82	-0.2511	0.0141	0.2652	959.8065	0.141505	-438.168801	-438.159972	-438.159028	-438.201917	32.523	
C	-0.0988727449	 1.6042996627	 0.0087389105	-0.439165
C	-0.0266293436	 0.0737823887	 0.0715543916	 0.085502
N	 0.665013135	-0.4417127093	 1.2673505905	-0.564551
H	-0.016017932	-0.5633919623	 2.0125936943	 0.251755
H	 1.5031532277	-1.5763853826	 0.0403675223	 0.306742
H	 1.3569510022	 0.2237543611	 1.5981269242	 0.240252
C	-1.443011636	-0.557381192	 0.0550847244	-0.088114
O	-2.1667685387	-0.2855494197	 1.2443056316	-0.422731
C	 0.6849714521	-0.4700878735	-1.1914030118	 0.432146
O	 1.5216664398	-1.481602727	-0.9406782407	-0.374528
O	 0.4640768829	-0.04993311	-2.2976131798	-0.355488
H	 0.9005927225	 2.0435207471	 0.0947187683	 0.125224
H	-0.5208901335	 1.9270876729	-0.9451380971	 0.152468
H	-0.7055112638	 1.998231011	 0.8310556386	 0.10138
H	-1.972874313	-0.2217510746	-0.8433800923	 0.127404
H	-1.3471741731	-1.6468155572	 0.0088144691	 0.12742
H	-2.4989208836	 0.6163047847	 1.2000669864	 0.294281
75.6444	125.4251	180.7982	249.0126	271.1303	315.9351	334.9952	349.6871	376.7064	390.7808	448.4011	548.4127	664.1515	744.7496	771.3253	858.8553	896.8596	928.4226	947.1397	976.1457	1071.5474	1084.5118	1123.8961	1176.612	1256.7082	1269.1972	1316.8828	1379.0729	1400.6198	1417.8699	1435.171	1492.9572	1493.9706	1503.7125	1659.9688	1857.0139	3035.4799	3041.4647	3095.8088	3097.5729	3136.854	3424.3918	3491.2647	3567.7828	3828.3911
CC([NH3+])(CO)C([O-])=O	C[C@@](N)(CO)C(=O)O	
InChI=1S/C4H9NO3/c1-4(5,2-6)3(7)8/h6H,2,5H2,1H3,(H,7,8)	InChI=1S/C4H9NO3/c1-4(5,2-6)3(7)8/h6H,2,5H2,1H3,(H,7,8)/t4-/m1/s1
