18
gdb 51744	2.42259	1.24346	0.91997	3.4127	80.31	-0.2527	0.0193	0.272	1292.248	0.146093	-401.897359	-401.888138	-401.887193	-401.932613	33.201	
N	 0.3490751921	 1.1527282621	-0.1955768181	-0.439394
C	 0.1211769573	-0.0856085114	-0.1263208199	 0.128424
O	-0.9742266451	-0.5350801088	 0.5211687647	-0.179972
C	-1.1876718093	-1.928231275	 0.5326291205	 0.156266
C	-2.2948705862	-2.3898454678	 1.4904627811	-0.253619
C	-2.7404902411	-3.4232921678	 0.4219836654	-0.229457
C	-1.9586040223	-2.6052523518	-0.665753887	-0.256297
C	-2.7794391013	-1.6995349874	-1.4420571589	 0.356751
C	-3.4612898512	-0.9460522563	-2.0844555924	-0.463038
H	 1.2160471767	 1.3175010644	-0.7027777435	 0.22919
H	 0.7448084299	-0.8891004012	-0.5430663313	 0.082959
H	-0.2428051032	-2.457586154	 0.7069588513	 0.08762
H	-1.99350954	-2.7517519168	 2.4748012297	 0.108067
H	-3.0337530653	-1.5939719094	 1.6074264954	 0.137633
H	-2.2926559952	-4.4081396116	 0.5733280874	 0.109708
H	-3.8107942024	-3.5377465936	 0.2541083677	 0.123007
H	-1.3251507701	-3.200010911	-1.3308692449	 0.101298
H	-4.0573088732	-0.2733242426	-2.6498792473	 0.200854
35.6447	86.2851	91.5699	143.5311	195.8634	241.8651	347.3077	406.8709	475.8814	535.7494	630.0416	633.2351	657.3571	704.3296	777.5432	807.2954	823.4607	898.4708	939.5904	974.7366	1020.2545	1043.1183	1054.7205	1101.359	1113.6006	1165.986	1199.9351	1239.3409	1259.4267	1268.2473	1278.8685	1290.0383	1347.6762	1389.063	1427.1755	1481.0669	1497.3669	1748.6868	2236.3284	3013.4029	3029.399	3056.4836	3077.3582	3079.8123	3132.2146	3147.1617	3504.2155	3518.5145
N=COC1CCC1C#C	[NH][CH]O[C@H]1CC[C@H]1C#C	
InChI=1S/C7H9NO/c1-2-6-3-4-7(6)9-5-8/h1,5-8H,3-4H2	InChI=1S/C7H9NO/c1-2-6-3-4-7(6)9-5-8/h1,5-8H,3-4H2/t6-,7+/m1/s1
