22
gdb 6808	6.10256	0.71006	0.66276	0.2039	76.91	-0.2479	0.0831	0.3311	1768.2593	0.196983	-387.327737	-387.317059	-387.316115	-387.364484	36.522	
C	-0.6020967689	 1.5750643845	-0.5567716324	-0.224123
O	-0.7278022582	 0.1782967734	-0.6622586094	-0.232839
C	-0.4334008608	-0.491263568	 0.5419228844	-0.064668
C	-0.6092631059	-1.9829194431	 0.297739723	-0.078254
O	-0.3510093443	-2.640814639	 1.516828034	-0.261832
C	-0.2599933934	-4.0594509396	 1.4390075974	 0.164954
C	 0.3949866621	-4.5177998022	 2.7373876458	-0.38759
C	-1.6283273717	-4.7129882734	 1.2226088324	-0.393736
H	-0.8497089688	 2.0016785633	-1.5319517894	 0.12565
H	-1.2880031277	 1.991674998	 0.1981243485	 0.103767
H	 0.4234273857	 1.8748583747	-0.2878035577	 0.1036
H	 0.5983220311	-0.2861076556	 0.8710394766	 0.091892
H	-1.1068103661	-0.1683050824	 1.3527624038	 0.093947
H	-1.630016206	-2.1674717257	-0.068310028	 0.098179
H	 0.0885868077	-2.3140219499	-0.4881625476	 0.092346
H	 0.3968654384	-4.3233761977	 0.5920707233	 0.063218
H	-0.2350705799	-4.2547817118	 3.5931379398	 0.121845
H	 0.5411167684	-5.6019497415	 2.7357643623	 0.111215
H	 1.3662114259	-4.0330925264	 2.8665423033	 0.119473
H	-2.3069815527	-4.448566401	 2.0402156572	 0.120822
H	-2.0859953187	-4.3980833685	 0.2805841536	 0.118418
H	-1.529036596	-5.8027490083	 1.194097829	 0.113715
40.5843	59.9488	102.0019	111.1826	142.4135	207.6888	237.0042	244.2497	272.0592	292.7235	405.4142	415.2859	487.6031	534.7108	827.0963	836.6568	926.1034	931.3873	944.722	1005.1605	1084.7153	1119.4932	1154.4825	1159.1949	1172.7453	1179.6247	1192.0679	1202.2843	1232.8269	1235.5541	1292.5196	1348.6184	1368.5084	1389.8678	1397.7239	1413.85	1448.5596	1480.3523	1483.6179	1485.6081	1485.9181	1495.1794	1505.0312	1510.3111	1526.7777	1536.2162	2951.6479	2960.9873	2972.8201	2976.552	2991.7567	3012.015	3022.0142	3037.2396	3042.7003	3107.4467	3112.3582	3113.7694	3116.291	3122.44
COCCOC(C)C	COCCOC(C)C	
InChI=1S/C6H14O2/c1-6(2)8-5-4-7-3/h6H,4-5H2,1-3H3	InChI=1S/C6H14O2/c1-6(2)8-5-4-7-3/h6H,4-5H2,1-3H3
