19
gdb 73183	2.47687	1.38672	1.27573	0.7276	81.08	-0.2402	0.0431	0.2833	1107.1003	0.157923	-385.831176	-385.822447	-385.821503	-385.864546	33.931	
O	 0.3509290882	 1.2078183614	-0.1558881513	-0.482192
C	 0.033643575	-0.145267434	-0.0329645785	 0.407642
C	 0.2092156244	-1.0421452498	-1.2933711759	-0.301577
C	-1.3224926896	-1.3450822734	-1.281470163	-0.219958
C	-1.4588372293	-0.6005426771	 0.0674697361	-0.06219
C	-1.0914754671	-1.458665096	 1.3114697628	-0.253378
C	 0.3476589438	-0.8316596929	 1.3412479268	-0.223778
C	 1.4997117949	-1.6982207343	 1.4619613826	 0.306312
C	 2.4559091769	-2.4271331069	 1.5249047455	-0.464132
H	 1.2906066629	 1.280631811	-0.3605088459	 0.28095
H	 0.5456156294	-0.4748175158	-2.1642268966	 0.10165
H	 0.8675239176	-1.902583328	-1.1536607454	 0.112976
H	-1.8529404577	-0.8476325946	-2.0968072847	 0.105254
H	-1.609947333	-2.4000051214	-1.2746538542	 0.098866
H	-2.2744885735	 0.1113444771	 0.1916813194	 0.074123
H	-1.676618148	-1.2622528634	 2.2111837664	 0.110885
H	-1.0930290809	-2.5343730823	 1.1222746718	 0.108577
H	 0.3873963612	-0.0379164242	 2.0943506673	 0.106229
H	 3.2991337349	-3.0681341152	 1.5981825367	 0.193742
54.7427	133.5922	168.054	234.7524	263.7604	339.3418	375.8767	402.4475	498.1675	524.2362	588.9757	616.8063	621.3741	654.5062	742.6864	763.0605	838.0363	880.5535	921.6026	931.3663	970.9491	1016.6258	1027.1111	1051.5354	1077.3984	1126.6697	1152.8101	1172.3123	1191.7382	1219.4665	1246.2264	1261.6379	1265.8208	1293.5745	1302.8009	1343.554	1370.3344	1468.2546	1479.1544	1495.776	2224.1322	3053.688	3056.7524	3065.7437	3071.4535	3102.247	3112.7115	3125.0028	3130.6732	3503.0607	3787.106
OC12CCC1CC2C#C	O[C@]12CC[C@H]1C[C@H]2C#C	
InChI=1S/C8H10O/c1-2-6-5-7-3-4-8(6,7)9/h1,6-7,9H,3-5H2	InChI=1S/C8H10O/c1-2-6-5-7-3-4-8(6,7)9/h1,6-7,9H,3-5H2/t6-,7+,8+/m1/s1
