20
gdb 105183	2.0537	1.48736	1.01748	6.0802	75.76	-0.249	0.0297	0.2787	1233.8818	0.171223	-440.315248	-440.305852	-440.304908	-440.349385	35.167	
C	-0.2016223555	 1.5024288578	-0.1577370048	-0.425716
C	 0.0299384443	 0.0128329716	-0.0241785377	-0.014226
C	 1.3609684512	-0.6135543627	-0.2999587399	-0.322988
C	 0.8007575034	-0.6147239117	 1.1259310276	 0.144151
C	 1.4604429843	 0.2638357948	 2.1737765012	-0.272674
N	 2.551224242	-0.4665524211	 2.8531300884	-0.524082
H	 1.5029372937	-1.8592221708	 3.0188963302	 0.315724
H	 3.315395754	-0.6421415619	 2.2070679245	 0.246648
H	 2.9227326138	 0.0728780633	 3.6278890127	 0.24644
C	 0.2597461372	-1.9629807054	 1.5765795618	 0.388107
O	 0.7461246856	-2.4348747092	 2.730210473	-0.38799
O	-0.5473735771	-2.5848993543	 0.9298503249	-0.352352
H	 0.6950939084	 2.091063937	 0.0566101877	 0.111661
H	-0.5053381436	 1.7405312422	-1.1826475542	 0.126554
H	-0.9991757839	 1.8468917768	 0.5095829012	 0.124202
H	-0.8157257322	-0.6045486324	-0.310324545	 0.126474
H	 1.3904273703	-1.5625777453	-0.8223103917	 0.136506
H	 2.2040394619	 0.0451918412	-0.4913426674	 0.103284
H	 1.803886331	 1.1987150028	 1.7147315006	 0.103808
H	 0.7307982812	 0.5345541373	 2.9462463771	 0.12647
72.3082	129.7734	155.3581	183.2189	209.5389	276.7218	290.0031	344.7304	381.7945	421.7896	448.9785	541.0432	584.601	730.68	746.2431	818.9515	870.2771	904.8759	914.1416	934.682	975.8592	994.9965	1014.5051	1058.4489	1069.7944	1084.1865	1133.7366	1184.0736	1200.9812	1213.8575	1276.2119	1320.4611	1337.8725	1406.3646	1417.9346	1431.8051	1478.8212	1490.9541	1498.7107	1503.4027	1513.023	1643.3239	1833.9788	3018.9081	3033.1331	3061.394	3093.6072	3101.0461	3120.4486	3169.3322	3216.1676	3219.7131	3498.2103	3583.2059
CC1CC1(C[NH3+])C([O-])=O	C[C@H]1C[C@]1(CN)C(=O)O	
InChI=1S/C6H11NO2/c1-4-2-6(4,3-7)5(8)9/h4H,2-3,7H2,1H3,(H,8,9)	InChI=1S/C6H11NO2/c1-4-2-6(4,3-7)5(8)9/h4H,2-3,7H2,1H3,(H,8,9)/t4-,6+/m0/s1
