20
gdb 31558	3.22356	1.0904	0.82744	0.9619	85.2	-0.17	0.0643	0.2343	1424.7289	0.169756	-403.187793	-403.177654	-403.17671	-403.223054	36.231	
C	 0.6159635385	 0.5991970565	-0.2657357076	-0.24218
O	-0.7141865007	 0.9302337008	 0.0906535539	-0.261049
C	-1.5946607117	-0.0922388171	 0.0023586236	 0.416332
C	-1.4926297188	-1.411171713	-0.3624804073	-0.393294
C	-2.8106506249	-1.975966205	-0.2426530464	 0.214664
C	-3.1630086585	-3.4017415837	-0.5431187469	-0.505761
C	-3.6565120027	-0.9805382276	 0.1886699032	 0.214283
C	-5.1181084067	-0.9649725909	 0.4893837826	-0.506308
N	-2.8927709881	 0.172115212	 0.3346590705	-0.388124
H	 1.2059039405	 1.5093281207	-0.1478716732	 0.131719
H	 1.0159353987	-0.1863971659	 0.3881246369	 0.12514
H	 0.6719629194	 0.2560787059	-1.3067973898	 0.125133
H	-0.6003517568	-1.9269613312	-0.6784637365	 0.086331
H	-2.5999541172	-4.1003849763	 0.088062488	 0.119446
H	-4.2258697575	-3.6009050662	-0.3798100393	 0.114338
H	-2.9386879085	-3.6642302658	-1.5844199942	 0.119435
H	-5.3261500143	-0.6932501166	 1.5330399285	 0.120417
H	-5.6667254436	-0.2555476716	-0.1447054966	 0.120411
H	-5.5515384314	-1.9528181372	 0.319648223	 0.134313
H	-3.2235654658	 1.0718621322	 0.6364434976	 0.254754
73.9038	78.0598	120.4708	175.255	191.6142	210.1062	231.6973	275.003	320.4493	358.2526	415.7882	504.965	607.1442	639.2894	646.0297	667.9609	734.7569	776.0235	985.3496	994.7628	1017.3269	1055.4809	1064.776	1095.1135	1159.8714	1183.4835	1185.5733	1233.709	1239.7826	1316.2852	1406.7932	1426.2186	1454.0768	1466.4168	1477.5931	1482.4452	1482.5949	1484.7023	1498.434	1503.6094	1512.2566	1599.4108	1658.5446	3004.9897	3007.0584	3018.0921	3042.889	3060.5703	3064.5766	3103.7327	3125.904	3137.47	3255.755	3681.8828
COC1=CC(C)=C(C)N1	COc1cc(C)c(C)[nH]1	
InChI=1S/C7H11NO/c1-5-4-7(9-3)8-6(5)2/h4,8H,1-3H3	InChI=1S/C7H11NO/c1-5-4-7(9-3)8-6(5)2/h4,8H,1-3H3
