20
gdb 71700	3.58948	1.50103	1.36802	1.8312	81.63	-0.2158	0.0819	0.2977	1038.8353	0.171654	-365.971474	-365.963753	-365.962809	-366.003	31.47	
C	-0.1001631392	 1.4617120812	 0.0803818491	-0.495638
C	-0.0239000104	-0.0381560433	-0.0347412528	 0.317598
C	-0.4223459101	-0.776903777	-1.3005583629	-0.295489
C	-0.18572732	-2.1899300888	-0.8250084583	-0.098091
N	-0.4928281573	-2.338898102	 0.6403220834	-0.206003
C	-0.3570345645	-0.9212756893	 1.14256527	-0.057452
C	 1.0745466095	-0.8149752613	 0.6869325531	-0.216532
C	 0.9287079667	-2.255906351	 0.157800778	 0.357098
C	 1.9136725547	-3.3668219909	 0.3398355504	-0.509752
H	 0.5611675474	 1.9521237575	-0.642747229	 0.119929
H	-1.1193134495	 1.8211446222	-0.1015539736	 0.12098
H	 0.1963382787	 1.7974980071	 1.0793571435	 0.119855
H	-1.4684291344	-0.5946319761	-1.5726358698	 0.103951
H	 0.2098109206	-0.5216547938	-2.1590740438	 0.101868
H	-0.4494409788	-3.0518844605	-1.4283272832	 0.090272
H	-0.8626627246	-0.6124854601	 2.0484359357	 0.090831
H	 1.9400900851	-0.3677925539	 1.1569981725	 0.085474
H	 2.2473431213	-3.4305435259	 1.381425096	 0.124356
H	 1.4616151774	-4.3261762976	 0.0715125713	 0.128799
H	 2.7981318176	-3.2154285067	-0.2903135296	 0.117947
190.9792	195.9325	219.1604	227.2483	286.7007	332.3239	417.2805	532.6488	565.9331	617.4374	700.0894	756.7227	773.0033	808.5659	850.3924	872.2526	899.939	918.3793	935.8358	966.6124	997.8791	1007.2079	1036.8969	1055.7313	1073.8077	1098.4952	1118.5121	1158.0559	1186.3306	1194.8746	1237.5526	1261.1413	1292.3679	1326.1847	1391.921	1410.0099	1422.3383	1442.0876	1481.5237	1486.8549	1491.9206	1494.0532	1502.317	3025.301	3025.8681	3034.3587	3075.809	3085.4605	3086.9043	3097.6239	3109.7469	3175.8982	3189.8472	3205.0602
CC12CC3N4C1C2C34C	C[C@]12C[C@@H]3N4[C@H]1[C@H]2[C@]34C	
InChI=1S/C8H11N/c1-7-3-4-8(2)5(7)6(7)9(4)8/h4-6H,3H2,1-2H3	InChI=1S/C8H11N/c1-7-3-4-8(2)5(7)6(7)9(4)8/h4-6H,3H2,1-2H3/t4-,5+,6-,7+,8-,9?/m0/s1
