17
gdb 126467	3.23192	1.04105	0.83124	1.3026	70.66	-0.2781	-0.0244	0.2537	1382.6014	0.1354	-455.154048	-455.144965	-455.14402	-455.18909	31.55	
C	 0.482128723	 1.2437223298	 0.3025882499	-0.380233
C	-0.1295766291	-0.0645996559	-0.2223692042	-0.292842
C	 0.5476500022	-0.5541131524	-1.4598373014	 0.364086
N	-0.0766829198	-0.6878133951	-2.59931149	-0.174405
O	 0.926363617	-1.1627550842	-3.4715988537	-0.200019
C	 2.0369718269	-1.2548294104	-2.7438849562	 0.396339
C	 3.3186512189	-1.7047229739	-3.3726226312	-0.152108
O	 4.305420464	-1.9467667731	-2.4041394531	-0.413322
N	 1.8864704487	-0.8995439274	-1.5055331183	-0.375881
H	 1.5487998363	 1.1190062211	 0.5065314431	 0.138739
H	 0.3666494814	 2.0506565758	-0.4270047073	 0.129488
H	-0.0122426606	 1.5485061712	 1.2289015652	 0.122777
H	-0.0430002862	-0.8434379036	 0.5442089493	 0.12974
H	-1.19289614	 0.0625375616	-0.4417798893	 0.133443
H	 3.1388660562	-2.6220867269	-3.947369403	 0.141477
H	 3.6343961235	-0.9350380251	-4.0970618954	 0.129138
H	 4.0378875575	-1.4805730116	-1.6013916244	 0.303581
46.3513	69.7349	127.7045	154.35	218.635	250.225	256.8606	356.5341	413.7099	469.2468	624.748	668.8602	732.0318	782.1467	805.2201	903.1249	976.7664	1023.6952	1035.2028	1061.666	1082.907	1104.048	1111.3764	1235.5479	1270.473	1286.1429	1342.5611	1354.4249	1387.4575	1413.0557	1468.4294	1475.5409	1497.2466	1501.6026	1507.7951	1565.6389	1626.0016	2969.832	3044.9679	3045.1896	3047.9972	3100.6116	3120.4763	3129.556	3767.9681
CCC1=NOC(CO)=N1	CCc1noc(CO)n1	
InChI=1S/C5H8N2O2/c1-2-4-6-5(3-8)9-7-4/h8H,2-3H2,1H3	InChI=1S/C5H8N2O2/c1-2-4-6-5(3-8)9-7-4/h8H,2-3H2,1H3
