18
gdb 11037	4.04958	1.70646	1.40699	2.0328	66.73	-0.2478	0.0797	0.3275	924.9852	0.153984	-384.942793	-384.935129	-384.934185	-384.974401	29.699	
C	 0.0895336977	 1.451144829	-0.1284053702	-0.484082
C	-0.077972816	-0.0263981992	 0.0919113093	 0.420971
C	-1.3633396297	-0.7355021772	-0.3183105432	-0.280862
C	-1.2197577192	-2.1565342378	 0.2656938758	-0.253293
C	-0.2810159604	-2.0222824799	 1.4960065087	 0.138543
O	 0.4935241161	-3.1772933433	 1.7598948798	-0.440551
C	 0.5435627487	-0.7870483378	 1.1821740325	-0.060544
O	 1.0917459513	-0.83889412	-0.1508863751	-0.311579
H	 1.0562844347	 1.7915677008	 0.2503328027	 0.131379
H	 0.0386096191	 1.6894186313	-1.1965808874	 0.128065
H	-0.7040451769	 2.0113780893	 0.3772763444	 0.122316
H	-2.2142312014	-0.2035307654	 0.1246951645	 0.103395
H	-1.5103313392	-0.7335826635	-1.4035856587	 0.106881
H	-2.176890891	-2.61238627	 0.5271289129	 0.10371
H	-0.7327273054	-2.812263836	-0.4610162472	 0.109739
H	-0.8580577333	-1.8455753712	 2.4117808771	 0.08829
H	 1.0893011378	-3.2859416853	 1.008816468	 0.286091
H	 1.1872361772	-0.3399418337	 1.936119166	 0.091531
107.4039	188.4521	204.1327	247.9876	349.2482	396.7962	404.4696	424.4278	533.0541	580.4893	656.6274	698.0391	844.4463	849.7869	860.6444	920.3985	964.7142	999.0853	1013.4709	1055.3362	1070.1058	1102.5752	1110.6196	1178.5953	1216.3688	1242.4985	1274.412	1296.0387	1320.9183	1340.2566	1344.9139	1411.1196	1432.8967	1456.223	1478.4847	1488.6228	1492.5559	1502.6569	3032.5589	3037.3166	3043.1446	3066.8152	3078.6918	3097.2752	3118.2077	3124.4802	3146.1361	3787.5978
CC12CCC(O)C1O2	C[C@]12CC[C@@H](O)[C@H]1O2	
InChI=1S/C6H10O2/c1-6-3-2-4(7)5(6)8-6/h4-5,7H,2-3H2,1H3	InChI=1S/C6H10O2/c1-6-3-2-4(7)5(6)8-6/h4-5,7H,2-3H2,1H3/t4-,5-,6+/m1/s1
