14
gdb 35146	4.75659	0.97677	0.88486	2.0303	72.05	-0.2732	-0.0343	0.2389	1239.9189	0.102353	-395.742824	-395.734954	-395.73401	-395.775965	28.324	
N	 0.0367359969	-1.25222526	 0.0523902096	-0.313474
C	 0.0261011129	-0.0991531295	-0.0129996048	 0.294024
C	 0.0160579646	 1.3718572313	-0.1353756416	-0.171289
N	-0.675293874	 1.9970869876	 0.9998370491	-0.301582
C	 0.0755420488	 3.1805689496	 1.4414217837	-0.152564
C	 1.4372885664	 2.9733237304	 0.8089104482	-0.067748
C	 1.4045318431	 1.9747884941	-0.0616370981	-0.052139
C	-0.5295019048	 4.4561220857	 0.9991868479	 0.255552
N	-1.0308673842	 5.4373088527	 0.6496801345	-0.313462
H	-0.4423398795	 1.6044832915	-1.111184655	 0.13886
H	-1.6538888699	 2.1792356422	 0.8244122758	 0.252873
H	 0.1348954317	 3.2130939217	 2.5379899554	 0.145827
H	 2.2830087185	 3.6025044826	 1.0497772138	 0.141089
H	 2.2221714997	 1.6062748601	-0.6656583884	 0.144033
54.1777	112.2168	170.7187	201.4029	282.9253	387.7563	469.8568	515.7837	539.0141	575.6371	632.4316	735.9172	817.4477	826.2225	904.8162	921.8084	970.5034	982.7339	1018.0161	1054.956	1135.2542	1143.8313	1238.3191	1309.5737	1325.1987	1334.6615	1360.8607	1449.7645	1697.525	2348.8745	2362.6806	2963.0171	3012.8417	3227.8599	3250.5921	3592.5302
N#CC1NC(C=C1)C#N	N#C[C@H]1N[C@@H](C=C1)C#N	
InChI=1S/C6H5N3/c7-3-5-1-2-6(4-8)9-5/h1-2,5-6,9H	InChI=1S/C6H5N3/c7-3-5-1-2-6(4-8)9-5/h1-2,5-6,9H/t5-,6-/m0/s1
