18
gdb 86332	2.35846	1.59226	1.19628	1.8594	67.79	-0.2494	0.0149	0.2642	1068.8018	0.148257	-476.243181	-476.234589	-476.233645	-476.276514	33.19	
N	-0.1607159564	 1.338545089	-0.1500165846	-0.517182
C	-0.1288085288	 0.0921189407	 0.3993691146	 0.378782
O	 0.7505937864	-0.2837627903	 1.162377394	-0.391812
C	-1.279449579	-0.8262296409	 0.0308465889	-0.152941
C	-1.9022668091	-0.8287922962	-1.4088776317	 0.093237
O	-1.0589356132	-0.2879815742	-2.409936227	-0.438032
C	-1.9097104103	-2.379706384	-1.3390777488	-0.254206
C	-0.8769792366	-2.3147554924	-0.1926490387	 0.101301
O	 0.4246341472	-2.4081465079	-0.7486682098	-0.445945
H	 0.6636780608	 1.9035159975	-0.0048829092	 0.257397
H	-0.6354042843	 1.4399738123	-1.0365060556	 0.273286
H	-2.0602627454	-0.7313643317	 0.7926852163	 0.11041
H	-2.8667713898	-0.3301722107	-1.5260827368	 0.090444
H	-0.2315546388	-0.7886673438	-2.3718154237	 0.290209
H	-2.8734509903	-2.7723130514	-1.0053343527	 0.109459
H	-1.5900960342	-2.9078425744	-2.2400317075	 0.116934
H	-1.0038284351	-3.0026004132	 0.6504169404	 0.07697
H	 1.0195272069	-2.0250413583	-0.0859665682	 0.301689
65.4957	104.7247	188.0776	205.7819	330.1188	369.3189	383.1064	451.4753	499.3332	510.4134	562.0272	594.4548	625.8013	639.323	707.4351	787.6234	833.9546	880.8339	907.9891	928.748	993.5932	1011.8922	1030.8407	1110.343	1133.4983	1147.7551	1192.4542	1216.6893	1255.2214	1263.4067	1276.7719	1320.833	1343.9704	1389.373	1420.2911	1450.465	1464.2296	1631.7219	1763.7303	3040.5693	3064.2411	3070.1469	3091.1949	3130.3133	3550.451	3676.4177	3716.6203	3744.4237
NC(=O)C1C(O)CC1O	NC(=O)[C@H]1[C@@H](O)C[C@H]1O	
InChI=1S/C5H9NO3/c6-5(9)4-2(7)1-3(4)8/h2-4,7-8H,1H2,(H2,6,9)	InChI=1S/C5H9NO3/c6-5(9)4-2(7)1-3(4)8/h2-4,7-8H,1H2,(H2,6,9)/t2-,3+,4-
