18
gdb 34721	3.63448	1.4397	1.41627	1.25	79.6	-0.2383	0.0478	0.2861	983.7638	0.150439	-364.774629	-364.767795	-364.766851	-364.805626	28.468	
C	-0.0738411246	-1.2359658105	-0.096627129	-0.451103
C	-0.0301372305	-0.0355569766	-0.0384034587	 0.310107
C	 0.0113559125	 1.4161894931	 0.0330251976	-0.186199
C	-0.4364205238	 1.9949716471	 1.385470527	-0.040722
C	 0.7729129512	 2.1112635663	 2.2452745905	-0.022994
C	 1.9649476271	 1.609202331	 1.4382888693	-0.239838
C	 1.4336084023	 2.0554379274	 0.0603558777	-0.068967
C	 1.0480494497	 3.5118029121	 0.3719812666	-0.165435
N	 0.2055512642	 3.3155282973	 1.5791452274	-0.132059
H	-0.1126376388	-2.295719773	-0.1503425958	 0.193345
H	-0.5813792103	 1.8366733027	-0.7885612353	 0.103526
H	-1.4433253521	 1.8591219305	 1.7590325875	 0.098954
H	 0.7376875156	 2.0860550959	 3.3271440059	 0.092692
H	 2.9031593427	 2.1036615038	 1.7077109701	 0.101504
H	 2.0966131577	 0.5270420554	 1.5141975579	 0.119744
H	 2.0626790053	 1.8649719856	-0.8065465775	 0.079421
H	 1.9061496504	 4.1460476267	 0.6130736601	 0.103978
H	 0.4633518212	 3.9930833352	-0.4178511013	 0.104045
133.1281	150.8036	359.6198	419.198	430.804	500.5253	513.8517	622.9842	635.449	689.381	719.0524	790.8365	809.141	850.346	890.2534	917.1664	930.125	949.6277	952.6593	957.0691	1029.8518	1042.0565	1064.5817	1079.0254	1087.4988	1146.4927	1184.4029	1198.7767	1212.4061	1234.7998	1260.0996	1286.7281	1302.0461	1325.7224	1345.5772	1382.1214	1487.5988	1508.3565	2233.954	3032.5209	3052.2845	3061.3135	3100.5451	3112.9263	3145.7589	3190.5191	3201.0277	3503.8589
C#CC1C2C3CC1CN23	C#C[C@H]1[C@H]2[C@H]3C[C@@H]1CN23	
InChI=1S/C8H9N/c1-2-6-5-3-7-8(6)9(7)4-5/h1,5-8H,3-4H2	InChI=1S/C8H9N/c1-2-6-5-3-7-8(6)9(7)4-5/h1,5-8H,3-4H2/t5-,6-,7-,8+,9?/m1/s1
