20
gdb 70753	2.5355	1.60195	1.20238	1.5264	74.07	-0.2442	0.075	0.3192	1089.383	0.172812	-440.254942	-440.246926	-440.245981	-440.287101	31.777	
C	 0.0495270216	 1.5055377769	-0.0074467288	-0.451741
C	-0.0212073903	-0.0054485027	 0.0216858314	 0.326129
C	-1.3304892038	-0.591540836	-0.4985679007	-0.165304
O	-2.341793434	-0.6130746458	 0.5005590294	-0.229429
C	-2.2973172337	-1.7340394198	 1.3441447144	 0.01678
O	-1.2357154092	-1.767877415	 2.2602566729	-0.227777
C	 0.0391183099	-2.0133499589	 1.678749367	-0.121125
C	 0.6649121663	-0.751145901	 1.1078145543	-0.046269
N	 1.2531678833	-0.7048176126	-0.2483262294	-0.384722
H	 0.9832986223	 1.8598881081	 0.435226437	 0.125445
H	 0.0002830592	 1.8782164088	-1.0369604266	 0.116674
H	-0.7903830884	 1.9322142965	 0.5506936266	 0.131675
H	-1.7201241181	 0.02577296	-1.3144951015	 0.111743
H	-1.17521497	-1.6061437674	-0.8980118547	 0.082927
H	-3.2101946732	-1.697298926	 1.9422640009	 0.119612
H	-2.2788528974	-2.6531767623	 0.7278053528	 0.075931
H	 0.6645045738	-2.4167978241	 2.4804634823	 0.116591
H	-0.0427139254	-2.7922292452	 0.9032234918	 0.084267
H	 1.2223508064	-0.1611229167	 1.832441486	 0.097579
H	 1.0756510807	-1.5866911668	-0.7276040249	 0.221014
133.7874	168.7827	220.5263	270.7438	328.3315	349.8906	384.9016	431.0585	456.6218	472.2892	571.9037	619.4384	750.0816	818.4459	879.9591	933.2111	935.7594	975.1896	984.0253	1013.6659	1034.411	1067.0518	1093.9416	1108.537	1138.6142	1144.2347	1192.0632	1218.6223	1271.7738	1301.3986	1316.4296	1348.6989	1354.6	1394.9471	1397.9744	1414.582	1447.8721	1456.8587	1485.6842	1489.1661	1489.9938	1498.0292	1504.4286	2920.1459	2966.8966	2982.7502	3032.3613	3072.9365	3081.4697	3097.5479	3112.0437	3124.7552	3130.4626	3465.9684
CC12COCOCC1N2	C[C@]12COCOC[C@H]1N2	
InChI=1S/C6H11NO2/c1-6-3-9-4-8-2-5(6)7-6/h5,7H,2-4H2,1H3	InChI=1S/C6H11NO2/c1-6-3-9-4-8-2-5(6)7-6/h5,7H,2-4H2,1H3/t5-,6+/m1/s1
