17
gdb 107373	2.99592	1.31077	1.03878	3.3399	68.17	-0.2736	0.0042	0.2778	1146.987	0.136037	-458.990432	-458.982398	-458.981453	-459.023376	30.455	
O	 0.1220190397	 1.3867249648	 0.369208457	-0.410858
C	 0.0857650353	 0.0250152567	-0.0131082945	-0.144827
C	-1.3102849472	-0.5270204462	-0.0495651542	 0.405501
C	-2.0831751928	-0.9800015689	 1.151930258	-0.33912
C	-1.7188676469	-1.9731419925	 0.0598351836	-0.123555
C	-2.7339344088	-2.1948831172	-1.0381274928	-0.376527
C	-2.9418216896	-0.8089237755	-1.6613100111	 0.407133
O	-3.7054825626	-0.4892247973	-2.520995231	-0.322294
O	-2.0938695215	 0.0891414299	-1.0676691208	-0.264578
H	-0.4131050773	 1.8742924282	-0.2669258482	 0.296195
H	 0.5590882372	-0.1305368104	-0.9953304556	 0.099148
H	 0.6703122189	-0.5254570234	 0.730692764	 0.113527
H	-1.54444904	-1.0560712111	 2.0898147921	 0.130993
H	-3.1159558099	-0.6587322528	 1.2441396399	 0.129049
H	-0.9883371444	-2.7435631017	 0.2750227744	 0.106605
H	-2.3679954834	-2.8721794043	-1.8162569562	 0.146185
H	-3.6997702667	-2.5817825184	-0.7010397944	 0.147423
77.5553	116.9038	150.1734	256.6054	352.9689	375.2776	418.2231	440.6351	487.8258	562.5803	640.3643	696.518	750.4906	831.2822	858.8404	907.8898	932.2778	976.777	991.4337	1029.5554	1061.0811	1075.7766	1080.3086	1091.9347	1154.0742	1189.8413	1199.9642	1256.3514	1298.4328	1314.3441	1385.4301	1398.3432	1438.9068	1462.1117	1486.0089	1492.6439	1891.2683	2985.3651	3063.0407	3083.7767	3102.6351	3131.4148	3184.2279	3223.2838	3808.3782
OCC12CC1CC(=O)O2	OC[C@]12C[C@H]1CC(=O)O2	
InChI=1S/C6H8O3/c7-3-6-2-4(6)1-5(8)9-6/h4,7H,1-3H2	InChI=1S/C6H8O3/c7-3-6-2-4(6)1-5(8)9-6/h4,7H,1-3H2/t4-,6-/m1/s1
