19
gdb 92508	2.74538	1.44884	1.04184	1.1674	78.9	-0.2351	0.0054	0.2404	1161.0757	0.159128	-422.994105	-422.985624	-422.984679	-423.027159	32.322	
C	-0.029571481	 1.503764585	 0.0264622134	-0.488071
C	-0.0289047941	 0.0146743579	 0.1437407469	 0.120753
C	-1.0410929278	-0.8449073063	 0.211783346	 0.093424
C	-2.3828765693	-1.2145700064	-0.3686292617	-0.155351
O	-1.7964280036	-2.4840169115	-0.8017449651	-0.309358
C	-0.643407364	-2.2753345368	 0.0890566158	 0.11171
C	 0.8003302862	-2.2075741129	-0.4217158323	-0.289514
C	 1.2786100236	-0.8101186629	 0.1003939673	 0.068397
O	 2.2912172944	-0.2201147193	-0.695369214	-0.424788
H	 0.6558818378	 1.8385174519	-0.7582133718	 0.127431
H	-1.0303712672	 1.8905218401	-0.1840509423	 0.121809
H	 0.3199811388	 1.9696454515	 0.9572312985	 0.13545
H	-3.1967308823	-1.3853488793	 0.3485313027	 0.107168
H	-2.7525014526	-0.6094878098	-1.2038056329	 0.116151
H	-0.7552003469	-2.9172800318	 0.9729932275	 0.079391
H	 1.4468261663	-3.0301124754	-0.1056717927	 0.102981
H	 0.7862480647	-2.1779423898	-1.5178260538	 0.106971
H	 1.7405946037	-0.8993424887	 1.0920086781	 0.097739
H	 1.9719605532	-0.1965932756	-1.6048098397	 0.277707
101.2493	124.8109	149.358	235.6697	252.5925	318.5488	374.7411	410.0024	479.71	513.5272	547.8381	622.9592	720.2294	775.4044	855.0786	897.993	926.8513	947.3683	980.2142	1014.0832	1052.192	1060.9644	1065.1	1119.9908	1130.986	1147.5627	1161.9459	1221.219	1236.0005	1268.8964	1303.5275	1305.5466	1332.0083	1357.5495	1408.6348	1428.9706	1471.9946	1473.8349	1487.8038	1510.1049	1779.4435	3007.1333	3014.5137	3022.9107	3026.1233	3043.019	3067.3146	3079.0589	3108.0673	3116.9175	3791.758
CC1=C2COC2CC1O	C[C]1[C]2CO[C@H]2C[C@H]1O	
InChI=1S/C7H10O2/c1-4-5-3-9-7(5)2-6(4)8/h6-8H,2-3H2,1H3	InChI=1S/C7H10O2/c1-4-5-3-9-7(5)2-6(4)8/h6-8H,2-3H2,1H3/t6-,7+/m1/s1
