16
gdb 43454	2.99773	1.46811	1.07528	2.8697	70.84	-0.2754	-0.0123	0.263	1088.3045	0.124995	-437.935271	-437.927667	-437.926723	-437.968129	28.9	
N	-0.1003297392	 1.2569418709	 0.011929681	-0.540788
C	-0.0639361997	-0.0003765898	 0.0046263311	 0.369857
O	 1.1073934953	-0.7441640931	-0.0067340808	-0.218599
C	 0.8510737618	-2.1042074117	-0.0130041659	 0.424986
O	 1.7326691766	-2.9041250642	-0.0227591666	-0.307242
C	-0.6539447073	-2.3279871738	-0.0056155855	-0.47772
C	-1.2296709376	-0.9260604096	 0.0066424127	 0.253362
C	-2.4778014129	-0.5246342231	 0.7658078743	-0.29561
C	-2.4878156431	-0.5155346484	-0.7307175397	-0.29565
H	 0.8354276352	 1.6614130736	 0.0085043265	 0.237836
H	-0.9237237734	-2.9146475084	-0.8889759133	 0.153759
H	-0.9135298112	-2.9260295657	 0.8731327898	 0.153745
H	-3.0111508892	-1.3150002776	 1.2833185488	 0.122365
H	-2.4400216551	 0.4297111311	 1.2780646475	 0.14866
H	-2.4568197189	 0.4449757802	-1.231786865	 0.148677
H	-3.0281393611	-1.2995812605	-1.250600135	 0.12236
38.1298	142.2801	249.7567	249.8583	339.4502	363.7465	497.7142	557.4911	577.959	643.3427	700.0885	746.5722	789.13	849.2624	865.8089	884.1412	932.5025	960.3023	1002.449	1018.6863	1038.9397	1071.1829	1095.3414	1124.2909	1188.968	1202.6973	1245.4356	1276.6175	1318.0342	1389.2341	1455.3842	1462.6937	1489.4915	1783.6052	1916.4416	3060.5449	3098.8089	3135.257	3137.3246	3225.3327	3239.0082	3503.3451
N=C1OC(=O)CC11CC1	[NH][C]1OC(=O)CC21CC2	
InChI=1S/C6H7NO2/c7-5-6(1-2-6)3-4(8)9-5/h7H,1-3H2	InChI=1S/C6H7NO2/c7-5-6(1-2-6)3-4(8)9-5/h7H,1-3H2
