19
gdb 88632	3.62249	1.0616	0.98354	1.663	75.43	-0.2304	0.0756	0.306	1254.779	0.1591	-422.950543	-422.942326	-422.941382	-422.984098	31.551	
O	 0.1375246006	 1.370908601	 0.9785020917	-0.419495
C	 0.1427721805	 0.1000875041	 0.3901384831	 0.097896
C	-0.5723665151	-0.9717011203	 1.1529198237	-0.319945
C	-1.1497822585	-0.463667199	-0.1562472071	-0.058881
C	-2.3916705475	 0.3687579452	-0.1486157052	-0.044682
C	-2.9029863571	 1.1834090162	-1.3349319157	-0.163928
C	-2.7369971379	 0.3895502082	-2.6257459444	-0.09313
O	-3.3746559323	-0.7780890711	-2.0401559549	-0.284212
C	-3.6524309113	-0.0385912752	-0.8449674335	 0.066534
H	 0.0522195428	 2.0201819079	 0.272155808	 0.287585
H	 1.0709821719	-0.1642366934	-0.1169688604	 0.081972
H	-0.1458974832	-1.9677696686	 1.1861875896	 0.113125
H	-1.0632482088	-0.6550146434	 2.0671755074	 0.121361
H	-1.0693349636	-1.1353685554	-1.0043685241	 0.101921
H	-2.5833389305	 0.8893842991	 0.7863581122	 0.100903
H	-3.1501000639	 2.2345674858	-1.2671032346	 0.095877
H	-3.341809929	 0.7760926956	-3.4536149246	 0.110644
H	-1.7202905233	 0.1793741731	-2.9788906774	 0.103921
H	-4.6238424937	-0.1785006599	-0.3838038738	 0.102533
38.0507	127.9248	171.2836	220.1992	292.9761	319.7282	413.8601	455.7166	555.5333	617.8648	761.057	786.2632	792.5701	806.6294	840.6711	880.8129	953.4005	960.3064	978.1498	1001.0356	1015.7394	1028.2971	1052.2281	1063.3794	1071.0627	1090.6733	1125.9987	1132.8687	1165.6145	1180.4294	1212.4445	1238.8307	1258.6313	1302.2102	1304.8293	1320.1771	1373.5415	1419.3409	1462.0622	1489.8652	1517.4051	3023.3798	3070.525	3094.3002	3135.3264	3147.4308	3168.5516	3172.8764	3198.3557	3224.5284	3802.0096
OC1CC1C1C2COC12	O[C@H]1C[C@H]1[C@H]1[C@H]2CO[C@@H]12	
InChI=1S/C7H10O2/c8-5-1-3(5)6-4-2-9-7(4)6/h3-8H,1-2H2	InChI=1S/C7H10O2/c8-5-1-3(5)6-4-2-9-7(4)6/h3-8H,1-2H2/t3-,4-,5+,6+,7-/m1/s1
