18
gdb 35536	4.33971	1.05267	0.95554	4.5949	83.47	-0.2485	-0.0031	0.2454	1245.9973	0.149599	-364.813796	-364.806178	-364.805234	-364.846108	29.628	
N	-0.1254233179	-1.1823112251	-0.2074679079	-0.327416
C	-0.0693395306	-0.0311343103	-0.1158614818	 0.263104
C	 0.0047600018	 1.4235649965	 0.0106552338	-0.166463
C	-0.679460009	 1.9565070598	 1.3275330613	-0.26004
C	 0.1354691379	 3.2229144647	 1.6434489153	-0.044441
C	 0.9845847711	 3.4918730601	 2.9390433465	-0.242041
C	 2.2479777436	 3.706494046	 2.0204854166	-0.319786
C	 1.4535852488	 2.9765297222	 0.9637921801	 0.312472
C	 1.4487333394	 1.9455259445	 0.1293170945	-0.251395
H	-0.4969132496	 1.845859605	-0.8719319141	 0.129244
H	-1.750931428	 2.1216596945	 1.1918575105	 0.11365
H	-0.5498405261	 1.2079918255	 2.1150780908	 0.126813
H	-0.3689145747	 4.1405590179	 1.3182106767	 0.084539
H	 0.6836944417	 4.3327876408	 3.5672406953	 0.10743
H	 1.0850705696	 2.5929877409	 3.5519233366	 0.116897
H	 2.3969734811	 4.7674307267	 1.7951383022	 0.119408
H	 3.2005437674	 3.2729069877	 2.3315337549	 0.120196
H	 2.2827132933	 1.4549507226	-0.3552974812	 0.117827
77.1625	148.684	195.3458	282.5151	323.0815	379.5145	485.1732	551.0456	567.6902	650.1622	688.5112	785.4999	809.5616	824.8803	858.2548	905.4695	927.4265	941.916	990.8435	1018.0267	1045.1687	1075.9442	1087.1639	1127.4796	1171.1153	1190.8156	1223.3642	1232.5226	1255.2348	1257.7988	1265.2241	1307.3571	1339.4126	1346.6363	1471.9047	1482.4874	1489.2994	1737.5994	2354.3853	3002.4749	3032.8974	3053.7092	3060.6279	3067.0758	3112.1205	3114.3452	3131.4877	3219.9259
N#CC1CC2CCC2=C1	N#C[C@H]1C[C@H]2CC[C]2[CH]1	
InChI=1S/C8H9N/c9-5-6-3-7-1-2-8(7)4-6/h3,6,8H,1-2,4H2	InChI=1S/C8H9N/c9-5-6-3-7-1-2-8(7)4-6/h3,6,8H,1-2,4H2/t6-,8-/m1/s1
