20
gdb 9435	6.61925	0.68608	0.6472	3.2654	68.12	-0.2567	0.0605	0.3173	1695.629	0.17516	-423.264801	-423.254747	-423.253803	-423.300335	35.378	
O	-0.1229668811	 1.4622794731	-0.0622881076	-0.419658
C	 0.0001034742	 0.0487064978	-0.0547888558	-0.074714
C	-1.3998813788	-0.542046668	 0.041092148	-0.162841
C	-1.400603743	-2.0734165915	 0.0531906858	-0.22129
C	-2.8036221027	-2.6789221178	 0.0863243186	 0.097697
O	-3.5950474841	-2.2831472756	-1.0427455974	-0.436961
C	-2.7984927194	-4.2075407918	 0.1693899437	-0.060716
O	-4.1116003529	-4.7205087708	 0.1328707705	-0.424924
H	 0.7590515674	 1.841790676	-0.112195172	 0.285735
H	 0.4953518922	-0.3137074323	-0.9715404102	 0.080716
H	 0.6099300498	-0.2943204401	 0.7977969708	 0.082976
H	-1.8780326159	-0.1605408744	 0.9512601229	 0.108681
H	-1.9983442644	-0.1772580941	-0.7998414735	 0.116575
H	-0.871464062	-2.4567423969	-0.8332361282	 0.086987
H	-0.8407910953	-2.4448110143	 0.922006313	 0.103554
H	-3.3576219096	-2.2894708506	 0.949035046	 0.098909
H	-3.0902848592	-2.4905798564	-1.8387978604	 0.281308
H	-2.1842693059	-4.6091142818	-0.6591035051	 0.068204
H	-2.3373748721	-4.5391062614	 1.1065110576	 0.105496
H	-4.5768549071	-4.1746723192	-0.5150662568	 0.284265
61.7507	74.1615	99.9691	139.8897	161.0413	249.3168	261.2734	290.678	327.445	357.4841	448.0535	501.1759	518.92	584.6977	759.3256	844.2612	871.9234	977.5722	1000.0595	1038.5028	1072.6156	1085.9059	1096.7093	1114.0754	1122.7317	1202.1205	1214.5087	1229.0112	1280.9757	1282.8822	1309.5696	1327.8408	1343.3511	1384.0535	1398.3853	1421.8954	1445.8759	1464.7204	1479.2271	1501.7974	1507.5419	1529.3089	2923.9646	2952.48	2976.8562	2991.2088	3036.3687	3041.962	3050.6234	3067.619	3093.0664	3758.4777	3780.2529	3830.9937
OCCCC(O)CO	OCCC[C@@H](O)CO	
InChI=1S/C5H12O3/c6-3-1-2-5(8)4-7/h5-8H,1-4H2	InChI=1S/C5H12O3/c6-3-1-2-5(8)4-7/h5-8H,1-4H2/t5-/m1/s1
