19
gdb 113363	2.8919	1.00522	0.87289	2.4205	74.31	-0.2421	-0.0223	0.2198	1375.6652	0.155971	-460.136843	-460.126724	-460.12578	-460.17224	35.716	
C	 0.2175861995	 1.2466911391	 0.2863485433	-0.259002
O	-0.2446074817	-0.0254965923	-0.1560719695	-0.284837
C	 0.4589833961	-0.5603230885	-1.2212012116	 0.309995
C	 1.8141594076	-1.2245910982	-0.9575697493	-0.342616
C	 0.6148117229	-2.0739716378	-1.2358086644	-0.060149
C	-0.0189288723	-2.8914010722	-0.1388992782	-0.098509
O	 0.7350358167	-4.0908604963	-0.0161638446	-0.420725
C	 0.2866500788	 0.0906267577	-2.5477957004	 0.126782
O	-0.36832937	 1.0814627046	-2.7534397469	-0.275775
H	 1.2778860825	 1.2063847185	 0.5722305334	 0.105281
H	 0.0758581522	 2.0098384845	-0.4840266312	 0.145074
H	-0.3785382624	 1.5006346567	 1.1653060361	 0.128651
H	 2.5945020963	-1.1426339773	-1.7061103259	 0.124483
H	 2.1552598974	-1.1681604286	 0.0702163113	 0.136098
H	 0.5702165609	-2.5405899565	-2.2163537405	 0.104024
H	-0.0247040187	-2.313137139	 0.7937535416	 0.103702
H	-1.0666158618	-3.104477739	-0.4009859269	 0.097131
H	 0.3032224644	-4.6447686157	 0.6411079554	 0.288175
H	 0.8360276217	-0.4270916797	-3.3694587817	 0.072217
62.6596	114.4078	124.9005	138.0003	183.5373	212.6507	248.4107	259.2247	321.7167	337.8244	376.5981	452.547	545.6894	638.6019	792.3201	820.9461	878.5131	918.504	926.1948	1036.6327	1039.2964	1048.6898	1062.1094	1092.6551	1113.1265	1171.1596	1178.6502	1220.5082	1233.8205	1256.2124	1276.2764	1330.3862	1396.1574	1431.8159	1465.0143	1476.7053	1483.8889	1484.5835	1514.5467	1525.9432	1820.1924	2852.2736	2986.2652	3007.4448	3040.1927	3093.34	3133.2685	3137.04	3146.6959	3228.5276	3826.831
COC1(CC1CO)C=O	CO[C@]1(C[C@H]1CO)C=O	
InChI=1S/C6H10O3/c1-9-6(4-8)2-5(6)3-7/h4-5,7H,2-3H2,1H3	InChI=1S/C6H10O3/c1-9-6(4-8)2-5(6)3-7/h4-5,7H,2-3H2,1H3/t5-,6+/m0/s1
