19
gdb 89130	2.21602	1.62797	1.15732	1.9845	82.02	-0.2487	0.0374	0.2861	1125.2186	0.157823	-385.833077	-385.824214	-385.823269	-385.865965	34.761	
C	 0.01730251	 1.5360507054	 0.0469390216	-0.497875
C	-0.0248115585	 0.0353332939	 0.0567285327	 0.333201
C	-1.3020136718	-0.81210108	-0.0391898968	-0.349126
C	-0.6972099944	-1.7916743474	 1.0315549804	 0.145809
O	-0.6471814695	-3.1699392251	 0.7908140204	-0.437354
C	 0.5951188499	-0.9646873568	 1.0354940684	-0.157873
C	 1.1654419178	-0.8100477074	-0.3667660695	-0.266717
C	 1.1111089335	-1.829788279	-1.3794683946	 0.311194
C	 1.0628966155	-2.6760254006	-2.2360900252	-0.445655
H	 1.0125537639	 1.9107493643	 0.3074468164	 0.120144
H	-0.2397476629	 1.9327468618	-0.9422169482	 0.128097
H	-0.697024924	 1.9523490764	 0.7662701585	 0.122147
H	-2.1960661656	-0.2950936607	 0.3174166845	 0.102376
H	-1.5089994031	-1.249456883	-1.0197937053	 0.10824
H	-1.2211086211	-1.6742774413	 1.9838498915	 0.093738
H	-0.1641429028	-3.3054665141	-0.0339898863	 0.286832
H	 1.2342027507	-0.7873253364	 1.8938984405	 0.087371
H	 2.0968763083	-0.248064337	-0.3683497004	 0.11397
H	 1.0308105842	-3.4147851831	-2.9985416488	 0.201482
133.8056	145.5792	167.4298	212.9957	249.4879	312.9555	363.1836	403.5799	454.8573	475.3701	539.3581	564.0544	586.0867	656.1081	660.2605	737.7313	790.5533	860.3411	890.031	944.4325	962.6503	981.5991	983.2526	1046.0332	1068.2381	1107.1937	1139.913	1151.8716	1221.2918	1237.4732	1248.1389	1297.0843	1320.7001	1335.484	1414.6672	1442.0896	1455.1476	1485.1225	1489.7059	1498.4538	2219.1632	3023.8529	3058.7814	3074.8076	3084.3358	3097.8635	3114.7562	3132.2851	3169.2598	3499.1321	3767.7193
CC12CC(O)C1C2C#C	C[C@]12C[C@@H](O)[C@H]1[C@H]2C#C	
InChI=1S/C8H10O/c1-3-5-7-6(9)4-8(5,7)2/h1,5-7,9H,4H2,2H3	InChI=1S/C8H10O/c1-3-5-7-6(9)4-8(5,7)2/h1,5-7,9H,4H2,2H3/t5-,6-,7-,8-/m1/s1
