21
gdb 63480	3.06941	1.05591	0.9143	4.584	83.69	-0.2496	0.0289	0.2784	1354.9034	0.180151	-383.273901	-383.263404	-383.26246	-383.309474	38.218	
C	 0.0153271209	 1.4606919291	-0.2251219717	-0.433428
C	-0.005801024	-0.0310859393	 0.0651639727	 0.261
C	-1.1703262475	-0.7218260431	-0.626686088	-0.464832
N	 1.319589815	-0.6883570704	 0.0621893191	-0.393123
C	 0.5885560572	-0.5671375243	 1.3381697763	 0.284858
C	 1.2321918079	 0.3396304006	 2.3732156081	-0.457282
C	-0.0073366999	-1.8272655752	 1.9772009372	-0.423262
C	 1.0199753792	-2.7043519905	 2.5455214582	 0.274087
N	 1.8340640496	-3.3962613263	 2.9858645647	-0.309811
H	 0.8980772118	 1.9484770292	 0.1863754157	 0.130775
H	 0.0203631855	 1.627218826	-1.3078496652	 0.121598
H	-0.8764287328	 1.9495531254	 0.1830144403	 0.115276
H	-1.1485413851	-0.4877778321	-1.6968594255	 0.129635
H	-1.1471970938	-1.8103738704	-0.5385529174	 0.115259
H	-2.1317009482	-0.3691132711	-0.236379281	 0.126246
H	 1.2495617417	-1.6341848627	-0.308683064	 0.226638
H	 1.7983412548	 1.1418333089	 1.9022179762	 0.137038
H	 0.4781062954	 0.7813523888	 3.0347071371	 0.114803
H	 1.9300932323	-0.2336228224	 2.9926554168	 0.143995
H	-0.694392	-1.5419565529	 2.7835126659	 0.154425
H	-0.5900768101	-2.4144474272	 1.2647286243	 0.146105
46.3369	106.2888	129.3419	149.0819	171.6043	187.9281	283.3747	320.3006	358.3081	383.86	385.7394	408.0832	456.6081	488.6678	564.129	693.7757	738.0258	840.8077	904.0862	924.7488	950.2457	955.7963	987.8679	1028.213	1048.9894	1072.843	1105.1842	1154.803	1169.6776	1222.8025	1275.5191	1314.1484	1332.2535	1410.3905	1414.0748	1424.3059	1428.0615	1456.2964	1476.0107	1483.7643	1484.4612	1503.0028	1508.413	1519.4268	2360.1538	3031.2581	3035.348	3038.765	3043.5861	3088.2751	3094.7645	3096.3863	3107.2463	3122.845	3147.2024	3161.8456	3481.9644
CC1(C)NC1(C)CC#N	CC1(C)N[C@]1(C)CC#N	
InChI=1S/C7H12N2/c1-6(2)7(3,9-6)4-5-8/h9H,4H2,1-3H3	InChI=1S/C7H12N2/c1-6(2)7(3,9-6)4-5-8/h9H,4H2,1-3H3/t7-/m1/s1
