18
gdb 89867	3.76562	0.99625	0.87641	2.2809	80.25	-0.2182	0.0155	0.2337	1351.4164	0.144908	-401.858884	-401.849938	-401.848994	-401.892728	33.313	
C	 0.062341618	 1.5198951775	 0.0349046941	-0.320995
N	 0.0873815414	 0.0748744139	 0.0326400138	-0.075238
C	 1.0250383701	-0.6067691653	-0.8912160384	-0.254711
C	 1.4043573746	-1.538481576	 0.2565595137	 0.435437
C	 0.6522421732	-0.6150154747	 1.2153380903	-0.253738
O	 1.2560476454	-2.9386021551	 0.2202023734	-0.269579
C	 2.5798520744	-2.4001900322	 0.4525801257	-0.275415
C	 3.5587199077	-2.5746831582	-0.5849960124	 0.344276
C	 4.3930144012	-2.6999072194	-1.4414310098	-0.425114
H	 1.0557352021	 1.9755812659	 0.2152817501	 0.089658
H	-0.3076493019	 1.8853685353	-0.9285632149	 0.124848
H	-0.6208211766	 1.878102807	 0.8120082645	 0.123712
H	 0.5540825575	-1.0722767248	-1.7627791665	 0.121364
H	 1.8688755538	 0.0181886131	-1.224581108	 0.099083
H	 1.3255371944	 0.0115215122	 1.8226649759	 0.093488
H	-0.0883150604	-1.0886191319	 1.8686749581	 0.119884
H	 2.9413396768	-2.5510609294	 1.4694953254	 0.118255
H	 5.1263252982	-2.819416548	-2.200495815	 0.204786
62.4205	109.361	146.9774	226.2612	276.9678	298.0542	305.1456	366.8185	414.0664	456.1602	554.5487	598.2638	625.7606	674.2563	740.4396	816.872	905.5417	927.3529	961.083	988.3548	1022.9235	1048.5985	1092.4017	1120.5098	1152.3198	1169.6115	1186.4464	1219.1742	1221.0908	1298.4964	1316.4015	1353.4727	1452.6606	1483.5053	1486.5892	1494.351	1498.4145	1517.15	2239.7696	2916.7243	2970.0527	2981.3997	3058.7485	3063.6583	3071.9147	3101.4298	3113.1616	3501.3901
CN1CC2(C1)OC2C#C	CN1CC2(C1)O[C@H]2C#C	
InChI=1S/C7H9NO/c1-3-6-7(9-6)4-8(2)5-7/h1,6H,4-5H2,2H3	InChI=1S/C7H9NO/c1-3-6-7(9-6)4-8(2)5-7/h1,6H,4-5H2,2H3/t6-/m0/s1
