23
gdb 112734	2.36857	1.19549	1.01182	1.4664	82.06	-0.2477	0.0733	0.321	1328.5564	0.202882	-425.411546	-425.400894	-425.39995	-425.446688	39.584	
C	-0.4993452932	 1.6546000015	-0.0190431994	-0.237652
O	-0.478634996	 0.3998086605	 0.6224984251	-0.242348
C	-1.2960766385	-0.5562898727	 0.0006934527	 0.133043
C	-0.8255299566	-1.1896706205	-1.3394948302	-0.330512
C	-1.2880718898	-2.5601276047	-0.7805180335	 0.130244
O	-0.5522313645	-3.721861151	-1.0698326463	-0.432118
C	-1.2801996607	-1.9621970247	 0.6719186789	 0.227613
C	 0.0365408894	-2.2437501921	 1.4010345288	-0.445314
C	-2.4769100871	-2.3100615027	 1.550908565	-0.46198
H	 0.1438172398	 2.3256266937	 0.5555559389	 0.12618
H	-0.1197108739	 1.5967162832	-1.0502182018	 0.108445
H	-1.5162213349	 2.0771403719	-0.0511895271	 0.104102
H	-2.3250482691	-0.1715278384	-0.0857425784	 0.059165
H	-1.2672645459	-0.8419087018	-2.2755826597	 0.099264
H	 0.2658016957	-1.1426094022	-1.4198764202	 0.100755
H	-2.3125646711	-2.7861998216	-1.0917704526	 0.085018
H	 0.3675629724	-3.5584586301	-0.8371855845	 0.280009
H	 0.9138676493	-1.9602840361	 0.8108196278	 0.107072
H	 0.0889343772	-1.6731041271	 2.3318768907	 0.128513
H	 0.1110614422	-3.3087262963	 1.6441907963	 0.116373
H	-2.4620365092	-3.3699561451	 1.8293448086	 0.119338
H	-2.4749084173	-1.7213098977	 2.4753747419	 0.117444
H	-3.4216803982	-2.115198966	 1.0315046988	 0.107345
80.0647	104.6297	169.1464	181.735	200.9317	209.3887	232.674	273.0206	307.1081	324.5142	332.8722	394.7256	480.301	481.5306	565.996	593.8322	740.7527	795.6421	895.4847	913.3738	957.749	994.4166	1000.4344	1014.7278	1050.5239	1099.884	1129.1345	1170.4119	1182.0991	1184.1649	1187.3035	1211.9625	1249.4332	1259.8577	1279.8402	1316.4208	1328.3252	1387.7673	1400.5472	1416.2277	1445.0996	1475.5603	1482.2129	1484.1853	1487.4333	1489.9257	1500.4536	1507.4973	1510.9495	2966.717	2975.739	3020.7345	3021.6836	3035.3658	3050.6855	3063.1705	3089.5711	3090.5063	3100.4692	3113.0298	3114.6821	3116.0737	3814.3202
COC1CC(O)C1(C)C	CO[C@H]1C[C@@H](O)C1(C)C	
InChI=1S/C7H14O2/c1-7(2)5(8)4-6(7)9-3/h5-6,8H,4H2,1-3H3	InChI=1S/C7H14O2/c1-7(2)5(8)4-6(7)9-3/h5-6,8H,4H2,1-3H3/t5-,6+/m1/s1
