20
gdb 97422	5.17891	0.73674	0.69412	2.9063	87.25	-0.2394	0.0071	0.2466	1691.6995	0.170475	-403.155791	-403.146497	-403.145553	-403.19146	33.18	
C	 0.0590367778	 1.2543908365	-0.2240938434	-0.313267
N	 0.1069992714	-0.1896671763	-0.1432832663	-0.209972
C	 0.5753476098	-0.6930918772	 0.9106242058	 0.12813
O	 0.6185845943	-2.0263764612	 1.0832132605	-0.21792
C	 1.3249330736	-2.5147242524	 2.2467110085	 0.080666
C	 0.761368712	-3.8994353988	 2.6312773288	-0.239695
C	 1.8040926638	-4.9393257095	 2.1489595596	-0.253435
C	 3.0203657768	-4.0992164136	 1.8521321294	-0.048028
C	 2.7719028279	-2.7929537569	 1.9210198391	-0.078327
H	 0.4636614594	 1.7689822851	 0.6639151673	 0.091885
H	 0.6213356259	 1.5938180606	-1.1018200633	 0.124867
H	-0.9771269156	 1.5835481672	-0.3657212572	 0.125235
H	 0.9611203324	-0.109601019	 1.7636254846	 0.065981
H	 1.1958114121	-1.7770838834	 3.0489925204	 0.080355
H	 0.6508842776	-3.9551391002	 3.7175503364	 0.1092
H	-0.2267843174	-4.039111607	 2.1896632213	 0.124682
H	 2.0019247279	-5.7055738988	 2.9068949919	 0.108557
H	 1.4764106856	-5.4759158874	 1.2492658156	 0.121714
H	 3.977557043	-4.5371527087	 1.5894816234	 0.101536
H	 3.4804622116	-1.998207669	 1.7173977677	 0.097834
31.7604	60.2974	89.4369	167.8174	202.677	263.4	307.8529	332.1735	404.4944	492.291	581.8704	736.6238	745.5605	803.7188	814.3681	909.8107	925.9893	967.1989	982.4543	987.1976	994.8092	1049.7287	1062.2392	1092.0437	1133.9933	1141.5059	1150.5286	1184.5607	1233.4763	1250.6767	1288.9046	1315.9881	1331.5996	1361.9046	1387.8094	1422.931	1450.838	1472.8851	1480.9982	1492.7826	1505.6149	1686.4676	1775.1924	2959.0905	2971.7176	3019.1538	3028.2719	3053.1504	3057.6201	3072.5908	3074.178	3126.2981	3183.3732	3209.7609
CN=COC1CCC=C1	CN=CO[C@H]1CCC=C1	
InChI=1S/C7H11NO/c1-8-6-9-7-4-2-3-5-7/h2,4,6-7H,3,5H2,1H3	InChI=1S/C7H11NO/c1-8-6-9-7-4-2-3-5-7/h2,4,6-7H,3,5H2,1H3/t7-/m1/s1
