21
gdb 106502	2.53756	1.60094	1.23413	3.1831	77.78	-0.2456	0.0636	0.3092	1084.207	0.184373	-424.213899	-424.205658	-424.204714	-424.246271	33.311	
O	 0.6222456837	 0.2389620819	 0.9008387498	-0.431109
C	-0.1455228201	 0.2722302301	-0.2893403851	-0.168524
C	-1.4712049909	-0.4433363458	-0.1454413493	 0.313969
C	-2.3866387846	-0.7993748731	-1.3573943047	-0.284633
C	-3.0081454224	-1.8040295401	-0.3436645383	-0.022042
C	-1.5741934686	-1.9537600265	 0.2363915948	-0.251973
C	-3.6663997961	-0.8472466004	 0.6699018259	-0.252485
C	-2.5017181035	 0.1838878901	 0.8140985103	 0.08374
O	-1.9377978047	 0.2552600211	 2.1261731377	-0.443698
H	 0.0130176365	 0.4326757568	 1.6256244421	 0.290693
H	-0.3266318514	 1.3101819519	-0.6249458908	 0.072169
H	 0.4588335609	-0.2114252164	-1.065992103	 0.095655
H	-3.0298092352	-0.0166195471	-1.7734796473	 0.086654
H	-1.8282222378	-1.2905615064	-2.157878468	 0.100888
H	-3.5923963606	-2.6640517276	-0.6714097866	 0.060777
H	-0.9266840011	-2.5727256153	-0.3888799634	 0.096267
H	-1.4613669002	-2.2234049678	 1.2880856458	 0.105392
H	-4.5894797923	-0.3970078667	 0.2920522185	 0.093486
H	-3.878452925	-1.3261469962	 1.6307190311	 0.098823
H	-2.7886603694	 1.1915809001	 0.4831331412	 0.067316
H	-2.5555944972	 0.7116102073	 2.7052234793	 0.288635
104.2355	166.6104	220.3166	262.9426	289.1712	363.8449	398.6878	438.1683	483.0769	511.1668	545.8389	625.7867	709.9793	815.7459	839.7829	860.2627	897.7263	931.9716	936.1065	958.7265	1003.9828	1014.3986	1035.5293	1055.6129	1076.1005	1088.1474	1110.2955	1154.1087	1166.925	1199.5352	1201.3755	1228.0679	1260.1726	1263.2067	1287.3086	1300.2407	1323.4411	1355.2955	1379.4846	1421.657	1471.4168	1483.1667	1485.0926	1509.5424	1523.32	2931.6716	3001.6043	3042.4279	3048.4553	3048.5675	3070.1288	3096.344	3108.6006	3113.1885	3131.8748	3752.5756	3827.2574
OCC12CC(C1)CC2O	OC[C@@]12C[C@@H](C1)C[C@H]2O	
InChI=1S/C7H12O2/c8-4-7-2-5(3-7)1-6(7)9/h5-6,8-9H,1-4H2	InChI=1S/C7H12O2/c8-4-7-2-5(3-7)1-6(7)9/h5-6,8-9H,1-4H2/t5-,6-,7+/m1/s1
