21
gdb 119524	4.31489	0.93295	0.8504	1.7205	83.14	-0.2414	0.0048	0.2461	1442.4517	0.182181	-387.089813	-387.080966	-387.080022	-387.123716	33.725	
C	-0.2358667611	 1.5659422112	-0.1253674805	-0.383717
C	-0.134418552	 0.0389939135	-0.1311494124	-0.161537
C	 0.943271855	-0.4834591576	-1.09361527	-0.286427
C	 1.0076889332	-1.9888393884	-1.1423068791	 0.426403
C	 1.4780836503	-2.8041202981	 0.0688260504	-0.32629
C	 2.0241647766	-4.0746369658	-0.549856945	-0.079849
C	 1.9589763299	-4.0548576587	-1.883511197	-0.076498
C	 1.3134651347	-2.7904793849	-2.3442087664	-0.081174
O	-0.0475115261	-2.6384756152	-1.8680247613	-0.305752
H	 0.7113717395	 2.0268161512	 0.1772376712	 0.111926
H	-0.4851570782	 1.9490787119	-1.1211628457	 0.116074
H	-1.0098592167	 1.9112181867	 0.5670158014	 0.112544
H	 0.0777911867	-0.3178355132	 0.8848003455	 0.096648
H	-1.0982459174	-0.3985608395	-0.4167632892	 0.115513
H	 0.7393350234	-0.1107284074	-2.1042543289	 0.101846
H	 1.9257567299	-0.089583141	-0.8000081949	 0.094593
H	 2.2467867107	-2.2657162793	 0.6392460318	 0.10833
H	 0.6527066692	-3.0070245837	 0.761423245	 0.124852
H	 2.3890144172	-4.9007677628	 0.0503001605	 0.100622
H	 2.2855149089	-4.8408145162	-2.5530004776	 0.101017
H	 1.5056073662	-2.3581862728	-3.3222275976	 0.090875
68.2042	89.0609	119.9692	242.6829	254.4047	302.5237	331.7888	382.0666	418.1599	530.7764	686.8666	712.5465	738.2105	745.115	814.8527	848.8986	887.8406	892.5468	923.4804	943.1782	951.5201	980.4732	998.9654	1045.3335	1063.0963	1085.3252	1119.0794	1137.7463	1186.8123	1217.2043	1252.6265	1276.2831	1312.5714	1317.5728	1339.2372	1370.2339	1390.1787	1413.2325	1439.0292	1462.4824	1470.7789	1492.2321	1500.0628	1509.0834	1662.6824	3014.2134	3022.9804	3025.1302	3028.9486	3053.3065	3062.9964	3071.9661	3096.8592	3102.3737	3154.4876	3189.3556	3218.5796
CCCC12CC=CC1O2	CCC[C@]12CC=C[C@H]1O2	
InChI=1S/C8H12O/c1-2-5-8-6-3-4-7(8)9-8/h3-4,7H,2,5-6H2,1H3	InChI=1S/C8H12O/c1-2-5-8-6-3-4-7(8)9-8/h3-4,7H,2,5-6H2,1H3/t7-,8+/m1/s1
