16
gdb 5258	7.37937	1.16483	1.01881	2.452	67.83	-0.1935	0.034	0.2275	1134.5621	0.131737	-379.955625	-379.947916	-379.946972	-379.988379	27.798	
C	-0.0046454011	 1.4906798374	-0.0173513713	-0.389254
C	 0.0012950782	-0.0267872283	 0.0028981465	-0.034664
O	 0.674728756	-0.4670953649	-1.1796601327	-0.285295
C	 0.7823581166	-1.7997564711	-1.3436161207	 0.379439
C	 1.3921657588	-2.4212379393	-2.4077244052	-0.22534
N	 1.2529531531	-3.771895099	-2.1359857247	-0.23314
C	 0.5886333091	-3.8898863466	-0.9615121954	 0.015728
N	 0.2873180248	-2.7104911548	-0.4524004463	-0.338968
H	 1.0163484678	 1.8830155706	-0.0304157753	 0.124837
H	-0.5268008374	 1.86531936	-0.9025201453	 0.124845
H	-0.5120257654	 1.8749598825	 0.8726386466	 0.115488
H	 0.5184607864	-0.4157727635	 0.8880850642	 0.110557
H	-1.0168655914	-0.4333901995	 0.0203514983	 0.110646
H	 1.8861642093	-2.0483583421	-3.2866824954	 0.128028
H	 1.5873606748	-4.52564237	-2.7114785655	 0.266863
H	 0.3494952003	-4.8456431114	-0.5210703077	 0.130229
62.5238	68.8707	167.2944	251.7586	325.2156	353.8347	471.9846	496.9436	645.1828	662.2415	733.8068	734.1777	788.628	810.8715	911.2373	946.7969	1000.4061	1076.738	1090.1986	1131.9795	1151.3074	1183.7898	1248.7488	1289.4796	1327.7517	1351.4632	1392.7794	1418.1897	1482.3906	1484.6961	1498.5746	1517.6515	1525.4223	1624.5969	3027.5333	3043.9306	3062.3084	3118.6105	3120.9609	3256.2953	3295.1321	3673.531
CCOC1=CNC=N1	CCOc1c[nH]cn1	
InChI=1S/C5H8N2O/c1-2-8-5-3-6-4-7-5/h3-4H,2H2,1H3,(H,6,7)	InChI=1S/C5H8N2O/c1-2-8-5-3-6-4-7-5/h3-4H,2H2,1H3,(H,6,7)
