17
gdb 102263	2.39639	1.0343	0.88713	2.7966	71.85	-0.2453	0.0461	0.2914	1362.9161	0.134103	-455.138844	-455.128633	-455.127689	-455.174906	36.439	
N	-0.0394772051	 1.3370334807	 0.1494671423	-0.568102
C	 0.027334455	-0.0222798816	-0.1248812158	 0.464084
O	 1.0408537791	-0.5636913514	-0.5295188423	-0.396001
N	-1.1516710157	-0.6944986408	 0.1220599819	-0.32831
C	-1.1670836588	-2.1510140994	 0.0938664296	-0.167639
C	-1.0793580472	-2.721172571	 1.5186329986	-0.088826
O	-2.1553949038	-2.1668664914	 2.2601002152	-0.422481
C	-2.3448372193	-2.6554904061	-0.6180921102	 0.346096
C	-3.3039087017	-3.0889214142	-1.1968795827	-0.455002
H	 0.7351541989	 1.8475515106	-0.2467133152	 0.260915
H	-0.9333317019	 1.7909114061	 0.0333480446	 0.250674
H	-1.8165663498	-0.2822049457	 0.7595242779	 0.252352
H	-0.2581699982	-2.4450192723	-0.4413148296	 0.150032
H	-1.1345972203	-3.8181245649	 1.478433796	 0.10299
H	-0.1066053874	-2.4319003862	 1.9410613962	 0.10771
H	-2.0516145312	-2.415394822	 3.1826243951	 0.295306
H	-4.1497828428	-3.4683662003	-1.7145874916	 0.196203
33.505	77.2822	112.2891	145.3742	184.2004	225.8918	265.022	321.3463	401.9317	412.1391	436.1619	493.3083	553.7532	592.2355	616.9494	647.9626	656.3578	687.1662	775.566	866.2809	938.7355	1026.0374	1053.8871	1103.8888	1111.853	1162.6293	1215.4663	1258.5739	1295.5326	1344.9557	1369.1046	1444.0531	1512.6986	1523.6744	1626.9027	1795.8302	2241.9641	2993.9642	3037.2305	3073.8825	3504.6294	3573.8325	3619.4745	3688.4157	3842.5997
NC(=O)NC(CO)C#C	NC(=O)N[C@@H](CO)C#C	
InChI=1S/C5H8N2O2/c1-2-4(3-8)7-5(6)9/h1,4,8H,3H2,(H3,6,7,9)	InChI=1S/C5H8N2O2/c1-2-4(3-8)7-5(6)9/h1,4,8H,3H2,(H3,6,7,9)/t4-/m1/s1
