19
gdb 79920	2.97405	1.31653	1.21838	2.4628	77.5	-0.2225	0.0217	0.2443	1117.9391	0.15957	-422.99722	-422.989116	-422.988172	-423.02927	32.71	
C	-0.0443092518	 1.4025477861	 0.1010568225	-0.518202
C	 0.0119278287	-0.0852734644	 0.0384389473	 0.333773
C	-0.0297361327	-0.9293791946	-1.0087486971	-0.201542
C	 0.0270873433	-2.3063804665	-0.3772330613	-0.177399
C	-1.0146012365	-2.08832558	 0.8093178567	 0.194521
O	-1.294691328	-3.143936859	 1.6659005643	-0.45178
C	 0.094517923	-1.025800282	 1.2351974219	-0.197797
C	 1.1489767525	-2.0413748287	 0.6942091441	 0.143056
O	 1.4119255744	-3.0880484942	 1.6209536124	-0.45545
H	 0.8490720435	 1.8209114613	 0.5817628849	 0.126963
H	-0.1250486015	 1.8370980506	-0.8997388434	 0.12461
H	-0.9040408721	 1.7462514049	 0.690209515	 0.13002
H	-0.1142895131	-0.702370308	-2.0629606061	 0.095847
H	 0.017402843	-3.1969041967	-1.0069150172	 0.057451
H	-1.9683566521	-1.6545609533	 0.4995787473	 0.082489
H	-0.4420874849	-3.4963188312	 1.9603924548	 0.285053
H	 0.1559353808	-0.615164554	 2.2432942446	 0.066398
H	 2.0853350618	-1.614771914	 0.3141647805	 0.071539
H	 1.9283658519	-3.7647826464	 1.1702751288	 0.29045
148.1345	180.3648	245.0735	280.8874	289.8743	340.0158	377.0876	413.622	475.2205	531.9017	571.7081	639.0039	643.0679	778.4419	801.9491	858.7434	890.2118	914.7549	938.1883	949.1789	1010.4879	1023.9223	1048.4479	1072.6424	1083.5474	1123.2209	1174.1829	1184.6364	1209.4782	1223.4999	1236.4668	1247.3487	1281.3801	1311.3013	1331.6363	1409.4336	1415.6856	1475.0565	1477.7926	1487.6206	1670.4668	3015.8392	3030.3106	3061.7375	3088.6764	3104.4394	3111.6466	3120.1004	3217.7521	3716.7449	3810.379
CC1=CC2C(O)C1C2O	CC1=C[C@@H]2[C@@H](O)[C@H]1[C@H]2O	
InChI=1S/C7H10O2/c1-3-2-4-6(8)5(3)7(4)9/h2,4-9H,1H3	InChI=1S/C7H10O2/c1-3-2-4-6(8)5(3)7(4)9/h2,4-9H,1H3/t4-,5+,6-,7+
