19
gdb 13521	3.12878	1.71144	1.19925	2.7354	72.48	-0.2172	-0.0096	0.2076	1035.305	0.163701	-365.05803	-365.049183	-365.048239	-365.092229	31.687	
C	-0.3087776923	 0.263603394	-0.9148637468	-0.327751
N	-0.1533248418	-0.5816452475	 0.2493583849	-0.081323
C	-1.222527186	-0.5377046246	 1.2722325795	-0.159933
C	-0.1484089954	-0.5694566458	 2.3844741738	-0.247798
C	 0.8622862641	-0.2221849319	 1.2664086038	-0.040178
C	 2.172237302	-1.0027691387	 1.2412709696	 0.37037
C	 2.7430461938	-1.3489763685	-0.1181660776	-0.485103
O	 2.7134199144	-1.3159469067	 2.2771506864	-0.30092
H	 0.5732664796	 0.1912875421	-1.5594140804	 0.118523
H	-1.1735264527	-0.0701863391	-1.4979414533	 0.124313
H	-0.4604579844	 1.3298784727	-0.6585359115	 0.092237
H	-1.7819002139	 0.4111289583	 1.2627065482	 0.087159
H	-1.9364079315	-1.3661783527	 1.2180753649	 0.10519
H	-0.2535729303	 0.1526020549	 3.1928190872	 0.112761
H	 0.0303764766	-1.5587170279	 2.8068231636	 0.125314
H	 1.1153537456	 0.8547184158	 1.255980254	 0.079041
H	 2.9506876153	-0.4348467139	-0.6869914207	 0.134095
H	 3.6629804576	-1.9225882803	 0.0001275741	 0.138291
H	 2.0042360793	-1.9205773601	-0.6884172697	 0.155711
27.0386	110.7499	171.5961	177.5885	227.4959	246.1124	311.8886	349.7493	423.6349	513.699	597.2723	649.8937	750.4403	802.817	928.5035	944.798	956.1061	973.2035	1004.1035	1046.4611	1096.3706	1139.9806	1165.1153	1198.5597	1205.2633	1215.4512	1235.3008	1252.6365	1279.9068	1330.4999	1350.9173	1374.3761	1450.5923	1469.2574	1472.1457	1489.0457	1492.8062	1498.9461	1521.4534	1807.9144	2922.3243	2926.7043	2977.8033	3037.4054	3059.3897	3061.3837	3098.5752	3100.3562	3104.3461	3154.0874	3154.3973
CN1CCC1C(C)=O	CN1CC[C@H]1C(=O)C	
InChI=1S/C6H11NO/c1-5(8)6-3-4-7(6)2/h6H,3-4H2,1-2H3	InChI=1S/C6H11NO/c1-5(8)6-3-4-7(6)2/h6H,3-4H2,1-2H3/t6-/m0/s1
