16
gdb 10497	3.03671	1.31015	1.02122	1.8461	70.35	-0.2486	0.0279	0.2765	1177.9788	0.127772	-383.685823	-383.676654	-383.67571	-383.721452	31.294	
C	 0.0263211956	 1.5216477455	 0.1073462616	-0.503895
C	 0.0608088454	 0.0677501169	 0.0762015935	 0.134464
C	 0.0798750324	-1.135714726	 0.0425274514	 0.045515
C	 0.1521792614	-2.5746148561	 0.0044032556	 0.132587
C	 1.4132283495	-3.181650422	-0.5889539751	-0.123603
O	 1.5423998649	-2.8780225417	-1.9611557363	-0.408948
C	-0.6786576852	-3.3840436616	 0.9187522351	-0.205474
O	-1.0472268777	-3.2563375566	-0.4497234956	-0.270946
H	 0.8228748832	 1.9490808823	-0.5110794524	 0.15535
H	-0.9291969109	 1.8992823511	-0.2726643304	 0.155113
H	 0.1527310335	 1.9025354836	 1.1267469271	 0.150332
H	 2.2977925267	-2.7704472084	-0.0929842641	 0.117825
H	 1.3904774763	-4.2677808263	-0.4118814962	 0.089896
H	 0.7340225351	-3.1809600701	-2.3906575341	 0.294536
H	-0.3302326909	-4.3701583817	 1.2250620325	 0.114611
H	-1.3260912994	-2.872823689	 1.6283932273	 0.122635
19.4006	66.2614	101.6035	127.1472	232.4415	307.0826	315.3802	340.1278	417.3479	448.8413	530.5022	570.8268	660.0458	782.4327	897.6734	953.9199	988.5769	1051.098	1052.8751	1057.0663	1085.6946	1130.7565	1172.1923	1211.67	1292.5719	1347.7857	1407.8415	1413.6725	1427.2222	1475.4606	1476.9908	1489.295	1519.2934	2371.7659	2988.8071	3028.7592	3081.8445	3086.7155	3090.0471	3093.0512	3175.2979	3798.0292
CC#CC1(CO)CO1	CC#C[C@@]1(CO)CO1	
InChI=1S/C6H8O2/c1-2-3-6(4-7)5-8-6/h7H,4-5H2,1H3	InChI=1S/C6H8O2/c1-2-3-6(4-7)5-8-6/h7H,4-5H2,1H3/t6-/m1/s1
