22
gdb 9341	7.19162	0.70258	0.65545	2.4608	79.57	-0.2402	-0.0053	0.2349	1790.5537	0.197376	-350.24362	-350.233041	-350.232097	-350.280757	36.285	
C	 0.1267767621	 1.5518023394	 0.0088963506	-0.379721
C	 0.0273712072	 0.0239599962	 0.0018509118	-0.170456
C	-1.4198020628	-0.4789487564	 0.0127777392	-0.151558
C	-1.5233880183	-2.0039077028	 0.0057882571	-0.300563
C	-2.9542835821	-2.5294836629	 0.0166816672	 0.370149
O	-3.9100475604	-1.7867130672	 0.0303072	-0.297133
C	-3.1155600452	-4.0460384984	 0.0097186281	-0.273979
C	-4.5711292807	-4.5065043076	 0.0210252321	-0.374086
H	 1.1690576396	 1.8857444376	 0.0009588434	 0.109961
H	-0.3688939314	 1.9835718537	-0.8675580336	 0.115718
H	-0.3524881334	 1.9743502676	 0.8988651257	 0.115722
H	 0.5454070372	-0.3729923797	-0.8817547771	 0.091716
H	 0.5618048701	-0.3821430964	 0.8714222884	 0.091718
H	-1.9446690773	-0.0883414793	 0.8923275238	 0.108054
H	-1.9610127646	-0.0792103914	-0.8526584407	 0.10802
H	-1.0141925728	-2.4271861678	-0.8722843939	 0.115584
H	-0.9977690728	-2.4362182791	 0.8696849991	 0.115615
H	-2.5827445345	-4.4366357619	-0.8683720141	 0.118232
H	-2.5662009181	-4.4462937104	 0.8731561915	 0.118249
H	-5.0907926593	-4.1341803473	 0.9074645955	 0.130502
H	-5.1074507287	-4.1247773706	-0.8513873764	 0.130479
H	-4.6319221635	-5.5984390055	 0.0157457222	 0.107776
30.6755	51.8002	81.5371	102.0969	129.634	183.7084	236.8785	243.9902	297.4419	326.406	469.0627	470.444	643.7617	702.7074	746.944	814.7982	819.7942	909.8581	918.5557	981.493	1013.5679	1027.276	1044.0126	1073.6277	1122.7962	1142.3109	1151.6921	1233.4972	1282.5082	1284.652	1318.5772	1327.7664	1358.6892	1379.3466	1399.6257	1413.1734	1415.065	1446.5272	1459.4333	1483.7792	1491.2778	1495.2876	1497.4655	1499.6866	1511.7493	1805.3007	3005.1029	3009.961	3019.6735	3030.1727	3030.2041	3035.7846	3041.1267	3046.2941	3050.9028	3079.4855	3098.1778	3101.8651	3121.6517	3127.2515
CCCCC(=O)CC	CCCCC(=O)CC	
InChI=1S/C7H14O/c1-3-5-6-7(8)4-2/h3-6H2,1-2H3	InChI=1S/C7H14O/c1-3-5-6-7(8)4-2/h3-6H2,1-2H3
