19
gdb 87372	2.16262	1.59772	1.07262	2.9035	77.43	-0.2451	0.0228	0.2679	1171.6329	0.158803	-419.211718	-419.202485	-419.20154	-419.245606	34.146	
C	-0.6792372545	 1.1258225146	-0.0359519228	-0.395565
C	-0.405315977	-0.3229441865	 0.2852155832	-0.068505
N	 0.9066964314	-0.8538573972	-0.1223022095	-0.384771
C	 0.5826419404	-0.7746558494	 1.2943883306	 0.161796
C	 1.4138863715	-0.0889594911	 2.4080375546	-0.00737
C	 0.9120789346	 1.205404326	 3.0281157156	-0.399893
N	 1.1349196043	-1.3064893277	 3.2027775917	-0.370568
C	 0.4522738627	-1.9784725044	 2.2158770497	 0.400264
O	-0.0110190321	-3.0861847116	 2.1233871381	-0.381747
H	 0.231225073	 1.7231078444	 0.0534389802	 0.127495
H	-1.0432996932	 1.2215131404	-1.0642998431	 0.125651
H	-1.4409873394	 1.5413567637	 0.6315732214	 0.120853
H	-1.2580593493	-0.9917191942	 0.1694620212	 0.105933
H	 0.829509349	-1.8227127778	-0.4285758684	 0.246571
H	 2.4701077729	-0.0074299254	 2.1265724236	 0.098043
H	-0.158056527	 1.145026009	 3.2461559515	 0.124298
H	 1.4410291358	 1.4140792083	 3.9642287421	 0.118295
H	 1.0862332431	 2.0502287669	 2.3554857546	 0.128658
H	 1.504045084	-1.6229173478	 4.0865703557	 0.250565
82.2719	126.6125	143.7659	206.4952	224.1898	256.9456	283.9004	317.6267	366.9072	435.065	511.4668	580.5638	633.1369	728.1456	739.0448	836.0253	875.5397	893.1565	898.2381	1009.101	1058.5796	1068.3221	1076.2593	1096.9539	1126.7066	1136.333	1169.9386	1230.1069	1245.8282	1278.7898	1341.9879	1375.7634	1392.6037	1412.0398	1413.493	1471.8983	1486.8186	1493.7474	1500.4249	1509.2461	1886.1644	3037.2504	3039.2321	3041.9901	3100.7874	3105.4656	3109.087	3121.9081	3131.0965	3476.9671	3622.3094
CC1NC11C(C)NC1=O	C[C@H]1N[C@]21[C@@H](C)NC2=O	
InChI=1S/C6H10N2O/c1-3-6(4(2)8-6)5(9)7-3/h3-4,8H,1-2H3,(H,7,9)	InChI=1S/C6H10N2O/c1-3-6(4(2)8-6)5(9)7-3/h3-4,8H,1-2H3,(H,7,9)/t3-,4-,6+/m1/s1
