20
gdb 105808	2.41905	1.4501	1.20649	1.4438	78.98	-0.2183	0.0587	0.2771	1144.3596	0.170096	-403.051495	-403.042761	-403.041817	-403.084713	33.836	
C	 0.0187525236	 1.5400705388	 0.1885253477	-0.373692
C	-0.0598292371	 0.0293838097	-0.0757137988	-0.295359
C	-1.4686621975	-0.4960456521	-0.0009175808	 0.306049
C	-2.1025204702	-1.0189807848	 1.2428236983	 0.032164
O	-3.2231868335	-0.4652681745	 1.8806410743	-0.422202
C	-2.0374835874	-1.9329980476	 0.0446775477	-0.1458
N	-2.9209715815	-1.7003312119	-1.1558290295	-0.147139
C	-3.8797316433	-0.5908847447	-0.916275472	-0.253348
C	-2.4580987236	-0.2738261765	-1.1671786203	-0.091106
H	 1.0487519854	 1.9006943101	 0.1075490484	 0.111832
H	-0.5886189454	 2.0995443171	-0.5308215774	 0.121594
H	-0.3500603118	 1.7818625713	 1.1903132151	 0.125665
H	 0.3581420011	-0.1937294041	-1.0664006076	 0.102612
H	 0.5649679717	-0.506351002	 0.6488905446	 0.097703
H	-1.3244079999	-1.3167124874	 1.952773041	 0.091552
H	-3.6642542318	-1.175644456	 2.3605642457	 0.287487
H	-1.5336159788	-2.8928990586	 0.0834951991	 0.096804
H	-4.5493391411	-0.471853401	-1.7646027005	 0.114997
H	-4.3173883306	-0.437632476	 0.0579878298	 0.145441
H	-2.1120281782	 0.1744048202	-2.0944282748	 0.094746
76.9539	132.6182	199.986	204.2793	279.1645	304.6323	323.4772	358.8305	428.804	510.505	596.5225	667.7699	705.0559	759.6711	783.2341	795.4045	853.7727	902.4386	962.82	973.6684	986.0749	1015.1683	1020.7164	1062.5008	1089.2022	1097.0469	1118.1149	1144.3189	1171.4867	1218.7817	1240.191	1257.1714	1288.1379	1295.7986	1356.8447	1358.6713	1376.6474	1409.6452	1478.2751	1484.9794	1497.3622	1499.6236	1506.8228	3016.9462	3035.4076	3050.4853	3057.0264	3104.3991	3109.5436	3126.0638	3145.9819	3164.9935	3265.7358	3793.5893
CCC12C(O)C1N1CC21	CC[C@]12[C@@H](O)[C@H]1N1C[C@@H]21	
InChI=1S/C7H11NO/c1-2-7-4-3-8(4)5(7)6(7)9/h4-6,9H,2-3H2,1H3	InChI=1S/C7H11NO/c1-2-7-4-3-8(4)5(7)6(7)9/h4-6,9H,2-3H2,1H3/t4-,5+,6-,7+,8?/m0/s1
