17
gdb 51051	2.66268	1.25802	1.01409	5.6879	70.39	-0.2665	-0.0451	0.2214	1196.0471	0.133636	-458.979044	-458.970262	-458.969318	-459.012961	31.486	
O	-0.2727389864	-0.0064838602	-0.3783685092	-0.273772
C	-0.1392704558	 1.1522423022	-0.1296751957	 0.167767
O	 1.0640106229	 1.7703539237	-0.2298191519	-0.234139
C	 1.1256325041	 3.1607257623	 0.0229764456	 0.301326
C	 0.8802958563	 3.6679312723	 1.486800335	-0.282396
C	 2.1691427257	 4.5235913531	 1.3745879216	-0.22103
C	 2.5841511411	 3.6841094814	 0.1371465335	-0.276403
C	 0.3146476504	 3.9505152947	-0.9864835636	 0.137699
O	-0.4400299099	 3.4634235828	-1.7851229903	-0.251493
H	-0.9448814579	 1.8141655494	 0.2293316643	 0.088553
H	-0.0629544058	 4.1773972854	 1.6969054312	 0.118175
H	 0.996405924	 2.8303185002	 2.1783424952	 0.134529
H	 1.95616427	 5.5650699266	 1.1214365807	 0.117551
H	 2.8458775256	 4.5092468188	 2.2298169537	 0.12043
H	 3.2372984118	 2.8489839195	 0.3961868241	 0.139575
H	 2.9969735052	 4.2045746063	-0.7298176957	 0.119411
H	 0.4681848587	 5.0511392517	-0.9236701783	 0.094217
87.2694	108.0207	137.1069	148.4543	222.657	280.6817	304.9546	366.7103	440.486	464.3587	614.6001	687.2935	784.581	839.4199	869.5037	897.0627	941.0648	950.2401	984.0802	1033.206	1057.9142	1097.1139	1123.574	1174.1748	1203.5375	1218.7056	1249.9828	1277.5837	1282.0342	1307.7087	1420.3656	1434.881	1468.3291	1484.5242	1505.3489	1833.8722	1869.8417	2884.7704	2997.8924	3067.5869	3072.6049	3076.8914	3117.6085	3129.8539	3140.9943
O=COC1(CCC1)C=O	O=COC1(CCC1)C=O	
InChI=1S/C6H8O3/c7-4-6(9-5-8)2-1-3-6/h4-5H,1-3H2	InChI=1S/C6H8O3/c7-4-6(9-5-8)2-1-3-6/h4-5H,1-3H2
