18
gdb 6390	3.50997	1.26261	1.0681	1.367	64.94	-0.2716	0.0118	0.2834	1150.8906	0.151021	-422.118575	-422.108941	-422.107997	-422.153776	33.267	
C	-0.0539825943	 1.5654109738	 0.0100426755	-0.399065
C	-0.0145701629	 0.0439957321	 0.0733474982	 0.113641
C	-1.3950572967	-0.6077963679	 0.0531535191	-0.071412
O	-2.1356032491	-0.2762560613	-1.1059659759	-0.418476
O	 0.6558722247	-0.4823850368	-1.106691269	-0.273448
C	 2.0055905403	-0.5574531213	-1.0731070211	 0.434706
C	 2.5386482269	-1.1154450689	-2.3712434406	-0.479223
O	 2.6739442947	-0.2224928601	-0.1287834505	-0.350368
H	 0.9583105167	 1.97173053	-0.0375476279	 0.137035
H	-0.6256252563	 1.8944455927	-0.8607934041	 0.132062
H	-0.5393288991	 1.9602900387	 0.9081923895	 0.12087
H	 0.5437666537	-0.2872196052	 0.9536091465	 0.108079
H	-1.2773948986	-1.6974164208	 0.1568046186	 0.093332
H	-1.9747432297	-0.2507279112	 0.9105882505	 0.113561
H	-1.5966881317	-0.5439639156	-1.8588396876	 0.289801
H	 2.2532104336	-0.4648761895	-3.2030086762	 0.149818
H	 3.6238271768	-1.1898680937	-2.3150499815	 0.15074
H	 2.1052817712	-2.1006891949	-2.5647013634	 0.148348
53.943	72.1459	102.2697	112.9356	194.4982	230.6316	273.7484	306.9666	393.3041	420.5467	450.3469	605.8366	625.5993	645.5193	824.0168	882.9313	926.4935	967.1364	1006.4616	1034.1847	1063.7248	1075.4727	1142.3734	1155.338	1238.5081	1261.5973	1342.9088	1370.0569	1388.1527	1396.3591	1417.0419	1429.6239	1469.7036	1477.1951	1489.5869	1494.4402	1501.2357	1824.0742	2989.6484	3050.8724	3056.9038	3078.7966	3082.6272	3121.7205	3122.862	3144.2047	3169.9778	3805.8757
CC(CO)OC(C)=O	C[C@@H](CO)OC(=O)C	
InChI=1S/C5H10O3/c1-4(3-6)8-5(2)7/h4,6H,3H2,1-2H3	InChI=1S/C5H10O3/c1-4(3-6)8-5(2)7/h4,6H,3H2,1-2H3/t4-/m0/s1
