14
gdb 33715	4.08355	1.55004	1.31066	4.7007	69.74	-0.2565	-0.0348	0.2216	924.0718	0.103044	-395.681678	-395.675328	-395.674384	-395.712331	25.188	
N	 0.0906703754	-1.0614012176	 0.0041592778	-0.334231
C	 0.0113606851	 0.0920339766	-0.0012554463	 0.221245
C	-0.0550498733	 1.5242743911	-0.0334830597	 0.222013
N	-1.1735347075	 2.1852380559	 0.6178267724	-0.234879
C	-1.187445327	 3.3511475931	 0.1061605916	 0.003765
N	-0.1478075983	 3.6654669154	-0.8501248861	-0.183086
C	 1.1002838015	 3.7597936207	 0.0622212875	-0.189875
C	 1.3228089512	 2.2762400537	-0.1237036583	-0.116234
C	 0.3451412509	 2.2982817916	-1.258885312	-0.063271
H	-1.8688063194	 4.1355691952	 0.4181513999	 0.141318
H	 1.8576169266	 4.3578053967	-0.4466645926	 0.141542
H	 0.9094561949	 4.1599999999	 1.0625503047	 0.131617
H	 2.236417963	 1.7101544733	-0.0001914252	 0.130581
H	 0.3649206869	 1.9605003144	-2.2869550336	 0.129495
154.6594	165.0011	361.8986	398.5659	499.5371	524.8943	548.169	580.8411	730.8861	778.6849	815.286	850.6501	868.6244	889.57	909.9216	964.8657	974.6645	984.5625	1031.3045	1041.6309	1091.0622	1148.9526	1174.9736	1223.1088	1233.8103	1296.3946	1312.0277	1354.1592	1501.6507	1650.5122	2361.8652	3058.9666	3128.4994	3200.1656	3205.4825	3215.064
N#CC12N=CN3CC1C23	N#C[C@@]12[N][CH]N3C[C@@H]1[C@@H]23	
InChI=1S/C6H5N3/c7-2-6-4-1-9(3-8-6)5(4)6/h3-5H,1H2	InChI=1S/C6H5N3/c7-2-6-4-1-9(3-8-6)5(4)6/h3-5H,1H2/t4-,5+,6-/m1/s1
