18
gdb 92074	2.91642	1.53655	1.10514	3.268	72.65	-0.2606	0.02	0.2806	1087.262	0.149348	-439.08632	-439.078667	-439.077723	-439.118431	30.454	
O	 0.1758583364	 1.3102625627	 0.3532362803	-0.444059
C	 0.0032879958	-0.0354448687	 0.0111218725	 0.078562
C	-1.4814988422	-0.4096811164	-0.1219708935	-0.26074
C	-1.5625001158	-1.8965365542	-0.4334813038	-0.060905
C	-1.8918175389	-2.4018813478	-1.8228513798	-0.309836
C	-0.4769949595	-2.4342299151	-1.3258052297	 0.096078
O	 0.4411221466	-1.5273111815	-1.9103497384	-0.242246
C	 0.7148233465	-0.3500588555	-1.2941314781	 0.380863
N	 1.5109359777	 0.5044255982	-1.7829237513	-0.550962
H	 0.8425792933	 1.649622214	-0.2672449053	 0.2958
H	 0.4417922633	-0.6879371132	 0.7876501409	 0.089876
H	-1.9988508365	-0.1699266242	 0.8098458501	 0.12021
H	-1.9341045841	 0.2032245206	-0.9080786465	 0.115591
H	-1.8431869355	-2.538431372	 0.3954213124	 0.10201
H	-2.4222738499	-3.3417812343	-1.925727112	 0.121655
H	-2.121807313	-1.6610012554	-2.581374594	 0.129406
H	-0.0008254138	-3.3838789001	-1.1076683273	 0.11049
H	 1.9135047195	 0.1927915427	-2.6661542965	 0.228205
96.0945	126.5506	296.5825	325.3821	349.9495	414.2941	441.8848	461.6228	482.75	548.917	657.849	706.9222	771.1392	818.7204	837.3406	880.168	882.1139	951.3724	1002.3698	1029.834	1058.5966	1067.6427	1094.7549	1114.0298	1130.2425	1156.9879	1179.5864	1214.3121	1246.6735	1267.9659	1295.5867	1335.1693	1372.7055	1393.2211	1413.2235	1462.9269	1477.5158	1499.8032	1747.2049	2940.1639	3056.5696	3106.6478	3135.452	3155.9636	3168.7585	3226.2505	3498.2148	3657.9772
OC1CC2CC2OC1=N	O[C@H]1C[C@H]2C[C@H]2O[C]1[NH]	
InChI=1S/C6H9NO2/c7-6-4(8)1-3-2-5(3)9-6/h3-5,7-8H,1-2H2	InChI=1S/C6H9NO2/c7-6-4(8)1-3-2-5(3)9-6/h3-5,7-8H,1-2H2/t3-,4-,5+/m0/s1
