14
gdb 11763	4.84405	1.79118	1.62091	4.2835	66.32	-0.2536	-0.0165	0.2371	793.9377	0.10931	-341.53746	-341.531396	-341.530452	-341.567478	24.16	
N	 0.0674224757	-1.1623067127	-0.0106397763	-0.335035
C	 0.0344560216	-0.0070194395	-0.0108461056	 0.151055
C	-0.0096345237	 1.4381630863	 0.0177831211	 0.191941
C	-0.3285310334	 2.2582384314	 1.3190541141	-0.247335
C	 0.3978094297	 3.3293572366	 0.445340816	-0.076803
N	 1.298580659	 2.2252851349	-0.1114827036	-0.330428
C	-0.5793555794	 3.4659128557	-0.7290106541	-0.060058
C	-0.8598619773	 2.1974476045	-1.021568795	-0.086332
H	-1.3775326825	 2.4092510856	 1.583892042	 0.115298
H	 0.2582967444	 1.9262421844	 2.1806455932	 0.113966
H	 0.8744932879	 4.2160653934	 0.857292913	 0.088042
H	 1.9049570959	 1.9156184552	 0.6555205599	 0.219879
H	-0.918681926	 4.3829604924	-1.1857191904	 0.122978
H	-1.4829378416	 1.7447150319	-1.7766260945	 0.132832
161.7319	174.5266	452.9788	504.1594	523.4349	528.2265	560.2803	604.9472	711.2344	729.5091	834.3842	867.2859	899.8116	909.5046	928.0838	947.4581	993.8748	1034.6678	1055.6767	1097.5027	1149.4317	1199.469	1222.6839	1240.0546	1272.9302	1297.7624	1356.1618	1497.726	1627.0786	2359.8823	3053.1632	3124.9221	3150.1934	3245.0364	3272.7179	3393.1169
N#CC12CC(N1)C=C2	N#C[C@@]12C[C@@H](N1)C=C2	
InChI=1S/C6H6N2/c7-4-6-2-1-5(3-6)8-6/h1-2,5,8H,3H2	InChI=1S/C6H6N2/c7-4-6-2-1-5(3-6)8-6/h1-2,5,8H,3H2/t5-,6+/m0/s1
