25
gdb 57351	2.2459	1.409	1.28863	1.4676	87.44	-0.2392	0.0728	0.312	1205.1663	0.226657	-389.488251	-389.477721	-389.476777	-389.522866	40.809	
C	-0.0215875909	 1.5222930258	-0.1098935758	-0.426977
C	-0.0036850588	-0.0180085977	-0.0211031906	 0.224807
C	 0.8191142704	-0.4050452199	 1.2256337479	-0.421302
C	-1.4498205367	-0.528390556	 0.1233945728	-0.419724
C	 0.6610845126	-0.6278926185	-1.2909557749	 0.45026
C	 0.8329577087	-2.1450036051	-1.2458438486	-0.452462
C	 0.1503329781	-0.1213876638	-2.6720387322	-0.341195
C	 1.5684020289	 0.4514784172	-2.8368103732	-0.070396
O	 1.9659466355	-0.0082749368	-1.5310809385	-0.330343
H	 0.9877176121	 1.9134208231	-0.2572041433	 0.130666
H	-0.6565253373	 1.8866816263	-0.9232427194	 0.103878
H	-0.4185987398	 1.9430137117	 0.8195608492	 0.10614
H	 0.4438209521	 0.1268510606	 2.1060619237	 0.104846
H	 0.7628062758	-1.4751800823	 1.4434979064	 0.108413
H	 1.8711755779	-0.1367904315	 1.0907529998	 0.132518
H	-2.047014071	-0.3074271515	-0.7683731759	 0.109774
H	-1.492314256	-1.6071242922	 0.2995381749	 0.113022
H	-1.9376096806	-0.0396316602	 0.9734164118	 0.111852
H	-0.1289038816	-2.6580649311	-1.1520962879	 0.115391
H	 1.3082731088	-2.4858225564	-2.1701216702	 0.113869
H	 1.4723994682	-2.4478747085	-0.4137485587	 0.126589
H	-0.1230989113	-0.9132797879	-3.3715187083	 0.103315
H	-0.6500396083	 0.6170099138	-2.6453438877	 0.108016
H	 2.1743123101	-0.0017462293	-3.6313656365	 0.099021
H	 1.6351146332	 1.5428357202	-2.9234979847	 0.100022
70.73	99.3285	187.2432	214.5172	250.4172	255.6598	274.0521	295.9415	317.4223	351.1636	374.095	388.0688	424.5008	477.8708	496.5589	603.2093	781.7239	798.1356	854.5776	884.346	916.927	935.6518	939.2521	957.6823	965.9101	995.6781	1025.	1037.9626	1039.9048	1125.2378	1163.902	1181.0175	1194.3231	1222.7663	1248.7087	1250.048	1275.0294	1299.6941	1352.4637	1390.9619	1396.0023	1404.318	1427.9858	1473.8687	1484.543	1486.6849	1491.3318	1494.5331	1499.1309	1509.0329	1516.6751	1524.2834	1533.8732	3012.8142	3029.6737	3035.5249	3042.4621	3046.381	3050.4238	3085.8348	3093.0239	3098.0029	3102.2887	3105.115	3112.7169	3116.1039	3126.6306	3129.995	3143.8688
CC(C)(C)C1(C)CCO1	CC(C)(C)[C@@]1(C)CCO1	
InChI=1S/C8H16O/c1-7(2,3)8(4)5-6-9-8/h5-6H2,1-4H3	InChI=1S/C8H16O/c1-7(2,3)8(4)5-6-9-8/h5-6H2,1-4H3/t8-/m1/s1
