20
gdb 97257	3.32229	1.1866	0.93888	3.0898	79.19	-0.2419	0.0209	0.2628	1287.682	0.171582	-440.280927	-440.271909	-440.270965	-440.315345	32.883	
C	 0.0536669602	 1.4603853207	-0.3050572299	-0.320705
N	 0.0401597847	 0.0112578142	-0.1943756641	-0.279467
C	-1.0194823011	-0.5772114633	 0.1684114074	 0.380337
C	-1.0187266396	-2.097388141	 0.2068793246	-0.18012
O	-1.6259667894	-2.6450609441	 1.3615477239	-0.236666
C	-3.0037716799	-2.9351026735	 1.2149792012	-0.072654
C	-3.8231265241	-1.715085327	 0.7602345498	-0.246907
C	-3.2164495538	-0.4037148872	 1.2578616638	-0.057263
O	-2.1715624549	 0.1095444093	 0.4194290049	-0.26391
H	 1.0722095945	 1.818407659	-0.1294249127	 0.117654
H	-0.2262077905	 1.7625606942	-1.3227850555	 0.122455
H	-0.6319564682	 1.9602679039	 0.3889044489	 0.116318
H	-1.4947775789	-2.4877636485	-0.706736654	 0.105098
H	 0.0277172846	-2.4048487092	 0.1962042209	 0.139808
H	-3.1510499834	-3.7768189161	 0.520107926	 0.097494
H	-3.3285644908	-3.2627950673	 2.2074171841	 0.113569
H	-3.8963422406	-1.6638263965	-0.3316107666	 0.118068
H	-4.8482643949	-1.8081476635	 1.1366415067	 0.109898
H	-3.9676385942	 0.3895615465	 1.2425205985	 0.115812
H	-2.8468906494	-0.5081217207	 2.284542502	 0.12118
51.0796	80.774	128.0673	224.7776	226.768	283.0674	308.5632	348.1124	391.991	498.136	565.9542	587.6924	691.1763	784.8022	824.6672	895.8565	933.1671	969.5373	1005.1822	1035.8692	1060.0977	1086.4944	1120.6249	1132.9957	1158.244	1177.9055	1232.2431	1257.3773	1281.806	1296.4853	1326.8058	1373.2686	1383.5494	1407.2398	1427.971	1436.0554	1474.7815	1485.8326	1488.3307	1495.5572	1501.2275	1504.7808	1756.3081	2980.5393	2984.3691	3012.2535	3040.7512	3042.4482	3067.7246	3069.6223	3091.2028	3097.5168	3102.8954	3125.0738
CN=C1COCCCO1	CN=C1COCCCO1	
InChI=1S/C6H11NO2/c1-7-6-5-8-3-2-4-9-6/h2-5H2,1H3	InChI=1S/C6H11NO2/c1-7-6-5-8-3-2-4-9-6/h2-5H2,1H3
