20
gdb 68326	3.33176	1.04996	0.93755	3.1555	83.2	-0.2553	0.0248	0.2801	1332.1235	0.170698	-403.102997	-403.094232	-403.093288	-403.137322	32.809	
C	-0.0167280141	 1.4591539093	 0.0377209222	-0.51862
C	 0.0173735535	-0.0444982484	 0.0385737833	 0.28847
C	 0.6225894461	-1.0028545629	-1.0372266553	-0.261595
C	 0.033789524	-1.9461183479	 0.0483780544	-0.100288
C	 0.6586132969	-0.9937992577	 1.1093946483	-0.26113
C	-1.1993917926	-1.0037137169	 0.0332530525	 0.152753
O	-2.0233544913	-0.9299833081	 1.1852219796	-0.209052
C	-3.1738252407	-1.6281809784	 1.1617910143	 0.119166
N	-3.9139353787	-1.6654200242	 2.1838326018	-0.444805
H	 0.9958540658	 1.874861362	 0.0682617523	 0.121566
H	-0.5111479915	 1.8431964135	-0.8614460851	 0.117824
H	-0.5631576308	 1.8329339165	 0.9096574168	 0.136511
H	 0.1461601734	-1.0094382262	-2.0228977032	 0.088689
H	 1.7112895911	-0.9947292531	-1.119575326	 0.099563
H	 0.0323563667	-3.0359590605	 0.0475623319	 0.076376
H	 1.7506049169	-0.9843798651	 1.1606735458	 0.088764
H	 0.2043021986	-0.9913335654	 2.0998331725	 0.120949
H	-1.8161212321	-1.0110132793	-0.8738527645	 0.074214
H	-3.3702354695	-2.1158095989	 0.1964191149	 0.082963
H	-4.7459892618	-2.2176805381	 1.9867590335	 0.227682
37.6074	94.0615	143.6732	200.0936	230.8384	286.9647	351.0577	442.6922	444.7218	567.6039	636.4389	701.1822	761.7083	814.5388	823.8791	903.6388	908.9486	922.5136	962.5859	1010.0481	1020.2864	1023.0099	1044.644	1068.5672	1089.3558	1102.2304	1143.9488	1149.6751	1188.0051	1202.8361	1225.3611	1233.7302	1254.7342	1297.1661	1339.4281	1400.4016	1412.3855	1431.2204	1488.4221	1491.8022	1496.5779	1538.362	1745.2701	3014.0796	3029.9288	3033.6989	3048.9039	3065.0828	3096.4517	3104.5274	3116.8354	3121.2826	3147.8883	3516.8034
CC12CC(C1)C2OC=N	C[C@@]12C[C@@H](C1)[C@H]2O[CH][NH]	
InChI=1S/C7H11NO/c1-7-2-5(3-7)6(7)9-4-8/h4-6,8H,2-3H2,1H3	InChI=1S/C7H11NO/c1-7-2-5(3-7)6(7)9-4-8/h4-6,8H,2-3H2,1H3/t5-,6-,7+/m1/s1
