18
gdb 20054	4.76904	1.4162	1.22122	1.7426	72.39	-0.2396	0.0255	0.2651	1010.4677	0.154866	-347.792254	-347.784948	-347.784004	-347.824424	27.476	
C	 0.094088301	 1.3934990326	-0.1733418902	-0.188639
O	 0.9795212247	 0.2982701156	-0.4223170827	-0.2447
C	-0.3263320601	 0.011286867	 0.08326307	 0.102239
C	-0.4061068886	-0.5703367879	 1.4764474337	-0.01944
C	-1.8769783368	-0.5480036933	 1.9892927479	-0.273159
C	-2.3380067209	-1.9739458907	 1.8036146506	-0.056091
C	-1.3289462249	-2.7956981639	 1.5212909256	-0.05526
C	-0.0037456049	-2.075478905	 1.4677743565	-0.267799
H	 0.3692462318	 2.0335017208	 0.6646277859	 0.110801
H	-0.2610937742	 1.9192164758	-1.0588090547	 0.112552
H	-0.9867986506	-0.4617530187	-0.6477169631	 0.093747
H	 0.257789909	 0.0118011256	 2.1210871256	 0.073304
H	-1.9327221986	-0.2498202546	 3.0448929498	 0.106296
H	-2.4918149579	 0.1747122288	 1.4377527151	 0.101318
H	-3.3742433707	-2.2704958421	 1.9237299627	 0.090652
H	-1.4166914955	-3.8666434209	 1.3741455967	 0.091359
H	 0.5944676992	-2.3292548138	 0.5850318983	 0.117512
H	 0.6159165481	-2.3316920754	 2.3377512522	 0.105309
70.8913	83.3489	195.0698	309.8632	339.3112	383.17	491.6342	683.8859	743.4695	787.9712	801.8898	861.9744	901.1094	914.6548	951.9796	956.7421	974.3065	979.9297	991.5519	1060.014	1100.282	1113.0539	1131.7981	1156.048	1175.0121	1179.0954	1227.3597	1242.2595	1292.9351	1305.5137	1313.1718	1330.5005	1374.3552	1450.8286	1486.1442	1493.5888	1530.2423	1688.736	3012.002	3014.4181	3039.9336	3056.116	3068.7235	3078.2143	3085.7063	3163.4117	3180.1808	3205.7493
C1OC1C1CC=CC1	C1O[C@H]1[C@H]1CC=CC1	
InChI=1S/C7H10O/c1-2-4-6(3-1)7-5-8-7/h1-2,6-7H,3-5H2	InChI=1S/C7H10O/c1-2-4-6(3-1)7-5-8-7/h1-2,6-7H,3-5H2/t7-/m1/s1
