14
gdb 9137	3.90477	0.90865	0.76903	1.9869	66.97	-0.2752	-0.0094	0.2658	1405.5356	0.106221	-378.677667	-378.668514	-378.66757	-378.714066	30.624	
N	-0.0863482305	 1.464189447	 0.0424471996	-0.484301
C	 0.0454129971	 0.002547913	 0.0261716666	-0.294153
C	 0.7341380535	-0.5147880344	-1.1865545111	 0.270427
N	 1.2555317384	-0.8654787389	-2.1566955104	-0.321019
C	 0.7303141521	-0.4728679051	 1.2301822065	 0.112827
C	 1.2938361054	-0.8582080965	 2.2205907989	 0.077385
C	 1.9971050412	-1.3734286338	 3.3981509716	-0.196032
O	 1.9288311496	-2.784370805	 3.5173125453	-0.396235
H	 0.8376658137	 1.8866098573	 0.0500252312	 0.249396
H	-0.5468128119	 1.7702431127	-0.8103633237	 0.248607
H	-0.9710945586	-0.413456939	 0.0106995669	 0.164344
H	 3.0385672139	-1.015639967	 3.3813553216	 0.125909
H	 1.5387872301	-0.9720756612	 4.30844323	 0.149465
H	 2.279648296	-3.164660069	 2.704890767	 0.29338
7.687	73.7209	115.3524	194.0252	207.0044	252.5341	285.6937	338.1624	387.8689	484.6605	494.6483	601.7311	611.6743	780.7584	846.3897	944.4589	986.1119	1042.6165	1071.1174	1166.6391	1194.1474	1215.9899	1318.6846	1365.2052	1391.1097	1416.9657	1489.5639	1656.1472	2348.2799	2375.1181	2983.8129	3023.1865	3069.7932	3492.4995	3577.8654	3814.3243
NC(C#N)C#CCO	N[C@@H](C#N)C#CCO	
InChI=1S/C5H6N2O/c6-4-5(7)2-1-3-8/h5,8H,3,7H2	InChI=1S/C5H6N2O/c6-4-5(7)2-1-3-8/h5,8H,3,7H2/t5-/m1/s1
