15
gdb 33484	2.26553	1.77826	1.19874	1.8046	77.38	-0.2468	-0.005	0.2419	1038.9639	0.109234	-383.360755	-383.352531	-383.351587	-383.393277	31.77	
C	 0.0171336614	-1.2179168238	-0.0217905978	-0.442274
C	 0.0211358552	-0.0167967951	-0.0059154207	 0.316138
C	 0.0536084489	 1.4418115256	 0.0160873613	 0.030295
O	-0.1699497989	 1.9928705122	 1.364621402	-0.313928
C	 1.069035528	 2.7097481611	 1.2976792244	 0.102957
C	 2.2230943377	 1.7652803262	 1.2078764747	-0.312716
C	 1.4418642062	 2.1252807917	-0.037124315	-0.154785
C	-0.893804537	 2.0131157306	-0.9358431977	 0.301159
C	-1.6499969882	 2.4959968316	-1.73413041	-0.415226
H	 0.0035805168	-2.2799852852	-0.0379853621	 0.204061
H	 1.0868866851	 3.7192817654	 1.6885408058	 0.112647
H	 3.2082699197	 2.2194997702	 1.2538589899	 0.12016
H	 2.1439677781	 0.7736637407	 1.6424638619	 0.131457
H	 1.8652077495	 2.563288582	-0.9290674766	 0.117757
H	-2.3310496326	 2.9156755368	-2.4329709801	 0.202299
124.6417	132.0515	161.6014	176.4467	316.1557	407.8036	477.8547	510.7904	544.2737	556.1506	579.4815	635.9206	638.916	665.6425	667.7483	766.6209	810.6349	880.9397	911.6617	973.6439	983.9711	1019.2231	1046.5422	1062.5791	1082.0773	1113.3947	1168.8559	1212.3002	1263.5737	1346.788	1471.0173	2238.3729	2241.2228	3123.3235	3194.9736	3214.2213	3225.3351	3500.2344	3501.2724
C#CC1(OC2CC12)C#C	C#CC1(O[C@H]2C[C@@H]12)C#C	
InChI=1S/C8H6O/c1-3-8(4-2)6-5-7(6)9-8/h1-2,6-7H,5H2	InChI=1S/C8H6O/c1-3-8(4-2)6-5-7(6)9-8/h1-2,6-7H,5H2/t6-,7+/m1/s1
