18
gdb 33834	4.19671	1.08685	1.00071	4.4159	82.87	-0.2633	0.0196	0.283	1215.4736	0.148364	-364.787362	-364.779513	-364.778569	-364.819671	30.807	
N	 0.0995469933	-1.1442166052	-0.0715997437	-0.353285
C	 0.0604835812	 0.0122792159	-0.0237947908	 0.187193
C	 0.0041817565	 1.4334687767	 0.0529098723	 0.215058
C	 0.2716382582	 2.3205423434	-1.1451750308	-0.31895
C	 1.1723972905	 2.451440223	 0.0429457242	-0.17479
C	 0.4806532082	 3.2311856082	 1.1432850564	 0.389116
C	 1.1429974442	 3.8406565468	 2.3389592158	-0.336299
C	 0.4471657226	 4.7211579024	 1.3220740775	-0.322749
C	-0.6944711667	 2.2307627696	 1.1746945483	-0.375601
H	 0.6929255026	 1.8105259494	-2.0045982662	 0.138362
H	-0.4405763495	 3.1064215283	-1.3824481149	 0.123936
H	 2.2313917418	 2.2287549851	-0.0078623323	 0.113478
H	 0.6739682342	 3.7046779769	 3.3081917579	 0.119407
H	 2.2278867939	 3.8566890411	 2.3681466045	 0.119677
H	 1.0610017788	 5.3318631455	 0.6679912966	 0.118299
H	-0.4954941775	 5.1778310677	 1.6058587894	 0.11812
H	-1.6893614064	 2.6119272986	 0.9244343211	 0.110012
H	-0.7467287861	 1.6710754764	 2.1108756847	 0.129016
86.9019	149.46	216.4724	259.3547	299.9171	379.4051	447.7271	485.3613	548.9347	576.4356	632.2342	772.0638	779.7211	829.0545	862.1407	871.7276	923.566	956.4125	966.5373	1001.0651	1004.273	1027.7679	1054.0436	1080.1056	1090.3885	1098.8379	1151.3271	1187.3774	1203.4311	1227.7245	1258.3128	1267.8211	1364.795	1402.8557	1464.5746	1480.0492	1493.5813	1507.4844	2343.156	3052.3929	3115.7564	3119.6147	3124.6488	3128.8808	3190.7347	3203.5769	3217.9772	3218.3173
N#CC12CC1C1(CC1)C2	N#C[C@]12C[C@H]1C1(CC1)C2	
InChI=1S/C8H9N/c9-5-8-3-6(8)7(4-8)1-2-7/h6H,1-4H2	InChI=1S/C8H9N/c9-5-8-3-6(8)7(4-8)1-2-7/h6H,1-4H2/t6-,8+/m0/s1
