21
gdb 60131	2.84973	1.02061	0.90711	2.0281	74.98	-0.2379	0.0406	0.2784	1379.8697	0.180561	-461.335823	-461.32573	-461.324786	-461.370705	38.09	
C	-0.0589489248	 1.5254630953	 0.1813661471	-0.387718
C	-0.061394296	-0.0052874319	 0.1579494037	 0.154088
O	 0.2819234672	-0.5256451678	 1.4370065257	-0.448721
C	-1.39985955	-0.556434179	-0.3619017154	-0.241569
C	-1.4855072931	-2.0686979297	-0.3380875402	-0.079694
C	-1.8147062143	-2.8110269886	 0.9330459588	 0.009867
O	-2.1437880713	-1.9932819589	 2.0414926393	-0.425108
C	-2.8198023952	-2.7878828363	-0.1930991782	 0.073516
O	-3.994495342	-2.0616654885	 0.0009063849	-0.428426
H	 0.8969718055	 1.8918556682	 0.5649746964	 0.11929
H	-0.2142826896	 1.9413700569	-0.8204115225	 0.104151
H	-0.8537102246	 1.90204839	 0.8355423141	 0.107146
H	 0.73785429	-0.3426121133	-0.5185184018	 0.07193
H	-0.5313637451	-0.7398001683	 1.911141244	 0.28741
H	-2.217191466	-0.1251680792	 0.2260524625	 0.097868
H	-1.5524322277	-0.2048226373	-1.3894102933	 0.104828
H	-0.7539373535	-2.5722256162	-0.9657094702	 0.091474
H	-1.2620981824	-3.7113045722	 1.1877188564	 0.099139
H	-2.4881006035	-2.5565805843	 2.7425748334	 0.303308
H	-2.9928643113	-3.6871661168	-0.7768271864	 0.101937
H	-3.9317128924	-1.6746767621	 0.8845109215	 0.285286
62.0409	104.7273	136.3127	211.1608	230.1729	242.9647	271.9549	287.211	342.9576	418.6792	437.0818	469.3921	486.637	550.626	614.8427	653.3531	770.1208	787.4094	845.4769	895.6062	918.6527	956.5601	1014.6927	1047.7902	1078.7117	1089.2388	1117.4633	1140.7553	1150.3187	1166.6563	1209.5468	1234.2468	1268.5455	1306.2302	1327.6227	1345.3295	1373.7471	1396.4466	1402.4719	1409.5095	1437.4646	1471.5363	1477.1102	1493.08	1496.4463	2994.3417	3026.9304	3038.1072	3077.4281	3096.5209	3116.5235	3131.7897	3138.8708	3155.2162	3749.4209	3767.5658	3815.4731
CC(O)CC1C(O)C1O	C[C@@H](O)C[C@H]1[C@@H](O)[C@H]1O	
InChI=1S/C6H12O3/c1-3(7)2-4-5(8)6(4)9/h3-9H,2H2,1H3	InChI=1S/C6H12O3/c1-3(7)2-4-5(8)6(4)9/h3-9H,2H2,1H3/t3-,4-,5+,6-/m1/s1
