20
gdb 112432	2.00862	1.51665	0.96108	2.6424	76.6	-0.2557	0.029	0.2848	1265.3533	0.170921	-440.311464	-440.302198	-440.301253	-440.345699	34.517	
C	 0.2499712511	 1.4580448698	 0.1302246564	-0.391488
C	 0.3609057891	-0.0675954055	 0.0681128973	-0.172031
C	 0.4632701118	-0.5851807752	-1.3650394368	 0.087286
O	 1.6398577187	-0.0585239133	-2.0200381205	-0.248985
C	 2.6392116555	-0.9922671645	-2.0788146095	 0.417064
N	 3.7781137367	-0.7911695606	-2.5832959615	-0.542764
C	 2.152550663	-2.2842294593	-1.4658855002	-0.345521
C	 0.6267012426	-2.1176286022	-1.4930855783	 0.091475
O	-0.081404309	-2.7696941782	-0.4597058693	-0.431149
H	 1.1143706299	 1.9323356248	-0.3423431104	 0.132053
H	-0.6492256172	 1.8105885194	-0.3876444533	 0.113614
H	 0.1943422486	 1.8039096802	 1.1664133236	 0.114177
H	 1.2334676454	-0.405246662	 0.6399489273	 0.101104
H	-0.512042523	-0.5383843444	 0.5305466714	 0.121561
H	-0.3933287641	-0.2262673883	-1.944788992	 0.089958
H	 3.8524976226	 0.170825768	-2.9202525325	 0.220326
H	 2.5328323478	-3.1485414243	-2.0116019858	 0.129422
H	 2.494387311	-2.3570056349	-0.4272826613	 0.137686
H	 0.2442540731	-2.4250637074	-2.4775516118	 0.084305
H	-0.0200799136	-3.7187201419	-0.6037784425	 0.291906
83.6276	106.7492	114.1131	189.3803	229.134	253.2795	290.3522	357.5422	428.9443	493.2678	504.8263	544.0462	629.2787	679.1067	778.2517	846.9557	859.5475	897.7985	925.4673	976.8162	999.5262	1037.0573	1075.1129	1093.8543	1106.952	1128.1786	1140.1906	1180.9468	1247.6799	1258.9524	1279.1188	1300.354	1323.4249	1360.7721	1392.3546	1406.3048	1413.389	1435.0827	1473.8658	1478.7095	1497.6059	1509.0426	1779.531	2989.9612	3036.2167	3039.4014	3055.5215	3058.9204	3088.2265	3104.8719	3121.8236	3128.8739	3465.9399	3829.5571
CCC1OC(=N)CC1O	CC[C@H]1O[C]([NH])C[C@H]1O	
InChI=1S/C6H11NO2/c1-2-5-4(8)3-6(7)9-5/h4-5,7-8H,2-3H2,1H3	InChI=1S/C6H11NO2/c1-2-5-4(8)3-6(7)9-5/h4-5,7-8H,2-3H2,1H3/t4-,5-/m1/s1
