23
gdb 57441	2.55444	1.07107	0.95005	3.3441	87.46	-0.2434	-0.0172	0.2261	1381.0714	0.202927	-388.296276	-388.285825	-388.284881	-388.332244	39.165	
C	 0.0663162528	 1.5404497351	 0.3322017338	-0.426095
C	-0.0019113499	 0.0211379189	 0.1022354648	 0.228213
C	 0.5819580102	-0.7066471674	 1.3287841689	-0.399216
C	-1.4862497395	-0.373601979	-0.0659016072	-0.396707
C	 0.7272730849	-0.4795357374	-1.151787327	 0.019928
C	 0.953073671	 0.2722914097	-2.418552705	-0.331893
C	 2.1647583799	-0.1832670821	-1.6102731094	-0.123668
C	 3.0556004254	 0.8349700005	-1.0100950084	 0.151654
O	 4.2156797963	 0.6360154474	-0.7369351762	-0.275135
H	 1.0749337176	 1.8798140886	 0.5800551924	 0.120248
H	-0.2837006231	 2.1044834817	-0.5380170888	 0.113182
H	-0.5789729954	 1.8110576315	 1.1744647326	 0.116139
H	 0.035105419	-0.4364909503	 2.2385053154	 0.11002
H	 0.5171950986	-1.7937674561	 1.2107715973	 0.109793
H	 1.6351949479	-0.4485100357	 1.4774532405	 0.125366
H	-1.9311166784	 0.1225198318	-0.9349152938	 0.114915
H	-1.5981332836	-1.4545118866	-0.2026401662	 0.110215
H	-2.0639098016	-0.0879044669	 0.8193008173	 0.111377
H	 0.5101625744	-1.5344880096	-1.3097708705	 0.096981
H	 0.7682934083	-0.2102570494	-3.3717730374	 0.123897
H	 0.7669174663	 1.3419811486	-2.4200938387	 0.123748
H	 2.7159599742	-1.049219863	-1.9624257813	 0.106136
H	 2.6004245846	 1.8369220097	-0.853045253	 0.0709
22.8796	70.8739	180.7389	213.6038	241.6036	252.7052	278.293	301.0636	303.3377	353.8073	363.6479	391.9071	450.0646	513.8611	573.617	679.7101	819.8657	847.6895	871.9414	913.338	932.1541	942.5713	962.8526	987.5642	1029.2493	1051.8755	1054.7985	1077.0315	1105.954	1148.3226	1198.6542	1214.139	1223.6097	1239.1881	1304.8583	1347.3532	1397.9302	1400.7189	1405.565	1436.9166	1445.5251	1479.4788	1484.466	1487.3773	1490.0581	1505.3091	1509.2912	1520.4921	1806.1407	2891.5887	3026.109	3029.7969	3040.4902	3094.4469	3096.806	3098.9277	3102.4834	3105.5541	3118.4417	3121.6677	3131.0851	3167.8814	3215.2134
CC(C)(C)C1CC1C=O	CC(C)(C)[C@H]1C[C@H]1C=O	
InChI=1S/C8H14O/c1-8(2,3)7-4-6(7)5-9/h5-7H,4H2,1-3H3	InChI=1S/C8H14O/c1-8(2,3)7-4-6(7)5-9/h5-7H,4H2,1-3H3/t6-,7-/m0/s1
