19
gdb 110995	2.69882	1.52767	1.20527	2.4473	76.54	-0.2347	0.0036	0.2382	1102.8931	0.157518	-422.970658	-422.96209	-422.961146	-423.003791	32.658	
C	-0.0366145464	 1.369077266	-0.235767292	-0.243111
O	-0.1147425439	 0.083901704	 0.3446103504	-0.249251
C	-1.3430316178	-0.537857837	 0.1687102082	 0.143765
C	-1.5204162655	-1.4404087915	-1.1182169604	-0.043056
O	-0.6606752528	-2.4219107283	-0.4720410808	-0.314214
C	-1.3567925992	-1.9992115338	 0.7519457131	 0.338123
C	-0.6885173887	-2.3829390696	 2.0387437707	-0.522343
C	-2.8103280894	-2.3823517188	 0.4261440967	-0.131825
C	-2.9190568895	-1.9998886426	-0.850582516	-0.087716
H	 0.9436271023	 1.7786813194	 0.0172859369	 0.132463
H	-0.1326542801	 1.3305558614	-1.3304979746	 0.110832
H	-0.8169678827	 2.0386546756	 0.1573984612	 0.107785
H	-2.1794643145	 0.12654319	 0.4288068342	 0.06412
H	-1.2118128886	-1.1499871818	-2.1212528385	 0.079305
H	 0.2935056098	-1.9096677944	 2.1067125133	 0.145193
H	-1.2922628631	-2.0648822386	 2.8947631296	 0.118678
H	-0.5618250137	-3.468606599	 2.0904896846	 0.132868
H	-3.5362813586	-2.806936565	 1.1045666701	 0.108981
H	-3.7650688678	-2.010534646	-1.5222202868	 0.109404
76.7628	154.4696	170.8339	183.0823	256.0575	281.2045	345.7797	420.1256	478.7639	558.4898	633.2349	656.0228	716.2597	746.036	838.0415	860.3778	872.3921	904.2109	916.3185	950.8225	1006.8901	1028.5466	1064.8092	1114.039	1141.9596	1155.4859	1177.2587	1184.0822	1217.8883	1237.567	1260.1686	1297.0467	1340.2116	1382.9653	1413.4005	1477.6811	1482.1959	1489.2414	1492.8655	1506.7953	1608.5694	2980.3611	3006.0263	3032.1563	3043.587	3111.8489	3121.9384	3132.6087	3137.227	3225.4786	3252.4262
COC1C2OC1(C)C=C2	CO[C@H]1[C@H]2O[C@]1(C)C=C2	
InChI=1S/C7H10O2/c1-7-4-3-5(9-7)6(7)8-2/h3-6H,1-2H3	InChI=1S/C7H10O2/c1-7-4-3-5(9-7)6(7)8-2/h3-6H,1-2H3/t5-,6-,7+/m0/s1
