18
gdb 81996	2.47331	1.45381	1.30135	4.2053	76.12	-0.2455	0.0234	0.2689	1068.8233	0.148212	-398.091308	-398.082659	-398.081715	-398.124165	33.128	
C	-0.1319197613	 1.556087702	-0.0750306823	-0.408343
C	 0.0237246244	 0.0451390223	-0.0543751952	-0.023187
C	 0.7451833472	-0.6477390961	-1.2153782268	-0.045788
N	 2.1525945727	-0.1763346063	-1.1828716077	-0.352542
C	 1.7285825508	-1.2942803059	-0.3134296255	-0.097777
C	 1.1192338061	-0.590590163	 0.9352382169	 0.145721
N	 1.9257306409	 0.3660645971	 1.6688737193	-0.555448
C	 0.5177430248	-1.5514583767	 1.8564740202	 0.249738
N	 0.0513390367	-2.3353074151	 2.5666412277	-0.339898
H	 0.7978025045	 2.0446146339	-0.375440924	 0.131571
H	-0.9131038947	 1.8439056029	-0.7867969656	 0.114956
H	-0.4133585368	 1.9312784237	 0.9123301153	 0.136582
H	-0.9365003528	-0.4416212785	 0.1339664722	 0.103729
H	 0.3074913654	-1.020122687	-2.1326934955	 0.102448
H	 2.638079494	-0.5768872326	-1.9835732465	 0.23893
H	 2.2052292219	-2.2659069218	-0.3554406818	 0.109179
H	 2.5377619823	-0.1112478699	 2.3239384134	 0.237755
H	 2.5129208737	 0.849609241	 0.993441516	 0.252374
116.5942	153.6654	185.3787	203.4447	242.9815	284.6301	305.1477	409.0058	482.7362	505.1206	557.3392	593.965	659.5045	732.3836	825.7831	842.3526	847.0887	872.2259	937.7833	955.4705	1016.3715	1020.6298	1046.4128	1079.2137	1105.0315	1117.7779	1133.5499	1205.264	1228.212	1290.3174	1296.8671	1350.7705	1363.782	1386.4449	1407.0203	1484.8804	1501.0905	1647.2305	2356.1507	3043.2012	3079.6984	3111.7358	3132.5014	3189.1752	3204.3657	3482.8441	3493.7821	3570.6062
CC1C2NC2C1(N)C#N	C[C@H]1[C@H]2N[C@H]2[C@]1(N)C#N	
InChI=1S/C6H9N3/c1-3-4-5(9-4)6(3,8)2-7/h3-5,9H,8H2,1H3	InChI=1S/C6H9N3/c1-3-4-5(9-4)6(3,8)2-7/h3-5,9H,8H2,1H3/t3-,4+,5+,6-/m0/s1
