18
gdb 35878	2.17579	1.54846	1.09851	4.0116	80.79	-0.2698	0.0266	0.2964	1148.2845	0.148321	-364.810432	-364.801639	-364.800694	-364.844687	32.303	
C	-0.5088973245	-1.0504007615	-0.8209667957	-0.42375
C	-0.2734693055	 0.0346082942	-0.361522479	 0.299257
C	 0.0139365088	 1.3427118802	 0.2008904894	-0.169837
C	-0.2431818827	 1.4765693089	 1.722449549	-0.216982
C	 0.5644169806	 2.7254112601	 2.1627740406	-0.213683
C	 1.5178769375	 3.0681007642	 0.9849604446	-0.228191
C	 1.4901023116	 1.8290919157	 0.05350374	-0.16762
C	 2.4494312596	 0.8111791418	 0.4870370227	 0.287749
N	 3.220627279	 0.0296020911	 0.8482421421	-0.329968
H	-0.7092166072	-2.0125491459	-1.2234277635	 0.200513
H	-0.5938390783	 2.093243291	-0.3221394228	 0.113753
H	-1.3103625096	 1.5533880945	 1.9403743607	 0.1136
H	 0.1276257806	 0.5776926428	 2.2221374365	 0.135156
H	-0.0911746314	 3.5720870556	 2.3815556363	 0.110134
H	 1.1259310604	 2.5165940891	 3.0761375212	 0.122558
H	 1.1397785576	 3.924258627	 0.4182882458	 0.112123
H	 2.5302684534	 3.3138829398	 1.309588977	 0.126348
H	 1.7201818703	 2.0859751215	-0.9842999149	 0.128841
44.0663	94.5981	120.6369	168.1491	212.2158	292.1842	424.7874	471.1232	504.0115	540.0348	635.0337	649.0698	664.1508	698.6959	775.0859	808.5528	860.5639	893.4045	948.8202	982.6984	1024.9556	1032.2557	1067.8724	1099.3189	1173.4196	1205.2542	1216.8013	1274.1985	1287.4644	1294.7272	1329.8395	1335.7978	1359.3252	1375.3266	1488.1387	1495.8876	1513.9189	2242.0675	2355.745	3015.9469	3058.0008	3066.6703	3073.566	3080.3893	3099.809	3119.133	3127.7034	3504.0642
C#CC1CCCC1C#N	C#C[C@H]1CCC[C@H]1C#N	
InChI=1S/C8H9N/c1-2-7-4-3-5-8(7)6-9/h1,7-8H,3-5H2	InChI=1S/C8H9N/c1-2-7-4-3-5-8(7)6-9/h1,7-8H,3-5H2/t7-,8-/m0/s1
