22
gdb 6108	4.22446	0.83191	0.81064	0.0652	75.13	-0.2586	0.0707	0.3294	1533.209	0.197466	-387.348631	-387.338188	-387.337244	-387.384193	37.921	
C	 0.0216953546	 1.5717976781	 0.0734427959	-0.401755
C	 0.0091276417	 0.0434456177	 0.0372982723	 0.134053
O	 0.6994334259	-0.5010717509	 1.1639757208	-0.429786
C	-1.4105180221	-0.5256721029	-0.0764287501	-0.191368
C	-1.4456292538	-2.0503260264	-0.2083759546	-0.191364
C	-2.855796045	-2.640303177	-0.0835522902	 0.134053
C	-2.876010659	-4.1518389975	-0.3119656472	-0.401759
O	-3.4514487686	-2.3040620008	 1.1712638522	-0.429786
H	 1.0447104895	 1.9416927129	 0.1838575605	 0.121657
H	-0.4056684766	 1.9947685591	-0.8414886274	 0.115118
H	-0.5711679446	 1.9435865326	 0.9188817591	 0.106212
H	 0.5994605492	-0.2963693381	-0.8237992688	 0.084223
H	 0.2538559359	-0.1777647428	 1.9554181512	 0.273974
H	-1.986724667	-0.2319820338	 0.8112393325	 0.098198
H	-1.9140577057	-0.0633555567	-0.9358713611	 0.089473
H	-1.0145419254	-2.3532108212	-1.1718877243	 0.089473
H	-0.8033361354	-2.489443367	 0.5667741939	 0.098196
H	-3.5097597975	-2.1604621307	-0.8235119648	 0.084223
H	-2.2209844344	-4.6604388835	 0.4068865123	 0.106213
H	-3.8896775881	-4.5423073454	-0.1871143482	 0.121658
H	-2.5249504287	-4.4068854	-1.3171279759	 0.115119
H	-2.947221995	-2.7566510855	 1.8570961619	 0.273974
48.715	75.1735	118.433	166.1634	242.4364	243.9688	270.9893	280.0237	295.6881	319.9923	402.8233	432.713	468.396	506.4542	512.5827	772.2345	827.014	866.8517	927.3892	937.1492	950.8167	1016.0651	1047.7731	1064.2027	1098.2783	1098.5478	1149.187	1160.3886	1185.7487	1262.0526	1286.2247	1325.784	1343.6921	1349.9591	1376.2419	1395.6327	1402.7844	1406.0079	1420.5722	1424.2762	1476.1703	1488.402	1493.5163	1496.0235	1496.059	1499.6016	3012.3655	3015.9077	3021.593	3021.9616	3027.7757	3029.0839	3046.9919	3066.3352	3093.3383	3094.1491	3117.4682	3117.5069	3791.8416	3792.0018
CC(O)CCC(C)O	C[C@@H](O)CC[C@@H](C)O	
InChI=1S/C6H14O2/c1-5(7)3-4-6(2)8/h5-8H,3-4H2,1-2H3	InChI=1S/C6H14O2/c1-5(7)3-4-6(2)8/h5-8H,3-4H2,1-2H3/t5-,6-/m1/s1
