21
gdb 109034	2.66617	1.31629	0.98227	1.4927	84.32	-0.2144	0.0292	0.2436	1258.075	0.182718	-387.084921	-387.075936	-387.074992	-387.118481	34.473	
C	-0.1838818995	 1.5484357966	 0.0331192787	-0.395151
C	 0.026873608	 0.0257993083	 0.0123138963	-0.09211
C	 0.8171333882	-0.4863004486	-1.1969111101	-0.043508
C	 2.2646824862	-0.0885852954	-1.3522148604	-0.281774
C	 1.9107943089	-1.4050826647	-0.6861547792	-0.078699
C	 1.8008312801	-1.3445666942	 0.7997561479	-0.176301
C	 0.8124641221	-0.5360731892	 1.1940645872	 0.292139
C	 0.453755925	-0.189765446	 2.603023363	-0.17908
O	 1.2694650362	-0.9224599959	 3.5005872875	-0.414597
H	 0.7722987542	 2.0807014043	 0.0526004395	 0.117631
H	-0.7306705042	 1.8732214457	-0.8578871998	 0.114024
H	-0.7633289166	 1.8627973891	 0.9077113347	 0.10955
H	-0.9718033812	-0.4393010635	 0.0023445103	 0.075118
H	 0.2677334149	-0.7240252023	-2.1006315217	 0.079182
H	 2.6699857256	-0.1237233661	-2.3586380581	 0.104724
H	 2.6780755083	 0.6948865148	-0.72563165	 0.108646
H	 2.1723836973	-2.3344835291	-1.1802448784	 0.081709
H	 2.4691637709	-1.8663421789	 1.4725860099	 0.106124
H	 0.5691315892	 0.8973271263	 2.7596884701	 0.094972
H	-0.6181280532	-0.4071900874	 2.7677971985	 0.08946
H	 1.0514489994	-0.6451745438	 4.3946172041	 0.287941
81.7715	133.4836	179.2492	210.398	232.17	243.2668	274.2313	384.6249	433.9426	489.3023	540.4849	669.3185	693.6812	774.6844	807.3758	812.0115	864.8898	901.0261	936.1963	983.0961	1016.9063	1035.3228	1043.78	1063.8672	1070.6553	1083.0431	1103.1034	1109.9254	1127.7163	1179.8918	1208.665	1219.4628	1250.671	1288.413	1317.5843	1336.0454	1352.7024	1376.7617	1408.9329	1465.9923	1476.7258	1497.0163	1498.7501	1510.0327	1707.8174	2928.3912	2948.1698	2971.1325	3032.0062	3097.0744	3106.2492	3122.1595	3162.9423	3172.3022	3210.3825	3219.5458	3838.6101
CC1C2CC2C=C1CO	C[C@H]1[C@H]2C[C@H]2C=C1CO	
InChI=1S/C8H12O/c1-5-7(4-9)2-6-3-8(5)6/h2,5-6,8-9H,3-4H2,1H3	InChI=1S/C8H12O/c1-5-7(4-9)2-6-3-8(5)6/h2,5-6,8-9H,3-4H2,1H3/t5-,6-,8-/m1/s1
