24
gdb 22257	2.33618	1.0373	0.86778	0.4709	88.55	-0.239	0.0167	0.2556	1498.0304	0.213751	-405.525246	-405.513634	-405.51269	-405.562417	42.288	
C	 0.0490516264	 1.560540049	 0.2575558938	-0.408117
C	 0.0611471178	 0.0331415135	 0.4219734753	 0.053416
C	 0.6221470014	-0.3338073691	 1.8045183762	-0.394972
C	-1.339562838	-0.5908356455	 0.2072944734	-0.03946
C	-2.0378095622	-0.1046569112	-1.0818983835	-0.409456
C	-1.3414474909	-2.1125921221	 0.1932092698	 0.349953
C	-2.600355397	-2.8422911846	 0.5864083092	-0.471468
N	-0.2798858067	-2.7062471673	-0.1958712819	-0.169208
O	-0.4354084747	-4.1050903046	-0.205956678	-0.405171
H	 1.0351899015	 1.9737535898	 0.4932729086	 0.109222
H	-0.2012637687	 1.8714618796	-0.7600451604	 0.113081
H	-0.6728205956	 2.0280386379	 0.939375776	 0.106583
H	 0.7274540649	-0.391128898	-0.3378305846	 0.090699
H	-0.0041240718	 0.0836853182	 2.603089261	 0.102328
H	 0.6771440693	-1.4153837568	 1.9430757681	 0.123291
H	 1.6302612243	 0.0736923062	 1.9331675569	 0.10584
H	-1.9703998599	-0.2862127185	 1.0562214947	 0.072345
H	-1.4031274102	-0.2944102039	-1.9538411165	 0.125609
H	-2.9841519236	-0.6318128971	-1.2399216129	 0.114051
H	-2.2607382742	 0.9641191428	-1.0401932166	 0.118879
H	-2.8592415298	-3.5993057242	-0.1587302477	 0.147873
H	-2.44712214	-3.3748272499	 1.5320567534	 0.144198
H	-3.4378944031	-2.1530079629	 0.711007032	 0.117361
H	 0.4256239807	-4.3990129313	-0.520586186	 0.303126
30.0658	76.6199	98.8823	148.3069	192.6003	218.8877	234.3134	251.8243	292.2271	317.105	350.4246	359.8179	392.9148	414.487	452.6286	478.7404	582.2437	655.374	779.0883	828.9777	918.7551	932.1061	962.0203	964.4282	986.8754	1024.1358	1031.3822	1048.8491	1104.7381	1146.9052	1174.0204	1194.2653	1230.7118	1309.6783	1326.5643	1349.1281	1385.5828	1394.476	1398.4039	1401.0543	1406.331	1420.5707	1475.4447	1483.109	1488.5196	1490.6992	1501.0478	1504.7295	1506.4092	1519.158	1728.3721	2989.1946	3022.8452	3026.7666	3037.3949	3041.2309	3046.9616	3084.8994	3093.3203	3100.7034	3102.5898	3109.2022	3121.3758	3128.4078	3134.1856	3822.7893
CC(C)C(C)C(C)=NO	CC(C)[C@@H](C)C(=NO)C	
InChI=1S/C7H15NO/c1-5(2)6(3)7(4)8-9/h5-6,9H,1-4H3	InChI=1S/C7H15NO/c1-5(2)6(3)7(4)8-9/h5-6,9H,1-4H3/t6-/m1/s1
