22
gdb 78592	2.5163	1.59541	1.20657	0.6679	87.05	-0.1974	0.0856	0.283	1151.1208	0.19348	-367.14589	-367.136796	-367.135852	-367.179137	35.149	
C	-0.2265272462	 1.5836115277	-0.0906463251	-0.438978
C	 0.0594693332	 0.0833501153	-0.0802565816	 0.04536
C	 0.6945394267	-0.6620626385	-1.2527859931	-0.173925
C	 2.2228032086	-0.809565683	-0.9308843866	-0.082049
N	 2.5224614612	-0.1792613684	 0.342217712	-0.06727
C	 2.9900707133	 1.1959412184	 0.4254996908	-0.328096
C	 1.1736650081	-0.6057390751	 0.7916933202	-0.113887
C	 1.2276784868	-1.7383923326	-0.3249030393	 0.342432
C	 1.0947030041	-3.2234670105	-0.2743412541	-0.53197
H	 0.5608893324	 2.1667312567	-0.5704376631	 0.120829
H	-1.1559978193	 1.7836009551	-0.6358224489	 0.110578
H	-0.3585764957	 1.9677163724	 0.9275158128	 0.111266
H	-0.8705048727	-0.4405468338	 0.1757811305	 0.073676
H	 0.308868397	-0.7933705953	-2.2575963522	 0.075262
H	 2.9655757279	-0.9924940942	-1.6993078695	 0.087934
H	 2.4977958027	 1.904440398	-0.2544400631	 0.102643
H	 2.8596538898	 1.5569462333	 1.4510321869	 0.116345
H	 4.0635914316	 1.2153126526	 0.2037138865	 0.114959
H	 1.0366680979	-0.7331220372	 1.8663858142	 0.065483
H	 0.1007670255	-3.5300691014	 0.0720965123	 0.119553
H	 1.2443995874	-3.6574058358	-1.2690779004	 0.12205
H	 1.8362905898	-3.6681833837	 0.3987818407	 0.127803
120.5696	153.7561	156.4738	206.573	217.2232	230.7029	296.2071	306.7252	382.4102	538.1453	593.385	641.2874	676.1453	710.852	722.2615	854.3303	873.3017	905.3193	914.2219	925.4213	979.8467	1003.1449	1031.0287	1067.0348	1087.404	1099.2048	1117.4897	1127.905	1155.9928	1167.8761	1173.0035	1199.3062	1239.717	1249.9782	1270.3373	1341.0391	1399.8683	1409.6459	1412.603	1446.6671	1471.2229	1476.8797	1485.2874	1492.4629	1496.8851	1498.2667	1524.0198	3000.4815	3018.8669	3021.2682	3032.8982	3056.9963	3080.8246	3084.9328	3091.4507	3094.4739	3105.4763	3134.395	3173.4716	3182.8157
CC1C2C3N(C)C1C23C	C[C@H]1[C@H]2[C@H]3N(C)[C@@H]1[C@@]23C	
InChI=1S/C8H13N/c1-4-5-7-8(5,2)6(4)9(7)3/h4-7H,1-3H3	InChI=1S/C8H13N/c1-4-5-7-8(5,2)6(4)9(7)3/h4-7H,1-3H3/t4-,5-,6-,7+,8+/m0/s1
