14
gdb 48690	5.23048	0.98153	0.90337	3.0963	68.67	-0.2803	-0.0613	0.2191	1217.622	0.09958	-436.664094	-436.656231	-436.655287	-436.697021	28.214	
O	-0.8381799901	 0.9563279576	 0.3962839713	-0.247548
C	 0.2418255433	 0.8770794327	-0.133563589	 0.062534
C	 1.3138324599	 1.872535757	 0.068375751	 0.32285
C	 1.346723139	 3.1023806419	 0.9760353784	-0.316863
C	 2.2041204492	 3.8361264087	-0.1280763676	-0.180856
C	 3.5222255969	 4.3305719192	 0.2362153541	 0.287256
N	 4.5692179037	 4.7241551852	 0.5265019634	-0.313827
C	 2.1586828358	 2.5356342988	-0.9676663235	-0.041371
O	 2.6703185743	 1.4786030738	-0.1923918556	-0.249291
H	 0.5159769635	 0.05657526	-0.8296184089	 0.100571
H	 0.3683442299	 3.5619922411	 1.1134275093	 0.150061
H	 1.8343677755	 2.9486006838	 1.9385320318	 0.146881
H	 1.6283217175	 4.6333567068	-0.6040278945	 0.143038
H	 2.1756627816	 2.4385701832	-2.0471054902	 0.136564
78.01	114.3353	148.0194	221.9028	262.6171	353.5308	440.9403	481.0246	528.7546	618.4635	709.7403	758.6316	798.9617	860.3214	909.8056	963.2318	988.8469	1021.4985	1031.8612	1076.3816	1128.4237	1193.2245	1211.7048	1244.4284	1296.8579	1328.0382	1379.0154	1439.4749	1474.4393	1812.4073	2361.6674	2919.3831	3092.6209	3101.1204	3166.7914	3194.2904
O=CC12CC(C#N)C1O2	O=C[C@]12C[C@@H](C#N)[C@H]1O2	
InChI=1S/C6H5NO2/c7-2-4-1-6(3-8)5(4)9-6/h3-5H,1H2	InChI=1S/C6H5NO2/c7-2-4-1-6(3-8)5(4)9-6/h3-5H,1H2/t4-,5+,6+/m0/s1
