14
gdb 28560	2.55419	1.76837	1.04954	3.1562	66.82	-0.2024	-0.051	0.1513	1044.6313	0.102375	-470.05659	-470.048848	-470.047903	-470.088758	28.96	
N	 0.091889806	 1.3810942609	-0.1232527217	-0.597416
C	-0.0349659382	-0.0071864769	-0.078343804	 0.386783
N	-1.1072968287	-0.7128462974	-0.2065978973	-0.308865
C	-0.7080340427	-2.0598044432	-0.1976165375	-0.205243
C	 0.6334258266	-2.1544833655	-0.0390752416	 0.373727
O	 1.4627880207	-3.1982502988	 0.0679750717	-0.431584
N	 1.1096157271	-0.8218724369	 0.0247827138	-0.172881
C	 2.4300055036	-0.4436545293	 0.0066067402	 0.184447
O	 3.3505018965	-1.2364414181	 0.047511567	-0.333854
H	-0.802878184	 1.7828053979	-0.3795610252	 0.268132
H	 0.3923383541	 1.787754258	 0.7575091732	 0.25627
H	-1.4226358207	-2.8602205725	-0.2886419597	 0.125593
H	 2.3742164956	-2.8496155891	 0.0752843822	 0.319924
H	 2.5675361141	 0.6455939809	-0.0589335712	 0.134968
107.222	201.3158	235.0158	249.9182	278.0098	322.7657	367.5037	477.9653	549.7208	592.6694	649.3577	659.0293	687.9079	749.8845	799.9555	827.7521	845.3858	1044.7387	1057.6186	1118.6417	1181.8986	1239.5784	1277.7319	1361.8609	1403.3582	1428.6053	1461.927	1617.3627	1666.5109	1691.5826	1782.0984	3040.3017	3276.7453	3501.6395	3583.335	3600.5753
NC1=NC=C(O)N1C=O	Nc1ncc(O)n1C=O	
InChI=1S/C4H5N3O2/c5-4-6-1-3(9)7(4)2-8/h1-2,9H,(H2,5,6)	InChI=1S/C4H5N3O2/c5-4-6-1-3(9)7(4)2-8/h1-2,9H,(H2,5,6)
