14
gdb 12643	3.44598	2.00581	1.3196	1.4989	60.28	-0.2477	-0.0661	0.1816	872.2935	0.107878	-415.888309	-415.880799	-415.879855	-415.92009	27.76	
N	 0.0335568761	 1.324172046	 0.2108513062	-0.569817
C	-0.0434114033	-0.0259913829	 0.0750823783	 0.295413
N	-1.1054450614	-0.7479353278	 0.1101812806	-0.281731
C	-0.7461893753	-2.1648554194	-0.0836877794	-0.191665
C	 0.7875717273	-2.2733880512	 0.0096524567	 0.034182
O	 1.3659216771	-3.1150795465	-0.9568347228	-0.43248
C	 1.2092049437	-0.8185442099	-0.1480526588	 0.299396
O	 2.3010954245	-0.4045350301	-0.4578770525	-0.335603
H	 0.892908684	 1.7493544328	-0.1012779929	 0.270936
H	-0.8113136439	 1.8594154636	 0.0889956815	 0.266265
H	-1.2676716147	-2.7774137578	 0.6572372623	 0.115965
H	-1.0725821215	-2.4998003281	-1.0749366196	 0.132715
H	 1.0708879822	-2.5798273927	 1.0329574682	 0.102816
H	 2.2634940553	-2.789166906	-1.1073885979	 0.29361
71.4813	214.0279	228.6151	269.5445	333.8901	359.0184	430.9414	463.9329	506.3063	565.7166	609.8448	679.5609	729.3521	832.881	957.0757	971.2866	1029.309	1066.7073	1150.2793	1168.9918	1207.0149	1234.8761	1304.6808	1364.0007	1398.5882	1428.6542	1495.7344	1613.6696	1713.7048	1829.6577	2941.5199	3045.6593	3088.1076	3585.2899	3704.8049	3758.0372
NC1=NCC(O)C1=O	N[C]1[N]C[C@@H](O)C1=O	
InChI=1S/C4H6N2O2/c5-4-3(8)2(7)1-6-4/h2,7H,1H2,(H2,5,6)	InChI=1S/C4H6N2O2/c5-4-3(8)2(7)1-6-4/h2,7H,1H2,(H2,5,6)/t2-/m1/s1
