16
gdb 57825	4.22182	0.75233	0.64372	3.6553	93.81	-0.2479	-0.0559	0.192	1675.2022	0.121276	-400.71811	-400.707979	-400.707034	-400.753731	34.967	
C	-0.0487402643	 1.4546792802	 0.0033748436	-0.350385
N	-0.0118932307	 0.0033380667	 0.0264139808	-0.093486
C	 0.002219027	-0.6278575056	 1.3304412509	-0.340277
C	 0.0059292571	-0.6745564488	-1.1618872986	 0.247021
O	-0.0070034509	-0.1323971991	-2.2564172652	-0.366792
C	 0.042517861	-2.1275911288	-1.0768785731	 0.179493
C	 0.0730985452	-3.336351191	-1.1650948831	-0.060424
C	 0.1075034128	-4.6923621498	-1.23948789	 0.270965
C	 0.1380733774	-5.8979536432	-1.3035595512	-0.534485
H	 0.8294981227	 1.869096957	 0.5136960716	 0.12687
H	-0.0563027989	 1.7830035318	-1.0346572654	 0.174333
H	-0.9476690088	 1.8239526995	 0.5123426303	 0.126854
H	-0.8938098667	-0.3541212514	 1.9019603717	 0.130027
H	 0.0295080511	-1.7117806511	 1.2221272701	 0.15938
H	 0.8819257028	-0.3096872534	 1.9042948092	 0.130039
H	 0.1649535032	-6.958030263	-1.3626031216	 0.200867
71.452	73.2257	109.5183	151.571	157.9427	221.8545	234.2552	322.7115	337.0633	374.3209	437.9921	501.663	555.0898	569.3545	596.7065	620.4412	699.4053	747.6479	910.9521	1063.7389	1084.3532	1131.8543	1180.2573	1213.891	1293.668	1423.0015	1435.6375	1468.4301	1480.6725	1500.1776	1500.306	1541.798	1725.8069	2175.1563	2339.5944	3012.0646	3019.6449	3059.1673	3066.8796	3152.6719	3169.7763	3502.2392
CN(C)C(=O)C#CC#C	CN(C)C(=O)C#CC#C	
InChI=1S/C7H7NO/c1-4-5-6-7(9)8(2)3/h1H,2-3H3	InChI=1S/C7H7NO/c1-4-5-6-7(9)8(2)3/h1H,2-3H3
