18
gdb 53299	2.11456	1.26325	0.9197	1.364	86.21	-0.2226	0.032	0.2546	1333.6434	0.144474	-364.71546	-364.705363	-364.704419	-364.75175	35.485	
C	-0.6825199655	 1.3145986156	 0.49924216	-0.500266
C	-0.4083564663	-0.1034222167	 0.3251224232	 0.051014
C	-0.2052073312	-1.2850163379	 0.2022542548	 0.112167
C	 0.0812845059	-2.6764306394	-0.0087672315	-0.175732
C	-0.593553029	-3.7464535759	 0.7975410728	-0.247756
N	-0.9047337408	-3.5967571899	-0.6137324247	-0.097046
C	-2.2193340836	-3.0812499119	-1.0312311865	-0.284509
C	-3.1082291778	-2.5356515032	-0.0032499162	 0.316076
C	-3.8656219919	-2.1383040235	 0.8422586489	-0.468107
H	-0.1940856189	 1.7076481684	 1.3979657054	 0.149063
H	-0.3273328168	 1.9012631709	-0.3552675733	 0.147661
H	-1.7586686879	 1.4931455251	 0.6017567302	 0.153239
H	 1.0922527725	-2.8767026526	-0.3591709085	 0.110573
H	-0.043779425	-4.6453086	 1.0646771977	 0.11627
H	-1.3312746574	-3.4130771769	 1.5223963893	 0.134558
H	-2.0446502082	-2.3244848598	-1.8042217741	 0.143916
H	-2.7351540122	-3.9165576157	-1.5205779453	 0.141022
H	-4.529232446	-1.7662610964	 1.5831375678	 0.197857
40.6283	54.9359	79.3213	122.0526	168.5302	236.9928	299.8969	322.2134	363.0526	374.3364	496.012	523.8892	602.3964	606.9907	663.9018	708.639	771.7678	863.6316	928.4112	972.2219	1006.0931	1043.9696	1050.9381	1053.8915	1087.3906	1126.0772	1163.2604	1199.6456	1280.945	1313.2068	1362.1788	1386.3709	1413.0297	1463.6406	1476.3345	1478.0903	1499.6672	2226.8779	2365.276	3025.6873	3029.7644	3067.4435	3085.5253	3088.7295	3105.0783	3116.0691	3197.5523	3504.1042
CC#CC1CN1CC#C	CC#C[C@H]1CN1CC#C	
InChI=1S/C8H9N/c1-3-5-8-7-9(8)6-4-2/h2,8H,6-7H2,1H3	InChI=1S/C8H9N/c1-3-5-8-7-9(8)6-4-2/h2,8H,6-7H2,1H3/t8-,9?/m0/s1
