17
gdb 52487	5.41609	0.54646	0.51536	2.2272	99.64	-0.2314	-0.0198	0.2117	2134.9637	0.132811	-384.632059	-384.621923	-384.620979	-384.669754	34.52	
C	 0.0908415065	 1.5434281697	 0.0405607585	-0.51848
C	 0.0627263379	 0.0924901911	 0.0285644734	 0.24064
C	 0.0391684167	-1.1179017781	 0.0202599951	-0.202302
C	 0.0134567813	-2.4760366213	 0.0105112234	-0.127459
C	-0.0163389491	-3.6876462759	 0.0070347389	 0.327666
C	-0.0044522312	-5.1208470047	-0.0331636297	-0.240622
O	-0.4657667121	-5.8306679913	 1.1335412557	-0.238093
C	-1.2473092644	-5.9317282818	-0.0530841806	 0.099267
C	-2.6244313655	-5.3263253545	-0.0303903509	-0.427152
H	 1.1193107833	 1.9203116887	 0.0085122506	 0.158598
H	-0.4440261434	 1.9577209206	-0.8215560503	 0.157803
H	-0.3810165503	 1.939124721	 0.9470281427	 0.159371
H	 0.8864822462	-5.5578207681	-0.4851711327	 0.115809
H	-1.1689417538	-6.9031771143	-0.5462970483	 0.09479
H	-2.6038892325	-4.3282962537	 0.4120837177	 0.143815
H	-3.0239209153	-5.2530233756	-1.0473505949	 0.125244
H	-3.3029033643	-5.9557728618	 0.5544704014	 0.131104
11.9506	57.9848	71.2287	141.6115	162.3646	196.3873	277.7106	330.9369	363.9406	401.1784	437.2862	525.3698	549.5232	579.4142	676.3993	772.855	828.954	931.1761	973.3698	1037.9148	1047.2655	1047.9307	1079.3014	1161.2217	1162.3928	1264.4428	1305.0804	1381.1434	1409.6741	1416.6966	1445.7812	1470.6573	1471.5206	1484.151	1495.6164	2275.6973	2378.7632	3024.6922	3041.1893	3083.587	3087.0239	3087.9095	3104.535	3105.2974	3138.1889
CC#CC#CC1OC1C	CC#CC#C[C@H]1O[C@H]1C	
InChI=1S/C8H8O/c1-3-4-5-6-8-7(2)9-8/h7-8H,1-2H3	InChI=1S/C8H8O/c1-3-4-5-6-8-7(2)9-8/h7-8H,1-2H3/t7-,8+/m0/s1
