17
gdb 109641	2.31043	1.33895	1.09188	1.6782	72.23	-0.2256	0.022	0.2476	1171.8132	0.132113	-458.883452	-458.873785	-458.872841	-458.917578	35.667	
C	 0.3467743931	 0.8847524681	-0.3125954597	-0.244068
O	-0.3333118727	-0.0475263094	 0.5249684431	-0.258064
C	 0.4826561562	-0.6724758051	 1.4526622379	-0.033327
C	 0.0928451728	-2.097492876	 1.7132468906	-0.007292
O	-0.9199729978	-2.6299069285	 0.917914445	-0.434638
C	 1.4068411729	-1.813400562	 0.9683648341	 0.142774
O	 1.3859425777	-2.1126030173	-0.3927695562	-0.460423
C	 2.6568132308	-2.0023055614	 1.6424377156	 0.310108
C	 3.6914364645	-2.1332176276	 2.2427787937	-0.4321
H	 1.1239445982	 0.3845027054	-0.8978167658	 0.148727
H	-0.4050634109	 1.3116836877	-0.9795363193	 0.1308
H	 0.7940725273	 1.6897790235	 0.2853949571	 0.116321
H	 0.8390747419	-0.0514017295	 2.2740125987	 0.106335
H	 0.128999715	-2.5086592316	 2.7162428406	 0.121741
H	-1.3466083177	-1.8752584762	 0.4844083249	 0.30634
H	 0.6280917542	-2.7051813173	-0.5171214903	 0.291712
H	 4.6106217246	-2.2587899727	 2.7592233301	 0.195053
109.8582	126.7429	143.8031	175.7341	182.3741	239.1702	303.0415	318.9758	332.7588	459.8249	489.7711	543.8762	566.9538	578.0618	630.6835	650.9401	684.2235	759.8828	826.3602	875.0023	1017.3181	1045.226	1087.229	1126.2964	1159.7302	1175.584	1204.5735	1236.4564	1268.8583	1323.1363	1366.7824	1392.4652	1441.2658	1478.9225	1486.5969	1508.2064	2230.0876	3013.8501	3094.3062	3109.2148	3135.4615	3172.2174	3503.1581	3695.3825	3720.5355
COC1C(O)C1(O)C#C	CO[C@H]1[C@@H](O)[C@]1(O)C#C	
InChI=1S/C6H8O3/c1-3-6(8)4(7)5(6)9-2/h1,4-5,7-8H,2H3	InChI=1S/C6H8O3/c1-3-6(8)4(7)5(6)9-2/h1,4-5,7-8H,2H3/t4-,5+,6-/m1/s1
