18
gdb 99159	4.14365	0.78213	0.69348	5.3675	70.92	-0.2421	0.0241	0.2662	1590.9753	0.1461	-476.224853	-476.215226	-476.214282	-476.260578	34.554	
O	 0.1856558491	 1.2580461902	-0.2336880123	-0.420583
C	 0.0556382192	-0.0946072984	 0.0872564437	-0.146716
C	-1.4104820145	-0.5198922742	-0.0563943079	 0.393577
O	-2.2502149165	 0.3029626593	-0.3953611534	-0.395378
N	-1.6916387156	-1.8139163989	 0.214798564	-0.328618
C	-3.0199078382	-2.3396297228	 0.187356703	 0.049413
C	-3.4056472225	-3.3630639769	-0.865270308	-0.333431
C	-3.1703899538	-3.7822896901	 0.5667472664	 0.056393
O	-1.9719544347	-4.4256796044	 0.9034624288	-0.425922
H	-0.7212882982	 1.539176716	-0.4474809467	 0.293631
H	 0.6758815066	-0.7220243918	-0.5732275163	 0.106878
H	 0.3856809979	-0.2939516426	 1.1198115348	 0.10869
H	-0.9671855626	-2.4429546119	 0.5292242126	 0.262819
H	-3.7687971855	-1.6247904251	 0.5056705982	 0.130409
H	-4.4199477696	-3.3566308661	-1.2486003211	 0.126031
H	-2.6378049455	-3.6282455179	-1.5841539327	 0.121458
H	-4.0265427266	-4.0673187095	 1.1755501404	 0.10311
H	-1.9675289292	-5.2969733547	 0.4945259966	 0.298241
37.0542	75.9167	98.7247	115.3329	226.0845	301.0924	308.9141	345.8299	405.8188	450.2059	494.7539	522.8988	579.3584	625.4749	726.3361	766.852	829.3836	903.2994	956.7579	1003.7485	1018.2499	1036.8504	1060.9913	1123.7508	1133.669	1162.29	1187.4814	1234.8088	1246.2607	1266.0038	1302.3598	1315.4139	1372.2338	1415.7553	1462.2	1482.6812	1509.7808	1556.5336	1765.3733	2971.7979	2990.0133	3117.5639	3135.2549	3191.7631	3229.5887	3610.4153	3640.7611	3816.8821
OCC(=O)NC1CC1O	OCC(=O)N[C@H]1C[C@H]1O	
InChI=1S/C5H9NO3/c7-2-5(9)6-3-1-4(3)8/h3-4,7-8H,1-2H2,(H,6,9)	InChI=1S/C5H9NO3/c7-2-5(9)6-3-1-4(3)8/h3-4,7-8H,1-2H2,(H,6,9)/t3-,4+/m0/s1
