15
gdb 19243	3.23954	1.99972	1.58095	4.0424	64.67	-0.2763	0.0209	0.2972	828.5349	0.119431	-362.642952	-362.635753	-362.634809	-362.674418	26.959	
O	-0.1432908078	 1.4325111266	 0.1456194935	-0.412103
C	-0.0369936485	 0.0450011711	 0.0072403486	 0.103772
C	-1.3776559951	-0.6746521448	 0.0492525581	-0.052788
C	-2.2357076897	-0.2334348096	-1.1025186299	-0.283619
C	-1.1561279364	-1.2415586878	-1.3570122694	-0.050959
C	 0.2152604213	-0.5556661026	-1.4504820607	-0.229939
C	 0.4449424514	 0.4006137015	-2.5218461374	 0.288749
N	 0.6411494874	 1.1888963199	-3.3451106137	-0.335887
H	 0.7146406789	 1.8345294109	-0.0302239183	 0.295682
H	 0.6924725961	-0.3825991923	 0.7062670183	 0.084815
H	-1.7854595476	-1.1632364702	 0.9243128549	 0.098366
H	-3.2430204832	-0.635584533	-1.1006069347	 0.121925
H	-2.1530322888	 0.7773000084	-1.4885320554	 0.146303
H	-1.3550302005	-2.2381019848	-1.7283167277	 0.104273
H	 1.0398111927	-1.2725091032	-1.4284802861	 0.121411
104.772	128.5805	212.5735	282.3484	341.6659	391.6612	522.6957	549.3121	612.6559	733.9746	781.9026	804.3608	819.3196	922.1783	970.5036	987.5839	1021.4747	1048.9082	1061.3249	1072.7724	1090.535	1117.0061	1162.1045	1216.0811	1228.5399	1276.968	1320.2254	1336.8147	1368.4128	1423.4738	1491.781	2349.5414	3022.6957	3083.2768	3134.5539	3196.3766	3204.5777	3222.5056	3807.9978
OC1C2CC2C1C#N	O[C@H]1[C@H]2C[C@H]2[C@H]1C#N	
InChI=1S/C6H7NO/c7-2-5-3-1-4(3)6(5)8/h3-6,8H,1H2	InChI=1S/C6H7NO/c7-2-5-3-1-4(3)6(5)8/h3-6,8H,1H2/t3-,4+,5-,6+/m1/s1
