18
gdb 55951	3.74595	0.99662	0.8936	1.6924	72.53	-0.2471	-0.0189	0.2283	1320.0543	0.147062	-439.121616	-439.112677	-439.111732	-439.157045	31.41	
C	 0.1391687196	 0.8842692008	-0.8780700954	-0.480374
C	 0.0124802157	-0.0277730766	 0.3214230344	 0.394752
O	 0.8479334937	-0.0884023134	 1.193313912	-0.307464
C	-1.2233037494	-0.9313069183	 0.3754503238	-0.309587
C	-0.843118337	-2.3828276341	 0.079420751	 0.102954
C	-2.0258450368	-3.3897482417	 0.0916756863	-0.206548
N	-2.1168661412	-3.8996043916	-1.2872431515	-0.25717
C	-1.1736213789	-3.343919606	-1.9216415254	 0.120479
O	-0.3458337494	-2.4756241821	-1.2894369125	-0.237904
H	 1.0709949552	 1.4486836479	-0.8303770943	 0.141701
H	 0.1087998261	 0.2777013188	-1.7904036193	 0.152936
H	-0.7126523561	 1.572864689	-0.9241436407	 0.137991
H	-1.6255700077	-0.887292439	 1.393146822	 0.13344
H	-2.000785432	-0.6076769742	-0.324237251	 0.109637
H	-0.0223093757	-2.6802065157	 0.7368950439	 0.118425
H	-1.8564614259	-4.2211316605	 0.783187446	 0.125013
H	-2.9711548343	-2.9147454642	 0.3765009013	 0.118106
H	-0.9437631058	-3.4965030489	-2.9704046606	 0.143613
33.065	62.6456	84.1552	145.4621	177.9356	294.3688	384.025	395.271	504.5555	533.9341	594.2674	735.4108	793.0392	834.8846	875.0125	892.4424	948.5404	962.28	977.9244	999.145	1044.2155	1071.5923	1107.0643	1125.133	1170.2995	1216.7218	1243.0336	1305.1195	1314.0486	1322.6323	1360.2394	1376.3906	1385.8874	1459.1355	1469.4934	1474.0847	1500.0756	1712.8177	1814.8261	3033.5482	3040.7653	3046.9485	3071.5718	3086.7598	3096.2682	3104.5506	3154.4785	3216.8558
CC(=O)CC1CN=CO1	CC(=O)C[C@H]1CN=CO1	
InChI=1S/C6H9NO2/c1-5(8)2-6-3-7-4-9-6/h4,6H,2-3H2,1H3	InChI=1S/C6H9NO2/c1-5(8)2-6-3-7-4-9-6/h4,6H,2-3H2,1H3/t6-/m0/s1
