12
gdb 27599	3.76854	1.30394	0.96874	5.66	69.95	-0.2778	-0.0833	0.1946	1097.4178	0.080412	-427.922255	-427.914965	-427.914021	-427.954205	26.277	
N	-0.0207181465	 1.3252887351	 0.008191844	-0.552213
C	 0.0034348444	-0.0169965595	 0.0009461602	 0.464142
N	-1.1822493386	-0.6591252384	 0.0038385449	-0.32985
C	-1.0740132866	-1.9809481071	-0.0038574906	 0.248096
N	 0.051019676	-2.7014046133	-0.0135564397	-0.294235
C	 1.1545760859	-1.9449593535	-0.0154192577	 0.07339
N	 1.2094138468	-0.6225010831	-0.008717771	-0.293755
C	-2.3180425653	-2.7252783289	-0.0008622519	 0.295098
N	-3.3098517697	-3.3174255273	 0.0015180406	-0.314799
H	 0.8450954311	 1.8349079607	 0.0062296455	 0.280911
H	-0.9029304854	 1.8062076052	 0.0154105712	 0.282387
H	 2.1047290281	-2.4742054999	-0.0232820554	 0.140828
133.3627	159.3385	176.499	215.9725	369.0261	397.101	495.1745	500.4925	587.8676	589.7646	602.5612	759.5292	799.1473	855.8016	969.7344	1003.8945	1025.664	1068.1134	1244.5542	1281.6778	1366.7916	1434.1326	1505.1763	1567.2256	1604.7872	1656.3447	2367.2102	3169.2302	3625.8669	3764.6581
NC1=NC(=NC=N1)C#N	Nc1nc(ncn1)C#N	
InChI=1S/C4H3N5/c5-1-3-7-2-8-4(6)9-3/h2H,(H2,6,7,8,9)	InChI=1S/C4H3N5/c5-1-3-7-2-8-4(6)9-3/h2H,(H2,6,7,8,9)
