19
gdb 86151	2.12879	1.70257	1.18863	1.0081	71.05	-0.2591	-0.0386	0.2205	1102.8107	0.157348	-460.188532	-460.179253	-460.178309	-460.222397	34.487	
C	 0.7097074039	 1.3031222104	-0.2983563572	-0.394323
C	-0.0337177817	 0.0381585361	 0.116113824	 0.068973
O	 0.0297744555	-1.0031014038	-0.884405971	-0.289482
C	 1.1400600108	-1.8730614323	-0.6599319014	 0.033113
C	 2.2274616	-1.7517739523	-1.7250832248	-0.397441
C	 1.622801091	-1.5178284749	 0.7386859504	 0.326562
O	 2.6794447891	-1.7756127581	 1.25900484	-0.331281
C	 0.5545239148	-0.6355103156	 1.370354524	 0.037148
O	 1.0765149969	 0.214174379	 2.348909538	-0.434853
H	 1.7878038727	 1.1320109701	-0.3832245434	 0.118971
H	 0.3361245462	 1.6516092059	-1.2646323006	 0.124021
H	 0.558669375	 2.087141781	 0.4481411129	 0.13654
H	-1.0974105767	 0.2594132558	 0.2378936438	 0.093615
H	 0.763647211	-2.9071239391	-0.6486139348	 0.113397
H	 2.6282425858	-0.7358214126	-1.7668105274	 0.128806
H	 3.0464830614	-2.4386422924	-1.4929842889	 0.136365
H	 1.8179762862	-2.0035490999	-2.7062231198	 0.130978
H	-0.2137310503	-1.3095190307	 1.7898397665	 0.103944
H	 1.9401112583	-0.1553356967	 2.5889316296	 0.294948
78.5691	106.7376	197.8233	207.8566	222.3936	238.0278	277.4204	363.7557	399.2967	413.5049	505.1066	511.9385	578.3816	662.2393	706.16	799.5185	852.6387	879.7406	937.3899	1009.9045	1036.3168	1078.994	1098.0772	1109.8235	1130.7121	1150.1443	1191.6126	1235.5034	1308.7606	1332.9533	1350.6703	1364.6333	1385.111	1399.9251	1405.6848	1414.8498	1480.4547	1486.1007	1490.1724	1496.0545	1847.0445	2948.8509	2993.6818	3043.2231	3050.1305	3071.3389	3116.1016	3128.9943	3131.6644	3132.9373	3708.8047
CC1OC(C)C(=O)C1O	C[C@H]1O[C@@H](C)C(=O)[C@H]1O	
InChI=1S/C6H10O3/c1-3-5(7)6(8)4(2)9-3/h3-5,7H,1-2H3	InChI=1S/C6H10O3/c1-3-5(7)6(8)4(2)9-3/h3-5,7H,1-2H3/t3-,4+,5+/m1/s1
