20
gdb 32735	3.0272	0.99471	0.79186	1.4043	83.36	-0.1781	0.0493	0.2274	1486.2649	0.170821	-403.18903	-403.179257	-403.178313	-403.22446	35.665	
C	 0.1148080837	 1.612097789	 0.1237235325	-0.378464
C	 0.1430810512	 0.0821502897	 0.1104476052	-0.151261
C	 0.5806166024	-0.4957906341	-1.2511849214	-0.314636
C	 0.6158987612	-1.9869656797	-1.308964977	 0.22226
C	-0.2405231169	-2.8819520846	-1.9148111648	 0.245009
O	-1.3477356896	-2.4943820818	-2.6230898227	-0.455655
C	 0.2216131704	-4.2032906297	-1.6630336698	-0.27846
C	 1.362189287	-4.083764303	-0.899071693	-0.080424
N	 1.5877265753	-2.7527133554	-0.6876021221	-0.29747
H	 1.1027551176	 2.030283003	-0.1012476495	 0.109822
H	-0.58408188	 2.0001122017	-0.6256892485	 0.117016
H	-0.1955235777	 1.9982783389	 1.0996626525	 0.110358
H	 0.8202612139	-0.2814578924	 0.8945896519	 0.083576
H	-0.8477543664	-0.3153669913	 0.3590462336	 0.107361
H	-0.1120417187	-0.151043392	-2.0266956371	 0.123046
H	 1.5646355395	-0.0789703326	-1.514059418	 0.091183
H	-1.7281041846	-3.2725589786	-3.0389835209	 0.293461
H	-0.2280237599	-5.1251806593	-2.001190609	 0.083832
H	 2.0220911615	-4.8352070283	-0.497147466	 0.113813
H	 2.3628475298	-2.3738853297	-0.1732494659	 0.255633
40.4181	83.0926	105.2879	156.4084	239.3363	252.1076	278.2558	308.9628	363.1523	412.3338	469.9673	634.8375	656.4516	671.0262	700.7964	741.204	770.0903	778.279	865.7931	892.143	915.7789	1038.4055	1043.0797	1090.7653	1107.4093	1110.863	1156.1552	1243.8047	1256.4325	1297.1585	1315.785	1324.8611	1343.966	1382.593	1411.8291	1451.3067	1476.4665	1490.5663	1499.4418	1502.268	1508.942	1516.6399	1668.8795	2991.0703	3019.5702	3027.7911	3056.0012	3075.6094	3095.5597	3101.316	3235.7724	3269.5612	3686.6556	3849.4492
CCCC1=C(O)C=CN1	CCCc1c(O)cc[nH]1	
InChI=1S/C7H11NO/c1-2-3-6-7(9)4-5-8-6/h4-5,8-9H,2-3H2,1H3	InChI=1S/C7H11NO/c1-2-3-6-7(9)4-5-8-6/h4-5,8-9H,2-3H2,1H3
