15
gdb 128600	2.27054	1.59576	0.94277	3.9072	77.88	-0.2134	-0.0036	0.2098	1184.2222	0.112547	-416.778295	-416.76992	-416.768976	-416.811421	30.846	
C	-0.0407388885	 1.3960902732	 0.057868298	-0.251942
O	-0.0101160403	-0.018637939	 0.023056903	-0.255324
C	 0.6020499036	-0.5591030279	-1.0488312592	 0.200327
C	 1.2125320708	 0.0375926255	-2.1339189703	-0.176395
N	 1.6587859017	-0.9950561567	-2.9062724644	-0.193296
N	 1.386923364	-2.2024184619	-2.4095311146	-0.28839
C	 0.7341219393	-1.9615670121	-1.261948851	 0.111437
C	 0.2661345782	-2.9989648023	-0.4220023299	 0.289595
C	-0.1439107936	-3.8583528746	 0.3137723309	-0.426149
H	 0.9746767073	 1.8151615105	 0.0741293027	 0.12138
H	-0.5810052927	 1.8031922821	-0.8077750225	 0.121377
H	-0.5622826799	 1.6757854696	 0.9740728053	 0.141131
H	 1.3609285864	 1.0671086352	-2.4101951651	 0.138211
H	 2.1533465232	-0.9325068332	-3.7794517671	 0.279699
H	-0.5024680694	-4.6215389483	 0.9585788144	 0.188338
89.5289	121.9183	166.1827	216.7097	244.1483	340.2621	402.7811	451.3825	503.6862	559.4547	562.1873	617.4447	655.5564	665.2447	712.7174	731.3295	765.7636	944.3477	1063.3552	1084.8392	1181.2868	1183.2548	1216.9876	1251.2911	1333.9678	1373.7518	1462.6482	1473.5122	1486.515	1505.1717	1522.5784	1619.068	2239.9106	2996.7117	3052.9287	3140.1611	3280.8526	3505.2954	3677.8238
COC1=CNN=C1C#C	COc1c[nH]nc1C#C	
InChI=1S/C6H6N2O/c1-3-5-6(9-2)4-7-8-5/h1,4H,2H3,(H,7,8)	InChI=1S/C6H6N2O/c1-3-5-6(9-2)4-7-8-5/h1,4H,2H3,(H,7,8)
