19
gdb 14751	10.32543	0.597	0.57445	4.6937	74.24	-0.2812	0.0116	0.2928	1901.0009	0.163616	-365.068972	-365.059219	-365.058275	-365.104743	32.83	
C	-0.0528741468	 1.5489229112	 0.0110425565	-0.380637
C	-0.0337380444	 0.0180973923	 0.0025830882	-0.168935
C	-1.4395138056	-0.5920211249	 0.0127072402	-0.182141
C	-1.4170114731	-2.112395466	 0.0042841459	-0.052732
O	-2.7573888301	-2.5830551935	 0.0144696315	-0.238438
C	-2.8330135963	-3.9837075135	 0.0077400432	-0.184105
C	-4.2407520411	-4.3945330404	 0.0187835539	 0.264311
N	-5.3390183471	-4.7499839109	 0.0271504993	-0.292781
H	 0.9614349982	 1.9591148903	 0.0035556853	 0.11495
H	-0.579027971	 1.942423411	-0.8654285121	 0.118607
H	-0.5621225344	 1.9328716923	 0.9016216077	 0.118606
H	 0.5120295082	-0.3362575904	-0.8818774755	 0.098648
H	 0.528784917	-0.3457423435	 0.8725769351	 0.098647
H	-1.9907742749	-0.2553458093	 0.8988573303	 0.111924
H	-2.007550263	-0.2458592218	-0.8590764137	 0.111927
H	-0.8929880976	-2.4894847396	-0.8903934461	 0.093113
H	-0.8761338853	-2.4990643505	 0.8847280033	 0.093111
H	-2.3504033573	-4.4148819193	-0.8854901364	 0.137964
H	-2.3337526353	-4.4242820036	 0.8871252433	 0.137961
47.1377	75.427	82.5108	130.6514	139.9703	190.0163	251.2068	293.6146	366.5087	385.9497	466.1973	579.8783	745.4513	815.5715	906.9708	947.8084	953.557	1021.5024	1035.4452	1037.1648	1073.2525	1146.8798	1155.2928	1194.2545	1248.4638	1257.2657	1294.7331	1313.9632	1325.158	1380.0524	1396.2187	1416.6719	1449.1804	1487.9039	1492.9864	1497.5742	1501.1927	1510.7	1528.9152	2374.025	2953.3117	2966.7787	2982.3761	2989.1634	3014.2057	3031.9998	3036.549	3041.0306	3079.0702	3100.9507	3106.4367
CCCCOCC#N	CCCCOCC#N	
InChI=1S/C6H11NO/c1-2-3-5-8-6-4-7/h2-3,5-6H2,1H3	InChI=1S/C6H11NO/c1-2-3-5-8-6-4-7/h2-3,5-6H2,1H3
