20
gdb 26389	4.01408	0.98159	0.86205	2.1419	82.63	-0.1923	0.0522	0.2445	1402.3764	0.170553	-403.18377	-403.17451	-403.173566	-403.218588	34.705	
C	 0.2734241585	 1.4508200328	-0.0702528578	-0.389477
C	 0.0187312442	-0.0312906317	 0.16217572	 0.12867
C	-0.1159110134	-0.390157649	 1.6382740346	-0.387275
O	-1.2012776504	-0.3409061199	-0.5593888201	-0.293358
C	-1.4419177964	-1.6496151032	-0.8079189031	 0.352682
C	-2.1737535043	-2.5959407903	-0.1284090068	-0.248375
C	-2.1342014438	-3.7907002861	-0.9064142795	-0.136803
C	-1.3848250425	-3.5369150733	-2.0289797985	-0.098589
N	-0.9598823292	-2.2296703178	-1.9595581277	-0.28614
H	 1.1974862519	 1.762783527	 0.4250724784	 0.116139
H	 0.3594946397	 1.6661958178	-1.1386804348	 0.117244
H	-0.5527104585	 2.044861596	 0.3329382389	 0.128186
H	 0.8332424693	-0.6212372889	-0.2824880407	 0.073598
H	-0.9200784287	 0.1919350559	 2.0998311826	 0.121063
H	-0.3406397646	-1.4528684484	 1.7588006622	 0.132087
H	 0.8174777625	-0.1750774252	 2.1684391614	 0.112977
H	-2.6834296633	-2.438604301	 0.8086511286	 0.093997
H	-2.6062671962	-4.7302355622	-0.6634389743	 0.091304
H	-1.1213529093	-4.1629183163	-2.8657572693	 0.11322
H	-0.4466213155	-1.7312133064	-2.665583314	 0.258849
35.692	70.3921	123.0574	214.8793	253.981	308.1104	325.4451	393.3292	427.3324	466.358	482.8002	630.9073	646.4634	688.9446	744.6295	794.134	835.5561	849.8317	888.7936	928.1045	932.1378	946.2885	1001.7695	1047.3684	1104.9922	1135.4338	1143.409	1158.0463	1200.3411	1263.7669	1278.6804	1362.8584	1373.2249	1400.0003	1414.7962	1426.8742	1453.3022	1479.2772	1486.5592	1493.1113	1506.9954	1513.4764	1619.8609	2998.2097	3038.1904	3043.7281	3108.7306	3118.0014	3121.476	3125.2832	3243.9263	3260.8841	3273.0337	3681.1779
CC(C)OC1=CC=CN1	CC(C)Oc1ccc[nH]1	
InChI=1S/C7H11NO/c1-6(2)9-7-4-3-5-8-7/h3-6,8H,1-2H3	InChI=1S/C7H11NO/c1-6(2)9-7-4-3-5-8-7/h3-6,8H,1-2H3
