18
gdb 19119	2.72034	1.95764	1.38934	0.6663	78.02	-0.235	0.052	0.287	958.8127	0.152667	-310.608045	-310.599971	-310.599026	-310.64032	31.252	
C	 0.0808686385	-1.2013238908	 0.0353532109	-0.460678
C	 0.0409216046	 0.0016632667	 0.0269529287	 0.240884
C	-0.0170610069	 1.4395006817	 0.0097454997	 0.181826
C	 0.4789507176	 2.1680502244	 1.2540823614	-0.296214
C	 1.3121764805	 2.1867082141	 0.0061017512	-0.296171
C	-1.1664541218	 2.0585851457	-0.748534859	-0.036644
C	-1.6966986813	 1.448363236	-2.0205478546	-0.277017
C	-2.5355635099	 1.4286873524	-0.7654016506	-0.277047
H	 0.1223497407	-2.2621226693	 0.0473865828	 0.191153
H	-0.0555357142	 3.0697545252	 1.5332964131	 0.118297
H	 0.8150097371	 1.5633577597	 2.087747371	 0.126284
H	 2.219251756	 1.5948191645	-0.0154749271	 0.126284
H	 1.3525878298	 3.1012879166	-0.57580649	 0.118299
H	-1.1428859492	 3.1446981105	-0.7157162793	 0.076362
H	-1.9812317775	 2.1137938003	-2.8280885053	 0.107408
H	-1.2622746134	 0.5079348872	-2.3408335791	 0.124781
H	-2.6517183433	 0.4753610576	-0.2620325136	 0.12479
H	-3.4000103174	 2.0805972274	-0.7051741303	 0.107404
74.7716	140.7002	198.7337	233.5353	253.8003	358.7499	429.2598	550.491	562.4463	585.1114	630.0058	652.7732	777.4749	788.2766	817.7631	860.3297	881.2276	921.626	948.0894	977.5821	992.8089	1058.3684	1066.7315	1082.0048	1083.399	1089.1582	1134.8693	1194.1714	1199.5287	1224.6856	1258.5363	1331.5881	1404.7478	1462.3564	1465.3237	1494.7678	1502.6961	2229.6995	3134.0751	3135.2352	3136.4499	3139.2507	3142.1498	3216.6304	3221.7322	3230.1353	3236.259	3502.8098
C#CC1(CC1)C1CC1	C#CC1(CC1)C1CC1	
InChI=1S/C8H10/c1-2-8(5-6-8)7-3-4-7/h1,7H,3-6H2	InChI=1S/C8H10/c1-2-8(5-6-8)7-3-4-7/h1,7H,3-6H2
