21
gdb 30705	3.69231	0.94672	0.91249	4.2024	83.89	-0.217	0.0375	0.2545	1404.4735	0.183714	-383.315968	-383.306697	-383.305752	-383.351104	34.114	
C	 0.0442296956	 1.5497175816	 0.0954352772	-0.391075
C	-0.01956781	 0.0217223982	 0.0173330543	-0.169873
C	-1.4505485775	-0.5423092647	-0.068440847	 0.022914
C	-2.1977123162	-0.1338560369	-1.3432953068	-0.392065
N	-1.4349292132	-2.0013706754	 0.0802522385	 0.023779
C	-1.9152541011	-2.7162951919	 1.1570925554	-0.129385
C	-1.6653306963	-4.033516105	 0.8750364993	-0.098964
N	-1.0426921574	-4.1544244308	-0.3438466644	-0.276517
C	-0.9203374095	-2.9220683143	-0.7876524815	-0.00102
H	 1.0758535001	 1.883249469	 0.239971419	 0.123151
H	-0.3286683678	 2.0253671398	-0.8165498313	 0.12333
H	-0.5468552247	 1.9297827579	 0.9364958293	 0.117871
H	 0.5557887309	-0.3325318443	-0.8469381432	 0.105599
H	 0.457217705	-0.4117457402	 0.9034889883	 0.11398
H	-2.0144784514	-0.1702171154	 0.7943141104	 0.094295
H	-2.3250312166	 0.950869644	-1.3837556551	 0.126056
H	-1.651674145	-0.4414633718	-2.2408221758	 0.125665
H	-3.1879101686	-0.5958530766	-1.371756256	 0.13327
H	-2.3792456027	-2.2227364585	 1.9954989244	 0.121685
H	-1.9000525005	-4.8981846956	 1.4772219657	 0.104736
H	-0.4718650134	-2.6372921491	-1.7273811206	 0.122568
27.175	91.6769	108.4763	202.099	215.3893	271.4649	287.5595	349.826	398.461	481.339	648.8336	682.7552	701.7212	725.2387	786.7358	816.5594	848.5757	851.6699	917.2598	962.2458	981.5351	1023.1378	1047.2086	1093.1856	1112.7455	1143.1756	1153.466	1185.4703	1256.9519	1267.7633	1296.1324	1315.4895	1353.1737	1373.5979	1384.0089	1409.7017	1417.3658	1438.6562	1482.1851	1493.183	1498.0722	1505.0473	1510.8173	1525.4407	1540.2378	3030.5434	3035.8298	3043.6735	3047.47	3072.1139	3103.5546	3112.8079	3117.4088	3128.3221	3244.5284	3249.5117	3272.7246
CCC(C)N1C=CN=C1	CC[C@@H](C)n1ccnc1	
InChI=1S/C7H12N2/c1-3-7(2)9-5-4-8-6-9/h4-7H,3H2,1-2H3	InChI=1S/C7H12N2/c1-3-7(2)9-5-4-8-6-9/h4-7H,3H2,1-2H3/t7-/m1/s1
