20
gdb 73509	3.00291	1.69598	1.34247	0.8918	85.9	-0.2044	0.0084	0.2128	1019.5068	0.172398	-365.956676	-365.949065	-365.948121	-365.988126	31.338	
C	 0.0066703456	 1.6489702695	-0.2556111275	-0.466019
C	-0.0016463812	 0.1447784857	 0.0049212423	 0.316695
C	 0.9852319682	-0.5807351899	-0.9370413471	-0.278012
C	 2.2498838911	-0.7434253181	-0.0317799071	-0.246706
C	 1.6163280459	-0.9894974108	 1.3389183741	-0.214799
C	 0.3979833985	-0.4500044554	 1.3381681567	 0.216669
C	-0.9934661133	-0.8274996379	 1.6645733068	-0.11715
C	-1.9990410569	 0.2084952239	 1.3456580948	-0.250308
N	-1.3970636091	-0.4831977572	 0.1961274113	-0.173992
H	 1.0345262797	 1.990520872	-0.4132712806	 0.124793
H	-0.5610344401	 1.86875607	-1.1669149413	 0.126664
H	-0.4055708979	 2.2487338802	 0.5576061462	 0.116844
H	 0.5891824723	-1.5717237984	-1.1794048713	 0.112548
H	 1.1757495927	-0.0462238309	-1.8739298177	 0.086887
H	 2.8727332851	-1.5874138375	-0.3445525181	 0.104272
H	 2.8934910901	 0.1467844066	-0.0673114185	 0.103522
H	 2.0267635243	-1.6752815574	 2.070513568	 0.09212
H	-1.2742728669	-1.768503893	 2.125547871	 0.106568
H	-3.0381245968	-0.0726492344	 1.4978028987	 0.12307
H	-1.7973521414	 1.2571972128	 1.5331811394	 0.116333
177.8926	181.5639	214.9549	285.7107	327.7883	389.576	432.7496	498.6758	579.7363	618.3685	673.5704	688.8728	791.1969	800.2985	815.7103	879.3845	897.3485	919.1315	930.7086	966.8658	986.2805	1018.1285	1034.9139	1085.5963	1116.08	1125.5386	1134.6605	1170.0446	1204.3971	1207.8007	1224.8908	1240.2736	1292.6354	1297.7871	1321.9564	1354.928	1409.0284	1477.4417	1487.5423	1494.7003	1495.4518	1522.5444	1718.5466	3007.0384	3037.5436	3043.6559	3073.1847	3097.2402	3101.6513	3117.5758	3128.1648	3172.3885	3198.4302	3205.7173
CC12CCC=C1C1CN21	C[C@@]12CC[CH][C]1[C@H]1CN21	
InChI=1S/C8H11N/c1-8-4-2-3-6(8)7-5-9(7)8/h3,7H,2,4-5H2,1H3	InChI=1S/C8H11N/c1-8-4-2-3-6(8)7-5-9(7)8/h3,7H,2,4-5H2,1H3/t7-,8-,9?/m1/s1
