18
gdb 85022	2.22989	1.66836	1.0552	1.5695	73.6	-0.2554	-0.0399	0.2155	1150.4048	0.146412	-439.134622	-439.125563	-439.124619	-439.168924	32.921	
C	-0.2899502314	 1.6206601997	 0.0671255977	-0.394424
C	 0.0813135525	 0.1477542782	-0.0145587605	-0.00065
O	 0.9427490278	-0.1097154223	-1.1362451286	-0.251752
C	 2.0923203249	-0.7675002708	-0.7768547103	 0.405226
N	 3.0427659363	-1.0167173225	-1.5661526335	-0.530519
C	 2.0493423235	-1.1472191127	 0.6861680511	-0.222522
C	 3.3517913597	-0.9499050942	 1.4610963237	-0.390777
C	 0.861446106	-0.3515551138	 1.2067937243	 0.383736
O	 0.5747527331	-0.126737134	 2.3522869825	-0.311226
H	 0.6080674045	 2.2408743136	 0.136969548	 0.131601
H	-0.8573759775	 1.9244437241	-0.8155238556	 0.13381
H	-0.8981227918	 1.7866501371	 0.959971926	 0.14707
H	-0.8234028398	-0.4659435552	-0.1282900936	 0.120417
H	 2.8406347906	-0.6579958802	-2.5011839959	 0.225174
H	 1.7519890852	-2.205866121	 0.7428080087	 0.143076
H	 3.6801248409	 0.0917186707	 1.4097938153	 0.128076
H	 3.2031443804	-1.2129151326	 2.510943193	 0.136143
H	 4.137955155	-1.5742126242	 1.0333111475	 0.147541
48.0986	90.0131	179.1174	207.7299	209.5699	240.2238	276.5933	369.5998	421.9671	532.6004	574.7684	593.9553	649.7778	663.5615	803.247	840.9249	893.2532	912.9277	981.6877	1012.1605	1039.503	1089.456	1099.1405	1122.4522	1142.8511	1174.9428	1245.0253	1271.0164	1311.8974	1342.9517	1369.2794	1403.8117	1406.8725	1484.2473	1490.8274	1495.6138	1497.2329	1778.986	1862.7615	3001.2071	3013.2937	3051.3372	3056.1373	3128.8662	3129.392	3137.6659	3146.962	3471.744
CC1OC(=N)C(C)C1=O	C[C@H]1O[C]([NH])[C@@H](C)C1=O	
InChI=1S/C6H9NO2/c1-3-5(8)4(2)9-6(3)7/h3-4,7H,1-2H3	InChI=1S/C6H9NO2/c1-3-5(8)4(2)9-6(3)7/h3-4,7H,1-2H3/t3-,4+/m0/s1
