19
gdb 9482	2.77874	1.6689	1.50252	4.1364	75.53	-0.297	0.0336	0.3305	974.2332	0.165246	-327.944769	-327.936251	-327.935307	-327.97725	32.028	
C	-0.666425206	 1.2386828904	-0.0236752309	-0.42102
C	 0.1418673245	-0.0455836061	-0.1022108593	 0.0228
C	 1.5451592439	-0.0430788563	-0.765019685	-0.24318
C	 2.0264017663	-1.0541798379	 0.3058229448	-0.251006
C	 0.8046346743	-0.6484727102	 1.2013337188	 0.14635
C	 1.1762967146	 0.3846557295	 2.2741826197	-0.444937
C	 0.067381979	-1.7547305093	 1.8014632465	 0.231198
N	-0.5246416148	-2.636328922	 2.2605871585	-0.350649
H	-0.0918976938	 2.058880717	 0.4178440412	 0.117446
H	-0.9709688092	 1.5532677141	-1.0276867191	 0.123601
H	-1.5765761341	 1.1031580964	 0.5704467139	 0.128869
H	-0.4671692662	-0.8321896802	-0.5582450178	 0.096024
H	 1.6010561871	-0.3557025363	-1.8093640083	 0.107922
H	 2.0402185617	 0.9278642291	-0.6695779594	 0.106483
H	 1.9506822767	-2.0882954602	-0.0355064995	 0.124364
H	 3.0107341381	-0.8995444491	 0.7531402833	 0.110144
H	 1.7550867841	 1.2020402099	 1.8353570622	 0.123714
H	 0.2856406973	 0.8077030177	 2.7463328411	 0.136209
H	 1.7857377465	-0.0819059564	 3.0534106293	 0.135669
109.1305	151.5335	195.1778	223.4423	247.6658	264.0641	327.3013	344.1875	458.8855	534.5063	560.4734	594.3113	686.2265	790.9901	884.5408	900.191	910.1068	934.7961	968.2889	974.441	1062.5317	1109.9258	1149.942	1176.2492	1183.6397	1220.6512	1242.8725	1266.4173	1270.6784	1318.3498	1376.2512	1409.4641	1415.7533	1481.9191	1487.9018	1490.2877	1500.8699	1501.8401	1504.9572	2344.7927	3032.5793	3044.4199	3055.7247	3062.8708	3072.1695	3098.2297	3106.1024	3113.3844	3118.6938	3122.1642	3132.7173
CC1CCC1(C)C#N	C[C@H]1CC[C@]1(C)C#N	
InChI=1S/C7H11N/c1-6-3-4-7(6,2)5-8/h6H,3-4H2,1-2H3	InChI=1S/C7H11N/c1-6-3-4-7(6,2)5-8/h6H,3-4H2,1-2H3/t6-,7+/m0/s1
