21
gdb 121796	3.3152	0.70702	0.6704	2.4661	79.95	-0.2658	0.0343	0.3002	1731.0011	0.180926	-420.413939	-420.402934	-420.401989	-420.450387	39.315	
C	 0.1239814484	 1.5590464642	 0.0339720767	-0.39952
C	 0.0241155114	 0.0236336717	 0.0307264225	 0.069002
N	 0.7304239894	-0.4935555933	 1.2108796202	-0.506889
C	-1.4449912251	-0.4736802594	 0.059678343	-0.191815
C	-2.2575288438	 0.0127507673	 1.2630593225	-0.184323
C	-3.6189753514	-0.6678783864	 1.3421462477	-0.078512
O	-4.3088661445	-0.1224569922	 2.4551500645	-0.420216
C	 0.6406949769	-0.4836637241	-1.2237088717	 0.251862
N	 1.1442944338	-0.9062136831	-2.1755087111	-0.344081
H	 1.1655835591	 1.875471053	-0.0741616445	 0.128734
H	-0.447005698	 1.9888756887	-0.7927392438	 0.13402
H	-0.2587698387	 1.9475930043	 0.9793248572	 0.143318
H	 0.7630575206	-1.5090189651	 1.1808120819	 0.239487
H	 1.6946724122	-0.1732040909	 1.2075241822	 0.239449
H	-1.9276031389	-0.1699084032	-0.8762355057	 0.11572
H	-1.4227578982	-1.5714334348	 0.0475538557	 0.105865
H	-1.7067735984	-0.1789335857	 2.1882880485	 0.13059
H	-2.4252987394	 1.0934833553	 1.2073189011	 0.110347
H	-4.1766627068	-0.5007608429	 0.4055037878	 0.084931
H	-3.4851249024	-1.7572280174	 1.4487611842	 0.085281
H	-5.1708686563	-0.5446107062	 2.5122319212	 0.28675
65.3594	72.291	101.8905	148.8846	187.7949	194.914	249.5596	261.6795	283.2705	305.8893	361.9658	383.3153	403.5395	483.322	588.9974	603.0157	739.1097	763.9759	856.9049	881.3397	902.0452	985.9477	1021.5514	1048.0483	1055.504	1077.5758	1088.7577	1161.4557	1197.2201	1241.3725	1245.4682	1303.8327	1309.1427	1318.7559	1356.3201	1389.7276	1409.7596	1465.0709	1481.0733	1489.4838	1499.0867	1505.6186	1530.3563	1661.5303	2338.5496	2955.9466	2981.3132	3022.1323	3051.0807	3055.1765	3066.0303	3108.288	3122.0887	3145.63	3489.2612	3569.2499	3830.7578
CC(N)(CCCO)C#N	C[C@@](N)(CCCO)C#N	
InChI=1S/C6H12N2O/c1-6(8,5-7)3-2-4-9/h9H,2-4,8H2,1H3	InChI=1S/C6H12N2O/c1-6(8,5-7)3-2-4-9/h9H,2-4,8H2,1H3/t6-/m1/s1
