20
gdb 63019	2.20427	1.7589	1.39698	3.8412	78.05	-0.2356	-0.0117	0.224	1042.6808	0.170751	-403.165042	-403.156382	-403.155437	-403.197877	33.783	
C	 0.1581636529	 1.5598711874	-0.0518349744	-0.425018
C	 0.0282525181	 0.0338628894	-0.0378920824	 0.185735
C	-1.4515670784	-0.3967118942	 0.0354672185	-0.434221
C	 0.7239750807	-0.6588114467	-1.1985509878	-0.073283
N	 2.1901253339	-0.4968338281	-1.1758513386	-0.344876
C	 1.5932366745	-1.7641613524	-0.7049702545	-0.04623
C	 1.5275583012	-1.8280529629	 0.8027672138	-0.322896
C	 0.7494262931	-0.5620821609	 1.1995034522	 0.379824
O	 0.6805070294	-0.1080534122	 2.3112594411	-0.327362
H	 1.1992713898	 1.8514029891	-0.2113195877	 0.134778
H	-0.4524068525	 1.9963524013	-0.849508782	 0.102228
H	-0.1736787537	 1.9705638309	 0.9057236087	 0.132757
H	-1.9999935021	-0.0200222969	-0.834720926	 0.116646
H	-1.5587331314	-1.4868096027	 0.0526459303	 0.113957
H	-1.9198757107	 0.0063847755	 0.9375534497	 0.136908
H	 0.2162196237	-0.7271313125	-2.1563333036	 0.083329
H	 2.5660716528	-0.6174278441	-2.1126016078	 0.234083
H	 1.7453057949	-2.6669621297	-1.2866985217	 0.090799
H	 0.9711670628	-2.7082857383	 1.1491381597	 0.125702
H	 2.5044482311	-1.8377549921	 1.2928954026	 0.137139
81.3745	198.5946	203.9567	221.9179	247.7761	294.5456	314.3993	365.2742	476.6221	493.3306	573.6863	591.1967	675.234	697.718	829.0543	833.2886	858.3758	912.3269	940.6733	955.4877	969.0563	992.8664	1024.2806	1073.3711	1077.8427	1128.3619	1143.576	1173.245	1198.5826	1228.3398	1244.7561	1267.9151	1305.1083	1374.4501	1387.7311	1407.1491	1430.1578	1444.5976	1482.4107	1488.472	1501.3464	1511.2318	1845.301	3028.9702	3037.3075	3040.5115	3094.6099	3104.263	3108.1824	3116.6529	3127.3101	3149.6013	3169.5611	3508.9839
CC1(C)C2NC2CC1=O	CC1(C)[C@H]2N[C@H]2CC1=O	
InChI=1S/C7H11NO/c1-7(2)5(9)3-4-6(7)8-4/h4,6,8H,3H2,1-2H3	InChI=1S/C7H11NO/c1-7(2)5(9)3-4-6(7)8-4/h4,6,8H,3H2,1-2H3/t4-,6-/m0/s1
