16
gdb 44805	3.22942	1.35866	1.08263	3.7171	69.78	-0.246	-0.0329	0.2131	1102.9669	0.123739	-437.826649	-437.818863	-437.817919	-437.859583	28.984	
O	-0.1068840229	 0.0099100009	-0.0509678805	-0.287859
C	-0.0483466732	 1.1974267984	 0.0456639603	 0.373897
C	-1.1178917911	 2.3251391877	 0.2028978145	-0.372645
C	 0.0241795212	 3.3036894514	-0.0903317685	-0.045608
O	 0.9785470436	 3.1167214971	 0.9514946514	-0.278145
C	 1.0613130382	 2.2321536439	-0.192215682	 0.297028
C	 2.3552768937	 2.1085699301	-0.8985255894	-0.141271
C	 3.3308134843	 3.2276036342	-0.8593263145	-0.242621
N	 3.6034229095	 1.9862667555	-0.1207521451	-0.314896
H	-1.8784915403	 2.2450175651	-0.5793004233	 0.137783
H	-1.5915161169	 2.4369715965	 1.1796994783	 0.141633
H	 0.0058403451	 4.2580703953	-0.6013509745	 0.126885
H	 2.3190118175	 1.4613168807	-1.7708610445	 0.109523
H	 3.9726698586	 3.4041828391	-1.7172705422	 0.123768
H	 3.052095455	 4.1121977733	-0.294812302	 0.125903
H	 3.3935149577	 2.1346015708	 0.8645697621	 0.246625
60.8315	121.2856	173.6808	188.6408	300.2281	398.34	475.3775	559.312	564.6489	667.5088	706.929	800.5319	840.8439	865.7177	874.6548	924.7864	949.2759	969.9252	986.2596	1015.4374	1048.332	1111.3451	1127.0861	1142.8031	1159.2182	1189.0042	1211.9109	1251.2135	1270.0074	1301.2016	1372.0988	1441.036	1466.598	1500.9252	1899.9957	3070.9426	3117.7753	3134.696	3146.0378	3207.3378	3208.029	3493.4967
O=C1CC2OC12C1CN1	O=C1C[C@H]2O[C@@]12[C@H]1CN1	
InChI=1S/C6H7NO2/c8-4-1-5-6(4,9-5)3-2-7-3/h3,5,7H,1-2H2	InChI=1S/C6H7NO2/c8-4-1-5-6(4,9-5)3-2-7-3/h3,5,7H,1-2H2/t3-,5-,6+/m1/s1
