16
gdb 128397	6.89523	0.75016	0.67946	12.1839	87.67	-0.1862	-0.0522	0.134	1600.7229	0.126535	-430.234322	-430.225661	-430.224717	-430.269135	29.711	
C	-0.0205487552	 1.4819922127	 0.0069632839	-0.330734
N	-0.0417823506	 0.0324535658	-0.118083919	-0.311501
C	-1.1492063015	-0.7028426501	-0.0014046662	 0.230851
N	-1.2091566864	-2.0010006153	-0.1085507203	-0.363604
H	-0.3864566702	-2.5635373959	-0.295554852	 0.280556
C	-2.3990868396	-2.7534553238	 0.0212135228	 0.390185
N	-2.3733548411	-4.0826949357	-0.1033452368	-0.384214
C	-3.6914754001	-4.3223016937	 0.0940513198	-0.000217
N	-4.4352804276	-3.2299291879	 0.3165016254	-0.240181
N	-3.5669209289	-2.1777697318	 0.2673996924	-0.325782
H	 0.627469858	 1.792031361	 0.8324149999	 0.157742
H	 0.3323989642	 1.9478138556	-0.9182011855	 0.157719
H	-1.0328633281	 1.8352606475	 0.20907677	 0.172563
H	 0.8355732264	-0.4311556526	-0.3051897162	 0.270993
H	-2.0956716569	-0.2093743467	 0.1998053454	 0.209455
H	-4.1167617123	-5.3164011391	 0.0747935763	 0.086168
45.1409	72.7167	103.5049	127.5445	197.308	309.8081	352.8089	393.0168	537.2975	544.2729	696.3675	719.7722	760.9186	802.0307	870.6416	996.4851	1027.9972	1037.1975	1049.7633	1095.4816	1153.001	1157.0821	1184.1422	1270.5223	1296.6013	1337.3896	1371.0231	1398.1648	1430.5178	1470.1577	1481.0252	1490.8082	1519.5522	1575.1891	1761.3779	3042.0687	3104.4945	3148.6923	3200.9893	3233.0848	3568.3769	3608.1128
CNC=[NH+]C1=NC=N[N-]1	CN[CH]Nc1ncnn1	
InChI=1S/C4H6N5/c1-5-2-6-4-7-3-8-9-4/h2-3H,1H3,(H-,5,6,7,8,9)/q-1/p+1	InChI=1S/C4H8N5/c1-5-2-6-4-7-3-8-9-4/h2-3H,1H3,(H3,5,6,7,8,9)
