23
gdb 104673	1.91191	1.69737	1.10947	1.8626	85.03	-0.2333	0.0833	0.3166	1225.0312	0.204715	-388.222279	-388.21286	-388.211916	-388.256556	36.251	
C	 0.7426732905	-0.8926388795	 1.4213956123	-0.377204
C	 0.1075970516	-0.1668622584	 0.2265314348	-0.283779
C	-1.3362018258	-0.6128048267	-0.0598128978	 0.377203
C	-2.3451002312	 0.0984101105	 0.8554448597	-0.255538
C	-2.62155918	 1.5554769924	 0.4611250862	-0.384579
C	-1.8018234164	-0.8346438062	-1.5432087071	-0.003114
C	-0.8849797565	-2.0756815828	-1.6762535468	-0.240744
C	-1.6347610531	-2.1333120701	-0.3270098395	-0.004921
O	-2.8672967205	-1.7404132039	-1.0516257171	-0.314246
H	 1.7416205034	-0.4986924794	 1.6321383103	 0.11408
H	 0.144293348	-0.7776967195	 2.330763433	 0.121974
H	 0.8435616514	-1.9657894076	 1.2262826313	 0.117443
H	 0.1053904146	 0.9113989618	 0.4225783973	 0.099825
H	 0.7471582736	-0.2999366906	-0.6502250363	 0.097419
H	-3.2859998667	-0.4541915887	 0.8410012403	 0.119327
H	-1.9698903856	 0.0672117234	 1.886017682	 0.088497
H	-1.7137512812	 2.1680189042	 0.4574898466	 0.113108
H	-3.065789096	 1.6143104007	-0.5379326413	 0.11898
H	-3.3240488825	 2.0180268981	 1.1613516603	 0.11318
H	-2.0839442664	-0.101610039	-2.3010883971	 0.088412
H	-1.2338560087	-2.8039250288	-2.4085312501	 0.107217
H	 0.1983315972	-1.9560922994	-1.6885415767	 0.098816
H	-1.7193578998	-2.9569782805	 0.3842357055	 0.088643
65.1996	85.6795	162.0429	200.6352	211.439	227.541	331.9233	354.4623	399.9456	464.094	531.479	606.7351	666.8235	751.4814	779.1325	780.919	814.8221	879.7338	898.019	910.951	943.3705	955.6692	1023.8108	1026.5661	1042.9868	1048.3554	1074.9291	1116.2637	1119.1846	1142.6635	1169.9157	1202.7835	1208.1599	1219.7202	1268.9121	1277.0786	1308.3097	1341.7274	1362.5389	1381.3737	1410.063	1414.3091	1476.9514	1482.8486	1498.99	1501.266	1502.2961	1504.7894	1518.9529	3030.5696	3033.692	3035.3635	3045.6036	3072.6262	3086.3821	3091.7782	3097.6057	3102.1057	3103.8686	3106.9009	3108.8763	3119.1335	3157.3064
CCC1(CC)C2CC1O2	CCC1(CC)[C@H]2C[C@@H]1O2	
InChI=1S/C8H14O/c1-3-8(4-2)6-5-7(8)9-6/h6-7H,3-5H2,1-2H3	InChI=1S/C8H14O/c1-3-8(4-2)6-5-7(8)9-6/h6-7H,3-5H2,1-2H3/t6-,7+
