24
gdb 58474	2.36886	1.19398	1.08926	1.9807	85.68	-0.2312	0.0688	0.3	1317.6098	0.214093	-405.534368	-405.522938	-405.521994	-405.570518	42.352	
C	 0.324362591	 1.3336067927	 0.397496995	-0.424476
C	-0.1902272208	-0.0314223278	-0.0612296332	 0.106396
O	-1.6083748366	-0.0370964645	-0.2327068962	-0.441511
C	 0.5162592197	-0.5468831905	-1.3227865159	 0.280237
C	 0.2285972524	 0.2955227067	-2.5541315075	-0.501085
N	 1.8967532743	-1.0182649218	-1.0688645129	-0.41636
C	 0.8562433019	-2.0047051631	-1.4487045329	 0.277731
C	 0.4874235374	-3.0036062514	-0.3620378354	-0.443487
C	 0.9408655647	-2.6728042322	-2.8112934425	-0.463421
H	 1.407740185	 1.300045212	 0.5419008489	 0.137027
H	 0.1021654324	 2.1207977516	-0.3330373898	 0.103268
H	-0.1492323088	 1.6119174669	 1.3430829466	 0.120446
H	-0.0057927576	-0.7400331009	 0.7472045069	 0.087742
H	-1.8541068396	 0.7678639612	-0.6995826388	 0.278002
H	 0.5414187203	 1.3337977901	-2.3977227515	 0.120829
H	 0.7495360567	-0.0632231892	-3.4423669099	 0.117269
H	-0.8431095829	 0.2967517243	-2.7795757521	 0.122759
H	 2.4866993533	-0.8064391778	-1.8714495852	 0.216897
H	 0.6860492843	-2.6162116712	 0.6370371831	 0.131629
H	-0.5704546888	-3.2797148861	-0.427573697	 0.12415
H	 1.0818919728	-3.9166529526	-0.4787922347	 0.109235
H	 1.6738739368	-3.4872763653	-2.7777410005	 0.12072
H	-0.0230304721	-3.1142963387	-3.0889611297	 0.125235
H	 1.2416232541	-1.9948319426	-3.6118679647	 0.110769
45.1746	108.216	139.0934	148.6129	171.9843	229.6131	239.5704	246.9694	286.5012	303.2102	342.7436	380.8656	397.6141	457.7796	477.3642	521.8473	544.3488	683.9782	717.2703	846.5829	884.3468	924.3707	955.5116	975.9722	994.0489	1029.4069	1046.7268	1061.3479	1079.4268	1118.0305	1125.2324	1158.7955	1166.7098	1286.4054	1293.7323	1332.4652	1353.9762	1396.0046	1403.9566	1408.0496	1410.7822	1424.8027	1432.6332	1476.8955	1483.1474	1492.8667	1493.3239	1498.0922	1507.2399	1511.331	1524.229	3029.209	3030.2695	3036.9284	3040.7739	3084.5551	3090.3404	3094.6569	3095.4724	3112.5332	3119.7807	3124.9545	3140.7894	3146.8568	3476.2644	3813.305
CC(O)C1(C)NC1(C)C	C[C@@H](O)[C@@]1(C)NC1(C)C	
InChI=1S/C7H15NO/c1-5(9)7(4)6(2,3)8-7/h5,8-9H,1-4H3	InChI=1S/C7H15NO/c1-5(9)7(4)6(2,3)8-7/h5,8-9H,1-4H3/t5-,7-/m1/s1
