20
gdb 111466	2.75868	1.40626	1.04932	1.7958	78.2	-0.2268	-0.0256	0.2012	1189.956	0.171203	-403.152945	-403.144402	-403.143458	-403.18639	32.528	
C	-0.0955422799	 1.5165152402	 0.1966628416	-0.391039
C	-0.1581300466	-0.0007446326	-0.0076395968	-0.180013
C	 0.5953148326	-0.4879442879	-1.2576536649	-0.105777
C	 0.8099120783	-1.9860653905	-1.3635172404	-0.042276
C	-0.3622773556	-2.8353578322	-1.6963351496	-0.251009
N	 0.5934246263	-2.4745073175	-2.7532637042	-0.105373
C	 0.1412648115	-1.3291886006	-3.548689546	-0.264334
C	-0.0872900024	-0.1465383039	-2.5948034263	 0.35971
O	-0.694146276	 0.8598109943	-2.8570918285	-0.306677
H	 0.9404856382	 1.8531513127	 0.318241132	 0.108906
H	-0.5237648428	 2.0415009736	-0.6591967012	 0.151876
H	-0.646500443	 1.8086225936	 1.0958839345	 0.110061
H	 0.2664374952	-0.5091016281	 0.8666727195	 0.099823
H	-1.2034737091	-0.3253843925	-0.0716736422	 0.102244
H	 1.5790919232	 0.0068242234	-1.2853855646	 0.105324
H	 1.6549896077	-2.4240656547	-0.8404255736	 0.096516
H	-0.3671478344	-3.8867990621	-1.4258191808	 0.123494
H	-1.3479779868	-2.371200987	-1.7115939202	 0.116321
H	 0.923662814	-1.0532787652	-4.2676537908	 0.135492
H	-0.7641868604	-1.5537755731	-4.1199278776	 0.136729
65.0222	106.86	169.5119	200.9883	261.4088	317.7414	379.8871	438.4611	460.6747	554.0029	632.9103	657.5952	730.7807	769.8812	805.0804	846.944	907.2228	943.1378	964.0458	1008.6848	1028.6628	1044.2207	1097.4975	1104.801	1117.7726	1140.5782	1166.5678	1168.078	1217.7535	1258.4057	1270.8232	1296.1612	1298.3601	1334.7019	1370.7461	1393.3812	1410.1311	1458.2482	1487.0247	1496.4574	1508.2051	1515.3419	1841.5818	2988.4242	3026.4555	3030.4405	3035.5194	3061.5005	3091.9086	3094.9622	3099.0215	3140.214	3147.0132	3187.4725
CCC1C2CN2CC1=O	CC[C@H]1[C@H]2CN2CC1=O	
InChI=1S/C7H11NO/c1-2-5-6-3-8(6)4-7(5)9/h5-6H,2-4H2,1H3	InChI=1S/C7H11NO/c1-2-5-6-3-8(6)4-7(5)9/h5-6H,2-4H2,1H3/t5-,6+,8?/m0/s1
