17
gdb 96064	3.04542	1.14002	0.92064	2.5036	65.42	-0.265	-0.0041	0.2608	1240.6266	0.135412	-496.114043	-496.105354	-496.104409	-496.148926	30.783	
O	-0.1235878727	 1.1317847123	-0.6697410786	-0.427794
C	-0.1138914638	-0.1160740884	-0.0312434008	 0.110991
C	 0.4625023234	-0.1542251506	 1.3927486455	-0.119821
O	-0.0048311263	-1.3821265836	 1.9212261794	-0.24884
C	-1.3437068426	-1.5776367999	 1.46939546	-0.091148
C	-1.5237589009	-0.730465733	 0.1972439264	 0.032313
O	-2.4465935015	 0.3367663545	 0.4665086647	-0.207915
C	-3.2785075882	 0.7252024706	-0.5265865465	 0.170176
O	-3.9943732381	 1.6735987913	-0.4247980572	-0.27001
H	-0.6607330778	 1.7303161598	-0.1363446425	 0.297517
H	 0.4647449444	-0.7875583281	-0.6725819432	 0.109238
H	 1.5536953148	-0.1600885663	 1.4260785812	 0.123243
H	 0.094297801	 0.7112284364	 1.9706659989	 0.095313
H	-1.482142978	-2.6473979686	 1.2901343846	 0.118551
H	-2.0714558861	-1.2484079949	 2.2229326743	 0.121185
H	-1.8791375992	-1.3052688254	-0.662486997	 0.097445
H	-3.2275235682	 0.064851954	-1.4123243492	 0.089557
38.5694	49.457	141.6254	204.2745	242.581	284.0359	363.1233	393.8085	427.4237	557.6024	583.5174	676.7654	707.1717	876.4985	915.1917	957.2396	1005.1002	1034.4246	1043.0198	1065.9336	1110.9681	1117.4982	1148.9206	1179.9367	1219.1861	1249.88	1255.6689	1289.0012	1318.5483	1359.4968	1378.1093	1398.9872	1431.9801	1439.2793	1502.3918	1515.3563	1868.296	2961.0901	2966.8242	3020.2886	3064.8796	3077.4919	3092.6279	3113.8564	3790.8614
OC1COCC1OC=O	O[C@H]1COC[C@H]1OC=O	
InChI=1S/C5H8O4/c6-3-9-5-2-8-1-4(5)7/h3-5,7H,1-2H2	InChI=1S/C5H8O4/c6-3-9-5-2-8-1-4(5)7/h3-5,7H,1-2H2/t4-,5+/m0/s1
