16
gdb 47385	2.79854	1.33588	1.09748	5.0058	70.78	-0.2591	0.0248	0.2839	1114.1255	0.125255	-437.897133	-437.889001	-437.888057	-437.930382	30.379	
O	 0.020583185	-0.0560929933	 0.0805940867	-0.386931
C	 0.0004652689	 1.1473747365	 0.0379660302	 0.468052
N	-1.1696361263	 1.8713688624	 0.062053164	-0.3437
C	-1.3243826714	 3.3181205923	-0.048255633	-0.176382
C	-0.0017006996	 3.9608670937	 0.3999907252	-0.232054
C	 1.1412726439	 3.2493969086	-0.3024267308	-0.073592
O	 1.1605035879	 1.8524845874	 0.0171027808	-0.240533
C	-1.7117586025	 3.7363205876	-1.4031838683	 0.350503
C	-2.0368702134	 4.0758882658	-2.5092621999	-0.466172
H	-1.9899572845	 1.2937628358	-0.0321697557	 0.263231
H	-2.1193077013	 3.6269963558	 0.6420874923	 0.121005
H	-0.0006649062	 5.025812831	 0.1572306059	 0.127213
H	 0.1017113418	 3.8480246014	 1.4836127074	 0.12582
H	 1.0586721009	 3.3711770449	-1.3898989184	 0.12795
H	 2.1134775315	 3.6324001191	 0.0144091428	 0.126667
H	-2.3263991146	 4.369773021	-3.4883571693	 0.208924
54.3659	106.3076	176.5145	218.9454	311.7258	409.2809	458.1438	467.9306	526.8109	572.1868	611.5745	649.2509	663.6218	733.4191	760.1209	806.4568	874.0819	922.7027	987.0408	1009.4849	1089.3377	1114.9836	1143.9499	1222.0133	1248.8078	1302.1907	1322.5022	1369.9809	1384.1368	1437.0055	1463.3272	1473.0458	1514.622	1846.0389	2233.3816	3022.6942	3033.6747	3062.821	3110.915	3121.2338	3500.2166	3643.715
O=C1NC(CCO1)C#C	O=C1N[C@@H](CCO1)C#C	
InChI=1S/C6H7NO2/c1-2-5-3-4-9-6(8)7-5/h1,5H,3-4H2,(H,7,8)	InChI=1S/C6H7NO2/c1-2-5-3-4-9-6(8)7-5/h1,5H,3-4H2,(H,7,8)/t5-/m1/s1
