16
gdb 54036	2.33467	1.35196	0.90933	0.9414	65.94	-0.2585	-0.0488	0.2096	1227.044	0.122282	-475.036948	-475.027914	-475.026969	-475.071905	31.931	
N	-0.343190594	 1.24109735	 0.3325535394	-0.528804
C	-0.1836197743	-0.102881742	 0.2256991939	 0.401428
O	 0.8228511501	-0.7045224643	 0.5455558306	-0.354561
C	-1.4259289811	-0.869624766	-0.2793488393	-0.25474
C	-2.1166303449	-0.2550565362	-1.4945326252	 0.149474
O	-2.2746159402	 0.929848381	-1.6707763338	-0.26172
C	-1.0892927685	-2.3265619539	-0.5225577791	 0.098201
C	-1.4816345503	-3.3812468216	 0.4116311826	-0.173613
O	-2.2153838578	-3.1672189645	-0.7992832557	-0.255707
H	 0.4814097898	 1.7763437937	 0.5573563986	 0.260776
H	-1.0861374884	 1.6804060666	-0.1955410613	 0.277154
H	-2.1816024881	-0.8112241877	 0.5186750342	 0.146642
H	-2.5083745995	-0.9945504146	-2.2200758502	 0.131836
H	-0.2226927786	-2.5013841403	-1.1573457215	 0.118252
H	-0.9077207505	-4.3045460142	 0.4523470065	 0.127492
H	-2.0053794737	-3.1172773961	 1.32937084	 0.11789
49.9158	60.3433	111.0223	171.8573	236.1211	246.4715	348.9833	402.3551	445.1258	508.0255	565.5387	589.4138	642.7673	730.2535	771.5617	855.8035	894.6807	950.8423	1005.8775	1052.3332	1100.9734	1128.9729	1153.2499	1163.3977	1180.1954	1206.1012	1249.5743	1295.8476	1346.3714	1426.1817	1445.2324	1531.7802	1620.8952	1798.4296	1805.8333	2950.5041	3011.4269	3090.6888	3135.2737	3181.0568	3532.567	3681.5586
NC(=O)C(C=O)C1CO1	NC(=O)[C@@H](C=O)[C@H]1CO1	
InChI=1S/C5H7NO3/c6-5(8)3(1-7)4-2-9-4/h1,3-4H,2H2,(H2,6,8)	InChI=1S/C5H7NO3/c6-5(8)3(1-7)4-2-9-4/h1,3-4H,2H2,(H2,6,8)/t3-,4+/m0/s1
