25
gdb 58572	2.26475	1.39534	1.19409	0.1207	93.3	-0.2346	0.0275	0.2621	1242.0761	0.2287	-352.378417	-352.368402	-352.367458	-352.412873	39.025	
C	 0.1319734985	 1.5091988951	 0.0673785363	-0.404883
C	-0.0524224091	-0.0178941322	 0.0759779065	 0.01528
C	 0.6194787229	-0.5993856089	 1.3300777123	-0.400938
C	-1.5441543719	-0.4692187985	-0.0909042988	 0.289187
C	-2.1246166549	 0.0975916368	-1.4021937631	-0.445587
C	-1.6791579239	-2.0318512116	-0.0718265441	-0.266981
C	-2.299972006	-2.4218418828	 1.2956577651	-0.25582
C	-2.8080210746	-1.105351778	 1.8299204995	-0.075134
C	-2.4026979586	-0.0711549084	 1.0971153169	-0.088034
H	 1.1920511963	 1.7616049113	 0.17524396	 0.108785
H	-0.2196521283	 1.9701466057	-0.8587978684	 0.112463
H	-0.3989523435	 1.9806601488	 0.9021881337	 0.113329
H	 0.4774985076	-0.4174888751	-0.8013707756	 0.06663
H	 0.1333513446	-0.236215232	 2.2412213455	 0.117597
H	 0.5914771768	-1.6921761624	 1.3503200777	 0.110407
H	 1.6716043429	-0.2987844941	 1.3701699374	 0.105805
H	-1.5140544429	-0.19878488	-2.2635497372	 0.107568
H	-3.1392811252	-0.2797732113	-1.5629345721	 0.110685
H	-2.1807876081	 1.1898104643	-1.3924986519	 0.11255
H	-2.3517128211	-2.341546377	-0.8772101409	 0.094641
H	-0.7238874162	-2.5296959351	-0.2572358662	 0.094845
H	-3.0976500366	-3.1668977405	 1.1907173074	 0.099344
H	-1.5632412718	-2.863253128	 1.9803927059	 0.104461
H	-3.41710271	-1.0349685281	 2.7253673729	 0.087971
H	-2.6420116473	 0.9664860721	 1.3068345612	 0.085829
52.6575	110.8075	199.563	210.5647	229.4347	232.5472	275.3409	314.3428	372.1173	383.3151	392.504	454.4914	546.1946	588.271	696.0383	770.4193	782.0855	840.2629	852.9597	912.6564	927.1451	935.0361	951.6689	964.78	979.3625	993.8291	1022.8677	1061.8056	1089.8544	1118.3893	1131.5986	1186.9574	1199.5134	1212.191	1217.3105	1265.3914	1312.0596	1320.5277	1345.7298	1351.903	1388.4438	1398.7572	1411.2796	1420.7837	1479.408	1486.9781	1489.8684	1494.2851	1498.4368	1507.1091	1511.4238	1519.1396	1689.9907	2991.2168	3012.9367	3025.4966	3032.6775	3038.8053	3041.9912	3058.3342	3091.5465	3092.6132	3096.1337	3101.5472	3105.1281	3112.9912	3118.468	3170.6575	3196.6483
CC(C)C1(C)CCC=C1	CC(C)[C@@]1(C)CCC=C1	
InChI=1S/C9H16/c1-8(2)9(3)6-4-5-7-9/h4,6,8H,5,7H2,1-3H3	InChI=1S/C9H16/c1-8(2)9(3)6-4-5-7-9/h4,6,8H,5,7H2,1-3H3/t9-/m1/s1
