19
gdb 14784	14.7182	0.53659	0.52448	2.5249	71.8	-0.2597	0.0233	0.2831	2023.0835	0.163712	-402.189518	-402.179458	-402.178514	-402.226475	33.182	
O	-0.0753785296	 1.4227783006	 0.0107677976	-0.42132
C	 0.0088585065	 0.0062989864	 0.0021371489	-0.074471
C	-1.4112228529	-0.5442286073	 0.0127026894	-0.171719
C	-1.4493467671	-2.0745906489	 0.0049115626	-0.201847
C	-2.8712678583	-2.6130627069	 0.015762159	-0.072849
O	-2.8019405601	-4.041601875	 0.0076788981	-0.183505
C	-3.9776936024	-4.694585499	 0.0149267504	 0.129247
N	-4.001888515	-5.957052029	 0.0089721683	-0.439239
H	 0.8181444276	 1.7778972163	 0.0030512085	 0.287058
H	 0.5412442681	-0.3578396421	-0.8918491152	 0.087731
H	 0.5582172653	-0.3676203582	 0.8817114808	 0.087729
H	-1.9259625667	-0.1530491051	 0.8989828379	 0.108459
H	-1.9427090323	-0.143663335	-0.8593832923	 0.108441
H	-0.9360242384	-2.4664169342	-0.8812201173	 0.115343
H	-0.9190550509	-2.4757857128	 0.8767414162	 0.115361
H	-3.4083022611	-2.2699569045	 0.911185877	 0.108088
H	-3.4253383286	-2.2607331022	-0.8655897578	 0.108077
H	-4.8521485353	-4.0278509035	 0.026208996	 0.081886
H	-4.9660881886	-6.2834748094	 0.0161053518	 0.227528
24.1723	60.6269	87.4987	106.8543	114.4044	165.9456	227.7418	264.4413	291.6145	401.5584	512.6085	638.2016	755.4953	812.493	823.6918	945.2736	988.479	1019.1927	1045.6505	1054.1312	1069.6488	1105.977	1141.2576	1180.4614	1219.9351	1232.9261	1288.7444	1292.8675	1305.5153	1316.2721	1325.5463	1376.5735	1413.9753	1436.6451	1466.6825	1492.2744	1501.6953	1521.3183	1531.0143	1749.4862	2961.1016	2986.6338	2992.4924	3015.9475	3027.2223	3034.3661	3038.7357	3061.6329	3087.6574	3516.1118	3830.649
OCCCCOC=N	OCCCCO[CH][NH]	
InChI=1S/C5H11NO2/c6-5-8-4-2-1-3-7/h5-7H,1-4H2	InChI=1S/C5H11NO2/c6-5-8-4-2-1-3-7/h5-7H,1-4H2
