15
gdb 105591	2.03117	1.52203	1.21944	1.5138	68.8	-0.2552	-0.0465	0.2087	1083.0774	0.10905	-457.707989	-457.698979	-457.698035	-457.742091	32.312	
O	 0.1780065587	 1.3416250977	-0.2207377509	-0.41001
C	 0.0759937414	 0.0406270548	 0.3010221448	-0.077687
C	-1.3582049985	-0.4936495341	 0.1359751984	 0.025482
O	-1.708759842	-0.4652011522	-1.2890951842	-0.319712
C	-1.8056689464	-1.9003843659	-1.4088802982	-0.19063
C	-1.4659211119	-2.0475542975	 0.0747972194	 0.301225
O	-1.3246300342	-2.9369419454	 0.8497870876	-0.259505
C	-2.3332754587	 0.1759932695	 0.9703696179	 0.348044
C	-3.1470450831	 0.6915734802	 1.6886322363	-0.439828
H	-0.1573286886	 1.3012464469	-1.1252161717	 0.29766
H	 0.7678611941	-0.6574755522	-0.1966950351	 0.091744
H	 0.3357294763	 0.0835803055	 1.3618135662	 0.135474
H	-2.8125629767	-2.2346759315	-1.6866286644	 0.147653
H	-1.072985999	-2.328119048	-2.1036284998	 0.140847
H	-3.8609412015	 1.1621293722	 2.3192844436	 0.209244
81.3824	99.4186	118.7857	157.4581	184.5293	300.8471	350.7704	409.809	442.5382	518.5363	529.6544	605.2778	625.0655	661.8325	681.5557	763.8597	893.8888	942.0183	965.132	1001.155	1060.8888	1092.6163	1108.5215	1137.0152	1170.6477	1256.0611	1295.3116	1386.8234	1421.6944	1479.0004	1493.0893	1932.3099	2234.7942	2977.4364	3026.9348	3075.8545	3103.7885	3498.6258	3782.6309
OCC1(OCC1=O)C#C	OC[C@]1(OCC1=O)C#C	
InChI=1S/C6H6O3/c1-2-6(4-7)5(8)3-9-6/h1,7H,3-4H2	InChI=1S/C6H6O3/c1-2-6(4-7)5(8)3-9-6/h1,7H,3-4H2/t6-/m1/s1
