18
gdb 63290	1.97154	1.66529	1.11932	2.9054	79.56	-0.2636	0.0211	0.2847	1151.9778	0.144696	-401.926718	-401.917351	-401.916406	-401.960591	35.194	
C	 0.2151270533	 1.3897067839	-0.3104399073	-0.433352
C	-0.0536556724	-0.0671097516	 0.0107489498	 0.407834
C	-1.5264198536	-0.4315765664	-0.0031174182	-0.436979
O	 0.6948266183	-0.9392659744	-0.9257265232	-0.287981
C	 1.4842180182	-1.4456892641	 0.0740816578	 0.435581
N	 2.438121514	-2.255968806	 0.0446827933	-0.543497
C	 0.7763882201	-0.6869359214	 1.1940337392	-0.395373
C	 1.5621677462	 0.1743981862	 2.0486696794	 0.353105
C	 2.202719768	 0.8987754585	 2.7619675672	-0.452376
H	 1.2863446755	 1.601196366	-0.3060145002	 0.139561
H	-0.1884390448	 1.6336822972	-1.2976691005	 0.127166
H	-0.2635121161	 2.0371167033	 0.4302593181	 0.130178
H	-1.9683692501	-0.1967735881	-0.9762188827	 0.133038
H	-1.6676198496	-1.4987303851	 0.1893275148	 0.129329
H	-2.0648653184	 0.1354084586	 0.7630611252	 0.130232
H	 2.6320484973	-2.5661405759	-0.9091882782	 0.229065
H	 0.1648879101	-1.3664755848	 1.7969733654	 0.13125
H	 2.7812455539	 1.5290454841	 3.3912620502	 0.203219
72.1317	125.5911	155.5765	198.7754	232.5533	294.3061	324.8393	337.1614	392.5829	428.8016	461.9824	561.2885	612.8436	629.6494	652.2057	657.6691	809.9218	841.8357	868.2851	906.9746	945.1383	983.2379	1008.4362	1025.2352	1092.4591	1139.3179	1154.0154	1252.8554	1261.3695	1299.5404	1344.3864	1406.3195	1419.242	1472.2778	1479.6987	1492.4735	1501.1101	1823.8625	2242.4372	3038.6714	3047.5385	3056.927	3111.6937	3118.4594	3119.8376	3135.3995	3475.307	3502.1004
CC1(C)OC(=N)C1C#C	CC1(C)O[C]([NH])[C@H]1C#C	
InChI=1S/C7H9NO/c1-4-5-6(8)9-7(5,2)3/h1,5,8H,2-3H3	InChI=1S/C7H9NO/c1-4-5-6(8)9-7(5,2)3/h1,5,8H,2-3H3/t5-/m1/s1
