19
gdb 8115	3.1688	1.89126	1.48942	2.1942	72.28	-0.2256	0.0695	0.2952	926.9373	0.164254	-365.014985	-365.006523	-365.005578	-365.047244	32.101	
C	-0.1800271475	 1.5307430316	 0.0566337631	-0.316384
N	 0.1074676736	 0.1011030808	 0.096627293	-0.114804
C	 1.3642179449	-0.4909429333	-0.3044209903	-0.117379
C	 2.6059628431	 0.2834660195	 0.1452797763	 0.120821
O	 2.8374346311	 1.4921503747	-0.5481509149	-0.429975
C	 2.0548966746	 0.3086133693	 1.6117358477	-0.351429
C	 0.866135806	-0.5544991254	 1.1334372348	 0.333986
C	 0.256139661	-1.6833074694	 1.9117696875	-0.482687
H	 0.650458582	 2.1833814137	 0.3434390646	 0.120766
H	-0.4696898209	 1.792347414	-0.9655872266	 0.123148
H	-1.0357006463	 1.7279637249	 0.7111388813	 0.111028
H	 1.3520466925	-1.2427934707	-1.0877029318	 0.084434
H	 3.4875689344	-0.3707133357	 0.0904923397	 0.074332
H	 3.6472404389	 1.8847177956	-0.2065461419	 0.28351
H	 2.7100828968	-0.2090276802	 2.3167927272	 0.099047
H	 1.8028082691	 1.2920956888	 2.0181118678	 0.098568
H	-0.3129162462	-1.3048687799	 2.7697894917	 0.119383
H	-0.4292634509	-2.2535054325	 1.2796919806	 0.130686
H	 1.0266028538	-2.3590528957	 2.2990171501	 0.112948
117.6971	176.4865	199.7582	221.6446	252.278	283.9468	290.7634	364.2221	432.3331	485.0549	576.3161	685.5798	708.791	743.1979	861.8207	911.0512	935.2602	958.5318	977.9223	1022.1687	1052.0731	1131.972	1143.2435	1155.1187	1169.2695	1193.444	1199.9488	1220.0255	1250.3553	1282.6108	1319.3292	1400.52	1419.2722	1436.8456	1459.81	1481.2028	1484.853	1493.0836	1498.134	1511.9404	2997.9554	3025.4252	3029.3747	3056.6228	3082.8865	3097.7492	3102.7736	3109.4626	3120.3841	3155.8343	3812.8693
CN1C2C(O)CC12C	CN1[C@H]2[C@@H](O)C[C@@]12C	
InChI=1S/C6H11NO/c1-6-3-4(8)5(6)7(6)2/h4-5,8H,3H2,1-2H3	InChI=1S/C6H11NO/c1-6-3-4(8)5(6)7(6)2/h4-5,8H,3H2,1-2H3/t4-,5-,6+,7?/m0/s1
