18
gdb 128303	3.43745	1.04724	0.83885	5.2789	76.38	-0.1908	0.0437	0.2345	1386.5386	0.149185	-431.451762	-431.442296	-431.441351	-431.487212	33.141	
C	 0.1271568166	 1.29237471	 0.2411243689	-0.334247
N	-0.0304155355	-0.0183387549	-0.3889917771	-0.385635
C	-1.2136566093	-0.707844285	-0.1768707587	 0.431587
N	-1.3257636708	-1.9542832017	 0.1857235541	-0.301514
N	-2.6912011056	-2.2628478897	 0.1935245953	-0.301301
C	-3.3323564498	-1.1867120518	-0.1647862664	 0.431179
N	-4.6993880917	-1.07333481	-0.3625352104	-0.385661
C	-5.398735414	 0.0411205379	 0.2770562034	-0.334223
N	-2.4544682772	-0.1499434728	-0.3967247588	-0.359175
H	 1.1211331994	 1.6771787314	 0.0022779888	 0.135778
H	-0.6000862337	 1.9991583475	-0.1708024999	 0.120925
H	 0.0070915686	 1.2752691561	 1.3344429434	 0.124441
H	 0.7396098597	-0.6422583104	-0.180717088	 0.253663
H	-5.1235516919	-1.9680852947	-0.150051958	 0.253617
H	-6.4639187696	-0.037967563	 0.0484628626	 0.13571
H	-5.2721811747	 0.0747132904	 1.3692521254	 0.124459
H	-5.0496618258	 0.9927045293	-0.1361054947	 0.120919
H	-2.6546227346	 0.7237500915	-0.85185573	 0.269477
40.6586	65.8352	118.4556	161.3419	165.9307	227.2451	267.8791	395.6685	424.0904	434.9773	495.5377	602.0744	683.6449	716.8911	758.0276	759.9796	803.3969	1011.246	1020.0416	1036.8357	1066.6362	1101.9144	1147.6206	1155.1034	1164.91	1173.4395	1253.6782	1407.6547	1414.3982	1451.9223	1460.0741	1486.5705	1491.0925	1492.1988	1511.1921	1511.4431	1527.962	1630.1238	1645.444	2993.8942	2995.1778	3076.3446	3076.7602	3122.4918	3122.7609	3571.0332	3571.4541	3671.6135
CNC1=NN=C(NC)N1	CNc1nnc(NC)[nH]1	
InChI=1S/C4H9N5/c1-5-3-7-4(6-2)9-8-3/h1-2H3,(H3,5,6,7,8,9)	InChI=1S/C4H9N5/c1-5-3-7-4(6-2)9-8-3/h1-2H3,(H3,5,6,7,8,9)
