16
gdb 35300	5.56012	0.95911	0.90092	3.8221	81.21	-0.2729	0.0056	0.2785	1259.68	0.124013	-363.566605	-363.558489	-363.557545	-363.599351	30.807	
C	 0.0191334532	-1.242912257	-0.1218818478	-0.458364
C	 0.0160923812	-0.0426964211	-0.0487136995	 0.326587
C	 0.0224561918	 1.4037415054	 0.0668455139	-0.178
C	-0.2355865544	 2.0394432868	 1.4867378703	-0.309517
C	 1.118755278	 2.7619319904	 1.3913446839	 0.223417
C	 2.2312439885	 1.7540633439	 1.1919672074	-0.319811
C	 1.3899026051	 2.1189013809	 0.0145850669	-0.097891
C	 1.3619779247	 4.0999198094	 1.8178748283	 0.179611
N	 1.5436507042	 5.1892104551	 2.1659619522	-0.347527
H	 0.0167821695	-2.3022730611	-0.1981188125	 0.203389
H	-0.6664701928	 1.8406921814	-0.6608982414	 0.120552
H	-1.0879647895	 2.718908632	 1.4802992347	 0.134
H	-0.3332944215	 1.3376184719	 2.3176140542	 0.124141
H	 3.2323773545	 2.1700277547	 1.1949249469	 0.142824
H	 2.1398923534	 0.7733959242	 1.6505950913	 0.136409
H	 1.8035595142	 2.5907225331	-0.8672492686	 0.120179
80.936	112.6871	181.929	208.5724	301.0634	384.3203	458.8861	506.1665	561.7541	577.8412	606.2144	636.5276	641.9018	698.6505	807.0887	851.8631	891.4879	963.6575	965.3676	978.8794	1033.4202	1068.3711	1083.7741	1095.7763	1136.6291	1203.3828	1227.7684	1257.7257	1289.026	1336.1485	1385.4386	1479.1889	1494.9244	2234.7835	2345.4057	3071.3268	3078.605	3125.3732	3143.7406	3202.2345	3224.0361	3502.3365
C#CC1CC2(CC12)C#N	C#C[C@H]1C[C@]2(C[C@@H]12)C#N	
InChI=1S/C8H7N/c1-2-6-3-8(5-9)4-7(6)8/h1,6-7H,3-4H2	InChI=1S/C8H7N/c1-2-6-3-8(5-9)4-7(6)8/h1,6-7H,3-4H2/t6-,7-,8-/m0/s1
