15
gdb 25559	4.27871	0.94743	0.83987	3.336	69.75	-0.2562	-0.0186	0.2376	1326.267	0.113564	-453.962806	-453.954797	-453.953853	-453.997191	27.713	
N	-0.5426672247	 1.1388700094	 0.2289295707	-0.434064
C	-0.5945788268	-0.1080945975	 0.4039071446	 0.133759
O	-0.683484106	-0.9315901537	-0.6642913126	-0.173854
C	-0.8598613622	-2.3253205283	-0.3921539776	-0.229846
C	-2.2869756266	-2.7124306024	-0.2641252002	 0.349207
C	-3.1650776082	-3.4051760186	-1.0300746431	-0.182893
N	-4.4005466271	-3.4511695839	-0.3974441733	-0.252721
C	-4.2140849399	-2.7912740842	 0.6975421901	 0.081219
O	-2.9608171659	-2.3116063567	 0.864231527	-0.176906
H	-0.4511015559	 1.6126754905	 1.1250388744	 0.231269
H	-0.5624743449	-0.6386871295	 1.3651227946	 0.090617
H	-0.4235163076	-2.8556681048	-1.2408273033	 0.14383
H	-0.3001865424	-2.6036338135	 0.5106271612	 0.126445
H	-2.9989193594	-3.8728664414	-1.9876844255	 0.136217
H	-4.9229432424	-2.5790032652	 1.482461523	 0.15772
46.2048	57.2657	101.3219	166.2782	274.96	363.3959	389.7752	619.5692	661.065	668.5053	767.0728	819.8106	848.6861	876.6996	929.8583	940.9702	977.5217	1015.2924	1039.2392	1119.3801	1122.7241	1139.9789	1227.0547	1248.9164	1267.6765	1326.5676	1364.4652	1393.0148	1425.6738	1480.727	1545.0758	1639.3733	1748.4467	3019.614	3030.8818	3119.7094	3266.3359	3278.8175	3520.7191
N=COCC1=CN=CO1	[NH][CH]OCc1cnco1	
InChI=1S/C5H6N2O2/c6-3-8-2-5-1-7-4-9-5/h1,3-4,6H,2H2	InChI=1S/C5H6N2O2/c6-3-8-2-5-1-7-4-9-5/h1,3-4,6H,2H2
