25
gdb 102550	1.97839	1.26126	1.00372	0.9373	89.01	-0.2463	0.0845	0.3308	1392.7461	0.226566	-389.478731	-389.467675	-389.466731	-389.514625	40.83	
C	-0.2642546328	 1.1718077719	 0.668094072	-0.386642
C	-0.2186751858	-0.2588293449	 0.1256874554	-0.183683
C	 0.56838483	-0.3784573393	-1.1839129604	 0.062687
O	 1.9095430821	-0.0145810612	-0.874510496	-0.246707
C	 2.728267842	 0.2812265311	-1.9823462343	-0.236309
C	 0.4737669843	-1.7659367276	-1.8189263705	 0.3709
C	 1.1224972851	-2.8913718236	-1.03345156	-0.466035
C	-0.7892065315	-2.0695034812	-2.5895811779	-0.311949
C	 0.5050525176	-1.850393867	-3.3305908497	-0.316632
H	 0.7469814921	 1.5506031678	 0.8348793121	 0.131439
H	-0.764944656	 1.8469834116	-0.0355866379	 0.105984
H	-0.8095107787	 1.2168362825	 1.6158496966	 0.106517
H	 0.2410427436	-0.9191252571	 0.8695526904	 0.105406
H	-1.2339586842	-0.6328328976	-0.0475136232	 0.096161
H	 0.1578204191	 0.3516495739	-1.9059514227	 0.050265
H	 2.2723049441	 1.0459535364	-2.6312292822	 0.09882
H	 3.6694108663	 0.6741112901	-1.5878494112	 0.121308
H	 2.9450999092	-0.6037245873	-2.595220418	 0.113733
H	 0.616040856	-3.0618642044	-0.0772935589	 0.117147
H	 1.0877002052	-3.8290869327	-1.596363334	 0.107052
H	 2.1697616809	-2.6599367241	-0.8169641809	 0.1276
H	-1.1879466826	-3.0768408507	-2.5335357564	 0.109467
H	-1.5489462415	-1.2969682857	-2.6586114604	 0.107858
H	 0.6114234958	-0.9316132545	-3.8979663811	 0.1074
H	 0.9908573199	-2.7089290965	-3.7827650609	 0.108215
76.3816	95.0164	101.6523	170.7418	192.4078	206.9205	210.445	268.6824	272.0883	300.0393	322.1616	370.5616	449.1733	503.4309	529.1752	748.0576	780.6534	788.5937	869.3153	888.2997	917.7575	952.8294	957.144	979.4147	1034.9123	1052.4106	1075.8912	1083.814	1105.8117	1130.6523	1135.0209	1158.9604	1182.1722	1191.5154	1229.1868	1277.9959	1304.4934	1322.117	1344.0018	1382.7732	1399.9693	1406.8898	1421.897	1466.8847	1475.974	1480.1084	1488.2165	1489.8346	1496.6766	1501.3655	1507.1601	1510.6353	1514.7661	2928.8316	2977.1799	3033.2638	3033.8951	3038.3425	3039.941	3076.3858	3095.7105	3099.3266	3104.4136	3109.8341	3122.8045	3125.9831	3127.1984	3200.13	3214.6367
CCC(OC)C1(C)CC1	CC[C@@H](OC)C1(C)CC1	
InChI=1S/C8H16O/c1-4-7(9-3)8(2)5-6-8/h7H,4-6H2,1-3H3	InChI=1S/C8H16O/c1-4-7(9-3)8(2)5-6-8/h7H,4-6H2,1-3H3/t7-/m1/s1
