13
gdb 129287	3.44651	1.37336	0.98204	0.9626	73.82	-0.2736	-0.1096	0.1639	1093.6288	0.089069	-452.711339	-452.703875	-452.702931	-452.745048	26.831	
N	 0.0537670543	 0.9959148283	-1.034747707	-0.469076
C	 0.0203075222	 0.1479360535	-0.0910216217	 0.379641
O	 1.2433214171	-0.1627375709	 0.5078684472	-0.293376
N	 1.5702055069	-1.0199610477	 1.5347036818	-0.038076
C	 0.740110885	-1.7460581342	 2.1787567131	-0.029795
C	-0.7332258027	-1.9920256041	 2.1536544297	 0.325151
O	-1.1759388151	-2.7910006294	 2.9589134641	-0.309423
C	-1.6209038657	-1.3097452886	 1.2073188673	-0.179609
C	-1.2782948968	-0.415644601	 0.2748469213	-0.082965
H	 1.0113293556	 1.3154614269	-1.1968018572	 0.24461
H	 1.2321112043	-2.3415486549	 2.9462390439	 0.159071
H	-2.6626911513	-1.5947480371	 1.3137393401	 0.139803
H	-2.0537261137	 0.0054407494	-0.3560285026	 0.154045
24.3109	57.5404	264.2578	356.7482	370.3201	383.1724	410.2305	524.3677	591.8088	653.6793	761.4495	763.6103	802.8013	869.5837	899.6214	917.3937	953.728	955.8168	1046.9739	1062.0836	1198.8169	1288.5882	1331.4242	1367.3215	1408.39	1663.3375	1678.953	1721.0826	1744.1674	3157.5972	3188.0411	3206.1716	3473.2517
N=C1ON=CC(=O)C=C1	[NH]C1=C[CH]C(=O)C=NO1	
InChI=1S/C5H4N2O2/c6-5-2-1-4(8)3-7-9-5/h1-3,6H	InChI=1S/C5H4N2O2/c6-5-2-1-4(8)3-7-9-5/h1-3,6H
