25
gdb 95828	2.65192	1.11889	0.85517	1.4509	88.54	-0.2576	0.077	0.3346	1445.5524	0.230802	-389.511951	-389.502366	-389.501421	-389.545879	37.77	
C	 0.0766832142	 1.622250951	 0.0460389315	-0.405472
C	 0.0105267577	 0.0892894401	-0.0100130021	 0.062029
C	 0.5775802049	-0.4472607004	-1.3409318526	-0.187781
C	-0.0410511124	-1.7827263849	-1.7882382333	-0.211736
C	 0.3559172505	-3.028148651	-0.9828518026	-0.207004
C	 0.1551484505	-2.9562832393	 0.5377295916	 0.143152
O	 0.429541266	-4.2293411967	 1.1252474831	-0.444734
C	 1.1177241403	-1.973808166	 1.2139107448	-0.201276
C	 0.6760839341	-0.5007306144	 1.2546171522	-0.204469
H	 1.1119763463	 1.9713961712	-0.0501867243	 0.112231
H	-0.5055802333	 2.0777707569	-0.7618119797	 0.106866
H	-0.3121943379	 2.0032220509	 0.9966936224	 0.108874
H	-1.0526062501	-0.1893916764	 0.0112570894	 0.067502
H	 0.3733589303	 0.2912192051	-2.1259453416	 0.088272
H	 1.6717565476	-0.5293387138	-1.2857678842	 0.090673
H	-1.1344892619	-1.6741502608	-1.7707503149	 0.093161
H	 0.2230777097	-1.9656172928	-2.8367708775	 0.092633
H	-0.222416735	-3.8796387315	-1.3701495225	 0.07526
H	 1.4120302325	-3.2698734245	-1.160520009	 0.101244
H	-0.8863763897	-2.664213087	 0.7601058507	 0.056523
H	-0.087029689	-4.8901313555	 0.6528998318	 0.2748
H	 1.2657032936	-2.3220508231	 2.2410212817	 0.106559
H	 2.0939337711	-2.0628622028	 0.7222197276	 0.094988
H	 1.561616127	 0.1018071855	 1.4967594319	 0.091826
H	-0.0157384771	-0.3548597197	 2.0938046355	 0.095877
77.3544	146.1869	174.9225	249.3808	256.7195	302.2606	305.4311	314.1564	329.2532	406.5826	432.0102	454.581	515.9202	572.5733	739.9279	812.5608	850.1587	861.4232	872.7803	899.8425	954.4702	984.5705	1025.6725	1033.9614	1066.9072	1068.782	1080.1386	1098.4209	1124.1012	1176.1937	1205.6651	1225.1452	1242.283	1268.5989	1282.0938	1310.0305	1337.7126	1349.0579	1353.0497	1366.6026	1385.4169	1388.5435	1400.0387	1403.129	1413.565	1440.6761	1479.2902	1484.9916	1487.5985	1491.2633	1498.9957	1501.812	1508.1219	2941.6313	2992.9567	2996.4997	3009.5009	3011.9074	3013.2577	3022.7356	3031.0637	3042.2951	3048.3416	3051.5232	3058.8049	3081.7429	3088.245	3096.0022	3812.8013
CC1CCCC(O)CC1	C[C@H]1CCC[C@@H](O)CC1	
InChI=1S/C8H16O/c1-7-3-2-4-8(9)6-5-7/h7-9H,2-6H2,1H3	InChI=1S/C8H16O/c1-7-3-2-4-8(9)6-5-7/h7-9H,2-6H2,1H3/t7-,8+/m0/s1
