16
gdb 36751	2.70859	0.84941	0.71231	2.5717	78.83	-0.2554	0.0136	0.269	1570.5925	0.120148	-400.660122	-400.650214	-400.64927	-400.696382	34.588	
C	 1.1918240563	-0.3979866809	 0.7683753327	-0.447806
C	 0.5372854167	 0.5539515998	 0.439581817	 0.315787
C	-0.2490993526	 1.7180253431	 0.0422883655	-0.238448
O	 0.4669998552	 2.6195283389	-0.8056709358	-0.19729
C	 1.4121573985	 3.3690758182	-0.1934370718	 0.146435
N	 2.1151642145	 4.1532942357	-0.8804368662	-0.242355
C	 3.1181296794	 4.9828411123	-0.2248001851	-0.257535
C	 3.2561107841	 4.8736149289	 1.2311185729	 0.285906
C	 3.3523878389	 4.7700799818	 2.4254622591	-0.468868
H	 1.7694825804	-1.2417063257	 1.0563184634	 0.210575
H	-1.1191782182	 1.4092629279	-0.5434412457	 0.155589
H	-0.6200698662	 2.2458870596	 0.9315079495	 0.140088
H	 1.483408368	 3.2313606339	 0.8916184923	 0.105701
H	 4.086544459	 4.7619238991	-0.692938408	 0.145864
H	 2.9039919599	 6.0278301471	-0.4854394906	 0.144856
H	 3.454869426	 4.6920516903	 3.4797356106	 0.201501
29.2298	57.3209	112.7133	156.4845	203.0868	229.9906	284.0815	324.4812	332.2213	404.5991	443.2446	597.7467	616.4222	627.5637	659.8942	677.6627	691.1784	920.9214	936.8952	953.1025	1009.0319	1013.2232	1016.5239	1080.8826	1201.2272	1266.3149	1304.1267	1349.4265	1390.2897	1420.7461	1468.0367	1483.8927	1776.1803	2227.1033	2241.2898	3016.9105	3018.3646	3037.6289	3058.3713	3094.3045	3502.2172	3503.8184
C#CCOC=NCC#C	C#CCOC=NCC#C	
InChI=1S/C7H7NO/c1-3-5-8-7-9-6-4-2/h1-2,7H,5-6H2	InChI=1S/C7H7NO/c1-3-5-8-7-9-6-4-2/h1-2,7H,5-6H2
