24
gdb 122452	4.35596	0.64113	0.61499	0.7004	88.28	-0.2229	0.0869	0.3098	1953.0798	0.214286	-405.513542	-405.502348	-405.501404	-405.550483	39.951	
C	-0.0004994233	 1.6887868021	 0.8623784568	-0.22488
O	-0.2989367442	 0.3163522114	 0.7995114475	-0.232385
C	 0.7334401527	-0.4433554274	 0.2110341148	-0.048007
C	 0.2925338295	-1.90285322	 0.1881617268	-0.159524
N	 1.348377986	-2.7108840547	-0.4052244186	-0.116693
C	 2.2726475219	-3.4027406729	 0.4930920444	-0.29544
C	 1.3030983084	-4.1769261274	-0.3389545848	 0.340272
C	 0.1503981484	-4.8914739997	 0.3433635619	-0.4539
C	 1.7916813001	-4.8587704041	-1.6026415231	-0.434822
H	 0.1588964154	 2.1202065603	-0.1389286143	 0.102918
H	-0.8517364783	 2.1898471241	 1.3302778539	 0.124229
H	 0.9015150924	 1.8850000171	 1.4643931267	 0.101409
H	 0.9444605212	-0.1009874038	-0.8145900864	 0.09441
H	 1.6697873282	-0.3414827365	 0.7865985568	 0.085219
H	 0.0223793973	-2.1984741525	 1.2139692807	 0.092823
H	-0.6108492046	-1.9899541932	-0.4259840763	 0.109133
H	 3.3262528985	-3.3573992479	 0.2265354991	 0.106564
H	 2.0755627093	-3.3436242727	 1.5637693977	 0.101708
H	-0.1511955273	-4.4117111532	 1.2765511484	 0.120609
H	-0.7252229277	-4.9375972333	-0.3149847643	 0.119687
H	 0.4361544905	-5.9224263701	 0.5781683626	 0.119575
H	 2.1606936995	-5.8678052718	-1.3859085497	 0.110266
H	 0.9799733892	-4.9491768778	-2.3339088508	 0.114056
H	 2.5972486267	-4.2823400759	-2.0632412497	 0.122773
47.8652	83.2291	97.6008	113.7992	174.5302	197.3719	217.2887	238.582	257.1256	299.062	366.1327	410.9873	417.9448	485.3267	517.4597	704.3807	795.231	827.1545	898.7837	918.6242	959.1072	995.2212	1020.6455	1022.9881	1074.3274	1081.4418	1120.7003	1143.3952	1163.1187	1167.3761	1189.8896	1209.958	1230.0298	1244.7531	1286.7476	1305.9344	1345.5496	1386.0775	1407.2018	1419.7681	1429.5155	1477.3136	1482.0801	1485.1329	1486.0556	1493.7211	1498.4622	1503.8258	1507.2608	1518.9531	1531.5956	2953.513	2968.8186	2977.2907	2997.1494	3008.8523	3025.9716	3032.4401	3065.8541	3078.0617	3085.0679	3089.9143	3110.2016	3122.732	3125.34	3162.982
COCCN1CC1(C)C	COCCN1CC1(C)C	
InChI=1S/C7H15NO/c1-7(2)6-8(7)4-5-9-3/h4-6H2,1-3H3	InChI=1S/C7H15NO/c1-7(2)6-8(7)4-5-9-3/h4-6H2,1-3H3
