20
gdb 77093	3.13076	1.10627	0.92099	4.2545	84.62	-0.2822	0.0308	0.313	1310.2931	0.170878	-366.011769	-366.002855	-366.001911	-366.045466	33.863	
C	-0.6060817376	 1.0663873787	-0.0367344719	-0.421504
C	-0.0044843913	-0.3211109476	 0.1028648568	-0.04217
C	 1.318740332	-0.630484941	-0.6846405727	-0.148237
C	 1.845233516	-1.41093288	 0.5644848456	-0.317329
C	 0.7489617043	-0.7237296962	 1.3852236561	 0.355812
C	 0.9900132254	 0.1580584935	 2.5780445936	-0.319233
C	 0.193071097	-1.1211995141	 2.7147966709	-0.333684
C	 1.2120879974	-1.3390883919	-1.9469401876	 0.264616
N	 1.1086719256	-1.9174332034	-2.9433821134	-0.331972
H	 0.1333628757	 1.844460636	 0.17973923	 0.119711
H	-0.9823759889	 1.2273628697	-1.0522950163	 0.131372
H	-1.4475803434	 1.2014842849	 0.6517454173	 0.123077
H	-0.7518884958	-1.0835965387	-0.1432524039	 0.09604
H	 1.8915326582	 0.28933768	-0.8350037731	 0.119607
H	 1.6889440836	-2.4881717342	 0.4620471693	 0.124144
H	 2.8850233142	-1.224805439	 0.8418240518	 0.115788
H	 1.9908300078	 0.1858968361	 2.9974128264	 0.114944
H	 0.4543088338	 1.0994437913	 2.6439763181	 0.116924
H	-0.8788035289	-1.0374078386	 2.8664188691	 0.11543
H	 0.6502820352	-1.9594766055	 3.231004544	 0.116662
59.5914	134.6321	192.7425	201.3358	233.0252	260.6659	328.8134	353.3376	458.3532	490.512	551.0284	571.6078	697.5473	776.794	799.9912	857.8949	890.9765	915.8671	926.7186	975.7702	1008.3215	1046.7374	1050.267	1071.1552	1079.9948	1094.3694	1137.5273	1156.7043	1188.9132	1227.2683	1244.4367	1256.1587	1260.0996	1339.0747	1368.8129	1396.2132	1409.8983	1464.5487	1489.9908	1493.8739	1496.3864	1507.1545	2350.6892	3029.9604	3043.6985	3062.2625	3070.6035	3097.3198	3104.7452	3118.6838	3121.9367	3126.8352	3199.9259	3214.9608
CC1C(CC11CC1)C#N	C[C@H]1[C@@H](CC21CC2)C#N	
InChI=1S/C8H11N/c1-6-7(5-9)4-8(6)2-3-8/h6-7H,2-4H2,1H3	InChI=1S/C8H11N/c1-6-7(5-9)4-8(6)2-3-8/h6-7H,2-4H2,1H3/t6-,7-/m0/s1
