20
gdb 74907	2.67822	1.53878	1.08426	1.8351	81.71	-0.2175	0.0328	0.2503	1158.626	0.172181	-403.150163	-403.141806	-403.140862	-403.183198	32.227	
C	-0.2556215963	 1.5654229265	 0.206153766	-0.433624
C	-0.0322389066	 0.1114514912	-0.1250094524	 0.373913
N	-0.8917315449	-0.7530408024	 0.2153928914	-0.297354
C	-0.9079914047	-2.1568304506	-0.0275725378	 0.023957
C	-1.6018395138	-2.7013328295	-1.2545165238	-0.298261
C	-0.1164077606	-2.9133777667	-1.0764854738	-0.041358
C	 0.9004814281	-2.175555208	-1.9264092099	-0.24615
C	 1.7704874871	-1.2489509842	-1.084364465	-0.063661
O	 1.1480865524	 0.0075547861	-0.8027706874	-0.259533
H	 0.5551511377	 1.9392651145	 0.8397942352	 0.131893
H	-0.2483284414	 2.1655120805	-0.7095757016	 0.132811
H	-1.2097019832	 1.6842099499	 0.7166524175	 0.139
H	-1.1199980288	-2.7041524882	 0.8877877809	 0.094759
H	-2.2783510262	-3.5415291876	-1.1433485054	 0.109804
H	-1.9064679948	-1.973018413	-1.9997051401	 0.114805
H	 0.1909014919	-3.912674633	-0.7784473507	 0.082649
H	 1.54747303	-2.8944592009	-2.4414522875	 0.105433
H	 0.4205330664	-1.5764712595	-2.7085986293	 0.112135
H	 2.0549278278	-1.7373891937	-0.1430933791	 0.108729
H	 2.68639344	-0.9733048015	-1.6153116971	 0.110054
71.4066	129.4856	166.0527	245.5941	293.5246	326.3967	393.9257	400.8071	458.0796	590.1837	621.7432	682.8368	741.1623	778.2099	805.0636	866.4471	893.8702	958.2817	966.1849	1034.965	1036.5982	1054.5512	1061.7922	1078.3324	1116.4084	1131.4067	1155.8833	1176.7324	1228.484	1248.4796	1254.3455	1305.8191	1352.6522	1393.9985	1400.8926	1407.3686	1420.6641	1471.3894	1476.8491	1478.9784	1488.5218	1503.2279	1768.1781	3021.1713	3036.9406	3046.261	3076.573	3086.8406	3102.0398	3123.4672	3127.3937	3135.9776	3170.2818	3216.1557
CC1=NC2CC2CCO1	CC1=N[C@H]2C[C@H]2CCO1	
InChI=1S/C7H11NO/c1-5-8-7-4-6(7)2-3-9-5/h6-7H,2-4H2,1H3	InChI=1S/C7H11NO/c1-5-8-7-4-6(7)2-3-9-5/h6-7H,2-4H2,1H3/t6-,7+/m1/s1
