13
gdb 23869	2.94785	1.73659	1.38671	1.8383	52.2	-0.2788	0.0373	0.3162	884.9126	0.089897	-492.945028	-492.936895	-492.935951	-492.977842	29.079	
C	-0.0300363349	 1.561447656	 0.0317538134	-0.403172
C	-0.0370765058	 0.0208268478	-0.0151250292	-0.298397
C	-1.391009067	-0.5230021951	 0.0168689688	 0.327846
C	-2.5160914102	-0.9400756921	 0.0546742611	-0.451705
C	 0.7187352971	-0.4872144816	-1.2485150643	 0.290063
F	 1.9888964705	-0.0498309269	-1.2273910601	-0.080591
F	 0.7538275619	-1.8231722308	-1.2875798512	-0.070857
F	 0.161908967	-0.0568436691	-2.3869292611	-0.074425
H	 0.9959592384	 1.9356284279	 0.0244957296	 0.136341
H	-0.5625388892	 1.9695405363	-0.8298813011	 0.146142
H	-0.5266429536	 1.9046448421	 0.9410158367	 0.136522
H	 0.5253219805	-0.3683134493	 0.8428562342	 0.136523
H	-3.5069182847	-1.321477255	 0.0839658931	 0.20571
63.3739	136.5241	200.1028	219.8047	242.2443	332.9773	385.6345	435.0969	519.94	544.9906	584.8327	643.5127	665.3602	683.4851	797.013	894.5497	1016.2432	1089.9833	1110.28	1168.8784	1218.9162	1277.1068	1320.3527	1364.323	1407.6835	1493.4749	1501.1344	2247.556	3040.264	3061.6694	3143.5175	3145.119	3504.0797
CC(C#C)C(F)(F)F	C[C@@H](C#C)C(F)(F)F	
InChI=1S/C5H5F3/c1-3-4(2)5(6,7)8/h1,4H,2H3	InChI=1S/C5H5F3/c1-3-4(2)5(6,7)8/h1,4H,2H3/t4-/m0/s1
