18
gdb 40665	3.83255	1.2135	1.02177	1.8399	76.77	-0.2374	0.0057	0.2431	1168.5736	0.149211	-401.898188	-401.890755	-401.889811	-401.930492	29.01	
C	 0.2478436381	 1.5317549251	 0.009525519	-0.184969
O	 1.2235651015	 0.5001727781	-0.1474848825	-0.244016
C	-0.1503304446	 0.1195764078	-0.0098042102	 0.094281
C	-0.5144872803	-0.6296046998	 1.2552048615	-0.063631
C	-1.9959891305	-0.5586453146	 1.5984121743	-0.098312
C	-2.5480753224	-1.7648138882	 1.7420326236	-0.054221
C	-1.5465090528	-2.8374873434	 1.4690282619	-0.087993
N	-1.0424774303	-2.7869371217	 0.0642822439	-0.331099
C	-0.2729801717	-2.1396423284	 1.1492404131	-0.065664
H	 0.2851863835	 2.0678549359	 0.9579114822	 0.107822
H	 0.0790854408	 2.1564141583	-0.8666277576	 0.113626
H	-0.5973942848	-0.285865873	-0.9161744024	 0.112536
H	 0.0926678962	-0.2086473726	 2.0684825487	 0.085256
H	-2.5198328379	 0.3875111188	 1.677376055	 0.09883
H	-3.584054502	-1.9632345156	 1.9887851664	 0.101716
H	-1.5855961881	-3.7966334879	 1.9735886666	 0.090415
H	-0.5927484909	-3.6747161329	-0.1542439431	 0.229622
H	 0.6963968962	-2.5450925559	 1.4150339396	 0.095802
77.7545	134.4825	163.4858	322.9253	347.6356	408.0915	511.2011	544.1333	706.4992	752.8138	792.4318	821.9491	854.8756	861.6003	863.5726	917.9481	928.3243	947.4889	972.5811	989.6647	1015.3028	1077.8311	1103.7883	1113.5018	1142.6506	1152.7591	1157.0758	1169.7634	1182.9917	1242.2513	1256.0782	1289.1426	1303.0581	1324.7948	1393.2333	1406.2908	1436.6758	1528.2547	1666.3374	3013.602	3076.9506	3131.4287	3162.8813	3169.0747	3180.0054	3188.8322	3215.6917	3476.5448
C1OC1C1C=CC2NC12	C1O[C@H]1[C@H]1C=C[C@H]2N[C@@H]12	
InChI=1S/C7H9NO/c1-2-5-7(8-5)4(1)6-3-9-6/h1-2,4-8H,3H2	InChI=1S/C7H9NO/c1-2-5-7(8-5)4(1)6-3-9-6/h1-2,4-8H,3H2/t4-,5-,6-,7+/m1/s1
