20
gdb 59320	2.7063	1.21644	0.92081	2.8593	76.77	-0.2571	0.0289	0.286	1301.8873	0.169188	-440.29079	-440.280919	-440.279975	-440.325654	36.088	
C	 0.2489594102	 1.5295144173	 0.0396867345	-0.41633
C	 0.0950526067	 0.0113907307	 0.0502297259	 0.115186
O	-1.2304047952	-0.4007621953	 0.3716178474	-0.428948
C	 0.498886478	-0.6079025174	-1.2832927892	 0.104737
O	 1.9068287055	-0.3476263596	-1.6079398838	-0.273883
C	 2.1846686249	-1.7010388831	-1.6737502849	 0.436703
N	 3.2636626799	-2.2994598136	-1.8936447716	-0.54486
C	 0.7615556712	-2.1364060045	-1.3795063629	-0.153025
C	 0.5399002585	-3.0481566616	-0.1776774423	-0.404956
H	 1.2834531399	 1.8095980615	-0.1760903141	 0.143206
H	-0.3880435302	 1.9788687247	-0.7333201414	 0.107117
H	-0.0388619036	 1.9466617974	 1.0082149541	 0.127741
H	 0.7253491236	-0.408777971	 0.8409677334	 0.098969
H	-1.8376288089	 0.08816249	-0.1952060588	 0.282
H	-0.1404992254	-0.2128076534	-2.0831409256	 0.077693
H	 4.0315168546	-1.6428998655	-2.0445675695	 0.226083
H	 0.2893032532	-2.5688410285	-2.2665184078	 0.107292
H	 1.0657693544	-2.6878486688	 0.7104596896	 0.124952
H	-0.5235594265	-3.1194916478	 0.0620968117	 0.135841
H	 0.9223105692	-4.0473693916	-0.4025566946	 0.13448
64.5577	90.1968	148.0991	183.0805	213.0038	236.9241	262.5071	281.9901	336.2388	387.1676	416.5639	481.1969	559.7307	646.6444	752.1986	797.1524	855.6652	868.0294	898.05	952.6923	999.9491	1013.5877	1032.0935	1075.4379	1080.5892	1106.939	1158.0367	1191.6218	1225.0349	1241.5078	1268.3563	1316.6763	1333.5909	1360.5378	1400.7381	1409.2991	1411.5301	1416.2408	1488.9771	1492.5634	1495.8998	1500.0038	1823.9266	3022.1337	3025.7488	3049.8785	3064.0379	3069.2251	3102.5942	3120.6541	3131.0666	3132.45	3474.5974	3797.8479
CC(O)C1OC(=N)C1C	C[C@@H](O)[C@H]1O[C]([NH])[C@H]1C	
InChI=1S/C6H11NO2/c1-3-5(4(2)8)9-6(3)7/h3-5,7-8H,1-2H3	InChI=1S/C6H11NO2/c1-3-5(4(2)8)9-6(3)7/h3-5,7-8H,1-2H3/t3-,4+,5-/m0/s1
