19
gdb 67290	3.06574	1.59899	1.31581	1.7876	80.12	-0.2518	0.0956	0.3475	1026.9708	0.158881	-385.794877	-385.787283	-385.786339	-385.826551	30.491	
C	-0.0512939484	 1.4805184274	 0.0217737696	-0.531593
C	-0.0575300253	-0.0209900609	 0.0280472521	 0.236529
C	 0.7840513722	-0.9951365255	-0.8963050836	-0.068637
C	 1.9767748033	-1.0025078381	 0.0786598291	-0.287997
C	 0.7332124059	-0.9965519622	 0.9890164572	-0.073233
C	-0.0623083712	-1.9487547622	 0.0240136529	-0.168804
C	-1.236569558	-0.9873166904	 0.005372754	 0.47232
C	-2.5965049405	-0.9812786418	 0.5280608042	-0.303757
O	-2.3240038852	-0.9747787981	-0.894050733	-0.298077
H	 0.9703409222	 1.8747512387	 0.0031498751	 0.123872
H	-0.5781441854	 1.8650964582	-0.8578467894	 0.133643
H	-0.548514202	 1.8815319121	 0.9119984019	 0.120914
H	 0.7793441428	-0.9960608825	-1.9867638363	 0.081319
H	 2.5923807544	-1.9071940783	 0.0949456905	 0.094288
H	 2.611418554	-0.1108323973	 0.0975284468	 0.09426
H	 0.6707895744	-1.000768313	 2.0785598595	 0.070741
H	-0.038371964	-3.0378770051	 0.0242852178	 0.076812
H	-3.0433365033	-1.8997799817	 0.906925313	 0.114639
H	-3.0342537858	-0.0623273193	 0.9165270585	 0.112762
150.2721	188.7427	203.5521	239.3468	292.5631	342.7482	497.4047	524.5914	594.4199	647.0472	718.1199	812.5157	829.352	850.6456	859.2063	891.8662	913.2506	919.9905	981.872	998.7286	1022.9815	1048.5264	1070.6602	1110.1906	1114.0501	1130.7849	1148.3872	1151.1601	1159.849	1176.616	1202.806	1217.819	1237.332	1286.8339	1342.4516	1410.9549	1467.3163	1484.8855	1494.3198	1516.6516	1557.8002	3028.3483	3040.1567	3078.5762	3092.7964	3095.0745	3097.4933	3100.2593	3109.0179	3127.787	3162.435
CC12C3CC1C3C21CO1	C[C@@]12[C@H]3C[C@@H]1[C@H]3[C@]12CO1	
InChI=1S/C8H10O/c1-7-4-2-5(7)6(4)8(7)3-9-8/h4-6H,2-3H2,1H3	InChI=1S/C8H10O/c1-7-4-2-5(7)6(4)8(7)3-9-8/h4-6H,2-3H2,1H3/t4-,5+,6-,7+,8-/m0/s1
