17
gdb 70772	3.78169	1.35219	1.14294	4.778	78.5	-0.2491	0.0074	0.2565	1077.3832	0.136431	-380.797692	-380.790037	-380.789093	-380.829608	29.829	
C	 0.021961035	 1.437191623	-0.0949318387	-0.526543
C	 0.0031861937	-0.0580288848	-0.0311864108	 0.337374
N	 0.6118808745	-0.9321783476	-1.097786514	-0.403645
C	 0.0575607943	-1.8905254433	-0.0901081574	 0.279774
C	 0.1316562208	-3.3224399167	-0.2143587803	 0.154773
N	 0.1710382026	-4.4742726606	-0.3113589193	-0.347362
C	 0.5252064625	-1.0007937526	 1.111128602	-0.106873
C	-0.8540054117	-1.0674184542	 1.7957337267	-0.281205
C	-1.1992824575	-1.0262104421	 0.2943819834	-0.138972
H	 1.0481174327	 1.8004384102	-0.2056577953	 0.142925
H	-0.5631737934	 1.8016614709	-0.9460988608	 0.129407
H	-0.402769881	 1.8704585083	 0.8162851994	 0.13246
H	 0.0227308385	-0.931935954	-1.9367310276	 0.212638
H	 1.5295514931	-1.0064631184	 1.5327869383	 0.100444
H	-1.0910095908	-1.9913895064	 2.3287483806	 0.118939
H	-1.1459107636	-0.1960667963	 2.3873694407	 0.106758
H	-2.1682191896	-1.0622337254	-0.206816867	 0.089106
134.0462	139.6049	203.4708	251.8056	301.3815	410.1334	479.2388	519.6195	545.1367	563.6525	644.3484	720.7562	774.1377	834.8202	865.6098	906.8314	920.1785	972.4369	1022.1798	1040.3442	1070.2705	1084.8095	1103.5092	1128.6626	1140.0519	1168.6575	1207.8711	1226.6335	1254.2493	1262.2905	1295.9883	1384.5326	1421.3266	1479.572	1490.2018	1509.4113	2349.6005	3035.4264	3060.6131	3102.4948	3106.491	3113.7555	3119.7285	3133.2334	3387.3368
CC12NC3(C#N)C1CC23	C[C@@]12N[C@@]3(C#N)[C@@H]1C[C@@H]23	
InChI=1S/C7H8N2/c1-6-4-2-5(6)7(4,3-8)9-6/h4-5,9H,2H2,1H3	InChI=1S/C7H8N2/c1-6-4-2-5(6)7(4,3-8)9-6/h4-5,9H,2H2,1H3/t4-,5+,6-,7+
