23
gdb 64291	2.55577	1.44763	1.2354	1.2589	84.16	-0.2553	0.0732	0.3285	1151.5183	0.206746	-388.295776	-388.287035	-388.286091	-388.328963	35.36	
C	-0.0609550612	 1.5890639289	-0.1140868209	-0.434413
C	-0.0061525629	 0.060627797	-0.0290333171	 0.389134
O	-1.3300657089	-0.4432205348	 0.1901121324	-0.486024
C	 0.6428818356	-0.5702230939	-1.2968102179	-0.258535
C	 2.1154837074	-0.8109749754	-0.9291475983	-0.230344
C	 2.044313337	-1.3120761971	 0.5263065147	 0.003257
C	 3.0120822708	-0.6576612348	 1.5464478547	-0.239848
C	 1.9091406082	 0.385116809	 1.8898457104	-0.247796
C	 0.8641165777	-0.4943475343	 1.1313631371	-0.000028
H	 0.913392279	 2.0232406327	-0.3585435616	 0.115423
H	-0.7570814456	 1.8941605536	-0.9051428372	 0.098488
H	-0.4069610271	 2.021754353	 0.829016444	 0.122518
H	-1.8817352907	-0.1461684818	-0.5416646245	 0.269019
H	 0.1430976749	-1.5297442632	-1.4724208301	 0.101289
H	 0.5122411768	 0.0445821627	-2.1943073728	 0.081571
H	 2.6159712736	-1.5113026324	-1.604204362	 0.095495
H	 2.6744258429	 0.132479706	-0.9783452357	 0.093277
H	 1.9634412432	-2.4019719226	 0.5621370403	 0.062134
H	 3.2354342765	-1.3162061033	 2.3899593096	 0.098119
H	 3.9576265646	-0.273773189	 1.1523744449	 0.091171
H	 1.7121754248	 0.5517511487	 2.9514298682	 0.098568
H	 2.0841279828	 1.3584682075	 1.4268988718	 0.097791
H	 0.2205917606	-1.0493370365	 1.8151906201	 0.079733
47.9427	164.4057	245.7366	281.7311	288.8786	319.9069	343.0549	375.4798	413.4448	476.8632	558.0071	577.2761	684.9376	733.7541	782.3843	817.7265	868.0358	895.0635	920.863	947.936	952.0426	963.7177	974.0091	1005.1272	1045.0408	1065.5985	1075.1074	1105.901	1140.5539	1188.092	1202.4978	1219.6561	1226.1281	1239.1624	1260.6447	1275.9814	1278.8722	1309.732	1317.8975	1335.1139	1353.731	1377.7383	1407.3073	1477.2338	1483.2136	1489.2786	1494.4522	1498.0082	1503.5254	3023.4166	3024.2233	3032.7784	3049.7155	3059.1941	3067.7489	3077.2911	3087.617	3088.6984	3095.7063	3099.2903	3114.1126	3122.4737	3800.02
CC1(O)CCC2CCC12	C[C@@]1(O)CC[C@H]2CC[C@@H]12	
InChI=1S/C8H14O/c1-8(9)5-4-6-2-3-7(6)8/h6-7,9H,2-5H2,1H3	InChI=1S/C8H14O/c1-8(9)5-4-6-2-3-7(6)8/h6-7,9H,2-5H2,1H3/t6-,7-,8-/m1/s1
