22
gdb 92747	2.85755	1.29036	1.04529	1.9295	83.4	-0.2352	0.0383	0.2735	1258.9477	0.194075	-404.387043	-404.377473	-404.376529	-404.421022	36.119	
C	-0.0770752519	 1.5315933144	-0.0235021417	-0.414678
C	 0.0613928657	 0.0082560565	-0.0031200889	-0.012697
C	 0.7186490953	-0.5460797681	-1.2728822726	-0.164658
N	 1.0222810501	-1.9688489441	-1.2075172531	-0.312316
C	 1.0629440376	-2.5322939042	-0.0717210844	 0.391059
C	 1.3117635257	-4.0057513344	 0.0733792781	-0.45188
O	 0.8916009303	-1.960067643	 1.1552195575	-0.275193
C	 0.8307333633	-0.519631285	 1.2161473879	 0.120787
C	 2.2445353387	 0.0312742385	 1.4019454087	-0.404318
H	 0.8924470702	 2.0237549173	-0.1513632685	 0.120876
H	-0.7178126142	 1.846921503	-0.8531706708	 0.120527
H	-0.525536118	 1.9075849834	 0.9027985959	 0.11358
H	-0.9436641112	-0.4292418427	 0.0641772061	 0.085265
H	 0.0624161273	-0.379401125	-2.135717984	 0.10511
H	 1.6439068338	 0.0050199719	-1.4974818374	 0.103156
H	 1.4136500631	-4.4577444249	-0.9122785063	 0.141727
H	 2.2195939015	-4.1834747239	 0.6589305221	 0.13281
H	 0.4837091634	-4.476741596	 0.612999045	 0.134982
H	 0.252788084	-0.3162923172	 2.1245541933	 0.085855
H	 2.8639012069	-0.1341947829	 0.5155712526	 0.131306
H	 2.2206181511	 1.1043561383	 1.6114078687	 0.121343
H	 2.7226420473	-0.4701172521	 2.2476194718	 0.127356
94.2503	116.1936	145.3238	213.8318	230.521	264.0041	276.2437	290.5704	366.4537	403.2031	438.2306	524.5859	575.2392	620.7345	708.3485	753.5	874.3094	884.747	921.6978	962.8908	980.405	1027.0016	1053.3077	1061.8452	1073.9639	1117.401	1148.2921	1169.1262	1204.9613	1240.	1255.4168	1328.9848	1347.5764	1365.4438	1390.018	1399.3395	1405.9252	1414.3414	1415.9393	1475.1829	1476.8221	1485.7066	1490.4249	1497.3686	1504.9323	1507.2114	1749.3861	2996.1292	3015.8929	3030.739	3040.773	3045.6687	3046.5377	3047.425	3096.2638	3102.7135	3104.1094	3122.1143	3122.9456	3166.4073
CC1CN=C(C)OC1C	C[C@H]1CN=C(C)O[C@H]1C	
InChI=1S/C7H13NO/c1-5-4-8-7(3)9-6(5)2/h5-6H,4H2,1-3H3	InChI=1S/C7H13NO/c1-5-4-8-7(3)9-6(5)2/h5-6H,4H2,1-3H3/t5-,6-/m0/s1
