19
gdb 75429	2.95599	1.24601	0.98338	4.6552	78.02	-0.2559	-0.0047	0.2512	1233.5535	0.159686	-423.066517	-423.057923	-423.056979	-423.100106	32.31	
C	 0.0753439101	 1.5503767712	-0.0183994778	-0.482939
C	-0.019938788	 0.0523941514	-0.0297199934	 0.344774
C	-0.0293316818	-0.6757816338	-1.1489218039	-0.180948
C	-0.1185007807	-2.1723041045	-1.0996125397	-0.123172
O	 1.0669150082	-2.8469635888	-0.6144419337	-0.221313
C	 1.61230879	-2.6640927476	 0.6086114291	 0.384479
O	 2.4875136003	-3.4143123968	 0.9517707943	-0.315653
C	 1.2168514816	-1.5086760969	 1.5381419367	-0.305479
C	-0.0494312393	-0.6670265853	 1.3003467617	-0.334099
H	 0.9642575671	 1.8854477428	 0.5315015047	 0.131345
H	 0.1234034421	 1.9623993622	-1.0295005995	 0.127365
H	-0.7890784492	 1.9920492459	 0.4936866416	 0.131437
H	 0.0349218552	-0.2019369245	-2.1240645525	 0.093792
H	-0.9724694139	-2.5009003148	-0.4939633121	 0.117115
H	-0.2490050938	-2.5892563741	-2.0993308064	 0.126059
H	 1.1953463983	-1.9524845907	 2.537870306	 0.138415
H	 2.0916289534	-0.8465501693	 1.5304869105	 0.14295
H	-0.1314059099	 0.0521766809	 2.1214557727	 0.106407
H	-0.9387780899	-1.3066166371	 1.3673042716	 0.119464
51.3827	141.509	157.3661	209.2411	283.5722	314.7415	357.2922	391.1384	472.3799	531.0782	540.9892	659.2904	685.698	701.468	772.2669	855.4747	919.7689	923.4949	990.9647	1025.8598	1044.0928	1063.4416	1081.4308	1104.8671	1166.405	1210.0687	1246.9768	1270.4844	1285.5701	1337.7446	1355.2912	1387.4329	1411.6305	1419.1181	1454.9567	1478.924	1483.959	1492.3611	1514.2541	1732.5875	1822.6056	3016.8634	3024.5652	3025.568	3042.0537	3064.4347	3076.3593	3092.2404	3115.6052	3116.7633	3170.5879
CC1=CCOC(=O)CC1	CC1=CCOC(=O)CC1	
InChI=1S/C7H10O2/c1-6-2-3-7(8)9-5-4-6/h4H,2-3,5H2,1H3	InChI=1S/C7H10O2/c1-6-2-3-7(8)9-5-4-6/h4H,2-3,5H2,1H3
