18
gdb 54427	2.55479	1.48596	1.17717	2.5496	73.13	-0.2485	0.0089	0.2574	1104.8517	0.146425	-439.097728	-439.088844	-439.087899	-439.131104	33.655	
C	 0.4924177931	 1.3078810913	-0.1693116031	-0.496776
C	 0.028040028	-0.0811256668	 0.1215035947	 0.335679
C	-1.3869826617	-0.6742660768	-0.0084063986	-0.281791
C	-1.0402291559	-1.6602283228	 1.1603358792	-0.295664
C	 0.3564242677	-1.0399685911	 1.2141873758	 0.285939
O	 0.9450108184	-1.1652110815	-0.0953981414	-0.332843
C	 1.2452536591	-0.8915957262	 2.4044901381	 0.284769
N	 2.548531613	-0.6342568683	 2.0951169933	-0.541465
O	 0.8051734445	-0.9609464187	 3.536982501	-0.363939
H	 1.4878012188	 1.4771197782	 0.2492858957	 0.135571
H	 0.5366746203	 1.4801933127	-1.2507689297	 0.133863
H	-0.1972821443	 2.0405191057	 0.260745548	 0.133371
H	-2.1750316674	 0.0343433728	 0.2561118783	 0.112267
H	-1.6059993512	-1.118625048	-0.981984312	 0.111884
H	-1.6073695606	-1.4619188699	 2.0702180607	 0.135306
H	-1.0626692554	-2.7279086957	 0.9326145098	 0.111235
H	 2.8643952919	-0.7900156845	 1.1520267268	 0.270708
H	 3.2167436817	-0.6131445103	 2.8480623933	 0.261886
78.2441	132.6218	175.6851	200.6078	233.8284	324.0598	356.3857	382.9923	416.5362	497.6916	510.3656	586.8892	637.6896	682.6546	732.8952	768.0432	776.3337	872.4634	909.8782	937.2101	994.4632	1065.8111	1074.2857	1104.703	1147.5506	1161.2368	1211.8996	1220.6573	1232.1461	1282.5177	1373.4012	1404.7088	1456.1946	1464.0255	1482.4154	1487.3829	1502.2474	1596.6555	1791.6657	3035.762	3068.634	3081.7443	3100.5537	3123.2993	3125.007	3148.7896	3592.2068	3730.0821
CC12CCC1(O2)C(N)=O	C[C@]12CC[C@]1(O2)C(=O)N	
InChI=1S/C6H9NO2/c1-5-2-3-6(5,9-5)4(7)8/h2-3H2,1H3,(H2,7,8)	InChI=1S/C6H9NO2/c1-5-2-3-6(5,9-5)4(7)8/h2-3H2,1H3,(H2,7,8)/t5-,6-/m0/s1
