22
gdb 118354	2.38464	1.05191	0.79034	3.6546	84.23	-0.2365	0.0293	0.2658	1519.4313	0.193341	-404.358887	-404.348739	-404.347794	-404.395112	36.459	
C	 0.3674385362	 1.8884826841	 0.3266494681	-0.380094
C	-0.0842669461	 0.4254456499	 0.3171360162	-0.170176
C	 0.8897919691	-0.4760384749	 1.0867964723	-0.162072
N	 0.5563434729	-1.8991564135	 1.0791703197	-0.050251
C	 1.3530274469	-2.7713032294	 0.3817602427	 0.148277
O	 1.2857437794	-3.9803113908	 0.386335308	-0.337084
C	-0.4136920002	-2.360277182	 2.0359052683	 0.038062
C	-1.8974101973	-2.1477684508	 1.8025190132	-0.273154
C	-1.3042441082	-3.5284462553	 1.7331160869	-0.265707
H	 1.353863886	 2.0050567166	-0.1360544763	 0.11779
H	-0.3342842076	 2.521650367	-0.2236242125	 0.119896
H	 0.4339701233	 2.2776292985	 1.3488070993	 0.118336
H	-1.0835946996	 0.3452388699	 0.755625449	 0.112984
H	-0.1618052327	 0.060327944	-0.7140602986	 0.102964
H	 1.8927793262	-0.3649021167	 0.6589899744	 0.111911
H	 0.9590409574	-0.1389273602	 2.1302104458	 0.106504
H	 2.0951606426	-2.2209613715	-0.2326418187	 0.066671
H	-0.0768801195	-2.260289484	 3.0671512074	 0.096976
H	-2.5081333955	-1.8718895091	 2.6551950783	 0.113061
H	-2.1962797433	-1.6934815985	 0.8656506769	 0.119487
H	-1.2011320281	-3.9925826447	 0.7625891695	 0.146415
H	-1.4941962019	-4.2241405885	 2.5422375901	 0.119203
44.1619	64.2105	89.3016	122.4473	209.0338	237.6491	262.0111	286.8403	324.5932	366.2685	431.0749	475.3729	716.6596	729.4734	754.0673	798.3953	832.5521	882.3234	903.6847	951.2535	965.2506	1031.2424	1042.4817	1061.5777	1078.1703	1108.9779	1127.214	1130.34	1149.9727	1195.1292	1204.3351	1249.2909	1271.5675	1325.9406	1333.3091	1393.7466	1410.4341	1420.2898	1434.1805	1450.8064	1465.9632	1485.6908	1494.6559	1501.9224	1504.36	1511.801	1800.7514	2913.7804	3010.75	3031.3357	3040.1753	3058.1463	3081.9753	3102.7573	3104.4308	3109.8725	3140.5981	3158.6061	3227.8569	3255.7835
CCCN(C=O)C1CC1	CCCN(C=O)C1CC1	
InChI=1S/C7H13NO/c1-2-5-8(6-9)7-3-4-7/h6-7H,2-5H2,1H3	InChI=1S/C7H13NO/c1-2-5-8(6-9)7-3-4-7/h6-7H,2-5H2,1H3
