21
gdb 33453	2.43703	1.30156	1.06202	0.6575	88.86	-0.2391	0.0542	0.2932	1249.8412	0.181911	-349.900249	-349.891226	-349.890282	-349.934014	35.051	
C	 0.2647068956	-1.1902358998	-0.0729532663	-0.47029
C	 0.1669924541	 0.0088792141	-0.0303825299	 0.267532
C	 0.0351086686	 1.4423408508	 0.0087728104	 0.15325
C	 0.4042900634	 2.1361844858	 1.3154159235	-0.299068
C	 1.3206349927	 2.2527609972	 0.133948612	-0.299068
C	-1.099049131	 2.0281165054	-0.8130850286	-0.01091
C	-1.2255062469	 1.6697307411	-2.3217872571	-0.238001
C	-2.7677607292	 1.6494122453	-2.1447237912	-0.209943
C	-2.549473828	 1.5012777545	-0.6147834484	-0.238001
H	 0.3576164543	-2.2473256933	-0.1050635235	 0.189882
H	-0.1913924776	 2.9982866649	 1.5959201317	 0.117397
H	 0.7126963542	 1.5098582612	 2.1437748887	 0.126412
H	 2.2557214223	 1.7061559499	 0.1543161044	 0.126412
H	 1.3578989557	 3.1953856087	-0.4015994461	 0.117397
H	-1.079802597	 3.1170665229	-0.6906955484	 0.062143
H	-0.7956975425	 2.3646188807	-3.0474925722	 0.091074
H	-0.832207038	 0.6677982884	-2.5155438488	 0.114285
H	-3.2199234429	 2.6122818007	-2.4004076092	 0.097876
H	-3.3243293548	 0.8597055917	-2.6543340122	 0.096263
H	-2.541180779	 0.4503570397	-0.3121445449	 0.114284
H	-3.205255614	 2.0580363801	 0.0591767662	 0.091074
70.622	106.0792	168.4491	169.224	228.3082	268.4579	366.0475	408.9183	545.9373	562.3514	573.5897	585.3426	647.9562	711.9598	776.1784	781.208	828.958	884.2574	899.9281	934.1751	935.3878	952.5429	963.5162	973.5016	1044.8779	1054.3584	1058.2705	1082.8081	1128.7152	1192.5314	1204.1134	1237.0233	1257.6114	1261.5144	1262.6356	1285.3802	1288.6181	1319.9901	1392.3319	1465.8419	1475.6933	1485.9481	1494.3246	1509.3182	2228.1585	3036.5418	3054.5941	3056.3593	3061.9355	3099.1886	3110.6584	3121.9645	3135.9855	3140.101	3221.1518	3235.5212	3502.9098
C#CC1(CC1)C1CCC1	C#CC1(CC1)C1CCC1	
InChI=1S/C9H12/c1-2-9(6-7-9)8-4-3-5-8/h1,8H,3-7H2	InChI=1S/C9H12/c1-2-9(6-7-9)8-4-3-5-8/h1,8H,3-7H2
