18
gdb 15581	3.22579	1.77601	1.26115	1.0645	72.74	-0.253	0.0486	0.3016	977.3887	0.153844	-347.776323	-347.768206	-347.767261	-347.809322	30.326	
C	-0.07102492	 1.6027924058	-0.1138006771	-0.403352
C	 0.0491195188	 0.0835051746	-0.0100481754	-0.010755
C	 0.8343627382	-0.5393482831	-1.1936134599	-0.086189
O	 1.6169353587	-1.596751712	-0.6627739822	-0.237429
C	 2.078452578	-1.1333966289	 0.5884108609	-0.097393
C	 0.8410439015	-0.4607960065	 1.2400453971	-0.188675
C	 1.1844714948	 0.5118637213	 2.2629226275	 0.331638
C	 1.4903344291	 1.3053456244	 3.113371111	-0.477694
H	 0.9136116474	 2.081036772	-0.1170268464	 0.123902
H	-0.5841353381	 1.8806812535	-1.0409315085	 0.111592
H	-0.6370836032	 2.0173188969	 0.724189767	 0.126939
H	-0.9562261426	-0.3461683237	 0.020663159	 0.085932
H	 0.1913621305	-0.9551031768	-1.9733943664	 0.110236
H	 1.4849089487	 0.2246909715	-1.651614723	 0.088445
H	 2.458097611	-1.9848049226	 1.156906995	 0.11779
H	 2.8875854157	-0.3950573656	 0.470172611	 0.097911
H	 0.2395076377	-1.2509556394	 1.7019374595	 0.111147
H	 1.7560448037	 2.0038596988	 3.8676237706	 0.195956
33.8091	150.0587	187.9115	232.8711	288.365	330.9619	394.5344	494.0846	517.9448	615.6141	632.1339	635.3842	642.4101	767.8855	896.2433	941.1622	960.2587	988.5984	1025.0163	1054.274	1097.5945	1124.5661	1126.0611	1157.3737	1226.7911	1266.3568	1303.4734	1308.3917	1329.6756	1349.1769	1373.6362	1398.9915	1417.533	1491.8544	1495.8945	1505.513	1520.4422	2233.3758	2963.7684	2980.8177	3036.2348	3039.5743	3060.4698	3095.035	3102.7826	3110.5364	3120.1348	3503.9918
CC1COCC1C#C	C[C@H]1COC[C@H]1C#C	
InChI=1S/C7H10O/c1-3-7-5-8-4-6(7)2/h1,6-7H,4-5H2,2H3	InChI=1S/C7H10O/c1-3-7-5-8-4-6(7)2/h1,6-7H,4-5H2,2H3/t6-,7+/m0/s1
