13
gdb 10583	2.73386	1.91074	1.34644	3.7737	65.85	-0.2683	-0.0026	0.2657	899.61	0.09314	-361.417376	-361.409353	-361.408409	-361.449553	29.189	
O	 0.0739149002	 1.3685843366	-0.0368335046	-0.410649
C	 0.0455137332	-0.0057736927	 0.0402845756	 0.130271
C	-0.3842177632	-0.7394524445	 1.2610014897	-0.340768
C	-1.3213102675	-0.7519194373	 0.0282986603	-0.045471
C	-2.4820998788	 0.0902918728	 0.0707797796	 0.219407
C	-3.3965044389	 0.8716218978	 0.1059857164	-0.406332
C	-1.4189854926	-1.969252156	-0.733605075	 0.235504
N	-1.4656198494	-2.9520745107	-1.3416539484	-0.337135
H	-0.8199251097	 1.7104942962	 0.1064753112	 0.295314
H	 0.8173477899	-0.4571783692	-0.5740607514	 0.144303
H	 0.0987642215	-1.678851754	 1.503763825	 0.152624
H	-0.7451922845	-0.1633626595	 2.1049338525	 0.147266
H	-4.2339571801	 1.5248200206	 0.1407886192	 0.215667
127.9005	137.2529	164.8492	203.5867	245.4079	370.0036	411.4121	477.684	513.1124	584.0533	597.3057	611.1584	647.6938	698.4	781.131	862.3859	941.4174	1013.6006	1060.7123	1100.9159	1150.4646	1243.5944	1283.6947	1362.6956	1430.1735	1470.2524	2232.8622	2354.3021	3146.4846	3180.3644	3245.9173	3496.6661	3736.2184
OC1CC1(C#C)C#N	O[C@H]1C[C@]1(C#C)C#N	
InChI=1S/C6H5NO/c1-2-6(4-7)3-5(6)8/h1,5,8H,3H2	InChI=1S/C6H5NO/c1-2-6(4-7)3-5(6)8/h1,5,8H,3H2/t5-,6+/m0/s1
