18
gdb 53705	11.66832	0.43243	0.42136	4.8262	83.36	-0.2549	0.0083	0.2632	2479.4854	0.144605	-401.924747	-401.913875	-401.912931	-401.965484	35.258	
C	 0.0521215531	 1.4527776962	 0.0087446927	-0.496783
C	 0.0229558848	-0.0030383518	 0.0013986667	 0.083444
C	 0.0155968147	-1.2068539025	-0.0046319582	 0.030403
C	-0.0308348753	-2.6637551955	-0.0112947496	-0.352928
C	-1.4686221912	-3.1886668233	-0.0008946978	-0.046418
O	-1.4047177053	-4.6054503769	-0.0082086569	-0.234977
C	-2.6757647141	-5.2017132949	 0.0004572055	-0.185144
C	-2.5257595682	-6.6602212108	-0.0078608963	 0.264526
N	-2.4417661076	-7.8114855675	-0.0136909128	-0.290886
H	 1.0815899383	 1.8274234011	 0.0016943492	 0.151518
H	-0.4563672958	 1.8666898658	-0.8689721519	 0.148478
H	-0.4409290489	 1.8574678882	 0.8994721841	 0.148482
H	 0.4783304794	-3.0641073572	-0.8962120213	 0.14194
H	 0.4941297842	-3.0726541013	 0.8603946148	 0.14195
H	-1.9994270547	-2.8297964492	 0.8942963594	 0.10704
H	-2.0153835115	-2.8213305795	-0.8829605656	 0.107041
H	-3.2547180542	-4.9139859959	 0.8937699272	 0.141165
H	-3.2706781877	-4.9056946748	-0.8795388189	 0.141148
2.5361	33.6523	60.0188	100.3755	115.797	129.6192	223.3383	251.3726	322.3501	370.9754	386.3126	393.409	498.9968	579.4444	781.1569	799.2058	947.3438	1023.1215	1032.7928	1053.121	1054.3999	1078.4686	1089.2959	1153.0095	1171.9404	1227.2019	1256.8609	1303.4985	1313.8427	1386.6724	1415.4796	1443.3619	1478.1769	1478.9991	1479.4381	1494.7821	1525.8352	2374.7967	2377.253	2967.8015	2981.4826	2992.9	3015.2679	3027.8209	3032.6561	3070.0777	3088.4238	3089.44
CC#CCCOCC#N	CC#CCCOCC#N	
InChI=1S/C7H9NO/c1-2-3-4-6-9-7-5-8/h4,6-7H2,1H3	InChI=1S/C7H9NO/c1-2-3-4-6-9-7-5-8/h4,6-7H2,1H3
