22
gdb 12569	2.85505	1.72938	1.18993	1.4605	77.2	-0.2568	0.0741	0.331	1071.3718	0.202835	-350.221917	-350.21366	-350.212716	-350.254312	32.265	
O	-0.1693281905	 1.5006413728	 0.134476261	-0.443525
C	 0.0020479251	 0.0884287265	 0.0036978023	 0.137627
C	 0.8157626994	-0.4698754171	 1.1838666717	-0.209974
C	 1.5206915313	-1.8226583372	 0.9583621988	-0.199812
C	 0.7455704517	-2.897940166	 0.1684778672	-0.180537
C	-0.7727169921	-2.9582855336	 0.4081915351	-0.183451
C	-1.5654766384	-1.9492970211	-0.4395764311	-0.200078
C	-1.4225758659	-0.4720254389	-0.0550325463	-0.17142
H	 0.7016967206	 1.8959927157	 0.2389289378	 0.274888
H	 0.5251435298	-0.1346993705	-0.943053745	 0.056399
H	 1.5856850311	 0.266359793	 1.4510639749	 0.077344
H	 0.1503413206	-0.5264690346	 2.0539187459	 0.101233
H	 2.4747246611	-1.6488576618	 0.4455783231	 0.093972
H	 1.7854652404	-2.2236402343	 1.944139934	 0.096903
H	 0.9107299711	-2.7514753177	-0.9068559487	 0.093841
H	 1.1926121092	-3.8710305028	 0.4023864136	 0.090598
H	-1.1258724538	-3.9641109648	 0.1518926426	 0.091123
H	-0.9994021767	-2.8223131997	 1.4744416245	 0.090929
H	-1.2715193019	-2.0815421802	-1.4903146965	 0.092529
H	-2.6313765666	-2.2028038203	-0.3936882824	 0.09264
H	-1.8827870375	-0.2958546952	 0.9261558415	 0.096837
H	-1.9843483981	 0.1384035279	-0.7705468543	 0.101933
93.1641	145.3134	192.3836	289.8727	295.7705	319.2094	361.6594	391.5036	457.3302	504.3902	553.0568	736.8148	773.3163	843.3409	859.9269	866.2339	901.322	960.9872	1017.4423	1019.3092	1039.646	1062.9641	1067.2885	1115.1148	1137.0278	1193.639	1217.646	1224.533	1238.9197	1288.9693	1305.5715	1309.5015	1341.2765	1363.3437	1375.8367	1383.1249	1388.3886	1400.2035	1406.7255	1434.8696	1479.5141	1482.3835	1487.819	1493.0997	1500.3265	1508.6284	2940.9188	3007.8293	3008.9281	3013.9491	3016.8041	3022.6471	3026.9587	3040.6224	3051.5886	3055.6147	3058.8947	3068.5955	3074.4093	3817.9581
OC1CCCCCC1	OC1CCCCCC1	
InChI=1S/C7H14O/c8-7-5-3-1-2-4-6-7/h7-8H,1-6H2	InChI=1S/C7H14O/c8-7-5-3-1-2-4-6-7/h7-8H,1-6H2
