17
gdb 39170	3.31675	1.59602	1.17777	1.0674	74.78	-0.211	0.0273	0.2383	1023.7071	0.138639	-421.836681	-421.829656	-421.828712	-421.86832	27.486	
C	 0.3644020209	 1.4530439244	-0.0847358866	-0.37949
C	 1.1163873464	 1.1807331089	 1.2003254063	-0.150117
C	 1.3436283002	-0.0529468743	 1.6599661283	 0.076418
O	 0.896262643	-1.2214368078	 1.118123852	-0.248917
C	-0.1598409164	-1.0462281097	 0.1490362731	 0.017391
C	-0.1930372552	-2.2115397301	-0.8501934083	-0.109575
O	 0.1736286327	-1.6708198202	-2.1407498257	-0.233172
C	 0.3270971486	-0.3265271071	-1.9729745563	-0.038842
C	 0.1158652985	 0.1342262946	-0.7412557131	 0.174656
H	-0.5729486924	 1.9923434295	 0.1260079249	 0.110943
H	 0.9494192244	 2.112352797	-0.7378690633	 0.114993
H	 1.5256492341	 2.0161442045	 1.7571085053	 0.090583
H	 1.9363003526	-0.2461128451	 2.5484622368	 0.107946
H	-1.0915031871	-0.9536288862	 0.7229286896	 0.085778
H	 0.5209317063	-2.9923140331	-0.5762341882	 0.132829
H	-1.1926221589	-2.6453601943	-0.9412358639	 0.118552
H	 0.6171551524	 0.2013497291	-2.8723068908	 0.130024
93.5033	138.6057	288.6253	340.2347	373.6031	445.2689	483.2519	581.94	640.5281	743.5672	771.2455	826.6313	877.7041	902.4232	931.1322	936.12	947.5397	951.6236	989.7554	1040.6121	1071.8493	1088.4958	1142.7248	1180.1993	1222.4897	1231.3634	1269.5386	1291.1735	1315.0055	1331.0917	1374.2031	1398.9766	1413.3331	1477.3652	1496.1945	1708.4046	1736.6921	2970.868	3008.8555	3040.1748	3062.452	3115.3186	3178.2887	3200.61	3225.8374
C1C2C3OC4COC2C134	C1C=CO[C@@H]2COC=C12	
InChI=1S/C7H8O2/c1-3-5-7(1)4(2-8-5)9-6(3)7/h3-6H,1-2H2	InChI=1S/C7H8O2/c1-2-6-4-8-5-7(6)9-3-1/h1,3-4,7H,2,5H2/t7-/m1/s1
