15
gdb 76611	2.94297	1.1316	1.06804	1.154	65.57	-0.2578	-0.1024	0.1554	1156.9625	0.109887	-494.892554	-494.883916	-494.882972	-494.926285	31.291	
O	 0.0709435619	 1.4519170731	 0.4513696678	-0.434801
C	-0.0620260591	 0.1493888495	-0.0120300506	 0.047206
C	-0.4425332912	-0.8718150101	 0.9895669044	 0.100621
O	-0.6492371904	-0.4705429391	 2.2824061819	-0.396792
C	-1.4690111485	-0.4629040028	-0.1495222671	-0.275231
C	-2.6212284743	 0.344805441	 0.2057252538	 0.325438
O	-2.5886536064	 1.3619145316	 0.8933493842	-0.368557
C	-3.98894461	-0.1037352057	-0.3178342446	 0.10672
O	-4.1524876535	-1.0505821902	-1.0402590554	-0.221075
H	-0.8236993994	 1.7955489	 0.6391704672	 0.316534
H	 0.646124161	-0.0940086385	-0.79873399	 0.126309
H	-0.0984650811	-1.8971548121	 0.9009940518	 0.131532
H	-0.3546341421	 0.4522541072	 2.3357341209	 0.299023
H	-1.6377488216	-1.2111804456	-0.9135552929	 0.131085
H	-4.8129303052	 0.5502341819	 0.0357787384	 0.111989
66.0407	128.0292	147.2016	186.0099	221.7466	278.2482	386.211	397.4782	446.2801	565.8779	629.3097	656.0145	667.899	688.4171	715.7367	798.5068	879.4015	936.883	1004.4703	1038.0103	1066.0743	1107.0618	1160.3337	1168.462	1241.887	1345.1146	1356.6243	1365.1726	1416.358	1429.6061	1476.4954	1719.9973	1825.3374	2934.6428	3154.1918	3170.5732	3203.0719	3551.2064	3704.8052
OC1C(O)C1C(=O)C=O	O[C@H]1[C@@H](O)[C@H]1C(=O)C=O	
InChI=1S/C5H6O4/c6-1-2(7)3-4(8)5(3)9/h1,3-5,8-9H	InChI=1S/C5H6O4/c6-1-2(7)3-4(8)5(3)9/h1,3-5,8-9H/t3-,4+,5-
