19
gdb 113612	3.44374	0.67148	0.59349	4.6458	91.75	-0.258	-0.0542	0.2037	1869.8186	0.157135	-385.864503	-385.854501	-385.853557	-385.900865	34.805	
C	-0.2672386374	 1.5754327089	 0.253179414	-0.376163
C	 0.2492293573	 0.1656919186	-0.0572111841	-0.20257
C	 0.8496885548	-0.5063144921	 1.1584568048	 0.021289
C	-0.0038505372	-1.2470694258	 2.1358630276	-0.283123
C	 0.9722360097	-2.031744336	 1.2557949027	-0.220505
C	 0.474777203	-2.8745444764	 0.2207276923	 0.141045
C	 0.0757131488	-3.6090864452	-0.6558776292	 0.00065
C	-0.4334989748	-4.4528333956	-1.6982881902	 0.015638
O	 0.0477939465	-5.5144916271	-2.0289439337	-0.238219
H	 0.5389054859	 2.223030418	 0.6148701747	 0.116985
H	-0.6932598383	 2.0422776067	-0.6398238648	 0.117883
H	-1.043687622	 1.5505229904	 1.0246921765	 0.119871
H	-0.5659121311	-0.4535822902	-0.4473388064	 0.108237
H	 1.0029334752	 0.2144304476	-0.8528319724	 0.108192
H	 1.7059896391	 0.0133602622	 1.5819972903	 0.098224
H	 0.2256437112	-1.2001069843	 3.1942141498	 0.126608
H	-1.0569828996	-1.3600848953	 1.9031708719	 0.131429
H	 1.8645780321	-2.4005104071	 1.752357094	 0.123544
H	-1.3366187835	-4.0494211072	-2.2022770477	 0.090986
48.9807	65.4741	92.7166	119.0151	161.0458	219.1241	233.4687	255.0745	376.0593	399.5035	502.0956	572.8427	632.2095	760.0515	772.1681	796.9394	851.1602	904.2318	926.2227	973.9125	1019.463	1022.5417	1071.4475	1078.2609	1104.5085	1136.5953	1186.8674	1200.6077	1247.0086	1293.8355	1346.078	1387.9278	1410.4773	1422.085	1424.8561	1480.3381	1491.9742	1498.9494	1508.236	1758.8721	2308.3921	2904.6183	3032.0197	3034.597	3068.8656	3102.8851	3109.4607	3136.3822	3139.5843	3154.4063	3229.7587
CCC1CC1C#CC=O	CC[C@H]1C[C@H]1C#CC=O	
InChI=1S/C8H10O/c1-2-7-6-8(7)4-3-5-9/h5,7-8H,2,6H2,1H3	InChI=1S/C8H10O/c1-2-7-6-8(7)4-3-5-9/h5,7-8H,2,6H2,1H3/t7-,8+/m0/s1
