19
gdb 114651	2.86351	1.27706	1.12415	1.9327	74.92	-0.2329	-0.0027	0.2302	1148.7504	0.160435	-423.02473	-423.016618	-423.015673	-423.057568	31.23	
O	-0.121779297	 1.4149836971	-0.0858938193	-0.42218
C	 0.01053074	 0.0098104736	 0.0734451249	-0.108426
C	-1.386393297	-0.5903545793	 0.0147304866	 0.029551
C	-2.0927501217	-0.4212049669	-1.3827235666	-0.230821
C	-2.3599064881	-1.9014478084	-1.7358786766	-0.137754
C	-2.8623917232	-2.4606751589	-0.361453728	-0.254218
C	-1.4133503714	-2.1331376278	 0.1336257587	-0.159511
C	-1.0273447181	-2.5416254862	-1.3042013961	 0.439536
O	-0.1722643602	-3.2003120193	-1.8175886572	-0.333118
H	 0.7587215715	 1.8005662938	-0.1095554427	 0.289292
H	 0.6379291598	-0.4256654635	-0.7209686247	 0.099977
H	 0.4826363031	-0.2398112766	 1.0374695407	 0.088028
H	-1.9844305229	-0.1350824749	 0.8102991392	 0.084842
H	-3.0208627214	 0.1507224417	-1.3100363829	 0.108271
H	-1.4466617841	 0.0804884354	-2.1073265496	 0.118132
H	-2.8402164586	-2.136115674	-2.6833818308	 0.08275
H	-3.6716433378	-1.9044676781	 0.1178117925	 0.107793
H	-3.081367355	-3.5295820418	-0.3786124916	 0.116983
H	-0.9703314977	-2.595844976	 1.0136640536	 0.080872
89.2215	126.4459	174.2605	216.3501	268.3335	394.0098	410.3792	436.4165	485.0265	623.7595	643.7099	778.6269	813.3659	834.7595	843.0418	911.7468	938.8563	965.796	997.0351	1006.6854	1027.7896	1034.8386	1076.7132	1093.4398	1099.3539	1137.5786	1165.4407	1197.9792	1220.2182	1238.2172	1247.3196	1251.2229	1277.5213	1314.2945	1318.796	1370.0944	1463.0843	1492.4882	1505.3582	1523.2595	1897.1784	2964.8453	2994.3951	3055.4175	3066.494	3067.9449	3111.5829	3134.7361	3139.4632	3146.3929	3831.4181
OCC1CC2CC1C2=O	OC[C@H]1C[C@@H]2C[C@H]1C2=O	
InChI=1S/C7H10O2/c8-3-5-1-4-2-6(5)7(4)9/h4-6,8H,1-3H2	InChI=1S/C7H10O2/c8-3-5-1-4-2-6(5)7(4)9/h4-6,8H,1-3H2/t4-,5-,6-/m1/s1
