17
gdb 6270	3.339	1.1787	1.07566	2.3846	67.37	-0.2494	-0.0744	0.175	1175.3943	0.140048	-401.046992	-401.037786	-401.036842	-401.082232	31.904	
C	 0.0130051203	 1.7014923543	 0.0545915856	-0.382777
C	-0.0856551003	 0.1732009827	-0.015500276	 0.043766
C	 0.4032480822	-0.4964829714	 1.2739709103	-0.382844
N	-1.4527105867	-0.238526284	-0.319851795	-0.30593
C	-1.8112518176	-0.9154182288	-1.4301518171	 0.302637
O	-1.0831413256	-1.2860959801	-2.3357266725	-0.365051
C	-3.3134371506	-1.2140159727	-1.4874697392	 0.101933
O	-4.0955595361	-0.8808213958	-0.6343964819	-0.249223
H	 1.0459500598	 2.0093829377	 0.2428602047	 0.123674
H	-0.3176959347	 2.1576632014	-0.8822419858	 0.129254
H	-0.607001476	 2.0984758983	 0.8669407715	 0.11473
H	 0.5098035792	-0.1886754177	-0.8584721954	 0.126171
H	-0.2018817146	-0.1837657495	 2.1330042882	 0.114738
H	 0.346971534	-1.5853347115	 1.1942959175	 0.129219
H	 1.4414516811	-0.2184074985	 1.4789494116	 0.123696
H	-2.2025268121	-0.0167968469	 0.3222609614	 0.259059
H	-3.6023241824	-1.7706509376	-2.400722768	 0.116949
20.5373	76.3022	144.5852	173.5561	224.5299	247.3063	261.4971	369.2808	418.628	442.7429	518.3659	574.8094	649.4075	675.2708	864.5329	906.9464	933.4887	949.9847	1025.591	1030.4677	1144.7113	1182.3418	1190.0656	1254.0589	1361.9281	1361.9418	1378.3847	1400.2409	1419.8985	1483.6288	1488.3274	1496.9221	1506.3204	1553.7555	1781.5965	1822.2607	2956.3511	3031.0967	3034.8338	3079.1417	3098.3777	3111.0361	3119.987	3122.7381	3586.2283
CC(C)NC(=O)C=O	CC(C)NC(=O)C=O	
InChI=1S/C5H9NO2/c1-4(2)6-5(8)3-7/h3-4H,1-2H3,(H,6,8)	InChI=1S/C5H9NO2/c1-4(2)6-5(8)3-7/h3-4H,1-2H3,(H,6,8)
