16
gdb 67121	2.8274	1.67076	1.38959	4.6299	77.86	-0.2358	-0.0826	0.1532	965.3537	0.123792	-400.641199	-400.633894	-400.63295	-400.672736	28.812	
C	-0.0509456294	 1.6408867951	-0.2201355939	-0.513607
C	-0.0183030827	 0.1592457653	-0.001034402	 0.254107
C	 0.5122007314	-1.006250312	-0.7280253666	-0.077232
N	 1.3792532808	-1.5195553129	 0.4449888291	-0.348382
C	 0.4362222734	-0.6759165209	 1.2049106832	 0.056416
C	-0.5743752166	-1.2821232226	 1.8657723018	-0.226555
C	-1.6941994514	-1.3778810635	 0.8517599617	 0.393188
O	-2.763280967	-1.9209308199	 0.9622681132	-0.328891
C	-1.0452717668	-0.8797671759	-0.4284874087	-0.198159
H	 0.9390989847	 2.0877263153	-0.0798681153	 0.128817
H	-0.3843649805	 1.8715332954	-1.2363188968	 0.132687
H	-0.7418513001	 2.1223649164	 0.4793895149	 0.141501
H	 0.8648298808	-1.1369801566	-1.7479664515	 0.116066
H	 2.2621343126	-1.023666443	 0.2860951819	 0.233191
H	-0.435452404	-2.1158438121	 2.5455622324	 0.13277
H	-1.6535607454	-0.7335236681	-1.3182542535	 0.104084
118.9009	197.5568	208.5267	254.4651	425.9257	431.679	449.4535	584.7816	591.7984	629.7751	698.0406	734.5456	776.5255	809.9062	862.7687	880.9662	927.6201	963.4131	970.2913	994.3524	1038.9162	1076.1108	1094.5589	1130.4105	1171.6004	1197.4611	1237.383	1249.7797	1280.4514	1414.1682	1442.2663	1486.4341	1495.967	1572.7988	1808.6664	3033.809	3098.6304	3111.087	3146.9504	3155.5154	3196.3622	3387.575
CC12C3NC1=CC(=O)C23	C[C@@]12[C@H]3N[C]1[CH]C(=O)[C@@H]23	
InChI=1S/C7H7NO/c1-7-4-2-3(9)5(7)6(7)8-4/h2,5-6,8H,1H3	InChI=1S/C7H7NO/c1-7-4-2-3(9)5(7)6(7)8-4/h2,5-6,8H,1H3/t5-,6+,7-/m1/s1
