15
gdb 34189	4.3333	1.4116	1.27554	1.7008	78.87	-0.2224	-0.0165	0.2059	980.1446	0.112258	-383.406992	-383.400144	-383.399199	-383.437949	28.03	
C	-0.0168848027	-1.1299207324	 0.0051871517	-0.370895
C	-0.0479378183	 0.0727014998	-0.0223961704	 0.161368
C	-0.0578423426	 1.4894664025	-0.0591043394	 0.354924
O	-1.1152390785	 2.2098744266	 0.5317648757	-0.331878
C	-0.7216537627	 3.4071766742	-0.2770936085	 0.022438
C	 0.1535336265	 4.2176852965	 0.6401255991	-0.102062
C	 1.2981011559	 3.5375260858	 0.8141194526	-0.05521
C	 1.3080728987	 2.3465515101	-0.0594640078	-0.172562
C	 0.2410582774	 2.5117251869	-1.1067506299	-0.221732
H	 0.0003676255	-2.1914412611	 0.03020665	 0.190564
H	-1.599555884	 3.8602955078	-0.7323556954	 0.090997
H	-0.1895106583	 5.0743496417	 1.2041979946	 0.108945
H	 2.0696797514	 3.7511894254	 1.5430627175	 0.109273
H	 2.2001284509	 1.7732647212	-0.2754270592	 0.103966
H	 0.3587487808	 2.4372577251	-2.1802160105	 0.111865
134.7624	154.1586	363.112	405.2909	457.148	492.2711	558.0416	574.0154	622.3488	656.2941	687.2411	715.0073	768.4913	806.699	830.2583	873.9104	894.4858	911.6215	936.6586	976.0573	994.0057	1031.9671	1052.7472	1121.0378	1127.5524	1213.1114	1250.7832	1270.3726	1290.1675	1361.2824	1398.7079	1620.3707	2233.7024	3144.1595	3193.0815	3204.0751	3213.8831	3235.1714	3501.5381
C#CC12OC3C=CC1C23	C#C[C@@]12O[C@H]3C=C[C@@H]1[C@@H]23	
InChI=1S/C8H6O/c1-2-8-5-3-4-6(9-8)7(5)8/h1,3-7H	InChI=1S/C8H6O/c1-2-8-5-3-4-6(9-8)7(5)8/h1,3-7H/t5-,6+,7-,8-/m1/s1
