18
gdb 53107	2.42081	1.14208	1.00189	1.2849	84.31	-0.2281	-0.0364	0.1917	1304.1983	0.144216	-401.89843	-401.888213	-401.887268	-401.934881	34.916	
C	-0.0187817531	 1.5372306329	-0.2672211673	-0.501195
C	-0.0309068495	 0.0851637103	-0.1876777168	 0.054736
C	-0.0482950343	-1.1163800288	-0.1016034903	 0.150232
C	-0.0499951451	-2.5501811292	-0.0645489964	-0.221824
C	-0.4123443754	-3.3232985074	 1.2091529509	-0.106908
C	-0.7105869166	-2.5862359424	 2.4667787635	 0.147519
O	-1.3938471626	-1.5953694142	 2.5761781471	-0.266851
N	-1.2673888468	-3.3368271722	 0.0206598346	-0.103141
C	-2.5689698892	-2.6684628238	 0.0288456641	-0.323672
H	 0.9965943425	 1.9315018874	-0.1505132605	 0.151904
H	-0.4026909105	 1.8869476668	-1.2319222072	 0.150999
H	-0.6405129295	 1.9764452002	 0.5202455323	 0.160565
H	 0.7242193661	-3.0193950441	-0.6703259065	 0.119638
H	 0.1184674539	-4.2595026886	 1.3757068428	 0.101568
H	-0.2251024964	-3.044297739	 3.358332727	 0.079395
H	-2.5864760852	-1.717613654	 0.5664448338	 0.157395
H	-2.860042117	-2.506645178	-1.0131259526	 0.125532
H	-3.2943413312	-3.3484387459	 0.4844481716	 0.124108
31.2159	73.8341	90.0781	130.9317	168.8088	211.0254	226.1784	262.9671	334.7878	372.3511	402.3424	492.8617	560.3	681.6287	763.8399	778.1199	856.6496	925.7769	981.4984	1025.647	1050.6079	1052.3625	1070.9454	1128.9573	1165.4029	1174.582	1203.698	1334.7941	1369.1792	1380.2623	1412.4984	1430.9579	1451.9389	1475.1345	1476.0403	1485.9274	1502.2003	1802.4829	2366.0881	2871.7707	3029.054	3042.2548	3089.8297	3094.6623	3108.0133	3114.1431	3121.0186	3127.9158
CC#CC1C(C=O)N1C	CC#C[C@H]1[C@@H](C=O)N1C	
InChI=1S/C7H9NO/c1-3-4-6-7(5-9)8(6)2/h5-7H,1-2H3	InChI=1S/C7H9NO/c1-3-4-6-7(5-9)8(6)2/h5-7H,1-2H3/t6-,7+,8?/m0/s1
