20
gdb 89218	2.99887	1.58926	1.25685	1.9561	77.43	-0.2294	0.0664	0.2958	1053.7536	0.172344	-403.121124	-403.113188	-403.112244	-403.153065	31.94	
C	-0.0280622772	 1.4490085311	 0.046541097	-0.48598
C	 0.0500902352	-0.0551593994	-0.0177709182	 0.355337
C	 0.0498105885	-0.7382552082	-1.3821192819	-0.351849
C	-0.7630725443	-2.0358079498	-1.1320970517	 0.137433
O	-0.2518724715	-3.2019271012	-1.7524688496	-0.43655
C	-0.6862375817	-2.1857435156	 0.3834413521	-0.004628
C	 0.7741486071	-2.2773436462	 0.8920506511	-0.257715
C	 0.6673865251	-0.7777618156	 1.1277035371	-0.071742
N	-0.8405425687	-0.7767872854	 0.9403328936	-0.195506
H	 0.8654767078	 1.9058699922	-0.3935098469	 0.116115
H	-0.9020633471	 1.8154822075	-0.5027947469	 0.119316
H	-0.1141758575	 1.7901708369	 1.0817593141	 0.128145
H	-0.4129219142	-0.0981014024	-2.1398636096	 0.09655
H	 1.0582887509	-0.9888395055	-1.727896325	 0.108286
H	-1.8133050975	-1.8726196336	-1.4177566719	 0.073596
H	-0.3524745871	-3.1066591651	-2.7041607773	 0.286596
H	-1.4018828309	-2.8937928192	 0.7995571504	 0.079628
H	 0.8417352644	-2.8264299948	 1.8331574572	 0.10933
H	 1.5326406677	-2.6531199945	 0.2002945358	 0.110338
H	 1.1290007111	-0.2340939313	 1.9481926607	 0.083299
120.4074	207.2142	245.4992	259.9792	288.9815	303.745	409.0136	451.6725	499.9406	574.7402	601.125	710.127	747.7926	836.7191	843.977	882.689	919.7605	940.0617	973.0826	988.4497	1015.3492	1037.9125	1061.8667	1069.0603	1102.2621	1124.0119	1144.9728	1176.8704	1201.0977	1223.036	1262.4154	1264.2725	1273.2854	1319.5636	1341.9129	1369.7951	1411.5097	1419.1696	1429.8788	1487.2264	1490.6424	1494.9761	1507.8338	2984.1897	3030.1759	3042.3263	3063.0716	3084.6102	3092.962	3113.1631	3115.4659	3123.1885	3139.1737	3828.115
CC12CC(O)C3CC1N23	C[C@@]12C[C@@H](O)[C@H]3C[C@@H]1N23	
InChI=1S/C7H11NO/c1-7-3-5(9)4-2-6(7)8(4)7/h4-6,9H,2-3H2,1H3	InChI=1S/C7H11NO/c1-7-3-5(9)4-2-6(7)8(4)7/h4-6,9H,2-3H2,1H3/t4-,5-,6+,7-,8?/m1/s1
