15
gdb 11820	4.0232	1.68496	1.31226	4.0634	64.37	-0.2484	0.0121	0.2605	928.301	0.118176	-399.789859	-399.782137	-399.781193	-399.822147	27.178	
C	-0.0333738156	 1.4151960368	 0.071658597	-0.342864
N	-0.0133086189	-0.0217927968	 0.0258025037	-0.095799
C	-1.0907676061	-1.0183203436	 0.0491025162	-0.256528
C	 0.0309823726	-2.0771201082	 0.0656460328	 0.286919
C	 0.1358401474	-3.3858152619	 0.7078104496	-0.254454
O	 0.0720378704	-3.2410109109	-0.7192124621	-0.251611
C	 1.0354846255	-0.9156259576	 0.0066428748	 0.355787
O	 2.2286394875	-0.7722502623	-0.022125245	-0.375491
H	 1.0034196305	 1.7600589689	 0.0579711763	 0.164589
H	-0.5585838157	 1.8382015716	-0.7931600967	 0.133222
H	-0.5173472096	 1.7829923751	 0.9850353052	 0.130203
H	-1.726016075	-0.9741049077	 0.9412669247	 0.115547
H	-1.7118665853	-1.0335476075	-0.853228219	 0.12564
H	 1.0984422973	-3.7092677042	 1.0988888025	 0.140349
H	-0.7440725849	-3.8285184419	 1.17161008	 0.124493
89.821	140.7847	166.8738	226.0623	244.6646	260.0898	375.3534	514.4544	552.1266	727.9687	788.6917	815.0343	875.5509	929.9887	957.6945	1039.5983	1080.7681	1121.7351	1127.5244	1142.3902	1164.8967	1171.5286	1227.7378	1288.3291	1413.211	1445.1774	1453.0428	1481.9592	1508.2206	1526.8223	1539.0536	1884.967	3014.715	3028.7274	3066.2582	3077.342	3090.6756	3128.74	3184.8043
CN1CC2(CO2)C1=O	CN1C[C@]2(CO2)C1=O	
InChI=1S/C5H7NO2/c1-6-2-5(3-8-5)4(6)7/h2-3H2,1H3	InChI=1S/C5H7NO2/c1-6-2-5(3-8-5)4(6)7/h2-3H2,1H3/t5-/m0/s1
