22
gdb 104039	3.17147	1.18341	1.13378	2.2776	81.53	-0.2373	0.0747	0.312	1216.0199	0.194492	-404.324809	-404.315856	-404.314912	-404.358262	34.994	
C	 0.1124446611	 1.3235132337	-0.1095140438	-0.247489
O	-0.0452789328	-0.075616938	-0.040203907	-0.285946
C	-1.3771073396	-0.5677315852	 0.0522878807	 0.422689
C	-2.0846130157	-0.0602185422	 1.3183828103	-0.43918
C	-2.2437478516	-0.2576814225	-1.2128295637	-0.267064
C	-3.0982971887	-1.5012002219	-1.4167787179	-0.044014
N	-2.3748245976	-2.5928235898	-2.1019006839	-0.327444
C	-2.5133719303	-2.6220907781	-0.6297732495	-0.044145
C	-1.2737040021	-2.1179547548	 0.092455327	-0.261709
H	 1.175304833	 1.5094140589	-0.2848393267	 0.125311
H	-0.4580721446	 1.768965202	-0.9373666811	 0.104943
H	-0.176871102	 1.8311427494	 0.8216773858	 0.104263
H	-2.2730548737	 1.0170139257	 1.2825841895	 0.112024
H	-3.0535112502	-0.5580247633	 1.4285194875	 0.117896
H	-1.4820364063	-0.2801243982	 2.2051585922	 0.119067
H	-2.8561258623	 0.639118929	-1.0812306561	 0.09013
H	-1.590274601	-0.105575268	-2.0769382258	 0.116831
H	-4.1676817633	-1.4064215206	-1.5759600665	 0.081874
H	-3.0518027974	-3.2331824434	-2.5121194404	 0.226168
H	-3.131924143	-3.3929046301	-0.1816357379	 0.082633
H	-0.3674673262	-2.4261385076	-0.4347226431	 0.121004
H	-1.2135200157	-2.484580505	 1.1210042405	 0.092159
74.7383	103.0083	199.7795	235.5359	284.1067	304.7206	314.1062	377.6354	423.8894	449.7333	486.4628	594.143	680.226	750.6137	779.418	849.8467	893.9201	909.7022	916.2723	925.7683	958.4757	970.3024	988.7056	1066.5123	1101.608	1115.1582	1120.5282	1167.14	1182.1761	1187.3851	1195.1564	1214.1303	1240.2475	1253.557	1290.75	1292.6786	1340.4711	1369.0295	1398.989	1421.9101	1472.173	1477.9641	1479.9792	1489.5245	1495.4636	1508.513	1512.501	2988.6892	3032.2361	3038.9856	3051.1738	3060.9968	3099.0055	3103.9414	3107.67	3110.3931	3112.416	3153.5135	3164.3237	3484.1502
COC1(C)CC2NC2C1	CO[C@@]1(C)C[C@H]2N[C@H]2C1	
InChI=1S/C7H13NO/c1-7(9-2)3-5-6(4-7)8-5/h5-6,8H,3-4H2,1-2H3	InChI=1S/C7H13NO/c1-7(9-2)3-5-6(4-7)8-5/h5-6,8H,3-4H2,1-2H3/t5-,6+,7+
