20
gdb 120307	3.03476	1.18336	1.00775	0.8783	75.73	-0.2097	0.074	0.2837	1253.441	0.169408	-440.213326	-440.203824	-440.20288	-440.248262	34.927	
C	-0.5697232312	 0.7529641343	-0.9813085295	-0.367375
C	 0.2457904014	 0.0213445918	 0.0809915594	-0.052501
O	 1.3396704744	-0.72805504	-0.4390382236	-0.249716
C	 0.9941734825	-1.9048038689	-1.0881777047	 0.067572
C	 0.6131944186	-2.0183765915	-2.5510538852	-0.139432
N	 1.274306695	-0.9432103978	-3.3130590117	-0.318979
C	 2.6189737161	-1.4958783254	-2.9158353839	-0.23185
C	 1.954328019	-2.5553221613	-2.025649469	 0.287079
O	 2.4408793498	-3.8416058301	-1.8764371639	-0.459246
H	 0.0872720786	 1.343748929	-1.6233991347	 0.138878
H	-1.1220948551	 0.0568629554	-1.6170808988	 0.121597
H	-1.2923606449	 1.4187087612	-0.4968148775	 0.103958
H	 0.7021201159	 0.741416137	 0.7679078959	 0.104812
H	-0.4040839639	-0.6372855713	 0.6797781765	 0.083501
H	 0.4534137221	-2.6279786758	-0.4698171445	 0.08333
H	-0.2990163821	-2.497740895	-2.8886037972	 0.094252
H	 1.1317410018	-1.0939670486	-4.3069691137	 0.222821
H	 3.1452020656	-1.9659346909	-3.7510947936	 0.108641
H	 3.2673391065	-0.7649472736	-2.4246194231	 0.114137
H	 2.8291625998	-3.9198028683	-0.9978367572	 0.288521
37.0208	89.3548	154.1038	184.7553	211.6768	238.8361	281.868	298.676	386.071	425.7841	517.5082	615.2036	635.5052	777.3725	803.0492	827.3669	861.8709	883.5965	926.0922	952.7026	989.8909	1015.141	1026.3863	1056.6077	1097.5283	1106.2457	1147.0845	1152.5586	1207.2665	1220.1046	1252.4567	1275.7252	1325.8646	1334.9921	1356.5932	1367.886	1398.5069	1416.91	1478.121	1481.0149	1487.3776	1497.7678	1513.878	2976.5242	3044.132	3052.6901	3063.2488	3070.505	3109.0651	3116.4925	3138.1546	3175.1946	3511.0788	3790.132
CCOC1C2NCC12O	CCO[C@H]1[C@H]2NC[C@@]12O	
InChI=1S/C6H11NO2/c1-2-9-5-4-6(5,8)3-7-4/h4-5,7-8H,2-3H2,1H3	InChI=1S/C6H11NO2/c1-2-9-5-4-6(5,8)3-7-4/h4-5,7-8H,2-3H2,1H3/t4-,5+,6+/m1/s1
