17
gdb 10352	2.75986	1.65371	1.10022	5.3816	61.09	-0.2481	0.0236	0.2717	1049.1541	0.142009	-438.16484	-438.155998	-438.155054	-438.198565	32.173	
N	 0.0392325394	 1.2719795851	 0.1959167434	-0.517234
C	 0.0683149344	-0.0512366993	-0.0827315936	 0.414113
O	 1.0956951103	-0.6222661085	-0.4332578097	-0.394489
C	-1.2742416426	-0.7929014535	 0.0464396465	-0.121587
C	-1.0361715439	-2.3173697843	 0.0679428651	-0.063976
O	-0.4193993355	-2.7854223386	-1.1043776202	-0.427611
C	-2.1081712206	-0.3567383977	 1.2545998032	-0.113422
O	-2.5934483064	 0.9722867708	 1.0410997627	-0.418607
H	 0.890427562	 1.799737591	 0.0925253977	 0.257473
H	-0.8212749904	 1.7128084635	 0.4869567339	 0.271602
H	-1.8544586136	-0.5596616783	-0.8564662605	 0.123399
H	-0.4538901994	-2.5771642881	 0.9682437025	 0.086435
H	-2.0036460699	-2.8262789456	 0.1476824854	 0.097932
H	 0.4150161763	-2.2916479441	-1.1487143736	 0.295905
H	-2.9532742497	-1.0497022959	 1.370484658	 0.107766
H	-1.5041754484	-0.4077737357	 2.1723320906	 0.106268
H	-3.062525622	 1.2540489993	 1.8323801186	 0.296032
44.2512	122.5212	162.2157	239.6013	263.5941	295.9701	314.8194	375.8194	406.7047	421.7279	523.935	592.968	650.3306	672.0267	737.8507	786.1012	924.6977	1027.1768	1050.5133	1076.4113	1098.194	1108.297	1148.3279	1215.823	1234.7125	1257.7136	1289.3524	1333.3568	1395.5845	1399.102	1451.8789	1475.7796	1503.7383	1518.8614	1619.656	1755.4553	2960.2435	2991.0158	3023.5359	3037.4004	3058.2895	3549.763	3684.8874	3705.9142	3828.5176
NC(=O)C(CO)CO	NC(=O)C(CO)CO	
InChI=1S/C4H9NO3/c5-4(8)3(1-6)2-7/h3,6-7H,1-2H2,(H2,5,8)	InChI=1S/C4H9NO3/c5-4(8)3(1-6)2-7/h3,6-7H,1-2H2,(H2,5,8)
