14
gdb 25352	6.98642	0.87028	0.77388	1.7789	85.77	-0.2262	-0.0534	0.1728	1366.2885	0.101412	-399.577595	-399.569808	-399.568864	-399.610003	29.079	
O	 0.0566755807	-0.0932890964	-0.0019135987	-0.314633
C	-0.0055869661	 1.1225653782	 0.0086245629	 0.072351
C	 1.1612013617	 1.9777897864	 0.0032322653	 0.251104
C	 1.3136140755	 3.3546131384	 0.0127863024	-0.352628
C	 2.7067171284	 3.6329038081	 0.0006361594	 0.152853
C	 3.358554539	 2.3968241221	-0.0166193297	-0.158219
N	 2.4229098655	 1.4233791318	-0.0148894628	-0.283389
C	 3.3295439784	 4.9029407729	 0.0046742531	 0.232905
C	 3.8505880432	 5.9886472319	 0.0082169887	-0.429005
H	-0.9765574176	 1.6582317623	 0.0234225705	 0.084005
H	 0.5183504899	 4.0835544399	 0.0271288473	 0.124081
H	 4.4141100771	 2.1775540578	-0.0295947794	 0.146624
H	 2.5685637662	 0.4259618451	-0.0247744447	 0.284866
H	 4.3113619979	 6.9449962913	 0.0113004157	 0.189086
93.3748	126.0983	206.5187	214.2743	304.9023	435.4315	466.2515	538.3601	555.2386	619.3537	630.3516	658.5878	658.7348	675.8222	779.3365	802.4628	853.5725	984.3348	1000.722	1027.3637	1136.5505	1163.5327	1252.7588	1349.6403	1391.1444	1397.3362	1464.4063	1520.7021	1598.4579	1758.5547	2235.0509	2926.0112	3261.4083	3270.2052	3504.9018	3653.0891
O=CC1=CC(=CN1)C#C	O=Cc1cc(c[nH]1)C#C	
InChI=1S/C7H5NO/c1-2-6-3-7(5-9)8-4-6/h1,3-5,8H	InChI=1S/C7H5NO/c1-2-6-3-7(5-9)8-4-6/h1,3-5,8H
