18
gdb 91590	3.03618	1.17251	0.98885	3.4095	74.71	-0.2545	0.0246	0.2791	1232.4064	0.14656	-439.043784	-439.034961	-439.034017	-439.078001	32.479	
O	 0.0587926555	 1.4137342445	-0.1080964719	-0.43419
C	 0.1012600432	 0.0187860578	 0.0915357907	 0.036685
C	 0.1690214833	-0.5607588687	 1.5536448824	-0.27026
C	-1.1476309604	-1.2999384609	 1.2853858622	-0.141726
C	-2.2246685022	-0.2858958376	 0.9779679339	-0.334636
C	-1.240934415	-0.6656861074	-0.0925329882	 0.435058
O	-1.634087946	-1.2697972796	-1.2834019324	-0.230993
C	-2.224517989	-0.4496556874	-2.1901165109	 0.100389
N	-2.5789981097	-0.9131730252	-3.307578693	-0.443445
H	 0.9547780461	 1.7605052495	-0.0518310189	 0.288084
H	 0.8566750665	-0.4578287009	-0.5461618441	 0.088222
H	 1.0312465323	-1.2111107394	 1.7139014386	 0.107889
H	 0.1266014351	 0.1930500169	 2.3452874275	 0.103393
H	-1.3808121336	-2.3169018347	 1.5708837034	 0.107354
H	-3.2131796193	-0.7062444606	 0.8244252988	 0.126009
H	-2.2066487989	 0.7007247014	 1.4324333248	 0.123555
H	-2.3311579177	 0.5810443343	-1.8325547571	 0.108784
H	-3.0041447202	-0.1758557321	-3.8662950857	 0.229829
52.1027	98.0902	113.7007	176.7733	268.0398	305.428	349.5631	380.7055	452.4899	483.1327	596.3743	665.0195	768.743	823.5222	827.0209	864.7864	916.5574	958.6336	981.4704	1020.3593	1026.3771	1049.2102	1066.5499	1075.8217	1088.9872	1121.6991	1171.7247	1193.9702	1231.5665	1241.9297	1270.5633	1285.3398	1322.4172	1372.2699	1418.8948	1436.871	1473.1412	1501.6256	1745.722	3025.7145	3056.1431	3059.1687	3117.6123	3119.4026	3206.3809	3215.4365	3515.5045	3819.8568
OC1CC2CC12OC=N	O[C@H]1C[C@H]2C[C@@]12O[CH][NH]	
InChI=1S/C6H9NO2/c7-3-9-6-2-4(6)1-5(6)8/h3-5,7-8H,1-2H2	InChI=1S/C6H9NO2/c7-3-9-6-2-4(6)1-5(6)8/h3-5,7-8H,1-2H2/t4-,5-,6-/m0/s1
