22
gdb 93963	3.50005	1.01344	0.90759	1.0746	82.57	-0.2271	0.0731	0.3002	1370.9464	0.195382	-404.327433	-404.318487	-404.317543	-404.362065	34.113	
O	-0.5685418981	 1.0767258738	 0.9335875683	-0.442152
C	 0.1491365054	 0.1060314133	 0.1705133654	 0.121727
C	 0.9436473357	-0.8617452037	 1.0699164539	-0.23601
C	-0.0750054246	-1.9433867353	 1.5193728961	-0.215491
C	-1.354419179	-1.7125496039	 0.6698580243	 0.074074
C	-0.8955135463	-0.7978644168	-0.480021782	-0.225727
N	-1.9061881053	-2.9712149174	 0.1767121322	-0.067933
C	-2.8401641557	-3.657991846	 1.0648017908	-0.22487
C	-3.3273239052	-2.9663050568	-0.1592448518	-0.225749
H	 0.0705443878	 1.5761768339	 1.4512500599	 0.278893
H	 0.7919507519	 0.6054778207	-0.5686100773	 0.057182
H	 1.7556660129	-1.311907959	 0.4888099037	 0.100768
H	 1.4111294856	-0.3349215638	 1.9086993208	 0.083615
H	 0.3058628206	-2.9489219545	 1.3222858077	 0.108881
H	-0.2937168459	-1.8827398273	 2.5882072834	 0.097054
H	-2.0980000508	-1.1670090029	 1.2739205743	 0.064737
H	-1.7083723556	-0.2250507274	-0.9328303766	 0.101717
H	-0.4263080442	-1.4101660005	-1.2580114731	 0.104088
H	-2.758548246	-4.7407987205	 1.0937251102	 0.112709
H	-3.0710885087	-3.1923311524	 2.0217759587	 0.10847
H	-3.8826239782	-2.0402656557	-0.0180145556	 0.111019
H	-3.6073427863	-3.5344988777	-1.0416658731	 0.112995
29.221	95.1474	128.8983	193.4366	295.6197	304.3943	345.1584	387.1979	438.7754	470.0222	591.1129	741.1648	783.1752	786.6532	841.5695	866.5979	895.6929	902.9191	935.0091	946.7688	996.0801	1026.7849	1034.2988	1050.9358	1070.9033	1106.5825	1112.7378	1118.8415	1167.2922	1176.1891	1193.416	1205.9132	1224.1613	1260.0695	1293.6891	1307.2272	1320.1476	1336.4002	1347.4246	1367.0363	1393.8436	1421.1142	1476.1076	1482.7341	1491.7152	1503.353	1519.151	2958.253	2993.2023	3039.4962	3053.9383	3065.2802	3074.7235	3093.2924	3098.1519	3108.7558	3111.549	3175.3377	3189.7776	3818.1959
OC1CCC(C1)N1CC1	O[C@H]1CC[C@@H](C1)N1CC1	
InChI=1S/C7H13NO/c9-7-2-1-6(5-7)8-3-4-8/h6-7,9H,1-5H2	InChI=1S/C7H13NO/c9-7-2-1-6(5-7)8-3-4-8/h6-7,9H,1-5H2/t6-,7-/m0/s1
