18
gdb 10969	2.70436	2.41201	1.81044	2.8415	71.23	-0.2283	0.0002	0.2285	827.5371	0.154962	-347.820486	-347.813263	-347.812319	-347.851566	28.227	
C	-0.0280189895	 1.5501872949	 0.0176853144	-0.498063
C	-0.0085991774	 0.0435392807	-0.0088132307	 0.21322
C	 0.7009479509	-0.8064948039	-1.1271621071	-0.278103
C	-0.2532370477	-1.9581893255	-0.6652335803	-0.138156
C	 0.2475732718	-2.2116303399	 0.7735242143	-0.224624
C	 0.4270622641	-0.7294704333	 1.2602201155	-0.252444
C	-1.2353693079	-0.7976716673	-0.425330699	 0.410112
O	-2.3890172135	-0.5719850937	-0.6459438304	-0.330881
H	 0.9707235745	 1.9593199437	 0.2059631463	 0.117113
H	-0.3903683808	 1.9587294026	-0.9307411351	 0.125482
H	-0.6918287521	 1.9134229236	 0.8094546407	 0.128712
H	 0.4923319786	-0.4461737642	-2.1364370424	 0.113718
H	 1.7714100445	-0.9835509477	-0.9909910389	 0.102622
H	-0.4974351117	-2.8119956396	-1.2933363126	 0.082048
H	-0.4754698063	-2.7689523508	 1.3746273084	 0.112046
H	 1.1892983088	-2.7670727589	 0.7788072201	 0.105752
H	 1.4627688913	-0.5001741016	 1.5287430819	 0.102667
H	-0.2025868677	-0.488585239	 2.1216652251	 0.10878
145.1729	176.7357	216.5997	247.5489	308.4776	428.9854	480.9986	568.7969	664.0483	702.807	777.8783	790.0358	840.7832	874.592	904.284	913.3507	959.5333	979.5253	1007.3223	1028.8423	1066.1086	1111.791	1128.4839	1163.2133	1207.1901	1226.1819	1245.1914	1257.5038	1261.3149	1317.6124	1359.8576	1415.2104	1487.4085	1489.6895	1491.4416	1495.4725	1516.9771	1893.4877	3030.7943	3047.3372	3059.2269	3061.3359	3087.3423	3095.5566	3104.1639	3108.5193	3128.1279	3147.6136
CC12CC(CC1)C2=O	C[C@@]12C[C@@H](CC1)C2=O	
InChI=1S/C7H10O/c1-7-3-2-5(4-7)6(7)8/h5H,2-4H2,1H3	InChI=1S/C7H10O/c1-7-3-2-5(4-7)6(7)8/h5H,2-4H2,1H3/t5-,7+/m1/s1
