15
gdb 33486	2.23542	1.72451	1.1885	4.9708	73.45	-0.3054	-0.0118	0.2937	1036.9314	0.113218	-379.6595	-379.651741	-379.650796	-379.691863	29.017	
N	 0.0762973536	-1.1734843527	-0.0477904634	-0.331216
C	 0.0290692083	-0.0191858147	-0.0499539959	 0.275506
C	 0.0123177112	 1.4441225852	 0.0091651003	-0.007445
C	-0.2271465469	 2.0841880851	 1.4479005644	-0.279881
C	 1.1453893671	 2.7539730539	 1.3600900599	-0.028474
C	 2.2149609064	 1.7189768503	 1.1734490871	-0.29955
C	 1.4009778111	 2.1409694428	-0.0147584328	-0.066443
C	-0.9047225391	 1.9911440767	-0.9885738255	 0.26045
N	-1.6151575869	 2.459255975	-1.7698308533	-0.322394
H	-1.0673220417	 2.7773115142	 1.4217910861	 0.150958
H	-0.3723123193	 1.3583736887	 2.2513203659	 0.136092
H	 1.3590002449	 3.7597473283	 1.6956722935	 0.1121
H	 3.2327986373	 2.0936458039	 1.167826489	 0.1352
H	 2.107439175	 0.7218688425	 1.5925277328	 0.138835
H	 1.8245795391	 2.5679875407	-0.9134414581	 0.126263
123.754	132.7938	161.1958	188.5525	311.8124	406.0426	482.1029	502.8043	549.0209	578.1487	594.6755	744.7378	794.3529	846.3176	903.3321	937.5327	957.0035	979.5583	1009.9365	1055.3297	1065.2185	1093.0925	1104.3201	1145.5678	1196.0173	1233.5404	1261.1724	1296.0594	1357.2188	1479.9669	1496.2919	2359.0941	2365.4602	3078.6113	3122.0379	3149.6651	3204.9996	3209.5309	3220.0203
N#CC1(CC2CC12)C#N	N#CC1(C[C@H]2C[C@@H]12)C#N	
InChI=1S/C7H6N2/c8-3-7(4-9)2-5-1-6(5)7/h5-6H,1-2H2	InChI=1S/C7H6N2/c8-3-7(4-9)2-5-1-6(5)7/h5-6H,1-2H2/t5-,6-/m1/s1
