18
gdb 71517	2.47905	1.56448	1.4494	4.2699	81.66	-0.2899	0.0219	0.3118	1017.4623	0.148066	-364.765018	-364.757256	-364.756312	-364.797027	30.442	
C	-0.0189886655	 1.4793107115	-0.0221403101	-0.520103
C	 0.0380580495	-0.02106759	-0.0627469403	 0.313086
C	 0.5877862164	-0.9425215471	-1.1740209931	-0.311375
C	 0.0681120723	-1.9206177	-0.1075989117	-0.074989
C	 0.5244629014	-1.0001629486	 1.0753281968	-0.101829
C	-0.8586284459	-1.0437686514	 1.751356644	-0.315658
C	-1.1701157986	-1.0119002374	 0.2394980152	 0.212291
C	-2.4454653453	-1.0133645857	-0.4230996821	 0.153887
N	-3.4718677735	-1.0023431265	-0.9579774826	-0.354373
H	 0.9876283252	 1.9047966894	-0.0964504856	 0.127979
H	-0.6118311885	 1.8707141117	-0.8554558925	 0.138026
H	-0.468464804	 1.83865406	 0.9096965093	 0.127363
H	 0.0606529573	-0.9279505017	-2.1328252346	 0.112218
H	 1.6713725773	-0.9209489597	-1.3267914794	 0.098985
H	 0.0521006027	-3.010400599	-0.1072951133	 0.089963
H	 1.5130976633	-0.9979521674	 1.5332310781	 0.08388
H	-1.1235494661	-1.9660906133	 2.2754901751	 0.110396
H	-1.1636697079	-0.1678992849	 2.3304330868	 0.110254
120.3201	143.0285	206.6096	259.6265	300.2375	390.9174	428.6801	529.5041	536.539	567.0003	646.1479	710.9399	767.8725	861.896	876.9135	908.3285	926.989	939.5341	993.15	1007.8428	1024.3263	1063.7094	1096.9987	1128.629	1147.3228	1163.288	1166.6419	1191.0199	1228.0557	1238.8996	1266.8404	1288.3848	1326.6675	1412.7437	1484.0332	1489.3341	1509.2493	1510.4208	2340.9189	3030.3916	3044.1983	3054.8231	3098.4384	3101.5045	3103.937	3115.0068	3117.7078	3127.699
CC12CC3C1CC23C#N	C[C@@]12C[C@H]3[C@@H]1C[C@@]23C#N	
InChI=1S/C8H9N/c1-7-2-6-5(7)3-8(6,7)4-9/h5-6H,2-3H2,1H3	InChI=1S/C8H9N/c1-7-2-6-5(7)3-8(6,7)4-9/h5-6H,2-3H2,1H3/t5-,6-,7+,8-/m0/s1
