18
gdb 29295	5.37562	0.91313	0.83216	1.9983	80.87	-0.1764	0.0453	0.2217	1382.0921	0.148458	-401.965035	-401.95648	-401.955536	-401.998486	32.637	
O	 0.066293363	 1.3893581824	-0.0959497838	-0.451104
C	 0.0579060981	 0.0240831067	-0.0364517241	 0.332365
C	 0.0175303954	-0.7946720001	-1.1383729877	-0.18055
N	 0.0223015396	-2.0969795707	-0.6678449449	-0.334807
C	 0.0647620201	-2.1147270423	 0.7009293008	 0.374498
C	 0.0877753042	-0.7987217639	 1.12457478	-0.405169
C	 0.0802810115	-3.3528809865	 1.5008130258	-0.074641
C	-0.6949875428	-4.5885895916	 1.0859027003	-0.274478
C	 0.8087132585	-4.6002733944	 1.038724053	-0.274505
H	 0.097033589	 1.7285294733	 0.802720838	 0.294191
H	-0.0133851217	-0.5660508884	-2.1894981421	 0.113808
H	-0.0021000795	-2.9092748	-1.2573888913	 0.255421
H	 0.1221775582	-0.4691929236	 2.1529551366	 0.082367
H	 0.1152652721	-3.1553385933	 2.566753093	 0.090311
H	-1.1936185451	-5.162263385	 1.8593318179	 0.11754
H	-1.2412147418	-4.5453420188	 0.149193404	 0.108613
H	 1.2957811191	-4.5651151581	 0.0696050371	 0.108597
H	 1.345876152	-5.1819833755	 1.7796673075	 0.117542
49.1212	145.6085	164.3478	198.8652	302.2312	319.5968	336.1227	455.3215	462.0837	591.9957	622.7278	677.9702	687.5051	707.46	757.09	787.0522	812.6345	898.7297	904.2167	986.3854	1004.5921	1056.0153	1058.5089	1069.5828	1127.826	1131.6535	1161.3923	1183.8571	1200.4674	1224.3731	1319.4101	1328.3548	1370.3152	1464.3228	1473.0993	1479.7431	1502.4509	1568.5859	1662.7552	3128.2957	3133.1149	3166.9491	3206.3274	3223.3118	3231.3637	3283.1108	3690.9754	3847.8303
OC1=CNC(=C1)C1CC1	Oc1c[nH]c(c1)C1CC1	
InChI=1S/C7H9NO/c9-6-3-7(8-4-6)5-1-2-5/h3-5,8-9H,1-2H2	InChI=1S/C7H9NO/c9-6-3-7(8-4-6)5-1-2-5/h3-5,8-9H,1-2H2
