17
gdb 19982	2.93093	1.94914	1.3955	0.4224	75.13	-0.2133	0.0424	0.2557	922.9417	0.141272	-326.636224	-326.628403	-326.627459	-326.668292	29.863	
C	 0.1883302692	-0.7407471482	-1.1066654397	-0.451806
C	 0.2014433699	 0.3283200612	-0.551594794	 0.317105
C	 0.1345919211	 1.6096470385	 0.0846327189	-0.212571
C	 0.5689842081	 1.8049085874	 1.5369296859	-0.305335
C	 1.3432565995	 2.4943678871	 0.465194785	 0.038434
N	 2.7375052499	 2.2495962826	 0.2607221629	-0.084153
C	 3.2927044842	 0.9109044393	 0.1174435083	-0.236349
C	 3.2313668136	 1.8388829434	-1.0489410984	-0.219954
H	 0.1975095369	-1.6822683937	-1.5971690616	 0.195022
H	-0.7336155287	 2.1903460247	-0.2174859604	 0.114422
H	-0.0740397347	 2.3789884343	 2.1946744331	 0.121388
H	 1.0438087232	 0.9482569104	 2.002675294	 0.132042
H	 1.1250361708	 3.5507369096	 0.3302994766	 0.105407
H	 4.2319761563	 0.7528495336	 0.6415319667	 0.112697
H	 2.6231462272	 0.0573005646	 0.1011513959	 0.13387
H	 2.4984063159	 1.6045592199	-1.8171668	 0.125507
H	 4.1236410977	 2.3518158353	-1.3978224732	 0.114275
79.4451	146.6487	200.1774	233.9165	257.8731	395.6275	462.6287	531.462	566.3825	643.3238	651.3036	692.3403	747.9921	811.6001	827.6956	876.0414	914.6005	980.154	1017.0596	1056.0755	1072.3625	1101.6812	1123.2159	1131.4803	1132.6481	1164.7135	1179.5739	1185.1921	1223.0278	1365.92	1375.2749	1403.278	1482.3429	1489.215	1516.6762	2223.5232	3104.232	3111.2	3128.1753	3136.0969	3140.5646	3190.0643	3208.5267	3226.6191	3503.0851
C#CC1CC1N1CC1	C#C[C@H]1C[C@H]1N1CC1	
InChI=1S/C7H9N/c1-2-6-5-7(6)8-3-4-8/h1,6-7H,3-5H2	InChI=1S/C7H9N/c1-2-6-5-7(6)8-3-4-8/h1,6-7H,3-5H2/t6-,7+/m0/s1
