17
gdb 44422	3.46864	1.45183	1.42015	3.4745	73.33	-0.2523	-0.0275	0.2248	968.8266	0.136639	-421.735115	-421.72827	-421.727325	-421.766195	28.042	
O	 0.0319088161	-0.0307494321	 0.0380231754	-0.272961
C	-0.0371995054	 1.1531679573	 0.0448968375	 0.305011
C	-1.273084274	 2.1977657708	-0.0973387611	-0.404981
C	-0.2414716302	 3.0132657503	-0.921070168	-0.007359
C	 0.8296129603	 4.1731136187	-0.9130863134	-0.001733
C	 0.9441644398	 4.6479416785	 0.5353005822	-0.210517
C	 1.02133561	 3.2354100531	 1.1764420934	-0.254272
C	 0.8798336375	 2.3966849568	-0.1296077819	 0.266327
O	 1.8708757975	 3.1065147384	-0.9832791947	-0.361687
H	-2.1303846705	 1.7972963185	-0.6398064605	 0.135515
H	-1.595747078	 2.6035217746	 0.860789244	 0.13587
H	-0.209797261	 2.594813323	-1.930145401	 0.115349
H	 0.9006839961	 4.8787077212	-1.7401679919	 0.094531
H	 1.8491238109	 5.2372807735	 0.6932501079	 0.118472
H	 0.0801101599	 5.2347669657	 0.8578502801	 0.106945
H	 1.996105178	 3.0172687407	 1.6168378377	 0.126093
H	 0.2574213231	 3.0433730511	 1.9317345242	 0.109396
118.0373	201.3805	309.947	352.158	449.1398	490.2545	529.3908	581.6192	639.2627	648.7008	748.0939	807.7265	819.0547	846.258	860.5832	934.6659	936.7731	952.5128	961.0528	1008.1559	1053.2322	1065.737	1110.8538	1116.5652	1150.3157	1163.5841	1185.7979	1227.8553	1245.31	1252.963	1297.5761	1315.1683	1385.9356	1456.7484	1482.8356	1502.1142	1900.9005	3069.3097	3076.8111	3083.1486	3094.8065	3116.9214	3133.1712	3134.2187	3161.0965
O=C1CC2C3CCC12O3	O=C1C[C@H]2[C@H]3CC[C@@]12O3	
InChI=1S/C7H8O2/c8-6-3-4-5-1-2-7(4,6)9-5/h4-5H,1-3H2	InChI=1S/C7H8O2/c8-6-3-4-5-1-2-7(4,6)9-5/h4-5H,1-3H2/t4-,5+,7-/m0/s1
