18
gdb 29520	3.07859	1.53226	1.04468	0.7524	79.7	-0.1586	0.0624	0.221	1122.52	0.151479	-398.146068	-398.137939	-398.136995	-398.178385	31.53	
N	-0.0002968212	 1.4362339597	 0.1153657233	-0.607984
C	 0.0257773354	 0.0299026041	 0.0084972511	 0.057689
C	-1.0610064625	-0.8235294708	-0.0330502386	-0.166754
N	-0.5885000804	-2.1434044395	-0.0239666877	-0.382812
C	 0.765792504	-2.0914957273	-0.000463969	 0.341466
C	 1.1913577263	-0.7925558146	 0.0230926492	 0.239314
C	 2.6912856567	-0.7761076725	 0.1410065018	-0.370634
C	 3.0137055947	-2.2784734842	-0.1865655535	-0.159136
N	 1.7636770077	-3.088354567	-0.0132909208	-0.413577
H	 0.7432363363	 1.8672363157	-0.4208928944	 0.236144
H	-0.8827384897	 1.8259285689	-0.1930447655	 0.233724
H	-2.1180250192	-0.6157949633	-0.059349843	 0.097586
H	-1.1531911715	-2.9629602974	-0.1545782109	 0.255525
H	 3.2059121187	-0.1200460448	-0.569740569	 0.097552
H	 3.0346143973	-0.4853949872	 1.1446957996	 0.100144
H	 3.3194714612	-2.3602791104	-1.2347528973	 0.115623
H	 3.8168091288	-2.6921839969	 0.4281654877	 0.100729
H	 1.7914557173	-3.6023038825	 0.8643989772	 0.225402
132.4161	180.8507	189.8438	222.029	260.2009	274.5386	392.5389	513.1682	571.9738	590.2986	616.9151	629.0063	673.6536	747.3598	760.8931	794.0413	822.268	910.3505	924.5066	985.3088	1045.8591	1069.1788	1078.5518	1129.1798	1192.1013	1206.2592	1250.2902	1289.3576	1303.4486	1337.6431	1360.5206	1400.3993	1470.9165	1492.5322	1509.4471	1558.8634	1573.1275	1636.7115	1657.2226	2991.6793	3039.8328	3056.1418	3102.3948	3263.5231	3461.8912	3519.9077	3608.1884	3694.0567
NC1=CNC2=C1CCN2	Nc1c[nH]c2c1CCN2	
InChI=1S/C6H9N3/c7-5-3-9-6-4(5)1-2-8-6/h3,8-9H,1-2,7H2	InChI=1S/C6H9N3/c7-5-3-9-6-4(5)1-2-8-6/h3,8-9H,1-2,7H2
