19
gdb 76312	2.54416	1.38261	1.14558	2.6989	75.04	-0.2521	0.0206	0.2727	1127.1513	0.159711	-419.207815	-419.198402	-419.197458	-419.242173	34.674	
C	 0.719099221	 1.5676084264	-0.0407978998	-0.407757
C	 0.1166902773	 0.1716095084	 0.0450330587	-0.056179
C	 0.7216413871	-0.8791626599	-0.9534244375	 0.154512
O	 1.487524467	-0.4182058677	-2.0198424593	-0.427215
C	 1.5306131793	-1.5377362507	 0.2191106417	-0.055809
N	 2.9185971654	-1.0863994882	 0.1861001681	-0.53336
C	 0.6294348664	-0.7372815956	 1.2222078422	-0.164807
C	 1.2987214118	-0.1174664632	 2.3496270284	 0.286061
N	 1.8843312056	 0.3678106966	 3.2219928632	-0.346483
H	 1.8082985093	 1.5497509169	 0.051407502	 0.130246
H	 0.4731635514	 2.016377865	-1.0068688654	 0.132111
H	 0.3267033938	 2.2113570178	 0.7521341182	 0.125517
H	-0.9742435392	 0.2362956387	 0.0157736983	 0.082417
H	-0.049056516	-1.5462015948	-1.3511522332	 0.084658
H	 2.3509090127	-0.204947534	-1.6268260357	 0.286741
H	 1.4386964181	-2.62489942	 0.3127621167	 0.077468
H	 3.2409697024	-0.7891693168	 1.101979661	 0.257528
H	 3.5311203875	-1.8299110739	-0.1269780528	 0.247926
H	-0.1691368308	-1.380302245	 1.6005674453	 0.126425
59.024	112.6473	134.7034	165.5136	209.2843	251.0014	287.8755	346.1479	389.0017	485.2656	518.4721	592.6421	626.8497	641.6193	753.3209	787.343	810.2506	856.9731	875.243	915.2936	1004.0035	1044.2278	1065.8383	1118.5551	1139.1271	1153.01	1172.6616	1215.7629	1243.1576	1259.9277	1295.9646	1319.8983	1337.0187	1365.9883	1390.8964	1417.5323	1455.2542	1492.2995	1501.5938	1654.469	2343.4141	3034.9188	3046.5425	3059.313	3069.9953	3085.7436	3117.3352	3125.4053	3508.2268	3593.7766	3654.7766
CC1C(O)C(N)C1C#N	C[C@H]1[C@@H](O)[C@@H](N)[C@H]1C#N	
InChI=1S/C6H10N2O/c1-3-4(2-7)5(8)6(3)9/h3-6,9H,8H2,1H3	InChI=1S/C6H10N2O/c1-3-4(2-7)5(8)6(3)9/h3-6,9H,8H2,1H3/t3-,4+,5+,6-/m1/s1
