20
gdb 22063	3.95	0.62504	0.55401	0.8762	93.56	-0.2238	-0.0214	0.2024	2019.8781	0.167165	-403.096577	-403.085392	-403.084448	-403.135011	38.934	
C	-0.0336220834	 1.5915263381	 0.3579850391	-0.373994
C	-0.0668823423	 0.09908264	-0.0292875766	-0.13754
C	 0.8557968381	-0.7399537444	 0.8773223749	-0.375134
C	-1.4346343451	-0.4164728843	-0.0122734655	 0.230227
C	-2.5728634304	-0.8197079901	 0.0079602943	-0.086029
C	-3.8847010988	-1.3695199349	 0.0564245519	 0.199092
C	-4.0722275581	-2.7968379989	 0.5133201387	-0.475082
N	-4.854774782	-0.5990639747	-0.2996468109	-0.16177
O	-6.0791671806	-1.2666481649	-0.2018711603	-0.395092
H	 0.9893267994	 1.9754046661	 0.2916318534	 0.112738
H	-0.6708826812	 2.1834410186	-0.3036902617	 0.129341
H	-0.3878657686	 1.730829137	 1.3838813677	 0.126037
H	 0.3074463697	 0.0127367737	-1.059609433	 0.109362
H	 0.5305428381	-0.6783612628	 1.920371556	 0.125317
H	 0.849164996	-1.7922036273	 0.5811893157	 0.123342
H	 1.8839262598	-0.3695380017	 0.8157653601	 0.114135
H	-4.7223228873	-2.8277059079	 1.3934152794	 0.148166
H	-4.5715923204	-3.379170159	-0.2673088512	 0.148383
H	-3.1141977161	-3.25709358	 0.7536980183	 0.128445
H	-6.7008666869	-0.5906127527	-0.4918561003	 0.310056
12.5685	68.0409	76.244	95.606	175.949	209.0349	227.4493	263.6692	290.5441	326.4834	388.6466	439.5245	473.3844	492.1178	555.0487	569.9814	582.0437	729.0349	841.2886	931.651	935.5707	964.9755	1014.9029	1042.4666	1045.5428	1119.756	1121.4776	1188.5268	1290.3778	1320.7634	1346.2656	1395.6043	1396.2882	1405.4362	1418.1156	1476.9403	1482.3908	1485.629	1489.0971	1498.4897	1510.6283	1666.3811	2341.6144	2999.8651	3037.4535	3040.7876	3047.8189	3105.5377	3108.9663	3113.8709	3119.6099	3123.5853	3154.9691	3819.0657
CC(C)C#CC(C)=NO	CC(C)C#CC(=NO)C	
InChI=1S/C7H11NO/c1-6(2)4-5-7(3)8-9/h6,9H,1-3H3	InChI=1S/C7H11NO/c1-6(2)4-5-7(3)8-9/h6,9H,1-3H3
