23
gdb 107757	3.37403	1.33277	1.29429	0.0304	87.22	-0.2594	0.0821	0.3415	1128.4265	0.208806	-351.178954	-351.171133	-351.170188	-351.211077	32.59	
C	 0.0755693681	 1.5251686425	 0.0135136583	-0.391043
C	-0.0588246461	-0.0027251638	 0.0055498202	-0.268137
C	-1.4864013268	-0.5339049722	 0.0099025705	 0.300159
C	-2.4092679108	-0.1549145963	-1.1825977927	-0.24902
C	-3.6409096224	-0.9363281905	-0.740514879	-0.05769
C	-3.1424994055	-2.157471568	 0.0093825591	-0.062189
C	-1.6219800497	-2.0822294295	 0.0020600451	-0.252427
C	-3.6331686382	-0.9447123535	 0.7777652738	-0.057691
C	-2.3970465965	-0.1681424423	 1.2158603729	-0.249022
H	 1.1296556227	 1.8199492246	 0.0097192756	 0.110244
H	-0.3955296084	 1.9765692712	-0.8655021568	 0.117447
H	-0.3863596833	 1.9665422617	 0.9024316308	 0.117449
H	 0.4610056034	-0.4025801493	-0.8755249828	 0.090652
H	 0.4700502942	-0.4125065634	 0.8766239731	 0.090651
H	-2.5935977715	 0.9225173137	-1.2489083961	 0.091083
H	-2.0047621951	-0.4959933842	-2.1426749001	 0.087873
H	-4.5631255823	-0.9485968085	-1.3067260263	 0.075364
H	-3.6865857209	-3.0929497081	 0.0069866216	 0.075891
H	-1.1727546774	-2.5314691924	-0.8911364718	 0.088042
H	-1.1637119687	-2.5412440778	 0.885640387	 0.088043
H	-4.5495628697	-0.9632912526	 1.3531818765	 0.075364
H	-1.9827956382	-0.5197604698	 2.1679467706	 0.087872
H	-2.580635777	 0.9084806083	 1.2959198506	 0.091085
70.1605	187.32	211.7578	301.4609	360.5271	431.5063	436.2563	450.6806	593.6794	654.3739	657.3915	775.3507	783.0354	815.3742	816.1944	892.4216	898.6622	947.092	956.3433	963.6132	964.6242	971.2099	1004.7633	1010.3915	1060.932	1067.3583	1071.9435	1076.6987	1129.1823	1143.8581	1149.6718	1161.7072	1231.7388	1233.1508	1267.5781	1269.7314	1292.5245	1302.016	1332.4862	1339.5806	1379.9405	1399.3068	1406.6373	1480.706	1486.5083	1487.5257	1499.7353	1506.8695	1516.7627	3008.0264	3027.5044	3031.4285	3035.4213	3038.2128	3039.439	3070.8044	3077.4465	3080.0396	3102.8402	3105.5236	3191.5967	3192.0583	3206.4199
CCC12CC3C(C1)C3C2	CC[C@@]12C[C@H]3[C@@H](C1)[C@H]3C2	
InChI=1S/C9H14/c1-2-9-3-6-7(4-9)8(6)5-9/h6-8H,2-5H2,1H3	InChI=1S/C9H14/c1-2-9-3-6-7(4-9)8(6)5-9/h6-8H,2-5H2,1H3/t6-,7+,8-,9+
