15
gdb 31415	4.03915	1.20014	0.93066	4.3285	75.96	-0.226	-0.0453	0.1807	1202.7229	0.114293	-450.170292	-450.162153	-450.161209	-450.203774	29.026	
C	-0.0791876833	 1.4681341855	 0.0264162801	-0.333168
N	-0.0573831698	 0.0258521867	 0.1569316488	-0.341869
C	 0.6068603619	-0.6929705127	 1.0813782218	 0.467814
N	 0.5042418824	-1.9968287954	 1.0382828166	-0.362955
C	 1.1630762594	-2.7417070357	 1.9575044384	 0.42771
N	 1.1597836925	-4.0006109561	 2.0418828207	-0.536425
O	 1.950897717	-2.0041913662	 2.9419634648	-0.218048
C	 1.9621465187	-0.685352266	 2.86375302	 0.153203
N	 1.3492788857	 0.0425557546	 2.0061687251	-0.338862
H	 0.5403022891	 1.8983133412	 0.8112620449	 0.176158
H	 0.3144771391	 1.7778858097	-0.948263558	 0.133784
H	-1.1000236469	 1.8538277615	 0.1266696292	 0.133787
H	-0.58323262	-0.536257287	-0.4953857827	 0.264707
H	 1.7355883564	-4.3113940013	 2.8212712022	 0.224793
H	 2.5760001777	-0.2302588787	 3.6392134581	 0.149373
66.8696	101.9834	125.0213	174.3691	233.7284	409.6209	422.2963	503.4531	570.2774	611.3708	621.7941	698.3066	718.3536	788.8566	818.5692	826.0636	952.3742	1003.8636	1057.446	1096.3325	1156.6388	1168.9141	1226.2844	1292.9433	1397.6464	1424.4562	1470.6926	1489.1592	1497.1636	1523.4739	1627.6446	1707.9182	1789.5698	3028.3094	3077.5441	3160.507	3173.3386	3527.6422	3628.0272
CNC1=NC(=N)OC=N1	CN[C@@H]1N=C([NH])OC=N1	
InChI=1S/C4H6N4O/c1-6-4-7-2-9-3(5)8-4/h2H,1H3,(H2,5,6,8)	InChI=1S/C4H7N4O/c1-6-4-7-2-9-3(5)8-4/h2,4-6H,1H3/t4-/m0/s1
