18
gdb 93158	2.43214	1.76078	1.15052	3.9685	73.82	-0.2416	0.0018	0.2433	1077.4178	0.148543	-439.117564	-439.109027	-439.108083	-439.151202	31.127	
C	-0.0658675894	 1.4599568029	 0.0866167775	-0.345097
N	-0.0017207414	 0.0100698186	 0.0094189152	-0.105179
C	-1.2507420554	-0.7519085169	-0.0445644031	-0.22121
C	-1.457945437	-1.542447647	-1.3218498229	-0.070372
C	-0.5324424191	-2.2886005924	-1.9188152903	-0.039588
C	 0.8625925966	-2.515642319	-1.409643144	-0.151255
O	 1.0871656367	-1.9833812117	-0.1062581191	-0.258044
C	 1.2108229456	-0.606469961	-0.0518723198	 0.448685
O	 2.2865453592	-0.0599358954	-0.022848375	-0.38631
H	 0.9537579041	 1.8410137158	 0.1228585906	 0.171465
H	-0.5764835579	 1.8785697005	-0.7893886367	 0.124301
H	-0.6023923527	 1.7802547475	 0.9876532446	 0.125484
H	-1.3149654813	-1.4192282128	 0.824284355	 0.138216
H	-2.0608818251	-0.0263468217	 0.0601432233	 0.114095
H	-2.450594321	-1.4858005363	-1.759836118	 0.099266
H	-0.7709568946	-2.8048891944	-2.8465087487	 0.098125
H	 1.0528073877	-3.5915998547	-1.3224754729	 0.13018
H	 1.6106440551	-2.118506382	-2.1128194556	 0.127238
63.6213	97.8388	138.403	185.299	270.2731	325.2721	357.5532	377.246	467.7231	555.5659	602.1329	658.0101	768.7915	806.5587	843.7603	885.1342	939.2368	975.1328	994.4575	1042.3066	1051.1018	1103.8294	1128.6735	1157.3765	1229.5446	1235.9235	1281.9988	1309.467	1353.5974	1400.0873	1410.7277	1431.3492	1452.2101	1483.9629	1492.8716	1499.9146	1524.6254	1735.1198	1823.4244	2993.973	3016.7952	3025.5421	3058.7583	3067.5995	3095.1093	3146.9185	3165.4355	3172.6335
CN1CC=CCOC1=O	CN1CC=CCOC1=O	
InChI=1S/C6H9NO2/c1-7-4-2-3-5-9-6(7)8/h2-3H,4-5H2,1H3	InChI=1S/C6H9NO2/c1-7-4-2-3-5-9-6(7)8/h2-3H,4-5H2,1H3
