16
gdb 27192	3.25294	1.6474	1.23114	1.3773	76.47	-0.185	0.0212	0.2062	992.5601	0.126037	-400.707159	-400.700187	-400.699243	-400.738319	28.062	
O	 0.1506351204	 1.3433230328	-0.1926948665	-0.441008
C	 0.0453115046	-0.0119296513	-0.1010015953	 0.225248
C	-0.2491679551	-0.8740538004	-1.1349571408	 0.115382
C	 0.0807619632	-1.3616752202	-2.5274371906	-0.187428
C	 1.3926076991	-2.1312650926	-2.4531534507	-0.275051
C	 0.132869738	-2.7582369427	-1.9128770621	-0.02155
N	-0.2510715358	-2.1685852869	-0.6186727333	 0.006716
C	 0.1008356919	-2.1553310827	 0.7034249447	-0.125222
C	 0.1954940375	-0.8236030148	 1.071871522	-0.26502
H	 0.310415509	 1.6974773574	 0.6869053441	 0.296597
H	-0.3713503508	-1.0596304995	-3.4619041338	 0.106131
H	 1.7544416268	-2.5535548161	-3.3878413151	 0.116453
H	 2.1687402155	-1.8058785417	-1.7676159767	 0.130542
H	-0.2945880774	-3.6918861606	-2.2538560546	 0.112461
H	 0.1429901578	-3.0482762639	 1.3075976321	 0.118024
H	 0.3023262251	-0.4563107668	 2.0842442568	 0.087725
135.7605	207.54	247.1953	309.2155	387.5663	485.0451	535.2859	630.0772	651.0526	691.9344	720.4927	727.5351	783.6383	795.8512	824.3074	872.0374	927.7646	982.076	996.3512	1048.0107	1066.4897	1076.8501	1081.9454	1108.9815	1177.3428	1224.2724	1241.4647	1283.2387	1298.5682	1326.5915	1404.3218	1435.0256	1469.6739	1474.2503	1656.5491	3113.8682	3199.6394	3203.6217	3213.3177	3214.5226	3255.4757	3839.0768
OC1=C2C3CC3N2C=C1	OC1=C[CH]N2[C]1[C@H]1C[C@@H]21	
InChI=1S/C7H7NO/c9-6-1-2-8-5-3-4(5)7(6)8/h1-2,4-5,9H,3H2	InChI=1S/C7H7NO/c9-6-1-2-8-5-3-4(5)7(6)8/h1-2,4-5,9H,3H2/t4-,5+/m0/s1
