18
gdb 17772	5.28625	1.16213	1.15531	2.7009	73.05	-0.2477	-0.0197	0.228	1089.1459	0.154177	-347.758513	-347.751213	-347.750269	-347.791088	27.371	
O	-0.477476633	 0.7349544847	 0.7902710315	-0.238851
C	 0.1142814205	 1.0055212315	-0.2225082276	 0.166996
C	 1.4450184952	 1.7237207551	-0.286405076	-0.336056
C	 1.3801559098	 2.9298791566	-1.2248606154	 0.050423
C	 0.7521415958	 4.2933814646	-0.7803028473	-0.044829
C	 2.0349647387	 4.5606254026	 0.0621328347	-0.221584
C	 2.5361670478	 3.9787375524	-1.2931917989	-0.059793
C	 1.5123889819	 4.9292056425	-1.9804801109	-0.216334
H	-0.3064939182	 0.731456795	-1.2194977006	 0.069355
H	 1.7480870678	 1.9717934347	 0.7322567869	 0.123288
H	 2.1777322788	 1.0097807422	-0.6926174554	 0.119646
H	 1.0390367825	 2.5996851778	-2.2143307074	 0.065827
H	-0.2819381401	 4.476258529	-0.4844347061	 0.077473
H	 2.2734147229	 5.6107790196	 0.2497222463	 0.093507
H	 2.1884778813	 3.9656110909	 0.9631374983	 0.097972
H	 3.5691670466	 3.7939789642	-1.5933880744	 0.070237
H	 1.1754737397	 4.6501882198	-2.9829090016	 0.089828
H	 1.7221728919	 5.9992568269	-1.909521436	 0.092894
53.2274	70.0014	178.8916	316.9926	353.8764	456.8799	564.1224	596.1723	743.8954	776.3709	803.1258	869.701	890.5205	899.934	905.5834	1000.7828	1008.9966	1031.455	1034.1822	1038.4043	1101.2452	1112.2871	1122.9627	1146.437	1150.2652	1189.7495	1209.9945	1220.9055	1242.6727	1252.5129	1277.101	1293.9316	1425.8567	1432.2283	1459.2412	1505.9259	1544.0121	1835.8605	2846.3012	3005.1018	3022.4398	3050.9603	3065.149	3095.7963	3104.1157	3116.3783	3119.7704	3133.718
O=CCC1C2CC1C2	O=CC[C@H]1[C@H]2C[C@@H]1C2	
InChI=1S/C7H10O/c8-2-1-7-5-3-6(7)4-5/h2,5-7H,1,3-4H2	InChI=1S/C7H10O/c8-2-1-7-5-3-6(7)4-5/h2,5-7H,1,3-4H2/t5-,6+,7-
