22
gdb 121450	5.18525	0.65144	0.61319	2.3667	87.85	-0.2438	0.0337	0.2775	1931.4797	0.192795	-404.36077	-404.350566	-404.349622	-404.397441	36.466	
C	 0.5288193328	 1.8916368807	-0.1561170263	-0.379736
C	 0.5691733908	 0.8779707516	-1.3017578087	-0.150383
C	 0.3679980589	-0.5626023592	-0.8205047218	-0.157124
N	 0.4990785342	-1.4966853838	-1.9345955191	-0.334056
C	-0.3936776597	-2.3490122722	-2.1313668752	 0.460086
C	-0.627460973	-3.4366005592	-3.155975174	-0.399567
C	-1.9373845983	-3.6757883898	-2.3699645483	 0.151042
C	-2.1261686578	-5.0009412913	-1.6666123795	-0.398363
O	-1.5672306425	-2.605021618	-1.4346541776	-0.278852
H	-0.4316773329	 1.8608465762	 0.3706003011	 0.11334
H	 1.3147324831	 1.690089673	 0.580681573	 0.112606
H	 0.6728989846	 2.9122285874	-0.5236770493	 0.111059
H	-0.2061167107	 1.1155736782	-2.0404742447	 0.094997
H	 1.5269604506	 0.9375747649	-1.8311531498	 0.104328
H	 1.150090104	-0.8039265775	-0.0873197116	 0.101504
H	-0.597146371	-0.6549211345	-0.3031285145	 0.105216
H	-0.7326809874	-3.0881991731	-4.1846739691	 0.133469
H	 0.0924497089	-4.2573891503	-3.1219271294	 0.131507
H	-2.8410926546	-3.3799408271	-2.9124068333	 0.092844
H	-1.2188916809	-5.2866274789	-1.1255807839	 0.127882
H	-2.9514771878	-4.9435976482	-0.9507668072	 0.133911
H	-2.3590699414	-5.7847570789	-2.3952146609	 0.124291
25.5471	78.3497	82.8309	109.5531	210.3698	234.1796	244.4635	283.6279	344.9362	373.3193	427.4331	533.1591	585.4285	718.3221	756.1912	817.7991	885.8727	894.2238	898.5477	907.703	961.3694	1027.75	1049.7071	1063.6866	1079.3999	1116.127	1124.2315	1141.2192	1183.6475	1200.6406	1240.1652	1270.6372	1315.0907	1318.6591	1331.5023	1382.7738	1397.7633	1411.9926	1413.4498	1468.1198	1484.4463	1487.9697	1495.9641	1497.4604	1499.409	1513.0115	1842.1872	2997.5909	3027.8556	3029.8051	3034.8549	3037.8625	3056.6947	3068.0077	3080.3401	3096.3635	3102.2906	3111.0529	3118.5442	3135.5918
CCCN=C1CC(C)O1	CCCN=C1C[C@@H](C)O1	
InChI=1S/C7H13NO/c1-3-4-8-7-5-6(2)9-7/h6H,3-5H2,1-2H3	InChI=1S/C7H13NO/c1-3-4-8-7-5-6(2)9-7/h6H,3-5H2,1-2H3/t6-/m1/s1
