20
gdb 39745	3.12979	1.64177	1.46525	1.6705	81.35	-0.2223	0.0867	0.309	987.9393	0.173772	-365.968607	-365.961574	-365.96063	-365.999754	29.316	
C	-0.0170578208	 1.5443911444	 0.0261373861	-0.338639
C	 1.2658565793	 0.7371313046	 0.0097105598	-0.346522
C	-0.0595690803	 0.0439524407	 0.0161812068	 0.427372
C	-0.5301324329	-0.9282190512	 1.0627476233	-0.144063
C	-1.8913171371	-1.4437761682	 0.7521201746	-0.022333
C	-2.806734814	-0.6566123154	-0.1793726334	-0.248982
C	-1.9992196909	-0.6134239801	-1.5025412706	-0.205093
C	-0.5818057128	-0.9392786288	-1.0418100242	-0.09932
N	-0.7307693426	-2.0238886218	 0.0324119868	-0.148013
H	-0.2851598041	 2.0617090925	 0.9419013932	 0.112148
H	-0.2954508156	 2.0727317152	-0.8805746554	 0.111626
H	 1.8479087397	 0.7216542822	-0.9066284851	 0.113043
H	 1.863284929	 0.7095393953	 0.9158163479	 0.114193
H	-0.0346398711	-1.1231895274	 2.010589342	 0.087381
H	-2.3331597425	-2.1176129429	 1.4802839125	 0.089279
H	-3.7676017677	-1.1631914283	-0.3031211696	 0.103704
H	-3.0127739382	 0.3458626576	 0.2071813174	 0.110479
H	-2.3503342422	-1.3828306523	-2.1981050834	 0.106957
H	-2.0616023373	 0.3531822175	-2.0108731282	 0.100624
H	 0.1151299322	-1.2250467837	-1.8310860306	 0.076159
129.0542	208.9156	234.1659	283.3198	406.9847	496.5134	554.8672	650.5833	718.6192	751.9007	776.8667	796.2533	834.0228	835.8158	899.977	907.4591	915.6794	934.3294	963.1277	982.4889	1001.4548	1038.9046	1051.9793	1056.1544	1075.8414	1085.0074	1096.1294	1153.8468	1183.4073	1185.6232	1219.1942	1251.8244	1261.1333	1272.875	1294.5717	1324.0845	1331.1164	1394.0776	1424.5225	1462.3385	1480.548	1501.3285	1507.4363	3046.9816	3057.1575	3087.419	3101.069	3103.9789	3119.2217	3123.2905	3136.8229	3158.3773	3196.7861	3211.782
C1CC11C2C3CCC1N23	C1CC21[C@H]1[C@H]3CC[C@@H]2N13	
InChI=1S/C8H11N/c1-2-6-8(3-4-8)7-5(1)9(6)7/h5-7H,1-4H2	InChI=1S/C8H11N/c1-2-6-8(3-4-8)7-5(1)9(6)7/h5-7H,1-4H2/t5-,6+,7-,9?/m1/s1
