19
gdb 115420	4.40283	0.90108	0.82097	0.8189	78.28	-0.2594	0.0278	0.2873	1444.0555	0.157784	-422.996506	-422.987209	-422.986265	-423.031464	33.822	
C	 0.0318518412	 1.5357460726	 0.0960288629	-0.386453
C	 0.0143868847	 0.0075580795	 0.0132792114	-0.205662
C	 0.7543464971	-0.5167837569	-1.2003513558	 0.231063
O	 2.1301310897	-0.2128295599	-1.1210541615	-0.24593
C	 2.752594327	-1.1263853327	-1.9998275653	-0.128634
C	 1.8849230429	-2.413950013	-1.8531814403	-0.074141
O	 0.6771780091	-1.9348979456	-1.2539320577	-0.269603
C	 1.6481321696	-3.0931689316	-3.123005881	 0.331681
C	 1.4755325589	-3.6508717858	-4.1733372664	-0.465572
H	 1.0569930124	 1.910423786	 0.1591864201	 0.135847
H	-0.4372001433	 1.9876123649	-0.7849407626	 0.116043
H	-0.5141480717	 1.8826699509	 0.9776797324	 0.11646
H	 0.476449164	-0.4390240315	 0.8998780635	 0.111397
H	-1.0137521648	-0.3659786119	-0.0412637114	 0.112797
H	 0.3382836847	-0.0950451895	-2.1354799541	 0.065841
H	 2.7280560411	-0.7684229858	-3.0382278101	 0.110638
H	 3.7885142606	-1.2704583599	-1.6884503324	 0.125583
H	 2.3470483664	-3.1144895768	-1.1471434921	 0.115156
H	 1.3164667805	-4.149489553	-5.0975832497	 0.20349
32.2862	102.3103	133.7713	169.6009	210.9579	238.9194	256.2136	376.6528	471.3658	510.7526	556.2188	623.6878	667.5392	677.4422	709.2736	782.7684	860.6698	898.3873	943.7921	992.6946	1024.7456	1052.3853	1072.4578	1090.923	1115.0138	1143.1193	1178.398	1240.8121	1286.9935	1305.1943	1333.3653	1348.4075	1361.8841	1398.2723	1411.4831	1443.7308	1477.538	1499.7753	1509.4463	1514.1455	2237.5281	2920.6347	3012.9619	3031.4142	3039.9731	3049.8504	3088.6164	3108.9888	3118.8764	3124.0661	3502.6976
CCC1OCC(O1)C#C	CC[C@H]1OC[C@@H](O1)C#C	
InChI=1S/C7H10O2/c1-3-6-5-8-7(4-2)9-6/h1,6-7H,4-5H2,2H3	InChI=1S/C7H10O2/c1-3-6-5-8-7(4-2)9-6/h1,6-7H,4-5H2,2H3/t6-,7-/m0/s1
