17
gdb 38038	3.38641	1.65959	1.33392	2.438	72.66	-0.2433	-0.0118	0.2316	962.1918	0.138172	-421.801899	-421.795139	-421.794195	-421.833205	26.801	
C	 0.1050183419	 1.3373942138	 0.2399566548	-0.060773
C	 1.5118826519	 1.9034088178	-0.0930668597	-0.340697
C	 2.2385190828	 0.6079279859	-0.2342090131	 0.250894
C	 3.2766227223	 0.007202554	 0.3477984966	-0.235479
C	 3.0743166034	-1.4790971069	 0.2931569144	 0.007114
O	 1.9147998719	-1.8619885126	 1.0728354324	-0.249786
C	 1.7616209337	-1.7276476092	-0.3362181903	-0.008007
C	 1.2600133655	-0.3770228719	-0.8449681415	 0.07742
O	-0.02616518	 0.0872769711	-0.4564541248	-0.279146
H	 0.0149016122	 1.1692213576	 1.3212590266	 0.112283
H	-0.7094809101	 1.9933242269	-0.08180956	 0.107863
H	 1.4824475763	 2.4615146271	-1.0368124269	 0.117038
H	 1.8978666784	 2.558400433	 0.6902574586	 0.117627
H	 4.0578021661	 0.482143601	 0.9289564207	 0.105895
H	 3.8879026443	-2.1974890714	 0.2936112006	 0.101203
H	 1.5255110166	-2.6412909625	-0.8736671657	 0.098133
H	 1.3105568227	-0.3976778138	-1.9463426028	 0.078418
105.0596	154.6934	234.2025	355.5056	470.1989	502.1812	617.2372	662.343	693.185	749.7184	823.4231	837.2875	854.4908	872.5479	904.9003	923.8121	940.1068	966.6168	997.7129	1052.8197	1074.3173	1092.2437	1119.6478	1171.1194	1185.2877	1220.0237	1247.5328	1285.0315	1288.533	1299.647	1339.9914	1352.4758	1385.8034	1410.1875	1480.1251	1520.442	1722.812	2960.5283	3015.3265	3033.2007	3080.5782	3116.489	3155.851	3169.9998	3205.1663
C1CC2=CC3OC3C2O1	C1C[C]2[CH][C@H]3O[C@H]3[C@H]2O1	
InChI=1S/C7H8O2/c1-2-8-6-4(1)3-5-7(6)9-5/h3,5-7H,1-2H2	InChI=1S/C7H8O2/c1-2-8-6-4(1)3-5-7(6)9-5/h3,5-7H,1-2H2/t5-,6+,7-/m1/s1
