14
gdb 27967	3.055	1.30834	0.91604	4.7875	74.04	-0.2547	-0.0695	0.1852	1172.7255	0.102338	-436.75996	-436.752708	-436.751764	-436.791846	27.325	
O	 0.500792147	 1.23559759	-0.2738756104	-0.425581
C	 0.229831584	-0.074388123	-0.081926437	 0.419611
C	 0.2460297847	-0.9221742339	-1.1876338617	-0.253054
C	-0.0336185815	-2.2690932853	-0.983564887	 0.227397
C	-0.0294118014	-3.2199182362	-2.1340206842	 0.110636
O	 0.2063776834	-2.904269584	-3.2750929066	-0.257487
N	-0.3197070501	-2.8144804096	 0.2089121125	-0.32659
C	-0.3303331955	-1.9882186143	 1.2534230048	 0.005712
C	-0.0659699115	-0.6236852563	 1.1682935007	-0.255992
H	 0.4559566046	 1.7039216341	 0.5673934968	 0.305005
H	 0.4685063015	-0.5543781711	-2.1815039212	 0.139042
H	-0.267497889	-4.2617736063	-1.8364618499	 0.093518
H	-0.5621809969	-2.4306274905	 2.2193012465	 0.11779
H	-0.0907068593	-0.0036502036	 2.0597129568	 0.099993
122.9565	189.4297	199.988	258.171	407.8734	420.8075	461.1276	478.5991	531.7649	607.4445	673.1807	754.4302	785.4416	846.7999	933.1158	981.7135	983.5676	1006.8136	1051.9755	1115.1818	1168.6265	1207.4215	1300.8133	1332.7932	1353.9289	1399.4627	1471.1526	1513.6368	1617.3258	1639.9564	1809.5232	2934.0717	3155.2828	3175.6595	3220.9297	3810.0646
OC1=CC(C=O)=NC=C1	Oc1cc(C=O)ncc1	
InChI=1S/C6H5NO2/c8-4-5-3-6(9)1-2-7-5/h1-4H,(H,7,9)	InChI=1S/C6H5NO2/c8-4-5-3-6(9)1-2-7-5/h1-4H,(H,7,9)
