18
gdb 112221	2.06627	1.43283	0.94219	2.6521	79.63	-0.2664	0.0189	0.2853	1274.247	0.145837	-401.919337	-401.910084	-401.90914	-401.953757	33.91	
C	-0.161052199	 1.5486369302	-0.2342644205	-0.38999
C	-0.0373833095	 0.0277174155	-0.1020381458	-0.194709
C	-1.3536118727	-0.6265936543	 0.2553465755	 0.134706
O	-2.3610681872	-0.4677926586	-0.8051683351	-0.2645
C	-2.4642766235	-1.8252516327	-0.994626602	 0.441232
N	-3.1418970298	-2.4980658704	-1.8020399016	-0.537372
C	-1.4895011521	-2.1794224826	 0.1295296304	-0.364291
C	-0.3227755811	-2.9701580206	-0.1966474824	 0.357622
C	 0.6516615183	-3.6230895612	-0.4567056146	-0.457478
H	 0.7985773704	 1.9948554517	-0.5094188406	 0.119619
H	-0.8920514249	 1.811259988	-1.0041922312	 0.137924
H	-0.4854801603	 2.0056487675	 0.7071072827	 0.11642
H	 0.3350641147	-0.4103217358	-1.0341347128	 0.119388
H	 0.6897847897	-0.2339437391	 0.6765935442	 0.112708
H	-1.7584404628	-0.2315112106	 1.1925352084	 0.095681
H	-3.6990312982	-1.8986794808	-2.4131906598	 0.231212
H	-2.0205959746	-2.6150611378	 0.9816881265	 0.137446
H	 1.5052267626	-4.2074968584	-0.6975247814	 0.204381
77.9655	94.7303	115.8852	144.6408	212.3875	247.7547	351.4077	372.9751	440.7614	463.8836	558.6599	631.4375	649.9949	656.9261	743.5522	795.2029	809.7877	865.1709	904.577	922.8317	976.0778	1020.4368	1049.5327	1100.9117	1105.4847	1148.9574	1193.848	1221.8649	1282.4896	1300.774	1330.317	1358.7163	1407.486	1414.1118	1472.9935	1498.6433	1508.4139	1827.4919	2243.1161	3037.8154	3038.9919	3054.9056	3067.4595	3082.5584	3108.5615	3121.1435	3479.2081	3502.3397
CCC1OC(=N)C1C#C	CC[C@H]1O[C]([NH])[C@H]1C#C	
InChI=1S/C7H9NO/c1-3-5-6(4-2)9-7(5)8/h1,5-6,8H,4H2,2H3	InChI=1S/C7H9NO/c1-3-5-6(4-2)9-7(5)8/h1,5-6,8H,4H2,2H3/t5-,6+/m0/s1
