15
gdb 132616	3.16442	1.29395	0.91931	2.0483	72.89	-0.1906	0.005	0.1956	1162.2357	0.113184	-461.976456	-461.968695	-461.967751	-462.008295	30.689	
N	-0.035584824	 1.4288961299	-0.1430636949	-0.595773
C	-0.0314008686	 0.0316869403	-0.057447018	 0.225957
C	-1.2021277832	-0.7219199553	 0.020493841	-0.170225
C	-1.1780512135	-2.1168460604	 0.0443293496	-0.263435
C	 0.0443233683	-2.7602689676	-0.0122822819	 0.299225
F	 0.0974645039	-4.1008409721	 0.0084898908	-0.089581
C	 1.2356398225	-2.0476828816	-0.0880420992	-0.408304
C	 1.1940922152	-0.6594542177	-0.1088546046	 0.373192
O	 2.319580625	 0.1189344614	-0.1717111866	-0.46162
H	 0.8435560913	 1.8446659193	 0.1310842789	 0.25659
H	-0.8146334858	 1.8667856528	 0.3275012183	 0.243552
H	-2.1554382727	-0.2038683138	 0.0596748891	 0.09086
H	-2.0910795034	-2.6957558525	 0.105623379	 0.104267
H	 2.17966215	-2.5817598439	-0.1258580544	 0.095254
H	 3.098148425	-0.4460723187	-0.174178337	 0.300043
150.6306	236.4335	293.1471	308.3402	315.507	332.9035	382.5485	453.3351	459.6352	513.5977	584.0393	611.827	655.6483	726.6279	746.2004	801.6485	821.8689	835.5665	906.9003	985.2462	1080.0436	1151.5743	1175.0863	1192.0019	1287.6258	1321.4876	1347.6469	1386.025	1479.3285	1562.4946	1638.6361	1651.1039	1670.1578	3173.1022	3180.6805	3212.2081	3557.0612	3657.605	3836.6979
NC1=CC=C(F)C=C1O	Nc1ccc(F)cc1O	
InChI=1S/C6H6FNO/c7-4-1-2-5(8)6(9)3-4/h1-3,9H,8H2	InChI=1S/C6H6FNO/c7-4-1-2-5(8)6(9)3-4/h1-3,9H,8H2
