23
gdb 121802	3.27164	0.71446	0.67351	1.1493	88.81	-0.262	0.0386	0.3005	1808.3083	0.201529	-388.266287	-388.254776	-388.253832	-388.303087	42.048	
C	 0.1187937604	 1.5631627957	-0.1125481303	-0.380071
C	 0.038948965	 0.0356784465	-0.0456230767	-0.171177
C	-1.3987879567	-0.483983201	 0.0724547081	-0.174401
C	-1.4688899333	-2.0122746652	 0.153407664	-0.201673
C	-2.9020442482	-2.6012262048	 0.0709490465	 0.142664
C	-3.8091253271	-2.1088981425	 1.2069089281	-0.398548
O	-3.5478235709	-2.1820400398	-1.1391420723	-0.445098
C	-2.8087214129	-4.0705493014	 0.1008604949	 0.319907
C	-2.7064405547	-5.2687261099	 0.0933939263	-0.47629
H	 1.1544037138	 1.9064543197	-0.2000695824	 0.110402
H	-0.4352933289	 1.9505203774	-0.9747610429	 0.114773
H	-0.308965815	 2.0217837464	 0.7860069475	 0.113408
H	 0.5077794382	-0.396053496	-0.9399546584	 0.093037
H	 0.6287360928	-0.3253890246	 0.8075951634	 0.093815
H	-1.8650318801	-0.0379577759	 0.9598293569	 0.095099
H	-1.9875795283	-0.1469722938	-0.7885164813	 0.108677
H	-0.8879165335	-2.4484119609	-0.6703422234	 0.091427
H	-0.9980808109	-2.3703456884	 1.0770706049	 0.103899
H	-3.9547154094	-1.0296667394	 1.1238203005	 0.129008
H	-4.7841316344	-2.5954873572	 1.1382838387	 0.13185
H	-3.3672796027	-2.3380229575	 2.1797529993	 0.120906
H	-3.1115170525	-2.6310482492	-1.8715991829	 0.281918
H	-2.6292200306	-6.3280912183	 0.0932155515	 0.196468
59.1254	75.5685	97.5891	146.6768	175.2458	183.0218	237.7633	244.4965	283.6942	297.7636	355.1802	365.6883	400.591	476.765	566.9757	581.8886	628.3768	662.0766	738.5149	749.4764	791.4285	897.5734	906.3588	936.4323	953.7245	1022.248	1033.5472	1067.1162	1103.0153	1140.7693	1182.7229	1194.7013	1246.4133	1281.5077	1311.6676	1329.3467	1361.2001	1377.5767	1396.6921	1409.4736	1413.67	1473.2393	1484.1504	1487.0871	1497.2321	1498.9346	1500.0831	1513.908	2227.7342	3010.8903	3015.6632	3027.7032	3031.2705	3039.0789	3054.4146	3056.4934	3079.8382	3096.3346	3101.1922	3136.2762	3138.95	3500.0334	3806.7615
CCCCC(C)(O)C#C	CCCC[C@@](C)(O)C#C	
InChI=1S/C8H14O/c1-4-6-7-8(3,9)5-2/h2,9H,4,6-7H2,1,3H3	InChI=1S/C8H14O/c1-4-6-7-8(3,9)5-2/h2,9H,4,6-7H2,1,3H3/t8-/m0/s1
