23
gdb 58088	2.1678	1.27608	1.16356	1.716	81.44	-0.2323	-0.0137	0.2187	1264.3201	0.20098	-425.457269	-425.445811	-425.444867	-425.493393	42.23	
C	 0.0464506212	 1.616018633	-0.0200426081	-0.433807
C	 0.0465467329	 0.0773403361	-0.0209829088	 0.038758
C	 0.6355880339	-0.455416546	-1.333403256	-0.414554
C	 0.7716070978	-0.4877933676	 1.231817373	 0.244475
C	 0.8285483082	-2.0231561368	 1.2408935916	-0.414161
O	 2.131738131	-0.0602688336	 1.3013215881	-0.468653
C	-0.0116642601	-0.0889989014	 2.5096140131	 0.354682
C	 0.7937172867	 0.3600026027	 3.7138682366	-0.478407
O	-1.2188766454	-0.173176193	 2.5401721683	-0.321015
H	 1.0546032697	 2.0274675735	-0.1631975651	 0.10449
H	-0.5602044856	 1.995756624	-0.8473313922	 0.12433
H	-0.369436474	 2.0268078427	 0.9051018054	 0.125969
H	-0.9941382224	-0.2494797383	 0.0705212309	 0.102676
H	 1.7133668994	-0.2672708175	-1.3795116349	 0.120809
H	 0.4750443651	-1.5298752974	-1.452095625	 0.117494
H	 0.1683601062	 0.0424940072	-2.1889148291	 0.109697
H	 1.4626899821	-2.3789250927	 0.4267021468	 0.130923
H	 1.2596822619	-2.3834226498	 2.179927532	 0.121268
H	-0.1749371161	-2.4416312797	 1.1360649339	 0.134934
H	 2.1572275049	 0.8954202766	 1.1888389503	 0.280438
H	 1.637217406	-0.3102131664	 3.8981718501	 0.149944
H	 1.2256566127	 1.3502314605	 3.5266057186	 0.132581
H	 0.139158924	 0.4152241838	 4.5845063105	 0.137127
50.0391	76.909	153.4229	173.202	209.4044	230.0996	246.0688	256.7842	274.7171	312.5012	328.9155	344.4137	363.7162	413.5539	480.6344	515.1425	582.214	613.5425	681.095	812.5364	903.3693	927.4225	948.1853	968.5913	970.919	998.2251	1052.2543	1067.1179	1114.1223	1151.5881	1192.3189	1225.8834	1244.0993	1318.8534	1350.4729	1366.7558	1380.9447	1397.4928	1401.1817	1421.2267	1453.5773	1470.1285	1481.1388	1488.1096	1494.6463	1503.9053	1512.8941	1519.4518	1800.4493	3016.8894	3039.2851	3041.4968	3050.1564	3062.6419	3087.5796	3104.7064	3107.322	3110.7976	3115.4794	3122.0571	3145.1446	3156.95	3815.3978
CC(C)C(C)(O)C(C)=O	CC(C)[C@@](C)(O)C(=O)C	
InChI=1S/C7H14O2/c1-5(2)7(4,9)6(3)8/h5,9H,1-4H3	InChI=1S/C7H14O2/c1-5(2)7(4,9)6(3)8/h5,9H,1-4H3/t7-/m1/s1
