15
gdb 29055	2.71617	1.73511	1.05876	1.6925	85.23	-0.2153	-0.0606	0.1547	1059.4095	0.115435	-416.866875	-416.859587	-416.858643	-416.898687	28.331	
N	 0.00168507	 1.3223524712	 0.0084121416	-0.470772
C	-0.0359833172	-0.0156067541	 0.0010506897	 0.277121
N	-1.2189047224	-0.5879924615	 0.0046394189	-0.358901
C	-1.49534626	-1.9014201706	-0.0007044426	 0.004265
C	-0.6837885874	-3.0124978552	-0.0107386982	-0.113162
C	 0.7255712817	-3.0364527089	-0.0185936064	-0.067114
C	 1.6162335881	-1.9967791262	-0.0184711412	-0.179698
C	 1.3745451207	-0.5819464629	-0.0101937396	 0.327598
O	 2.295841277	 0.2386009118	-0.0114680362	-0.39782
H	 0.9176497397	 1.7489277621	 0.004822923	 0.285842
H	-0.8558136195	 1.8467798061	 0.0156423696	 0.268837
H	-2.5677625909	-2.0986445993	 0.0040154992	 0.107962
H	-1.1903905923	-3.9724543172	-0.0128329216	 0.095869
H	 1.1705205732	-4.0295662801	-0.0259324012	 0.109211
H	 2.6763966793	-2.2324803054	-0.025555075	 0.110761
80.4789	171.3438	353.3631	356.7481	390.2459	390.3632	441.6217	453.3219	522.5776	610.7552	673.4081	711.4955	740.653	767.4948	825.6609	900.9978	903.2724	949.5909	994.5207	1026.788	1031.5825	1168.9785	1236.9453	1280.825	1377.3116	1404.1561	1441.7725	1492.64	1509.6683	1576.9017	1618.1123	1652.2044	1694.0821	3120.9802	3145.9929	3177.8913	3183.9539	3561.6503	3729.9404
NC1=NC=CC=CC1=O	Nc1nccccc1=O	
InChI=1S/C6H6N2O/c7-6-5(9)3-1-2-4-8-6/h1-4H,(H2,7,8,9)	InChI=1S/C6H6N2O/c7-6-5(9)3-1-2-4-8-6/h1-4H,(H2,7,8,9)
