18
gdb 40855	5.01227	1.30853	1.20447	3.2679	76.32	-0.23	0.0678	0.2978	1057.0197	0.148561	-401.822203	-401.815278	-401.814334	-401.853793	27.51	
C	-0.0474923923	 1.4102525346	-0.3387256671	-0.077992
C	 1.4178655909	 1.5911343984	 0.1056080903	-0.380689
C	 1.2420416214	 0.1909576605	 0.7172023785	 0.533012
O	-0.1124453005	 0.1018268013	 0.2688523268	-0.322352
C	 2.1972933537	-0.988607983	 0.5474597802	-0.113216
C	 3.097945184	-0.5182226912	 1.7325060309	-0.068548
C	 2.9677688383	-1.9036190767	 2.3535289178	-0.183927
N	 1.5699071912	-1.7327980717	 1.7640571967	-0.156631
C	 1.6201750732	-0.2212158289	 2.1384062943	-0.113216
H	-0.7705025324	 2.1029505354	 0.1071482479	 0.106353
H	-0.2161961513	 1.3659034443	-1.4208303673	 0.106352
H	 2.1501837674	 1.6592292696	-0.7010176627	 0.115947
H	 1.5973859617	 2.394237828	 0.8228038462	 0.115948
H	 2.4947888688	-1.5401044277	-0.346278151	 0.083648
H	 3.941140103	 0.1801905975	 1.7014979227	 0.06757
H	 3.5321971696	-2.7281574799	 1.9055526602	 0.102046
H	 2.9735774742	-1.985362742	 3.4455041591	 0.102046
H	 1.2435274492	 0.1236919817	 3.1030795365	 0.083648
75.4127	154.0552	234.8549	317.2811	442.0508	484.4886	549.2439	727.0227	784.0193	786.8403	835.3379	836.0322	868.5535	884.6113	899.6537	926.461	968.3792	1021.0393	1030.9889	1031.7784	1068.8894	1070.8764	1097.0558	1105.9033	1142.565	1156.4546	1164.1861	1176.4053	1192.5328	1200.1556	1226.8872	1256.4405	1273.8877	1286.1613	1352.8069	1369.1402	1485.8195	1520.3005	1532.6764	3024.2515	3032.2645	3045.784	3065.0151	3075.7053	3093.4677	3100.5425	3106.6685	3129.658
C1CC2(O1)C1C3CN1C23	C1C[C@@]2(O1)[C@H]1[C@@H]3CN1[C@H]23	
InChI=1S/C7H9NO/c1-2-9-7(1)5-4-3-8(5)6(4)7/h4-6H,1-3H2	InChI=1S/C7H9NO/c1-2-9-7(1)5-4-3-8(5)6(4)7/h4-6H,1-3H2/t4-,5+,6-,7+
