14
gdb 27602	3.69779	1.19897	0.9054	0.9106	81.82	-0.2406	-0.0489	0.1917	1193.6543	0.102294	-399.590205	-399.582899	-399.581954	-399.621929	28.417	
O	 0.0811469568	 1.3493065538	-0.0609213611	-0.419357
C	 0.0668840767	 0.0012604029	-0.0387474324	 0.459127
C	 0.0428817999	-0.6848093045	-1.2558850081	-0.318297
C	 0.0283311426	-2.078560407	-1.2190434065	 0.189504
C	 0.0385358616	-2.7171559738	 0.0353459144	-0.224957
C	 0.062557993	-1.9281948135	 1.1722344261	 0.007403
N	 0.0767327554	-0.5891424527	 1.1510849892	-0.365025
C	 0.0036901818	-2.8388239221	-2.423732137	 0.214209
C	-0.0171140627	-3.4858004487	-3.4385067929	-0.387745
H	 0.0968040234	 1.6294954906	 0.865078735	 0.298814
H	 0.035998018	-0.1413549218	-2.1912759248	 0.12078
H	 0.0278028698	-3.797022062	 0.1037127466	 0.10901
H	 0.0710436085	-2.3866043639	 2.1576205873	 0.11599
H	-0.0354127647	-4.0553440373	-4.3347654959	 0.200543
136.4482	144.6661	219.8686	369.4235	400.0159	462.9706	479.5932	543.9457	552.7785	575.9334	620.0989	644.4672	678.0895	762.1313	767.4539	849.0412	899.4471	968.5286	984.1597	1006.3555	1122.2717	1167.1128	1214.8751	1300.531	1327.5308	1357.2749	1482.4001	1515.89	1588.2578	1653.9889	2231.5292	3164.0163	3220.8742	3223.2999	3501.4822	3765.3262
OC1=CC(=CC=N1)C#C	Oc1cc(ccn1)C#C	
InChI=1S/C7H5NO/c1-2-6-3-4-8-7(9)5-6/h1,3-5H,(H,8,9)	InChI=1S/C7H5NO/c1-2-6-3-4-8-7(9)5-6/h1,3-5H,(H,8,9)
