15
gdb 46637	2.97105	1.71439	1.1713	5.2038	67.35	-0.2443	-0.0185	0.2258	995.3331	0.11412	-457.787314	-457.780379	-457.779435	-457.819016	26.123	
O	-0.0423620104	-0.0169187689	 0.0329703075	-0.317516
C	 0.0179505119	 1.1710926563	 0.0999796356	 0.413602
O	-1.0854733047	 1.9498121832	 0.3600519015	-0.238576
C	-0.740651978	 3.350838617	 0.5506767259	-0.173414
C	 0.7446846839	 3.3114130182	 0.6692537659	 0.25988
C	 1.7095131138	 3.7181436001	 1.4816414018	-0.246049
C	 2.9194474357	 2.8356792267	 1.2595563063	-0.109292
O	 2.4589582412	 1.7570552834	 0.4280765028	-0.267464
C	 1.2096489035	 2.1215280427	-0.1090543034	-0.069584
H	-1.0981059802	 3.9139333228	-0.3196978671	 0.132291
H	-1.2572524143	 3.7103781908	 1.4432813458	 0.141059
H	 1.6645788468	 4.48577978	 2.2433538884	 0.120937
H	 3.7530351479	 3.3600929512	 0.7659847393	 0.115314
H	 3.3008192992	 2.4215147357	 2.20169348	 0.127735
H	 1.2874754935	 2.3039003709	-1.1964920502	 0.111078
97.9052	153.9247	245.2476	259.5681	336.2229	514.2734	576.4513	607.2681	646.8798	729.2057	787.2027	815.4578	899.4196	926.8673	954.6523	987.7939	1004.6028	1023.2891	1038.4805	1078.7242	1159.1275	1187.9669	1198.7581	1203.6571	1248.67	1304.6615	1343.1373	1367.7992	1388.835	1509.7004	1514.2312	1756.4445	1904.7614	2937.1563	2980.5356	3035.8245	3039.1947	3107.5988	3221.2748
O=C1OCC2=CCOC12	O=C1OC[C]2[CH]CO[C@@H]12	
InChI=1S/C6H6O3/c7-6-5-4(3-9-6)1-2-8-5/h1,5H,2-3H2	InChI=1S/C6H6O3/c7-6-5-4(3-9-6)1-2-8-5/h1,5H,2-3H2/t5-/m1/s1
