19
gdb 27754	2.2321	1.77065	1.01482	1.4071	86.	-0.167	0.0547	0.2217	1185.4487	0.160738	-382.07284	-382.064018	-382.063073	-382.106401	32.758	
C	-0.011770211	 1.5040482906	 0.0036391195	-0.500581
C	-0.0207564932	 0.0061787395	-0.0014934273	 0.126531
C	-0.0922018071	-0.8495789314	-1.0696845014	 0.203661
C	 0.2019811769	-1.255884529	-2.5068045924	-0.36214
C	 0.3873087593	-2.7037198113	-1.9178884263	-0.170972
N	-0.0579628207	-2.1551722337	-0.6202319855	-0.033655
C	 0.0725779051	-2.1837693652	 0.7396795713	 0.243888
N	 0.2307767027	-3.3922765472	 1.4417932486	-0.603933
C	 0.0357070998	-0.8619622844	 1.1532267711	-0.292025
H	 0.845979171	 1.9011422156	 0.5595026779	 0.119037
H	 0.0404869644	 1.900570545	-1.0148832366	 0.113593
H	-0.9130621171	 1.922195291	 0.4696139489	 0.119601
H	-0.6188213937	-1.1578364289	-3.2234654776	 0.11423
H	 1.1080943577	-0.8333576733	-2.9485563272	 0.119824
H	-0.2588126299	-3.4896675955	-2.3188332804	 0.114311
H	 1.4246683336	-3.0499415188	-1.9054454228	 0.128573
H	-0.545788063	-4.0296530654	 1.2941437848	 0.241693
H	 0.3113805575	-3.2186565874	 2.4360221176	 0.244384
H	-0.0046082223	-0.5387276002	 2.1846458378	 0.07398
93.8851	101.9079	178.9531	187.2776	213.1609	240.9608	272.9713	363.2408	574.7288	586.6594	631.1255	642.8876	673.4868	724.9164	745.2327	803.2232	824.0421	910.2806	937.1912	992.4062	1044.8797	1060.6274	1105.3098	1136.6661	1145.757	1184.3003	1204.4395	1212.9655	1235.291	1268.7542	1336.0033	1373.944	1416.825	1471.5971	1482.4987	1492.0693	1498.3539	1518.6766	1570.1808	1640.1903	1652.6993	3016.4921	3049.32	3054.2784	3061.8769	3093.2912	3098.9392	3109.3464	3219.9562	3498.4111	3603.5262
CC1=C2CCN2C(N)=C1	Cc1c2CCn2c(N)c1	
InChI=1S/C7H10N2/c1-5-4-7(8)9-3-2-6(5)9/h4H,2-3,8H2,1H3	InChI=1S/C7H10N2/c1-5-4-7(8)9-3-2-6(5)9/h4H,2-3,8H2,1H3
