16
gdb 131491	3.91682	1.13439	0.99636	2.0638	71.17	-0.2491	-0.0067	0.2425	1173.8971	0.124943	-437.859554	-437.851938	-437.850994	-437.892131	28.925	
O	 0.0599891654	 1.3569582155	 0.7486454157	-0.414206
C	 0.0235462185	 0.0690420261	 0.213383798	 0.100926
C	-0.4892180123	-1.0007614178	 1.1141125559	-0.314056
C	-1.3143408183	-0.5917825689	-0.0996638544	-0.161467
C	-2.5844422375	 0.1381115648	 0.0521161069	 0.403841
N	-3.5613736173	-0.1037326787	-0.7972213441	-0.217113
O	-4.6158910508	 0.7217822298	-0.413535208	-0.166227
C	-4.23785553	 1.4344183786	 0.6556610611	 0.081242
C	-2.9675703786	 1.126430574	 1.0127609564	-0.356107
H	-0.138134981	 1.9820023497	 0.0424268322	 0.293903
H	 0.8483699797	-0.1741790802	-0.4556121286	 0.099186
H	-0.0159542336	-1.9756197907	 1.1044069853	 0.12492
H	-0.8528183213	-0.6760097975	 2.0825328567	 0.132834
H	-1.321227481	-1.279376726	-0.9382347672	 0.108791
H	-4.9747422446	 2.1170689965	 1.0503688461	 0.149206
H	-2.3770398072	 1.5332922647	 1.8141546681	 0.134328
67.9039	136.7629	176.2494	277.5566	340.0191	373.2083	451.5113	520.7728	612.5573	666.72	756.0501	781.1116	810.4096	853.6827	873.5331	907.2967	922.8852	951.1574	996.4428	1020.9689	1041.0581	1066.8832	1096.2456	1130.736	1162.2359	1175.0274	1230.3707	1292.6358	1301.0268	1367.9888	1423.351	1444.7913	1483.2368	1499.2006	1607.8056	3105.9508	3142.807	3175.0836	3234.2174	3262.2461	3303.9302	3799.8578
OC1CC1C1=NOC=C1	O[C@H]1C[C@H]1c1nocc1	
InChI=1S/C6H7NO2/c8-6-3-4(6)5-1-2-9-7-5/h1-2,4,6,8H,3H2	InChI=1S/C6H7NO2/c8-6-3-4(6)5-1-2-9-7-5/h1-2,4,6,8H,3H2/t4-,6-/m0/s1
