18
gdb 55712	2.50036	1.18863	1.01525	3.2196	79.37	-0.2423	0.0226	0.2649	1268.4132	0.144687	-401.933423	-401.923543	-401.922599	-401.969139	35.722	
C	 0.1226829709	 1.4845134614	-0.0206788007	-0.495318
C	-0.3305221986	 0.0314470656	-0.033280563	 0.39603
O	-1.1524961142	-0.4103196487	 0.7418398214	-0.35358
N	 0.2696316705	-0.7342933315	-1.0110087168	-0.381164
C	 0.1593258727	-2.1674906877	-1.0617067553	 0.177319
C	-1.2281047969	-2.7386661278	-1.2749133219	-0.264446
C	-0.2475485341	-2.7645627778	-2.406072878	-0.312518
C	 1.0990920228	-2.8996090277	-0.2490180867	 0.331299
C	 1.9028121107	-3.4981895155	 0.4159934138	-0.495023
H	 1.025057754	 1.5778050658	 0.5936184402	 0.149541
H	 0.3522050354	 1.8622797106	-1.0212344915	 0.122916
H	-0.6615700811	 2.0920104528	 0.4311534684	 0.152255
H	 1.0486074058	-0.3283266014	-1.5071545745	 0.244519
H	-1.4531587189	-3.6641319206	-0.7601524381	 0.135696
H	-2.0357134936	-2.0195014463	-1.2989322608	 0.143977
H	-0.3840161223	-2.0601007004	-3.2187135432	 0.121124
H	 0.2093173506	-3.7074397151	-2.6808114869	 0.13042
H	 2.6004930062	-4.0258088959	 1.0178195835	 0.196954
45.228	61.3094	77.5664	159.4298	184.3863	216.5239	338.5508	351.9983	409.8497	491.2532	545.0462	555.396	584.1259	597.5897	625.4592	665.1122	740.0323	778.9003	871.6542	926.0941	942.5398	979.072	1012.8169	1043.3068	1050.8614	1067.9585	1088.0872	1191.5049	1252.3493	1292.7994	1308.5473	1387.4494	1458.3049	1466.9895	1485.3264	1487.9748	1510.9451	1799.723	2233.6886	3044.023	3109.349	3143.6876	3156.7256	3164.0319	3235.0632	3258.6075	3502.6794	3610.3648
CC(=O)NC1(CC1)C#C	CC(=O)NC1(CC1)C#C	
InChI=1S/C7H9NO/c1-3-7(4-5-7)8-6(2)9/h1H,4-5H2,2H3,(H,8,9)	InChI=1S/C7H9NO/c1-3-7(4-5-7)8-6(2)9/h1H,4-5H2,2H3,(H,8,9)
