14
gdb 45814	3.10474	1.70811	1.18519	3.162	63.72	-0.264	-0.0243	0.2396	970.9989	0.101497	-473.832658	-473.82563	-473.824686	-473.864708	26.257	
O	 0.036534192	 0.0288455019	-0.3449823331	-0.322352
C	 0.0136018248	 1.1683530331	-0.0093229305	 0.475197
O	-1.1694682132	 1.7334040431	 0.3970208437	-0.233266
C	-1.3386565625	 2.9081037227	 1.1073490571	 0.133369
N	-0.7986981241	 4.0327937757	 0.9739785256	-0.224169
C	 0.1867898785	 4.277677737	-0.0279745929	-0.005455
C	 1.6482663038	 4.3254079719	 0.3521498115	-0.31373
C	 1.1346789491	 3.2171210663	-0.5180648099	 0.061023
O	 1.1153480464	 1.9391509073	 0.0847447467	-0.243943
H	-2.1287106484	 2.7558554083	 1.8383599956	 0.14869
H	-0.1445724205	 5.0181845953	-0.7510257639	 0.124342
H	 2.279017469	 5.0880871918	-0.0884766681	 0.131395
H	 1.8923823415	 4.0483958684	 1.3713659233	 0.145382
H	 1.4113390835	 3.1688324472	-1.5672884052	 0.123517
65.4446	126.8362	249.7277	323.8442	371.2646	441.9796	528.6525	573.1268	715.4677	730.1494	777.9652	797.6726	814.2913	882.07	912.5471	964.4073	1023.8356	1053.4931	1075.1797	1088.4966	1124.7953	1134.3999	1153.8072	1189.4195	1246.6397	1373.9367	1391.9513	1425.4849	1475.2542	1760.7725	1894.9828	3143.3466	3145.9646	3153.514	3179.831	3241.2668
O=C1OC=NC2CC2O1	O=C1OC=N[C@H]2C[C@H]2O1	
InChI=1S/C5H5NO3/c7-5-8-2-6-3-1-4(3)9-5/h2-4H,1H2	InChI=1S/C5H5NO3/c7-5-8-2-6-3-1-4(3)9-5/h2-4H,1H2/t3-,4+/m0/s1
