19
gdb 54825	2.63708	1.33856	1.09787	1.9342	77.27	-0.2304	-0.0117	0.2187	1178.5976	0.157527	-423.014519	-423.005471	-423.004527	-423.048556	34.	
C	-0.0249412231	 1.461312578	-0.185535061	-0.480761
C	 0.1568505254	-0.0488570076	-0.222080761	 0.374385
O	 1.2601210523	-0.5461439678	-0.3369374823	-0.328703
C	-1.099111498	-0.8430181853	-0.0998081769	-0.186612
C	-1.4400755999	-2.1212946401	-0.8832098059	-0.132237
C	-0.2087736423	-3.0157226553	-1.0861541194	-0.216249
C	-0.039155563	-3.1001882571	 0.4669254875	-0.292739
C	-1.2679085678	-2.1892336766	 0.6073754966	 0.369923
O	-2.2651228345	-2.3523904999	 1.5489280958	-0.451191
H	 0.9439663738	 1.9531759828	-0.2776734404	 0.138634
H	-0.6840652166	 1.7849530115	-0.9993612481	 0.139643
H	-0.5065414887	 1.7655269363	 0.7512049884	 0.134964
H	-1.9928453566	-0.2412167898	 0.0442153411	 0.090099
H	-2.3481771451	-2.1364873796	-1.4739890575	 0.098309
H	-0.4789149144	-3.9782961979	-1.5257325904	 0.103152
H	 0.6238920049	-2.5800465449	-1.6366015727	 0.126805
H	-0.2629518795	-4.0984635278	 0.8501113238	 0.105795
H	 0.90198568	-2.7398357998	 0.8819092235	 0.119555
H	-1.9519586766	-1.9980784191	 2.3891582389	 0.287228
43.4885	137.9145	162.5357	190.852	243.3138	287.0667	310.199	377.6393	400.0018	445.8238	586.2272	609.2253	638.0372	717.8227	790.0852	812.8535	883.0064	915.8761	946.8451	952.2289	966.8624	1020.9728	1038.3196	1054.0566	1085.2921	1131.4641	1187.7952	1193.5057	1216.8379	1231.3091	1246.3102	1285.2791	1312.9695	1359.8462	1378.3096	1456.9345	1464.5784	1468.6299	1475.6102	1500.0684	1781.0159	3032.1754	3073.4959	3081.8013	3091.9425	3137.0828	3146.637	3150.4971	3152.1572	3185.5811	3787.8102
CC(=O)C1C2CCC12O	CC(=O)[C@H]1[C@H]2CC[C@@]12O	
InChI=1S/C7H10O2/c1-4(8)6-5-2-3-7(5,6)9/h5-6,9H,2-3H2,1H3	InChI=1S/C7H10O2/c1-4(8)6-5-2-3-7(5,6)9/h5-6,9H,2-3H2,1H3/t5-,6+,7+/m1/s1
