16
gdb 128222	5.15184	1.04922	0.88103	2.276	79.31	-0.1995	-0.0531	0.1464	1281.3534	0.125973	-430.265797	-430.257466	-430.256522	-430.298819	30.987	
C	 0.0798199744	 1.3860522482	 0.184653799	-0.32851
N	-0.0572755872	-0.0023521082	-0.2041777007	-0.351613
C	-1.2502535226	-0.6797880151	-0.0749062379	 0.389711
C	-2.5088985244	-0.0505539729	-0.0012298813	-0.07039
N	-3.6189057223	-0.7574094902	 0.0841252726	-0.286341
C	-3.4567088712	-2.0927673373	 0.0967847488	 0.446537
N	-4.5823979807	-2.868456769	 0.2463791926	-0.55404
N	-2.2831112729	-2.7342328807	 0.0177437098	-0.254434
N	-1.1762830787	-2.0156867995	-0.0589005344	-0.264884
H	 1.1297666995	 1.6716177544	 0.096521081	 0.135221
H	-0.4918810923	 2.0390707666	-0.4847511848	 0.135046
H	-0.2478374258	 1.5862600225	 1.2167002754	 0.120568
H	 0.7388138907	-0.6008867244	-0.0398594081	 0.247804
H	-2.6092059079	 1.0315887529	-0.0172120475	 0.115063
H	-5.4460606827	-2.4294696467	-0.0297853238	 0.258708
H	-4.471821906	-3.8324876405	-0.0263212606	 0.261555
73.4862	118.2715	184.1802	204.5528	348.6711	381.8	403.8246	426.2887	467.919	489.4534	513.3639	592.54	609.502	672.6998	798.4945	829.6667	885.5746	947.0369	1047.2605	1071.5224	1086.0906	1150.8421	1181.3617	1188.0376	1312.6851	1360.3618	1428.0713	1450.3647	1475.3448	1486.1107	1515.3732	1528.6715	1568.3025	1621.7622	1641.2989	2982.9016	3055.9001	3126.8557	3159.0653	3591.0399	3607.9854	3711.0703
CNC1=CN=C(N)N=N1	CNc1cnc(N)nn1	
InChI=1S/C4H7N5/c1-6-3-2-7-4(5)9-8-3/h2H,1H3,(H,6,8)(H2,5,7,9)	InChI=1S/C4H7N5/c1-6-3-2-7-4(5)9-8-3/h2H,1H3,(H,6,8)(H2,5,7,9)
