13
gdb 21014	5.71281	1.64496	1.28764	7.214	65.36	-0.2308	-0.0606	0.1702	884.5875	0.095927	-394.770412	-394.763469	-394.762525	-394.802076	24.756	
C	-0.0113990905	 1.472242189	 0.0095882304	-0.330823
N	-0.0475198262	 0.0170249211	 0.0012846394	-0.01423
C	-1.2127508852	-0.6898958072	 0.0045944819	 0.078859
C	-1.1858142962	-2.0388974861	-0.0030741476	-0.278077
C	 0.0978436004	-2.7150967874	-0.01474756	 0.422646
O	 0.262076414	-3.9156482274	-0.0223354909	-0.346715
N	 1.2558058387	-1.8513014477	-0.017229182	-0.245084
N	 1.1708656945	-0.5933351513	-0.0096946851	-0.04316
H	 1.0371217779	 1.7673021016	 0.0029224641	 0.175738
H	-0.510664921	 1.8757461683	-0.876417689	 0.150636
H	-0.4963314782	 1.8653481959	 0.9081606142	 0.150663
H	-2.1239077356	-0.1008336027	 0.0134985256	 0.146226
H	-2.0953440924	-2.6250528962	-0.0007376811	 0.133323
68.7747	104.0996	218.2358	340.9759	405.077	479.0591	483.6615	503.6376	655.4523	767.1765	771.2264	793.6557	856.4982	937.4803	980.5786	1027.354	1150.5844	1152.6384	1206.109	1270.8724	1325.8969	1438.2204	1462.2909	1487.2174	1500.155	1523.1656	1668.8748	1795.1611	3043.9247	3108.474	3169.6025	3184.1153	3226.836
CN1C=CC(=O)N=N1	Cn1ccc(=O)nn1	
InChI=1S/C4H5N3O/c1-7-3-2-4(8)5-6-7/h2-3H,1H3	InChI=1S/C4H5N3O/c1-7-3-2-4(8)5-6-7/h2-3H,1H3
