15
gdb 27935	2.53555	1.3268	0.87283	4.8194	73.97	-0.1855	-0.0163	0.1692	1232.339	0.112899	-453.989548	-453.980923	-453.979979	-454.022564	31.968	
N	 0.1075453767	 1.3683807478	 0.2095223656	-0.605367
C	-0.0064907594	-0.0101597898	 0.0391083699	 0.244818
C	-1.1016405035	-0.8663449651	-0.0006357982	 0.170428
C	-2.4879839317	-0.4738372488	-0.0043827424	 0.0584
O	-3.4396209937	-1.2310541767	-0.04496458	-0.310736
C	-0.5880185915	-2.2180636845	-0.0844239498	-0.418998
C	 0.7656425765	-2.1169105535	-0.108659654	 0.399997
O	 1.7874429271	-3.003486582	-0.1882083892	-0.434372
N	 1.1234766223	-0.7799087338	-0.0369846925	-0.339394
H	 0.6418464953	 1.8262938035	-0.5213077811	 0.253022
H	-0.7946203564	 1.8165058035	 0.2959756718	 0.26156
H	-2.6579153707	 0.63128739	 0.0261010563	 0.022045
H	-1.1878374656	-3.1114598707	-0.140863151	 0.117466
H	 1.4151742138	-3.8892630629	-0.2412425689	 0.312
H	 2.0663512809	-0.4512432868	 0.0888424933	 0.269131
136.3068	167.0584	203.7724	219.3569	225.3536	257.6702	300.1099	402.9575	419.8625	445.9344	562.0969	639.1668	646.9845	667.2143	674.2366	754.5695	774.6194	861.0013	1018.9239	1026.4705	1090.6352	1155.1921	1186.2232	1194.7573	1296.6749	1376.1344	1425.9828	1497.4562	1523.2049	1596.3148	1654.6176	1663.5207	1766.6989	2804.7856	3268.8007	3514.3948	3625.2593	3667.8011	3844.6163
NC1=C(C=O)C=C(O)N1	Nc1c(C=O)cc(O)[nH]1	
InChI=1S/C5H6N2O2/c6-5-3(2-8)1-4(9)7-5/h1-2,7,9H,6H2	InChI=1S/C5H6N2O2/c6-5-3(2-8)1-4(9)7-5/h1-2,7,9H,6H2
