16
gdb 39538	4.17466	1.58109	1.31335	1.6841	73.32	-0.2269	0.0025	0.2294	945.5381	0.127057	-400.751134	-400.744873	-400.743929	-400.781481	25.865	
C	-0.0437132871	 1.4859283762	-0.0054698242	-0.29481
C	 1.3989362883	 1.9641659766	 0.006321047	-0.07495
C	 2.2704008164	 0.9514078223	 0.0118429464	-0.196455
C	 1.5450700461	-0.3307201532	 0.0743540741	 0.429273
O	 2.0622366203	-1.5405078931	-0.4393190602	-0.254747
C	 1.4097031617	-2.5079261771	 0.2635072646	 0.079538
N	 0.6181081718	-2.1678069003	 1.2014690261	-0.261923
C	 0.6285519402	-0.7235134555	 1.2311100636	-0.079592
C	 0.0568375101	-0.0422451671	 0.0024482607	-0.145832
H	-0.5987833691	 1.8715174303	 0.8598247607	 0.119671
H	-0.5782804168	 1.8411093481	-0.8952443619	 0.118366
H	 1.661664456	 3.0139786477	 0.0567465013	 0.104413
H	 3.3502103663	 1.0215789716	 0.0380542536	 0.110071
H	 1.6407094695	-3.5213315944	-0.0397652963	 0.143624
H	 0.6085611904	-0.2449229528	 2.2054070229	 0.101644
H	-0.601665124	-0.6305072993	-0.6266167784	 0.101707
208.2425	235.0932	316.6609	379.3875	470.5888	495.4384	598.1822	698.1773	728.7069	754.875	804.0597	855.4448	904.0577	913.1707	920.3088	942.9246	956.4977	987.5249	1011.0686	1036.1955	1058.771	1072.4126	1123.2429	1127.5119	1184.0921	1215.9372	1253.5309	1265.5162	1300.6228	1335.2076	1369.2349	1397.5482	1472.2003	1651.4289	1663.6074	3021.6425	3049.2723	3155.1074	3174.4096	3201.8605	3227.1897	3234.7113
C1C=CC23OC=NC2C13	C1C=C[C@@]23OC=N[C@@H]2[C@@H]13	
InChI=1S/C7H7NO/c1-2-5-6-7(5,3-1)9-4-8-6/h1,3-6H,2H2	InChI=1S/C7H7NO/c1-2-5-6-7(5,3-1)9-4-8-6/h1,3-6H,2H2/t5-,6-,7+/m1/s1
