18
gdb 73180	2.47673	1.43104	1.29975	4.3346	75.91	-0.2389	0.0128	0.2517	1071.2201	0.148906	-398.094545	-398.086137	-398.085193	-398.127669	31.992	
N	 0.2050086504	 1.3382803138	-0.076906937	-0.595895
C	-0.0103583669	-0.0855489693	-0.0536464135	 0.293066
C	 0.2792355932	-0.9944264273	-1.2971381624	-0.297047
C	-1.1997816147	-1.497184116	-1.2763476784	-0.203204
C	-1.4251813885	-0.7477443017	 0.054218689	-0.02999
N	-0.950814409	-1.548695764	 1.2184129017	-0.318437
C	 0.2910020174	-0.7435942148	 1.3273200085	-0.146838
C	 1.5275263396	-1.5117913412	 1.4812036725	 0.297215
N	 2.519128055	-2.0978065767	 1.5811314843	-0.335853
H	 1.202692131	 1.5382297835	-0.0299785787	 0.236331
H	-0.1155550848	 1.7264734157	-0.9604822992	 0.231762
H	 0.5488291473	-0.4185232134	-2.1862839015	 0.098603
H	 1.0410300096	-1.7615084886	-1.1399109452	 0.128576
H	-1.7953699413	-1.0925558286	-2.0995678602	 0.098175
H	-1.3469663773	-2.5766304335	-1.2200240043	 0.115082
H	-2.3435438875	-0.1775946775	 0.2092880691	 0.075628
H	-1.5377536161	-1.4992696839	 2.0420375333	 0.232328
H	 0.2600369027	 0.0314485134	 2.1026755519	 0.120498
69.7474	128.863	157.3184	206.2179	290.2872	356.6172	372.5868	407.5674	538.0719	540.5529	581.764	668.0368	725.4708	752.4561	855.6488	867.8822	875.0031	901.7053	948.2717	968.4029	1028.953	1037.9405	1059.0119	1087.2667	1126.8221	1164.042	1196.9718	1220.0014	1237.2781	1267.9219	1284.9624	1315.4859	1350.9483	1366.9463	1396.8302	1465.3235	1485.4777	1651.612	2351.9465	3033.2536	3058.6191	3064.6754	3088.2957	3113.5298	3132.808	3465.5087	3543.2371	3554.2443
NC12CCC1NC2C#N	N[C@]12CC[C@H]1N[C@H]2C#N	
InChI=1S/C6H9N3/c7-3-5-6(8)2-1-4(6)9-5/h4-5,9H,1-2,8H2	InChI=1S/C6H9N3/c7-3-5-6(8)2-1-4(6)9-5/h4-5,9H,1-2,8H2/t4-,5+,6-/m1/s1
