19
gdb 73214	2.46922	1.76436	1.31997	2.2027	75.18	-0.2445	0.0072	0.2517	1017.2853	0.160187	-423.016888	-423.008958	-423.008013	-423.049423	31.185	
O	 0.2597982014	 1.2929647872	 0.0103221541	-0.482395
C	 0.104350138	-0.1063305819	-0.0346699357	 0.344373
C	 0.0581135849	-0.6622464168	-1.4669169555	-0.117461
O	-1.1531908821	-1.3940301574	-1.1726020454	-0.298821
C	-1.3428872549	-0.656000591	 0.0593020502	 0.097567
C	-1.7014038836	-1.5236184989	 1.2747679109	-0.295489
C	-0.8576545059	-1.1445956358	 2.4704907053	-0.04998
C	 0.429571222	-0.8220661075	 2.3244873708	-0.090251
C	 1.0479747382	-0.8225014824	 0.9454667226	-0.319842
H	 0.2098376799	 1.5632127933	 0.9345624669	 0.278776
H	-0.1020631674	 0.1252219713	-2.2138753212	 0.106457
H	 0.8714788449	-1.3220141022	-1.7879732029	 0.101215
H	-2.0724851005	 0.1527036639	-0.080251103	 0.077668
H	-2.7674230854	-1.4574027832	 1.5094654855	 0.106802
H	-1.5061660007	-2.5679315533	 0.9948622736	 0.128384
H	-1.3205516904	-1.1585069842	 3.4528355147	 0.093023
H	 1.0450766218	-0.5732514833	 3.1836217502	 0.091517
H	 1.1965367052	-1.8571951802	 0.6070308236	 0.119589
H	 2.0270882947	-0.3352997877	 0.9270902854	 0.108869
65.3077	120.3003	251.7949	315.5748	330.215	381.2236	412.5603	455.7689	470.5868	542.5496	633.6951	702.2159	775.9343	795.0953	889.0445	922.4871	948.4735	968.654	988.2759	994.5312	1008.3674	1022.3555	1056.6556	1087.3862	1129.857	1146.8113	1176.1548	1202.9881	1226.9219	1234.6703	1282.0689	1303.0222	1331.1336	1352.9919	1370.0639	1400.9371	1407.3391	1470.7348	1480.0592	1516.8493	1696.4117	3009.7461	3012.8286	3018.9123	3022.7213	3074.9186	3083.5119	3085.9137	3160.674	3183.702	3792.8077
OC12COC1CC=CC2	O[C@]12CO[C@H]1CC=CC2	
InChI=1S/C7H10O2/c8-7-4-2-1-3-6(7)9-5-7/h1-2,6,8H,3-5H2	InChI=1S/C7H10O2/c8-7-4-2-1-3-6(7)9-5-7/h1-2,6,8H,3-5H2/t6-,7+/m0/s1
