17
gdb 52210	3.56154	0.79369	0.73815	3.6792	76.48	-0.2596	0.007	0.2666	1526.4865	0.133673	-421.798052	-421.788799	-421.787855	-421.833427	32.919	
O	 0.1898639293	 0.3049232847	-0.8899809648	-0.273957
C	 0.2430242661	 1.4610918657	-0.5976819635	 0.174915
O	 0.9267344977	 1.9139234815	 0.4690540092	-0.175253
C	 0.9803507447	 3.3330290247	 0.6834704239	-0.121448
C	 2.3361135055	 3.8689335497	 0.3064834911	-0.009958
C	 2.6327256292	 4.2777492296	-1.1067608668	-0.289454
C	 2.5037983229	 5.346594861	-0.0314733463	-0.196617
C	 1.3805242969	 6.2395126807	-0.0294776572	 0.326892
C	 0.4449696072	 6.9960892049	-0.0221085048	-0.46486
H	-0.2667994974	 2.2717623823	-1.1557372663	 0.075199
H	 0.19094856	 3.8363997788	 0.1136150035	 0.123443
H	 0.7778801269	 3.4858613886	 1.7470643563	 0.132055
H	 3.1552976396	 3.4305524316	 0.8678932503	 0.112057
H	 3.6204421922	 4.0848226027	-1.5085505211	 0.13106
H	 1.8290840482	 4.2223488911	-1.832806297	 0.130055
H	 3.4335235842	 5.7938377533	 0.3072685317	 0.123592
H	-0.3771866231	 7.668163469	-0.0192861282	 0.20228
43.6872	57.2362	111.5044	167.6331	193.9845	255.7137	335.2387	375.6815	415.0183	524.9324	571.7126	598.2823	657.0305	692.5526	774.6037	821.34	888.4978	906.3807	956.3823	1031.0225	1048.174	1052.3881	1071.7725	1122.736	1125.7722	1141.9491	1215.1596	1230.8149	1306.0353	1365.8164	1387.8704	1418.1468	1443.9929	1483.7041	1504.3394	1867.8213	2235.5545	2939.0868	3044.9217	3099.503	3141.8995	3150.1296	3164.5749	3232.1074	3502.8225
O=COCC1CC1C#C	O=COC[C@H]1C[C@H]1C#C	
InChI=1S/C7H8O2/c1-2-6-3-7(6)4-9-5-8/h1,5-7H,3-4H2	InChI=1S/C7H8O2/c1-2-6-3-7(6)4-9-5-8/h1,5-7H,3-4H2/t6-,7-/m1/s1
