23
gdb 115585	2.58155	1.02789	0.94997	2.3824	81.68	-0.2389	0.0683	0.3073	1407.8287	0.203643	-425.411195	-425.400536	-425.399591	-425.447276	38.73	
C	-0.1265350721	 1.5889749983	-0.3555207096	-0.397473
C	-0.0787247272	 0.0802310821	-0.0867525076	-0.209124
C	-1.4609186848	-0.5475176447	 0.1392329443	 0.410821
C	-2.1830944901	 0.0241251177	 1.3531213285	-0.439635
O	-2.2805921963	-0.3959158724	-1.0603010535	-0.329635
C	-2.283262623	-1.8163121649	-1.3076459017	-0.076861
C	-1.5461448128	-2.1024442699	 0.0120318686	-0.071693
C	-0.2954024779	-2.9576593816	-0.0417589644	-0.113496
O	-0.7272922858	-4.2945575224	-0.2650017307	-0.424087
H	 0.8590944996	 1.9579871405	-0.6544942018	 0.108831
H	-0.8312089604	 1.804757315	-1.1636340309	 0.13894
H	-0.4349123943	 2.1564369025	 0.5273375001	 0.115671
H	 0.3872486893	-0.4104067483	-0.9477647987	 0.095759
H	 0.558991637	-0.1319671191	 0.7814380292	 0.090824
H	-2.3481211028	 1.0992729958	 1.2432641739	 0.126649
H	-3.1588484584	-0.4542923649	 1.472908574	 0.117954
H	-1.5999707002	-0.1433283569	 2.2659312921	 0.111055
H	-3.2988586803	-2.2155713847	-1.4021158265	 0.103294
H	-1.7165504235	-2.0792272302	-2.2116253131	 0.094514
H	-2.2077415112	-2.5278174811	 0.7715989016	 0.084362
H	 0.3720052651	-2.6234171298	-0.849883604	 0.088377
H	 0.2633177962	-2.8713769945	 0.9045116311	 0.087567
H	 0.0513111841	-4.8494611967	-0.3682428508	 0.287386
49.3402	82.8708	96.8332	146.9391	204.7382	226.2139	243.0235	273.1736	310.1029	320.625	353.2616	410.0601	473.0759	541.9465	652.6856	785.1714	794.3343	878.3673	907.7578	920.2898	960.8787	993.993	1018.099	1021.1379	1061.9629	1066.6081	1112.111	1135.6912	1164.5853	1170.9572	1182.7831	1226.4961	1248.957	1276.9412	1288.3134	1319.5864	1343.9848	1370.4437	1387.6685	1405.4962	1407.9827	1465.6576	1472.8735	1485.8011	1493.8993	1507.4082	1512.4104	1518.15	1530.7908	2965.6153	3001.5643	3005.505	3023.2627	3036.2276	3043.6203	3056.2995	3068.0034	3077.1739	3106.7316	3109.4832	3119.9519	3123.6378	3829.3684
CCC1(C)OCC1CO	CC[C@@]1(C)OC[C@H]1CO	
InChI=1S/C7H14O2/c1-3-7(2)6(4-8)5-9-7/h6,8H,3-5H2,1-2H3	InChI=1S/C7H14O2/c1-3-7(2)6(4-8)5-9-7/h6,8H,3-5H2,1-2H3/t6-,7-/m1/s1
