20
gdb 41241	2.94532	2.01732	1.65687	1.603	81.83	-0.2255	0.0818	0.3073	900.998	0.174898	-365.925258	-365.919008	-365.918064	-365.955363	27.707	
C	-0.0262293942	 1.5029350071	-0.2704201898	-0.27177
C	 1.4930893893	 1.6125072301	 0.1083195297	-0.353962
C	 1.3130866416	 0.3070888309	 0.9127168172	 0.302178
C	 1.874747706	-1.0925526652	 1.1763934966	-0.254118
N	 0.6486292397	-1.2914392641	 2.0530852193	-0.162378
C	-0.6389776527	-0.7817973308	 1.2771301421	-0.029296
C	-0.8036126442	 0.2628858599	 2.3928657366	-0.245784
C	 0.7210292691	 0.2010399517	 2.3756357298	-0.031071
C	 0.031144159	-0.0122242905	 0.132206927	 0.010839
H	-0.6636788385	 2.1164049959	 0.3689296555	 0.108293
H	-0.284256796	 1.7059880167	-1.3115403914	 0.099935
H	 2.1391789417	 1.4846554426	-0.7653520204	 0.106203
H	 1.8198522853	 2.499234068	 0.6576140459	 0.099149
H	 1.9985669431	-1.7706959593	 0.3261294254	 0.097297
H	 2.7440275532	-1.1564963085	 1.8382164361	 0.103945
H	-1.3926892949	-1.5396453897	 1.0681692387	 0.068855
H	-1.33322971	 1.1905907203	 2.1730543579	 0.097195
H	-1.1825036778	-0.1842540045	 3.3143283184	 0.113523
H	 1.3593209948	 0.5104309466	 3.2058652135	 0.072046
H	 0.2111271056	-0.6355134468	-0.7482984583	 0.06892
211.6749	284.4529	382.9079	435.5873	469.0706	541.4465	631.4232	674.3987	694.4346	760.0522	784.9666	818.7914	869.5368	882.1177	894.8506	921.7959	932.6687	947.9442	994.7314	1003.7713	1027.8622	1038.8367	1051.5063	1093.0157	1109.3039	1142.9377	1163.806	1173.3472	1189.2172	1203.5288	1220.4369	1233.0521	1241.2051	1252.1214	1263.488	1285.1821	1297.508	1329.5741	1358.5265	1472.5731	1484.6624	1501.7353	1505.7569	3040.6302	3053.1367	3062.3041	3073.1367	3077.9519	3095.5785	3098.8222	3102.0594	3126.7113	3128.4465	3136.5719
C1CC23CN4C(CC24)C13	C1C[C@@]23CN4[C@@H](C[C@H]24)[C@@H]13	
InChI=1S/C8H11N/c1-2-8-4-9-6(5(1)8)3-7(8)9/h5-7H,1-4H2	InChI=1S/C8H11N/c1-2-8-4-9-6(5(1)8)3-7(8)9/h5-7H,1-4H2/t5-,6+,7-,8+/m1/s1
