20
gdb 12537	3.17207	1.74567	1.21755	1.3584	76.02	-0.2384	0.0208	0.2592	1018.2449	0.17887	-349.017528	-349.009626	-349.008681	-349.049566	30.838	
O	-0.0274820943	 1.4299816464	-0.0835954365	-0.440458
C	 0.020908598	 0.0068060638	-0.0085338294	 0.136575
C	 0.8528207592	-0.4394729122	 1.1999628382	-0.202806
C	 1.10775221	-1.956000438	 1.2946059727	-0.259712
C	-0.0922710007	-2.7859935562	 1.6844568651	-0.047658
C	-1.2740056639	-2.7911223094	 1.0674130893	-0.045863
C	-1.6485006347	-1.9669502505	-0.1417019776	-0.264676
C	-1.4382152544	-0.4492874501	 0.0049223478	-0.171384
H	 0.8759371057	 1.7601646232	-0.0455646592	 0.276133
H	 0.4974223015	-0.39932184	-0.9201856787	 0.054903
H	 1.8273872057	 0.0657034586	 1.1345291219	 0.075915
H	 0.3714249822	-0.0799061001	 2.1168413567	 0.104818
H	 1.5049462109	-2.3054466496	 0.329326619	 0.107002
H	 1.9083563987	-2.1272704911	 2.0209853754	 0.099436
H	 0.0380997293	-3.4385966424	 2.544823684	 0.08304
H	-2.0486844861	-3.4484332654	 1.4562011225	 0.083408
H	-1.0864110749	-2.3186627213	-1.0201999695	 0.106551
H	-2.7022273091	-2.1452828877	-0.3776125867	 0.100478
H	-1.9130320639	-0.0929847654	 0.9264666476	 0.101577
H	-1.9355094792	 0.0627260975	-0.8261613326	 0.10272
78.4215	196.3715	231.3879	283.7015	297.736	318.6096	375.2448	442.2606	488.733	536.7618	668.4591	726.394	767.1508	863.1241	873.3513	900.4836	931.4	994.1763	1004.6993	1041.5159	1061.8231	1081.4338	1083.4122	1112.2931	1156.4724	1213.4234	1243.5275	1263.7757	1284.5364	1296.1108	1334.2128	1348.0208	1363.6753	1367.6028	1403.8736	1424.4497	1441.5037	1479.3488	1482.3961	1486.1965	1496.799	1725.5672	2923.7171	2993.0482	2996.1962	3000.4439	3036.3698	3064.5579	3068.8507	3070.6877	3080.8957	3136.0479	3160.7781	3812.9514
OC1CCC=CCC1	O[C@H]1CCC=CCC1	
InChI=1S/C7H12O/c8-7-5-3-1-2-4-6-7/h1-2,7-8H,3-6H2	InChI=1S/C7H12O/c8-7-5-3-1-2-4-6-7/h1-2,7-8H,3-6H2
