20
gdb 47802	2.1966	1.88583	1.23061	1.7768	78.8	-0.2278	-0.0241	0.2037	1066.9146	0.173042	-403.147021	-403.139127	-403.138182	-403.179338	31.129	
O	-0.000989591	-0.1011717778	 0.103911202	-0.308013
C	-0.0161949664	 1.104368508	 0.0049864106	 0.349358
C	-1.3065445847	 1.9076640084	-0.0230371732	-0.282467
C	-1.7222919247	 2.2642481702	 1.4259356652	-0.196555
C	-0.7053451165	 3.0909529094	 2.2317540832	-0.190277
C	 0.6625829486	 2.4166659966	 2.4274721547	-0.158182
N	 1.5520045528	 2.6579345428	 1.2832842615	-0.085773
C	 2.4011562716	 1.5474445948	 0.842847968	-0.259629
C	 1.2349122909	 1.953818957	 0.0270815247	-0.085693
H	-1.1686268484	 2.8263926584	-0.6044465541	 0.105609
H	-2.0903128231	 1.3044683552	-0.4890570645	 0.119058
H	-2.6711127748	 2.8097817919	 1.3820688647	 0.10461
H	-1.923737325	 1.3270801649	 1.9593518547	 0.116643
H	-0.544727493	 4.0686816254	 1.7611863546	 0.109729
H	-1.1405476771	 3.2867048912	 3.2182262952	 0.101851
H	 1.1655574759	 2.8397989962	 3.3034769678	 0.106119
H	 0.5175192691	 1.3420564072	 2.6313611327	 0.101003
H	 3.4071002372	 1.8188856826	 0.5356611703	 0.118284
H	 2.3156675176	 0.5966557995	 1.3652479269	 0.130152
H	 1.3702047111	 2.5711521083	-0.8609123951	 0.104171
85.3893	170.5689	198.1683	296.048	305.9062	353.3079	399.0461	456.6936	512.987	580.1982	665.7325	715.9631	800.035	819.1164	875.5459	901.4853	917.3384	947.0487	972.9643	1011.0857	1054.1067	1074.7322	1084.0249	1108.754	1116.876	1118.6055	1172.3745	1212.0252	1221.7859	1277.1742	1283.7926	1307.0055	1343.0479	1372.4864	1381.2621	1393.1119	1406.3857	1474.0837	1479.5763	1488.937	1501.0437	1513.8536	1806.1604	2961.0125	3029.9991	3032.0294	3040.7172	3060.3928	3072.0811	3079.7017	3102.1286	3104.0832	3106.7052	3191.8751
O=C1CCCCN2CC12	O=C1CCCCN2C[C@@H]12	
InChI=1S/C7H11NO/c9-7-3-1-2-4-8-5-6(7)8/h6H,1-5H2	InChI=1S/C7H11NO/c9-7-3-1-2-4-8-5-6(7)8/h6H,1-5H2/t6-,8?/m0/s1
