16
gdb 79109	2.86602	1.70362	1.27582	1.515	67.87	-0.2381	-0.0221	0.216	968.6025	0.12513	-437.85194	-437.844894	-437.84395	-437.88334	27.917	
O	-0.030623524	 1.3942089355	-0.0291052499	-0.431599
C	 0.0438909799	-0.0092299453	-0.0234576754	 0.10347
C	-1.3843698541	-0.5622773089	-0.0169122758	-0.048192
C	-1.3140990149	-0.8514502728	-1.4809781434	-0.055365
C	 0.2218512807	-0.6286964657	-1.4741607341	-0.217901
C	 0.8068954642	-2.0138563097	-1.2758974021	 0.403502
O	 1.8898413459	-2.4242592738	-1.5995965889	-0.320563
C	-0.2783815409	-2.7787705996	-0.4916658801	-0.28154
N	-1.4811516489	-1.9391626969	-0.5177885218	-0.106782
H	 0.8641418483	 1.7446296355	-0.090366823	 0.291911
H	 0.7413913526	-0.3665217729	 0.74825433	 0.078524
H	-2.1938743703	-0.1813336411	 0.5947645871	 0.107744
H	-2.0207566583	-0.7020443301	-2.2871994204	 0.105678
H	 0.718816955	 0.0049596753	-2.2038959754	 0.093376
H	-0.4937408192	-3.7354968474	-0.9779763328	 0.141008
H	 0.0568892139	-2.9929677921	 0.5287086761	 0.13673
122.2385	174.3289	289.9891	303.2001	355.561	451.7697	485.1318	545.1234	625.4754	699.4284	766.1818	820.734	830.4425	853.8293	879.3207	934.0644	959.2969	977.148	1014.9876	1052.0624	1068.9305	1111.7635	1143.6565	1151.5901	1190.1515	1208.619	1215.3346	1234.9097	1251.6376	1290.3785	1319.4121	1355.8562	1435.0417	1463.2014	1850.8996	2989.5138	3051.8093	3094.7577	3160.1998	3183.9978	3199.4844	3814.4692
OC1C2C3C1C(=O)CN23	O[C@H]1[C@H]2[C@H]3[C@@H]1C(=O)CN23	
InChI=1S/C6H7NO2/c8-2-1-7-4-3(2)6(9)5(4)7/h3-6,9H,1H2	InChI=1S/C6H7NO2/c8-2-1-7-4-3(2)6(9)5(4)7/h3-6,9H,1H2/t3-,4+,5+,6+,7?/m0/s1
