17
gdb 100365	2.55847	1.21967	1.04681	4.82	69.52	-0.2717	0.0002	0.2719	1189.7763	0.133928	-455.172815	-455.162871	-455.161927	-455.20776	35.171	
C	 0.030104108	 1.606099524	-0.0101081561	-0.406772
C	 0.0096494379	 0.0677758758	-0.0032836902	 0.090536
C	 0.7008436007	-0.4765357687	 1.2840974976	-0.098136
O	 2.0446381049	-0.0937189683	 1.3837325702	-0.407423
N	-1.3500375805	-0.4684754041	-0.0170844912	-0.312582
C	-2.2505099566	-0.2389664771	-1.0208954969	 0.168206
O	-2.0734545133	 0.5034036066	-1.9584231223	-0.310168
C	 0.7917281709	-0.4536972592	-1.149509881	 0.288589
N	 1.4773102117	-0.8915626898	-1.9708421619	-0.342014
H	 1.0567321676	 1.9506592176	 0.126727443	 0.14661
H	-0.3740520823	 1.9908963338	-0.9447990582	 0.171545
H	-0.5807516498	 1.9691678814	 0.8213212005	 0.123925
H	 0.1820405002	-0.0477698602	 2.147336425	 0.130462
H	 0.5791232585	-1.5712442634	 1.3138319434	 0.104844
H	 2.5390171982	-0.5328142365	 0.6806414136	 0.30501
H	-1.5508940342	-1.2304629528	 0.6140845711	 0.253437
H	-3.1850996919	-0.8125882392	-0.8648111265	 0.093931
56.4228	116.8064	137.3903	167.9593	198.4048	245.3161	253.6447	279.7875	341.585	388.3142	420.5447	446.0294	480.6744	592.9809	598.7922	699.9631	830.4537	901.4248	948.1224	986.6125	1031.3892	1097.0911	1151.7331	1157.7608	1175.4093	1231.836	1273.0217	1384.7557	1405.9049	1420.4201	1429.8088	1481.1889	1496.8183	1508.6183	1512.359	1813.9009	2348.0573	2945.3525	2977.4302	3059.5024	3086.8024	3138.8129	3176.8994	3604.02	3787.3413
CC(CO)(NC=O)C#N	C[C@@](CO)(NC=O)C#N	
InChI=1S/C5H8N2O2/c1-5(2-6,3-8)7-4-9/h4,8H,3H2,1H3,(H,7,9)	InChI=1S/C5H8N2O2/c1-5(2-6,3-8)7-4-9/h4,8H,3H2,1H3,(H,7,9)/t5-/m1/s1
