17
gdb 12031	3.76627	1.72598	1.52325	1.4435	73.98	-0.2338	0.0533	0.287	892.8378	0.141283	-326.646656	-326.638962	-326.638018	-326.678082	30.147	
C	-0.0399904103	 1.5507126205	 0.0742424871	-0.452958
C	 0.0119487317	 0.0209060097	 0.0207099701	 0.146982
C	 1.118697495	-0.62310411	-0.9270159212	-0.273484
C	 1.738019265	-1.288599975	 0.3025885371	-0.025324
N	 2.1201606409	-0.1868497996	 1.2209813302	-0.341693
C	 0.7272605061	-0.6862304525	 1.2059079113	-0.082584
C	-1.3019122673	-0.5556644218	-0.2208343747	 0.273489
C	-2.3926489836	-1.0259574261	-0.411134765	-0.460054
H	 0.9503595348	 1.9404926654	 0.3182601829	 0.139622
H	-0.3576260116	 1.95784604	-0.8904460279	 0.120167
H	-0.7524451901	 1.8876049342	 0.8334464359	 0.118957
H	 0.6832520645	-1.3256225249	-1.6377995671	 0.118535
H	 1.7623532036	 0.0916490536	-1.4455791124	 0.108042
H	 2.2312344735	-2.2508182274	 0.3565632726	 0.093767
H	 2.5758808397	-0.607776154	 2.0301521837	 0.229766
H	 0.2529490653	-1.0732123708	 2.0992497664	 0.096411
H	-3.3554988072	-1.4388977913	-0.5830667191	 0.190357
134.5444	164.1403	221.5098	239.1678	293.2561	399.3613	478.1744	501.744	538.2693	617.5004	626.6579	630.7917	762.1842	819.6456	840.734	853.8642	917.7306	934.1154	954.2932	991.	1017.4653	1085.9954	1103.2668	1139.3226	1144.2606	1171.329	1231.8382	1261.5636	1292.0956	1319.6857	1375.0096	1401.2686	1470.8509	1489.6787	1497.8517	2230.446	3041.7231	3070.5028	3109.6561	3135.6672	3142.043	3187.1723	3200.7699	3474.9912	3502.7868
CC1(CC2NC12)C#C	C[C@]1(C[C@H]2N[C@@H]12)C#C	
InChI=1S/C7H9N/c1-3-7(2)4-5-6(7)8-5/h1,5-6,8H,4H2,2H3	InChI=1S/C7H9N/c1-3-7(2)4-5-6(7)8-5/h1,5-6,8H,4H2,2H3/t5-,6-,7-/m1/s1
