23
gdb 91088	2.62702	1.52307	1.37865	0.2752	87.25	-0.2544	0.071	0.3254	1095.0709	0.208686	-351.145469	-351.137597	-351.136653	-351.177489	32.739	
C	 0.3955577825	 1.5805453215	-0.2799589358	-0.414561
C	 0.0986228806	 0.1103233891	-0.0141874176	 0.042068
C	 0.6615876399	-0.9423667121	-1.0190546044	-0.263689
C	 1.3529922368	-1.7067829891	 0.1520935143	-0.005409
C	 2.8723973267	-1.7103447803	 0.2606269554	-0.043528
C	 3.6394763541	-0.4647330564	-0.1180896791	-0.294211
C	 3.291498285	-0.7129418112	 1.3250368988	-0.020103
C	 2.0471369672	-0.0295138916	 1.8952829122	-0.258567
C	 0.8219537132	-0.6364200938	 1.1631500177	-0.028869
H	 1.4636902644	 1.773438249	-0.4258013639	 0.119608
H	-0.1224866777	 1.9170578068	-1.1851610852	 0.111753
H	 0.058523097	 2.2134556133	 0.5489941391	 0.112466
H	-0.9851999186	-0.001507103	 0.0944740503	 0.066819
H	-0.0997820452	-1.5144071113	-1.5554048663	 0.090746
H	 1.3574416395	-0.5354401846	-1.7580829858	 0.095797
H	 0.964340814	-2.7169779391	 0.3021403015	 0.060787
H	 3.3886196146	-2.6592448023	 0.1615759591	 0.076563
H	 4.6754892897	-0.5927731804	-0.4143990146	 0.105727
H	 3.13312219	 0.3313128915	-0.6539646314	 0.110601
H	 4.1022391493	-0.9394852823	 2.0094798626	 0.076591
H	 1.980054432	-0.2371736214	 2.96818521	 0.09529
H	 2.0952871649	 1.0606731948	 1.7967271005	 0.099737
H	 0.1052425799	-1.0199193471	 1.8934362828	 0.064384
92.5193	195.499	222.5704	255.6429	329.574	360.6588	449.5005	482.1055	606.0651	636.8757	693.3064	749.155	769.7766	815.4169	827.0467	858.4453	889.2908	908.3558	939.4935	969.3811	972.4524	995.2765	1028.4756	1056.1216	1067.9391	1080.985	1104.1834	1116.8538	1121.3709	1140.2231	1155.1004	1201.1068	1213.0556	1226.9822	1251.9051	1260.762	1284.2041	1313.2652	1322.5727	1334.1708	1357.6418	1368.8509	1390.9292	1412.329	1480.6878	1486.8299	1491.6225	1502.0825	1506.7395	3025.9652	3034.503	3039.0749	3053.7949	3059.065	3069.2912	3078.9454	3087.6914	3097.2341	3105.5325	3128.3105	3155.2424	3164.6825	3207.6241
CC1CC2C3CC3CC12	C[C@H]1C[C@H]2[C@H]3C[C@H]3C[C@@H]12	
InChI=1S/C9H14/c1-5-2-9-7(5)3-6-4-8(6)9/h5-9H,2-4H2,1H3	InChI=1S/C9H14/c1-5-2-9-7(5)3-6-4-8(6)9/h5-9H,2-4H2,1H3/t5-,6+,7-,8-,9+/m0/s1
