21
gdb 109741	2.6276	1.08992	1.01252	3.2566	80.9	-0.2396	-0.0241	0.2155	1339.914	0.180411	-424.242222	-424.232204	-424.23126	-424.277437	36.781	
C	-0.0950853467	 1.5366430063	-0.2610464189	-0.376622
C	-0.0559892508	 0.1145002381	 0.3135347525	-0.215768
C	-1.3942727489	-0.5770874695	 0.1563022827	-0.054667
C	-1.8158326597	-1.2192356929	-1.116647816	 0.127049
O	-0.9866477778	-1.2948402214	-2.2177124652	-0.422141
C	-1.5557161988	-2.1203326053	 0.1186256304	-0.24428
C	-0.3918777805	-3.0244670157	 0.0658536192	 0.420601
C	-0.4683991505	-4.2882812134	 0.8969905231	-0.479539
O	 0.5885364992	-2.7972669878	-0.6364452835	-0.369139
H	 0.8642793212	 2.042795863	-0.1168398172	 0.111856
H	-0.3092695699	 1.5093324657	-1.3334197049	 0.136572
H	-0.8687339887	 2.1434968649	 0.2226175774	 0.108448
H	 0.7279156137	-0.46213247	-0.1817083369	 0.127086
H	 0.208771629	 0.1458901022	 1.3776628263	 0.095007
H	-2.1997284622	-0.1096973337	 0.7194536302	 0.094005
H	-2.8566351925	-1.1339013402	-1.4161099508	 0.10865
H	-0.1656228346	-1.7368976182	-1.9300446968	 0.310074
H	-2.4204314531	-2.5131588764	 0.6424544987	 0.090704
H	-1.3337886237	-4.8875090249	 0.5915139487	 0.145315
H	 0.4442017865	-4.8718181712	 0.772084262	 0.14363
H	-0.6111299612	-4.0398938395	 1.9545780788	 0.143159
67.4747	84.1112	121.2039	132.7447	192.3383	238.1532	264.5542	284.7085	333.2985	417.4915	472.6781	587.8597	625.6723	645.4505	658.3791	714.7126	789.2825	801.5365	845.8489	928.1744	967.1267	980.0557	1013.2421	1030.7235	1054.3603	1093.6985	1103.6539	1138.8711	1179.1276	1199.0171	1254.3809	1292.3146	1336.5904	1374.2026	1377.0001	1403.301	1409.8747	1419.0404	1462.7781	1474.837	1490.2125	1497.0234	1500.6955	1512.5625	1730.7304	3033.4727	3034.075	3036.3926	3093.1168	3096.9976	3111.0102	3117.3474	3128.2643	3149.5137	3154.0466	3166.5973	3569.3751
CCC1C(O)C1C(C)=O	CC[C@H]1[C@@H](O)[C@H]1C(=O)C	
InChI=1S/C7H12O2/c1-3-5-6(4(2)8)7(5)9/h5-7,9H,3H2,1-2H3	InChI=1S/C7H12O2/c1-3-5-6(4(2)8)7(5)9/h5-7,9H,3H2,1-2H3/t5-,6+,7-/m1/s1
