24
gdb 88825	2.90131	1.13793	0.9142	1.1795	90.27	-0.219	0.08	0.2989	1394.2846	0.216861	-368.376953	-368.36715	-368.366206	-368.411855	37.128	
C	 0.0624808235	 1.5493975681	-0.41568114	-0.414472
C	 0.0067755323	 0.0727871171	-0.0850043123	 0.030015
C	 1.2315682913	-0.775750739	-0.112613106	-0.258897
N	 0.5478228191	-0.5045166311	 1.1508226535	-0.082772
C	 1.2172178807	 0.339575214	 2.1182075858	 0.081697
C	 0.3226918777	 1.0245499985	 3.1807574914	-0.241749
C	 1.3855614917	 0.6659378268	 4.2539705885	-0.224197
C	 1.9879736016	-0.3856648396	 3.2724017197	-0.010922
C	 1.5436856537	-1.8182753387	 3.5510389197	-0.378861
H	 1.0343523393	 1.9933164381	-0.188130171	 0.12131
H	-0.1246028451	 1.6952714321	-1.4850390616	 0.120929
H	-0.7041599087	 2.1078367978	 0.132615482	 0.12444
H	-0.9303714543	-0.3995905736	-0.3784358122	 0.087048
H	 1.200235483	-1.8034246891	-0.4660512015	 0.109278
H	 2.1769368425	-0.2640995624	-0.2958265385	 0.102371
H	 1.886764111	 1.0797782724	 1.6525740732	 0.049642
H	 0.0792086776	 2.0793600966	 3.0315745691	 0.090165
H	-0.6063339952	 0.4654208994	 3.3181001586	 0.10884
H	 2.0711268807	 1.4937665216	 4.45437078	 0.095472
H	 1.0177356486	 0.2834711787	 5.2096875728	 0.094855
H	 3.0776041397	-0.3544453999	 3.1723213105	 0.059016
H	 0.4577682552	-1.8912493099	 3.6611386721	 0.119469
H	 1.8319857727	-2.4907413659	 2.7375718107	 0.115051
H	 2.0051925313	-2.1831256423	 4.4755462455	 0.102272
50.1793	103.3028	124.7968	179.1039	209.1187	232.8385	245.1383	347.548	376.2026	416.0264	454.4738	528.0288	668.0566	745.7622	777.2155	802.8103	860.8509	885.2872	907.2678	920.4778	951.5132	967.9187	987.4065	1021.3355	1038.1164	1080.9736	1097.308	1113.4107	1126.3091	1146.5822	1171.3236	1186.3708	1195.3778	1218.3909	1250.2864	1261.91	1284.0161	1294.0453	1338.2501	1364.0324	1378.8381	1402.279	1413.699	1419.4366	1478.398	1491.1326	1491.8422	1494.6456	1496.7329	1498.8881	1509.7384	2960.5985	3032.8551	3035.6767	3043.812	3055.3483	3063.5202	3080.1412	3092.6596	3098.2695	3098.9402	3099.9331	3111.0102	3119.8319	3126.1231	3167.2307
CC1CN1C1CCC1C	C[C@H]1CN1[C@H]1CC[C@H]1C	
InChI=1S/C8H15N/c1-6-3-4-8(6)9-5-7(9)2/h6-8H,3-5H2,1-2H3	InChI=1S/C8H15N/c1-6-3-4-8(6)9-5-7(9)2/h6-8H,3-5H2,1-2H3/t6-,7+,8+,9?/m1/s1
