18
gdb 81252	2.98056	1.56746	1.44368	2.3277	71.59	-0.2447	0.0599	0.3046	972.6429	0.14984	-438.984635	-438.977582	-438.976638	-439.015985	28.716	
O	 0.0757698754	 1.3333658246	-0.2134552011	-0.460809
C	 0.0724114783	-0.0456558499	-0.0596311972	 0.191281
C	 0.0279806479	-0.6514629604	 1.3560237499	-0.149129
N	-1.4043778473	-0.0798414987	 1.4473829258	-0.442167
C	-1.3094119434	-0.7873158768	 0.0869332255	 0.277015
C	-2.1051811069	-1.3555962503	-1.0559394362	-0.405766
C	-1.0998301488	-2.5145907891	-1.4423853369	-0.069722
O	-0.1393448417	-2.7198012473	-0.3611485332	-0.288622
C	-0.6024903428	-1.9489479834	 0.7231154338	 0.109925
H	-0.5603226613	 1.6635034992	 0.4381978266	 0.291389
H	 0.7857508253	-0.4836564213	-0.754257793	 0.105934
H	 0.7172547855	-0.5364756824	 2.1937864875	 0.086515
H	-1.9649035636	-0.644470631	 2.0942430822	 0.214653
H	-3.0687197295	-1.7629485047	-0.7349304352	 0.11527
H	-2.2721896329	-0.6726814146	-1.8919087912	 0.123471
H	-1.6319929408	-3.454042391	-1.6243944818	 0.113623
H	-0.529491575	-2.2602865822	-2.3406125215	 0.12085
H	-1.1745139384	-2.5459832906	 1.4472616359	 0.066289
111.1115	217.2399	234.4529	340.2616	370.6237	463.9027	541.772	581.9332	640.4578	692.6004	721.4521	787.6016	834.8921	857.7014	886.9839	892.9648	915.5457	945.8882	963.8836	1025.1636	1071.7764	1076.7956	1109.4131	1145.8785	1173.6273	1175.7034	1178.2809	1197.8122	1220.5828	1246.9235	1271.2256	1282.6473	1326.2695	1338.4847	1373.5087	1389.2823	1463.5995	1490.7262	1518.5335	3006.5377	3043.4787	3058.5914	3086.7066	3109.1942	3115.9328	3154.5218	3388.5498	3731.2442
OC1C2NC11CCOC21	O[C@H]1[C@H]2N[C@]31CCO[C@@H]23	
InChI=1S/C6H9NO2/c8-4-3-5-6(4,7-3)1-2-9-5/h3-5,7-8H,1-2H2	InChI=1S/C6H9NO2/c8-4-3-5-6(4,7-3)1-2-9-5/h3-5,7-8H,1-2H2/t3-,4+,5+,6+/m1/s1
