16
gdb 48070	2.8025	1.48724	1.14649	1.7535	70.39	-0.2488	-0.1035	0.1452	1062.7806	0.12371	-437.822536	-437.814613	-437.813669	-437.855813	28.933	
O	-0.1144740669	 1.4046592897	-1.2962920825	-0.23119
C	 0.3883811469	 1.0722734497	-0.2547266969	 0.087471
C	 1.1542215349	 2.031756892	 0.6671889377	 0.13824
O	 1.7230461349	 1.5711314218	 1.6298519631	-0.268822
C	 1.1834071572	 3.4783786654	 0.2889483927	 0.28688
C	 1.5887239972	 4.6862910195	 1.1641351437	-0.238882
C	 1.1051979734	 5.2290315741	-0.2065463485	-0.027406
C	 1.9550752541	 4.1341697347	-0.906652622	-0.268485
N	-0.068720438	 4.2630638415	-0.091601368	-0.356658
H	 0.3680479538	 0.0317194846	 0.1321118679	 0.11596
H	 0.9321317887	 4.8870665969	 2.0101144574	 0.117595
H	 2.6471034179	 4.7932155382	 1.4014911118	 0.107553
H	 0.9607879319	 6.2675931204	-0.5038075334	 0.092973
H	 3.045325635	 4.1942087028	-0.8320499928	 0.105774
H	 1.6247804906	 3.8237538609	-1.9003627467	 0.115263
H	-0.3596905917	 3.9702642877	-1.0287560436	 0.223735
53.142	125.533	137.9581	175.3417	253.9117	405.8764	518.807	548.1131	580.2302	593.9829	651.912	770.7992	809.2218	896.2954	902.5822	939.377	966.2944	992.767	1018.6719	1054.982	1094.2699	1112.8339	1127.3448	1151.7543	1180.1879	1217.0844	1225.6316	1269.2873	1299.4473	1348.0566	1366.9116	1482.858	1524.7922	1795.9848	1818.7106	2927.4362	3046.8071	3091.2281	3118.2818	3127.3362	3170.5034	3409.8992
O=CC(=O)C12CC(C1)N2	O=CC(=O)[C@@]12C[C@@H](C1)N2	
InChI=1S/C6H7NO2/c8-3-5(9)6-1-4(2-6)7-6/h3-4,7H,1-2H2	InChI=1S/C6H7NO2/c8-3-5(9)6-1-4(2-6)7-6/h3-4,7H,1-2H2/t4-,6+
