21
gdb 65659	3.62537	0.91468	0.86786	2.8268	78.26	-0.2307	0.0633	0.294	1428.9694	0.181113	-424.185687	-424.176157	-424.175212	-424.220979	35.009	
O	 0.5387448052	 1.3023761795	-0.3243760203	-0.472446
C	 0.046695748	 0.0463682763	 0.0785872718	 0.441755
C	-1.3888878951	 0.1927652346	 0.5325056093	-0.265696
C	-2.3182243729	 0.7174985292	-0.552534414	 0.160359
C	-2.848702183	-0.2510668103	-1.635603691	-0.282524
C	-4.2387884349	 0.1864597419	-1.1363994349	-0.064708
O	-3.6611914761	 0.9321958731	-0.0461024996	-0.295872
C	 0.5079922418	-1.1961682664	-0.6409606044	-0.328815
C	 0.9653794775	-0.9136829148	 0.7833680558	-0.334153
H	 1.421401724	 1.1897010254	-0.6895894241	 0.280848
H	-1.7600484677	-0.7699686447	 0.9001974603	 0.093824
H	-1.4237465102	 0.8957611197	 1.374158388	 0.117725
H	-1.9079443217	 1.645702734	-0.9678726312	 0.09211
H	-2.5997331389	-0.0111307248	-2.6701290327	 0.107474
H	-2.615251826	-1.300547924	-1.4437057832	 0.102932
H	-4.7912218069	 0.836317855	-1.8284612425	 0.097277
H	-4.9120040832	-0.6033434447	-0.7829802538	 0.100338
H	-0.1941396767	-2.005766169	-0.8078006558	 0.117631
H	 1.2376784049	-1.0786024272	-1.436968014	 0.106324
H	 1.9956282951	-0.6029700544	 0.9273889693	 0.108063
H	 0.5711997767	-1.5274460983	 1.586435027	 0.117555
50.1529	80.5765	94.8958	140.6389	159.8779	277.3898	298.468	375.7988	409.4301	438.1086	503.7045	732.0948	748.8267	767.0433	801.1268	864.9815	886.7676	904.0213	931.21	939.1467	970.852	983.941	1026.661	1034.5909	1049.6198	1065.7285	1086.8464	1126.5318	1165.0842	1183.4105	1184.8245	1206.4387	1236.7918	1256.9319	1282.6678	1323.184	1328.7554	1371.4752	1403.393	1438.3988	1460.1368	1473.6669	1490.1485	1502.5194	1532.1126	3006.5459	3032.9323	3036.2969	3050.7393	3075.0762	3082.2702	3121.5884	3126.3451	3131.7743	3201.6847	3216.4913	3828.5467
OC1(CC2CCO2)CC1	OC1(C[C@H]2CCO2)CC1	
InChI=1S/C7H12O2/c8-7(2-3-7)5-6-1-4-9-6/h6,8H,1-5H2	InChI=1S/C7H12O2/c8-7(2-3-7)5-6-1-4-9-6/h6,8H,1-5H2/t6-/m1/s1
