17
gdb 55531	3.70992	1.02933	0.83405	4.1454	72.22	-0.2609	-0.0055	0.2554	1366.3342	0.134547	-455.161475	-455.152289	-455.151345	-455.196572	32.11	
C	-0.3729038596	 1.3105843818	-0.521215033	-0.443659
C	 0.0618294956	-0.0637678241	-0.1111720984	 0.406345
N	 1.2584200203	-0.4108942347	 0.0410967203	-0.48431
O	-1.0996161749	-0.8499200467	 0.0554201701	-0.276056
C	-1.0583055624	-2.1555269775	 0.4400284099	 0.475208
O	-0.0712850167	-2.7891882862	 0.723284936	-0.374699
N	-2.338215653	-2.6770647055	 0.389571832	-0.111116
C	-3.45309366	-2.1904990946	 1.1816341495	-0.223538
C	-2.8527553054	-3.5435250764	 1.4264028063	-0.216743
H	 0.5068831935	 1.9376816434	-0.6579943205	 0.152676
H	-0.9463215276	 1.2669341628	-1.45247494	 0.143473
H	-1.0252180914	 1.7486569128	 0.2409501184	 0.138104
H	 1.3322157714	-1.3875169903	 0.3238899831	 0.260241
H	-3.2503914701	-1.4082348168	 1.9077843991	 0.138411
H	-4.3981468933	-2.0976190584	 0.6551333986	 0.135422
H	-3.366042891	-4.4351133348	 1.0798040761	 0.135601
H	-2.2363559852	-3.676753745	 2.3109577727	 0.144641
49.4638	73.8051	108.2848	161.4516	166.0133	229.1412	291.0853	364.863	430.1514	545.0781	555.4456	626.7922	780.2405	815.7249	841.2999	844.441	969.8321	979.6546	983.0188	1035.2901	1052.5903	1078.9244	1082.855	1134.3547	1138.7944	1169.729	1177.5813	1199.4339	1311.6178	1400.1592	1418.4707	1474.3142	1477.034	1499.4699	1527.4886	1749.4816	1824.4629	3049.9829	3107.7117	3117.8706	3122.4698	3170.1709	3202.8743	3216.4028	3503.7713
CC(=N)OC(=O)N1CC1	C[C]([NH])OC(=O)N1CC1	
InChI=1S/C5H8N2O2/c1-4(6)9-5(8)7-2-3-7/h6H,2-3H2,1H3	InChI=1S/C5H8N2O2/c1-4(6)9-5(8)7-2-3-7/h6H,2-3H2,1H3
