17
gdb 128114	2.41075	1.31353	0.90362	4.5725	74.05	-0.2143	-0.0143	0.2	1284.3351	0.135602	-451.294253	-451.284706	-451.283762	-451.329744	33.199	
C	-0.0738355152	 1.5526992665	-0.2410819921	-0.331989
N	 0.0198093117	 0.1262222993	 0.0350523039	-0.387167
C	-1.0865067443	-0.6563458843	 0.1150755171	 0.432665
C	-1.2289470838	-2.0366704608	 0.1230971094	 0.119127
C	-0.2116383022	-3.1334001461	 0.0537254715	-0.277382
N	 0.142718293	-3.7909411235	 1.3227450267	-0.491093
N	-2.5671425644	-2.2600308614	 0.2799632538	-0.140387
N	-3.2477447864	-1.2208371948	 0.3607046644	-0.05698
O	-2.2641736352	-0.0784948296	 0.2464443947	-0.245869
H	 0.9124333009	 1.99950679	-0.1017569745	 0.13493
H	-0.4224599039	 1.7682857771	-1.2596974932	 0.136014
H	-0.7681172968	 2.0148562784	 0.4631613006	 0.163081
H	 0.8527485951	-0.3428642861	-0.2827831545	 0.258248
H	-0.5674333828	-3.912109209	-0.6289942401	 0.133099
H	 0.7121385152	-2.741628133	-0.3918156698	 0.095512
H	 0.4174387478	-3.0840345495	 2.0006231614	 0.22185
H	-0.6958560287	-4.2183584431	 1.7080131609	 0.236339
33.2667	89.6459	123.2467	154.9998	166.4337	244.4947	279.4433	315.5249	401.5124	437.2228	451.802	568.2138	647.199	675.3763	760.9934	785.4616	869.8314	919.6711	973.2944	1062.6417	1097.65	1132.6777	1147.2906	1161.0942	1241.0037	1303.7776	1371.2576	1392.6947	1446.4206	1452.7883	1470.7597	1484.025	1493.4021	1505.1208	1518.4467	1645.4468	1667.7339	3018.1768	3022.6662	3075.7409	3104.6562	3145.009	3477.4872	3552.5251	3634.4155
CNC1=C(CN)N=NO1	CNc1c(CN)nno1	
InChI=1S/C4H8N4O/c1-6-4-3(2-5)7-8-9-4/h6H,2,5H2,1H3	InChI=1S/C4H8N4O/c1-6-4-3(2-5)7-8-9-4/h6H,2,5H2,1H3
