16
gdb 105145	2.46154	1.20615	0.96695	4.308	77.41	-0.2732	-0.002	0.2712	1227.6323	0.122395	-400.709348	-400.700101	-400.699157	-400.743542	33.646	
O	 0.1090045453	 1.3609832338	-0.4019065609	-0.411292
C	 0.024048614	 0.0583677878	 0.1331514677	-0.127343
C	-1.395814487	-0.5006411725	 0.0395536308	 0.088896
C	-1.8374058285	-1.128312411	-1.2595640616	-0.297286
C	-1.6001584946	-2.023988021	-0.0609761422	-0.223154
C	-0.4660563659	-2.9042006703	-0.0230324719	 0.301352
N	 0.446075026	-3.6152972021	 0.0113163347	-0.337674
C	-2.3629204919	 0.231255258	 0.8131498997	 0.247142
C	-3.1315272495	 0.8866668746	 1.4668005087	-0.424489
H	-0.4678633889	 1.9293450647	 0.121272564	 0.291429
H	 0.7041498731	-0.5651447133	-0.4530285998	 0.130246
H	 0.3557854729	 0.0219935891	 1.1807900099	 0.11092
H	-2.8650294334	-0.9958621681	-1.5741356756	 0.142813
H	-1.105708325	-1.1577540618	-2.0583418033	 0.151864
H	-2.4782683855	-2.4116253734	 0.4429123444	 0.149364
H	-3.8234369913	 1.4494704056	 2.0440232955	 0.207212
84.6387	107.1505	118.5631	148.0044	235.3258	265.487	328.6218	368.9348	418.7904	479.3351	536.3629	557.2931	611.4793	640.083	672.7236	707.2236	805.3451	892.223	930.7153	958.5241	981.4705	1062.5388	1083.6078	1090.2437	1126.5804	1185.334	1275.2648	1296.6552	1385.0638	1394.4052	1427.5584	1478.216	1503.6166	2232.6227	2352.5423	3005.0436	3101.1928	3151.7518	3181.2941	3247.6235	3498.4098	3797.5505
OCC1(CC1C#N)C#C	OC[C@]1(C[C@H]1C#N)C#C	
InChI=1S/C7H7NO/c1-2-7(5-9)3-6(7)4-8/h1,6,9H,3,5H2	InChI=1S/C7H7NO/c1-2-7(5-9)3-6(7)4-8/h1,6,9H,3,5H2/t6-,7+/m0/s1
