15
gdb 5124	3.46184	2.03046	1.2939	1.251	64.02	-0.1719	0.0568	0.2287	899.1381	0.118208	-399.819234	-399.810911	-399.809967	-399.851941	29.949	
C	-0.103221969	 1.4442149993	 0.0126723535	-0.335186
N	 0.0789547455	 0.0091891205	-0.012588597	-0.04155
C	 0.1958890203	-0.7870571318	-1.1382815956	-0.106968
C	 0.2876328049	-2.0996073161	-0.7409472421	-0.277759
C	 0.2038115333	-2.107451188	 0.6817591775	 0.1393
O	 0.315871662	-3.1533389981	 1.5779816014	-0.462834
C	 0.0708705932	-0.8018535702	 1.0880724403	 0.304974
O	-0.0353804226	-0.2609057409	 2.3292010141	-0.453237
H	 0.2895833006	 1.8679401602	-0.9138371888	 0.136073
H	-1.1598331089	 1.7211718581	 0.1076918649	 0.135397
H	 0.4421369398	 1.872956285	 0.8563927438	 0.15146
H	 0.207604065	-0.3394262707	-2.1183140246	 0.111982
H	 0.4152349929	-2.9555137506	-1.3855188703	 0.094179
H	-0.3708033224	-3.800020981	 1.3851965852	 0.295198
H	 0.0445857453	-0.9960136256	 2.9491347777	 0.308971
64.5311	131.704	198.3814	250.9163	270.7793	278.1136	299.9653	355.5936	532.2696	580.7383	606.8501	612.627	680.034	758.7094	760.865	767.2918	1009.0915	1059.7437	1104.1081	1149.7889	1169.5109	1243.8057	1286.2312	1296.192	1392.465	1407.5248	1454.1829	1484.7796	1510.4377	1529.5152	1574.901	1671.7013	3030.4931	3101.918	3139.0684	3246.0788	3272.613	3799.617	3804.3709
CN1C=CC(O)=C1O	Cn1ccc(O)c1O	
InChI=1S/C5H7NO2/c1-6-3-2-4(7)5(6)8/h2-3,7-8H,1H3	InChI=1S/C5H7NO2/c1-6-3-2-4(7)5(6)8/h2-3,7-8H,1H3
