15
gdb 42193	3.00067	1.36837	1.02531	2.0261	74.5	-0.2538	-0.0643	0.1895	1116.4628	0.110597	-420.555572	-420.547476	-420.546532	-420.588695	29.96	
O	 0.0999665267	 0.2451557386	 1.0736117638	-0.315442
C	-0.006466599	 1.2637279847	 0.4153549711	 0.168674
C	 1.1425173986	 1.8568358476	-0.2531784678	 0.252777
C	 2.094118491	 2.355684306	-0.7963716654	-0.436041
C	-1.2877697954	 1.9652083307	 0.2261173368	 0.15173
C	-2.5090774438	 1.6338635735	 1.073168201	-0.342802
C	-2.5880606996	 1.3846322562	-0.3816472063	 0.086821
O	-2.8478514729	 2.5634973231	-1.1230604206	-0.27348
C	-1.6034112708	 3.1640973462	-0.6637590159	-0.159819
H	 2.9466856527	 2.7798600028	-1.2691690514	 0.216959
H	-2.3579219429	 0.7570195824	 1.6935128731	 0.152905
H	-3.0817910481	 2.4474455307	 1.5091594886	 0.125669
H	-2.761784041	 0.4251153321	-0.8552897618	 0.129976
H	-1.7654278221	 4.1287097875	-0.170580137	 0.115258
H	-0.9059283934	 3.278626668	-1.4987483183	 0.126817
57.7209	125.6824	164.1702	244.5514	263.3622	335.195	436.3742	477.8557	490.9638	649.656	663.4561	695.1024	717.8014	759.0916	820.3993	865.1809	934.298	974.7009	984.4865	997.5665	1062.1629	1083.4223	1095.7615	1124.6892	1161.2541	1232.6881	1307.4643	1328.9244	1398.8438	1464.3986	1516.4153	1732.3141	2211.107	3038.772	3097.3898	3123.0365	3188.3608	3229.2357	3492.4031
O=C(C#C)C12CC1OC2	O=C(C#C)[C@]12C[C@H]1OC2	
InChI=1S/C7H6O2/c1-2-5(8)7-3-6(7)9-4-7/h1,6H,3-4H2	InChI=1S/C7H6O2/c1-2-5(8)7-3-6(7)9-4-7/h1,6H,3-4H2/t6-,7-/m1/s1
