19
gdb 60911	3.047	0.98323	0.89569	1.9061	79.46	-0.2318	-0.0319	0.1999	1366.7228	0.157575	-423.036193	-423.026779	-423.025835	-423.071865	32.913	
C	-0.013109219	 1.5712119086	 0.181414059	-0.418432
C	-0.0332323199	 0.0350679887	 0.0270889328	-0.172132
C	 0.7820824824	-0.5847434501	 1.1588818997	 0.165043
O	 1.8228296233	-1.167256395	 1.008696286	-0.242515
C	-1.4267849337	-0.5361614358	 0.0289912862	 0.298898
C	-1.9378333087	-1.4238652907	-0.8216520475	-0.221736
C	-3.3596219149	-1.7360114377	-0.4605056256	-0.102687
O	-3.6266243537	-0.9596240822	 0.7056001164	-0.263808
C	-2.4901501727	-0.1757966669	 1.043839256	-0.156195
H	 1.0084000947	 1.9509779577	 0.0910974278	 0.134825
H	-0.6259365539	 2.0397918342	-0.5935078498	 0.134639
H	-0.4042575144	 1.8836621884	 1.1554917761	 0.12889
H	 0.4707501467	-0.2472238799	-0.901855996	 0.10204
H	 0.3421723398	-0.444596842	 2.1739112751	 0.076403
H	-1.4276692647	-1.871028583	-1.6659100945	 0.108625
H	-4.0664313638	-1.4676511894	-1.2624429641	 0.106566
H	-3.5150938904	-2.8036616748	-0.2390504432	 0.110102
H	-2.1843005456	-0.3966643424	 2.079185941	 0.106082
H	-2.7484828014	 0.8949812421	 1.0102607247	 0.105393
40.723	56.9833	99.6399	151.0454	189.8346	233.4595	287.4022	307.3435	413.7215	450.2938	520.2252	674.9456	776.8079	826.9976	880.0055	904.0759	925.3499	944.9719	972.607	1023.8354	1038.5538	1061.1393	1089.424	1117.1612	1141.2735	1178.1021	1208.1836	1230.3447	1266.6868	1297.5989	1342.9538	1370.1834	1397.5143	1402.4454	1427.9927	1497.6208	1498.3112	1516.9436	1529.4332	1717.0942	1836.0964	2858.4264	2965.4704	2973.1933	2981.4957	2988.5858	3039.0158	3071.6274	3110.4134	3121.181	3212.5151
CC(C=O)C1=CCOC1	C[C@@H](C=O)C1=CCOC1	
InChI=1S/C7H10O2/c1-6(4-8)7-2-3-9-5-7/h2,4,6H,3,5H2,1H3	InChI=1S/C7H10O2/c1-6(4-8)7-2-3-9-5-7/h2,4,6H,3,5H2,1H3/t6-/m0/s1
