19
gdb 79059	5.03135	1.14135	1.05277	1.6494	80.6	-0.2114	0.0108	0.2221	1178.9225	0.159694	-385.836157	-385.828435	-385.827491	-385.867923	31.113	
C	-0.0733385272	 1.4828257893	 0.0189923555	-0.506566
C	-0.0041056622	-0.0043967829	-0.0385834701	 0.323761
C	-0.001487251	-0.854032343	-1.06956262	-0.230113
C	 0.0880315312	-2.2242365285	-0.4195777882	-0.083726
C	-0.8173367894	-2.1794116858	 0.8767569262	-0.091444
C	 0.2037747263	-3.060092475	 1.634238022	 0.160848
O	 0.2621587535	-4.4467890998	 1.4178923894	-0.453551
C	 1.0778179333	-2.088723612	 0.8068521081	-0.091405
C	 0.0848225813	-0.9265569021	 1.1768929808	-0.116288
H	 0.8040498995	 1.9056689589	 0.5254715269	 0.127269
H	-0.1288423296	 1.9191841274	-0.9821281468	 0.126009
H	-0.9501992443	 1.8216509535	 0.5859929064	 0.127319
H	-0.0504248615	-0.6467384684	-2.1295045419	 0.096826
H	 0.1069935356	-3.1108420197	-1.0562309513	 0.050723
H	-1.9095001289	-2.2170490934	 0.9089222189	 0.068881
H	 0.2374274143	-2.9271734508	 2.7188335432	 0.080373
H	 0.234805257	-4.6147575257	 0.4705649291	 0.282576
H	 2.1679875561	-2.0219319244	 0.7585110467	 0.068888
H	 0.101510856	-0.5006241174	 2.1818911853	 0.059622
153.0229	175.3016	197.9541	254.3995	308.7786	344.8001	450.8071	509.7716	557.4826	610.7859	731.4143	740.0177	773.7709	821.925	850.4564	875.2649	915.3905	925.5752	961.8238	971.432	1016.4366	1019.1316	1060.7312	1090.9591	1105.1462	1115.625	1145.803	1162.654	1186.5334	1188.91	1225.5881	1248.9739	1278.5392	1284.2926	1318.1312	1326.3288	1413.731	1451.8395	1477.2425	1487.0969	1700.2564	3013.459	3056.6413	3074.9298	3078.8132	3084.3356	3093.4045	3104.5024	3108.6802	3228.0838	3820.7794
CC1=CC2C3C(O)C2C13	CC1=C[C@@H]2[C@H]3[C@@H](O)[C@@H]2[C@@H]13	
InChI=1S/C8H10O/c1-3-2-4-6-5(3)7(4)8(6)9/h2,4-9H,1H3	InChI=1S/C8H10O/c1-3-2-4-6-5(3)7(4)8(6)9/h2,4-9H,1H3/t4-,5+,6-,7+,8-
