17
gdb 75024	3.20134	1.31909	1.00666	4.9431	80.6	-0.2414	-0.0629	0.1785	1172.1487	0.136738	-421.873087	-421.865118	-421.864174	-421.905643	30.206	
C	-0.1145744722	 1.4817548406	 0.0524003812	-0.489766
C	-0.0431827677	-0.0122530183	-0.0414812937	 0.297676
C	-0.0697304177	-0.6847712127	-1.205441474	-0.164377
C	 0.0204100024	-2.1287269343	-1.3114758913	-0.054762
C	-0.3344902599	-3.0519194729	-0.394047819	-0.237762
C	-1.1163451951	-2.8392763937	 0.848942757	 0.403409
O	-1.8656418327	-3.6825189767	 1.2736684242	-0.336085
O	-1.0306274699	-1.6462643203	 1.4956487633	-0.220077
C	 0.0953168383	-0.7966606845	 1.2381424999	-0.193476
H	 0.7600052948	 1.8876761752	 0.5772219144	 0.135023
H	-0.1696465931	 1.9489436006	-0.9338084042	 0.130419
H	-0.9943395543	 1.7921019358	 0.6305892109	 0.145907
H	-0.1180994468	-0.1306929846	-2.1397081054	 0.097672
H	 0.3976459315	-2.5046063185	-2.2608534348	 0.112645
H	-0.236180799	-4.1042989838	-0.6372107472	 0.123779
H	 1.008643877	-1.4070123625	 1.2094679358	 0.126219
H	 0.1485453743	-0.1366766092	 2.106304703	 0.123554
82.2844	168.4941	205.0204	236.6269	326.5087	343.9036	361.4298	428.2191	513.2725	519.3868	645.339	723.5801	755.534	813.0561	837.641	884.7557	913.2981	967.5118	1006.4749	1022.3281	1065.3549	1076.3995	1089.572	1172.8351	1240.0588	1264.2945	1305.1541	1370.7185	1409.6301	1414.1519	1431.9036	1477.0574	1484.4484	1490.8885	1642.4359	1702.2824	1806.6533	3011.852	3017.7303	3064.5155	3109.7248	3119.942	3141.6329	3160.7695	3196.4988
CC1=CC=CC(=O)OC1	CC1=CC=CC(=O)OC1	
InChI=1S/C7H8O2/c1-6-3-2-4-7(8)9-5-6/h2-4H,5H2,1H3	InChI=1S/C7H8O2/c1-6-3-2-4-7(8)9-5-6/h2-4H,5H2,1H3
