16
gdb 29157	3.13386	1.39517	0.96765	2.7876	80.87	-0.1749	-0.0215	0.1534	1159.5858	0.126211	-434.097084	-434.088961	-434.088016	-434.12925	32.154	
N	 0.0384245937	 1.416952745	 0.4124256912	-0.591155
C	-0.0028696178	 0.0559775022	 0.0469900302	 0.210691
C	-1.1510349197	-0.6157196178	-0.1695480949	-0.055798
O	-1.1661360143	-1.9684341007	-0.4175136259	-0.23452
C	-0.0267269676	-2.704730592	-0.5071346891	 0.370727
N	-0.0413377811	-3.9634209025	-0.7258145751	-0.571341
C	 1.2472859744	-1.9950496021	-0.3219100797	 0.255565
N	 2.3611365314	-2.7788465087	-0.4895723452	-0.580477
C	 1.2389456768	-0.6673220031	-0.0309332693	-0.225626
H	 0.7566827118	 1.927202034	-0.0881101722	 0.244001
H	-0.849742484	 1.8848262918	 0.2811993894	 0.241607
H	-2.1493416023	-0.2028253476	-0.1511794702	 0.110518
H	-0.995415318	-4.3088301357	-0.8172558284	 0.21952
H	 2.1614936141	-3.7699387243	-0.4639876659	 0.272395
H	 3.2135339047	-2.4824024948	-0.0428833008	 0.248775
H	 2.167706408	-0.1351115435	 0.1508376559	 0.085118
113.4716	194.5439	244.4308	309.6311	340.3032	359.0643	389.5183	430.0882	473.1799	498.5267	544.4564	594.2945	596.5045	682.1686	715.8736	771.6867	779.9503	817.8498	825.6006	859.1711	994.2202	1030.4712	1111.4996	1144.3779	1207.8378	1241.474	1283.8499	1343.7335	1432.2424	1469.9991	1598.5244	1641.0502	1660.7052	1682.3101	1727.2014	3172.5696	3233.4685	3506.1627	3522.1032	3554.7929	3614.1025	3687.0309
NC1=COC(=N)C(N)=C1	NC1=COC(=C(N)C1)[NH]	
InChI=1S/C5H7N3O/c6-3-1-4(7)5(8)9-2-3/h1-2,8H,6-7H2	InChI=1S/C5H8N3O/c6-3-1-4(7)5(8)9-2-3/h2,8H,1,6-7H2
