17
gdb 127862	2.57422	1.57609	0.98437	3.2354	86.79	-0.1782	-0.0218	0.1564	1164.7249	0.138209	-414.193414	-414.185093	-414.184148	-414.22601	31.905	
C	 0.0438314776	 1.3614425325	-0.1220337144	-0.32387
N	 0.1213629869	-0.0855541982	-0.0845077503	-0.35502
C	 0.5846815269	-0.6544319082	 0.9821025259	 0.262767
C	 1.0605274692	-0.0347568228	 2.2045956862	-0.086474
N	 1.4933278833	-0.6665281509	 3.2667008543	-0.197052
N	 1.4945991428	-1.9917924757	 3.2118431396	-0.219967
C	 1.0892290454	-2.7360657951	 2.1283725112	-0.089522
C	 0.6404307976	-2.1173108647	 1.0003639501	 0.254707
N	 0.2615903056	-2.7466419282	-0.1579284062	-0.586456
H	 1.0304773881	 1.8426269318	-0.0294278564	 0.108774
H	-0.3828963893	 1.6744899995	-1.0791237986	 0.112725
H	-0.5938076797	 1.777330934	 0.6747420079	 0.10632
H	 1.0698740318	 1.0447520752	 2.2922048451	 0.115979
H	 1.8322388645	-2.4443674811	 4.0444855328	 0.274677
H	 1.1624067077	-3.8103823325	 2.2417935968	 0.114787
H	-0.1023966571	-3.6835506357	-0.097052916	 0.243908
H	-0.2292190912	-2.1099103797	-0.776713578	 0.26372
112.5366	156.1133	209.0054	218.6542	300.0008	334.9353	396.6946	429.7509	495.3898	506.7846	532.5416	601.4599	609.3713	626.4884	772.3589	774.8686	808.8542	902.9637	907.406	1020.6209	1068.5117	1103.7632	1119.7111	1164.0336	1247.2992	1265.9355	1347.0406	1399.0969	1438.4549	1445.4231	1487.7941	1503.6146	1523.8589	1580.3685	1599.3192	1656.3854	1682.9567	2962.0312	3004.881	3087.7413	3206.3409	3207.3549	3515.3812	3658.6038	3674.0866
CN=C1C=NNC=C1N	C[N]c1cn[nH]cc1N	
InChI=1S/C5H8N4/c1-7-5-3-9-8-2-4(5)6/h2-3H,1H3,(H2,6,9)(H,7,8)	InChI=1S/C5H13N4/c1-7-5-3-9-8-2-4(5)6/h4-5,8-9H,2-3,6H2,1H3
