15
gdb 74166	2.5812	1.42753	0.99988	5.1786	74.49	-0.2692	-0.0441	0.2251	1153.1436	0.111026	-420.643473	-420.635121	-420.634176	-420.67662	30.631	
C	-0.0166265431	 1.4781332047	 0.0680982915	-0.496281
C	-0.001936972	-0.0055634567	-0.0516685524	 0.335643
C	-0.0504043085	-0.7898628477	-1.1284076209	-0.376263
C	-0.0066808775	-2.2097774566	-0.7197151802	 0.44827
O	-0.0363552799	-3.2076825952	-1.3787987264	-0.34094
O	 0.0698760877	-2.2434879944	 0.659232228	-0.229301
C	 0.0747847368	-0.9083086287	 1.1743174183	-0.149521
C	 1.2569497407	-0.6632932794	 1.9952365243	 0.338004
C	 2.2225256905	-0.4306236692	 2.670085113	-0.456902
H	 0.8744274113	 1.8271245069	 0.6016982791	 0.157235
H	-0.0516349932	 1.9571408317	-0.9123277116	 0.142802
H	-0.8843539151	 1.8142475241	 0.6488830522	 0.144313
H	-0.1151762306	-0.4961293545	-2.1660685946	 0.134563
H	-0.8272973269	-0.7848515702	 1.7915885695	 0.135801
H	 3.0786841097	-0.2416578448	 3.2703351903	 0.212578
93.2587	135.4166	142.7993	184.7062	265.2517	284.3703	400.1557	450.9395	532.9501	580.7591	593.8598	637.5723	683.8033	731.3487	738.7344	858.8526	894.4386	909.2748	996.4369	1011.145	1060.9313	1078.3439	1148.2767	1180.9096	1286.8488	1315.5591	1334.4917	1413.0122	1475.5964	1481.7216	1712.219	1879.3255	2243.2729	3002.6348	3031.8388	3085.7293	3133.0169	3245.663	3499.1343
CC1=CC(=O)OC1C#C	CC1=CC(=O)O[C@H]1C#C	
InChI=1S/C7H6O2/c1-3-6-5(2)4-7(8)9-6/h1,4,6H,2H3	InChI=1S/C7H6O2/c1-3-6-5(2)4-7(8)9-6/h1,4,6H,2H3/t6-/m0/s1
