21
gdb 71593	2.08443	1.925	1.68082	1.2369	81.88	-0.2502	0.0761	0.3263	989.0594	0.18346	-387.067587	-387.059497	-387.058553	-387.099437	33.019	
C	-0.016405562	 1.5002041829	-0.063634519	-0.525758
C	 0.0226196496	-0.004713953	-0.0444058068	 0.300466
C	 0.6332111218	-0.9628388852	-1.1044913213	-0.292374
C	 0.0512223908	-1.8993805051	-0.0210076633	-0.13428
C	 0.5903104562	-0.9398533874	 1.080330035	-0.040668
C	-0.3737320704	-0.9392863581	 2.2724290069	-0.249016
C	-1.7259107082	-0.9559791048	 1.5129479741	-0.305713
C	-1.2060511245	-0.9630755015	 0.0713565226	 0.422838
O	-2.1424095862	-0.8931960107	-0.9627983862	-0.496022
H	 0.9921531364	 1.9222634405	-0.1327257917	 0.116259
H	-0.5929020815	 1.8614409387	-0.9219511506	 0.129653
H	-0.483539609	 1.8999335439	 0.8439866429	 0.114659
H	 0.143615245	-0.9803801565	-2.0800314617	 0.101387
H	 1.7229992559	-0.9469439924	-1.2025093651	 0.07962
H	 0.0622376589	-2.9913407562	 0.0057202631	 0.056924
H	 1.6646167837	-0.921753079	 1.2706674326	 0.06061
H	-0.2360175287	-1.8152719981	 2.9139029921	 0.096237
H	-0.2550328909	-0.0513514355	 2.9015537182	 0.098098
H	-2.3304522619	-1.8436189264	 1.7340738872	 0.085532
H	-2.3474603505	-0.0769706477	 1.7100765494	 0.102012
H	-2.7761162145	-1.6088121685	-0.8470810486	 0.279536
184.384	191.2242	211.3748	224.5772	258.5	342.4522	396.4633	435.7572	460.347	640.3782	648.535	679.5377	718.7212	722.7403	834.8879	837.3958	895.5246	915.8222	942.4729	961.8982	991.3216	1018.5638	1026.4571	1048.4467	1087.9799	1109.0217	1117.1613	1173.5077	1181.25	1190.9419	1214.5573	1227.575	1240.0047	1248.4571	1270.4093	1306.0954	1319.8632	1329.903	1400.896	1411.4711	1482.7946	1490.5458	1492.4459	1507.6689	1513.1844	3025.0289	3031.577	3047.7449	3050.5662	3072.5595	3084.4315	3088.6116	3092.165	3096.7617	3106.2217	3121.4638	3809.1367
CC12CC3C1CCC23O	C[C@@]12C[C@H]3[C@@H]1CC[C@@]23O	
InChI=1S/C8H12O/c1-7-4-6-5(7)2-3-8(6,7)9/h5-6,9H,2-4H2,1H3	InChI=1S/C8H12O/c1-7-4-6-5(7)2-3-8(6,7)9/h5-6,9H,2-4H2,1H3/t5-,6-,7+,8-/m0/s1
