20
gdb 121751	3.78331	0.68248	0.62404	2.7237	73.93	-0.2551	0.0565	0.3116	1845.5426	0.169344	-477.463943	-477.453137	-477.452193	-477.502603	36.873	
C	-0.2585534947	 1.149808551	-0.6983757271	-0.370936
C	-0.2099880489	 0.1188560038	 0.4319218059	-0.143808
N	-1.4252291831	-0.6694038776	 0.5448031271	-0.361879
C	-1.517983184	-1.9343244499	 0.0562902029	 0.527001
O	-0.6161352889	-2.5795771141	-0.4292638139	-0.410413
O	-2.7921782793	-2.3958899983	 0.2077678909	-0.297376
C	-3.0187390459	-3.7358281002	-0.2633518627	-0.068439
C	-4.4934486985	-4.0175938783	-0.0415238379	-0.06913
O	-5.3221406168	-3.1411533802	-0.7802970383	-0.419052
H	 0.6739744441	 1.7221115742	-0.7331604034	 0.120639
H	-0.3957344771	 0.6560606663	-1.6646663185	 0.134758
H	-1.0818371099	 1.8583011769	-0.5560286081	 0.111694
H	 0.6012122368	-0.5927096802	 0.2640709694	 0.149596
H	-0.0221827685	 0.615450084	 1.3911346026	 0.107692
H	-2.2751444552	-0.2338970933	 0.8631325034	 0.247319
H	-2.7602861098	-3.7961109804	-1.3245476385	 0.127893
H	-2.3858377982	-4.4375565065	 0.2896448259	 0.118309
H	-4.7180142074	-5.0329675577	-0.3839430142	 0.115518
H	-4.7150141955	-3.9706341764	 1.0366362193	 0.093807
H	-5.038691569	-2.247904203	-0.5569242747	 0.286807
22.4851	28.888	62.6052	95.3171	136.9478	188.8815	241.8514	293.5831	327.6439	373.79	400.436	455.576	478.6585	522.3314	707.9298	777.2282	800.7565	864.4352	894.6141	915.5136	998.1194	1045.6412	1089.579	1103.3645	1128.7594	1168.0827	1179.1482	1229.7433	1247.4864	1263.5527	1326.9803	1384.2003	1390.2986	1399.5959	1412.0712	1435.1298	1480.5252	1492.7008	1497.3758	1501.0362	1502.4494	1551.7354	1818.6394	2982.817	3035.1034	3038.2598	3051.5324	3082.8193	3098.2903	3105.7797	3116.4216	3127.2519	3649.1074	3810.531
CCNC(=O)OCCO	CCNC(=O)OCCO	
InChI=1S/C5H11NO3/c1-2-6-5(8)9-4-3-7/h7H,2-4H2,1H3,(H,6,8)	InChI=1S/C5H11NO3/c1-2-6-5(8)9-4-3-7/h7H,2-4H2,1H3,(H,6,8)
