14
gdb 45396	2.21703	1.76266	1.25656	3.5074	67.25	-0.2749	-0.0581	0.2169	993.5931	0.100314	-436.673367	-436.665777	-436.664833	-436.705915	27.678	
O	 0.0030552201	 0.0342825972	-0.4055912377	-0.259922
C	-0.0425271676	 1.1758877583	-0.0760041467	 0.360075
C	-1.1350848403	 2.11761744	 0.4568019021	-0.35777
C	-0.0778337025	 3.237540447	 0.5778474073	 0.067307
O	 0.5903028763	 3.225837871	 1.8467007154	-0.276714
C	 1.6934884217	 2.4504138618	 1.3412699311	-0.114206
C	 1.0303101227	 2.3165905287	-0.0614164218	 0.007052
C	 1.8024915951	 2.5781631829	-1.2426882312	 0.199091
N	 2.4114506235	 2.7897718792	-2.2032265097	-0.328303
H	-1.8795647331	 2.3115169376	-0.3241338462	 0.155321
H	-1.642611948	 1.8248861857	 1.3781085618	 0.155025
H	-0.3204401045	 4.2385653958	 0.2212310891	 0.11527
H	 2.6201454155	 3.0325507367	 1.314754457	 0.140939
H	 1.8537113313	 1.5176624982	 1.8911032495	 0.136833
80.8716	123.1724	168.4674	222.0356	345.6771	389.8785	488.5061	508.4488	553.4464	607.926	651.2013	751.3186	841.3599	909.4072	927.8713	999.0847	1008.3702	1029.3232	1058.4452	1100.9617	1117.4903	1163.4324	1179.4229	1228.3604	1263.6135	1312.9028	1357.9022	1414.9163	1522.9952	1911.9127	2349.9217	3040.7324	3055.5164	3096.6338	3121.8852	3129.4015
O=C1CC2OCC12C#N	O=C1C[C@H]2OC[C@@]12C#N	
InChI=1S/C6H5NO2/c7-2-6-3-9-5(6)1-4(6)8/h5H,1,3H2	InChI=1S/C6H5NO2/c7-2-6-3-9-5(6)1-4(6)8/h5H,1,3H2/t5-,6+/m1/s1
