19
gdb 95152	2.67914	1.74952	1.45915	2.048	74.16	-0.2365	0.011	0.2475	967.2959	0.161966	-423.033351	-423.02608	-423.025136	-423.064598	29.961	
O	-0.074180031	 1.4548926049	 0.0538153862	-0.445247
C	 0.0076207579	 0.0379127136	-0.0040086908	 0.13599
C	 0.8232622668	-0.5456155773	 1.1714397973	-0.248398
C	 0.5464645982	-2.0484267466	 1.4170961509	-0.211905
C	-0.958328222	-2.3448863579	 1.2393929893	 0.03643
O	-1.3042668734	-1.9388892062	-0.0914822693	-0.258824
C	-1.4324734607	-0.5199563702	 0.0207417261	 0.0178
C	-2.083748467	-0.3387052642	 1.3821780911	-0.072483
C	-1.8120749868	-1.4242955634	 2.1005055831	-0.084311
H	 0.8211640106	 1.8077030252	 0.0683103757	 0.28268
H	 0.4477685585	-0.2888249986	-0.9585839474	 0.071036
H	 1.8939010708	-0.3828825307	 0.9978199832	 0.085578
H	 0.5555411581	 0.0282418413	 2.0635270664	 0.112036
H	 1.090002091	-2.6635692406	 0.6918774183	 0.107159
H	 0.8943223385	-2.337627929	 2.4156901712	 0.095053
H	-1.1778470519	-3.4112157427	 1.3431477283	 0.078272
H	-2.0114842084	-0.1405468028	-0.8251179262	 0.084434
H	-2.5999450012	 0.5582971547	 1.6945672421	 0.112482
H	-2.059313168	-1.6146226893	 3.1368310745	 0.102219
152.1392	237.3906	258.7984	292.0301	363.8517	412.5102	428.9981	499.1847	588.8769	635.5743	738.9684	770.2809	814.1859	838.7136	868.5557	906.8263	924.5095	935.0749	956.0412	972.4439	1022.78	1049.0413	1076.7926	1089.4437	1103.1476	1132.6203	1175.3861	1217.5835	1231.1184	1285.7837	1300.6548	1305.9116	1335.1559	1342.9276	1361.9829	1372.1318	1394.5293	1423.1143	1476.4678	1495.6676	1665.4247	2982.5156	3029.3491	3038.9347	3071.9053	3073.9949	3082.3645	3092.74	3212.4501	3242.2402	3815.5927
OC1CCC2OC1C=C2	O[C@H]1CC[C@@H]2O[C@H]1C=C2	
InChI=1S/C7H10O2/c8-6-3-1-5-2-4-7(6)9-5/h2,4-8H,1,3H2	InChI=1S/C7H10O2/c8-6-3-1-5-2-4-7(6)9-5/h2,4-8H,1,3H2/t5-,6-,7-/m0/s1
