21
gdb 91408	2.54565	1.66287	1.23468	2.9661	81.58	-0.2315	-0.0052	0.2263	1090.0712	0.184667	-387.118025	-387.110039	-387.109095	-387.150418	31.907	
C	 0.1898165344	 1.6058912719	-0.0100580879	-0.40536
C	 0.1268994396	 0.0786310229	 0.012123864	-0.078497
C	 0.6498872723	-0.5915716365	-1.2879132345	-0.227274
C	 1.2244060747	-1.9919534911	-1.0279031519	-0.011258
C	 0.4138071011	-2.7206206984	 0.0812909755	-0.244509
C	 1.2827918237	-1.9348925565	 1.108063462	-0.107181
C	 2.3853178282	-1.8947402228	-0.0031870233	-0.226076
C	 0.7849667952	-0.512753262	 1.2697550009	 0.406793
O	 0.8970926949	 0.1084815947	 2.3012934119	-0.336668
H	 1.2223132979	 1.9509755765	-0.1302700644	 0.117847
H	-0.3993828918	 2.0074868859	-0.8403672258	 0.107896
H	-0.190297566	 2.0190549054	 0.926234984	 0.136924
H	-0.928835164	-0.212731379	 0.1250282403	 0.107804
H	-0.1619590883	-0.6428102274	-2.0220548575	 0.099003
H	 1.4320203096	 0.0362052539	-1.733273748	 0.102499
H	 1.4137431545	-2.5245868269	-1.9628597671	 0.065833
H	-0.6720448029	-2.594750706	 0.1093998028	 0.09834
H	 0.6498892887	-3.7871614642	 0.1173035979	 0.105112
H	 1.5201328018	-2.3715550633	 2.0784012585	 0.080354
H	 2.9930731892	-2.8026597325	 0.0244901984	 0.105917
H	 3.0429942871	-1.0212761647	-0.0459541558	 0.102501
74.2678	172.0161	203.1792	277.4571	357.2715	369.1783	382.1716	442.3699	482.4018	558.2735	651.0913	748.3522	815.3595	827.0154	851.7586	884.5243	909.7139	932.1773	944.4479	977.6399	1001.789	1043.5096	1058.1648	1083.5315	1099.8581	1132.8349	1141.8444	1161.7604	1209.4653	1225.985	1249.1445	1266.2069	1286.7825	1304.197	1322.6496	1329.2692	1343.4724	1376.0161	1409.5736	1481.8115	1489.7433	1496.1917	1498.892	1512.4393	1810.2254	2988.7969	3023.8439	3039.746	3048.701	3055.6456	3063.7586	3077.5649	3102.8896	3105.7493	3108.0725	3114.4875	3134.194
CC1CC2CC(C2)C1=O	C[C@H]1C[C@@H]2C[C@@H](C2)C1=O	
InChI=1S/C8H12O/c1-5-2-6-3-7(4-6)8(5)9/h5-7H,2-4H2,1H3	InChI=1S/C8H12O/c1-5-2-6-3-7(4-6)8(5)9/h5-7H,2-4H2,1H3/t5-,6-,7+/m0/s1
