21
gdb 41347	2.91719	1.79001	1.48924	1.864	80.42	-0.2425	0.0745	0.317	970.1171	0.186908	-387.081432	-387.074697	-387.073752	-387.112099	29.008	
C	 0.0602668672	 1.4877911541	-0.0897477666	-0.208484
O	 1.4946822244	 1.4302615709	 0.161886383	-0.311952
C	 1.3339429558	 0.1017590373	 0.7339529725	 0.143545
C	 2.1872157591	-1.0968540374	 0.2792937326	-0.264948
C	 1.1016662442	-1.9343632508	-0.4537332836	-0.005109
C	-0.0394116683	-2.3463901803	 0.5356139958	-0.210355
C	-0.9115345829	-1.0430309539	 0.7251515581	-0.321215
C	-0.0144631957	-0.0409791491	 0.0097909506	 0.321996
C	 0.4006322893	-0.8247822613	-1.2564533031	-0.25351
H	-0.4603372718	 2.0238410811	 0.7160625118	 0.095595
H	-0.1706524077	 1.9561197871	-1.0519772062	 0.103006
H	 1.2607936831	 0.1831685198	 1.8272162195	 0.064604
H	 2.9780952398	-0.7887865814	-0.4116369864	 0.110597
H	 2.6516678	-1.6224998804	 1.1187517885	 0.092852
H	 1.5014982582	-2.7789414813	-1.0181865886	 0.058625
H	-0.6389000197	-3.1537799494	 0.1066181469	 0.101833
H	 0.359724471	-2.7133823243	 1.4862217645	 0.098314
H	-1.8944410892	-1.1528961476	 0.2562132873	 0.095689
H	-1.0689141423	-0.7960636706	 1.7791631906	 0.096241
H	 1.0762858081	-0.265473234	-1.9078331049	 0.104773
H	-0.4601428726	-1.1706452584	-1.8375211822	 0.087904
177.1209	258.295	311.4857	370.4024	396.5878	445.0605	507.4307	625.2242	706.6075	751.349	797.8991	827.1668	839.5221	852.288	897.6216	921.0826	941.6161	953.64	964.356	981.6573	1007.891	1018.3133	1063.1204	1093.6751	1117.9252	1127.6101	1151.724	1171.3494	1196.3747	1208.3225	1255.1996	1256.5048	1265.4699	1276.3634	1294.8114	1324.3673	1329.4689	1342.2098	1367.3305	1377.7876	1477.6676	1488.9341	1496.7069	1516.5765	1517.8059	2997.9442	3007.1207	3043.3294	3051.2139	3052.3538	3056.0202	3073.2317	3081.9523	3094.558	3099.1703	3104.0885	3112.0053
C1OC2CC3CCC12C3	C1O[C@@H]2C[C@H]3CC[C@@]12C3	
InChI=1S/C8H12O/c1-2-8-4-6(1)3-7(8)9-5-8/h6-7H,1-5H2	InChI=1S/C8H12O/c1-2-8-4-6(1)3-7(8)9-5-8/h6-7H,1-5H2/t6-,7-,8-/m1/s1
