20
gdb 109360	2.74405	1.31356	0.96714	3.463	83.24	-0.2249	-0.0451	0.1798	1266.251	0.171913	-403.178333	-403.169446	-403.168501	-403.212112	33.288	
C	 0.0625021379	 1.5250844573	 0.1579224308	-0.376528
C	-0.0143263713	 0.0027788701	-0.0506730551	-0.276517
C	-1.4265408769	-0.5279429667	-0.0579426745	 0.207674
C	-2.0753847593	-0.903599019	-1.1710796714	-0.128158
C	-3.4668228346	-1.4630363655	-1.1832902872	-0.214585
N	-3.833500977	-1.9703850836	 0.1303782833	-0.304387
C	-3.6137158997	-0.9930880518	 1.1881835501	-0.276235
C	-2.1443104689	-0.5843715505	 1.2425389789	 0.35438
O	-1.6192829669	-0.2612344003	 2.2900217573	-0.329766
H	 1.1041170402	 1.8608746183	 0.1564336268	 0.112266
H	-0.4657118027	 2.0585012728	-0.6393543301	 0.108215
H	-0.3833601412	 1.8052079143	 1.1149953352	 0.142248
H	 0.4744454237	-0.2678553942	-0.992956721	 0.094057
H	 0.5373531828	-0.4906683115	 0.7566855163	 0.12213
H	-1.5883828832	-0.8058661153	-2.139477357	 0.100885
H	-4.151629043	-0.6735773744	-1.5625663315	 0.096554
H	-3.5230272355	-2.2837770998	-1.9090128675	 0.117503
H	-4.79804418	-2.2814623472	 0.1318646647	 0.226128
H	-4.2006769414	-0.0585090895	 1.0659926718	 0.096799
H	-3.8821788929	-1.4204967336	 2.1571729403	 0.127338
79.9846	86.6486	160.2627	213.4117	242.6596	294.5391	310.2574	380.6687	451.5934	500.4463	525.4605	606.7134	698.1185	729.7486	778.7963	835.5572	872.0587	921.6558	969.4413	992.7696	1004.8951	1043.8087	1081.1048	1100.2063	1142.2311	1180.6012	1202.5083	1243.3294	1275.0686	1286.6762	1301.5507	1354.1661	1392.0184	1401.975	1414.9603	1474.5038	1475.1925	1490.5888	1491.056	1496.2818	1511.6414	1702.8124	1773.5578	2866.6524	2884.5795	3038.6855	3039.128	3039.9039	3079.7632	3099.6578	3105.1649	3132.2486	3148.6367	3534.9769
CCC1=CCNCC1=O	CCC1=CCNCC1=O	
InChI=1S/C7H11NO/c1-2-6-3-4-8-5-7(6)9/h3,8H,2,4-5H2,1H3	InChI=1S/C7H11NO/c1-2-6-3-4-8-5-7(6)9/h3,8H,2,4-5H2,1H3
