15
gdb 37576	4.06937	1.67046	1.44045	1.7934	63.9	-0.2409	0.0578	0.2987	878.9127	0.112884	-457.620988	-457.614788	-457.613844	-457.651584	24.936	
C	-0.0330613385	 1.4580487564	 0.0301371306	-0.001887
O	 1.2912867632	 1.995693167	-0.031050564	-0.284223
C	 2.0406737186	 0.9338146665	-0.6232396177	 0.03462
C	 3.2443668776	 0.2134583995	 0.0157563766	-0.155446
C	 2.4367398445	-0.2592056158	 1.2439118274	 0.010467
O	 2.7595720305	-1.6729305406	 1.073783379	-0.307805
C	 2.5703600026	-1.2169723431	-0.2763632223	-0.033853
C	 1.3885512878	-0.2248838597	 0.0518482769	 0.425748
O	 0.0312873461	 0.0002128452	 0.123652636	-0.334806
H	-0.522961768	 1.8609712391	 0.9206022816	 0.129812
H	-0.6038043221	 1.69979605	-0.8765038939	 0.11322
H	 2.0258254716	 0.9889035554	-1.7178920325	 0.081774
H	 4.3106206368	 0.4205116495	-0.0282128203	 0.1014
H	 2.383539755	 0.1510062576	 2.2490245473	 0.110364
H	 2.7325252544	-1.904366787	-1.1048586847	 0.110615
122.4689	230.7429	323.649	353.6783	539.8527	612.7886	686.1517	694.1605	738.1021	810.7431	846.6861	857.5028	880.8416	912.5582	924.3663	950.0668	1014.9352	1020.1242	1039.483	1077.6778	1101.9671	1122.7641	1125.2105	1151.5086	1178.4978	1199.0647	1207.9702	1249.3803	1298.9331	1321.3085	1392.1565	1421.3069	1533.4886	3012.2166	3041.9514	3097.1535	3139.2841	3153.9477	3165.5661
C1OC2C3C4OC3C24O1	C1O[C@H]2[C@H]3[C@@H]4O[C@H]3[C@]24O1	
InChI=1S/C6H6O3/c1-7-3-2-4-6(3,8-1)5(2)9-4/h2-5H,1H2	InChI=1S/C6H6O3/c1-7-3-2-4-6(3,8-1)5(2)9-4/h2-5H,1H2/t2-,3-,4-,5+,6-/m0/s1
