19
gdb 112276	2.38766	1.20474	0.91443	1.8529	72.84	-0.2268	-0.025	0.2018	1314.2401	0.156566	-460.146667	-460.136803	-460.135859	-460.182002	34.83	
C	-0.0403439044	 1.5426768646	-0.3274806496	-0.247547
O	 0.6265552476	 0.3340555502	 0.0012627137	-0.245347
C	 0.7700477973	-0.5309141786	-1.0831311796	 0.029761
C	 1.460784991	-1.8983893476	-0.7943318672	-0.070742
C	 1.3636445867	-2.317021949	 0.6642353899	-0.075262
O	 1.7869982191	-3.6707784777	 0.7413109946	-0.424348
C	 0.4084966614	-2.6150772169	-1.6967591354	-0.343876
C	-0.4489392485	-1.3429325085	-1.5941550493	 0.361737
O	-1.6168402956	-1.1023195561	-1.7049530864	-0.300575
H	 0.5122270063	 2.1022018873	-1.0982440085	 0.105876
H	-1.0579788553	 1.3540364745	-0.6872788406	 0.143217
H	-0.0803793629	 2.1414517661	 0.5849877707	 0.128918
H	 1.2509723535	-0.0276539866	-1.9414808093	 0.087871
H	 2.4957409037	-1.9740773284	-1.1311625096	 0.087078
H	 1.9917823131	-1.6575292754	 1.2790788257	 0.103987
H	 0.3273774213	-2.1995926289	 1.018869329	 0.097001
H	 1.7164837632	-3.9546051247	 1.657360859	 0.288815
H	 0.7535369566	-2.7974273341	-2.7190078151	 0.129559
H	-0.0297857742	-3.5340309403	-1.3031490319	 0.143877
66.0827	89.9726	122.7321	133.0901	164.8264	227.9445	262.5499	284.4459	326.4667	399.215	431.8077	531.8671	582.716	719.3244	761.6378	832.7779	880.3121	925.7776	1010.1565	1047.4374	1053.4621	1079.9158	1085.7429	1133.2395	1167.8173	1178.2546	1186.2767	1225.0146	1237.6108	1246.6479	1274.239	1287.6037	1358.7689	1368.2459	1441.3411	1462.2387	1479.9996	1486.0449	1513.8239	1518.5351	1883.2283	2941.6935	2979.4599	2986.5894	3022.1606	3066.0452	3070.0693	3101.8388	3126.9449	3130.1287	3830.4848
COC1C(CO)CC1=O	CO[C@H]1[C@@H](CO)CC1=O	
InChI=1S/C6H10O3/c1-9-6-4(3-7)2-5(6)8/h4,6-7H,2-3H2,1H3	InChI=1S/C6H10O3/c1-9-6-4(3-7)2-5(6)8/h4,6-7H,2-3H2,1H3/t4-,6+/m1/s1
