19
gdb 119294	2.29617	1.23718	0.95274	4.8623	77.02	-0.2319	0.0089	0.2408	1314.2463	0.158812	-419.185149	-419.175605	-419.174661	-419.220274	33.742	
C	 0.1811101288	 1.4111728471	 0.1103208159	-0.310812
N	 0.1451156744	-0.0409557159	 0.0214817149	-0.277797
C	 0.6169226313	-0.562679191	-1.242792605	-0.178361
C	 0.5347481374	-2.0875070012	-1.2351830654	 0.249476
C	 1.342385525	-2.8332899506	-2.333623868	-0.34279
C	 2.1701608191	-3.3838242072	-1.1564526558	-0.066158
O	 1.3773594584	-2.6450069431	-0.1945568563	-0.308517
C	-0.8551974127	-2.5509135477	-1.0905714828	 0.28468
N	-1.9366432325	-2.953095079	-1.0292201704	-0.33947
H	 1.1749239046	 1.8526664327	-0.0862534492	 0.0943
H	-0.5209434249	 1.8404981183	-0.6132887746	 0.126317
H	-0.1390691513	 1.7220573205	 1.1083808107	 0.126694
H	 0.6940427503	-0.4549789596	 0.7677442484	 0.235106
H	-0.0128155578	-0.1747949159	-2.0543291414	 0.120043
H	 1.6627158105	-0.2885035586	-1.4818592981	 0.081376
H	 0.7770412469	-3.5704248051	-2.9017011513	 0.140293
H	 1.8722294856	-2.1677002901	-3.0162549997	 0.12559
H	 2.0962055259	-4.4636717966	-0.9916076736	 0.123668
H	 3.2227937812	-3.0843667372	-1.1255005383	 0.116363
63.0461	85.4372	111.0645	139.0653	200.2798	203.9005	252.6233	337.3607	373.6935	407.7434	538.2382	574.2584	706.0812	780.3728	794.8891	855.9155	895.1608	962.4206	986.8444	993.1222	1015.356	1043.3731	1133.3707	1154.115	1159.3039	1176.5001	1199.6009	1208.8719	1243.9136	1264.2243	1305.4903	1348.0788	1384.6654	1460.757	1487.5625	1487.6058	1490.4559	1504.6269	1519.4651	1530.6116	2355.9278	2914.9343	2942.8193	3039.378	3041.7823	3058.7992	3084.7781	3094.5985	3110.8635	3158.2591	3528.8215
CNCC1(CCO1)C#N	CNC[C@]1(CCO1)C#N	
InChI=1S/C6H10N2O/c1-8-5-6(4-7)2-3-9-6/h8H,2-3,5H2,1H3	InChI=1S/C6H10N2O/c1-8-5-6(4-7)2-3-9-6/h8H,2-3,5H2,1H3/t6-/m0/s1
