18
gdb 14402	3.30256	2.56333	2.06131	1.4821	70.36	-0.235	0.0974	0.3324	753.3333	0.155706	-347.772909	-347.766636	-347.765692	-347.802799	26.257	
C	 0.0575357263	 1.5032957917	-0.1274328495	-0.512309
C	-0.0439564049	 0.0116807665	-0.0399512021	 0.482062
O	 0.4502722705	-0.7246216525	-1.1688951552	-0.331137
C	-0.2529456103	-1.8531237694	-0.568213642	 0.06865
C	 0.6541825814	-2.1488317128	 0.6417117059	-0.205897
C	 0.3609973941	-0.7879210816	 1.3057957543	-0.119838
C	-1.1554038455	-0.9155940639	 1.6079093257	-0.249311
C	-1.3102315651	-0.8763876888	 0.0799255783	-0.116895
H	 1.1084572081	 1.8102978079	-0.1649856514	 0.130784
H	-0.440207642	 1.875762692	-1.02768813	 0.12845
H	-0.4013409424	 1.9754012431	 0.7467432234	 0.123452
H	-0.5084988394	-2.6398130123	-1.2763930785	 0.07687
H	 0.3421054985	-2.9966576625	 1.2583612356	 0.092613
H	 1.6872002205	-2.2864775149	 0.3168678548	 0.105059
H	 1.0665630893	-0.3910956184	 2.0342050223	 0.063826
H	-1.4873852865	-1.7991638814	 2.1607717935	 0.092781
H	-1.5797758403	-0.0176173326	 2.0660386254	 0.09931
H	-2.2384017922	-0.6852254101	-0.4567884805	 0.071529
203.8817	244.2915	274.3904	431.3403	462.6417	532.6024	600.5588	684.1636	720.4633	790.8747	834.7334	857.1802	882.2673	902.319	919.3871	946.8984	962.6695	987.5847	990.2247	1031.1576	1074.3131	1089.8677	1122.8562	1148.3836	1160.2519	1181.6137	1216.1322	1234.3063	1248.5644	1287.2383	1299.7262	1317.8068	1356.9928	1415.8436	1476.127	1479.7722	1493.8668	1505.0551	3035.4381	3050.1698	3062.0012	3101.7651	3103.6845	3114.1588	3120.994	3124.9344	3128.8121	3136.9149
CC12OC3CC1CC23	C[C@@]12O[C@H]3C[C@@H]1C[C@@H]23	
InChI=1S/C7H10O/c1-7-4-2-5(7)6(3-4)8-7/h4-6H,2-3H2,1H3	InChI=1S/C7H10O/c1-7-4-2-5(7)6(3-4)8-7/h4-6H,2-3H2,1H3/t4-,5+,6-,7+/m0/s1
