13
gdb 27854	2.12156	1.86053	0.99125	5.4274	66.04	-0.2378	-0.0268	0.211	1082.8619	0.089288	-489.968898	-489.960819	-489.959874	-490.002017	29.412	
N	-0.0215755354	 1.3398392868	 0.007847706	-0.550567
C	 0.0276366244	-0.008208187	 0.0007013886	 0.45134
N	-1.1430409528	-0.6329910607	 0.003939488	-0.425768
C	-1.2130195642	-1.9674493178	-0.0025210256	 0.438813
O	-2.1493605591	-2.7030119144	-0.0012116775	-0.333755
O	 0.1082623598	-2.7004288782	-0.0136946915	-0.2868
C	 1.2341196741	-2.0252013129	-0.0164183166	 0.520152
O	 2.3296528936	-2.7835555236	-0.0263851208	-0.394372
C	 1.289146414	-0.666339929	-0.0096859786	-0.391849
H	 0.8098390624	 1.9013746583	 0.006284349	 0.269662
H	-0.924616103	 1.7829267699	 0.0152389511	 0.275899
H	 2.0441641137	-3.7083344041	-0.0295680256	 0.316679
H	 2.2346137025	-0.1459371074	-0.0122250265	 0.110566
66.3319	122.7614	176.5734	202.7416	307.8202	358.6651	476.3699	478.8751	522.1992	559.6019	582.7844	628.3483	704.506	726.4845	745.0785	766.1783	789.6798	959.5486	1028.3946	1057.0465	1192.9375	1262.2738	1278.9399	1439.9324	1517.3692	1559.4283	1639.9563	1718.5078	1923.2006	3245.6483	3621.7461	3760.3464	3772.6602
NC1=NC(=O)OC(O)=C1	Nc1nc(=O)oc(O)c1	
InChI=1S/C4H4N2O3/c5-2-1-3(7)9-4(8)6-2/h1,7H,(H2,5,6,8)	InChI=1S/C4H4N2O3/c5-2-1-3(7)9-4(8)6-2/h1,7H,(H2,5,6,8)
