15
gdb 29492	3.37049	1.65645	1.11386	2.4948	74.4	-0.1751	0.027	0.2021	1015.0372	0.116744	-413.026014	-413.018541	-413.017597	-413.05757	28.891	
N	 0.0415364213	 1.4811867846	 0.1380363304	-0.617393
C	 0.0475617984	 0.0694569907	 0.0209517676	 0.065329
C	-1.0373434901	-0.7916582431	-0.0199838865	-0.140947
N	-0.6065776678	-2.1166440315	-0.050293969	-0.400826
C	 0.7606828919	-2.1010202597	-0.039203661	 0.355936
C	 1.1861735839	-0.7826466315	 0.0093647046	 0.302801
N	 2.5661904468	-0.8805781115	 0.0259000369	-0.421167
C	 2.8563244839	-2.2272405642	-0.0016103681	-0.009612
N	 1.7863037172	-3.0006321797	-0.0452838788	-0.360088
H	 0.4771623039	 1.9260803535	-0.6646665679	 0.235171
H	-0.9062343445	 1.8351743435	 0.2001796974	 0.235942
H	-2.0899472692	-0.556452519	-0.0243617778	 0.105433
H	-1.1989096465	-2.9264572595	-0.0386820027	 0.261847
H	 3.2353443866	-0.1365813193	 0.1150097691	 0.263399
H	 3.8760782043	-2.5820044832	 0.0073824157	 0.124175
165.6433	195.4698	231.7679	249.1941	272.9863	395.3678	443.4764	544.1604	590.5126	616.3692	633.7385	680.6451	704.7891	754.8122	783.7152	811.9194	850.8011	962.3014	1072.5194	1085.0508	1109.5163	1157.4481	1225.0533	1286.7492	1318.2062	1359.9379	1391.6564	1468.1539	1506.8686	1542.1299	1581.291	1630.1477	1654.1879	3253.0427	3256.3145	3488.7734	3583.4705	3685.5869	3700.7769
NC1=CNC2=C1NC=N2	Nc1c[nH]c2c1[nH]cn2	
InChI=1S/C5H6N4/c6-3-1-7-5-4(3)8-2-9-5/h1-2,7H,6H2,(H,8,9)	InChI=1S/C5H6N4/c6-3-1-7-5-4(3)8-2-9-5/h1-2,7H,6H2,(H,8,9)
