18
gdb 8209	2.77616	2.3391	1.64418	1.4744	67.43	-0.2502	0.07	0.3202	848.4909	0.153718	-384.931538	-384.923797	-384.922853	-384.962916	30.06	
C	-0.0637773821	 1.5311018982	 0.0059075019	-0.483512
C	-0.0173479962	 0.0250375786	 0.0104912065	 0.271098
C	 1.2810862078	-0.7128410712	-0.2741506123	-0.397037
C	 0.6638068959	-0.7660739378	 1.1001921417	 0.332001
O	 1.2491925888	-0.1137910082	 2.1823205435	-0.468308
C	-0.2419798953	-1.9563400021	 1.3775028171	-0.137101
O	-1.0667092791	-2.076897907	 0.2258848581	-0.256035
C	-1.2731476756	-0.7698337208	-0.3107496155	-0.133612
H	 0.8287003218	 1.9429946224	 0.4845206181	 0.130285
H	-0.1212845791	 1.9294906607	-1.0131487268	 0.116905
H	-0.9354109682	 1.8991833059	 0.5590306769	 0.118571
H	 1.2608553562	-1.6050915441	-0.8928730608	 0.118979
H	 2.1651743762	-0.0924106349	-0.3790617795	 0.109131
H	 2.0845843624	-0.5494468053	 2.3810907432	 0.287561
H	 0.2808144659	-2.911067551	 1.5050408656	 0.09914
H	-0.8263008371	-1.7505233818	 2.2893223639	 0.096411
H	-2.1479389796	-0.2835630072	 0.1529262898	 0.089388
H	-1.4728416927	-0.8889142744	-1.3811732413	 0.106134
180.7305	197.0904	214.7452	240.1802	282.2868	341.8167	367.4522	424.7588	508.2205	537.1192	641.2016	704.1911	756.0425	895.4112	923.0567	929.0833	953.6288	980.4103	1031.812	1050.1835	1068.3046	1092.3378	1142.1667	1182.1576	1210.0757	1239.2283	1255.5412	1292.4915	1316.6458	1355.1829	1381.866	1415.0464	1420.9573	1485.4498	1490.6034	1502.7126	1509.2862	1523.0649	2964.5407	2975.9228	3028.8663	3058.2717	3063.873	3086.5737	3114.4654	3121.1041	3213.9365	3804.2376
CC12CC1(O)COC2	C[C@@]12C[C@]1(O)COC2	
InChI=1S/C6H10O2/c1-5-2-6(5,7)4-8-3-5/h7H,2-4H2,1H3	InChI=1S/C6H10O2/c1-5-2-6(5,7)4-8-3-5/h7H,2-4H2,1H3/t5-,6-/m0/s1
