17
gdb 107336	2.71308	1.59149	1.23245	2.8321	67.85	-0.2619	-0.0215	0.2404	1026.8896	0.135663	-458.935702	-458.927498	-458.926554	-458.968495	31.299	
O	-0.0097732037	 1.4115843326	-0.0326978134	-0.42408
C	 0.0107920858	-0.0006891949	 0.094800071	-0.140687
C	-1.354124704	-0.600469989	-0.1086480803	 0.3164
O	-2.1167962454	-0.9320937891	 1.0732314506	-0.308929
C	-1.7863137301	-1.9810501348	 0.1190858145	-0.080584
C	-2.9066927763	-2.2569805946	-0.8384075956	-0.079622
C	-3.1937870665	-1.1568796888	-1.5376676526	-0.126154
C	-2.2906895012	 0.0087515538	-1.1661571963	 0.038223
O	-2.9952054823	 1.1241473021	-0.6252882248	-0.439767
H	-0.8915773643	 1.7252970757	 0.2025998979	 0.294578
H	 0.7030124851	-0.375938984	-0.6698227256	 0.108872
H	 0.3896904133	-0.3187804243	 1.077430098	 0.103133
H	-1.1404180436	-2.7627151501	 0.5067608914	 0.106715
H	-3.4152825655	-3.2112471886	-0.9000014785	 0.114097
H	-4.0065217516	-1.0416180508	-2.2452559637	 0.115818
H	-1.7320217368	 0.4007141388	-2.0215326426	 0.11053
H	-3.4111537826	 0.789621926	 0.18194957	 0.291457
82.2898	118.8194	191.4784	267.2134	275.4111	325.6298	388.841	463.726	511.3204	534.6102	589.648	682.7683	705.3719	774.74	826.5672	870.0234	917.8679	957.6067	969.7763	998.2779	1020.6124	1049.5708	1069.4929	1088.4397	1143.9647	1197.6344	1251.0389	1253.259	1271.0446	1304.7376	1342.0937	1365.5339	1426.7321	1439.6918	1473.86	1504.1667	1662.0698	2996.325	3043.2084	3074.1208	3168.5857	3197.704	3221.7498	3750.2833	3781.2246
OCC12OC1C=CC2O	OC[C@]12O[C@H]1C=C[C@H]2O	
InChI=1S/C6H8O3/c7-3-6-4(8)1-2-5(6)9-6/h1-2,4-5,7-8H,3H2	InChI=1S/C6H8O3/c7-3-6-4(8)1-2-5(6)9-6/h1-2,4-5,7-8H,3H2/t4-,5+,6-/m1/s1
