17
gdb 7320	4.06482	1.23973	1.03238	1.8597	68.32	-0.2337	-0.0193	0.2144	1152.691	0.141793	-397.231362	-397.222097	-397.221153	-397.265572	33.241	
C	-0.1870744287	 1.6357430913	 0.2939143415	-0.367303
C	 0.2341603358	 0.1793742518	 0.050454033	-0.154367
N	 0.8326816459	-0.4164203209	 1.2343645048	-0.30651
C	 0.0839673551	-1.0283494188	 2.0725276092	 0.281547
N	-1.2578382781	-1.2680882764	 2.0412601189	-0.551274
C	 0.7275544704	-1.6465310494	 3.312242918	 0.392771
N	 2.0671331693	-1.5177668577	 3.3379814764	-0.525426
O	 0.0460932563	-2.1908404056	 4.1676544614	-0.3864
H	 0.6684504414	 2.224997538	 0.6356737012	 0.129004
H	-0.5745652923	 2.0866044183	-0.625239513	 0.113843
H	-0.9646396925	 1.7043359353	 1.0621129235	 0.111563
H	-0.6261919771	-0.4027348702	-0.3192642275	 0.083967
H	 0.984401668	 0.1580164775	-0.7479449732	 0.105326
H	-1.8676019433	-0.7191347772	 1.4631794741	 0.260772
H	-1.6292330091	-1.6767944526	 2.887087495	 0.2748
H	 2.5025006028	-1.0186347025	 2.5769156446	 0.274232
H	 2.5896291261	-1.8618263409	 4.124270402	 0.263455
51.6118	87.6169	118.3657	199.9016	260.9084	294.6855	308.6779	340.8659	378.2067	433.9008	504.6775	563.8806	608.3995	628.8306	685.5604	783.4083	821.1511	837.3777	890.1002	1022.9441	1087.0521	1103.4598	1142.1278	1196.7617	1297.0458	1305.6326	1363.8829	1397.6318	1413.2097	1488.2233	1498.2909	1523.7321	1579.1859	1594.6109	1734.1342	1797.4063	2965.0242	3034.8645	3049.1193	3103.8462	3117.2303	3577.7407	3580.2319	3731.0454	3737.2311
CCN=C(N)C(N)=O	CCN=C(N)C(=O)N	
InChI=1S/C4H9N3O/c1-2-7-3(5)4(6)8/h2H2,1H3,(H2,5,7)(H2,6,8)	InChI=1S/C4H9N3O/c1-2-7-3(5)4(6)8/h2H2,1H3,(H2,5,7)(H2,6,8)
