18
gdb 9659	4.39814	1.10235	1.04245	3.0795	70.1	-0.2483	-0.0152	0.2332	1166.8358	0.151405	-384.936376	-384.927245	-384.926301	-384.97029	32.463	
C	-0.0370873697	 1.5763829711	-0.0917247878	-0.468572
C	-0.0082988872	 0.0689337256	 0.0502350065	 0.212718
C	 1.2934413375	-0.7119651712	-0.1307043608	-0.320552
C	 0.6727780255	-0.6420181088	 1.2228544454	-0.022041
C	 1.3099002635	 0.1267803897	 2.3523578643	-0.107155
O	 2.2261680583	-0.7511889464	 2.9920867713	-0.416593
C	-1.2222326515	-0.6290066712	-0.4473241135	 0.125054
O	-2.1843808698	-0.0804024797	-0.9254793904	-0.270235
H	 0.9165765704	 2.0306907813	 0.1849097674	 0.113162
H	-0.2563626877	 1.8471394155	-1.1283222809	 0.137171
H	-0.8240256924	 2.0160119988	 0.5286696051	 0.131213
H	 1.2638452478	-1.6508745082	-0.6736882969	 0.122809
H	 2.1784857352	-0.1130177568	-0.3179558387	 0.126282
H	 0.1767038891	-1.5473493156	 1.5652275151	 0.100739
H	 1.8212000741	 1.0216447477	 1.9686323457	 0.088262
H	 0.5322423642	 0.4679356368	 3.0538561715	 0.095324
H	 2.570400219	-0.3062746306	 3.772405564	 0.288458
H	-1.1835580062	-1.740100948	-0.3471536572	 0.063955
65.9497	114.5816	136.345	176.7488	228.7203	258.7845	270.7549	332.3168	359.9427	428.2187	456.8413	600.5213	760.6503	811.7512	878.8356	904.958	925.0473	979.1549	1029.2244	1055.1292	1071.7464	1098.5718	1112.7259	1121.4476	1172.9022	1246.9575	1259.6707	1286.1596	1340.955	1400.1296	1419.2851	1439.6616	1470.9291	1485.632	1486.6478	1504.3726	1522.6349	1816.4492	2846.9072	2974.8038	3009.8384	3048.3532	3111.3681	3127.6447	3130.748	3135.1978	3216.3629	3826.4594
CC1(CC1CO)C=O	C[C@]1(C[C@H]1CO)C=O	
InChI=1S/C6H10O2/c1-6(4-8)2-5(6)3-7/h4-5,7H,2-3H2,1H3	InChI=1S/C6H10O2/c1-6(4-8)2-5(6)3-7/h4-5,7H,2-3H2,1H3/t5-,6-/m0/s1
