14
gdb 55997	3.5916	0.96359	0.88189	3.8569	59.31	-0.279	-0.0063	0.2727	1288.3795	0.10047	-511.018412	-511.010006	-511.009062	-511.053071	29.341	
N	-0.0639367456	 1.3174384008	 0.0084228245	-0.562973
C	 0.0914201859	-0.019798825	 0.1805131508	 0.510243
O	 1.0399192994	-0.571048314	 0.6806843425	-0.383691
O	-1.0327031617	-0.6650078962	-0.2781456037	-0.266057
C	-1.0238400852	-2.0675382449	-0.1776656796	-0.068239
C	-2.1674231491	-2.7257648964	 0.6157589858	-0.103158
O	-2.5825311444	-3.4499443325	-0.5875140745	-0.239476
C	-1.6650217838	-2.7968560452	-1.3743695395	 0.438451
O	-1.5259891378	-2.8596971841	-2.5501352115	-0.310727
H	 0.7479456279	 1.8922626971	 0.1516446389	 0.278207
H	-0.7995228337	 1.656973356	-0.5871969914	 0.274878
H	-0.0237123952	-2.4222925189	 0.077418905	 0.16013
H	-1.8861827132	-3.416493593	 1.4118270317	 0.135871
H	-2.9445646835	-2.0332731637	 0.944284101	 0.136542
29.2188	81.0838	122.1738	205.6579	252.5339	315.2115	367.922	443.1662	523.1744	548.1044	650.436	688.6704	755.7573	776.3428	866.4047	933.0117	951.0607	987.1162	1084.0911	1114.6064	1122.4384	1153.8992	1182.1565	1234.3545	1322.9338	1350.4891	1399.8909	1510.2097	1612.6028	1852.4087	1951.4634	3080.4153	3112.6169	3148.4948	3619.8452	3751.1856
NC(=O)OC1COC1=O	NC(=O)O[C@H]1COC1=O	
InChI=1S/C4H5NO4/c5-4(7)9-2-1-8-3(2)6/h2H,1H2,(H2,5,7)	InChI=1S/C4H5NO4/c5-4(7)9-2-1-8-3(2)6/h2H,1H2,(H2,5,7)/t2-/m0/s1
