16
gdb 39783	3.05738	1.91214	1.54631	2.7054	67.06	-0.241	0.0624	0.3034	873.5464	0.125644	-437.778892	-437.772561	-437.771616	-437.809315	26.295	
C	 0.006192574	 1.4775087777	 0.0091988301	-0.296869
O	 1.2406909454	 0.7202286131	-0.0074469903	-0.271065
C	 0.0393924462	 0.0248840344	 0.0018710714	 0.59041
C	-0.534980637	-0.9784119273	 1.0158489602	-0.191989
N	-1.671217973	-1.0775135507	 0.0145897031	-0.317304
C	-0.5563146945	-0.9686785998	-1.0093811363	-0.191986
C	 0.2803436927	-2.2488767792	-0.7447165267	 0.03795
O	 1.5030463206	-2.0421215948	-0.0234972079	-0.234119
C	 0.295809596	-2.2559130149	 0.7213354147	 0.037948
H	-0.1959285327	 2.0132591719	 0.9347080872	 0.121875
H	-0.2153341413	 2.0221027345	-0.9066570928	 0.121875
H	-0.7849801146	-0.7304541172	 2.0463043691	 0.081546
H	-2.0807359638	-2.0139716129	 0.0144018684	 0.212475
H	-0.827940214	-0.7108523406	-2.0319103902	 0.081546
H	 0.2336877447	-3.1233344395	-1.3854848737	 0.108853
H	 0.2625884013	-3.1364837447	 1.3545252237	 0.108854
189.342	254.9967	299.4952	374.0173	467.955	510.2743	572.0482	687.7953	737.2291	795.3335	818.7016	840.3534	850.8885	892.1639	909.8993	922.5426	936.5016	985.203	1023.3009	1057.8006	1079.3056	1088.1312	1112.9276	1120.573	1150.9255	1174.0423	1214.4853	1221.7732	1248.8323	1275.8411	1276.5152	1327.4502	1393.4929	1468.7063	1561.4648	3091.6967	3132.659	3133.8619	3165.2442	3177.5958	3180.6097	3429.283
C1OC11C2NC1C1OC21	C1O[C@]21[C@H]1N[C@@H]2[C@H]2O[C@@H]12	
InChI=1S/C6H7NO2/c1-6(8-1)4-2-3(9-2)5(6)7-4/h2-5,7H,1H2	InChI=1S/C6H7NO2/c1-6(8-1)4-2-3(9-2)5(6)7-4/h2-5,7H,1H2/t2-,3+,4+,5-,6-
