18
gdb 77389	2.19669	1.98468	1.25169	1.1957	71.45	-0.2212	0.0562	0.2775	1021.8269	0.146543	-438.987365	-438.978893	-438.977949	-439.019774	32.923	
C	-0.0081941465	 1.4383498617	-0.0866955347	-0.524139
C	 0.0392291435	-0.0607181546	-0.1017114654	 0.312093
C	 0.5366517644	-1.0243576714	-1.2029825215	 0.00538
O	 1.8957262351	-1.0191109191	-1.5815764601	-0.452157
C	 0.0657024204	-1.9762524694	-0.0907125532	 0.347779
O	 0.0058060477	-3.3516576134	-0.0681127784	-0.471251
C	 0.5486018506	-0.9913510356	 1.0587463271	-0.174321
N	-0.7759087822	-0.9327588079	 1.7556658473	-0.352386
C	-1.1175632611	-1.0413630833	 0.298714848	-0.114176
H	 0.9914735784	 1.8645703468	-0.2244187284	 0.119268
H	-0.6447568982	 1.8214445497	-0.8914220252	 0.12257
H	-0.4069966723	 1.7938433602	 0.86801571	 0.143423
H	-0.0403983197	-1.039774481	-2.1329977351	 0.08775
H	 2.4311666697	-0.8635258668	-0.7956519322	 0.283605
H	 0.8420952468	-3.6938349759	-0.4043361201	 0.292967
H	 1.4985470214	-0.9493854459	 1.5962170242	 0.074525
H	-0.962690078	-1.8249134991	 2.2210830066	 0.215936
H	-2.1380628	-1.0509632749	-0.0861986489	 0.083135
175.5527	180.0112	202.4495	224.6964	256.0527	281.8055	295.7874	336.3689	414.8235	556.0419	596.9352	609.9795	682.4328	760.6301	799.134	861.2292	893.8808	903.0294	930.4898	984.2543	1013.5051	1047.2225	1095.3947	1104.0089	1122.8218	1155.8449	1163.5227	1177.061	1219.8575	1268.4303	1287.0321	1292.5386	1313.3869	1339.7899	1400.9752	1410.9489	1473.2205	1490.1144	1491.8254	3031.7043	3069.7859	3086.0387	3093.4529	3110.7939	3112.2376	3407.2577	3798.1166	3802.2498
CC12C(O)C3(O)C1NC23	C[C@@]12[C@@H](O)[C@@]3(O)[C@@H]1N[C@@H]23	
InChI=1S/C6H9NO2/c1-5-2-6(9,4(5)8)3(5)7-2/h2-4,7-9H,1H3	InChI=1S/C6H9NO2/c1-5-2-6(9,4(5)8)3(5)7-2/h2-4,7-9H,1H3/t2-,3+,4-,5-,6-/m1/s1
