23
gdb 109935	2.16855	1.37507	1.06686	1.3241	81.97	-0.2394	0.0713	0.3107	1275.9054	0.20342	-425.411293	-425.400905	-425.399961	-425.446194	39.09	
C	-0.0985041527	 1.3925223409	-0.2410008304	-0.252353
O	-0.0668734688	 0.0043272834	 0.0468336586	-0.261933
C	-1.3466368115	-0.5988231637	 0.0460193437	 0.056167
C	-1.6518933788	-1.2641990964	-1.3398055307	 0.14431
O	-0.9256718688	-0.773448318	-2.4358709363	-0.440795
C	-1.2487332009	-2.6382086831	-0.7385847029	-0.314455
C	-1.3243251225	-2.0211228949	 0.6963223914	 0.293939
C	-0.1504225558	-2.3231213333	 1.6218883567	-0.440692
C	-2.6600855234	-2.3232016685	 1.3829890334	-0.441266
H	 0.9343968026	 1.7489024024	-0.2120874682	 0.125938
H	-0.5237873789	 1.5938400413	-1.2321100417	 0.126624
H	-0.6847362251	 1.9383467491	 0.5128838215	 0.111556
H	-2.0930423974	 0.1009249565	 0.4467685496	 0.051336
H	-2.7090568696	-1.2121855379	-1.6118832661	 0.086559
H	-0.0249358075	-0.6424335001	-2.1122633007	 0.282749
H	-1.8988154946	-3.4912235577	-0.9509389161	 0.094875
H	-0.2243334328	-2.9006132464	-1.020427088	 0.095165
H	 0.8013424676	-2.0538923371	 1.1592579042	 0.12337
H	-0.232271893	-1.7671459049	 2.5627214611	 0.109583
H	-0.1273784003	-3.3914763817	 1.8658744776	 0.107584
H	-2.7223626158	-3.3823027403	 1.6566489728	 0.115196
H	-2.7739003203	-1.7319452834	 2.2987485026	 0.113361
H	-3.5139624516	-2.1003606163	 0.7337901281	 0.113182
62.7827	113.8113	173.1999	188.233	207.4678	249.4329	257.5971	292.3851	314.4005	326.0725	387.069	412.3601	477.6373	495.6893	554.6649	676.6744	765.8468	836.6168	880.2982	932.2863	947.6346	961.1519	978.5574	1015.4908	1048.6146	1086.1801	1117.7616	1144.2912	1179.1288	1184.0579	1206.8571	1223.5625	1232.7381	1262.1146	1281.9821	1302.3508	1327.3127	1379.0027	1398.969	1418.4251	1441.0851	1476.8965	1478.5112	1483.7269	1486.2698	1487.5103	1501.3872	1506.413	1514.7627	2990.3619	3002.2077	3021.3893	3029.0836	3050.3089	3056.9383	3077.8199	3086.4377	3091.0571	3092.8989	3107.0092	3115.1222	3125.1353	3767.9192
COC1C(O)CC1(C)C	CO[C@H]1[C@@H](O)CC1(C)C	
InChI=1S/C7H14O2/c1-7(2)4-5(8)6(7)9-3/h5-6,8H,4H2,1-3H3	InChI=1S/C7H14O2/c1-7(2)4-5(8)6(7)9-3/h5-6,8H,4H2,1-3H3/t5-,6-/m0/s1
