19
gdb 95622	2.29286	1.57595	1.07877	4.9053	71.42	-0.2603	0.0121	0.2724	1137.7338	0.159581	-460.204872	-460.195995	-460.195051	-460.238483	33.189	
C	-0.2394561276	 1.4617647696	 0.0419517383	-0.397621
C	 0.0413764978	-0.053875647	-0.0576206306	-0.121278
C	 0.8173325067	-0.4500397142	-1.3215018359	 0.109399
O	 0.2168533627	 0.2089594219	-2.4240594657	-0.437568
C	 2.2972284809	-0.1155797869	-1.1468495355	-0.259491
C	 2.831409947	-0.8851349392	 0.0520501185	-0.06931
O	 2.069737386	-0.6866878238	 1.2521957943	-0.228655
C	 0.7250456882	-0.4918984377	 1.2402219858	 0.397849
O	 0.1214383497	-0.5836434832	 2.2742272944	-0.328539
H	 0.6831003117	 2.0468816343	 0.1044296555	 0.118902
H	-0.7957237593	 1.7934734598	-0.8352603124	 0.141894
H	-0.8263042323	 1.6599218972	 0.9410712827	 0.140728
H	-0.925762517	-0.5645748936	-0.0623423313	 0.114083
H	 0.7297749788	-1.5432870544	-1.4459323013	 0.071833
H	 0.652183882	-0.0915709186	-3.2279970721	 0.28462
H	 2.8712602209	-0.4063991983	-2.0350038703	 0.098432
H	 2.4274064131	 0.9626816313	-1.0098641844	 0.123063
H	 2.8462778437	-1.9620559522	-0.1630998841	 0.114673
H	 3.8502945369	-0.5824487847	 0.3044404341	 0.126985
64.5417	125.6056	205.0766	236.2898	262.5521	277.0364	282.2783	338.66	412.0118	440.0922	514.189	609.6609	657.3009	728.9461	758.0937	846.756	900.936	928.2023	1002.825	1029.2441	1043.106	1091.7135	1115.6914	1118.7007	1164.824	1195.5095	1225.6928	1265.8312	1274.4896	1309.3739	1341.503	1351.7071	1393.2148	1408.041	1427.5808	1436.5264	1484.4556	1499.156	1502.895	1515.7217	1838.2866	2946.8669	3018.6489	3038.561	3053.815	3073.0752	3089.4365	3102.6985	3126.1864	3153.4099	3820.7726
CC1C(O)CCOC1=O	C[C@H]1[C@@H](O)CCOC1=O	
InChI=1S/C6H10O3/c1-4-5(7)2-3-9-6(4)8/h4-5,7H,2-3H2,1H3	InChI=1S/C6H10O3/c1-4-5(7)2-3-9-6(4)8/h4-5,7H,2-3H2,1H3/t4-,5-/m0/s1
