16
gdb 42448	4.18254	0.85233	0.81952	1.7925	72.24	-0.2611	-0.0043	0.2568	1422.3141	0.122893	-437.848887	-437.839883	-437.838939	-437.884199	31.705	
O	 0.399976136	 0.4834441201	-1.0562728162	-0.38211
C	 0.1259217066	 1.263628575	-0.175497299	 0.475424
O	 0.9686268599	 1.6309529792	 0.8127867656	-0.241827
C	 2.2969692014	 1.0667104998	 0.7526000376	-0.22375
C	 3.2060978763	 1.9006541646	-0.0201164835	 0.326192
C	 3.9681689289	 2.5858205088	-0.64585171	-0.456816
C	-1.195260706	 1.9347909951	-0.0290610954	-0.130433
C	-1.7958002656	 2.4824219529	-1.2860459958	-0.218035
N	-2.3457397504	 1.2813602394	-0.6709326151	-0.3044
H	 2.622122007	 0.9991676043	 1.7938688101	 0.148155
H	 2.2384470919	 0.0628560767	 0.323778224	 0.165575
H	 4.6412767836	 3.1866677902	-1.2063405112	 0.209903
H	-1.3844261828	 2.4190760366	 0.9217664528	 0.114378
H	-2.4175969705	 3.3699658051	-1.2180206435	 0.130257
H	-1.2096867124	 2.3822587068	-2.1947235308	 0.137084
H	-1.9902015641	 0.4663298955	-1.1705329095	 0.250405
32.0325	56.1444	99.4258	206.0471	224.5582	305.1295	309.1579	348.8108	380.8954	593.3794	618.6639	678.8813	688.3962	771.0339	822.3182	867.1612	896.2605	948.6143	979.882	1009.013	1019.0497	1050.7508	1117.6183	1137.4432	1177.1035	1208.3205	1285.2498	1296.0562	1315.7568	1385.089	1421.7156	1467.0072	1497.4912	1804.6045	2245.8972	3066.8295	3115.2846	3118.3254	3184.4853	3212.8236	3476.8868	3504.1143
O=C(OCC#C)C1CN1	O=C(OCC#C)[C@H]1CN1	
InChI=1S/C6H7NO2/c1-2-3-9-6(8)5-4-7-5/h1,5,7H,3-4H2	InChI=1S/C6H7NO2/c1-2-3-9-6(8)5-4-7-5/h1,5,7H,3-4H2/t5-/m1/s1
