21
gdb 95312	2.69035	1.70104	1.4898	0.6413	76.54	-0.2311	0.0804	0.3115	1005.7101	0.185654	-424.245142	-424.237508	-424.236564	-424.276863	30.97	
C	-0.1274298264	 1.5698670227	 0.0502904716	-0.413026
C	 0.0361658032	 0.0512635813	-0.0167499749	 0.12923
O	 0.699432192	-0.3689660358	-1.2185910919	-0.279889
C	 2.109707303	-0.1741109112	-1.2023994246	-0.08792
C	 2.7153199609	-0.7285924154	 0.0871642986	 0.078556
C	 2.3072067669	-2.1967821084	 0.3400490934	-0.218559
C	 0.963458585	-2.0524025956	 1.102970935	-0.226592
C	 0.7843705756	-0.5203583956	 1.1997730859	 0.076981
O	 2.1248988067	-0.0125533831	 1.1812385172	-0.273485
H	 0.8316577442	 2.0631441144	 0.2250160815	 0.132455
H	-0.5565367017	 1.942372545	-0.8836985293	 0.119938
H	-0.7991524322	 1.8424111506	 0.8712760674	 0.111404
H	-0.9539360299	-0.4159942551	-0.0787189862	 0.079925
H	 2.4972854471	-0.6957230311	-2.0838454057	 0.104064
H	 2.3662732743	 0.8918041607	-1.292154498	 0.094929
H	 3.7943958093	-0.5545149754	 0.1164047357	 0.076354
H	 2.2011723715	-2.75740702	-0.5912407447	 0.107643
H	 3.0593902235	-2.6978796327	 0.9532576178	 0.102961
H	 0.1323554322	-2.5274304829	 0.5772154567	 0.107812
H	 1.0259842465	-2.4905942768	 2.1016039931	 0.101505
H	 0.3162363781	-0.1889391356	 2.1306753614	 0.075715
133.6314	187.8621	224.7649	240.7769	343.7353	375.5884	444.4948	454.4634	555.6328	643.3046	756.309	786.9801	803.8976	828.1789	835.4471	900.1974	911.1503	959.9478	972.5238	980.573	1010.6442	1047.7961	1057.5075	1085.5192	1103.894	1131.0801	1163.6964	1183.7397	1245.6171	1250.9578	1265.0922	1294.3844	1324.1524	1324.9131	1343.3923	1362.2174	1373.4866	1381.1256	1399.6195	1410.4088	1480.5243	1485.7997	1492.2956	1502.9944	1509.899	2995.5919	3037.0072	3043.6452	3063.426	3070.2529	3072.6462	3078.059	3085.1985	3106.5644	3111.4462	3125.6788	3133.1277
CC1OCC2CCC1O2	C[C@H]1OC[C@@H]2CC[C@H]1O2	
InChI=1S/C7H12O2/c1-5-7-3-2-6(9-7)4-8-5/h5-7H,2-4H2,1H3	InChI=1S/C7H12O2/c1-5-7-3-2-6(9-7)4-8-5/h5-7H,2-4H2,1H3/t5-,6+,7-/m1/s1
