19
gdb 89825	3.12721	1.29536	1.02313	4.0663	76.09	-0.2607	0.0143	0.275	1203.5109	0.159247	-423.06899	-423.060649	-423.059705	-423.101972	32.075	
C	-0.4394266337	 1.4296634498	 0.0179269026	-0.406212
C	 0.1625458899	 0.0290651713	-0.0460323899	-0.131124
C	 1.1018213031	-0.2779928043	-1.2222239211	-0.31496
C	 2.0275536168	-1.321501971	-0.6229397062	 0.443297
C	 2.0710969949	-2.762198946	-1.0411779602	-0.325568
C	 3.2703870123	-1.8492980342	-1.2508362634	-0.332915
O	 2.0893116173	-1.0663023287	 0.7796638155	-0.252458
C	 1.0387559235	-0.2908755709	 1.168273057	 0.427805
O	 0.8811697323	 0.0520400936	 2.3039919926	-0.344003
H	 0.341705253	 2.1939603235	-0.0481490551	 0.124109
H	-1.1449241899	 1.5916113371	-0.8020306898	 0.116573
H	-0.964929671	 1.5686130232	 0.965853187	 0.144903
H	-0.6468080794	-0.7144167602	-0.0248705757	 0.114042
H	 0.5883545737	-0.6389077716	-2.1156166816	 0.114554
H	 1.667007792	 0.621952391	-1.4940465095	 0.114705
H	 2.1458615472	-3.5029705162	-0.2533442236	 0.132876
H	 1.491095304	-3.0669884006	-1.9059334775	 0.118009
H	 3.5106068289	-1.5254849737	-2.258150627	 0.120713
H	 4.1264813853	-1.996566232	-0.6025141441	 0.135653
84.6213	114.0102	209.1698	232.9944	271.6689	301.5891	372.6075	448.8051	500.568	523.384	597.5834	703.2328	764.587	778.6707	806.4009	878.0059	922.3036	928.4458	961.9126	972.7685	992.1085	1054.0462	1060.995	1079.7593	1127.9177	1140.4318	1176.1426	1179.3052	1188.6061	1278.4522	1294.5468	1313.6342	1359.4408	1382.8893	1411.9225	1451.6799	1492.6575	1497.6891	1499.057	1502.1674	1879.7205	3014.2257	3035.815	3043.2177	3108.4568	3112.1339	3128.6998	3133.4194	3136.3014	3219.6997	3232.9949
CC1CC2(CC2)OC1=O	C[C@H]1CC2(CC2)OC1=O	
InChI=1S/C7H10O2/c1-5-4-7(2-3-7)9-6(5)8/h5H,2-4H2,1H3	InChI=1S/C7H10O2/c1-5-4-7(2-3-7)9-6(5)8/h5H,2-4H2,1H3/t5-/m0/s1
