15
gdb 34244	3.4103	1.60812	1.38385	3.9742	69.29	-0.2573	-0.0015	0.2558	924.1222	0.115153	-416.753921	-416.747553	-416.746609	-416.784666	25.725	
N	-0.0433720925	-1.1466710063	 0.0724989674	-0.332989
C	-0.0543750699	 0.0092426812	 0.0440534793	 0.157726
C	-0.0845215825	 1.4457948349	-0.0034800887	 0.214438
N	-1.0469744372	 2.2257528479	 0.8178126914	-0.358905
C	-0.6692126107	 3.3625108114	-0.1005560823	-0.086705
C	 0.7492174425	 3.6453427411	 0.4252734191	-0.191967
C	 1.2797862535	 2.288212645	-0.063956774	 0.033003
O	 1.1333374185	 2.4212570173	-1.5077156374	-0.282874
C	-0.2637238799	 2.3282539172	-1.2621919143	 0.049711
H	-1.9820473347	 1.8957681225	 0.5755664308	 0.232959
H	-1.3827364808	 4.1726669571	-0.2245676399	 0.09306
H	 1.2753446629	 4.4573371148	-0.0784407655	 0.121528
H	 0.7486057644	 3.7801439903	 1.5070735914	 0.126933
H	 2.2398014025	 1.8907512411	 0.2543705377	 0.112031
H	-0.9014430458	 2.1343944245	-2.122932175	 0.11205
148.953	156.0181	397.9944	442.6073	499.8127	528.7661	541.6254	583.1449	706.8748	746.3998	794.0916	847.3335	887.6257	918.1801	924.6025	931.4185	970.354	995.6719	1004.4296	1044.123	1077.8741	1123.9768	1140.0712	1174.1	1217.6342	1226.9538	1256.4479	1272.1058	1290.7721	1339.3686	1353.8614	1465.3588	2354.3198	3091.1705	3143.9488	3156.8583	3163.6699	3168.8995	3458.8054
N#CC12NC3CC1OC23	N#C[C@@]12N[C@H]3C[C@@H]1O[C@@H]23	
InChI=1S/C6H6N2O/c7-2-6-4-1-3(8-6)5(6)9-4/h3-5,8H,1H2	InChI=1S/C6H6N2O/c7-2-6-4-1-3(8-6)5(6)9-4/h3-5,8H,1H2/t3-,4-,5+,6+/m0/s1
