19
gdb 16420	3.43289	2.15595	1.72575	0.3174	70.46	-0.2098	0.0808	0.2905	835.0804	0.167844	-365.023072	-365.016238	-365.015294	-365.053622	27.768	
C	-0.5698438529	 1.4130170558	 0.0957824599	-0.404607
C	 0.0938116571	 0.044290352	-0.0271632254	 0.038792
C	 0.9027256819	-0.06873102	-1.3502583535	-0.086569
O	 1.9946078886	-0.9865207825	-1.268918541	-0.276622
C	 2.5421834807	-1.0885671004	 0.0374673503	 0.123878
C	 1.4729812379	-1.6423631896	 0.9987609452	-0.185492
N	 0.95042015	-0.2318336166	 1.1544313967	-0.12994
C	 2.3588455408	 0.2227353991	 0.8341673155	-0.21507
H	 0.1805886028	 2.2091868815	 0.1572827966	 0.116402
H	-1.2058713435	 1.6194692085	-0.7720405521	 0.112574
H	-1.1840430992	 1.4569108903	 0.9984129025	 0.126646
H	-0.6877054147	-0.7248350039	-0.0129273317	 0.082531
H	 0.267693574	-0.4080115277	-2.1742458199	 0.108848
H	 1.2847682945	 0.9256052227	-1.6257428938	 0.092331
H	 3.520622075	-1.5658522312	-0.0631672547	 0.074504
H	 0.7614843344	-2.3648120854	 0.5898434742	 0.102722
H	 1.8703276834	-2.0009505746	 1.9535597392	 0.10131
H	 2.9537835921	 0.2469403298	 1.7509283983	 0.109313
H	 2.4554295068	 1.1800858821	 0.3172533338	 0.10845
161.4067	229.4433	270.825	314.3995	417.2523	451.3879	467.8152	518.0269	588.7403	771.7914	823.6194	825.6988	893.6816	899.9856	915.1049	930.4599	955.9585	1002.0945	1030.0167	1046.7354	1094.523	1132.7691	1133.5008	1167.3778	1179.5102	1241.1523	1250.2043	1255.1826	1269.3853	1302.055	1332.1893	1361.859	1374.3344	1407.2505	1409.7118	1482.3803	1488.2581	1495.2513	1505.6102	1527.3354	2985.7941	3027.8083	3033.1624	3043.2413	3061.3899	3075.4795	3077.3799	3097.0759	3107.9471	3118.1456	3123.3978
CC1COC2CN1C2	C[C@H]1CO[C@@H]2CN1C2	
InChI=1S/C6H11NO/c1-5-4-8-6-2-7(5)3-6/h5-6H,2-4H2,1H3	InChI=1S/C6H11NO/c1-5-4-8-6-2-7(5)3-6/h5-6H,2-4H2,1H3/t5-/m0/s1
