20
gdb 55761	3.44114	1.07611	0.93488	1.7189	79.19	-0.2352	-0.0159	0.2193	1310.1788	0.169699	-403.124483	-403.115325	-403.114381	-403.159902	33.538	
C	 0.0124073377	 0.9033947246	-0.9230197912	-0.477803
C	 0.0626178754	 0.0648471159	 0.3389004922	 0.384416
O	 1.022836051	 0.0563744773	 1.0739154752	-0.301522
C	-1.153984483	-0.8178614417	 0.6299684666	-0.395183
C	-0.8963949164	-2.2160644952	 0.1211531054	 0.360111
C	-1.329720791	-2.7103842512	-1.2034163438	-0.281261
N	-1.9943915277	-3.2612583659	-0.0044210878	-0.174331
C	-1.0239317175	-4.2745103705	 0.5503335563	-0.15505
C	 0.0772179012	-3.2046973804	 0.7659074139	-0.298077
H	 0.9707633607	 1.3974077388	-1.0868771711	 0.14224
H	-0.2419521992	 0.2786259723	-1.7866463106	 0.141104
H	-0.779272245	 1.6570721528	-0.8351337728	 0.142871
H	-1.299812656	-0.8425283748	 1.7146865931	 0.125189
H	-2.0592318565	-0.4200329383	 0.1610284473	 0.110656
H	-1.9864539171	-2.0766516798	-1.7925826681	 0.116301
H	-0.6784399986	-3.3562815514	-1.7902924399	 0.109885
H	-1.4183809724	-4.6997750578	 1.4748603127	 0.114566
H	-0.8015333982	-5.0875742564	-0.1488389711	 0.105068
H	 1.0394200306	-3.3407457276	 0.2651131659	 0.107417
H	 0.262700782	-2.9879341405	 1.8190601775	 0.123402
25.842	56.5803	115.4855	158.6017	215.7684	296.0474	344.5844	404.6575	467.0351	513.6633	552.0561	695.5145	747.5594	770.7225	783.0714	824.3486	878.7856	899.5471	933.7204	968.1493	983.0368	1016.2912	1044.1037	1088.3505	1101.5003	1116.2573	1147.4227	1190.9396	1217.0649	1222.5573	1251.3208	1288.0861	1298.3009	1332.8979	1377.467	1382.7632	1460.6856	1472.8444	1476.0614	1487.3871	1494.7029	1517.3441	1812.0693	3033.0466	3046.1752	3046.625	3066.3871	3093.411	3093.9663	3101.5858	3108.861	3129.1415	3152.4876	3186.5423
CC(=O)CC12CN1CC2	CC(=O)C[C@]12CN1CC2	
InChI=1S/C7H11NO/c1-6(9)4-7-2-3-8(7)5-7/h2-5H2,1H3	InChI=1S/C7H11NO/c1-6(9)4-7-2-3-8(7)5-7/h2-5H2,1H3/t7-,8?/m1/s1
