23
gdb 102491	1.8071	1.38072	0.98746	3.0654	77.67	-0.2464	0.0633	0.3097	1321.4935	0.202923	-462.554469	-462.543333	-462.542389	-462.590572	41.586	
C	-1.5300591085	-0.5359727008	 0.0277022412	-0.406586
C	-0.0585180877	-0.1107641408	 0.0762040713	 0.32159
C	 0.0582194448	 1.3810631922	 0.4024272592	-0.403301
O	 0.5534028265	-0.7651964473	 1.2191455041	-0.464273
C	 0.7226284156	-0.5264686935	-1.2115244744	-0.032386
C	 0.1256495288	 0.01352421	-2.5189329653	-0.104141
O	-1.0208207249	-0.7524973167	-2.8699951826	-0.417696
C	 2.2235878998	-0.1622495322	-1.1628805149	-0.069014
O	 2.936144481	-0.749611512	-0.0978035644	-0.441424
H	-2.0789130536	-0.0127069273	-0.7564269947	 0.127298
H	-1.6199143279	-1.6068349013	-0.184835031	 0.110353
H	-1.9952494964	-0.330493119	 0.9964265678	 0.111578
H	-0.5012848623	 1.5980239354	 1.3161222937	 0.12459
H	 1.0981179112	 1.6710724445	 0.5705814311	 0.130525
H	-0.3501648059	 1.9993452866	-0.4010175724	 0.116508
H	 0.4033732144	-1.7133299591	 1.1255496535	 0.282536
H	 0.6584112933	-1.622201295	-1.2792232352	 0.080425
H	-0.1276931738	 1.0798815331	-2.4186761969	 0.091205
H	 0.8885798017	-0.0606303316	-3.3089787912	 0.092236
H	-1.3733978644	-0.4013129281	-3.6930980197	 0.28741
H	 2.6934305839	-0.5200754774	-2.0869602912	 0.097492
H	 2.3346008847	 0.9364756812	-1.1647980049	 0.079425
H	 2.3601752997	-0.692507981	 0.6789361169	 0.285652
37.3563	84.0395	138.6231	213.7275	235.8281	260.639	264.057	269.0319	302.9827	312.7055	331.6373	374.6711	409.9172	438.0621	447.527	520.404	575.2375	650.5972	704.6524	868.94	927.9764	938.8202	950.7559	1000.1272	1030.982	1050.9468	1064.3063	1103.8528	1113.8523	1141.6432	1190.9515	1231.9828	1233.568	1255.6953	1272.1369	1301.2686	1348.8036	1388.2139	1399.8434	1411.7721	1428.4609	1458.3022	1474.7585	1483.5198	1485.7646	1499.8843	1501.7121	1523.1234	1527.1904	2945.0491	2977.5496	3000.4755	3013.9036	3037.7217	3043.927	3053.0297	3104.2706	3123.4104	3129.7322	3144.2031	3697.3331	3794.819	3826.5079
CC(C)(O)C(CO)CO	CC(C)(O)C(CO)CO	
InChI=1S/C6H14O3/c1-6(2,9)5(3-7)4-8/h5,7-9H,3-4H2,1-2H3	InChI=1S/C6H14O3/c1-6(2,9)5(3-7)4-8/h5,7-9H,3-4H2,1-2H3
