17
gdb 14377	4.01861	2.29007	1.95508	1.3277	67.17	-0.2356	0.0749	0.3105	739.3969	0.145501	-363.764228	-363.758512	-363.757568	-363.793649	24.275	
C	 0.0333402923	 1.5079714574	-0.2615514663	-0.165421
O	 1.4550371198	 1.5527546061	 0.1097901816	-0.355921
C	 1.222395115	 0.3819392219	 0.912856336	 0.42284
C	 1.7823557068	-1.0001570371	 1.3273094694	-0.255979
N	 0.499745885	-1.0364230563	 2.1812663358	-0.129967
C	 0.7230736914	 0.4472564837	 2.3710469892	-0.238408
C	-0.6359933609	-0.9504541591	 1.1716797822	-0.217489
C	-0.0064023714	-0.0022354007	 0.1188444459	-0.039013
H	-0.5591548941	 2.1815663423	 0.3682332541	 0.107814
H	-0.107211326	 1.7539842127	-1.316222603	 0.115445
H	 1.8674398102	-1.7764269214	 0.5630274674	 0.107784
H	 2.6400221531	-1.010134873	 2.0013987539	 0.118161
H	 1.5153114911	 0.6303445538	 3.0995788353	 0.109679
H	-0.1705524408	 1.023655256	 2.6229467446	 0.102059
H	-0.8501530149	-1.9393528114	 0.7610238715	 0.110401
H	-1.5262339585	-0.5894421323	 1.6906492263	 0.117213
H	 0.278403222	-0.5592561724	-0.7783304637	 0.090803
247.1343	326.3239	400.3034	438.4563	523.0743	562.7878	635.985	722.5339	792.6234	804.4259	835.7102	869.5681	926.8545	932.7181	956.2365	968.9247	1020.0339	1035.6426	1061.7384	1096.135	1137.5145	1147.0588	1166.0576	1187.4017	1203.3909	1223.9587	1234.5626	1263.5558	1279.0206	1302.8661	1330.4052	1391.7252	1492.7479	1497.4225	1513.4247	1532.8774	3035.1854	3057.1685	3063.2516	3068.1576	3076.9085	3112.2529	3123.5502	3130.3811	3139.543
C1OC23CN(C2)CC13	C1O[C@@]23CN(C2)C[C@@H]13	
InChI=1S/C6H9NO/c1-5-2-8-6(5)3-7(1)4-6/h5H,1-4H2	InChI=1S/C6H9NO/c1-5-2-8-6(5)3-7(1)4-6/h5H,1-4H2/t5-/m0/s1
