17
gdb 128342	2.83751	1.2932	0.90138	1.2907	72.67	-0.1906	0.0166	0.2072	1275.7854	0.136583	-451.312319	-451.302798	-451.301854	-451.347348	32.536	
C	-0.053420108	 1.4390552765	-0.0752383739	-0.317911
N	-0.0117234126	 0.0175066498	 0.2283319949	-0.38838
C	-1.1779243409	-0.7103338228	 0.1056469979	 0.29818
N	-2.3973367765	-0.1843619389	 0.0734201198	-0.297773
N	-3.200507807	-1.2593165893	 0.0512853542	-0.120544
N	-2.5901275176	-2.4480023399	 0.0001701128	-0.306167
C	-1.30971441	-2.1235201401	 0.0544238286	 0.337337
O	-0.2772323924	-2.9844019494	 0.0566011698	-0.276887
C	-0.6286216173	-4.3620319398	-0.0360055341	-0.240715
H	 0.9413538252	 1.8625791312	 0.0806372494	 0.119216
H	-0.3794614321	 1.6569603432	-1.1034176843	 0.115192
H	-0.75159728	 1.9340321814	 0.6046121811	 0.14867
H	 0.7885613579	-0.4727125034	-0.1434465325	 0.245603
H	-4.1858837493	-1.1706659757	-0.1204336171	 0.283957
H	-1.2538322217	-4.6623738339	 0.8114789803	 0.136882
H	-1.1762969233	-4.5643864528	-0.9628870317	 0.133528
H	 0.3110537556	-4.9156705361	-0.0253270352	 0.129811
69.9209	96.6216	109.444	155.6203	167.8959	186.7313	248.4795	295.6269	345.2426	429.1127	536.3352	591.404	668.0279	695.1905	757.5906	807.1404	965.8607	1048.3522	1088.9227	1138.9079	1161.9464	1181.9579	1186.0617	1213.2451	1229.1327	1279.9678	1398.8587	1451.5559	1456.1927	1465.5613	1480.0766	1482.5294	1502.9858	1507.3161	1525.3844	1612.367	1631.0883	2992.114	3029.6948	3086.6942	3095.3399	3129.822	3145.4808	3603.8455	3701.4147
CNC1=NNN=C1OC	CNc1n[nH]nc1OC	
InChI=1S/C4H8N4O/c1-5-3-4(9-2)7-8-6-3/h1-2H3,(H2,5,6,7,8)	InChI=1S/C4H8N4O/c1-5-3-4(9-2)7-8-6-3/h1-2H3,(H2,5,6,7,8)
