19
gdb 70919	3.46424	1.51272	1.2854	1.2177	80.81	-0.2316	0.0136	0.2452	1020.5002	0.160831	-385.823813	-385.816683	-385.815738	-385.854745	30.288	
O	 0.0144523495	 1.3745935372	 0.0507883332	-0.469665
C	 0.055280885	-0.0063895113	 0.0078278877	 0.360506
C	 0.6522575274	-0.9353440223	-1.1475117233	-0.380368
C	 0.01212034	-1.8699498621	-0.0895273376	 0.328792
C	 0.7009118185	-0.9828805134	 1.0172690177	-0.323815
C	-0.5608998522	-3.2157854207	 0.2078799503	-0.236111
C	-1.7287993211	-3.0343246543	 0.8446134983	-0.047919
C	-2.117311586	-1.5549867396	 1.0052910432	-0.351407
C	-1.2026142792	-0.9105601371	-0.0533978622	-0.006345
H	 0.9166749298	 1.7057166761	 0.1191422656	 0.28165
H	 0.1575098926	-0.8787409834	-2.1202305581	 0.0983
H	 1.7421653342	-0.9460808463	-1.2412721358	 0.084285
H	 1.7938556602	-1.0164689791	 1.047639147	 0.082159
H	 0.2746236873	-1.023174749	 2.0209343823	 0.097049
H	-0.0782510094	-4.1707862506	 0.0384283334	 0.097912
H	-2.3302859374	-3.8340085295	 1.2655355728	 0.093185
H	-3.179367293	-1.375102256	 0.8120628157	 0.104865
H	-1.9289812553	-1.2235508109	 2.033997444	 0.116975
H	-1.7288602307	-0.8497776178	-1.0118271141	 0.069951
204.2891	246.1351	255.2823	303.2304	392.1334	471.1445	508.7664	524.7968	582.5878	622.9595	673.286	738.0287	752.8319	793.1489	850.2818	863.2739	902.1556	947.5708	969.3809	974.2311	1016.1469	1030.9236	1082.1151	1095.2636	1107.9457	1115.1607	1118.7382	1131.488	1149.7041	1173.3963	1183.2098	1250.4838	1281.1135	1298.1368	1349.2809	1376.0106	1419.6701	1477.221	1497.3335	1543.6918	1624.2902	3033.1855	3043.7273	3047.4824	3058.3429	3077.2278	3119.623	3128.0451	3178.0238	3209.2124	3804.7653
OC12CC3(C1)C=CCC23	O[C@@]12C[C@]3(C1)C=CC[C@@H]23	
InChI=1S/C8H10O/c9-8-4-7(5-8)3-1-2-6(7)8/h1,3,6,9H,2,4-5H2	InChI=1S/C8H10O/c9-8-4-7(5-8)3-1-2-6(7)8/h1,3,6,9H,2,4-5H2/t6-,7-,8-/m1/s1
