16
gdb 12590	3.18414	2.02553	1.30167	2.3876	67.02	-0.25	-0.0273	0.2227	919.9637	0.129337	-383.773207	-383.765335	-383.764391	-383.805375	29.11	
C	 0.1057321445	 1.4884509181	 0.0580887319	-0.493373
C	 0.0141063549	-0.0001598179	-0.0016994881	 0.305831
C	-0.0603627522	-0.7819548501	-1.0856697786	-0.178978
C	-0.1127354017	-2.2574668388	-0.7657296987	-0.369151
C	 0.2169796773	-2.2433491445	 0.7253952678	 0.361936
O	 0.7219513872	-3.1143978636	 1.3862679505	-0.315703
C	-0.048708528	-0.8295264387	 1.2634151352	-0.030644
O	 0.8777313488	-0.462277782	 2.2581296879	-0.441502
H	 0.9812467749	 1.7893887372	 0.6435778664	 0.150735
H	 0.1800752597	 1.927724237	-0.940228157	 0.122374
H	-0.7693611731	 1.9186725061	 0.5616538849	 0.129704
H	-0.0819218032	-0.4113218716	-2.1048841228	 0.098774
H	-1.1058691348	-2.7011730874	-0.928155453	 0.136412
H	 0.6014278389	-2.8764984107	-1.3195573214	 0.137086
H	-1.0774019445	-0.8023762536	 1.6745908572	 0.092356
H	 1.2073226316	-1.2936317694	 2.6289440679	 0.294145
71.5407	176.3971	216.0918	253.767	264.0635	317.2929	355.9072	456.8861	534.9969	560.1423	652.8822	691.0557	792.6141	812.1386	883.2633	964.635	975.2901	1032.8838	1059.0905	1075.5117	1138.2975	1178.7658	1207.9388	1223.2876	1285.2874	1321.5941	1342.9313	1407.6571	1414.1201	1455.9908	1473.1635	1488.5938	1710.1067	1849.0444	2903.8107	3010.4652	3024.7674	3069.8724	3081.136	3117.564	3188.2498	3733.4789
CC1=CCC(=O)C1O	CC1=CCC(=O)[C@H]1O	
InChI=1S/C6H8O2/c1-4-2-3-5(7)6(4)8/h2,6,8H,3H2,1H3	InChI=1S/C6H8O2/c1-4-2-3-5(7)6(4)8/h2,6,8H,3H2,1H3/t6-/m0/s1
