20
gdb 68293	2.75021	1.47922	1.3491	2.7038	78.63	-0.2351	0.0697	0.3048	1062.833	0.171055	-403.049452	-403.041366	-403.040422	-403.081956	31.509	
C	-0.0392068516	 1.5269909012	 0.0364790032	-0.521119
C	 0.0204498659	 0.0205155517	 0.0237974312	 0.226144
C	 0.5815051631	-0.9405735413	-1.0549025931	-0.213377
N	 0.0775887223	-1.9337268145	 0.008604541	-0.181115
C	 0.7088007721	-0.9529394185	 1.0140647686	-0.213376
C	-1.1341481249	-1.004903869	 0.0887104513	 0.324754
C	-2.184991396	-1.1592346269	 1.1956071647	-0.177449
O	-3.2435997828	-1.213341211	 0.2172792808	-0.277789
C	-2.3128885765	-1.1468605984	-0.8827508717	-0.177448
H	 0.9650362075	 1.9600658931	-0.021457843	 0.124642
H	-0.6173818012	 1.9054139059	-0.8135401724	 0.125141
H	-0.5107825323	 1.8947444726	 0.9543040549	 0.125144
H	 0.057656676	-1.0149183489	-2.0120332191	 0.104021
H	 1.6655005023	-0.9737059142	-1.197008928	 0.099972
H	 1.8020177685	-0.9869399329	 1.0217966006	 0.099971
H	 0.3061976685	-1.0390818205	 2.0272437584	 0.104022
H	-2.1060920639	-2.0887502103	 1.7742929054	 0.112776
H	-2.3029365487	-0.3118101734	 1.883606066	 0.101156
H	-2.5136860351	-0.2914276832	-1.5410004864	 0.101157
H	-2.3062099333	-2.0693946615	-1.4777191622	 0.112775
89.522	180.2856	193.1481	211.9863	244.0611	325.207	390.8447	461.5608	571.9701	613.5488	621.7412	743.3537	790.7813	857.4612	896.952	907.2151	921.0261	939.8284	987.1676	998.3616	1033.5511	1035.0643	1056.2956	1125.6109	1152.8942	1157.2833	1161.8283	1177.3375	1185.6684	1187.6613	1196.3912	1245.274	1259.4523	1303.5337	1340.9531	1388.7583	1413.6768	1487.7877	1488.2842	1497.5686	1512.3978	1522.5272	1550.917	2999.0143	3010.5276	3028.5491	3046.4415	3049.1381	3049.4596	3052.1639	3097.4402	3099.2066	3110.86	3114.7751
CC12CN(C1)C21COC1	C[C@@]12CN(C1)C12COC1	
InChI=1S/C7H11NO/c1-6-2-8(3-6)7(6)4-9-5-7/h2-5H2,1H3	InChI=1S/C7H11NO/c1-6-2-8(3-6)7(6)4-9-5-7/h2-5H2,1H3
