16
gdb 46953	2.92781	1.88026	1.44519	3.9411	67.62	-0.2559	-0.0018	0.2541	903.6278	0.127093	-437.878927	-437.872373	-437.871429	-437.909881	26.032	
O	 0.0160509976	 0.0189930308	 0.2680483081	-0.332533
C	-0.0198133493	 1.1894617038	 0.0022051018	 0.426919
O	-1.2066943236	 1.7856179709	-0.2642130629	-0.232133
C	-1.222777902	 3.1304191892	-0.7738951696	-0.084685
C	-0.1092946752	 3.9757000098	-0.2081397945	 0.003441
C	 0.1639851572	 3.8725796408	 1.319224734	-0.281219
C	 1.4515460445	 3.1601459337	 0.9287793668	-0.023234
C	 1.216700123	 2.0377035436	-0.0224376405	-0.169322
N	 1.2610869511	 3.4223684357	-0.5450348195	-0.160212
H	-1.1531458697	 3.0944028881	-1.8684412576	 0.129735
H	-2.2024065861	 3.5336786262	-0.5026263357	 0.130136
H	-0.1918992777	 4.9982729867	-0.5810275576	 0.100881
H	 0.3479375621	 4.8492169413	 1.7689525725	 0.123501
H	-0.5502886029	 3.3214798771	 1.9361446151	 0.127806
H	 2.4179403224	 3.2778942467	 1.4075075866	 0.11109
H	 2.0944950585	 1.4582966957	-0.286077637	 0.129829
118.6344	197.1393	320.2395	338.0024	430.2395	500.5622	546.8701	692.1048	717.6447	767.6803	803.8608	810.2306	821.9181	865.8016	910.6225	997.6909	1008.0029	1025.6406	1065.1643	1080.4641	1103.2885	1132.126	1150.8463	1188.1853	1235.2738	1257.6313	1274.67	1295.3406	1327.6268	1369.3388	1394.7158	1425.532	1492.7984	1499.0976	1843.1502	3032.8524	3069.2836	3092.9424	3097.8989	3129.5277	3170.2307	3186.6238
O=C1OCC2CC3C1N23	O=C1OC[C@H]2C[C@H]3[C@@H]1N23	
InChI=1S/C6H7NO2/c8-6-5-4-1-3(2-9-6)7(4)5/h3-5H,1-2H2	InChI=1S/C6H7NO2/c8-6-5-4-1-3(2-9-6)7(4)5/h3-5H,1-2H2/t3-,4+,5+,7?/m1/s1
