21
gdb 122277	2.69277	0.84016	0.71399	3.108	80.37	-0.2488	-0.0156	0.2332	1631.1955	0.180421	-424.223863	-424.21366	-424.212716	-424.259799	36.58	
O	 0.099960458	 1.3579025361	-0.4619145205	-0.421847
C	 0.0611272165	 0.0403355698	 0.0654755323	-0.073913
C	-1.3391942013	-0.5136814061	-0.1601676864	-0.168382
C	-1.4806884288	-1.9631884455	 0.3222885873	-0.297493
C	-2.8701478712	-2.5372127062	 0.1134686751	 0.272113
C	-3.3165247881	-2.957510191	-1.2830820847	-0.298062
C	-3.0376146965	-4.0090831844	-0.2653219294	-0.318312
C	-3.9454037413	-2.0180141348	 0.9942757923	 0.120548
O	-3.789417792	-1.2135976887	 1.8805687295	-0.273133
H	 0.9668588364	 1.7302336808	-0.2769413975	 0.284411
H	 0.804682493	-0.6076403318	-0.4297692468	 0.076927
H	 0.2929695407	 0.0340729263	 1.1429728227	 0.088385
H	-2.0578548664	 0.1226667344	 0.3639689607	 0.131726
H	-1.5689150756	-0.4473089688	-1.2304972279	 0.099895
H	-0.7525388048	-2.597947197	-0.1982281246	 0.089416
H	-1.2416078297	-2.0178448898	 1.391062804	 0.115245
H	-4.3476760916	-2.7729736649	-1.5664953133	 0.124847
H	-2.5982045075	-2.7979181013	-2.0793889636	 0.13008
H	-2.1231414389	-4.5859700087	-0.3431419501	 0.128956
H	-3.8754783391	-4.5521998057	 0.159472763	 0.124597
H	-4.9534428519	-2.4492814526	 0.7822780578	 0.063996
61.0371	76.9713	118.7816	135.805	148.1453	225.2655	260.1526	293.0403	306.3537	352.9953	410.7124	507.3321	546.1184	747.0118	783.6372	802.8431	839.1288	873.103	920.7252	944.563	989.5555	1031.7511	1048.6421	1051.5499	1062.821	1084.3956	1090.0905	1121.7006	1195.7409	1211.346	1235.8643	1279.3375	1304.9966	1317.3458	1326.7546	1360.7324	1390.2207	1443.2157	1464.0803	1467.1846	1475.7969	1499.1656	1500.7315	1528.8507	1813.3587	2842.8577	2951.3167	2982.0227	3021.5869	3039.9439	3063.6891	3103.9734	3133.3686	3135.5404	3213.6684	3227.7885	3831.1618
OCCCC1(CC1)C=O	OCCCC1(CC1)C=O	
InChI=1S/C7H12O2/c8-5-1-2-7(6-9)3-4-7/h6,8H,1-5H2	InChI=1S/C7H12O2/c8-5-1-2-7(6-9)3-4-7/h6,8H,1-5H2
