20
gdb 106712	2.47937	1.50195	1.1705	1.2022	78.82	-0.234	0.08	0.314	1153.9447	0.169564	-403.086277	-403.077371	-403.076426	-403.119775	33.95	
C	-0.4351005769	 1.4168521181	 0.1716749722	-0.378949
C	 0.2148622451	 0.055835555	-0.1167314707	-0.300201
C	 0.9815460357	-0.4745297748	 1.0531170769	 0.384443
O	 0.2524769602	-0.9677930546	 2.1969493771	-0.339469
C	 1.1958391015	-1.8533286899	 1.5631383759	 0.354613
C	 0.7292155533	-3.183355204	 1.072029756	-0.505063
C	 2.5823274274	-1.4578507267	 2.0540086199	-0.139159
N	 3.3213096984	-0.9847807147	 0.8511647316	-0.345113
C	 2.36790932	-0.0757151832	 1.5455864049	-0.142244
H	 0.3177051536	 2.171847551	 0.4220731894	 0.11579
H	-0.991031698	 1.7760986751	-0.6992050387	 0.113317
H	-1.1289719579	 1.3414669599	 1.0139535898	 0.133903
H	-0.5574143109	-0.6704174182	-0.3932479675	 0.106366
H	 0.9024418175	 0.1350277318	-0.9671265505	 0.116804
H	-0.2241982849	-3.0912122858	 0.545279831	 0.131447
H	 1.4706578864	-3.6116453124	 0.3907631475	 0.13857
H	 0.5866865282	-3.8802254087	 1.9057216031	 0.128062
H	 3.0995682051	-1.7745997945	 2.9511399476	 0.099806
H	 4.2613746184	-0.7265215862	 1.1569015806	 0.226933
H	 2.6921208278	 0.8601302427	 1.9830572441	 0.100144
73.0643	138.0089	181.9296	200.9466	215.2683	255.3978	273.4654	396.0782	468.8697	554.6991	600.8173	617.8793	716.5878	740.5972	789.4881	837.28	844.836	868.7921	889.8372	934.0618	974.5971	988.7532	1037.9713	1075.4797	1084.444	1113.5164	1124.8292	1135.331	1189.0162	1229.8009	1275.2212	1313.2419	1332.1143	1346.3806	1367.0215	1407.4471	1411.6868	1471.5031	1476.0676	1490.674	1498.5726	1500.0632	1515.8699	3035.1421	3036.471	3038.2944	3074.1725	3099.6301	3106.7146	3117.8162	3122.8365	3189.1037	3201.8461	3450.6043
CCC12OC1(C)C1NC21	CC[C@@]12O[C@]1(C)[C@H]1N[C@@H]21	
InChI=1S/C7H11NO/c1-3-7-5-4(8-5)6(7,2)9-7/h4-5,8H,3H2,1-2H3	InChI=1S/C7H11NO/c1-3-7-5-4(8-5)6(7,2)9-7/h4-5,8H,3H2,1-2H3/t4-,5+,6+,7-/m0/s1
