19
gdb 103978	2.15792	1.77707	1.20428	3.1424	71.08	-0.2294	0.0514	0.2808	1066.6424	0.158063	-460.115472	-460.106608	-460.105664	-460.148538	34.606	
O	 0.6893242081	 0.2749718884	-0.7726521587	-0.411106
C	-0.1824370758	 0.2912598947	 0.3574430968	-0.149407
C	-1.4325515586	-0.5522721573	 0.1042188245	 0.372075
O	-2.291693591	-0.3527048166	 1.223484502	-0.471822
C	-2.2090415459	-0.4374798416	-1.2477335234	-0.310388
C	-2.2631152963	-1.9702755484	-1.3212371565	-0.096926
C	-0.8796262065	-2.5273967959	-1.4369647505	 0.117302
O	 0.1392295826	-1.9911446879	-2.214310549	-0.445598
C	-1.3321174402	-2.0708327196	-0.0775000801	-0.152522
H	 1.5715351595	 0.5342724393	-0.4935736088	 0.301998
H	 0.3184064655	-0.097617502	 1.2535659386	 0.110426
H	-0.4922235123	 1.3274732312	 0.5670447556	 0.086322
H	-2.6309227229	 0.5485449323	 1.1802173065	 0.276729
H	-3.1793581251	 0.0413860836	-1.1012833934	 0.096204
H	-1.6812990086	 0.0417325162	-2.0767730826	 0.113221
H	-3.1519594857	-2.5465764007	-1.5482551469	 0.082812
H	-0.8738418622	-3.614414399	-1.5050441861	 0.096791
H	 0.4810045907	-1.1964293192	-1.7748778922	 0.297188
H	-1.3859521653	-2.7391298173	 0.7752561542	 0.0867
82.4067	190.9187	198.0573	229.6805	252.3194	302.5438	309.4488	362.4079	426.7074	477.8237	538.5128	546.945	608.8561	668.4284	735.4154	783.4616	849.7767	867.4726	929.8329	979.2654	994.4962	1005.0166	1032.8784	1065.3408	1080.5935	1106.0068	1124.9741	1144.5319	1203.1439	1217.5245	1248.0495	1259.899	1268.8883	1283.9429	1349.2934	1387.985	1412.8207	1442.0468	1471.3376	1480.0376	1501.5644	2976.2979	3040.5835	3060.7473	3119.1004	3121.4411	3166.5326	3182.5783	3652.2985	3794.3983	3846.9389
OCC1(O)CC2C(O)C12	OC[C@@]1(O)C[C@H]2[C@@H](O)[C@@H]12	
InChI=1S/C6H10O3/c7-2-6(9)1-3-4(6)5(3)8/h3-5,7-9H,1-2H2	InChI=1S/C6H10O3/c7-2-6(9)1-3-4(6)5(3)8/h3-5,7-9H,1-2H2/t3-,4+,5-,6+/m1/s1
