13
gdb 5148	6.36414	1.32287	1.10256	0.961	63.44	-0.2452	0.0017	0.2469	994.4071	0.09571	-361.457954	-361.451	-361.450056	-361.48972	25.207	
C	-0.4849041529	-0.7516804208	-1.0101005437	-0.449713
C	-0.1287232619	 0.0801546406	-0.2199943109	 0.309547
C	 0.3103288585	 1.0922391686	 0.7342964218	-0.466784
C	 1.5566739934	 1.8141883082	 0.3119487157	 0.253125
C	 2.3198420601	 1.6724365877	-0.7972564907	-0.092876
O	 3.3538318295	 2.5663715471	-0.7179330982	-0.142177
C	 3.1503698412	 3.2053919924	 0.4536767846	 0.071767
N	 2.1101350199	 2.8122089501	 1.1112846433	-0.30721
H	-0.809404173	-1.4897327549	-1.7012022403	 0.200513
H	-0.4902370207	 1.8267173427	 0.8937853519	 0.155214
H	 0.4813418058	 0.6302895828	 1.7156987245	 0.155214
H	 2.2817974926	 1.0436246446	-1.6683072813	 0.160433
H	 3.8637626173	 3.968756271	 0.7219857935	 0.152947
56.7094	118.9064	256.2314	318.7579	330.9051	464.7913	620.8702	635.3697	653.6487	673.997	727.8568	774.86	848.8369	935.1309	958.2759	968.1249	1001.3813	1094.4425	1137.0478	1218.2081	1221.0397	1241.8345	1333.9532	1366.951	1461.9025	1556.9286	1633.8082	2245.3707	3020.0376	3043.7341	3276.5606	3310.2073	3505.2298
C#CCC1=COC=N1	C#CCc1cocn1	
InChI=1S/C6H5NO/c1-2-3-6-4-8-5-7-6/h1,4-5H,3H2	InChI=1S/C6H5NO/c1-2-3-6-4-8-5-7-6/h1,4-5H,3H2
