18
gdb 120184	5.13643	0.77934	0.75632	1.8831	73.78	-0.2497	0.0003	0.2501	1497.4851	0.147455	-439.016338	-439.00772	-439.006776	-439.050359	31.547	
O	-0.0550270708	 1.4481972071	-0.0110881298	-0.417641
C	-0.0058562097	 0.0408090986	 0.1575407633	-0.070536
C	-1.3973205127	-0.5074269745	-0.1424318798	-0.221704
C	-1.4460086124	-2.0276013628	-0.0845749709	 0.030549
C	-1.4868121929	-2.7419954298	 1.3084091726	-0.167335
N	-2.92342837	-2.234989439	 1.4287639785	-0.311666
C	-2.8410986972	-2.725143478	-0.0174507032	-0.178619
C	-2.1116878331	-3.9523921245	 0.5763750714	 0.439028
O	-2.1562539475	-5.1424972506	 0.6073507067	-0.325438
H	 0.8130041244	 1.8076666612	 0.1934629382	 0.286539
H	 0.7333371148	-0.416377138	-0.5219002793	 0.082377
H	 0.2878977882	-0.2287622656	 1.1851165945	 0.087187
H	-2.1144068739	-0.0749423937	 0.5579474886	 0.135064
H	-1.6826665459	-0.1786617786	-1.1490156029	 0.108407
H	-0.7523444329	-2.4835940672	-0.7976367912	 0.087239
H	-0.7839661371	-2.684148618	 2.1374775548	 0.101105
H	-3.4901862075	-2.8677529427	 2.0003258134	 0.233157
H	-3.6817263537	-2.6412208438	-0.7038869447	 0.10229
78.3623	86.5769	108.4962	176.9639	260.5123	296.3752	332.6149	396.9006	483.0939	581.3967	700.6037	747.3797	781.493	802.7874	820.0818	864.2254	905.0268	987.4704	1015.7882	1056.0351	1063.3246	1078.2108	1107.6374	1120.4047	1132.1879	1177.5073	1185.245	1194.7526	1236.1445	1249.7012	1268.8814	1278.6192	1314.6565	1330.4551	1416.7469	1463.2634	1493.2212	1528.1039	1906.8668	2954.9777	2982.4872	3044.1227	3065.905	3121.7871	3140.9186	3144.5105	3411.7167	3830.5741
OCCC1C2NC1C2=O	OCC[C@H]1[C@H]2N[C@@H]1C2=O	
InChI=1S/C6H9NO2/c8-2-1-3-4-6(9)5(3)7-4/h3-5,7-8H,1-2H2	InChI=1S/C6H9NO2/c8-2-1-3-4-6(9)5(3)7-4/h3-5,7-8H,1-2H2/t3-,4+,5-
