15
gdb 127391	4.00871	1.14542	1.07178	2.1723	68.27	-0.2522	-0.0764	0.1758	1127.3999	0.112154	-450.033984	-450.026358	-450.025414	-450.066845	27.712	
C	-0.4925165768	 1.2714500558	-0.0746085308	-0.332422
N	 0.0339319929	-0.0848533635	 0.0267637847	-0.078924
C	 1.4317014098	-0.2942099878	-0.2887050018	-0.247902
C	 0.9571553535	-0.4319496926	 1.1241245979	-0.095269
C	 1.3742420538	 0.5326411703	 2.1542306141	 0.420174
N	 1.926645377	 1.7029240584	 1.9784215672	-0.162949
O	 2.0943518121	 2.1982647274	 3.2271186433	-0.136305
N	 1.6288072164	 1.2634729957	 4.1478916627	 0.04822
N	 1.1985567623	 0.2735134296	 3.508345698	-0.208197
H	 0.2282854231	 2.0589467987	 0.1863261109	 0.134605
H	-0.8162797078	 1.4270059019	-1.1077414269	 0.134764
H	-1.3674450646	 1.3654432216	 0.5754487988	 0.13277
H	 1.6698670606	-1.1906353327	-0.8549822205	 0.129545
H	 2.047441496	 0.5757461317	-0.5116045401	 0.137388
H	 0.7835855018	-1.4188804044	 1.5417912723	 0.124502
52.2941	134.5717	184.5271	227.521	307.1542	361.8044	435.1944	492.7042	666.2872	687.7493	698.4146	738.765	811.9696	880.0627	957.7297	984.9842	1032.89	1061.2037	1086.6649	1110.8579	1132.2958	1142.5266	1172.1052	1212.0476	1230.1996	1326.7743	1406.8116	1452.5922	1490.5859	1496.8277	1503.2695	1511.9651	1585.3124	3006.052	3085.7819	3097.2865	3114.5608	3161.2225	3188.2448
CN1CC1C1=NON=N1	CN1C[C@H]1c1nonn1	
InChI=1S/C4H6N4O/c1-8-2-3(8)4-5-7-9-6-4/h3H,2H2,1H3	InChI=1S/C4H6N4O/c1-8-2-3(8)4-5-7-9-6-4/h3H,2H2,1H3/t3-,8?/m0/s1
