12
gdb 131279	5.50464	1.07899	0.90216	2.5816	67.03	-0.2579	-0.0933	0.1646	1159.9142	0.078381	-468.831199	-468.824231	-468.823286	-468.863017	25.299	
O	 0.0265301901	 1.2975648685	-0.0763208573	-0.366541
C	 0.0269304682	-0.0275042668	 0.0123241469	 0.508537
N	 0.5515137024	-0.7190051351	-1.0102591416	-0.323378
C	 0.5199694644	-2.0312306444	-0.8585928608	-0.030957
C	-0.0287146571	-2.6006263311	 0.2969299992	 0.212216
C	-0.0861133386	-4.0664242808	 0.5116642453	 0.11219
O	 0.3323962041	-4.8702939863	-0.2870096781	-0.259179
N	-0.5308665841	-1.8311595773	 1.2682840887	-0.21624
N	-0.5105571845	-0.5207492768	 1.1395720029	-0.227461
H	 0.4350771834	 1.5256414159	-0.9239091013	 0.318672
H	 0.9277093191	-2.6570602887	-1.6472405666	 0.164479
H	-0.5496990674	-4.3569219271	 1.4753290326	 0.107663
89.7389	173.6686	191.5444	324.2987	418.6291	419.2538	477.039	553.8053	592.3824	638.4615	681.7504	815.9486	844.7976	896.2023	1002.6736	1051.2328	1059.8051	1135.4858	1214.906	1275.6376	1349.3562	1391.5852	1427.5705	1501.7094	1561.9473	1611.0693	1804.6071	2948.0376	3184.7867	3767.5242
OC1=NC=C(C=O)N=N1	Oc1ncc(C=O)nn1	
InChI=1S/C4H3N3O2/c8-2-3-1-5-4(9)7-6-3/h1-2H,(H,5,7,9)	InChI=1S/C4H3N3O2/c8-2-3-1-5-4(9)7-6-3/h1-2H,(H,5,7,9)
