19
gdb 112271	2.42804	1.23277	0.90138	3.3524	72.65	-0.2519	0.	0.2518	1338.8767	0.157402	-460.181109	-460.171437	-460.170493	-460.216324	33.866	
C	 0.3453137455	 1.5467410411	 0.1159254446	-0.391951
C	 0.0352107357	 0.0507955963	 0.0091777575	-0.180986
C	 0.4135864977	-0.5222235845	-1.3407316162	 0.090688
O	 1.8725327796	-0.4660789334	-1.5816605225	-0.25408
C	 1.9849303754	-1.8301750362	-1.609605046	 0.426717
O	 2.9758237183	-2.4838529875	-1.6901087407	-0.327892
C	 0.4617275352	-2.0594635737	-1.4847016415	-0.072042
O	 0.0032429103	-2.7745537047	-0.3811519978	-0.239082
C	 0.1813206922	-4.178034038	-0.5113124932	-0.249131
H	 1.4115422441	 1.7331250669	-0.0401763762	 0.140085
H	-0.2096471729	 2.123578049	-0.6321556285	 0.115443
H	 0.0734196381	 1.9302753925	 1.1032267765	 0.119184
H	 0.5576469797	-0.5098811655	 0.7902262306	 0.119848
H	-1.0352826196	-0.1343185464	 0.159422809	 0.113435
H	-0.0951921766	-0.0066407233	-2.1603514285	 0.096906
H	 0.0264875331	-2.4337622754	-2.4241391599	 0.099817
H	-0.2186701631	-4.6308538005	 0.3977501409	 0.135086
H	-0.3694317427	-4.5671627633	-1.3808532389	 0.111889
H	 1.2406136601	-4.4397679934	-0.6166992592	 0.146068
79.2454	86.5471	108.9182	130.9708	171.4516	216.9452	240.3291	293.3825	340.1656	440.2189	467.6774	562.1548	719.7889	746.0406	815.9736	830.8713	898.4654	937.4255	981.1903	1034.1802	1068.2298	1090.897	1135.6056	1158.3241	1184.0395	1186.8414	1236.744	1246.0547	1277.7884	1300.5852	1347.6348	1383.43	1409.3263	1414.255	1474.8172	1481.3981	1487.5523	1498.9268	1508.7789	1511.9995	1926.8236	2987.9002	2994.443	3038.5261	3044.2148	3068.8931	3070.0527	3089.6863	3110.3414	3121.9843	3133.503
CCC1OC(=O)C1OC	CC[C@H]1OC(=O)[C@H]1OC	
InChI=1S/C6H10O3/c1-3-4-5(8-2)6(7)9-4/h4-5H,3H2,1-2H3	InChI=1S/C6H10O3/c1-3-4-5(8-2)6(7)9-4/h4-5H,3H2,1-2H3/t4-,5+/m1/s1
