15
gdb 127728	3.48777	1.25186	0.92753	8.2779	73.34	-0.2395	-0.0372	0.2023	1190.4152	0.112478	-450.132619	-450.123978	-450.123033	-450.166045	30.563	
C	-0.0546984542	 1.4340256866	-0.0107928343	-0.349434
N	-0.0076900737	-0.0085868648	 0.0489786091	 0.002118
N	-0.0004643912	-0.7625583552	-1.1106483302	-0.140437
N	 0.0147170174	-1.9974698366	-0.77134496	-0.226619
C	 0.0260238303	-2.1095226669	 0.5984825051	 0.169033
C	 0.0604629533	-3.3633880462	 1.3298891774	 0.088062
O	 0.0700936704	-4.4750284089	 0.8548517735	-0.27315
C	 0.0113211181	-0.8154517823	 1.127539887	 0.28587
N	-0.0609746394	-0.3341729891	 2.4139315837	-0.605963
H	 0.8693027968	 1.8799735162	 0.3741165061	 0.14246
H	-0.1681224556	 1.7072076478	-1.0598217581	 0.181312
H	-0.9066425898	 1.8151626476	 0.5605498289	 0.154611
H	 0.0827077394	-3.2236436716	 2.4406715045	 0.033359
H	 0.1302107725	-1.019872903	 3.1295314029	 0.273537
H	 0.4196297058	 0.5372882063	 2.5885310542	 0.265241
101.4011	116.3403	174.8187	187.1522	228.9539	265.0208	293.5577	346.1745	386.4355	520.0893	588.1629	678.5305	694.7235	744.7602	765.9285	824.7724	974.2432	1019.9688	1031.4204	1151.1749	1198.673	1228.4346	1243.5429	1369.4422	1423.3312	1441.3929	1451.9065	1485.1344	1504.2708	1553.0994	1597.9745	1664.1665	1802.6236	2793.8736	3033.967	3098.1839	3161.9718	3563.8672	3662.5573
CN1N=NC(C=O)=C1N	Cn1nnc(C=O)c1N	
InChI=1S/C4H6N4O/c1-8-4(5)3(2-9)6-7-8/h2H,5H2,1H3	InChI=1S/C4H6N4O/c1-8-4(5)3(2-9)6-7-8/h2H,5H2,1H3
