13
gdb 19390	3.24271	2.34989	1.62005	1.3431	59.14	-0.2484	-0.0401	0.2083	768.9356	0.095139	-398.531513	-398.525027	-398.524083	-398.562211	24.198	
O	 0.0599094689	 0.0276944927	-0.1325283424	-0.310182
C	 0.0004805716	 1.2123899671	 0.0182810401	 0.358009
C	-1.106412259	 2.2724165851	-0.0460499161	-0.114934
O	-0.877815085	 3.1279994689	 1.092803556	-0.227239
C	-0.0627563254	 3.3338060743	-0.0576054813	-0.086447
C	 1.0634547468	 2.3161167625	 0.0715145506	 0.250361
C	 2.3712998397	 2.3316334682	 0.7570761836	-0.289474
N	 2.2908484389	 2.2718936408	-0.7114653604	-0.368347
H	-2.1015744818	 2.2414780095	-0.4716676573	 0.129628
H	-0.0788147074	 4.293428837	-0.5574194963	 0.135564
H	 2.7553730595	 3.2659885588	 1.1558999663	 0.135587
H	 2.6566755932	 1.4372634153	 1.3048949461	 0.135676
H	 2.4456540801	 1.3189583498	-1.0389219887	 0.251798
135.5595	187.9156	222.2747	267.6476	429.4305	518.3312	638.84	678.5602	766.3288	832.5948	847.1684	874.1504	916.2433	932.094	953.8325	993.848	999.1753	1059.9566	1065.6929	1129.3268	1199.3105	1220.1234	1244.1265	1276.2354	1331.3095	1429.6569	1508.3514	1891.2771	3111.4004	3202.3779	3202.9503	3218.9204	3476.0073
O=C1C2OC2C11CN1	O=C1[C@H]2O[C@H]2[C@]21CN2	
InChI=1S/C5H5NO2/c7-3-2-4(8-2)5(3)1-6-5/h2,4,6H,1H2	InChI=1S/C5H5NO2/c7-3-2-4(8-2)5(3)1-6-5/h2,4,6H,1H2/t2-,4-,5-/m1/s1
