21
gdb 38311	2.76253	1.86716	1.84123	1.5661	79.01	-0.2362	0.0754	0.3116	904.4214	0.188377	-387.074282	-387.068165	-387.067221	-387.104235	27.83	
C	-0.0621598707	 1.5876268347	 0.1329614955	-0.233768
C	 1.4703457086	 1.4158240717	 0.0440462537	 0.085493
O	 1.3030443816	 0.1404071761	 0.7423759253	-0.29335
C	 0.0158851682	 0.047072407	 0.051827742	 0.085497
C	 0.2764404282	-0.4666524616	-1.4160066177	-0.03056
C	-0.1798963328	 0.5531559334	-2.4926090825	-0.218691
C	 0.9627291064	 1.6283622609	-2.4987527294	-0.218689
C	 1.9590196152	 1.1167240015	-1.4249981563	-0.030559
C	 1.806694731	-0.4081724887	-1.6104685858	-0.185161
H	-0.3506396916	 1.8998765004	 1.1382102279	 0.103701
H	-0.610728005	 2.1663286554	-0.6066002435	 0.098598
H	 2.1258781487	 2.0976031467	 0.5901252625	 0.073386
H	-0.7012885132	-0.5629609409	 0.6052434459	 0.073385
H	-0.1600729261	-1.4572926148	-1.5629474173	 0.057538
H	-0.2449843797	 0.055571737	-3.4649563768	 0.095363
H	-1.1667160796	 0.9783909576	-2.2913227095	 0.096969
H	 1.457825909	 1.6578551922	-3.4740968574	 0.095367
H	 0.5993520475	 2.6402640296	-2.3008563479	 0.096965
H	 2.9734762678	 1.4914980867	-1.5796758178	 0.057538
H	 2.3657064353	-0.9981106927	-0.888679222	 0.112128
H	 2.088329731	-0.713209032	-2.623876459	 0.078849
273.7043	343.0369	371.7636	482.5962	505.1875	511.9816	536.5893	712.3165	736.9149	750.4601	796.2504	830.8741	880.6039	884.9955	893.6805	903.2161	919.2381	931.7875	953.7242	968.7909	994.6386	1023.1317	1049.9105	1075.3692	1088.5473	1111.3921	1155.5803	1178.3877	1180.6435	1202.1826	1218.0325	1255.7603	1257.7829	1296.7557	1302.2274	1307.3245	1310.614	1339.1107	1344.9293	1350.0498	1362.1078	1485.1085	1498.1163	1503.9588	1530.6029	3047.7902	3051.8152	3057.1266	3073.418	3074.9345	3082.9946	3085.079	3089.9287	3099.6208	3101.7363	3155.0631	3158.4531
C1C2OC1C1CCC2C1	C1[C@H]2O[C@@H]1[C@H]1CC[C@@H]2C1	
InChI=1S/C8H12O/c1-2-6-3-5(1)7-4-8(6)9-7/h5-8H,1-4H2	InChI=1S/C8H12O/c1-2-6-3-5(1)7-4-8(6)9-7/h5-8H,1-4H2/t5-,6+,7-,8+
