20
gdb 71780	2.99033	1.92687	1.74216	1.6541	80.48	-0.2097	0.0746	0.2843	902.8537	0.173575	-365.941505	-365.934871	-365.933927	-365.971919	28.709	
C	-0.0304660347	 1.519802114	 0.0300780607	-0.492941
C	-0.0020291011	 0.0142066312	-0.0032533675	 0.367512
C	 0.1562313076	-0.7483965254	-1.3349571678	-0.289292
C	-0.7451432435	-1.8092196337	-0.6858285011	-0.001601
C	-0.0652131883	-2.5821072327	 0.4969936345	-0.058522
C	 1.3590322675	-2.0531667097	 0.7886437561	-0.25133
C	 0.7096331478	-0.7118210537	 1.200885863	-0.107569
C	-0.6413198366	-1.4615009631	 1.4197903225	 0.017278
N	-1.3146004927	-0.7507354206	 0.2665467863	-0.199124
H	 0.9661262753	 1.9297047427	-0.1749280094	 0.113794
H	-0.7275897144	 1.9129401577	-0.716468306	 0.120638
H	-0.3480110698	 1.8828490348	 1.0137936226	 0.120157
H	-0.3782688151	-0.2267228541	-2.1343291101	 0.105309
H	 1.1530514876	-1.023479532	-1.6883893139	 0.097721
H	-1.4484622328	-2.3753087192	-1.2996023486	 0.06909
H	-0.2817540306	-3.6459806884	 0.5886651148	 0.065817
H	 1.7770901041	-2.5564253341	 1.6662903092	 0.100811
H	 2.106616593	-2.061585299	-0.0103831815	 0.094851
H	 1.2018127038	-0.0707595196	 1.9329252257	 0.061972
H	-1.158876507	-1.6041729051	 2.3691652305	 0.065429
212.3215	237.9744	283.5704	403.8517	417.4868	455.3728	567.8313	667.7548	708.8944	740.8338	781.1312	803.0371	846.9707	851.8388	906.8717	918.2151	943.9483	954.9881	974.2625	979.9835	987.1421	1013.8701	1041.7557	1058.2327	1104.0899	1121.0838	1144.3526	1185.6791	1197.2508	1210.4776	1231.26	1233.1016	1244.0899	1247.807	1280.716	1304.7204	1315.8713	1348.5133	1407.8328	1471.8542	1480.3491	1489.547	1505.1411	3022.4883	3043.2154	3055.6311	3083.2667	3088.9206	3091.4614	3092.9679	3102.1018	3104.6804	3109.0983	3115.0598
CC12CC3C4CC1C4N23	C[C@@]12C[C@H]3[C@H]4C[C@@H]1[C@H]4N23	
InChI=1S/C8H11N/c1-8-3-6-4-2-5(8)7(4)9(6)8/h4-7H,2-3H2,1H3	InChI=1S/C8H11N/c1-8-3-6-4-2-5(8)7(4)9(6)8/h4-7H,2-3H2,1H3/t4-,5-,6+,7+,8-/m1/s1
