15
gdb 128510	2.04348	1.74567	0.96758	2.8246	64.97	-0.2412	-0.042	0.1991	1155.8604	0.111033	-491.03665	-491.027843	-491.026898	-491.071386	30.259	
C	-0.3024905425	 1.2613840376	-0.1317003995	-0.250606
O	-0.127703729	-0.1583609523	-0.0898466872	-0.287596
C	 0.5969563988	-0.6943677428	-1.086678778	 0.281795
C	 0.765574991	-2.0230827088	-1.3526041601	 0.274841
C	 0.2183944556	-3.2474721129	-0.6877721886	-0.17907
O	-1.0736015057	-3.0277073157	-0.1620932605	-0.40927
O	 1.5804184663	-2.1065374698	-2.4086192075	-0.205495
N	 1.9096773825	-0.7839634882	-2.7976101047	-0.023728
N	 1.3183807516	 0.0106397225	-2.0054609632	-0.204017
H	 0.6603204339	 1.7741862766	-0.0512883301	 0.148476
H	-0.7932310842	 1.5655396548	-1.0615342996	 0.144397
H	-0.9322982117	 1.5070233552	 0.7233352476	 0.140992
H	 0.1354774434	-4.0518815782	-1.4247983153	 0.146859
H	 0.9227797734	-3.5921107411	 0.0875135202	 0.121218
H	-1.0425451836	-2.2405243768	 0.3943549466	 0.301205
47.632	64.1571	137.0434	165.6821	214.3526	263.2491	346.3752	362.4744	411.358	510.7846	646.7258	680.0614	718.9092	733.7288	761.2037	995.3025	1010.9886	1052.0781	1081.2131	1179.3444	1188.1937	1200.1226	1221.9259	1291.5297	1364.859	1404.5593	1421.4855	1453.2607	1483.5015	1491.4496	1498.8482	1501.4776	1675.2411	2966.4526	3040.3696	3086.1842	3112.7766	3156.8692	3796.1624
COC1=C(CO)ON=N1	COc1c(CO)onn1	
InChI=1S/C4H6N2O3/c1-8-4-3(2-7)9-6-5-4/h7H,2H2,1H3	InChI=1S/C4H6N2O3/c1-8-4-3(2-7)9-6-5-4/h7H,2H2,1H3
