20
gdb 66636	3.28178	1.81014	1.66481	1.7087	80.3	-0.2206	0.0967	0.3173	919.6596	0.174612	-365.995307	-365.988719	-365.987775	-366.025796	28.332	
C	-0.1371536759	 1.4958355604	-0.0280965754	-0.521088
C	 0.0640767825	 0.0146103746	 0.0440926221	 0.376377
C	 0.7749060643	-0.8611924104	-0.9281379156	-0.101504
C	 1.457971208	-2.0256812861	-0.1608903358	-0.057255
C	 0.2737699576	-3.0110313471	-0.0028072139	-0.210322
C	-0.7155463255	-1.9250498127	 0.4114784396	 0.013084
C	 0.1102872242	-0.8985238462	 1.2869291565	-0.124722
C	 1.5458995887	-1.4526376928	 1.2748434213	-0.218554
N	-0.7195501427	-0.9701083674	-0.7659797	-0.193691
H	 0.7071093888	 2.0317448105	 0.4209138092	 0.118457
H	-0.2297864433	 1.8182211417	-1.0698049994	 0.128687
H	-1.0486075952	 1.7987051397	 0.4993055421	 0.121612
H	 1.1146654289	-0.5082005332	-1.8943082426	 0.086864
H	 2.3749586964	-2.4106031104	-0.604818447	 0.06197
H	-0.0286469086	-3.4893976117	-0.9384909333	 0.106284
H	 0.4533059983	-3.7761238843	 0.7588169825	 0.093122
H	-1.7161537866	-2.2114653948	 0.7299359893	 0.071108
H	-0.3092884333	-0.5408657402	 2.2251593747	 0.065795
H	 1.7407266928	-2.2234135697	 2.0283934747	 0.090019
H	 2.2901033205	-0.6561730599	 1.3780658212	 0.093756
183.6319	220.8525	262.3701	416.7572	461.5665	544.8812	588.1789	643.3227	722.7156	772.2982	814.1407	825.5453	831.5875	882.5262	901.3296	910.4373	928.0316	937.4592	958.4372	965.936	983.4239	1015.3568	1045.5382	1059.959	1101.4609	1112.7895	1146.3104	1164.1613	1186.3436	1214.9975	1241.1382	1249.5138	1265.7745	1279.2443	1295.5095	1307.6618	1324.7309	1402.5155	1436.287	1476.5143	1482.4568	1492.3627	1497.0499	3025.6847	3038.637	3054.7573	3087.2978	3090.0163	3105.629	3109.4055	3127.1192	3129.0812	3139.1186	3186.1379
CC12C3C4CC(C1C4)N23	C[C@@]12[C@H]3[C@@H]4C[C@@H]([C@H]1C4)N23	
InChI=1S/C8H11N/c1-8-5-2-4-3-6(5)9(8)7(4)8/h4-7H,2-3H2,1H3	InChI=1S/C8H11N/c1-8-5-2-4-3-6(5)9(8)7(4)8/h4-7H,2-3H2,1H3/t4-,5+,6-,7+,8-,9?/m0/s1
