22
gdb 58197	2.64753	0.98664	0.8692	3.4751	82.54	-0.2963	0.0117	0.308	1446.1158	0.191675	-404.367626	-404.356613	-404.355668	-404.40377	39.999	
C	 0.9738289422	-0.3698629047	-0.9260044414	-0.401054
C	-0.016404805	 0.0296734277	 0.1785793836	 0.039662
C	-0.0442335055	 1.5549067748	 0.3557479028	-0.409771
C	-1.446741291	-0.5376377852	-0.0275413621	 0.00344
C	-2.0681363867	-0.2086095032	-1.3931285636	-0.425134
C	-1.4710828479	-2.0667260925	 0.2315859193	-0.027725
O	-0.9286393401	-2.4402957916	 1.4867670398	-0.40907
C	-2.8399346407	-2.6088721934	 0.0931082658	 0.263293
N	-3.9188349795	-3.0179785426	 0.0251838119	-0.326916
H	 1.9773567473	-0.0102669672	-0.6779267113	 0.118587
H	 1.0440839305	-1.4550393258	-1.0524111572	 0.116061
H	 0.7001806134	 0.0647584625	-1.8930215681	 0.118726
H	 0.3464618491	-0.4034876043	 1.1174080933	 0.090649
H	-0.7272396567	 1.8531956511	 1.1584279647	 0.110642
H	 0.9525343911	 1.9290138651	 0.6102585154	 0.116469
H	-0.3594554449	 2.0678951567	-0.559367099	 0.118187
H	-2.0842462686	-0.088785532	 0.7486744272	 0.075695
H	-3.1191406239	-0.5062217149	-1.4305656017	 0.144925
H	-2.0205117232	 0.8644558606	-1.5943498953	 0.125325
H	-1.5486625681	-0.7235170946	-2.2078543252	 0.124415
H	-0.8427754738	-2.5694155747	-0.5118383079	 0.139882
H	-1.493163308	-2.0750529317	 2.1783013789	 0.293711
45.1185	73.986	137.9072	206.7663	207.922	223.4476	243.5704	261.2643	274.5869	294.1794	337.7697	368.9807	425.3826	457.8558	514.1059	582.3237	614.4302	785.2551	853.5484	917.0532	933.4685	961.6046	969.057	1009.0286	1031.565	1075.6019	1131.7727	1139.6943	1174.4215	1208.6307	1252.3359	1291.719	1330.0977	1345.8181	1380.5418	1385.595	1404.8008	1413.6592	1420.911	1429.4205	1485.7279	1491.1608	1499.0514	1508.9	1511.5308	1513.0716	2351.4043	2993.7173	3030.1043	3036.5201	3044.1022	3047.2653	3064.5685	3096.9023	3099.1067	3102.5505	3106.698	3114.9403	3125.6889	3797.4502
CC(C)C(C)C(O)C#N	CC(C)[C@@H](C)[C@@H](O)C#N	
InChI=1S/C7H13NO/c1-5(2)6(3)7(9)4-8/h5-7,9H,1-3H3	InChI=1S/C7H13NO/c1-5(2)6(3)7(9)4-8/h5-7,9H,1-3H3/t6-,7+/m1/s1
