24
gdb 109766	2.37628	1.08954	0.87039	0.4012	86.12	-0.2151	0.0706	0.2857	1473.9176	0.214624	-405.516591	-405.505339	-405.504395	-405.55321	40.854	
C	 1.4093658564	 1.5653482248	-0.6275408122	-0.385727
C	 0.4449780205	 0.4475127133	-0.2113163818	-0.191859
C	 0.9280073483	-0.3077964766	 1.0130232683	-0.00535
C	 0.445491799	-1.6762912427	 1.3700515092	-0.0532
C	-0.5869578369	-2.4192324433	 0.5354321813	 0.128143
C	-0.5800003735	-3.9196107401	 0.8332947577	-0.405743
O	-1.8850790612	-1.8583222136	 0.7401295827	-0.436106
N	 1.8404342976	-1.4574034895	 0.975879311	-0.108948
C	 2.3566366606	-1.9712672007	-0.2832097386	-0.316629
H	 2.3882195261	 1.1642241107	-0.9101855221	 0.119502
H	 1.0174705478	 2.1268327618	-1.4812013594	 0.112194
H	 1.5688008668	 2.2733875796	 0.1930985074	 0.116719
H	-0.5379204614	 0.872450286	 0.0250232606	 0.113244
H	 0.2783646708	-0.2269090688	-1.055542286	 0.097645
H	 1.1508231745	 0.361024247	 1.8468782839	 0.080465
H	 0.345003574	-1.9096595731	 2.4345915551	 0.07168
H	-0.3978203049	-2.2695127453	-0.5302647124	 0.085502
H	-0.7652714684	-4.1019711445	 1.8992590539	 0.107931
H	-1.3604850646	-4.4246911716	 0.2578891102	 0.122552
H	 0.3872916486	-4.3681392025	 0.5847239985	 0.122231
H	-2.0946976262	-1.9437128623	 1.6770889573	 0.277017
H	 1.6917542629	-1.8844437381	-1.1543457278	 0.103197
H	 3.2840942287	-1.4393528214	-0.5202214222	 0.123393
H	 2.6063415746	-3.0300225993	-0.1565588946	 0.122147
53.3048	61.0526	111.2871	154.8658	191.5049	209.9621	242.7462	253.9246	268.8533	287.6749	299.6002	379.3844	433.0234	500.8891	533.9151	591.9208	725.5882	751.5183	834.8886	848.8997	913.1371	953.0061	1015.2639	1040.8471	1066.062	1076.9723	1088.7753	1131.6844	1139.944	1148.1094	1166.6703	1188.425	1201.7276	1266.2056	1285.0734	1327.8537	1337.3908	1350.8374	1402.7792	1405.4905	1413.0589	1419.3075	1444.7893	1462.8526	1475.1387	1489.6533	1493.6474	1497.1613	1499.7925	1505.3129	1507.2665	2992.0509	3026.0517	3032.6275	3041.7302	3045.0187	3061.5205	3071.8863	3079.1926	3086.5384	3092.6666	3101.3127	3106.0573	3108.4071	3119.7336	3795.1849
CCC1C(C(C)O)N1C	CC[C@H]1[C@@H]([C@@H](C)O)N1C	
InChI=1S/C7H15NO/c1-4-6-7(5(2)9)8(6)3/h5-7,9H,4H2,1-3H3	InChI=1S/C7H15NO/c1-4-6-7(5(2)9)8(6)3/h5-7,9H,4H2,1-3H3/t5-,6+,7-,8?/m1/s1
