20
gdb 90784	3.82132	1.3427	1.23462	2.2305	77.72	-0.2145	0.0761	0.2906	1081.9949	0.172126	-403.10805	-403.100232	-403.099288	-403.139779	31.911	
C	-0.0190851155	 1.5499896627	 0.0232163265	-0.39697
C	 0.0029365219	 0.0241623144	-0.0089092316	 0.060968
C	 0.7846468406	-0.539005824	-1.2435262142	-0.26836
C	 2.1151680194	-0.9447139807	-0.6219538445	-0.11621
C	 2.1623359014	-0.4826084537	 0.8161032845	-0.101789
N	 0.7146100307	-0.4926102521	 1.1869711799	-0.119049
C	 0.7301365947	-2.0044963794	 1.1569833394	-0.250367
C	 2.1151065562	-1.9547589587	 0.5289866818	 0.366287
O	 3.1292197209	-2.8740709267	 0.7159049561	-0.463922
H	 0.9990655004	 1.9545048061	-0.0098306455	 0.117956
H	-0.565419151	 1.949306978	-0.8372986349	 0.109357
H	-0.4955198688	 1.9076694038	 0.9398365639	 0.122818
H	-1.0244407748	-0.353312883	 0.0211171934	 0.073209
H	 0.2626029473	-1.3830011833	-1.7070585494	 0.09434
H	 0.922641073	 0.2195068743	-2.0209705037	 0.099254
H	 3.0344524103	-0.9257889814	-1.1972506613	 0.088096
H	 2.8940382646	 0.1578549258	 1.2899264639	 0.095737
H	 0.7482968725	-2.405071341	 2.1747660228	 0.112757
H	-0.09195194	-2.4679130802	 0.5969679772	 0.089552
H	 3.0785195361	-3.5304071909	 0.0123197456	 0.286335
132.3387	209.1601	248.8125	290.5827	308.0182	333.0616	392.2509	452.1219	472.2429	613.231	675.4997	734.918	751.1606	803.9683	847.1389	866.8607	917.2708	919.6819	962.0127	963.697	999.4452	1009.6172	1044.3335	1062.7728	1083.386	1108.7004	1137.4753	1167.1795	1191.1241	1225.487	1238.0127	1250.5623	1265.1614	1300.7063	1321.4939	1326.4721	1369.989	1407.6445	1449.761	1487.9827	1494.9492	1500.2163	1515.8379	3019.773	3032.3278	3038.015	3053.6982	3077.0049	3085.5603	3100.0454	3118.7918	3177.925	3203.3478	3795.9423
CC1CC2C3N1CC23O	C[C@H]1C[C@H]2[C@H]3N1C[C@@]23O	
InChI=1S/C7H11NO/c1-4-2-5-6-7(5,9)3-8(4)6/h4-6,9H,2-3H2,1H3	InChI=1S/C7H11NO/c1-4-2-5-6-7(5,9)3-8(4)6/h4-6,9H,2-3H2,1H3/t4-,5-,6+,7+/m0/s1
