13
gdb 131222	5.46785	1.2835	1.03949	5.1926	67.	-0.1985	0.0041	0.2026	1033.9292	0.092218	-448.9281	-448.921188	-448.920243	-448.959122	26.717	
O	 0.0812329221	 1.3131173568	 0.2197910392	-0.424021
C	 0.0687921176	-0.018133419	-0.0004173165	 0.433675
C	 0.083825594	-0.7544540691	-1.1728887173	-0.489871
C	 0.0573047231	-2.1096411298	-0.7259839739	 0.384637
C	 0.0281591277	-2.1278073151	 0.6608629938	 0.365561
N	 0.0352027734	-0.8226995711	 1.1142127107	-0.432664
N	 0.0019989951	-3.3820415311	 1.1467709325	-0.305382
N	 0.0133330076	-4.1910122788	 0.1152434811	-0.142131
N	 0.0467308246	-3.430498472	-1.0264143695	-0.359805
H	 0.1045304391	 1.768000655	-0.6280096151	 0.314135
H	 0.1097016028	-0.3558600195	-2.173540142	 0.103483
H	 0.0201940901	-0.4896423432	 2.0619152646	 0.279456
H	 0.0591787727	-3.9035505429	-1.9134789976	 0.272928
158.9183	245.192	288.9861	333.5893	335.9291	384.7452	476.7191	532.6921	566.6502	655.021	682.8029	689.1541	760.0389	782.1528	855.3124	988.9079	1008.7607	1030.1136	1157.3966	1192.7423	1218.4531	1243.9242	1283.3614	1381.3329	1481.5825	1519.3804	1533.819	1585.6535	1625.5399	3260.7291	3683.2659	3692.5093	3843.7666
OC1=CC2=C(N1)N=NN2	Oc1cc2c([nH]1)nn[nH]2	
InChI=1S/C4H4N4O/c9-3-1-2-4(5-3)7-8-6-2/h1H,(H3,5,6,7,8,9)	InChI=1S/C4H4N4O/c9-3-1-2-4(5-3)7-8-6-2/h1H,(H3,5,6,7,8,9)
