13
gdb 129858	5.34564	1.29298	1.04336	6.6939	70.46	-0.2047	-0.0269	0.1778	1040.6785	0.091096	-448.907555	-448.900485	-448.89954	-448.938698	27.271	
N	 0.0980161538	 1.3653269339	 0.1314795976	-0.597212
C	-0.0159097266	-0.0135438629	 0.0189735484	 0.381237
C	-1.1551044139	-0.8127991939	 0.0074839783	-0.418803
C	-0.6584205304	-2.1404731954	 0.0034920493	 0.413502
C	 0.7204418022	-2.0990024666	 0.005089167	 0.287744
N	 1.137100562	-0.7792812016	-0.0199311385	-0.427605
N	 1.2076112059	-3.3494358615	-0.0527067495	-0.218146
N	 0.2592217042	-4.1841975882	-0.0680925238	-0.067402
O	-1.0408049097	-3.4025922412	-0.0441984262	-0.265079
H	 0.7454814806	 1.7834215691	-0.5258309665	 0.258455
H	-0.795923194	 1.8343841515	 0.0878723575	 0.263772
H	-2.1732845418	-0.4625817848	-0.0231253951	 0.114611
H	 2.0398279678	-0.4368544184	 0.2626231013	 0.274928
156.2694	234.6181	278.5902	313.5008	338.9394	395.175	421.626	548.2566	568.3372	633.3623	648.7531	701.8156	746.3891	764.0647	775.0553	859.629	976.9701	1008.4227	1102.6832	1199.4467	1224.1701	1284.9768	1385.2922	1455.0341	1491.2876	1536.4879	1563.8457	1597.6665	1657.469	3269.2019	3537.5522	3641.2153	3670.3578
NC1=CC2=C(N1)N=NO2	Nc1cc2c([nH]1)nno2	
InChI=1S/C4H4N4O/c5-3-1-2-4(6-3)7-8-9-2/h1,6H,5H2	InChI=1S/C4H4N4O/c5-3-1-2-4(6-3)7-8-9-2/h1,6H,5H2
