18
gdb 22576	3.71586	1.04852	0.87479	2.2626	75.97	-0.242	-0.0202	0.2218	1290.9323	0.148099	-439.084166	-439.075748	-439.074803	-439.117577	31.853	
O	-0.0105297961	 1.3800185075	-0.0086170814	-0.395335
N	 0.0788728759	-0.0204356997	-0.0009689836	-0.188559
C	-1.0639760906	-0.5905839704	-0.0030467627	 0.375691
C	-2.4116335309	 0.0855731479	 0.0172370687	-0.310311
C	-3.2802653739	-0.4602602871	 1.1770169094	-0.300093
C	-3.2993093338	-1.983871693	 1.2194416096	 0.386998
O	-4.3250152599	-2.6190248661	 1.2893547018	-0.302286
C	-1.9258350294	-2.6427185485	 1.1708933845	-0.299071
C	-1.0754398999	-2.0968257757	-0.0006228729	-0.287191
H	 0.9166214746	 1.6391866547	 0.0070375434	 0.308187
H	-2.2997830812	 1.1663776575	 0.0955582545	 0.141765
H	-2.9192032746	-0.1247363277	-0.9338552245	 0.125058
H	-2.8602428539	-0.1069133131	 2.1285190306	 0.127526
H	-4.3084279993	-0.0985074369	 1.1093500457	 0.123898
H	-1.4121282047	-2.4183928131	 2.1155427227	 0.125591
H	-2.0567575024	-3.7248631748	 1.1048435564	 0.123155
H	-1.5109356134	-2.4515052953	-0.9450602709	 0.119894
H	-0.0515108363	-2.4730493661	 0.0504541787	 0.125083
61.5283	125.3313	132.0588	278.1959	316.9487	366.9792	385.5533	414.3064	443.7792	494.7328	565.986	619.3221	714.0032	757.2244	758.4017	796.8941	920.0554	949.4815	976.6077	994.0486	1008.873	1094.8982	1102.8109	1147.3386	1207.1326	1231.8254	1238.1766	1277.8262	1312.2211	1326.2416	1353.4344	1361.4073	1416.1417	1462.9012	1474.0038	1478.7108	1491.0748	1738.9786	1820.0578	3014.3948	3021.333	3026.4258	3033.0872	3108.488	3112.3972	3113.8436	3139.0936	3823.5065
ON=C1CCC(=O)CC1	ON=C1CCC(=O)CC1	
InChI=1S/C6H9NO2/c8-6-3-1-5(7-9)2-4-6/h9H,1-4H2	InChI=1S/C6H9NO2/c8-6-3-1-5(7-9)2-4-6/h9H,1-4H2
