17
gdb 36026	1.92133	1.59589	1.0318	4.7565	76.95	-0.2626	0.0219	0.2844	1178.7166	0.134522	-380.820537	-380.811278	-380.810334	-380.855517	33.509	
C	-1.5532187671	 0.0727172643	 0.3413289434	-0.43504
C	-0.8525470118	 0.9597899057	-0.0645221262	 0.314591
C	-0.0102885615	 2.0630106729	-0.517690825	-0.449497
C	 1.419322188	 2.0214299613	 0.0324567926	 0.325131
C	 2.4074651601	 1.1078404582	-0.6903780937	-0.389497
C	 2.0560863982	-0.3137221709	-0.6876368952	 0.277366
N	 1.81151218	-1.4424522125	-0.7067632944	-0.30911
C	 1.9580490979	 3.2631592582	 0.6505447899	-0.286982
N	 1.6205042771	 2.0941111192	 1.4788560202	-0.32384
H	-2.1533606989	-0.7352487974	 0.6804012213	 0.207344
H	 0.0220961238	 2.0818661976	-1.6148739083	 0.139988
H	-0.4746021131	 3.0099434212	-0.2157134001	 0.134851
H	 2.5181790282	 1.4321086407	-1.7324223598	 0.148615
H	 3.3863794677	 1.2109842328	-0.2125627599	 0.161013
H	 3.0192376217	 3.4912452583	 0.5919496487	 0.122756
H	 1.3121101902	 4.1368417412	 0.6771502974	 0.119443
H	 0.7314212194	 2.2196821492	 1.956548909	 0.242866
34.5227	70.9987	119.2172	154.6351	314.0077	334.0605	337.5916	355.1097	386.6337	389.4458	520.6092	549.9414	638.3476	660.5253	769.4843	859.703	889.1947	907.4751	922.1693	961.1507	989.1059	992.6597	1006.2548	1084.234	1146.4184	1203.6297	1226.8622	1251.1286	1317.8778	1331.5959	1358.165	1407.3346	1450.3281	1467.0588	1516.4686	2242.8909	2365.2752	3020.2175	3041.5418	3053.4734	3094.0652	3105.4822	3189.1802	3505.3815	3506.9877
C#CCC1(CC#N)CN1	C#CC[C@@]1(CC#N)CN1	
InChI=1S/C7H8N2/c1-2-3-7(4-5-8)6-9-7/h1,9H,3-4,6H2	InChI=1S/C7H8N2/c1-2-3-7(4-5-8)6-9-7/h1,9H,3-4,6H2/t7-/m1/s1
