25
gdb 118146	3.78494	0.74147	0.69935	1.5347	89.57	-0.2402	0.0815	0.3217	1774.9128	0.227949	-389.483537	-389.472805	-389.471861	-389.52047	38.677	
C	-0.0716808384	 1.6111408706	-0.019348115	-0.37866
C	 0.0118390352	 0.0857263049	 0.0936275181	-0.179703
C	-1.3670003181	-0.5836303133	 0.0532046927	-0.156508
C	-1.3550379405	-2.1263172601	 0.0476705169	-0.006926
C	-0.7355091718	-2.7084614142	 1.3254921685	-0.403769
C	-2.7781861093	-2.6353240285	-0.1937490429	 0.165217
C	-3.0953512326	-4.1496300342	-0.1814628241	-0.315251
C	-4.0990517223	-3.7840058562	 0.9288669484	-0.054141
O	-3.6601818416	-2.4105220925	 0.9386715923	-0.295691
H	 0.9216305038	 2.069864685	 0.0134389239	 0.108842
H	-0.548213043	 1.9139743947	-0.9584787034	 0.112252
H	-0.6620043542	 2.0356442543	 0.800319854	 0.115416
H	 0.6309052699	-0.3087630913	-0.7238764119	 0.089904
H	 0.5318358893	-0.1754833086	 1.0225739994	 0.099195
H	-1.9700299307	-0.2403942177	 0.9041962436	 0.110833
H	-1.8929989557	-0.2375720786	-0.8476139273	 0.085591
H	-0.762058512	-2.4594506191	-0.8188750144	 0.067066
H	-0.6874084539	-3.8012261671	 1.2944684514	 0.106934
H	 0.2859649864	-2.3484840304	 1.4707481602	 0.114406
H	-1.3292889441	-2.4215945085	 2.1982943633	 0.130909
H	-3.1828829591	-2.1359724314	-1.087046289	 0.065273
H	-3.5205507269	-4.5493977426	-1.1032593686	 0.106815
H	-2.2737408494	-4.7915597624	 0.1391916359	 0.110711
H	-5.1560370713	-3.8713241957	 0.6453775202	 0.098847
H	-3.9532617598	-4.2673436973	 1.9020572477	 0.102438
54.8321	56.5673	72.9547	104.6886	149.9587	218.8805	245.3274	265.4989	299.5975	313.9104	357.6396	489.2964	601.1812	723.0668	743.9682	802.8209	839.7865	865.4742	879.5078	922.894	945.101	973.0322	1000.0781	1010.5104	1027.9178	1054.2772	1063.3992	1107.6675	1128.4825	1154.4296	1174.0311	1198.3946	1216.3421	1251.7167	1256.2104	1278.0959	1302.7159	1328.5281	1342.0803	1348.2276	1376.0396	1388.4387	1395.7744	1410.1072	1421.7543	1481.9429	1486.3557	1493.7652	1499.242	1506.939	1508.3084	1512.2299	1531.07	2977.2301	2987.6762	3005.9229	3011.8071	3014.7524	3028.3573	3041.6305	3046.3268	3053.3303	3062.4695	3083.0443	3096.049	3100.2301	3108.9053	3123.2243	3135.9636
CCCC(C)C1CCO1	CCC[C@@H](C)[C@H]1CCO1	
InChI=1S/C8H16O/c1-3-4-7(2)8-5-6-9-8/h7-8H,3-6H2,1-2H3	InChI=1S/C8H16O/c1-3-4-7(2)8-5-6-9-8/h7-8H,3-6H2,1-2H3/t7-,8-/m1/s1
