16
gdb 126868	4.69124	0.98396	0.85068	1.7232	81.25	-0.2337	-0.0675	0.1662	1340.0626	0.124701	-430.189438	-430.181035	-430.180091	-430.224405	29.786	
C	-0.0049149176	 1.5489282472	-0.007345172	-0.362029
C	-0.0495509076	 0.0200724014	 0.0831175815	-0.14529
N	 0.5960139145	-0.4210959959	 1.3106923189	-0.298249
C	-0.032216907	-1.1350001471	 2.1588555018	 0.35321
C	 0.6151129266	-1.5464282722	 3.3981975071	 0.002653
N	 0.0975182027	-2.410800807	 4.2019135578	-0.17646
N	-1.1040018574	-2.8920675535	 3.7963904925	-0.109875
N	-1.8778144441	-2.3998707578	 2.812338113	-0.046561
N	-1.3934333128	-1.5527334128	 2.0117532925	-0.248508
H	 1.0220553155	 1.9117798694	 0.091194158	 0.124535
H	-0.4053472427	 1.885249866	-0.9687110857	 0.111922
H	-0.6031027951	 2.0024477418	 0.7890394842	 0.118951
H	-1.0796766146	-0.3388756489	-0.0149449191	 0.121076
H	 0.5312085608	-0.3992646983	-0.7494101461	 0.10859
H	 1.5703249466	-1.1106536055	 3.6733136903	 0.150041
H	-1.5888979778	-3.4848359968	 4.4514358752	 0.295994
19.7467	54.738	140.4937	194.8425	273.2297	339.2997	420.6051	472.5349	501.541	593.8002	603.2565	670.0692	761.8115	798.911	820.1579	911.1559	951.2213	976.457	1038.5192	1071.0455	1109.6396	1124.078	1161.6118	1263.6403	1294.6465	1350.1707	1374.3181	1402.6148	1410.9667	1487.934	1492.7761	1508.6745	1573.5858	1657.8018	1717.2834	3014.2716	3039.4306	3067.2247	3111.2656	3120.2746	3190.8278	3651.0399
CCN=C1C=NNN=N1	CC[N]c1cn[nH]nn1	
InChI=1S/C4H7N5/c1-2-5-4-3-6-8-9-7-4/h3H,2H2,1H3,(H,5,7,8)	InChI=1S/C4H12N5/c1-2-5-4-3-6-8-9-7-4/h4,6-9H,2-3H2,1H3
