16
gdb 24026	4.4354	1.04765	0.86657	1.83	82.83	-0.252	-0.0233	0.2287	1280.2673	0.125611	-363.637215	-363.629421	-363.628477	-363.670659	29.256	
C	-0.2447506558	-1.0447284569	-0.8258882289	-0.436879
C	-0.0821694195	-0.0011394566	-0.2527335438	 0.297504
C	 0.1136054721	 1.2724094368	 0.4298673834	-0.463529
C	 1.4716294144	 1.9197231345	 0.199335922	 0.253716
C	 1.9862112499	 2.8060907523	 1.1488593753	-0.052073
N	 3.1437696222	 3.4555814185	 1.0257993447	-0.265749
C	 3.8534361871	 3.2335891312	-0.0841017041	 0.001834
C	 3.4430719864	 2.3666986599	-1.0921058608	-0.117776
C	 2.2324564649	 1.6983507086	-0.9462206077	-0.148233
H	-0.3928858101	-1.9729450728	-1.3199769246	 0.200676
H	-0.6750201318	 1.9688380798	 0.1101507959	 0.153199
H	-0.0383043082	 1.135541072	 1.5077362088	 0.146311
H	 1.4277021472	 2.9972180235	 2.0646333239	 0.100432
H	 4.7949785196	 3.7710804653	-0.1674793996	 0.108768
H	 4.0612841221	 2.215770858	-1.9702917956	 0.102866
H	 1.8816602095	 1.0050992961	-1.7033011388	 0.118932
23.7818	119.7	209.3488	308.3153	326.6409	411.0977	424.7825	469.5263	616.3954	620.9071	646.8032	660.4422	738.6384	803.6819	827.0303	930.2647	962.2514	969.6468	995.2059	1005.8612	1040.1255	1067.7896	1142.4133	1205.0989	1228.5442	1240.4479	1289.9525	1324.2676	1374.4926	1457.8696	1462.4724	1511.9265	1614.7613	1633.2185	2241.2185	3006.2147	3046.5938	3131.2585	3156.5279	3185.4809	3200.4811	3505.2369
C#CCC1=CN=CC=C1	C#CCc1cnccc1	
InChI=1S/C8H7N/c1-2-4-8-5-3-6-9-7-8/h1,3,5-7H,4H2	InChI=1S/C8H7N/c1-2-4-8-5-3-6-9-7-8/h1,3,5-7H,4H2
