22
gdb 93899	2.82397	1.46242	1.16711	0.4752	81.92	-0.2154	0.0882	0.3036	1156.7666	0.195232	-404.327694	-404.319028	-404.318084	-404.360767	34.124	
C	-0.6647236632	 0.9844559402	-1.5321816523	-0.402906
C	-0.1898805314	-0.3583976909	-0.995507456	 0.098327
O	 0.7869552485	-0.8733265586	-1.8904151184	-0.254092
C	 1.2048095791	-2.1640550585	-1.4810909235	-0.094952
C	 2.026490905	-2.1199075861	-0.1770568773	 0.044186
C	 3.5186500766	-1.9000239747	-0.4313018238	-0.393044
N	 1.5008821814	-1.1359910035	 0.7965816414	-0.112582
C	 1.7531964884	 0.2912049756	 0.5774205591	-0.250742
C	 0.3864809677	-0.2641726692	 0.4094443451	-0.012568
H	 0.1665864347	 1.6929103268	-1.5826847437	 0.125766
H	-1.0817128419	 0.8648743831	-2.5359441951	 0.123357
H	-1.4382842247	 1.4035090436	-0.8814239426	 0.117132
H	-1.0443733549	-1.0589009563	-0.9719543917	 0.065426
H	 0.3203602783	-2.8082285143	-1.3484261507	 0.087035
H	 1.801753963	-2.5789632454	-2.299375484	 0.10414
H	 1.9132368275	-3.0988291031	 0.3076406655	 0.080819
H	 3.6960403915	-1.0164314696	-1.0517225177	 0.124575
H	 4.0543747613	-1.7716127452	 0.5135526689	 0.124506
H	 3.9429292675	-2.7647652257	-0.9513572518	 0.111746
H	 2.0203731968	 0.8556811505	 1.467314028	 0.107653
H	 2.2643234916	 0.5981215754	-0.3307980775	 0.121239
H	-0.356330123	-0.1120025242	 1.1920206081	 0.084978
57.788	202.6021	216.1146	246.0315	267.0727	299.6465	326.6675	359.5002	416.5907	477.4274	547.1025	633.4803	689.0069	747.2914	775.6289	856.8125	868.957	919.0432	951.3568	990.0708	1002.4409	1013.9387	1073.0943	1080.0195	1113.3772	1122.0341	1142.288	1154.6003	1163.2658	1171.6812	1196.1272	1288.9829	1315.6519	1341.5773	1366.5242	1371.431	1378.2639	1393.7532	1408.7087	1410.1457	1424.9451	1483.5114	1490.3926	1493.8994	1498.6229	1500.2114	1507.7259	2936.3299	2968.5119	3008.1161	3039.222	3044.0428	3075.6804	3102.3086	3106.8181	3109.2019	3117.8568	3118.3309	3124.2858	3190.953
CC1OCC(C)N2CC12	C[C@H]1OC[C@@H](C)N2C[C@@H]12	
InChI=1S/C7H13NO/c1-5-4-9-6(2)7-3-8(5)7/h5-7H,3-4H2,1-2H3	InChI=1S/C7H13NO/c1-5-4-9-6(2)7-3-8(5)7/h5-7H,3-4H2,1-2H3/t5-,6-,7+,8?/m1/s1
