16
gdb 73770	2.14889	1.97405	1.11094	5.4306	74.16	-0.2176	-0.0386	0.179	1060.7429	0.123929	-437.900331	-437.891954	-437.89101	-437.933173	31.315	
C	 0.0160700499	 1.5520486064	-0.0429097077	-0.533523
C	-0.0176086205	 0.0579683107	 0.0402019582	 0.092351
C	-1.1099556905	-0.7554372917	 0.0636237064	 0.292565
N	-2.4232883678	-0.4035557508	 0.1088795404	-0.59562
C	-0.7071038836	-2.2055070274	 0.0463587478	-0.070665
O	-0.0124691684	-2.5712706015	-1.1586881441	-0.248536
C	 0.7513686811	-2.2274944944	 0.0162395496	-0.088037
C	 1.2001680636	-0.7608708663	 0.0391782137	 0.352453
O	 2.3529014925	-0.3816503814	 0.0592262001	-0.354139
H	 1.0538254094	 1.8773738325	-0.1536279538	 0.15716
H	-0.553686541	 1.9365418673	-0.89921901	 0.116712
H	-0.3873961024	 2.0277533872	 0.859819441	 0.124663
H	-2.6686645365	 0.5562920244	-0.0772685143	 0.266831
H	-3.1132459766	-1.0821845424	-0.1704307084	 0.265907
H	-1.3256243487	-2.9734997857	 0.5021003082	 0.107765
H	 1.3710470095	-3.0125264068	 0.4369474328	 0.114112
100.2805	126.6734	213.6341	219.6466	232.0763	315.1071	394.3113	403.7543	478.049	495.6192	567.2378	652.161	682.5223	701.6724	795.062	837.4446	876.2289	907.695	969.538	1021.9723	1056.9646	1075.1524	1107.916	1217.7404	1233.4843	1265.4913	1312.369	1378.843	1401.8195	1441.3827	1490.0628	1495.9147	1640.9303	1688.1141	1796.947	3010.5274	3056.7882	3117.626	3157.6969	3179.4475	3585.4988	3697.2749
CC1=C(N)C2OC2C1=O	CC1=C(N)[C@H]2O[C@H]2C1=O	
InChI=1S/C6H7NO2/c1-2-3(7)5-6(9-5)4(2)8/h5-6H,7H2,1H3	InChI=1S/C6H7NO2/c1-2-3(7)5-6(9-5)4(2)8/h5-6H,7H2,1H3/t5-,6+/m1/s1
