17
gdb 99210	4.04107	0.8229	0.80899	3.0886	65.82	-0.2711	-0.0323	0.2388	1471.0993	0.132114	-496.146153	-496.136053	-496.135108	-496.183059	34.151	
C	 0.0088047892	 1.2284266738	-0.2243860934	-0.482468
C	 0.2308005372	-0.253885481	-0.3602861615	 0.449188
O	 1.277210711	-0.8348440942	-0.235916924	-0.354858
O	-0.9364815704	-0.8881002561	-0.6536246084	-0.223018
C	-0.8104775324	-2.2797247359	-0.8948965239	-0.18444
C	-0.175477365	-2.5755090851	-2.2476674059	 0.358212
O	-0.0017688254	-1.7239612396	-3.0880161805	-0.312088
C	 0.2377168821	-4.0134934066	-2.5219640133	-0.135896
O	 0.6516937527	-4.1782304038	-3.8443118147	-0.416659
H	 0.9102876623	 1.6963628802	 0.1687828017	 0.152037
H	-0.22166076	 1.646222132	-1.2091946227	 0.165031
H	-0.8447338139	 1.431866579	 0.4266940615	 0.150175
H	-0.2321808066	-2.7675959564	-0.1037393468	 0.147431
H	-1.8285517776	-2.6825074307	-0.8876535347	 0.146364
H	 1.0406060564	-4.2613392935	-1.8049766984	 0.12817
H	-0.6031942295	-4.6859775205	-2.2889294129	 0.115896
H	 0.6975850099	-3.2810874417	-4.2110937521	 0.296922
30.1055	68.7985	78.6046	99.1429	111.3245	226.3499	295.1687	322.3868	351.8667	391.3532	459.1938	472.7613	600.5161	645.1789	716.5301	808.1235	877.9628	908.7442	994.6896	1043.8577	1064.9451	1085.7239	1126.696	1151.1977	1244.2617	1251.7762	1303.2175	1318.3639	1391.2296	1401.0952	1447.0032	1453.9784	1469.4732	1475.1356	1490.895	1813.0188	1834.3967	2959.7688	2996.2894	3053.9626	3059.537	3103.5047	3126.7823	3172.1225	3694.2739
CC(=O)OCC(=O)CO	CC(=O)OCC(=O)CO	
InChI=1S/C5H8O4/c1-4(7)9-3-5(8)2-6/h6H,2-3H2,1H3	InChI=1S/C5H8O4/c1-4(7)9-3-5(8)2-6/h6H,2-3H2,1H3
