16
gdb 44469	4.26118	1.40605	1.27585	2.4356	68.77	-0.2532	-0.0056	0.2476	978.2337	0.126268	-437.816492	-437.810122	-437.809178	-437.847172	26.312	
O	 0.0742733135	 0.0251865467	 0.1047584273	-0.301907
C	-0.0303944493	 1.2055649481	-0.0026508175	 0.398133
C	-1.3615193016	 2.0362553784	-0.0847322132	-0.439207
C	-0.8327943275	 3.3463681126	-0.6517664777	 0.028146
N	-0.6743718107	 4.8044779902	-0.064100571	-0.171106
C	 0.0172221879	 4.1322313974	 1.1280436856	-0.230847
C	 0.5562567968	 3.353583613	-0.0881573866	 0.36481
C	 0.7284095567	 4.7389777405	-0.7465442516	-0.238287
O	 1.0834795105	 2.0420315545	-0.0586648047	-0.279477
H	-2.0716871756	 1.5111239775	-0.7239119464	 0.146719
H	-1.7895568617	 2.0774279155	 0.9196705839	 0.15579
H	-0.9349968777	 3.3934101606	-1.7376513687	 0.095675
H	 0.7036339835	 4.7938479595	 1.6590249561	 0.113549
H	-0.6678582858	 3.641157523	 1.8189684113	 0.114587
H	 0.6908227386	 4.7989959001	-1.8353349262	 0.123073
H	 1.4371129524	 5.4461254324	-0.3121882306	 0.12035
114.7334	321.5075	333.0494	427.4229	481.3321	526.6476	558.0557	597.1841	675.2044	696.9909	733.916	792.7178	809.5751	881.812	910.4422	949.9923	987.5739	1022.4338	1028.7293	1056.6435	1089.6044	1132.1745	1152.868	1164.3819	1179.3893	1186.494	1214.4626	1239.7918	1248.8533	1294.3303	1404.4594	1459.6937	1512.6717	1554.8142	1903.5496	3074.9038	3079.7598	3089.2593	3091.8503	3140.5385	3151.4092	3154.0002
O=C1CC2N3CC2(C3)O1	O=C1C[C@H]2N3C[C@@]2(C3)O1	
InChI=1S/C6H7NO2/c8-5-1-4-6(9-5)2-7(4)3-6/h4H,1-3H2	InChI=1S/C6H7NO2/c8-5-1-4-6(9-5)2-7(4)3-6/h4H,1-3H2/t4-/m1/s1
