17
gdb 80258	2.22983	2.0042	1.56131	2.9891	71.76	-0.2229	-0.0178	0.2051	921.2137	0.137588	-421.849511	-421.842376	-421.841432	-421.880761	28.992	
O	-0.0678791486	 1.4123939088	 0.030790609	-0.442185
C	 0.0041011152	 0.0064265228	-0.0280188614	 0.137215
C	-1.3777622404	-0.6050541824	-0.3816789235	-0.090089
C	-1.6248516231	 0.0205366769	-1.7826293998	-0.323401
C	-0.210810719	-0.0121696861	-2.3952754398	 0.446462
O	 0.1181970637	 0.3296230599	-3.4980573964	-0.331707
C	 0.708975596	-0.5814178871	-1.2840956558	-0.216893
C	 0.2737826705	-2.0326488799	-1.1519294859	-0.095075
C	-0.9500500146	-2.0471362211	-0.6094850891	-0.08192
H	 0.8214251245	 1.7616160477	 0.1458378427	 0.290671
H	 0.4126988124	-0.4248973085	 0.8948607111	 0.075951
H	-2.1712990478	-0.4358204162	 0.3454879577	 0.076349
H	-2.3434048637	-0.5303254467	-2.3920933278	 0.122582
H	-1.9459760869	 1.0633717169	-1.7174104888	 0.141113
H	 1.7689405986	-0.3846587468	-1.4390451482	 0.073786
H	 0.851524336	-2.8738470187	-1.5112571645	 0.112149
H	-1.5754194328	-2.9118358694	-0.4285222893	 0.104992
117.6524	242.4497	270.1044	327.4674	351.7727	430.7387	490.6334	540.3014	611.6558	624.9419	712.7919	759.3758	783.0748	819.9384	879.7992	891.1681	937.9745	955.092	984.2046	1002.6003	1008.8518	1068.8165	1118.6913	1124.9577	1133.5268	1166.5313	1203.8728	1227.6292	1250.9472	1277.6961	1304.5218	1320.2157	1357.7227	1408.0649	1452.0339	1636.8065	1859.5035	3025.5001	3076.0311	3119.6316	3128.2747	3130.322	3206.0174	3230.3626	3823.8586
OC1C2CC(=O)C1C=C2	O[C@H]1[C@H]2CC(=O)[C@@H]1C=C2	
InChI=1S/C7H8O2/c8-6-3-4-1-2-5(6)7(4)9/h1-2,4-5,7,9H,3H2	InChI=1S/C7H8O2/c8-6-3-4-1-2-5(6)7(4)9/h1-2,4-5,7,9H,3H2/t4-,5+,7+/m1/s1
