19
gdb 72286	3.15575	1.61801	1.36885	2.5121	74.94	-0.2239	0.0786	0.3024	1004.7808	0.16047	-422.988911	-422.981443	-422.980499	-423.020432	29.877	
C	-0.0457850424	 1.5262410669	-0.076795735	-0.491632
C	-0.0688947227	 0.034443603	-0.0182503899	 0.465521
O	 0.6594756709	-0.6679916945	-1.0331553302	-0.326775
C	-0.3062915951	-1.7583461304	-0.9827339596	 0.086497
C	 0.3463281583	-3.0228314859	-0.4364930133	-0.09266
O	 1.1879300767	-2.7355825038	 0.6606689863	-0.241304
C	 0.6107880616	-1.9585667349	 1.6958719105	-0.094177
C	-0.2609679482	-0.8067651644	 1.2270449523	-0.121204
C	-1.1698937991	-1.0003062059	 0.0332127497	-0.230414
H	 0.9681698137	 1.9005387658	 0.1038461488	 0.134824
H	-0.367803267	 1.8807085574	-1.0609392697	 0.129195
H	-0.7051786039	 1.9534257988	 0.6841127689	 0.12241
H	-0.7693668187	-1.9231579177	-1.9604978806	 0.081849
H	-0.4454642785	-3.747615978	-0.1749228567	 0.085396
H	 0.9958160698	-3.4836092506	-1.1871768723	 0.114452
H	-0.0059239204	-2.599058219	 2.352208827	 0.085196
H	 1.4562856094	-1.5967300189	 2.2909094424	 0.11197
H	-0.7197803515	-0.254615758	 2.0446502177	 0.089254
H	-2.2489058129	-0.9178836098	 0.0374009637	 0.091601
168.6526	194.9584	221.1627	255.7931	279.7378	385.9149	427.2851	493.339	623.9957	673.7289	726.9516	744.4007	826.7384	859.7365	880.8888	903.2521	915.9919	974.8023	986.3288	1025.3147	1031.8514	1064.5	1075.6616	1110.8194	1119.8626	1170.5641	1192.2528	1248.025	1256.2055	1293.7032	1301.4049	1329.2549	1335.4853	1387.1909	1406.84	1426.7369	1473.2413	1480.7004	1487.5331	1501.813	1504.5172	2938.2629	2952.1728	3033.7973	3060.2873	3061.3516	3080.5508	3098.1136	3116.3842	3137.399	3192.5557
CC12OC3COCC1C23	C[C@@]12O[C@H]3COC[C@@H]1[C@@H]23	
InChI=1S/C7H10O2/c1-7-4-2-8-3-5(9-7)6(4)7/h4-6H,2-3H2,1H3	InChI=1S/C7H10O2/c1-7-4-2-8-3-5(9-7)6(4)7/h4-6H,2-3H2,1H3/t4-,5+,6-,7-/m1/s1
