20
gdb 61850	3.14005	0.92272	0.76365	2.8307	77.82	-0.252	0.0198	0.2718	1498.6858	0.169495	-440.259307	-440.249512	-440.248568	-440.295679	34.031	
C	 0.0736450278	 1.5113656937	-0.0694341445	-0.40203
C	 0.0151605851	-0.0113643434	 0.0157916807	 0.095927
O	 0.6874054684	-0.4644410676	 1.2035122096	-0.194621
C	 2.0148374946	-0.674871076	 1.1236851566	 0.124994
N	 2.6778423347	-0.9472267187	 2.162444183	-0.441832
C	-1.4036931433	-0.5513982007	 0.1005021062	-0.028562
C	-2.2200576672	-0.52015407	-1.2115702589	-0.091402
O	-2.2310518712	-1.9572505037	-1.2944031905	-0.2717
C	-1.5505084231	-2.082073853	-0.0262989314	-0.087473
H	 1.1085370248	 1.8591617262	-0.1386957763	 0.124787
H	-0.4641966009	 1.8709880046	-0.9522381422	 0.125539
H	-0.3776740383	 1.9573056852	 0.8217819553	 0.136902
H	 0.5116555396	-0.4545985727	-0.8610384732	 0.086777
H	 2.409215148	-0.599417077	 0.0998282443	 0.084439
H	 3.6537896311	-1.1035688252	 1.9193249842	 0.228981
H	-1.9061303424	-0.1162439456	 0.9672601972	 0.092313
H	-3.2310020752	-0.1028979124	-1.1246123619	 0.104068
H	-1.723915263	-0.061219662	-2.0774377683	 0.098406
H	-0.613551785	-2.6454785195	-0.1110176022	 0.107009
H	-2.1820527445	-2.5573291222	 0.7333836023	 0.107478
40.9325	58.2217	87.9646	110.2798	160.0174	221.7617	238.8379	310.208	379.3722	431.0787	480.1726	627.7096	802.2969	817.7925	852.8643	886.297	903.3023	965.3652	995.9322	1006.5213	1042.7486	1043.6935	1077.2129	1093.5451	1130.0545	1133.0574	1153.7783	1165.021	1226.6691	1255.4374	1293.2528	1310.6474	1312.1203	1369.4914	1379.571	1406.3431	1409.3829	1428.6915	1487.2328	1495.2617	1512.2454	1537.3128	1744.2468	2988.0702	3002.3911	3011.3469	3023.0845	3040.7811	3044.5988	3062.7183	3089.9997	3113.8504	3120.7656	3518.0901
CC(OC=N)C1COC1	C[C@@H](O[CH][NH])C1COC1	
InChI=1S/C6H11NO2/c1-5(9-4-7)6-2-8-3-6/h4-7H,2-3H2,1H3	InChI=1S/C6H11NO2/c1-5(9-4-7)6-2-8-3-6/h4-7H,2-3H2,1H3/t5-/m1/s1
