17
gdb 40398	3.70161	1.29003	1.17128	3.0949	71.59	-0.2337	0.0491	0.2828	1082.3823	0.135063	-421.716988	-421.709641	-421.708697	-421.74914	28.861	
C	 0.2870105475	 1.4496864971	-0.109918429	-0.189443
O	 1.0899262906	 0.3027245098	-0.3770612384	-0.228147
C	-0.2685839096	 0.0967111425	 0.0334971292	-0.063626
C	-0.4764187851	-0.5363507464	 1.3500764477	 0.460187
O	-0.8975248819	-1.9141459082	 1.3823753929	-0.290359
C	-1.6852524346	-0.9338787128	 2.0719507122	-0.072447
C	-1.0190656386	-0.5962301294	 3.4425043964	-0.090826
C	 0.2593493838	-1.3686760447	 3.6302968012	-0.28449
C	 0.2461885694	-0.1915386538	 2.6940582862	-0.13965
H	 0.5625381395	 2.0210759828	 0.7749595592	 0.117213
H	 0.0107664791	 2.0463497892	-0.9782771703	 0.120003
H	-0.9263099992	-0.2841692446	-0.7473332521	 0.103239
H	-2.7356033133	-0.8624142274	 1.8149498571	 0.109568
H	-1.5267940397	-0.0714618465	 4.2402007868	 0.095737
H	 0.762105578	-1.183786383	 4.5741429374	 0.114059
H	 0.3531407154	-2.3750170791	 3.2435051267	 0.141011
H	 0.8621871388	 0.6855488144	 2.8356367367	 0.097972
71.2471	142.7174	174.638	356.1305	388.7351	426.4601	501.4927	582.1556	633.441	735.679	756.1805	806.246	840.3145	845.7881	890.122	919.5343	925.0611	950.0857	973.2442	1006.6438	1019.7271	1046.362	1057.8943	1095.6465	1102.9132	1153.4159	1164.1371	1172.1602	1187.9368	1261.4467	1266.4152	1297.2537	1307.1605	1378.2812	1460.6172	1493.4898	1533.0003	3084.6594	3120.1413	3143.3157	3170.8547	3186.2842	3205.0128	3214.0914	3237.5468
C1OC1C12OC1C1CC21	C1O[C@H]1[C@]12O[C@H]1[C@H]1C[C@@H]21	
InChI=1S/C7H8O2/c1-3-4(1)7(5-2-8-5)6(3)9-7/h3-6H,1-2H2	InChI=1S/C7H8O2/c1-3-4(1)7(5-2-8-5)6(3)9-7/h3-6H,1-2H2/t3-,4+,5+,6-,7-/m0/s1
