13
gdb 15033	2.61306	1.89356	1.23485	2.7906	58.81	-0.2822	-0.0597	0.2225	934.5455	0.093363	-398.584971	-398.577006	-398.576061	-398.618884	26.559	
O	-0.1920605253	 0.2517761128	 0.5147275144	-0.229834
C	-0.0368458916	 1.3276083807	 0.0096140196	 0.166737
C	 1.3627085626	 1.9681584882	-0.1190984568	-0.268743
C	 1.4332476515	 2.8552876957	-1.2759176366	 0.281679
N	 1.4696175269	 3.5441161031	-2.2026059505	-0.315937
C	 1.6734675821	 2.6832834712	 1.2022171145	 0.078229
C	 2.4282009706	 3.9375587977	 1.2810180409	-0.187085
O	 1.0030452944	 3.9110320406	 1.4348743896	-0.221189
H	-0.8773764245	 1.9484055178	-0.35785166	 0.128043
H	 2.0785640347	 1.147003526	-0.238678613	 0.158122
H	 1.6885433707	 1.9933601557	 2.0457010241	 0.128328
H	 2.9893821373	 4.160944755	 2.1860899169	 0.133087
H	 2.7850954205	 4.4092118356	 0.3684908269	 0.148562
31.8241	76.2373	139.5915	179.3583	214.0911	360.2045	394.4463	493.4193	536.5297	641.7732	769.1993	871.019	929.4091	962.3408	1000.3516	1031.7423	1094.1626	1114.0569	1166.6945	1174.0393	1226.8813	1279.5724	1314.8779	1412.2905	1414.0062	1523.2411	1839.2378	2363.8985	2947.4345	3062.6752	3100.0735	3121.4993	3195.5856
O=CC(C#N)C1CO1	O=C[C@@H](C#N)[C@H]1CO1	
InChI=1S/C5H5NO2/c6-1-4(2-7)5-3-8-5/h2,4-5H,3H2	InChI=1S/C5H5NO2/c6-1-4(2-7)5-3-8-5/h2,4-5H,3H2/t4-,5-/m1/s1
