16
gdb 9247	5.09717	0.78729	0.70765	2.9517	73.1	-0.2644	-0.0592	0.2051	1526.0105	0.127435	-383.715275	-383.705606	-383.704662	-383.751453	32.005	
C	 0.1130955438	 1.6051646969	-0.0283548015	-0.387593
C	 0.0336250376	 0.0644145092	-0.0123920954	-0.152301
C	 0.6675589607	-0.5549088655	-1.2709283745	-0.070043
O	-0.0696860132	-0.0831299314	-2.3846518322	-0.417882
C	 0.6459409294	-0.4895266283	 1.1885121571	 0.112633
C	 1.1808689871	-0.9510867069	 2.1692344592	 0.001868
C	 1.7855807223	-1.4788158909	 3.3637815172	 0.020683
O	 2.7028090576	-2.2681651209	 3.3795478008	-0.231392
H	 1.1555236884	 1.9361930835	 0.0057371242	 0.126433
H	-0.3426371535	 1.978505183	-0.9468948204	 0.144577
H	-0.4094766764	 2.0309096495	 0.8314370521	 0.126084
H	-1.0267072383	-0.2243505409	-0.0178788485	 0.127616
H	 1.7261588328	-0.2581524233	-1.32488067	 0.10232
H	 0.6299527409	-1.6509353844	-1.1941546947	 0.105456
H	 0.3396855936	-0.4217988526	-3.18584391	 0.294063
H	 1.3369656473	-1.0981262769	 4.3042757966	 0.097479
21.9828	71.848	95.449	150.1846	203.335	223.8391	231.6575	260.1607	336.8799	385.5524	475.8886	548.4734	641.3538	797.4559	877.6328	932.786	1016.0434	1022.8986	1083.9894	1097.5491	1131.691	1185.917	1238.5529	1262.2272	1324.2211	1335.8113	1398.8397	1423.0607	1454.1339	1493.0572	1501.0581	1522.2701	1766.1939	2325.7942	2914.849	2984.0695	3012.2742	3029.0602	3050.7919	3122.8436	3147.0332	3838.6304
CC(CO)C#CC=O	C[C@@H](CO)C#CC=O	
InChI=1S/C6H8O2/c1-6(5-8)3-2-4-7/h4,6,8H,5H2,1H3	InChI=1S/C6H8O2/c1-6(5-8)3-2-4-7/h4,6,8H,5H2,1H3/t6-/m1/s1
