22
gdb 53584	3.45615	0.83705	0.78267	1.5784	91.78	-0.2196	0.0478	0.2674	1602.918	0.190869	-367.164472	-367.153445	-367.152501	-367.201859	39.229	
C	 0.5777900507	 0.473690214	-1.2549944994	-0.498752
C	 0.1959816916	-0.5475531492	-0.2891013409	 0.036584
C	-0.1064132085	-1.3918691775	 0.516558655	 0.08255
C	-0.5101133623	-2.3848725636	 1.5174355314	-0.292278
N	-1.5488899756	-3.3655478767	 1.1629927149	-0.120634
C	-2.3123234126	-3.2346020936	-0.0744848992	-0.290388
C	-1.3556701297	-4.368292315	 0.1057876634	 0.345965
C	-0.0797670176	-4.4059409285	-0.7148368792	-0.468629
C	-1.8943137823	-5.7387626753	 0.4728118392	-0.431906
H	 1.6015166051	 0.8215675213	-1.077763131	 0.15018
H	 0.5338067682	 0.0895986887	-2.2800974498	 0.148393
H	-0.0829731418	 1.3457583207	-1.1987906506	 0.148749
H	 0.3702218281	-2.9430606277	 1.860013469	 0.129867
H	-0.8832799233	-1.8441928269	 2.3970461203	 0.134923
H	-3.3854798174	-3.3905991443	 0.0162170902	 0.102423
H	-2.0222459208	-2.4451775737	-0.7647034795	 0.114358
H	 0.2619535348	-3.4096047197	-0.9984537412	 0.136335
H	 0.7254616121	-4.8993255063	-0.1565964528	 0.113207
H	-0.2399396949	-4.9867920509	-1.6298744105	 0.116294
H	-2.1463510808	-6.3124053177	-0.4266217976	 0.109313
H	-1.1491602683	-6.3121496043	 1.0367721222	 0.111368
H	-2.7895441946	-5.6475710039	 1.0922193661	 0.122077
20.6652	56.2835	82.641	178.4441	195.6249	202.1841	213.432	256.9813	287.2487	360.6269	377.7258	390.2386	424.064	468.3471	570.426	697.2475	735.435	775.2593	891.3484	922.9403	961.4801	988.4612	1009.4726	1032.2202	1053.1229	1055.146	1109.9592	1135.1088	1143.6833	1145.5221	1193.4811	1271.5926	1297.7311	1350.4345	1391.005	1407.1851	1415.4043	1421.209	1469.8252	1477.7812	1479.7001	1480.9413	1488.5048	1500.3131	1507.075	1517.8906	2358.2442	3015.4736	3023.957	3027.1222	3029.5421	3045.4185	3080.1178	3086.5285	3087.7757	3088.201	3090.7676	3122.4198	3139.6144	3175.2463
CC#CCN1CC1(C)C	CC#CCN1CC1(C)C	
InChI=1S/C8H13N/c1-4-5-6-9-7-8(9,2)3/h6-7H2,1-3H3	InChI=1S/C8H13N/c1-4-5-6-9-7-8(9,2)3/h6-7H2,1-3H3
