19
gdb 111799	3.09423	1.45129	1.40087	1.7522	75.54	-0.2329	0.0083	0.2411	1030.0142	0.160724	-423.008463	-423.000813	-422.999869	-423.040703	29.921	
C	-0.108964121	 1.3402507919	-0.0357401261	-0.243047
O	 0.139478964	-0.0464549208	 0.0398225542	-0.252212
C	 0.6881061322	-0.5929956502	-1.1243757512	 0.162217
C	 0.940435956	-2.1169594935	-0.9706882483	-0.148466
C	-0.5404167332	-2.5733124844	-0.7986007743	-0.064937
O	-1.2723858658	-1.7205182939	-1.6871233013	-0.274976
C	-0.2936078429	-0.8440434802	-2.3014893437	 0.014741
C	 0.5910567697	-1.6787541049	-3.2048964581	-0.081187
C	 1.3283626973	-2.4505051618	-2.3944788295	-0.084869
H	 0.805050279	 1.9015862142	-0.2848728332	 0.104468
H	-0.8795345213	 1.5830583312	-0.7808966133	 0.114093
H	-0.4616190309	 1.6585394944	 0.9479074483	 0.12977
H	 1.5874312955	-0.0480885231	-1.4406321834	 0.069922
H	 1.6129235713	-2.4294086806	-0.1732462986	 0.07436
H	-0.6851025087	-3.6229958975	-1.0773782885	 0.093128
H	-0.8858812281	-2.4107901691	 0.2275804293	 0.111319
H	-0.8243920759	-0.0005986758	-2.7395398237	 0.072352
H	 0.5506824637	-1.694681161	-4.2863128305	 0.101885
H	 2.0208644992	-3.233748015	-2.6763268081	 0.101439
71.7471	170.7959	193.9661	288.4015	301.9909	373.7919	427.4656	517.6916	574.3827	687.1648	750.2423	809.0954	840.8625	868.8439	897.924	913.0844	939.9018	955.9064	980.4088	1007.4245	1016.3058	1035.9316	1058.8484	1127.5542	1156.2977	1177.0487	1182.3933	1206.9333	1232.31	1248.9773	1271.8914	1279.1252	1298.7824	1349.4159	1371.803	1382.2263	1480.9198	1490.0151	1505.7089	1510.8004	1632.2398	2979.9416	3023.4	3031.7156	3034.4524	3079.4957	3118.449	3132.0797	3138.8749	3199.8567	3224.9998
COC1C2COC1C=C2	CO[C@H]1[C@H]2CO[C@@H]1C=C2	
InChI=1S/C7H10O2/c1-8-7-5-2-3-6(7)9-4-5/h2-3,5-7H,4H2,1H3	InChI=1S/C7H10O2/c1-8-7-5-2-3-6(7)9-4-5/h2-3,5-7H,4H2,1H3/t5-,6-,7+/m1/s1
