17
gdb 64107	3.45823	1.26148	1.14589	4.8256	64.69	-0.285	0.0318	0.3168	1099.8563	0.135161	-496.143731	-496.135098	-496.134154	-496.177279	31.83	
C	-0.168848756	 1.5442618123	 0.0531100181	-0.422862
C	-0.0049034761	 0.0297022022	-0.0119759822	 0.299002
O	-1.3089973441	-0.5218745832	-0.1453131772	-0.470366
C	 0.8670075269	-0.408459749	-1.1816664888	-0.109105
O	 0.9419126682	-1.8428621996	-1.1975697886	-0.266961
C	 1.2612840807	-2.5135322898	-0.0580857506	 0.455906
O	 1.5785201893	-3.6625716779	-0.0960285936	-0.353651
O	 1.1698176759	-1.8504285752	 1.109796514	-0.263281
C	 0.6878497442	-0.4983542363	 1.2446622142	-0.076749
H	 0.7978399445	 2.0514193304	 0.1171501571	 0.12199
H	-0.695698468	 1.8950811214	-0.8378368607	 0.137965
H	-0.7664622763	 1.8198986812	 0.9266142999	 0.139539
H	-1.2273739855	-1.4208452277	-0.4849416054	 0.297918
H	 0.4234068168	-0.1298719818	-2.1395622528	 0.13504
H	 1.8756424262	 0.0166332101	-1.1146639553	 0.120997
H	 1.549597851	 0.1259909017	 1.5045327234	 0.117078
H	-0.0121693175	-0.5078623788	 2.0834226085	 0.137542
65.1545	90.8727	198.1996	217.5644	256.9159	317.9141	365.2788	389.2545	407.8168	502.3454	517.5574	593.0158	707.9263	768.22	809.2964	856.8985	899.9169	945.6014	977.5496	1026.269	1053.5698	1097.1445	1137.3705	1174.3781	1211.2222	1231.085	1288.6383	1315.268	1358.3836	1409.3789	1416.0787	1436.2179	1484.2336	1497.3826	1499.7187	1506.7844	1885.9227	3037.1777	3044.5085	3051.6785	3110.4463	3118.5715	3123.2963	3129.697	3797.3034
CC1(O)COC(=O)OC1	CC1(O)COC(=O)OC1	
InChI=1S/C5H8O4/c1-5(7)2-8-4(6)9-3-5/h7H,2-3H2,1H3	InChI=1S/C5H8O4/c1-5(7)2-8-4(6)9-3-5/h7H,2-3H2,1H3
