18
gdb 58397	2.17986	1.08256	0.7642	4.9358	73.4	-0.2629	-0.0369	0.2259	1450.4786	0.14417	-439.103996	-439.093567	-439.092623	-439.140505	35.852	
C	-0.1079622159	 1.5610177197	 0.1465013954	-0.41566
C	-0.0397760043	 0.0389617448	 0.024744219	 0.124443
O	-1.339007527	-0.5260360302	-0.0529859381	-0.42532
C	 0.6701278699	-0.4397245937	-1.2650751613	-0.1546
C	 2.1090292653	 0.1093639097	-1.4146740204	-0.306019
C	 2.8071256296	-0.3612124865	-2.6798628903	 0.151045
O	 3.3442130452	 0.3851009634	-3.4560064525	-0.235555
C	 0.6781607684	-1.9082542357	-1.2995162659	 0.295237
N	 0.7378098884	-3.0619403975	-1.3254631945	-0.330322
H	 0.8785921376	 2.0112255115	 0.285131658	 0.129323
H	-0.5792585212	 1.9995705531	-0.7388313393	 0.134173
H	-0.7136858944	 1.8295120795	 1.0183375933	 0.118605
H	 0.5116581685	-0.3740257901	 0.8843178604	 0.089107
H	-1.7891900264	-0.3773301197	 0.7842500647	 0.29222
H	 0.0602826879	-0.092556823	-2.1089038312	 0.144474
H	 2.10380025	 1.2002617528	-1.4273231157	 0.137091
H	 2.7089705454	-0.2269094415	-0.5575510087	 0.138517
H	 2.8006132429	-1.4599960267	-2.8421443829	 0.113241
51.4713	69.5508	76.2167	148.2668	162.8167	219.683	225.0185	260.3129	309.1172	374.2135	396.534	465.6563	498.753	551.2234	597.1142	819.0301	827.7356	891.5201	954.7658	999.7915	1066.0855	1078.5213	1100.3077	1119.6682	1141.4782	1207.1564	1242.0037	1297.6215	1324.8849	1336.1505	1377.2518	1411.226	1415.4741	1430.9747	1462.0557	1494.165	1497.4823	1834.3836	2358.9678	2916.5018	2978.178	3024.3523	3038.2549	3044.274	3105.6201	3121.1247	3131.7933	3828.6985
CC(O)C(CC=O)C#N	C[C@@H](O)[C@@H](CC=O)C#N	
InChI=1S/C6H9NO2/c1-5(9)6(4-7)2-3-8/h3,5-6,9H,2H2,1H3	InChI=1S/C6H9NO2/c1-5(9)6(4-7)2-3-8/h3,5-6,9H,2H2,1H3/t5-,6+/m1/s1
