19
gdb 122336	4.87939	0.79201	0.7188	2.0939	73.9	-0.2195	0.0551	0.2746	1584.1848	0.160871	-456.352664	-456.343646	-456.342702	-456.387538	32.47	
O	-0.0354361969	 1.446598717	-0.2180001671	-0.419369
C	-0.0258720974	 0.0449553028	-0.0266954332	-0.0705
C	-1.4256138914	-0.5285870626	 0.0871861278	-0.0707
O	-2.0769407042	-0.2505313557	-1.1673284209	-0.289383
C	-3.3460040788	-0.6592011614	-1.2656576223	 0.483997
N	-4.0151870458	-1.2729027135	-0.3689215861	-0.359837
C	-5.3339050745	-1.5206046779	-0.9717477051	-0.153982
C	-5.3872044945	-0.6356945928	-2.2517956602	-0.181429
N	-3.9545305692	-0.4139640287	-2.4909724347	-0.363568
H	-0.5884382224	 1.6117799745	-0.9892826185	 0.287827
H	 0.514052909	-0.4699382238	-0.8369883224	 0.096655
H	 0.512937651	-0.1457083082	 0.9070599287	 0.116249
H	-1.413507121	-1.6093088635	 0.2610374112	 0.122802
H	-1.9890839169	-0.0522387805	 0.8950283916	 0.129752
H	-5.4281311539	-2.5843651334	-1.2274382293	 0.108066
H	-6.1378804554	-1.2838756542	-0.2690516507	 0.108555
H	-5.8630450267	-1.1333577082	-3.1006306811	 0.112527
H	-5.9157920517	 0.3093967182	-2.0642523176	 0.10252
H	-3.6731459492	 0.428613522	-2.97183383	 0.239819
40.1374	80.4144	137.1127	175.6296	192.7222	278.7892	295.4067	383.5382	465.5189	489.4526	554.4191	705.6908	741.0166	762.7936	864.1811	886.8075	900.2135	924.1018	999.4117	1036.1345	1065.2677	1085.4558	1111.2629	1118.2496	1127.6704	1210.6041	1232.0063	1243.1213	1261.1895	1300.8157	1315.9421	1348.7305	1386.9886	1395.1511	1434.9062	1478.1015	1496.6719	1501.8419	1508.7591	1534.9502	1719.638	2985.9252	3002.3715	3016.2849	3053.2085	3075.7281	3083.9905	3088.9123	3107.0138	3597.9232	3811.9248
OCCOC1=NCCN1	OCCO[C]1[N]CCN1	
InChI=1S/C5H10N2O2/c8-3-4-9-5-6-1-2-7-5/h8H,1-4H2,(H,6,7)	InChI=1S/C5H10N2O2/c8-3-4-9-5-6-1-2-7-5/h8H,1-4H2,(H,6,7)
