20
gdb 5936	3.70473	1.02895	0.97325	1.7459	80.29	-0.2469	0.0452	0.2921	1338.9026	0.173161	-348.989632	-348.978986	-348.978042	-349.026142	37.338	
C	-0.2039052685	 1.5342619184	 0.0009703773	-0.398918
C	 0.0241089018	 0.0209084001	 0.0164743419	-0.177546
C	 0.8302377783	-0.4920221335	 1.2397165616	 0.15469
C	 2.2348162808	 0.1230811482	 1.3129811877	-0.396031
O	 0.1821946277	-0.0960230786	 2.4590518023	-0.447981
C	 0.9175505558	-1.9594083778	 1.1706776559	 0.073216
C	 0.9498121623	-3.1625622224	 1.1137792572	 0.047282
C	 1.00443047	-4.6163861001	 1.05285846	-0.500028
H	 0.7255517321	 2.0871868008	-0.1645092003	 0.117197
H	-0.895210461	 1.8078862584	-0.8018401199	 0.108051
H	-0.6303206203	 1.8666937556	 0.9510067676	 0.129834
H	-0.9428694215	-0.4974908993	 0.0237932286	 0.090945
H	 0.535676125	-0.3039503861	-0.8969418366	 0.101774
H	 2.1619643246	 1.2033091512	 1.4591304541	 0.124927
H	 2.7806238018	-0.3032391016	 2.1570714165	 0.1286
H	 2.7920271466	-0.0777009663	 0.3944398945	 0.117373
H	-0.6120091937	-0.6338249588	 2.5486941963	 0.278742
H	 0.831377285	-5.0609588566	 2.0391620834	 0.150036
H	 0.2481054845	-5.0183764984	 0.3697264451	 0.147367
H	 1.9839145888	-4.9611064632	 0.7033775166	 0.150471
18.841	89.6599	93.6538	131.794	205.1585	241.785	265.2179	284.9452	304.2145	324.3167	368.3388	381.9414	431.6683	546.5331	566.8152	675.1876	785.47	848.4232	924.5045	983.9757	1003.5557	1050.2269	1054.2719	1059.518	1083.4424	1141.2998	1186.3643	1217.3293	1290.5848	1352.3931	1379.9071	1405.1086	1410.6409	1414.1834	1475.3775	1477.6751	1478.9896	1482.9544	1494.139	1503.639	1512.4254	2362.6424	3026.1609	3026.7186	3043.1661	3054.0497	3064.9067	3087.4777	3088.1406	3106.8202	3123.9594	3132.9759	3136.7277	3808.7518
CCC(C)(O)C#CC	CC[C@@](C)(O)C#CC	
InChI=1S/C7H12O/c1-4-6-7(3,8)5-2/h8H,5H2,1-3H3	InChI=1S/C7H12O/c1-4-6-7(3,8)5-2/h8H,5H2,1-3H3/t7-/m1/s1
