21
gdb 104192	2.43911	1.30122	1.24725	3.6576	74.05	-0.2441	0.0581	0.3022	1161.5454	0.179684	-461.345896	-461.335816	-461.334871	-461.380089	38.25	
C	 0.2858414493	 1.5135057759	-0.3812699696	-0.464845
C	-0.0191619983	 0.0799466098	 0.0301404052	 0.294143
O	-1.4123800095	-0.1583797919	 0.0462365698	-0.472051
C	 0.8628659782	-0.981075053	-0.6761523258	-0.125492
O	 1.6468368931	-1.1739955058	 0.5204718093	-0.337302
C	 0.6762969854	-0.431583085	 1.3316455303	 0.347527
C	 1.3643607689	 0.5512859324	 2.2616034503	-0.456828
C	-0.1444054811	-1.4656562679	 2.1202314287	-0.08698
O	 0.7297173235	-2.2830356215	 2.8782196259	-0.429247
H	 1.3606494058	 1.7082886303	-0.4006261349	 0.136364
H	-0.0977388467	 1.6994995492	-1.3929445863	 0.110401
H	-0.1869047212	 2.2257293016	 0.3014348122	 0.129847
H	-1.8154737488	 0.3259801479	-0.6810191777	 0.281695
H	 0.3020815687	-1.8793171752	-0.9625489895	 0.10299
H	 1.4815392737	-0.6473536333	-1.5169667883	 0.09852
H	 2.1173253665	 1.1433606851	 1.7377079065	 0.115279
H	 0.6290411277	 1.2286497214	 2.7090072177	 0.119544
H	 1.8517100973	-0.0010762055	 3.0691445348	 0.141541
H	-0.8195382444	-0.9689916381	 2.823471695	 0.109084
H	-0.7587388353	-2.0620362527	 1.4345115255	 0.098323
H	 1.3954053472	-2.5905823736	 2.2485471509	 0.287485
87.26	132.63	192.8279	207.4096	218.7564	248.9824	287.6526	302.1779	325.4869	344.9451	372.9452	427.4126	494.3218	508.8027	576.2055	640.1683	731.121	858.4026	898.4852	911.1099	925.9568	969.2078	981.8254	1013.0324	1068.7063	1105.6564	1121.8116	1150.4747	1180.3968	1193.4846	1204.4909	1247.8591	1285.5584	1324.5939	1373.8624	1397.2872	1402.5104	1411.9181	1430.0034	1474.0975	1486.8139	1497.6534	1504.2467	1506.5291	1520.9786	3016.5925	3023.968	3028.5159	3043.766	3070.3168	3089.3302	3094.0848	3115.7285	3127.3597	3135.4539	3762.0998	3818.9804
CC1(O)COC1(C)CO	C[C@@]1(O)CO[C@]1(C)CO	
InChI=1S/C6H12O3/c1-5(8)4-9-6(5,2)3-7/h7-8H,3-4H2,1-2H3	InChI=1S/C6H12O3/c1-5(8)4-9-6(5,2)3-7/h7-8H,3-4H2,1-2H3/t5-,6-/m1/s1
