19
gdb 59615	3.74289	1.00266	0.92323	2.0696	72.01	-0.2467	-0.0259	0.2208	1311.6786	0.158022	-460.188758	-460.179772	-460.178827	-460.222701	33.571	
C	-0.1862717448	 1.5363077956	 0.0610353658	-0.407007
C	 0.0024521726	 0.0215976319	-0.0430698755	 0.12025
O	 0.6877288998	-0.343094205	-1.2320695705	-0.435376
C	 0.7356080922	-0.555279534	 1.1734162624	 0.106307
C	 0.9169748648	-2.0748898599	 1.1601838982	-0.36031
C	 2.2699204032	-2.2713887479	 1.835089556	 0.364072
O	 2.7356127662	-3.284535607	 2.2817676859	-0.295509
C	 2.9346936995	-0.8896954377	 1.8575204226	-0.181316
O	 2.0777317741	-0.0256625008	 1.1371299489	-0.283646
H	 0.779977853	 2.0361401562	 0.1776886603	 0.130508
H	-0.6687645383	 1.9124444613	-0.8442636249	 0.125692
H	-0.8100880188	 1.7968935211	 0.9227638006	 0.11211
H	-0.9781423815	-0.4653420333	-0.1065378806	 0.091379
H	 1.5991822118	-0.0485730597	-1.1075653359	 0.284399
H	 0.2376528	-0.2292043343	 2.1001255562	 0.075023
H	 0.1326496128	-2.6416589772	 1.6644390781	 0.133617
H	 0.9911107836	-2.4194271597	 0.1214554913	 0.154995
H	 3.0569669403	-0.5685619606	 2.9045488886	 0.12559
H	 3.9232277393	-0.9084958888	 1.3885971426	 0.139222
71.2383	98.7597	150.6666	193.4663	238.979	282.3588	323.0051	436.7806	455.2133	467.6278	510.9775	587.5873	630.4965	652.3405	783.2059	829.3801	864.3435	897.8656	956.7723	990.7294	1050.9687	1066.1477	1094.1695	1110.116	1134.3966	1170.1014	1186.4175	1225.7321	1246.333	1299.6488	1322.5523	1331.6903	1363.9098	1396.6943	1402.7529	1430.13	1445.8379	1480.4768	1492.6438	1498.8426	1862.4132	2980.4795	2986.004	3039.8735	3044.5226	3051.2319	3084.292	3110.9341	3127.9785	3128.5499	3775.8406
CC(O)C1CC(=O)CO1	C[C@@H](O)[C@H]1CC(=O)CO1	
InChI=1S/C6H10O3/c1-4(7)6-2-5(8)3-9-6/h4,6-7H,2-3H2,1H3	InChI=1S/C6H10O3/c1-4(7)6-2-5(8)3-9-6/h4,6-7H,2-3H2,1H3/t4-,6-/m1/s1
