18
gdb 66690	2.51295	2.03027	1.59605	0.4509	73.84	-0.2379	0.0648	0.3027	925.4582	0.147314	-401.864748	-401.857225	-401.856281	-401.896313	29.783	
C	-0.0642883762	 1.4466015184	 0.0721157433	-0.525169
C	 0.0557373858	-0.0361386016	-0.0660499017	 0.291453
C	-0.4785934061	-0.9676810682	-1.1909079351	 0.005415
O	 0.6626744881	-1.5988668943	-1.8170147058	-0.293158
C	 0.9457856642	-2.1263910666	-0.5000378062	 0.005422
C	-0.5358371608	-2.024484409	-0.0598945373	-0.035347
N	-0.2480286829	-1.0092383389	 1.0497273841	-0.260681
C	 1.1405348879	-0.9184873643	 0.4599820362	 0.291468
C	 2.348131997	-0.5155524629	 1.2418805614	-0.525172
H	 0.4640738598	 1.9548915156	-0.7422798616	 0.129371
H	-1.1130584805	 1.7608276387	 0.0464602884	 0.128524
H	 0.359966209	 1.7875744156	 1.020893606	 0.132818
H	-1.2615024186	-0.6519943493	-1.8782046467	 0.087227
H	 1.6105030988	-2.9883135145	-0.4851798146	 0.087227
H	-1.2557096783	-2.828102659	 0.0764645776	 0.089889
H	 2.1323483679	 0.3460432789	 1.8802558584	 0.132817
H	 2.6878617682	-1.3306655411	 1.8895597166	 0.128522
H	 3.1717146866	-0.2474234275	 0.5706237569	 0.129373
169.5976	170.2875	218.8543	221.1758	265.9368	339.4246	542.0099	552.0149	629.8301	665.1991	751.9787	753.7597	821.0215	832.3035	844.7589	857.0454	902.5357	926.676	951.5771	967.7718	1037.8907	1084.0082	1090.9734	1100.3259	1149.0172	1174.5054	1185.8649	1201.7023	1223.6719	1255.8425	1308.9042	1335.2398	1411.3944	1411.8064	1450.8395	1477.1629	1486.6355	1490.201	1501.3084	3031.013	3032.8577	3094.1378	3094.9818	3110.4722	3114.0166	3134.9773	3138.0767	3151.9183
CC12C3OC4C3N1C24C	C[C@]12[C@H]3O[C@@H]4[C@H]3N1[C@]24C	
InChI=1S/C7H9NO/c1-6-4-3-5(9-4)7(6,2)8(3)6/h3-5H,1-2H3	InChI=1S/C7H9NO/c1-6-4-3-5(9-4)7(6,2)8(3)6/h3-5H,1-2H3/t3-,4-,5+,6+,7-,8?
