18
gdb 40229	2.11332	2.07153	1.25685	2.0544	70.83	-0.2486	0.0588	0.3074	1016.9818	0.148602	-439.030087	-439.022361	-439.021417	-439.062984	29.737	
C	 0.0769268882	 1.5056293146	 0.0234454304	-0.297193
N	 1.273790717	 0.6477225617	-0.0250586544	-0.353204
C	-0.055643383	 0.0313677595	 0.0045740397	 0.240225
C	-0.420279406	-0.8406117292	 1.2059821164	-0.15489
O	-1.3073522518	-1.8409926708	 0.708177436	-0.250472
C	-0.9267331492	-2.1147244616	-0.6289611142	-0.176791
C	-0.5463022297	-0.7540545738	-1.2007051577	 0.350562
C	-1.1299251721	-0.1878405152	-2.419932687	-0.246763
O	 0.2188222536	-0.6906355785	-2.3999758429	-0.280229
H	-0.06522765	 2.0437313913	 0.957568486	 0.121517
H	-0.1991473164	 2.0695097851	-0.8641867031	 0.113492
H	 1.6213362587	 0.6049790403	-0.9830470585	 0.243226
H	 0.4935641618	-1.2898400098	 1.6224649717	 0.110017
H	-0.9420909608	-0.3014220283	 2.0006595689	 0.115562
H	-0.0542667317	-2.7875459934	-0.6784809879	 0.107161
H	-1.7686104556	-2.5914871229	-1.1359266501	 0.116744
H	-1.834543193	-0.7795241799	-3.0033170268	 0.12166
H	-1.2236886701	 0.889602861	-2.5389430266	 0.119376
32.024	186.8064	249.6185	264.875	312.9273	366.5055	395.813	487.9459	554.6913	560.248	686.9855	848.1212	856.3727	873.1149	919.7171	930.9283	948.1613	959.6086	992.8281	1062.6304	1076.3228	1090.1137	1107.5332	1124.8763	1127.2052	1168.4617	1179.9825	1216.024	1257.5105	1290.7801	1300.9406	1331.1777	1367.6098	1413.9376	1437.097	1502.534	1513.5474	1517.5869	1536.9505	2970.721	2996.9124	3085.9624	3092.9133	3101.0707	3102.4756	3174.3458	3184.315	3469.8736
C1NC11COCC11CO1	C1N[C@]21COC[C@]12CO1	
InChI=1S/C6H9NO2/c1-5(7-1)2-8-3-6(5)4-9-6/h7H,1-4H2	InChI=1S/C6H9NO2/c1-5(7-1)2-8-3-6(5)4-9-6/h7H,1-4H2/t5-,6-/m1/s1
