15
gdb 30234	3.80207	1.312	1.02847	2.3003	69.72	-0.1984	0.0011	0.1995	1099.4581	0.113618	-453.915873	-453.908351	-453.907407	-453.948145	28.473	
O	 0.4313751593	 1.2538741267	 0.3873355662	-0.415786
C	 0.0716157194	-0.0506155584	 0.0393285138	 0.0041
C	-1.4761126334	-0.3822260464	-0.0819036771	-0.204584
N	-1.2492649555	-0.5745198278	-1.5287726221	-0.096161
C	 0.1400262821	-0.4755230682	-1.4294987879	 0.208428
C	 0.6729593422	-1.078237027	-2.4959531265	-0.184507
O	-0.3784539841	-1.5633640076	-3.2763205942	-0.230868
C	-1.5897371957	-1.3794550329	-2.5932975565	 0.445332
N	-2.7257200821	-1.8270619315	-2.9206287275	-0.593676
H	 0.0774622484	 1.8567491349	-0.2765464421	 0.293001
H	 0.6105740286	-0.709242275	 0.7221100112	 0.126482
H	-1.7884536341	-1.2932334525	 0.4361373333	 0.138479
H	-2.1505286057	 0.4424427238	 0.1603976022	 0.129728
H	 1.6674034898	-1.2644350531	-2.8597159316	 0.151977
H	-2.6633881991	-2.390806815	-3.7644740113	 0.228055
100.1926	105.8574	224.9211	257.9754	347.4061	398.6813	446.6442	546.7386	630.5819	684.1864	700.8487	717.4815	752.4343	770.6163	798.1055	869.8639	937.5052	984.5816	1020.1429	1048.8304	1134.5203	1154.8176	1172.7734	1208.5274	1226.3282	1274.0456	1297.555	1335.3116	1375.2895	1435.3999	1505.0178	1687.3688	1789.3296	3059.595	3109.3293	3122.6177	3301.9962	3538.5725	3800.6729
OC1CN2C1=COC2=N	O[C@H]1CN2[C@@H]1CO[C@@H]2[NH]	
InChI=1S/C5H6N2O2/c6-5-7-1-4(8)3(7)2-9-5/h2,4,6,8H,1H2	InChI=1S/C5H9N2O2/c6-5-7-1-4(8)3(7)2-9-5/h3-6,8H,1-2H2/t3-,4+,5-/m1/s1
