20
gdb 119930	2.36836	1.06252	0.92551	3.0411	80.95	-0.222	0.0254	0.2474	1386.6378	0.170845	-399.311728	-399.301598	-399.300654	-399.347308	36.486	
C	-0.0911270873	 1.5037692016	 0.1024415495	-0.392039
C	-0.3163466869	 0.0417967082	 0.474147474	-0.114387
N	-1.0828175289	-0.6410671565	-0.5690173938	-0.306327
C	-1.3009468249	-2.0349808526	-0.3590772369	 0.014846
C	-2.3207884796	-2.604975783	 0.5926291499	-0.005596
N	-3.0984450573	-1.7456650283	 1.424323998	-0.505371
C	-2.5339078043	-2.710383625	-0.9520718794	-0.267078
C	-3.5521996413	-1.8878972765	-1.5249610401	 0.286385
N	-4.3794603276	-1.1904551673	-1.9399292962	-0.352226
H	 0.5120687093	 2.0065630109	 0.8636194837	 0.120084
H	 0.4204226764	 1.5840244067	-0.8607935436	 0.130722
H	-1.042763696	 2.0426035121	 0.0251674668	 0.117541
H	 0.6506809331	-0.4711034614	 0.5594741345	 0.104884
H	-0.7909218751	-0.0284846416	 1.466773504	 0.101496
H	-1.9269761103	-0.14042441	-0.8213405427	 0.234161
H	-0.387893228	-2.6186118816	-0.4610305494	 0.110475
H	-2.0742147302	-3.5549391094	 1.0587489328	 0.110097
H	-3.1245280555	-0.8016999798	 1.0546042669	 0.235744
H	-4.0600420783	-2.063693873	 1.4958297615	 0.245628
H	-2.3995376875	-3.6749447836	-1.4288730097	 0.130961
64.5615	83.0199	102.65	133.7317	186.8575	210.6381	245.3955	279.7185	366.5265	380.0393	425.0704	593.8555	624.9482	637.9848	679.0335	733.9418	776.9709	814.6134	854.1005	905.0027	928.1756	975.2419	1011.5371	1069.1027	1110.7507	1122.7265	1148.578	1174.2553	1203.6972	1252.3159	1282.2755	1304.4496	1346.0072	1355.6666	1401.4799	1414.7461	1431.3935	1487.9042	1499.1858	1513.6348	1529.7454	1656.076	2336.1895	2969.706	3029.8195	3036.549	3101.781	3120.6308	3123.1886	3147.6696	3174.2811	3506.0251	3544.5916	3584.099
CCNC1C(N)C1C#N	CCN[C@H]1[C@@H](N)[C@H]1C#N	
InChI=1S/C6H11N3/c1-2-9-6-4(3-7)5(6)8/h4-6,9H,2,8H2,1H3	InChI=1S/C6H11N3/c1-2-9-6-4(3-7)5(6)8/h4-6,9H,2,8H2,1H3/t4-,5+,6-/m1/s1
