19
gdb 76892	2.38108	1.85489	1.55917	2.4793	69.4	-0.2402	0.0506	0.2908	946.1673	0.161919	-460.16321	-460.155735	-460.15479	-460.19488	30.388	
O	-0.0171502218	 1.4416557523	 0.1458520096	-0.448407
C	-0.0526730581	 0.0402995178	 0.0458139661	 0.114286
C	-1.4708961359	-0.5724170828	-0.1236834605	-0.074845
C	-2.1415887017	 0.1180036257	-1.3156025925	-0.080192
O	-1.397313875	-0.3580718547	-2.4589271926	-0.275729
C	-0.4248661639	-1.2757208659	-1.9570251884	 0.088164
C	-1.1273029549	-1.936306278	-0.7610731786	-0.249634
C	 0.6908436315	-0.4812740097	-1.2544289671	 0.063412
O	 1.1433459946	 0.5925841115	-2.0674725233	-0.422976
H	 0.2624945778	 1.7526392487	-0.7290118118	 0.286567
H	 0.4152688471	-0.3738299639	 0.9470050451	 0.070792
H	-2.0708864148	-0.5785791782	 0.7866468027	 0.070872
H	-3.1960772427	-0.1660407971	-1.423806309	 0.09301
H	-2.0722704812	 1.2080838553	-1.2560724215	 0.110876
H	-0.0930626112	-1.9094694221	-2.7800875833	 0.075973
H	-0.4682811906	-2.5568109947	-0.1466547101	 0.098965
H	-2.0014925373	-2.5189212361	-1.0599487002	 0.110146
H	 1.525704168	-1.1437747943	-0.9979102512	 0.072933
H	 2.0458562501	 0.8020305863	-1.8084271235	 0.295788
100.2003	216.3459	254.4415	296.629	322.7784	438.2994	444.3929	506.4704	580.8939	586.7566	664.5286	752.7175	788.4602	848.45	852.8974	903.8451	932.011	945.0593	949.9364	973.9219	1021.8222	1049.214	1098.3406	1121.3004	1136.6502	1142.5587	1184.366	1208.5976	1227.3635	1232.8748	1275.2596	1289.7218	1309.4914	1325.9255	1332.0717	1371.1988	1393.1199	1430.4627	1444.6239	1491.6372	1529.7637	3018.5359	3020.2186	3036.6348	3062.9791	3082.8862	3113.7355	3116.9171	3120.2918	3695.1775	3831.652
OC1C2COC(C2)C1O	O[C@H]1[C@H]2CO[C@H](C2)[C@H]1O	
InChI=1S/C6H10O3/c7-5-3-1-4(6(5)8)9-2-3/h3-8H,1-2H2	InChI=1S/C6H10O3/c7-5-3-1-4(6(5)8)9-2-3/h3-8H,1-2H2/t3-,4-,5+,6-/m1/s1
