18
gdb 126682	3.16587	1.21415	0.95894	5.4641	77.14	-0.2147	-0.0103	0.2044	1241.3277	0.146359	-435.243989	-435.234681	-435.233737	-435.278706	32.927	
C	-0.0256233021	 1.5821471904	-0.1049357015	-0.383188
C	-0.0223266068	 0.051382657	-0.0378578027	-0.16934
N	 0.6621598882	-0.5924672056	-1.1596964199	-0.15382
C	 2.1140310007	-0.6471797657	-1.1676401574	-0.343955
C	 0.0112565557	-0.7928802223	-2.3286133249	 0.523928
C	 0.4708551492	-1.1987688961	-3.5737913557	-0.253044
N	-0.6229004524	-1.2796561002	-4.3780462849	-0.083616
N	-1.6844664471	-0.9728960282	-3.8101057194	-0.050846
O	-1.2966423712	-0.6188893986	-2.380546531	-0.269855
H	 0.9920433323	 1.9849722996	-0.1185227504	 0.120431
H	-0.5473060455	 1.9275968932	-1.0017202886	 0.14379
H	-0.539452456	 1.9952847905	 0.7685830081	 0.125192
H	 0.4713874353	-0.2890475565	 0.8785441497	 0.110814
H	-1.0470860571	-0.3250623394	-0.0144291992	 0.145508
H	 2.4516728012	-1.5449500835	-1.6939420369	 0.145634
H	 2.5730720193	 0.228766237	-1.6465703444	 0.132797
H	 2.4711530773	-0.7065577415	-0.1372051626	 0.137176
H	 1.4626880789	-1.41946892	-3.9227280081	 0.122393
61.8678	81.857	131.9619	136.7298	199.2019	250.1774	276.8349	357.4748	394.8023	442.7284	559.2348	613.0005	660.756	707.5988	746.8204	796.0917	883.6529	957.4596	983.9337	1054.7005	1092.8549	1108.415	1150.5452	1157.4244	1218.1475	1257.4582	1313.5683	1376.014	1395.6302	1409.6911	1425.5553	1458.733	1482.7693	1488.2027	1494.8554	1501.447	1508.3957	1515.3097	1632.5807	3007.0342	3041.2671	3051.4384	3081.2433	3103.4398	3117.4959	3125.8017	3129.4058	3302.626
CCN(C)C1=CN=NO1	CCN(C)c1cnno1	
InChI=1S/C5H9N3O/c1-3-8(2)5-4-6-7-9-5/h4H,3H2,1-2H3	InChI=1S/C5H9N3O/c1-3-8(2)5-4-6-7-9-5/h4H,3H2,1-2H3
