23
gdb 57653	2.97482	0.96773	0.90733	2.6826	86.16	-0.2448	-0.0228	0.222	1417.4082	0.202946	-388.29054	-388.280067	-388.279123	-388.326961	38.708	
C	 0.231263808	 1.6128916278	 0.2543685918	-0.43227
C	 0.1239733647	 0.0850793224	 0.114572526	 0.229552
C	 0.7263410289	-0.5820286627	 1.3682640278	-0.418471
C	-1.377428866	-0.3170448341	-0.0567284905	-0.274523
C	-2.2366360414	-0.0058352774	 1.1464595347	 0.143145
O	-2.9459080455	 0.9647464869	 1.2465774972	-0.245947
C	 0.8648094027	-0.4605987126	-1.1104898369	 0.032471
C	 0.8273066144	 0.1811834089	-2.474001652	-0.286242
C	 2.1158134261	 0.1539634651	-1.6869069175	-0.289228
H	 1.2621145354	 1.919138698	 0.4544375719	 0.115902
H	-0.113303624	 2.1322746813	-0.6446574312	 0.120365
H	-0.3859739601	 1.9673496864	 1.0841991141	 0.133412
H	 0.2733827931	-0.2047640969	 2.2907851276	 0.11546
H	 0.5910886975	-1.6692089844	 1.3459487705	 0.108992
H	 1.8009872696	-0.3814839085	 1.4202904932	 0.121602
H	-1.793303359	 0.2100014562	-0.9203217134	 0.119534
H	-1.4291211686	-1.3972084535	-0.2458248711	 0.099684
H	-2.1742360536	-0.7444172605	 1.9784837774	 0.075131
H	 0.8532461257	-1.5490593106	-1.1310973409	 0.078481
H	 0.7323546707	-0.4640580722	-3.3404908483	 0.111468
H	 0.3303502116	 1.1388034218	-2.5846712008	 0.115848
H	 2.470107194	 1.0942492329	-1.280518884	 0.114812
H	 2.9086175059	-0.5113704143	-2.0108543256	 0.110823
24.6603	68.3365	83.8739	182.3061	237.6843	257.1164	276.6199	291.397	321.4335	351.714	369.1356	454.9037	506.3488	524.9594	679.7518	785.7449	811.5782	835.1703	891.3704	920.3545	938.2546	944.9969	962.0129	988.5948	1033.5018	1054.3611	1059.1635	1082.9454	1107.3445	1148.109	1168.3038	1197.8874	1204.4086	1225.2972	1244.4754	1287.9909	1323.6314	1393.6432	1401.9692	1429.81	1432.855	1465.0495	1467.4971	1485.7242	1495.7526	1505.627	1509.9877	1513.2367	1822.3543	2862.557	3023.1001	3028.9438	3043.2654	3094.7948	3098.1475	3104.2156	3110.7801	3114.0397	3118.0898	3136.241	3140.8689	3212.0973	3226.7107
CC(C)(CC=O)C1CC1	CC(C)(CC=O)C1CC1	
InChI=1S/C8H14O/c1-8(2,5-6-9)7-3-4-7/h6-7H,3-5H2,1-2H3	InChI=1S/C8H14O/c1-8(2,5-6-9)7-3-4-7/h6-7H,3-5H2,1-2H3
