20
gdb 107168	2.48941	1.54208	1.18913	2.3835	78.73	-0.2315	0.0674	0.299	1113.9668	0.171057	-403.077534	-403.068966	-403.068022	-403.110666	33.244	
C	 0.5516866519	 2.1666432822	-1.7207497798	-0.422287
C	 0.3268032363	 0.7127649085	-1.3739339426	 0.02433
C	 1.1044016556	-0.4291854545	-1.9062386275	-0.064073
C	 2.5766596961	-0.1424051999	-2.0401600124	-0.172216
C	 3.3040731334	-0.9594180634	-0.9941564692	-0.317945
C	 2.5531496434	 0.2661502925	-0.568585373	 0.363139
C	 3.1586978917	 1.3618841275	 0.2589321955	-0.171326
O	 3.2734222675	 0.973521094	 1.6212554909	-0.417168
N	 1.1181687726	-0.0882763814	-0.4032737343	-0.206868
H	 1.5893396579	 2.3847012897	-1.976114996	 0.129764
H	-0.0677724432	 2.4300751498	-2.5850292096	 0.121596
H	 0.253764536	 2.8177699975	-0.8919077711	 0.125736
H	-0.7265082357	 0.4744427813	-1.2288005302	 0.094486
H	 0.6222743598	-1.3360490447	-2.2612622585	 0.09764
H	 3.0755560158	 0.2948758252	-2.8978090616	 0.094693
H	 2.9336492108	-1.9427974562	-0.7183298724	 0.115971
H	 4.3854670539	-0.8602892612	-0.990315804	 0.114046
H	 4.1746389052	 1.5768093438	-0.0892295433	 0.109451
H	 2.5747186943	 2.2888716356	 0.1672266722	 0.088006
H	 2.4103239568	 0.6380272135	 1.8889092472	 0.293024
64.2971	146.2866	198.0726	233.4032	255.3132	311.8821	353.3538	407.6706	418.2856	501.1062	643.2087	669.1514	708.4166	784.4178	832.521	868.4982	905.377	916.3301	947.9661	998.7393	1007.4891	1010.1261	1051.7459	1058.6469	1075.3471	1091.0061	1097.4465	1123.4626	1157.9194	1172.8839	1239.5426	1263.5399	1279.1602	1353.027	1374.2885	1378.4958	1410.8342	1434.3691	1440.7521	1492.3818	1497.1803	1500.2566	1505.3194	3002.7931	3038.4174	3071.9268	3093.4183	3114.067	3116.4961	3143.4504	3149.4633	3168.1535	3205.9745	3801.7259
CC1C2C3CC3(CO)N12	C[C@H]1[C@H]2[C@@H]3C[C@]3(CO)N12	
InChI=1S/C7H11NO/c1-4-6-5-2-7(5,3-9)8(4)6/h4-6,9H,2-3H2,1H3	InChI=1S/C7H11NO/c1-4-6-5-2-7(5,3-9)8(4)6/h4-6,9H,2-3H2,1H3/t4-,5-,6-,7+,8?/m0/s1
