13
gdb 7874	3.89412	1.88394	1.27964	2.5759	65.24	-0.2838	-0.0855	0.1983	889.1959	0.095837	-398.668483	-398.661483	-398.660538	-398.699895	25.287	
C	 0.0109497483	 1.4937042559	-0.0229410844	-0.492252
C	-0.065571787	 0.0077364392	-0.0052823231	 0.1836
C	-1.0920523193	-0.8363472555	-0.1728434952	-0.277791
C	-0.5997906007	-2.2128957352	-0.0549127902	 0.416568
N	-1.2706804387	-3.276494372	-0.1536392707	-0.515378
O	 0.7650482377	-2.1599470898	 0.1904537838	-0.22993
C	 1.1498064522	-0.8262187794	 0.2318086737	 0.387361
O	 2.2785542881	-0.4891587932	 0.4285625644	-0.315141
H	 0.7100873134	 1.8315281225	-0.7954666421	 0.158002
H	-0.9662724131	 1.9435594608	-0.2082403071	 0.137614
H	 0.3996980086	 1.8680330513	 0.9301906735	 0.158006
H	-2.1315250756	-0.6131263054	-0.3652707223	 0.146522
H	-0.6745889437	-4.0968477692	-0.0286906704	 0.242818
106.1435	163.2425	188.081	249.432	371.2493	382.3426	565.7621	599.9037	659.3361	675.2373	781.5513	796.1515	892.5453	920.3311	928.4349	1001.3933	1034.5763	1064.2939	1106.0445	1189.9894	1322.6682	1348.5003	1415.5383	1471.0183	1478.1316	1698.8827	1765.8819	1887.9616	3041.4954	3095.6528	3136.0302	3248.61	3481.3114
CC1=CC(=N)OC1=O	C[C]1C=C([NH])OC1=O	
InChI=1S/C5H5NO2/c1-3-2-4(6)8-5(3)7/h2,6H,1H3	InChI=1S/C5H5NO2/c1-3-2-4(6)8-5(3)7/h2,6H,1H3
