17
gdb 126696	3.19903	1.23891	0.96695	4.0924	71.51	-0.2331	-0.0549	0.1782	1214.5569	0.134977	-451.268442	-451.259461	-451.258517	-451.303053	31.215	
C	-0.0390534834	 1.5110468661	 0.0291482914	-0.386783
C	-0.0184885918	-0.020719983	-0.0144540367	-0.15669
N	-1.3432761378	-0.6379837471	 0.0196996812	-0.144664
C	-2.1091977102	-0.7155981432	-1.2147861786	-0.352157
C	-1.9590776196	-0.773686863	 1.2161738515	 0.542234
N	-1.4323636948	-0.4917546598	 2.3884201283	-0.232173
O	-2.4166623483	-0.8616938257	 3.2755275499	-0.148107
N	-3.4994689701	-1.3303075925	 2.5841657651	 0.048024
N	-3.2473728887	-1.2830768182	 1.3510566703	-0.249782
H	 0.9832744467	 1.899158714	-0.011098527	 0.125058
H	-0.5907931734	 1.9293751446	-0.8183730231	 0.121316
H	-0.5007070601	 1.8645589012	 0.9547199841	 0.146069
H	 0.4734386999	-0.3705136955	-0.9283372845	 0.109795
H	 0.5508523298	-0.4104029727	 0.8342413305	 0.143762
H	-1.4915013357	-1.1786407629	-1.9904193491	 0.132696
H	-2.9958085534	-1.3288687848	-1.0580207876	 0.172299
H	-2.4295999491	 0.2731158826	-1.5709751058	 0.129105
71.9175	79.9767	96.7915	140.2423	199.0162	252.5217	304.9641	371.1908	418.6139	531.9567	615.7107	642.1251	774.587	792.2153	814.4737	899.2632	931.24	1002.7262	1064.1844	1078.6898	1100.6514	1112.5327	1156.5357	1221.0765	1249.5821	1350.2132	1368.22	1394.356	1409.4261	1458.1426	1479.1429	1489.0135	1496.3514	1503.7255	1505.333	1530.8032	1664.7137	3008.6342	3043.0524	3046.6654	3080.8025	3093.609	3114.4773	3128.8691	3159.7579
CCN(C)C1=NON=N1	CCN(C)c1nonn1	
InChI=1S/C4H8N4O/c1-3-8(2)4-5-7-9-6-4/h3H2,1-2H3	InChI=1S/C4H8N4O/c1-3-8(2)4-5-7-9-6-4/h3H2,1-2H3
