18
gdb 45508	4.27695	1.2306	0.99612	2.739	80.43	-0.2141	0.0103	0.2245	1166.1636	0.151009	-402.014867	-402.007681	-402.006736	-402.046455	28.909	
O	 0.0791960732	-0.0307858312	-0.2857064481	-0.355388
C	-0.0200080658	 1.1559374925	-0.0995480372	 0.393821
C	-1.3061992531	 2.0071366568	-0.0328546997	-0.374385
C	-0.7878254532	 3.4511012919	-0.1138049219	-0.041828
C	-1.3085644777	 4.6160430439	 0.7451763292	-0.242847
C	-0.0239822846	 5.4513365695	 1.0356796624	-0.23609
C	 1.0864821798	 4.4113094014	 0.9993308746	-0.254756
C	 0.6336295438	 3.3186328824	 0.3863533589	 0.429982
N	 1.0482395855	 2.0195258889	 0.145939528	-0.429362
H	-2.0005153766	 1.7093470513	-0.8195241725	 0.131447
H	-1.7830009161	 1.7949178773	 0.9325275694	 0.132877
H	-0.7573494504	 3.7508941777	-1.1719055446	 0.092726
H	-2.0979058727	 5.1978445679	 0.2622296556	 0.097766
H	-1.7063992484	 4.2269331423	 1.689503032	 0.103365
H	 0.1184746309	 6.2328842454	 0.2744922187	 0.102779
H	-0.0821154666	 5.9689449778	 1.9993857445	 0.103333
H	 2.0688457368	 4.5621003181	 1.427227677	 0.08675
H	 1.9722383651	 1.6534651363	 0.3152611338	 0.259812
108.828	160.4471	276.2945	315.7101	393.599	505.8967	517.3228	543.8471	600.284	623.0344	660.0743	736.3199	796.1933	825.9059	845.6946	867.2957	912.5179	943.5328	981.4019	1005.4436	1067.8038	1097.8246	1140.5393	1182.2457	1189.1789	1216.5586	1235.9315	1259.9013	1292.4795	1304.3713	1311.3754	1342.4275	1365.6046	1392.5978	1464.8709	1486.2039	1501.0123	1755.4576	1849.2117	2991.0865	2994.9758	3039.9634	3043.3278	3061.2386	3100.4376	3127.056	3213.042	3638.7401
O=C1CC2CCC=C2N1	O=C1C[C@H]2CCC=C2N1	
InChI=1S/C7H9NO/c9-7-4-5-2-1-3-6(5)8-7/h3,5H,1-2,4H2,(H,8,9)	InChI=1S/C7H9NO/c9-7-4-5-2-1-3-6(5)8-7/h3,5H,1-2,4H2,(H,8,9)/t5-/m1/s1
