23
gdb 91805	2.46397	1.40876	1.1657	1.5087	84.2	-0.2353	0.0721	0.3074	1195.7919	0.205638	-388.291543	-388.282242	-388.281298	-388.325072	37.006	
C	 0.0319204714	 1.5831287938	-0.1022575976	-0.412657
C	 0.0929062081	 0.0581321662	-0.0376093517	 0.047452
C	 0.7935694919	-0.6064847676	-1.2523994389	-0.243101
C	 1.2007540123	-1.9932193608	-0.762764553	-0.121692
C	 2.5118314719	-2.0898642926	-0.0047154607	-0.315494
C	 1.2302459768	-1.9561674183	 0.7544229034	 0.417032
O	 0.8989642708	-3.0642470537	 1.5413835988	-0.474964
C	 0.7661782446	-0.5637861587	 1.2290068707	-0.075925
C	 1.8718852943	 0.2779376932	 1.8795473887	-0.402443
H	 1.032528414	 2.027348912	-0.1210216478	 0.116561
H	-0.4895990806	 1.9101194059	-1.0084088271	 0.110562
H	-0.5037982639	 2.0036154648	 0.7557522262	 0.111027
H	-0.9392667206	-0.3180799523	-0.0405007947	 0.065327
H	 0.1245152112	-0.6536479411	-2.1170338968	 0.0965
H	 1.6677313468	-0.0206645577	-1.5666316521	 0.093582
H	 0.855344357	-2.8771225791	-1.2874446891	 0.082141
H	 2.97383323	-3.0698817989	 0.0452304422	 0.116236
H	 3.2108292298	-1.2611536232	-0.0553672908	 0.105663
H	-0.0620418896	-3.1349623166	 1.5638064033	 0.275383
H	-0.0005882171	-0.7307492335	 1.9955862982	 0.063219
H	 2.6552343986	 0.5582002645	 1.1682792686	 0.113764
H	 1.4701212191	 1.2028722802	 2.3046314891	 0.110449
H	 2.3469736733	-0.2847678565	 2.6891793812	 0.12138
54.9735	197.8244	231.1519	247.7988	256.9917	275.9929	296.1894	326.6352	381.6837	419.5746	457.6883	510.6447	581.6575	616.1801	695.8258	775.9661	849.1611	871.7523	896.6594	915.0027	944.8042	961.4721	993.3218	1033.7173	1041.1992	1056.6598	1073.9465	1087.2193	1099.1392	1157.4	1181.1578	1195.5581	1238.0489	1250.6698	1297.3412	1305.7248	1316.587	1347.5013	1366.9209	1371.0087	1403.438	1410.4168	1421.072	1481.0446	1490.1089	1492.1469	1498.4432	1504.5742	1508.9928	2995.5102	3016.207	3025.0659	3028.2741	3035.9162	3076.4204	3091.7901	3097.9064	3102.7383	3106.0506	3125.9833	3169.9082	3215.5974	3788.2819
CC1CC2CC2(O)C1C	C[C@H]1C[C@H]2C[C@@]2(O)[C@H]1C	
InChI=1S/C8H14O/c1-5-3-7-4-8(7,9)6(5)2/h5-7,9H,3-4H2,1-2H3	InChI=1S/C8H14O/c1-5-3-7-4-8(7,9)6(5)2/h5-7,9H,3-4H2,1-2H3/t5-,6-,7-,8+/m0/s1
