14
gdb 20520	4.91653	1.60773	1.22061	4.2601	65.17	-0.2421	-0.0363	0.2057	932.0142	0.108474	-378.76844	-378.761248	-378.760304	-378.800381	25.777	
C	-0.070535254	 1.4942287546	 0.0096819318	-0.480247
C	 0.0270618217	-0.0174623823	 0.002650519	 0.314589
O	 1.0910845932	-0.6032292887	-0.0084207618	-0.312615
C	-1.2414526568	-0.7831058107	 0.0097621041	 0.246348
N	-2.4343218989	-0.1766635861	 0.0218574763	-0.284099
N	-3.315410815	-1.1814875071	 0.0248011288	-0.175742
C	-2.7323004273	-2.4118311994	 0.0152131234	-0.020697
C	-1.3764865454	-2.1933925927	 0.0052054577	-0.267383
H	 0.9338669677	 1.9184271238	 0.002449412	 0.132543
H	-0.6354769353	 1.8429704169	-0.8604141889	 0.145592
H	-0.6196316653	 1.8356864454	 0.8927337103	 0.145587
H	-4.299199494	-0.9672968144	 0.0335035851	 0.281125
H	-3.3214666722	-3.3150473002	 0.0163138537	 0.142799
H	-0.5814132186	-2.9189785391	-0.0040938315	 0.1322
73.6726	118.7969	191.6821	196.3648	372.9079	507.2288	554.5803	566.4009	629.6714	672.6097	734.647	786.797	879.695	941.7015	945.4367	986.092	1047.6944	1062.6442	1093.1784	1163.5282	1213.2288	1325.0616	1384.1058	1400.2242	1458.0913	1466.0419	1469.3262	1492.3046	1560.7633	1780.8147	3048.645	3111.8101	3157.4481	3265.0369	3294.5617	3661.711
CC(=O)C1=NNC=C1	CC(=O)c1n[nH]cc1	
InChI=1S/C5H6N2O/c1-4(8)5-2-3-6-7-5/h2-3H,1H3,(H,6,7)	InChI=1S/C5H6N2O/c1-4(8)5-2-3-6-7-5/h2-3H,1H3,(H,6,7)
