17
gdb 68947	2.37581	1.67902	1.3176	4.1569	73.72	-0.242	-0.0267	0.2153	1020.3243	0.135528	-417.940762	-417.932718	-417.931774	-417.973288	30.526	
C	-0.1678024138	 1.5648675899	 0.1078706681	-0.479584
C	-0.0674027121	 0.0727666853	 0.0124027737	 0.283511
N	 1.1433975218	-0.5593084748	-0.4678125176	-0.403362
C	 0.7085447939	-0.9310109848	 0.8924977462	 0.194012
C	 1.615058258	-0.657163619	 2.0229741728	 0.09445
O	 1.5521944504	-1.2265326766	 3.0852922904	-0.260887
C	-0.4892814902	-1.8541566878	 0.8794873661	-0.141315
N	-1.6411266664	-1.0922946061	 1.4265420499	-0.322388
C	-1.2392598858	-0.9013188546	 0.0129053313	-0.132201
H	 0.8056046225	 2.0093639223	 0.326194609	 0.137113
H	-0.5213427071	 1.9838417855	-0.8415666362	 0.126392
H	-0.8762036614	 1.8460388856	 0.8917844832	 0.145981
H	 0.9689211801	-1.3164099858	-1.1259265746	 0.234499
H	 2.3792299185	 0.1216308789	 1.8126374249	 0.08043
H	-0.4893272313	-2.9367272828	 0.8655865355	 0.108859
H	-2.4458555964	-1.7221583147	 1.4387375987	 0.23098
H	-1.9218754108	-1.1077428208	-0.8031622712	 0.103509
101.8607	147.4986	204.2238	213.2791	226.8923	312.4977	447.0135	487.4937	500.7602	603.5348	635.3583	730.6404	782.0212	801.8732	844.5984	851.6671	928.6349	944.9713	1032.1214	1037.0855	1063.6642	1073.9142	1101.1912	1115.0583	1130.9585	1148.647	1193.7242	1280.5289	1292.1906	1348.4975	1370.431	1399.8365	1411.4139	1452.3419	1485.7522	1492.6685	1810.004	2903.5407	3036.8049	3103.7603	3134.7936	3182.5711	3201.2358	3449.406	3473.0865
CC12NC1(C=O)C1NC21	C[C@@]12N[C@]1(C=O)[C@H]1N[C@@H]21	
InChI=1S/C6H8N2O/c1-5-3-4(7-3)6(5,2-9)8-5/h2-4,7-8H,1H3	InChI=1S/C6H8N2O/c1-5-3-4(7-3)6(5,2-9)8-5/h2-4,7-8H,1H3/t3-,4+,5+,6-/m1/s1
