18
gdb 106087	2.54175	1.63777	1.26739	4.2906	75.76	-0.2419	0.0029	0.2448	1055.2042	0.147832	-401.908006	-401.900079	-401.899135	-401.94074	30.238	
C	 0.0768817804	 1.5104179785	-0.2528505312	-0.385703
C	 0.0346096297	 0.0261936475	 0.1320900878	-0.329899
C	-1.3448872258	-0.5408360384	 0.0966969148	 0.393706
C	-1.9985428793	-1.8713681689	 0.0869972775	-0.157406
C	-2.889755	-1.4350974636	 1.2440045078	-0.19456
N	-2.5587887665	 0.0087944071	 0.8897141892	-0.255128
C	-3.2380023927	 0.1093287466	-0.438537297	 0.434574
O	-4.1197516222	 0.8298208603	-0.7825378555	-0.318119
C	-2.2961696356	-0.8569510142	-1.0603670039	-0.267695
H	 1.0956915108	 1.8999574473	-0.1759564725	 0.117187
H	-0.2689338179	 1.6624382334	-1.280006001	 0.125256
H	-0.5656091027	 2.0971443192	 0.4096220567	 0.147629
H	 0.6671631211	-0.5643901686	-0.5420514985	 0.111503
H	 0.4457614927	-0.1076261196	 1.1404232328	 0.118055
H	-1.5687219578	-2.8386353381	-0.1488021882	 0.104711
H	-3.9602098613	-1.6657712763	 1.2203743975	 0.120095
H	-2.4727053638	-1.6848501831	 2.2223036076	 0.120771
H	-2.0755096094	-1.0776917091	-2.096270864	 0.115022
87.4106	92.3578	198.5608	210.5999	293.6017	357.0835	448.356	517.0826	594.8591	644.9951	720.0191	773.394	786.7258	810.0694	859.1228	890.4088	940.6841	941.9677	971.9808	980.4279	995.0549	1051.3405	1076.0757	1092.2032	1113.0467	1157.8167	1171.5253	1184.0144	1273.0961	1291.8794	1301.9417	1351.3269	1412.1166	1462.3948	1475.7653	1498.3809	1510.3014	1514.215	1922.0466	3026.2322	3044.2796	3046.9974	3060.6081	3111.6696	3115.2271	3123.4209	3177.4554	3210.7035
CCC12C3CN1C(=O)C23	CC[C@@]12[C@H]3CN1C(=O)[C@@H]23	
InChI=1S/C7H9NO/c1-2-7-4-3-8(7)6(9)5(4)7/h4-5H,2-3H2,1H3	InChI=1S/C7H9NO/c1-2-7-4-3-8(7)6(9)5(4)7/h4-5H,2-3H2,1H3/t4-,5-,7-/m0/s1
