19
gdb 116044	2.52044	1.40009	1.01413	2.9933	72.71	-0.2473	0.0019	0.2492	1187.5545	0.159829	-460.156795	-460.14812	-460.147175	-460.190063	33.086	
O	-0.0041959175	 1.4182141764	-0.067048507	-0.427636
C	 0.049868372	 0.0078254824	 0.0279611508	-0.069906
C	-1.3499213564	-0.5935369473	 0.0444669791	 0.052069
O	-1.9680712289	-0.1840897779	-1.1821584603	-0.284703
C	-3.3610956698	-0.4379392527	-1.1911080278	-0.130306
C	-3.6944679524	-1.8317889119	-0.7373200985	-0.06246
C	-2.7982087753	-2.6068415543	-0.1295146222	-0.101777
C	-1.3924616851	-2.1237126578	 0.1412918398	 0.081308
O	-0.4590806975	-2.7532650819	-0.7368278929	-0.430676
H	-0.5857730111	 1.6052790907	-0.8133199804	 0.286443
H	 0.6239830224	-0.4379425833	-0.795386104	 0.098483
H	 0.5645064982	-0.2359736188	 0.9629461909	 0.108212
H	-1.909149618	-0.1638410599	 0.8918838002	 0.075655
H	-3.8910679484	 0.3016437571	-0.5627994507	 0.107659
H	-3.6979246323	-0.2777025522	-2.2219109559	 0.12126
H	-4.7069810176	-2.1779047522	-0.9291368828	 0.1009
H	-3.0372615304	-3.6265646177	 0.1573610189	 0.101273
H	-1.0779857991	-2.4237861228	 1.1478903395	 0.093026
H	-0.7378914526	-2.5262947258	-1.6321547368	 0.281175
98.4199	121.1438	161.5675	228.3581	278.0102	289.7265	372.0481	409.3877	439.6764	497.5603	505.6841	526.8159	672.6552	750.1647	808.6883	876.2358	887.6156	923.8447	995.8746	998.3895	1039.067	1043.537	1087.6189	1104.5036	1117.7704	1128.9029	1203.9486	1230.9372	1248.3412	1276.7113	1300.9385	1346.7945	1367.9008	1389.3854	1403.7484	1409.0917	1424.3319	1441.2814	1485.325	1500.695	1716.9336	2939.824	2974.3211	3019.9524	3046.2384	3055.7877	3084.7083	3156.8269	3181.1387	3792.1339	3796.0904
OCC1OCC=CC1O	OC[C@H]1OCC=C[C@H]1O	
InChI=1S/C6H10O3/c7-4-6-5(8)2-1-3-9-6/h1-2,5-8H,3-4H2	InChI=1S/C6H10O3/c7-4-6-5(8)2-1-3-9-6/h1-2,5-8H,3-4H2/t5-,6-/m1/s1
