17
gdb 37701	2.78824	2.30204	2.08816	1.8544	68.22	-0.2488	0.0825	0.3313	778.2744	0.140673	-421.815954	-421.810538	-421.809594	-421.845376	24.17	
C	-0.0163267365	 1.4950729232	-0.0088521748	-0.242081
C	 1.4218869974	 1.9947122178	 0.0177342974	-0.064246
C	 2.4621501025	 1.2556921789	 0.8215100191	-0.096051
C	 2.4977506406	 1.2350668309	-0.7169847388	-0.096051
C	 2.0921812031	-0.2468211665	-0.7198600861	 0.055181
O	 0.7523910977	-0.5190205556	-1.0986875145	-0.262496
C	 0.0026921103	-0.0381458618	 0.0121400207	 0.169623
O	 0.6999033885	-0.4886145532	 1.168946259	-0.262496
C	 2.0559510653	-0.2258346565	 0.8453357216	 0.055182
H	-0.5726830559	 1.861265006	 0.8609479613	 0.10651
H	-0.5316326488	 1.8374832659	-0.9129516668	 0.10651
H	 1.5487052513	 3.0733577946	 0.0062110947	 0.090557
H	 3.1281444395	 1.748195124	 1.5186288385	 0.08711
H	 3.1955772496	 1.7091305755	-1.3955006864	 0.08711
H	 2.7636777981	-0.9440403085	-1.2185820456	 0.087981
H	-0.988781194	-0.4943219096	-0.0046883078	 0.089677
H	 2.7032276313	-0.9090220449	 1.3930886187	 0.08798
326.7655	379.6765	461.0911	549.8724	563.3776	634.9453	698.6787	747.6017	775.1901	832.4204	833.4743	857.5795	868.9827	921.3743	933.6446	960.6441	969.382	993.864	1018.9476	1042.2352	1053.6321	1075.0775	1098.251	1105.0808	1132.8267	1209.2171	1217.0088	1225.1414	1287.0252	1292.0585	1309.4109	1330.7237	1354.0281	1376.6772	1381.0842	1435.1893	1478.1614	3037.9856	3081.976	3104.9854	3123.9593	3132.3742	3151.2797	3186.9119	3198.3561
C1C2C3C2C2OC1OC32	C1[C@H]2[C@@H]3[C@H]2[C@@H]2O[C@H]1O[C@H]32	
InChI=1S/C7H8O2/c1-2-4-5(2)7-6(4)8-3(1)9-7/h2-7H,1H2	InChI=1S/C7H8O2/c1-2-4-5(2)7-6(4)8-3(1)9-7/h2-7H,1H2/t2-,3+,4+,5-,6+,7-
