18
gdb 18871	3.17969	2.46018	2.09551	1.5581	69.66	-0.2237	0.0915	0.3152	758.851	0.156009	-347.77472	-347.768329	-347.767385	-347.804817	26.256	
C	-0.1477406521	 1.592582307	-0.0184283595	-0.421834
C	 0.0642999635	 0.0825506369	-0.0293179839	 0.03241
C	 0.7443193784	-0.5790520325	-1.2323027291	-0.117681
C	 2.251823055	-0.4718326722	-1.0995901008	 0.116851
O	 2.8119404087	 0.5497191671	-0.2994731648	-0.269777
C	 2.3775929334	 0.3001722071	 1.045954321	-0.081276
C	 1.1495506788	-0.5932667615	 0.8907888793	-0.097262
C	 1.5432176479	-1.5070689371	-0.3034107627	-0.125515
H	 0.7783301941	 2.1269253233	-0.2430628129	 0.138454
H	-0.8884563113	 1.8760124314	-0.7746881019	 0.110632
H	-0.5242248827	 1.9364383485	 0.9520552397	 0.107387
H	-0.8890154075	-0.4250974709	 0.1545591538	 0.073305
H	 0.2743544756	-0.8133268835	-2.1820540539	 0.077652
H	 2.8651452404	-0.729812984	-1.9546597995	 0.100462
H	 3.1737292164	-0.2034070772	 1.6157852421	 0.091497
H	 2.163731473	 1.263220935	 1.5203907066	 0.107022
H	 0.7975227945	-1.0473952016	 1.8165558441	 0.069947
H	 1.7066405438	-2.5761018959	-0.3129256576	 0.087724
184.2422	222.4388	279.1759	317.8546	470.5819	547.8359	623.2821	714.9863	759.9183	770.1095	796.709	823.2045	888.9068	918.9952	942.7698	954.6898	999.1009	1015.5759	1029.3188	1049.2113	1063.0742	1082.5282	1118.58	1131.2025	1152.2822	1188.1412	1228.0656	1234.857	1251.9001	1294.3832	1328.2043	1363.0438	1377.5574	1407.2083	1416.4795	1492.0678	1506.2011	1521.2134	2985.5133	3028.3398	3040.2712	3074.8266	3086.1759	3118.8481	3127.8125	3158.7749	3188.6208	3204.7878
CC1C2C3OCC1C23	C[C@H]1[C@H]2[C@H]3OC[C@@H]1[C@@H]23	
InChI=1S/C7H10O/c1-3-4-2-8-7-5(3)6(4)7/h3-7H,2H2,1H3	InChI=1S/C7H10O/c1-3-4-2-8-7-5(3)6(4)7/h3-7H,2H2,1H3/t3-,4+,5-,6+,7-/m1/s1
