17
gdb 49717	2.86787	1.46955	1.10559	5.3278	76.76	-0.2453	-0.0205	0.2248	1104.9498	0.137072	-418.011702	-418.003765	-418.002821	-418.044732	29.227	
N	 0.0372247917	 1.2803796856	 0.0995899013	-0.412306
C	-0.0350423098	 0.0147266516	 0.0443425943	 0.064789
N	-1.233844263	-0.6686399973	-0.0660836851	-0.088176
C	-1.4848557576	-2.1167689627	-0.0492819626	-0.005727
C	-1.5560962976	-2.747952522	 1.3686669301	-0.23499
C	-3.0689519279	-2.3797459304	 1.454500373	-0.231619
C	-3.0117658467	-1.7942668523	 0.0063731718	-0.1913
C	-2.6020103671	-0.3135789527	-0.0263224025	 0.429733
O	-3.1631562251	 0.7399126622	 0.0014812084	-0.326984
H	 1.0112418914	 1.5704773475	 0.1698307142	 0.230009
H	 0.8146015515	-0.6813362379	 0.0666096876	 0.094974
H	-1.0040917456	-2.6679250944	-0.8582873252	 0.094611
H	-1.3805409054	-3.826203628	 1.356306612	 0.113757
H	-0.8951688738	-2.2950948917	 2.1108930736	 0.11379
H	-3.7222159444	-3.2499052792	 1.5361292359	 0.117689
H	-3.3533844566	-1.6621063868	 2.2261719225	 0.127368
H	-3.7396635241	-2.1297243715	-0.7290298195	 0.104383
76.2731	124.8002	153.5602	171.6957	221.8213	374.4005	454.6104	506.325	661.2292	712.628	716.1263	799.9497	817.7715	843.4497	860.4756	895.535	953.6325	969.1214	1009.2184	1058.5945	1064.3647	1094.8831	1120.5467	1161.3598	1194.3444	1220.5422	1235.368	1253.6846	1275.9464	1285.7628	1313.9966	1388.8722	1424.0658	1472.1657	1492.5948	1716.2577	1896.623	3024.0699	3067.7954	3079.9131	3104.2787	3117.0858	3134.5277	3147.2514	3500.3001
N=CN1C2CCC2C1=O	[NH][CH]N1[C@H]2CC[C@H]2C1=O	
InChI=1S/C6H8N2O/c7-3-8-5-2-1-4(5)6(8)9/h3-5,7H,1-2H2	InChI=1S/C6H8N2O/c7-3-8-5-2-1-4(5)6(8)9/h3-5,7H,1-2H2/t4-,5+/m1/s1
