22
gdb 84019	2.1988	1.65625	1.35752	1.1543	82.13	-0.2165	0.0857	0.3022	1098.8117	0.195083	-404.327403	-404.31863	-404.317686	-404.360085	34.503	
C	-0.3620977161	 1.4500949126	-0.0385856208	-0.336937
N	-0.0158923819	 0.0372587984	 0.0540352922	-0.128347
C	 1.3177569517	-0.4328367706	-0.2998240251	-0.079745
C	 2.4602639473	 0.4978678494	-0.6689244566	-0.118364
O	 2.729582563	 1.5087420473	 0.2879490596	-0.236896
C	 2.8561943507	 0.9835763565	 1.598013431	-0.075603
C	 1.5171773034	 0.4569856165	 2.1200533611	-0.291526
C	 0.8417140701	-0.491060572	 1.1228230582	 0.318439
C	 0.3605787003	-1.8032443733	 1.7087029081	-0.454494
H	 0.4579791096	 2.1473975937	 0.1703519674	 0.128867
H	-0.7282308954	 1.6469097332	-1.0518269112	 0.11868
H	-1.1868431373	 1.6556655447	 0.6522619309	 0.11651
H	 1.323977211	-1.3512495808	-0.8891334247	 0.080551
H	 3.3612110631	-0.1204334174	-0.8270177784	 0.093587
H	 2.2522562665	 1.0227944581	-1.6080657475	 0.113464
H	 3.6093560046	 0.1775442435	 1.6086282982	 0.087324
H	 3.2305066928	 1.8018265278	 2.2201446361	 0.106456
H	 1.6855096452	-0.0722798469	 3.064002563	 0.099304
H	 0.8567533645	 1.3006880677	 2.3514900507	 0.110577
H	-0.3601136941	-1.625957767	 2.5161081687	 0.115464
H	-0.1325013257	-2.4069016782	 0.9430677005	 0.123673
H	 1.1955081869	-2.3772269033	 2.1273465388	 0.109016
146.1901	179.738	201.9033	224.5664	235.118	281.0372	323.8109	350.519	425.7573	461.912	481.1084	552.0977	674.9618	733.9586	743.0151	803.6435	859.1584	917.7001	960.4258	997.517	1017.5484	1043.1323	1055.884	1120.7041	1129.0253	1143.1895	1152.4665	1171.8963	1181.4697	1234.7466	1269.997	1278.4438	1318.6733	1335.7007	1367.7053	1383.2919	1408.7181	1417.9708	1429.2714	1461.7225	1482.6494	1486.6207	1489.9768	1493.9111	1495.6002	1502.9072	1519.582	2954.6212	2964.2062	3016.8413	3022.9028	3037.5831	3060.7212	3075.8154	3082.4686	3083.3496	3084.9314	3088.4721	3091.4548	3121.153
CN1C2COCCC12C	CN1[C@H]2COCC[C@@]12C	
InChI=1S/C7H13NO/c1-7-3-4-9-5-6(7)8(7)2/h6H,3-5H2,1-2H3	InChI=1S/C7H13NO/c1-7-3-4-9-5-6(7)8(7)2/h6H,3-5H2,1-2H3/t6-,7+,8?/m0/s1
