15
gdb 39012	3.36218	1.91381	1.35858	2.8735	71.69	-0.2117	-0.0223	0.1894	899.3086	0.115287	-416.796994	-416.790634	-416.78969	-416.827363	26.15	
C	 0.0349539212	 1.5575008053	 0.0099486973	-0.187979
N	 1.4522302898	 1.9760292071	 0.1799406238	-0.348904
C	 2.1224808033	 0.897029623	 0.2681235785	 0.401765
N	 3.4712523073	 0.6028290599	 0.2495300057	-0.401726
C	 3.588071413	-0.7679415903	-0.0715150828	-0.013892
C	 2.4050967336	-1.4159877146	-0.1008586536	-0.347482
C	 1.3850805127	-0.4066584308	 0.234107565	 0.426659
O	 0.4058334275	-0.5157627113	 1.2903579099	-0.293674
C	-0.011576457	 0.0217917686	 0.0269100362	-0.103532
H	-0.5867682413	 1.9722094882	 0.8109059015	 0.130072
H	-0.3363543855	 1.9626336714	-0.9389830901	 0.113388
H	 4.1720726914	 1.2815529881	-0.0003019556	 0.263216
H	 4.5754799893	-1.1734466491	-0.2432575381	 0.135644
H	 2.2589721222	-2.4741632716	-0.245124004	 0.119556
H	-0.7668604177	-0.5461780037	-0.5084941238	 0.106888
234.5947	235.6169	290.4712	424.4247	451.5791	470.9013	569.1837	624.915	674.667	703.84	738.1522	795.1946	840.1538	857.5646	885.8636	910.9828	936.2545	971.4347	1018.3757	1051.1531	1066.7091	1108.512	1164.2131	1201.0154	1269.5362	1301.0516	1323.2753	1360.9178	1397.8138	1452.5652	1469.3141	1620.4072	1752.964	3037.7524	3078.9144	3160.258	3236.1901	3268.497	3649.8518
C1N=C2NC=CC22OC12	C1N=C2NC=C[C@]32O[C@@H]13	
InChI=1S/C6H6N2O/c1-2-7-5-6(1)4(9-6)3-8-5/h1-2,4H,3H2,(H,7,8)	InChI=1S/C6H6N2O/c1-2-7-5-6(1)4(9-6)3-8-5/h1-2,4H,3H2,(H,7,8)/t4-,6-/m0/s1
