14
gdb 18785	3.94007	2.34924	1.9398	3.462	60.56	-0.2323	-0.0317	0.2006	704.8496	0.108327	-382.496435	-382.490703	-382.489759	-382.52623	22.651	
O	 0.0202675908	 0.027548941	-0.1179576165	-0.305057
C	-0.0094905371	 1.2158067661	 0.0117186185	 0.43512
C	-1.1454362968	 2.2543633692	 0.0087452955	-0.189872
C	-1.2946085639	 2.9541470508	 1.3972990287	-0.242568
C	 0.0134365963	 3.7293256189	 1.1312125498	 0.107939
O	 1.1792182884	 2.8958931982	 1.3419424568	-0.297985
C	 1.0734115117	 2.3254873641	 0.0152929489	-0.024948
C	-0.0502251714	 3.3372950414	-0.3710728189	-0.09706
H	-2.0435679792	 2.0172998275	-0.5599801992	 0.096766
H	-2.1557916589	 3.6301793208	 1.3835462661	 0.115004
H	-1.3337226819	 2.3305867425	 2.2935646883	 0.122568
H	 0.1492317488	 4.7262458368	 1.5532207087	 0.088843
H	 2.0408931068	 2.165485415	-0.4637147387	 0.09746
H	-0.0641123136	 3.9844181776	-1.2416932081	 0.093789
133.2171	257.986	396.7434	430.0415	538.9792	665.8858	753.2329	784.2811	810.1688	831.5885	847.2099	914.4561	926.8062	978.0196	986.1739	996.1652	1021.5215	1088.1763	1110.4961	1126.0018	1151.868	1183.1708	1191.5634	1232.4685	1256.1278	1283.0486	1296.4627	1323.9831	1471.4263	1887.9767	3050.9418	3100.263	3104.3579	3114.981	3127.8495	3176.4676
O=C1C2CC3OC1C23	O=C1[C@H]2C[C@H]3O[C@@H]1[C@@H]23	
InChI=1S/C6H6O2/c7-5-2-1-3-4(2)6(5)8-3/h2-4,6H,1H2	InChI=1S/C6H6O2/c7-5-2-1-3-4(2)6(5)8-3/h2-4,6H,1H2/t2-,3+,4-,6+/m0/s1
