20
gdb 70665	2.45237	1.47459	1.09542	3.4302	79.36	-0.2307	-0.016	0.2147	1159.0282	0.171352	-403.155857	-403.147195	-403.146251	-403.189454	32.853	
C	-0.4179604351	 1.3282502719	 0.0382759207	-0.492762
C	 0.0681966918	-0.0975020587	 0.0564626627	 0.310468
N	-0.5652203505	-1.0939457784	 0.9563679118	-0.374725
C	 0.8473853986	-0.7011474578	 1.1672535421	-0.0795
C	 1.8316188361	-1.7109494031	 0.6147259798	-0.215562
C	 1.2857768573	-2.0281699463	-0.7984961767	-0.251479
C	 0.5292833022	-0.7494175558	-1.2551950457	-0.098168
C	-0.6340881354	-1.0684172225	-2.1653532368	 0.149164
O	-0.7944956058	-0.6161688856	-3.2711758845	-0.259264
H	 0.3245252691	 1.9906261576	-0.4198768033	 0.130241
H	-1.3449638148	 1.427322488	-0.5376762204	 0.135615
H	-0.6114943293	 1.6898216133	 1.0536319548	 0.115062
H	-1.1534572531	-0.6038981413	 1.6265850825	 0.228319
H	 1.0983113643	-0.1196676441	 2.0494674643	 0.085634
H	 2.8254203891	-1.2508177872	 0.5607806614	 0.102566
H	 1.9155570695	-2.610336434	 1.232495982	 0.10838
H	 2.070120396	-2.3086996223	-1.5048431236	 0.108104
H	 0.5813378676	-2.8620733909	-0.7388811632	 0.124013
H	 1.1924792611	-0.057269965	-1.7848619583	 0.085103
H	-1.3697307389	-1.772642818	-1.7151395697	 0.088791
56.2471	102.8366	200.5152	227.7318	246.7105	286.0643	351.2551	409.9616	452.291	488.1437	577.1022	648.5899	711.3772	829.2138	836.7749	896.7759	911.9428	925.045	960.757	983.4884	1023.6705	1041.0712	1061.8493	1083.9047	1118.7206	1125.6944	1144.7625	1194.2241	1240.8788	1265.8249	1284.0658	1302.5503	1339.0034	1346.9184	1357.8504	1416.6112	1419.6825	1441.9367	1480.5146	1484.4284	1495.4128	1500.1628	1825.0659	2882.3514	3026.9461	3039.0402	3058.5494	3066.2196	3085.5393	3091.1816	3099.9109	3116.055	3155.6759	3495.783
CC12NC1CCC2C=O	C[C@]12N[C@H]1CC[C@H]2C=O	
InChI=1S/C7H11NO/c1-7-5(4-9)2-3-6(7)8-7/h4-6,8H,2-3H2,1H3	InChI=1S/C7H11NO/c1-7-5(4-9)2-3-6(7)8-7/h4-6,8H,2-3H2,1H3/t5-,6-,7+/m0/s1
