14
gdb 132443	3.16304	1.35957	0.95205	6.2995	70.84	-0.1984	-0.0251	0.1733	1123.04	0.102077	-478.036802	-478.029242	-478.028298	-478.068694	29.174	
N	 0.0574872758	 1.4041544941	 0.163532062	-0.581384
C	-0.0481515605	 0.0230734879	 0.0491969264	 0.439203
C	-1.2234987609	-0.6787495848	 0.0204344516	-0.244541
C	-1.1662616601	-2.0971507317	-0.0126523126	-0.178726
C	 0.0206246847	-2.7576063881	-0.0374978976	 0.113865
F	 0.0765695491	-4.0891220051	-0.0742759771	-0.067359
C	 1.2954972823	-2.0691756925	-0.0137303312	 0.337041
O	 2.4084363583	-2.5631308139	-0.021191856	-0.393167
N	 1.1320716	-0.6674646832	 0.0331213997	-0.419253
H	 0.7906803888	 1.8231597779	-0.3941870091	 0.257081
H	-0.8196550559	 1.8844443284	 0.0217856004	 0.262443
H	-2.1714603609	-0.1588125414	 0.0154481055	 0.096866
H	-2.0833812318	-2.67641494	-0.030453097	 0.120378
H	 2.0076709611	-0.1683055876	 0.119182325	 0.257553
133.3392	181.2648	259.0116	306.2088	330.1854	376.9887	419.4281	453.6843	536.7306	595.5658	629.6531	642.9804	698.9001	747.668	761.1073	775.5974	793.2453	935.068	1009.9531	1097.4498	1138.596	1180.5319	1276.4203	1290.32	1333.5429	1427.6242	1516.2861	1627.268	1654.6986	1681.9575	1787.1682	3191.5326	3223.1967	3548.0989	3595.1927	3649.9898
NC1=CC=C(F)C(=O)N1	Nc1ccc(F)c(=O)[nH]1	
InChI=1S/C5H5FN2O/c6-3-1-2-4(7)8-5(3)9/h1-2H,(H3,7,8,9)	InChI=1S/C5H5FN2O/c6-3-1-2-4(7)8-5(3)9/h1-2H,(H3,7,8,9)
