20
gdb 122616	3.82492	0.68921	0.62478	3.4732	78.28	-0.2402	0.0389	0.2792	1789.3735	0.1704	-440.301824	-440.29191	-440.290966	-440.338275	34.459	
O	 0.031497277	 1.4132124456	 0.2701758591	-0.419822
C	 0.0430557425	 0.0264794002	-0.0276423361	-0.068919
C	-1.3863539747	-0.4856321467	 0.0947706537	-0.177436
C	-1.4888915326	-1.9941631144	-0.1603698392	-0.182258
N	-2.8371322197	-2.4987214032	-0.0621484444	-0.066902
C	-3.7683913497	-2.6390024712	 1.0622263354	-0.173403
C	-4.7682604143	-3.2902198877	 0.0641961659	-0.370752
C	-3.6630123186	-3.0771468601	-0.9970893653	 0.404652
O	-3.5151572879	-3.3042739697	-2.1698824495	-0.373192
H	 0.9255338482	 1.7516017996	 0.1660715885	 0.287366
H	 0.4196008775	-0.1620161252	-1.0462892652	 0.09187
H	 0.6979661956	-0.5256333032	 0.6673168613	 0.084862
H	-1.7543105711	-0.2462788152	 1.0995019213	 0.109153
H	-2.0229489614	 0.0516554064	-0.6161984265	 0.120362
H	-1.1514617393	-2.2376975436	-1.17368102	 0.139628
H	-0.8388616228	-2.5385919222	 0.5403158813	 0.105216
H	-3.4048353895	-3.2990881216	 1.8582604822	 0.109403
H	-4.0926693427	-1.6891854985	 1.5000207436	 0.114711
H	-5.0117961506	-4.3365835563	 0.2558547122	 0.132445
H	-5.685228016	-2.7279161431	-0.1199457383	 0.133018
42.1572	69.7926	77.9452	119.521	186.3314	207.6332	245.6713	265.5515	312.4866	452.1674	520.6355	566.2833	739.3666	762.9702	785.778	822.4435	872.6497	947.2327	1012.317	1026.5448	1042.0727	1048.633	1084.2092	1099.3239	1152.2335	1182.9138	1186.9003	1210.8946	1240.8943	1257.6255	1285.3208	1312.4659	1320.2887	1342.423	1404.6034	1426.9039	1463.5868	1466.2696	1480.843	1500.7256	1528.7153	1531.3743	1875.0625	2956.7016	2983.8124	2996.9269	3030.2226	3040.9672	3073.9432	3074.2195	3088.8612	3095.1495	3146.2308	3830.267
OCCCN1CCC1=O	OCCCN1CCC1=O	
InChI=1S/C6H11NO2/c8-5-1-3-7-4-2-6(7)9/h8H,1-5H2	InChI=1S/C6H11NO2/c8-5-1-3-7-4-2-6(7)9/h8H,1-5H2
