18
gdb 93991	3.0364	1.39184	0.97958	5.4311	76.29	-0.2253	-0.0086	0.2168	1183.3024	0.149349	-435.312028	-435.303321	-435.302377	-435.345615	31.312	
C	-0.0659422819	 1.3957589472	-0.0070110213	-0.332391
N	-0.0073967198	-0.0313992868	 0.2172806909	-0.108396
C	-1.1339214755	-0.8745166411	-0.1368685322	-0.172478
C	-0.5922583928	-2.2780213697	 0.1667573498	-0.19112
N	 0.8471413596	-2.0919845865	-0.0190823744	-0.137978
C	 1.7288582379	-3.1240234922	-0.1825784054	 0.154587
O	 2.931321331	-3.0216908273	-0.2906370308	-0.313803
C	 1.1922587112	-0.7088336527	 0.0448595206	 0.468248
N	 2.331063152	-0.1602070441	-0.0292998603	-0.596379
H	 0.8894339533	 1.8270381957	 0.292482353	 0.172436
H	-0.241753249	 1.6414436189	-1.0658038028	 0.114273
H	-0.8712744764	 1.8336054379	 0.5910794804	 0.119973
H	-2.0175628288	-0.6339939001	 0.4615737832	 0.120416
H	-1.4050645211	-0.7720386882	-1.2013064332	 0.106549
H	-0.8166695455	-2.5686049568	 1.1998188974	 0.129951
H	-0.9863220057	-3.0419131987	-0.507250533	 0.130204
H	 1.206635151	-4.10063025	-0.2143732005	 0.085197
H	 3.0592098404	-0.8662507755	-0.1030593315	 0.250711
79.8391	133.332	159.2701	199.7238	228.3216	245.2986	259.8511	326.5631	468.0144	504.1142	608.7351	718.81	728.8203	763.2278	857.7697	886.1388	963.5421	993.5848	1026.5875	1069.7803	1120.0655	1161.3285	1171.5846	1216.2383	1234.6612	1240.4522	1302.7917	1322.7142	1352.9004	1412.8441	1431.6825	1447.1069	1457.8765	1492.2094	1507.2185	1518.6071	1533.2717	1731.3112	1816.3133	2937.2571	2959.5047	2988.6258	3032.7882	3075.2353	3075.9566	3103.6593	3155.0071	3536.1306
CN1CCN(C=O)C1=N	CN1CCN(C=O)[C]1[NH]	
InChI=1S/C5H9N3O/c1-7-2-3-8(4-9)5(7)6/h4,6H,2-3H2,1H3	InChI=1S/C5H9N3O/c1-7-2-3-8(4-9)5(7)6/h4,6H,2-3H2,1H3
