21
gdb 54302	2.33846	1.49721	1.07812	2.845	83.36	-0.2401	-0.0109	0.2293	1205.8392	0.181402	-387.083843	-387.074589	-387.073645	-387.117882	35.432	
C	-0.0903836778	 1.6089824467	 0.1436070584	-0.492032
C	 0.0268212595	 0.1002116523	-0.0470310324	 0.32458
O	 1.127498705	-0.3938839887	-0.1897728623	-0.323801
C	-1.2141174737	-0.7430147411	-0.0223736277	 0.249476
C	-2.4571539756	-0.1656881266	 0.6537295712	-0.309778
C	-2.4088527055	-0.2275201099	-0.835519176	-0.300044
C	-1.0811038119	-2.24536806	 0.0342683599	-0.0482
C	-0.0698534904	-3.0610716943	-0.7351719488	-0.275821
C	 0.0033016559	-2.9922803272	 0.7719311081	-0.279922
H	 0.8296262491	 2.0696245214	-0.2177674168	 0.144557
H	-0.9509591393	 2.0565923969	-0.3585790857	 0.131246
H	-0.1860204715	 1.8281879158	 1.2135537665	 0.147573
H	-3.0807530858	-0.8776962387	 1.1826799296	 0.124471
H	-2.3865310871	 0.8021038932	 1.1347253809	 0.119532
H	-2.3010499625	 0.6927825853	-1.3968525916	 0.122323
H	-2.9868309434	-0.9901453188	-1.3454738014	 0.127818
H	-2.0618532236	-2.7117398722	 0.1011781901	 0.071597
H	-0.4178632669	-3.9785862741	-1.1980198502	 0.098779
H	 0.6998933075	-2.5323961356	-1.2798897166	 0.135947
H	 0.8220031532	-2.4217790087	 1.189425234	 0.131416
H	-0.2920153553	-3.8612135859	 1.3504620009	 0.100282
65.9176	95.6783	143.5223	207.5058	235.7539	292.4263	294.8306	349.7274	444.7996	464.3451	510.7575	613.534	643.4839	765.446	789.2148	815.4161	833.2955	853.8431	916.545	930.0611	957.8403	981.9823	1001.183	1046.5438	1056.0717	1066.4478	1082.2836	1090.9202	1092.8908	1147.354	1172.2356	1193.5514	1199.9421	1225.8355	1269.0953	1366.737	1389.7269	1424.3863	1455.2775	1459.7068	1474.786	1483.7434	1499.5543	1503.0727	1772.2713	3043.6512	3112.6994	3117.1014	3139.5924	3142.7868	3144.6431	3145.7465	3154.8081	3221.2472	3234.7491	3238.6025	3251.0787
CC(=O)C1(CC1)C1CC1	CC(=O)C1(CC1)C1CC1	
InChI=1S/C8H12O/c1-6(9)8(4-5-8)7-2-3-7/h7H,2-5H2,1H3	InChI=1S/C8H12O/c1-6(9)8(4-5-8)7-2-3-7/h7H,2-5H2,1H3
