14
gdb 66716	2.89998	1.71848	1.308	1.2703	73.44	-0.2221	0.0091	0.2312	949.8337	0.098866	-399.38064	-399.373358	-399.372414	-399.412138	28.843	
O	-0.1050409471	 1.3677653779	 0.0303189956	-0.437177
C	 0.0158945756	 0.0152056486	 0.024730361	 0.312128
C	 0.9268741769	-1.0073766392	 0.7807026633	-0.153457
C	-0.1855765656	-1.9925800859	 0.770152045	-0.042071
C	-1.1096497481	-0.9988397223	 0.0305605281	-0.224242
C	-0.0812249723	-1.0034826692	-1.1115110849	 0.27296
C	-0.2076969089	-0.8655486743	-2.5060042883	 0.027802
C	-0.3036658939	-0.7250190341	-3.6988279814	-0.367166
N	 0.817379762	-1.9946505269	-0.3517854329	-0.207728
H	 0.6070920299	 1.7489739186	-0.4981056202	 0.302276
H	 1.8204309692	-0.9230413538	 1.387596888	 0.107485
H	-0.3807913043	-2.8690843493	 1.3760080076	 0.106201
H	-2.177307235	-0.8422441992	-0.0141851915	 0.11748
H	-0.3966016385	-0.6129857507	-4.7505809594	 0.185509
109.5427	157.7168	278.2413	333.1848	371.4281	466.284	481.148	548.9258	552.8574	641.5083	683.2536	733.3233	763.7006	773.2064	803.7422	845.7934	870.5892	906.7784	939.9119	958.2635	999.005	1018.0478	1087.841	1131.6431	1190.1185	1225.2361	1298.1724	1303.1261	1344.6621	1480.0743	2221.946	3178.1209	3191.6433	3233.5942	3501.2826	3773.2824
OC12C3C4C1C2(C#C)N34	O[C@@]12[C@H]3[C@H]4[C@@H]1[C@]2(C#C)N34	
InChI=1S/C7H5NO/c1-2-6-4-3-5(8(3)6)7(4,6)9/h1,3-5,9H	InChI=1S/C7H5NO/c1-2-6-4-3-5(8(3)6)7(4,6)9/h1,3-5,9H/t3-,4-,5-,6+,7-,8?/m1/s1
