14
gdb 30402	4.12237	1.19341	0.93077	5.0348	71.1	-0.2416	-0.0415	0.2001	1185.9261	0.101159	-470.033421	-470.025551	-470.024606	-470.066319	28.413	
C	 0.0579495382	 1.4409764314	 0.0676182594	-0.328224
N	 0.180902868	 0.0000548147	 0.0690718414	-0.27777
C	 0.6304491256	-0.6094394716	-0.9465890742	 0.38916
N	 1.0419899626	 0.0525568887	-2.1439407256	-0.279708
C	 1.4743367867	-0.6483749399	-3.0944168467	 0.116925
O	 1.5935558919	-2.021789927	-3.0969551214	-0.241224
C	 1.1825921953	-2.6076657019	-1.9189916239	 0.492119
O	 1.3180847874	-3.9286934288	-1.9752648966	-0.382844
N	 0.7335801081	-2.012932539	-0.9025792289	-0.339554
H	 0.6417690262	 1.8428873783	 0.9045911189	 0.126289
H	 0.3780106355	 1.9290013434	-0.8592248064	 0.124823
H	-0.987893869	 1.703181714	 0.2684395328	 0.126287
H	 1.8102432768	-0.23976717	-4.0428364257	 0.156045
H	 1.6769594567	-4.1684421124	-2.8395778831	 0.317676
71.0178	123.8471	157.6248	245.278	300.7361	406.0624	408.1102	432.4707	505.7161	562.8362	644.9462	715.	770.3956	788.1954	893.0084	929.9855	950.467	1035.4104	1077.7993	1130.855	1149.0467	1222.8524	1298.542	1357.9967	1404.4058	1431.9873	1488.92	1493.1577	1690.399	1735.4275	1818.3539	3014.3693	3068.0053	3091.038	3190.18	3799.2054
CN=C1N=COC(O)=N1	CN=c1ncoc(O)n1	
InChI=1S/C4H5N3O2/c1-5-3-6-2-9-4(8)7-3/h2H,1H3,(H,5,7,8)	InChI=1S/C4H5N3O2/c1-5-3-6-2-9-4(8)7-3/h2H,1H3,(H,5,7,8)
