17
gdb 123915	3.55465	1.65122	1.17148	4.397	73.52	-0.2101	0.0333	0.2434	1012.9152	0.141898	-414.230116	-414.223311	-414.222367	-414.261334	26.692	
C	-0.0563768512	 1.5054473938	 0.003811327	-0.216914
C	 1.3523853655	 2.1047433655	 0.1140712818	-0.172621
N	 1.95516296	 1.6730219356	 1.3728430936	-0.396125
C	 1.8451934822	 0.3356918328	 1.6701345744	 0.468341
N	 2.5476156515	-0.3638723927	 2.5463246858	-0.381967
C	 1.9685711966	-1.5971540982	 2.4484929496	 0.029778
N	 0.9761244636	-1.708869727	 1.5871651272	-0.27671
N	 0.9026413992	-0.4355224242	 1.0842744729	-0.014841
C	-0.0128429846	-0.0290543282	 0.0373046203	-0.145663
H	-0.6604956397	 1.8747735129	 0.8389099062	 0.129207
H	-0.5302807942	 1.8358242451	-0.9241695119	 0.115807
H	 1.9533871785	 1.8002615937	-0.7587394497	 0.106615
H	 1.2982745983	 3.1967072975	 0.1133278495	 0.119016
H	 2.8560738569	 2.0625058198	 1.6076156372	 0.25693
H	 2.2955870592	-2.4392412658	 3.0407972582	 0.118473
H	-0.9994040853	-0.4507850747	 0.2470052076	 0.13624
H	 0.3232652335	-0.4352050859	-0.9249781597	 0.124435
122.2218	170.9513	288.1031	340.6985	399.0428	451.4292	517.9491	576.2924	660.7686	715.4175	748.3467	763.5404	880.1514	899.0307	904.6268	958.5894	987.1803	1006.7842	1106.1091	1129.0753	1168.3687	1201.5127	1220.3071	1239.9047	1285.6147	1291.0479	1308.1737	1366.5928	1369.3739	1386.2449	1414.4065	1476.5123	1489.1771	1502.4111	1521.4311	1573.7573	1631.9502	2967.0489	3027.3343	3056.3954	3086.9584	3093.9606	3110.4771	3254.0812	3616.6598
C1CNC2=NC=NN2C1	C1CNc2ncnn2C1	
InChI=1S/C5H8N4/c1-2-6-5-7-4-8-9(5)3-1/h4H,1-3H2,(H,6,7,8)	InChI=1S/C5H8N4/c1-2-6-5-7-4-8-9(5)3-1/h4H,1-3H2,(H,6,7,8)
