19
gdb 39135	3.47234	1.33066	1.20364	1.3984	73.67	-0.2364	0.0685	0.3049	1079.3545	0.160635	-422.983612	-422.976069	-422.975125	-423.016191	29.287	
C	-0.0406473064	 1.4621462484	-0.0230356023	-0.346317
C	 1.3048149585	 0.7884960519	-0.0167470957	 0.121012
O	 1.9977427512	 0.6760053719	 1.1995307086	-0.254915
C	 1.1051635687	 0.1130999723	 2.1562274004	-0.171854
C	 0.065298987	-0.7203369633	 1.3777788189	 0.279652
C	 0.2357143447	-2.261808374	 1.3847372765	-0.124534
O	-0.99896559	-2.4435687715	 2.1028164792	-0.271588
C	-1.2625317025	-1.0272949222	 2.1093916372	-0.125095
C	 0.0626526038	-0.0576326806	 0.0166977196	-0.158312
H	-0.3717231449	 1.9997780031	 0.8589956247	 0.11979
H	-0.367425214	 1.9009484946	-0.9595499917	 0.117873
H	 1.9762264345	 0.8621050519	-0.8634731059	 0.105313
H	 1.694014056	-0.4772068398	 2.8641927465	 0.117077
H	 0.59711861	 0.9074190665	 2.7241633204	 0.097827
H	 0.211486014	-2.7400634991	 0.3965597462	 0.098697
H	 1.1002143276	-2.6439835643	 1.9427762444	 0.101282
H	-1.3450820598	-0.6292042717	 3.1302289146	 0.096755
H	-2.173478328	-0.7711659845	 1.5536875029	 0.103096
H	-0.2755963303	-0.6324887395	-0.8375888645	 0.094242
54.3333	118.26	208.5207	302.3119	354.9658	384.8221	451.2646	491.6991	698.7684	733.7363	794.7738	828.5097	862.7171	887.6107	936.4275	958.2364	960.4945	991.5723	999.2247	1026.0792	1040.5969	1044.7608	1060.8825	1097.6537	1139.4693	1152.0819	1158.7079	1162.0195	1185.4096	1201.1661	1245.8046	1263.9597	1308.2925	1323.666	1373.4662	1388.7078	1399.7475	1475.2893	1510.4155	1521.9982	1537.5347	2983.2739	2994.9095	3006.9291	3044.6938	3045.6724	3082.0782	3132.9428	3173.8177	3190.9933	3219.1617
C1C2OCC3(COC3)C12	C1[C@H]2OCC3(COC3)[C@@H]12	
InChI=1S/C7H10O2/c1-5-6(1)9-4-7(5)2-8-3-7/h5-6H,1-4H2	InChI=1S/C7H10O2/c1-5-6(1)9-4-7(5)2-8-3-7/h5-6H,1-4H2/t5-,6+/m0/s1
