21
gdb 111195	2.53737	1.21825	0.97405	2.4258	83.84	-0.245	-0.0249	0.2201	1304.8422	0.182132	-387.046988	-387.038142	-387.037198	-387.081075	33.233	
C	 0.0386891478	 1.5041234273	 0.1744809717	-0.374679
C	 0.0066398422	-0.0255440201	 0.2888065208	-0.239074
C	-1.3901455745	-0.5875493894	 0.0522270486	 0.074065
C	-2.0051604731	-0.7036992983	-1.3837622196	-0.080533
C	-1.084843286	-1.9330760236	-1.6331463621	-0.23794
C	-1.6438800897	-2.1170249658	-0.1886278834	-0.082094
C	-3.0319388085	-1.7394047706	-0.7794486881	-0.059542
C	-4.1697093634	-1.2744579765	 0.0824592801	 0.11602
O	-4.1746401325	-1.2270135007	 1.2885321043	-0.247731
H	 1.0354655832	 1.8978566534	 0.3954615075	 0.112539
H	-0.2331638045	 1.8332141065	-0.8344186279	 0.114584
H	-0.6658378371	 1.9675544861	 0.8737782287	 0.118669
H	 0.7457333882	-0.4550719134	-0.3947045323	 0.096033
H	 0.3228853747	-0.3187346505	 1.2984407206	 0.102064
H	-2.0705661611	-0.1522462188	 0.7870674718	 0.090553
H	-2.2433916567	 0.0998954863	-2.082777666	 0.075172
H	-1.428093006	-2.6511340847	-2.3831066697	 0.091189
H	-0.017284477	-1.7445995753	-1.7398099719	 0.100445
H	-1.441702236	-2.9350751428	 0.5033636452	 0.078607
H	-3.4310358336	-2.4265461831	-1.5369814663	 0.080409
H	-5.0751065663	-0.9754012559	-0.4980582122	 0.071244
62.5393	96.2186	151.4755	164.9188	212.0845	273.8675	344.2793	389.143	464.5238	551.2047	706.7954	740.6658	763.4029	801.2884	833.8224	866.0131	891.9557	908.0953	961.0346	1012.9476	1018.6412	1023.4452	1046.0373	1057.0591	1081.8681	1102.7555	1127.2478	1138.4031	1167.7802	1187.1449	1206.9589	1227.162	1234.8507	1263.0979	1296.8711	1351.0636	1385.9734	1410.4769	1427.9302	1448.9144	1486.9508	1499.0605	1506.3669	1531.5173	1816.0385	2845.9489	3025.128	3026.7308	3031.1456	3060.7084	3068.7331	3090.2917	3098.0521	3101.5551	3104.9993	3111.9047	3141.5713
CCC1C2CC1C2C=O	CC[C@H]1[C@H]2C[C@@H]1[C@H]2C=O	
InChI=1S/C8H12O/c1-2-5-6-3-7(5)8(6)4-9/h4-8H,2-3H2,1H3	InChI=1S/C8H12O/c1-2-5-6-3-7(5)8(6)4-9/h4-8H,2-3H2,1H3/t5-,6+,7-,8-
