21
gdb 107284	3.37016	1.25148	1.15486	1.7356	81.71	-0.244	0.0775	0.3215	1185.9632	0.182432	-387.039577	-387.031233	-387.030289	-387.072586	32.693	
C	-0.2310923145	 1.5159259767	 0.1860325293	-0.383612
C	 0.1400749371	 0.0358583248	 0.0322607064	-0.303501
C	 0.7808027896	-0.2894299526	-1.2831467484	 0.421233
O	 1.5480885145	-1.5013021199	-1.3629840068	-0.286906
C	 2.184232933	-0.2743466385	-1.7533874929	-0.06162
C	 1.7555453834	 0.0418298421	-3.2042590681	-0.049239
C	 1.4731687055	-1.1742185479	-4.136184934	-0.221942
C	-0.010716916	-1.2044648043	-3.6485441747	-0.228096
C	 0.2682322258	 0.0156633182	-2.7216959302	-0.102438
H	 0.6517387762	 2.156399594	 0.0909970398	 0.118893
H	-0.9551139067	 1.8299404439	-0.5723954667	 0.121855
H	-0.6785681352	 1.7017046731	 1.1666586831	 0.117465
H	 0.8322769436	-0.2687591828	 0.8251571199	 0.113086
H	-0.7584514865	-0.5851866074	 0.1504437096	 0.107817
H	 3.1123479485	-0.0313375822	-1.2451272582	 0.09449
H	 2.198841096	 0.9417754567	-3.6311620434	 0.06833
H	 1.5804526805	-0.9344498601	-5.1967390245	 0.094294
H	 2.0553260084	-2.0702088	-3.9143157684	 0.109194
H	-0.7359448564	-0.9876424393	-4.4364414432	 0.093143
H	-0.3103846783	-2.1173360339	-3.130909953	 0.108167
H	-0.3681796485	 0.8960533194	-2.812004046	 0.069385
70.3105	131.3204	186.8858	196.262	261.1215	294.982	403.7985	504.8023	543.5877	618.3734	702.9158	732.8992	771.3623	801.3943	817.1045	861.3428	877.1108	902.9305	947.4503	957.6529	960.1333	999.6848	1022.8257	1041.5069	1074.7957	1101.0928	1113.8107	1140.9485	1177.8502	1213.6476	1231.3541	1244.7367	1252.9756	1270.159	1280.9813	1298.3805	1318.0016	1350.5373	1409.8108	1454.3579	1461.2942	1480.7112	1483.4918	1498.6408	1508.9145	3018.0652	3038.4582	3063.4836	3066.4456	3070.1419	3102.4681	3107.9872	3110.7443	3114.4287	3116.7664	3133.2213	3162.0681
CCC12OC1C1CCC21	CC[C@]12O[C@H]1[C@H]1CC[C@@H]21	
InChI=1S/C8H12O/c1-2-8-6-4-3-5(6)7(8)9-8/h5-7H,2-4H2,1H3	InChI=1S/C8H12O/c1-2-8-6-4-3-5(6)7(8)9-8/h5-7H,2-4H2,1H3/t5-,6+,7-,8+/m0/s1
