16
gdb 127232	4.39394	1.03982	0.84657	2.0282	74.18	-0.2429	-0.0056	0.2373	1309.5856	0.12589	-434.125984	-434.117314	-434.11637	-434.160466	30.785	
C	 0.0373939947	 1.414756792	 0.0500724059	-0.319883
N	 0.0218954608	-0.0322417778	-0.0086593003	 0.051757
C	-0.0757727876	-0.818745197	-1.0974722352	-0.084277
C	-0.0379453007	-2.1322014019	-0.6567841571	 0.091095
C	 0.0819075677	-2.0128797762	 0.7486009992	-0.106527
N	 0.1183338255	-0.7443988469	 1.1382824224	-0.268908
C	-0.1234816202	-3.3022545816	-1.5528209282	 0.309713
N	 0.0267653624	-4.5280213274	-0.9495101926	-0.544134
O	-0.3419463537	-3.1926792106	-2.7476813299	-0.371386
H	 0.9861888092	 1.7655264683	 0.4641895804	 0.15369
H	-0.0870206273	 1.8104513482	-0.958734041	 0.145668
H	-0.7779408392	 1.7707830515	 0.6842913474	 0.155795
H	-0.1645123436	-0.4258034878	-2.097058491	 0.162504
H	 0.1265154252	-2.7928952266	 1.4956873354	 0.111176
H	 0.4749808566	-4.6046905534	-0.0520638925	 0.255667
H	 0.1152492002	-5.3149916827	-1.5729737729	 0.25805
42.0813	61.323	150.379	160.6513	254.0881	337.298	346.4335	399.9064	511.931	528.3952	627.3355	646.9069	673.1846	735.669	778.2211	847.2314	887.3974	1000.1152	1012.6596	1076.354	1089.3775	1142.7067	1153.2369	1229.5828	1302.7729	1334.9836	1401.5647	1433.0474	1458.246	1474.3831	1485.6576	1533.5321	1590.261	1622.4555	1773.6134	3055.6686	3124.699	3153.7081	3232.9661	3276.9516	3591.9508	3720.3812
CN1C=C(C=N1)C(N)=O	Cn1cc(cn1)C(=O)N	
InChI=1S/C5H7N3O/c1-8-3-4(2-7-8)5(6)9/h2-3H,1H3,(H2,6,9)	InChI=1S/C5H7N3O/c1-8-3-4(2-7-8)5(6)9/h2-3H,1H3,(H2,6,9)
