21
gdb 83739	2.58012	1.57104	1.31349	1.4113	81.62	-0.2323	0.0851	0.3174	1082.0894	0.183186	-387.062468	-387.054127	-387.053183	-387.095252	32.752	
C	-0.4229329402	 1.4027366459	 0.2493621602	-0.405981
C	-0.0180579364	-0.046410452	 0.1126513621	-0.04276
C	 1.3311026061	-0.454270047	-0.4219025122	 0.075545
O	 2.3138218199	 0.5531103063	-0.4768331279	-0.26274
C	 2.9719573923	 0.6182829113	 0.7904072764	-0.142415
C	 1.9672615852	 0.0970407631	 1.8216112221	 0.343833
C	 2.4124484879	-0.3006020175	 3.2017524477	-0.336398
C	 1.5476883247	 0.9227607086	 3.0142879569	-0.301385
C	 0.9993673072	-0.7403121904	 1.017896855	-0.191493
H	 0.443705627	 2.0460470094	 0.4111358048	 0.130762
H	-0.9199195251	 1.7444946347	-0.6649965454	 0.115504
H	-1.1194564505	 1.5481643883	 1.0816700995	 0.1111
H	-0.8263186542	-0.7085269598	-0.1924278625	 0.0811
H	 1.4361743599	-1.2209186494	-1.1840957632	 0.090099
H	 3.8767383407	-0.0103758275	 0.7739303675	 0.092915
H	 3.2761494247	 1.6565485526	 0.9603552395	 0.105106
H	 1.9667353636	-1.1819425903	 3.6516910307	 0.113593
H	 3.4569708623	-0.1531907214	 3.4593764114	 0.11125
H	 2.0055876852	 1.8977726792	 3.1498471886	 0.109959
H	 0.5120361212	 0.8676251078	 3.3317578667	 0.115612
H	 0.7833322984	-1.746853432	 1.359101452	 0.086794
91.0735	140.2851	155.5836	230.4983	275.9528	291.8547	359.7942	490.7098	506.3331	596.7594	699.755	752.5363	771.506	786.1475	825.4245	876.7514	912.7266	937.0988	947.7611	960.1723	989.0438	1035.1386	1054.7195	1058.4771	1077.1529	1083.5549	1101.0872	1104.219	1135.0152	1150.9083	1189.9809	1217.1215	1228.0787	1272.4515	1296.2765	1325.687	1366.6546	1408.3359	1415.6614	1423.9131	1465.7336	1488.3595	1500.1956	1502.5021	1517.4027	2971.5628	3037.2469	3066.046	3091.7939	3118.9461	3120.1275	3125.8278	3136.6709	3144.73	3164.5921	3199.155	3216.1021
CC1C2OCC3(CC3)C12	C[C@H]1[C@H]2OCC3(CC3)[C@@H]12	
InChI=1S/C8H12O/c1-5-6-7(5)9-4-8(6)2-3-8/h5-7H,2-4H2,1H3	InChI=1S/C8H12O/c1-5-6-7(5)9-4-8(6)2-3-8/h5-7H,2-4H2,1H3/t5-,6+,7-/m1/s1
