22
gdb 107060	3.7553	1.05904	0.94137	2.8631	81.67	-0.2396	0.0675	0.3071	1335.2419	0.195183	-404.342934	-404.333792	-404.332848	-404.376652	35.308	
C	 0.3555805967	 1.4525337622	 0.2669674708	-0.38127
C	-0.1512122156	 0.0627531982	-0.1378357399	-0.254511
C	 0.522104962	-0.4747624032	-1.3807961902	 0.349505
C	 0.264803481	 0.1997418323	-2.7290920354	-0.281339
C	 0.7686950074	-0.8080837139	-3.7830678937	-0.290301
C	 0.646160002	-2.2011065145	-3.1155542621	 0.119664
O	 1.6501765275	-3.1211988546	-3.5228515877	-0.437046
C	 0.7616052426	-1.9252715205	-1.6301563883	-0.076778
N	 1.8589870637	-1.0573916786	-1.1762322883	-0.370622
H	 1.4366596892	 1.429428582	 0.4356258239	 0.129827
H	 0.1500012969	 2.2002119082	-0.5065333429	 0.111446
H	-0.1248013953	 1.7918879325	 1.189630633	 0.1102
H	 0.0288823271	-0.6406018588	 0.6818402254	 0.105857
H	-1.2368551065	 0.0925888618	-0.3013941822	 0.088806
H	-0.8131337846	 0.3713931211	-2.8385339786	 0.102391
H	 0.7512172615	 1.1774877728	-2.8180838216	 0.103839
H	 0.2155511706	-0.744875916	-4.7242660065	 0.097619
H	 1.8229573131	-0.6376565706	-4.0252266353	 0.110046
H	-0.3539329982	-2.62400654	-3.306785476	 0.065727
H	 1.5243948749	-3.3051008691	-4.4591414553	 0.282222
H	 0.4637403912	-2.7032273888	-0.933140708	 0.086086
H	 2.4987992128	-0.8505730726	-1.9391295311	 0.228631
74.9544	117.3362	169.9041	205.6789	248.0087	278.7371	305.8195	369.7474	403.5111	428.362	555.894	604.0979	641.4099	696.2748	784.4031	821.1478	855.0632	888.7144	943.6622	947.8182	975.9332	1017.7899	1046.2565	1054.7438	1068.9961	1078.7719	1106.8912	1117.7132	1162.2887	1190.0873	1225.5826	1255.3569	1264.6708	1287.0858	1304.0047	1317.8501	1344.8096	1360.1224	1369.4593	1406.4386	1431.2129	1445.128	1477.3329	1494.3727	1500.4706	1507.6673	1509.6745	2962.5239	3019.9524	3029.6702	3035.7333	3050.4127	3067.2272	3071.2498	3096.1788	3103.4881	3111.8484	3151.3815	3497.0376	3817.3794
CCC12CCC(O)C1N2	CC[C@]12CC[C@@H](O)[C@H]1N2	
InChI=1S/C7H13NO/c1-2-7-4-3-5(9)6(7)8-7/h5-6,8-9H,2-4H2,1H3	InChI=1S/C7H13NO/c1-2-7-4-3-5(9)6(7)8-7/h5-6,8-9H,2-4H2,1H3/t5-,6-,7+/m1/s1
