18
gdb 119444	4.66268	0.89882	0.8546	3.4275	75.4	-0.2588	0.0213	0.2801	1398.0038	0.146343	-439.041853	-439.03304	-439.032095	-439.076154	31.973	
C	-0.0925448509	 1.3671734575	 0.8329755841	-0.224308
O	-0.0927167927	-0.028882405	 1.0319806728	-0.238179
C	 0.8571182091	-0.6958634079	 0.2357448235	-0.176795
C	 0.7405810148	-2.1599401644	 0.518163323	 0.441113
C	-0.4603683447	-2.9605168196	 0.8511510812	-0.328232
C	 0.7554091918	-2.9692730925	 1.7952085603	-0.24459
C	 1.8528685467	-3.7272169327	 1.1287780613	 0.442865
N	 2.6603700986	-4.6216273131	 1.4693150105	-0.554892
O	 1.7465344842	-3.02476399	-0.0800773091	-0.314446
H	-0.3326347417	 1.6285793331	-0.209021726	 0.111268
H	-0.8568718403	 1.7876789284	 1.489994732	 0.133742
H	 0.8813346149	 1.8133933844	 1.0857992121	 0.112059
H	 0.678878336	-0.5082684965	-0.8376739799	 0.104343
H	 1.881720427	-0.3564504299	 0.460809929	 0.106813
H	-1.2992609211	-2.3926034959	 1.2386246974	 0.14376
H	-0.7066601221	-3.8424529057	 0.2684795468	 0.127704
H	 0.6998261583	-2.678272395	 2.8330914534	 0.128063
H	 3.3039439021	-4.8464979852	 0.7087495077	 0.229713
59.2269	76.1653	125.4993	168.6908	227.7633	324.9302	347.0777	364.2245	443.4157	494.8894	642.6128	704.8456	736.291	832.8535	864.0687	897.5609	931.0435	969.1684	985.0708	994.1607	1000.8274	1065.3817	1087.4537	1106.8231	1142.0228	1164.4972	1186.5235	1216.362	1229.3477	1250.8184	1290.5271	1391.836	1438.9801	1482.1653	1485.4687	1498.9855	1503.6485	1526.3724	1833.3656	2951.8043	2979.3108	2986.0127	3026.6836	3122.8521	3130.646	3229.7009	3240.2614	3478.9384
COCC12CC1C(=N)O2	COC[C@]12C[C@H]1[C]([NH])O2	
InChI=1S/C6H9NO2/c1-8-3-6-2-4(6)5(7)9-6/h4,7H,2-3H2,1H3	InChI=1S/C6H9NO2/c1-8-3-6-2-4(6)5(7)9-6/h4,7H,2-3H2,1H3/t4-,6+/m0/s1
