18
gdb 73416	2.62747	2.32055	1.59302	1.3466	72.58	-0.2484	0.0707	0.3191	877.0892	0.149913	-401.893328	-401.886715	-401.88577	-401.9239	27.476	
C	 0.0092907105	 1.4522183238	 0.0106225433	-0.499074
C	-0.0048491385	-0.061460798	-0.043880996	 0.296271
C	 0.3588724111	-0.7067961704	-1.3899884483	-0.125559
O	-0.2195265831	-2.0229098323	-1.3626424059	-0.275483
C	-0.8272713595	-2.1839009123	-0.0964185085	 0.103802
C	 0.1054197939	-2.1774143873	 1.1163297927	-0.079669
C	 0.6373108318	-0.7839720334	 1.1512823655	-0.092136
N	-0.6629091742	-1.0936538797	 1.8307405518	-0.182318
C	-1.2769674343	-0.812459868	 0.4391716926	-0.085437
H	 1.013056746	 1.8456870841	-0.1871193371	 0.120351
H	-0.6693233101	 1.8791023192	-0.7358063746	 0.120263
H	-0.2995286275	 1.8090045214	 0.9979828842	 0.136065
H	-0.0595090567	-0.1546262647	-2.2423595702	 0.098219
H	 1.4458335645	-0.7785177021	-1.5273303776	 0.10168
H	-1.553144962	-2.9947602752	-0.1403684882	 0.091348
H	 0.5576581846	-3.0047045992	 1.6498305316	 0.097385
H	 1.5207642558	-0.4998247344	 1.7125698709	 0.093375
H	-2.2848166423	-0.4139569916	 0.3447878737	 0.080918
202.1172	236.27	260.5002	308.4716	394.1081	497.5787	595.8872	672.3338	699.0217	782.5614	799.6681	820.7948	849.2067	892.4649	929.4448	939.3562	952.4728	964.2591	986.1478	1011.5878	1031.3504	1038.8011	1074.6737	1135.4814	1150.9533	1175.3458	1198.8259	1222.9844	1227.0148	1248.8836	1255.4216	1308.9077	1336.8351	1367.438	1400.498	1415.573	1492.8843	1498.4942	1518.0068	3004.3193	3028.2007	3041.2113	3090.5024	3106.7199	3130.6868	3144.2619	3172.8046	3192.7474
CC12COC3C4C1N4C23	C[C@@]12CO[C@H]3[C@H]4[C@@H]1N4[C@@H]23	
InChI=1S/C7H9NO/c1-7-2-9-4-3-5(7)8(3)6(4)7/h3-6H,2H2,1H3	InChI=1S/C7H9NO/c1-7-2-9-4-3-5(7)8(3)6(4)7/h3-6H,2H2,1H3/t3-,4-,5-,6+,7+,8?/m0/s1
