17
gdb 22805	2.6485	1.42447	1.03092	2.4528	73.73	-0.2347	-0.0499	0.1848	1146.9525	0.136938	-455.111693	-455.10342	-455.102476	-455.144885	31.104	
O	-0.023144496	 1.342048238	-0.1002358546	-0.370825
N	 0.0311382111	-0.045261289	-0.0441699851	-0.177327
C	-1.1151074944	-0.6030196985	 0.0475276816	 0.260957
C	-1.1574455119	-2.1227282828	 0.0471312036	-0.257147
N	-2.0918045391	-2.6599054016	-0.9415137277	-0.271388
C	-3.4337257969	-2.1123062014	-0.7706509376	-0.178281
C	-3.4925348158	-0.5647365033	-0.8261774671	-0.314661
C	-2.4651939679	 0.0794307343	 0.094531577	 0.333622
O	-2.7112663135	 1.0157301268	 0.816145849	-0.292308
H	 0.9065389206	 1.5789746927	-0.1919022837	 0.311384
H	-0.1511825409	-2.5093831155	-0.1304028145	 0.12848
H	-1.4789835114	-2.4792809957	 1.0354997671	 0.124276
H	-1.7506350563	-2.4523157276	-1.875920702	 0.222084
H	-4.0916344336	-2.5350917216	-1.5358375147	 0.114492
H	-3.8144170577	-2.4548721005	 0.1999936785	 0.120277
H	-3.254477209	-0.2437268237	-1.8507675696	 0.123561
H	-4.4835116173	-0.1756765004	-0.5748627601	 0.122802
58.5678	123.1612	202.3183	259.0312	276.1247	359.0061	409.5126	426.4606	453.731	503.4389	556.1372	664.5539	685.1125	723.0135	801.8758	870.4274	914.394	946.5544	983.5308	1019.107	1090.0889	1104.3906	1142.2735	1177.7177	1211.2948	1263.9474	1302.966	1341.7944	1355.4936	1383.5058	1408.6533	1456.2141	1473.3854	1491.4849	1494.6852	1707.888	1806.3897	3011.6814	3015.8062	3031.4558	3084.8481	3096.7192	3106.2251	3504.799	3809.217
ON=C1CNCCC1=O	ON=C1CNCCC1=O	
InChI=1S/C5H8N2O2/c8-5-1-2-6-3-4(5)7-9/h6,9H,1-3H2	InChI=1S/C5H8N2O2/c8-5-1-2-6-3-4(5)7-9/h6,9H,1-3H2
