20
gdb 65979	2.22525	1.50613	1.37746	3.3849	78.76	-0.2439	0.0367	0.2806	1091.1217	0.170804	-403.162318	-403.15322	-403.152276	-403.196112	34.123	
C	 0.0533577241	 1.5847280808	-0.2224427963	-0.446925
C	-0.0471258985	 0.0730824814	-0.014700132	 0.14712
C	 0.8795705672	-0.7795398462	-0.9532242943	-0.203714
N	 1.6482852351	-1.1383256182	 0.2409574481	-0.327704
C	 0.8772770053	-0.4398152551	 1.1307525611	 0.403545
O	 0.9258833454	-0.2962248095	 2.3259191397	-0.378972
C	-1.4867182301	-0.3871405625	 0.0686585677	-0.040021
C	-1.8845438109	-1.676041355	 0.7451768337	-0.289481
C	-2.2342709171	-0.3519660608	 1.3790968251	-0.270367
H	 1.0948058424	 1.9095448097	-0.3134893588	 0.118165
H	-0.4793886065	 1.888336127	-1.1304615077	 0.114935
H	-0.3935808764	 2.1114144732	 0.6254109751	 0.138904
H	 0.3843654441	-1.6277145011	-1.4355414275	 0.112949
H	 1.4456500552	-0.205789455	-1.6942484829	 0.107223
H	 2.4617298952	-1.7205866358	 0.3749879607	 0.249029
H	-2.0671422053	-0.1225000699	-0.8132086981	 0.08078
H	-2.6775864031	-2.2615426166	 0.2932423051	 0.106941
H	-1.112401871	-2.2688938009	 1.223365408	 0.124587
H	-1.6716843478	-0.0674533017	 2.2608908945	 0.14679
H	-3.2696079173	-0.0299084539	 1.370464259	 0.106214
74.5093	113.2491	147.5734	202.3015	214.2127	241.5523	304.806	354.21	417.9857	491.1979	525.7059	665.3718	741.3153	767.2124	794.2829	833.9149	864.9536	875.6987	934.1861	965.0377	984.4941	1000.5994	1059.6913	1075.849	1091.745	1140.9208	1149.4102	1156.4336	1184.9984	1199.4396	1210.6762	1231.4917	1268.8097	1311.3776	1389.888	1394.2729	1415.5345	1468.0663	1491.4077	1493.9192	1504.1885	1525.2858	1876.7177	3030.8809	3039.0408	3089.1118	3097.8277	3115.742	3117.8548	3134.4598	3139.3587	3215.0264	3232.3834	3608.1445
CC1(CNC1=O)C1CC1	C[C@]1(CNC1=O)C1CC1	
InChI=1S/C7H11NO/c1-7(5-2-3-5)4-8-6(7)9/h5H,2-4H2,1H3,(H,8,9)	InChI=1S/C7H11NO/c1-7(5-2-3-5)4-8-6(7)9/h5H,2-4H2,1H3,(H,8,9)/t7-/m0/s1
