15
gdb 50024	3.22449	1.07314	0.9848	3.4095	68.99	-0.2611	-0.0416	0.2194	1203.9534	0.111978	-453.940476	-453.932161	-453.931217	-453.974084	29.553	
O	-0.367095753	 0.5888843072	 0.8100519075	-0.251515
C	 0.2527472132	 0.8705350671	-0.1828416217	 0.183123
C	 1.4316682505	 1.7830442835	-0.1984613059	-0.193479
N	 2.3153550859	 1.6295098656	-1.3759781058	-0.374273
C	 1.5399182103	 2.8324177361	-1.2557567953	 0.175916
C	 0.5326589832	 3.416631652	-2.2676828443	-0.234561
N	 1.1101967434	 4.725871117	-1.9234613312	-0.348186
C	 2.0570049761	 4.2575919337	-1.0428707391	 0.399778
O	 2.9362794098	 4.7656687162	-0.4018665049	-0.365704
H	-0.0110038732	 0.4683496858	-1.1863512878	 0.087011
H	 1.8610442102	 2.025004777	 0.7704415607	 0.132149
H	 3.2841877142	 1.8056319925	-1.1148016353	 0.262941
H	 0.7061291218	 3.1035505211	-3.3011875087	 0.133143
H	-0.5254083103	 3.3120799429	-2.0106140283	 0.130036
H	 0.9160869581	 5.6545699422	-2.2640100398	 0.263623
80.9324	93.86	142.9411	181.2708	241.6485	290.7552	368.9581	451.3678	504.3832	535.4724	632.4976	740.0334	784.3715	838.7504	926.4942	967.0313	984.9744	1000.6877	1048.6199	1073.3616	1085.6562	1151.5033	1164.448	1198.2935	1217.8109	1287.7719	1319.2795	1376.9847	1403.5298	1480.0636	1522.331	1829.128	1898.2742	2891.2883	3050.7485	3103.7745	3158.0545	3490.3601	3635.1653
O=CC1NC11CNC1=O	O=C[C@H]1N[C@]21CNC2=O	
InChI=1S/C5H6N2O2/c8-1-3-5(7-3)2-6-4(5)9/h1,3,7H,2H2,(H,6,9)	InChI=1S/C5H6N2O2/c8-1-3-5(7-3)2-6-4(5)9/h1,3,7H,2H2,(H,6,9)/t3-,5+/m1/s1
