20
gdb 40723	4.10452	1.13511	1.07185	1.6451	78.92	-0.2372	0.078	0.3152	1198.5273	0.173616	-403.094325	-403.086934	-403.08599	-403.126563	29.697	
C	 0.1110108357	 1.5325043773	 0.0814733374	-0.237903
N	 1.2387087116	 0.5905834745	-0.0208501587	-0.321031
C	-0.1426391323	 0.0738943919	-0.0026984158	-0.042456
C	-0.5027044251	-0.72343951	 1.2229335396	 0.165152
O	-1.9369927383	-0.7135484751	 1.4520006733	-0.302408
C	-2.2358315956	-2.1184812022	 1.5303507844	 0.118364
C	-1.0950185335	-2.6819520166	 2.412206342	-0.238087
C	-0.2595516808	-2.2429508399	 1.1658335976	-0.080053
C	-1.4846818086	-2.7139195305	 0.3160441979	-0.240759
H	 0.0261574397	 2.038114581	 1.0395066464	 0.121881
H	-0.1424211709	 2.1466949384	-0.7782773179	 0.111969
H	 1.5999072712	 0.5819693669	-0.9705261098	 0.232407
H	-0.5576336048	-0.2929393866	-0.9387940316	 0.082132
H	 0.0115016231	-0.273768477	 2.0821792846	 0.0766
H	-3.2975110863	-2.2568022722	 1.7283601636	 0.077672
H	-0.9059550969	-2.1807716773	 3.364780698	 0.099856
H	-1.1337633607	-3.7651825673	 2.5388943997	 0.099284
H	 0.760279579	-2.5776556547	 0.9837496115	 0.080485
H	-1.5526158933	-3.8012813941	 0.2540478071	 0.099907
H	-1.6679575234	-2.2594656464	-0.6598367694	 0.096987
67.5167	157.7767	167.4081	315.8734	423.8004	437.2148	502.4122	531.7985	672.5753	820.312	841.5908	850.1095	863.4111	875.5873	885.8577	896.0678	921.3649	950.8659	967.78	984.7907	1002.8177	1033.5073	1041.5469	1054.8774	1097.8889	1104.2539	1118.8277	1134.0796	1147.4081	1210.3317	1229.4751	1242.0679	1245.3701	1256.9904	1282.0672	1287.6644	1288.3213	1335.0792	1345.7882	1463.5663	1478.3065	1510.9801	1515.9921	3020.3947	3065.4477	3072.9823	3109.9059	3128.7698	3133.1954	3134.2399	3137.2131	3139.7905	3194.9244	3510.4351
C1NC1C1OC2CC1C2	C1N[C@H]1[C@H]1O[C@@H]2C[C@H]1C2	
InChI=1S/C7H11NO/c1-4-2-5(1)9-7(4)6-3-8-6/h4-8H,1-3H2	InChI=1S/C7H11NO/c1-4-2-5(1)9-7(4)6-3-8-6/h4-8H,1-3H2/t4-,5+,6-,7+/m1/s1
