18
gdb 100398	2.46044	0.98195	0.80958	7.0887	75.92	-0.2617	0.0011	0.2628	1448.4652	0.145476	-435.281086	-435.270607	-435.269662	-435.317373	36.818	
C	-0.1919704124	 1.0142760933	 0.2059941867	-0.381723
C	 0.2453879567	-0.4658726713	 0.2077772177	-0.140131
N	 0.8263493112	-0.8508974627	-1.0672153316	-0.301981
C	 0.0897049148	-1.328168223	-1.9968634638	 0.361469
N	-1.2555900491	-1.5765562632	-1.9677819977	-0.549357
C	 0.7967598909	-1.7113183669	-3.2908848469	-0.106732
O	 2.1721011534	-1.5092447258	-3.2103086202	-0.418261
C	 1.2405347997	-0.6907879647	 1.2731987955	 0.296778
N	 1.9960216343	-0.8536960143	 2.1313759952	-0.321572
H	 0.6584059996	 1.6504653661	-0.0479498451	 0.153917
H	-0.9739156506	 1.1684084623	-0.5430524128	 0.116577
H	-0.5770104742	 1.3086625368	 1.1856189527	 0.139068
H	-0.6214060943	-1.0929165257	 0.4760192759	 0.109077
H	-1.8434261435	-1.142474405	-1.2774509699	 0.268058
H	-1.7163755136	-1.8321120029	-2.8253938639	 0.267986
H	 0.5626753078	-2.7669169094	-3.5090911227	 0.110622
H	 0.3568065751	-1.1155495767	-4.1095515803	 0.102815
H	 2.315927484	-1.1514119771	-2.3156969989	 0.293389
35.6596	82.4354	110.7334	137.6276	193.5456	229.5117	254.8884	271.9995	313.277	397.9059	399.8204	440.9049	476.4884	539.5125	564.3324	636.0493	639.7081	839.5006	853.6587	943.8024	1035.959	1047.0948	1091.3888	1111.5751	1144.7409	1168.6697	1255.8349	1304.8282	1314.2825	1351.3092	1378.1043	1404.3629	1481.8795	1485.173	1495.7556	1514.4202	1649.7308	1740.0888	2365.693	2956.7267	2960.0259	2975.3616	3048.6437	3124.0835	3141.8249	3609.6449	3617.6545	3720.557
CC(N=C(N)CO)C#N	C[C@@H](N=C(N)CO)C#N	
InChI=1S/C5H9N3O/c1-4(2-6)8-5(7)3-9/h4,9H,3H2,1H3,(H2,7,8)	InChI=1S/C5H9N3O/c1-4(2-6)8-5(7)3-9/h4,9H,3H2,1H3,(H2,7,8)/t4-/m1/s1
