18
gdb 65291	2.67254	1.35528	1.09705	4.1053	77.07	-0.2854	0.005	0.2904	1160.3176	0.145983	-401.939923	-401.931062	-401.930118	-401.973531	32.829	
C	-0.128530646	 1.5378922272	 0.1097886866	-0.469983
C	-0.070465593	 0.0277219554	 0.1281076667	 0.114869
O	 1.168973795	-0.5733047708	-0.2883044621	-0.299954
C	 0.7886711184	-0.7332499876	 1.0650654111	 0.421686
C	 1.5581811708	-0.2121297257	 2.2813965541	-0.317436
C	 0.9649739308	-1.4097626774	 3.0855836023	-0.215133
C	 0.5077469288	-2.070632407	 1.7491931249	-0.32022
C	-1.2579687166	-0.6424792994	-0.3784458418	 0.271675
N	-2.220741018	-1.159654328	-0.7554501563	-0.342319
H	 0.7918691652	 1.9491724251	 0.5281148982	 0.140697
H	-0.2383410324	 1.9013990797	-0.9158693764	 0.150213
H	-0.9809555749	 1.8983130473	 0.6934384086	 0.14212
H	 2.63772019	-0.2981145982	 2.1284861511	 0.125463
H	 1.3316732817	 0.7971772907	 2.6320454704	 0.112203
H	 1.6695940287	-1.9797265284	 3.6919757658	 0.113473
H	 0.1220936861	-1.1120455414	 3.7124141347	 0.116187
H	-0.5116755454	-2.4569035774	 1.6877617417	 0.131026
H	 1.2002838208	-2.841553354	 1.4001415204	 0.125435
84.7035	124.0565	143.0853	177.207	222.3337	239.9637	364.184	400.322	450.0842	515.5127	585.0166	608.8831	655.7928	725.2667	776.2015	842.8062	892.1779	906.1023	926.4855	970.1717	1027.1554	1070.3415	1108.1877	1131.1515	1147.6654	1204.6229	1218.3499	1235.3892	1243.6122	1269.4088	1279.4992	1410.0843	1447.659	1464.4476	1478.1477	1481.517	1492.5981	1508.6414	2354.0252	3049.1852	3062.2528	3068.38	3080.9504	3112.5983	3119.1357	3121.276	3140.1869	3142.1032
CC1(OC11CCC1)C#N	C[C@]1(OC21CCC2)C#N	
InChI=1S/C7H9NO/c1-6(5-8)7(9-6)3-2-4-7/h2-4H2,1H3	InChI=1S/C7H9NO/c1-6(5-8)7(9-6)3-2-4-7/h2-4H2,1H3/t6-/m0/s1
