17
gdb 90165	3.38605	1.50494	1.36141	1.4235	66.81	-0.2162	0.0683	0.2845	975.7885	0.135701	-458.892031	-458.884447	-458.883503	-458.923905	29.664	
O	-0.0399731299	 1.4098998866	-0.1542542337	-0.428149
C	-0.0069478686	 0.0125942338	 0.0013267963	 0.054034
C	 0.2873787874	-0.5977668538	 1.4295774009	-0.338993
C	-1.0925880775	-1.2660080042	 1.3617422973	 0.309899
C	-2.2365717043	-0.2923668019	 1.2289237291	-0.410197
C	-1.3863543392	-0.6409674213	 0.029544326	 0.309748
O	-1.7781978821	-1.6630510043	-0.837278402	-0.293698
C	-1.9783229851	-2.8224283105	-0.0205749694	-0.005166
O	-1.300212987	-2.6395129542	 1.2274243372	-0.290569
H	 0.8620540191	 1.7413309789	-0.0947314316	 0.28635
H	 0.6127211303	-0.4743891827	-0.761670805	 0.08953
H	 1.1090660431	-1.3151534507	 1.424093657	 0.117307
H	 0.4235394607	 0.1188514751	 2.2443078184	 0.106184
H	-3.231844096	-0.7204710963	 1.2289558861	 0.130802
H	-2.1634019451	 0.6966501923	 1.6698983298	 0.132661
H	-3.0541557269	-2.9601592539	 0.1625623359	 0.106127
H	-1.5690075388	-3.7016192429	-0.5291611822	 0.124129
113.1491	147.1987	251.3012	285.5166	305.688	368.2531	435.4141	470.036	556.2542	644.2742	697.4044	779.4495	801.4017	834.5363	869.9081	893.9857	931.0361	938.7521	962.9959	1048.4936	1055.3741	1087.0984	1130.2119	1136.9929	1154.8257	1202.235	1210.4763	1227.1727	1253.0479	1292.5347	1316.8342	1359.4557	1421.1952	1433.4945	1458.2673	1479.5013	1546.7931	2991.0876	3028.3315	3060.5629	3072.1117	3133.7722	3134.0162	3231.3874	3814.2051
OC1CC23CC12OCO3	O[C@H]1C[C@@]23C[C@@]12OCO3	
InChI=1S/C6H8O3/c7-4-1-5-2-6(4,5)9-3-8-5/h4,7H,1-3H2	InChI=1S/C6H8O3/c7-4-1-5-2-6(4,5)9-3-8-5/h4,7H,1-3H2/t4-,5+,6+/m0/s1
