18
gdb 14296	3.68527	1.67866	1.63205	1.744	73.06	-0.2191	0.0153	0.2345	898.6199	0.154321	-347.803892	-347.796412	-347.795468	-347.835193	29.368	
C	 0.0897604618	 1.4636492663	 0.0206463568	-0.489348
C	 0.0356084477	-0.0313302114	-0.0159721918	 0.295682
C	-0.0164408794	-0.8210788017	-1.0992506114	-0.197709
C	 0.0000703702	-2.2708557197	-0.7571170078	-0.133759
C	 1.2451354583	-2.7458880377	-0.0281694894	 0.127599
O	 2.4426382472	-2.0333565995	-0.037036961	-0.427918
C	 0.0508210806	-2.3098953232	 0.7786820325	-0.106221
C	 0.0357994911	-0.8600647508	 1.2594559561	-0.311389
H	 1.0007846113	 1.8217018555	 0.5165989437	 0.128191
H	 0.0598564263	 1.8943016583	-0.9839121642	 0.12468
H	-0.7529339768	 1.872531016	 0.5930135521	 0.127428
H	-0.0362472111	-0.4609151644	-2.1226880948	 0.090689
H	-0.5694753785	-2.9770292191	-1.3519257286	 0.083959
H	 1.4425074366	-3.8130993166	-0.060980782	 0.101053
H	 2.2529795931	-1.1619904512	-0.4090189693	 0.280487
H	-0.4963963054	-3.0571712664	 1.3419513685	 0.083594
H	 0.9126310704	-0.6318577469	 1.8813688013	 0.116905
H	-0.8472623134	-0.6384156075	 1.8728559993	 0.106078
133.9177	178.5276	208.8291	295.9464	310.3688	351.1227	425.8396	536.8262	571.8345	641.1223	734.2002	754.9101	785.7443	859.4177	867.7896	925.3591	956.1063	977.1041	1017.4674	1032.3055	1043.7297	1065.8827	1080.8933	1101.4788	1190.0437	1196.6484	1199.3495	1280.2358	1312.3744	1332.8612	1344.8984	1366.4132	1415.1139	1442.6168	1471.4431	1478.6313	1490.0257	1694.946	3011.2014	3018.0366	3040.2634	3062.1138	3110.4821	3153.9572	3161.0977	3174.8712	3185.8378	3748.7085
CC1=CC2C(O)C2C1	CC1=C[C@H]2[C@@H](O)[C@H]2C1	
InChI=1S/C7H10O/c1-4-2-5-6(3-4)7(5)8/h2,5-8H,3H2,1H3	InChI=1S/C7H10O/c1-4-2-5-6(3-4)7(5)8/h2,5-8H,3H2,1H3/t5-,6+,7-/m1/s1
