17
gdb 41177	3.25142	1.92403	1.61515	2.3657	71.04	-0.2463	-0.0003	0.246	863.6302	0.138398	-421.78305	-421.776888	-421.775944	-421.813178	26.346	
C	 0.0863518564	 1.4798999566	 0.1863253243	-0.191489
O	 1.4925735523	 1.4244348425	-0.1828666271	-0.304136
C	 1.3030329429	 0.1290515685	-0.8147676325	 0.129056
C	 2.0800545711	-1.1218600403	-0.3811224892	-0.268003
C	 0.9376171272	-1.8463148923	 0.4404007432	 0.001379
O	 0.412527416	-0.7149934987	 1.1364108341	-0.26783
C	-0.0349084966	-0.023108586	-0.0336714158	 0.337013
C	-0.8992401182	-1.0602409466	-0.710510523	-0.178016
C	-0.2440273092	-2.203887577	-0.4708126226	-0.096705
H	-0.0625685883	 1.8263205942	 1.2123762757	 0.122459
H	-0.4918855777	 2.0945077096	-0.5151320332	 0.102511
H	 1.2194076186	 0.2471037754	-1.8996714925	 0.074008
H	 2.4670311911	-1.7023323984	-1.2209837403	 0.101474
H	 2.8986976285	-0.8743457015	 0.297291234	 0.12763
H	 1.2764956899	-2.6166353024	 1.1321711258	 0.085789
H	-1.7330485034	-0.8840269402	-1.375267648	 0.115181
H	-0.4403144906	-3.1842156035	-0.8832664632	 0.109679
213.7636	303.881	360.1345	372.4024	496.0318	522.4257	612.9267	692.7418	722.3011	754.9793	825.3727	844.8352	864.5315	869.0482	890.5646	897.2422	925.4276	970.4325	1002.1186	1023.3204	1034.8165	1061.5847	1088.304	1114.9288	1155.2385	1177.9456	1192.9939	1245.1091	1263.6883	1299.6783	1311.5781	1332.3698	1360.3628	1379.7473	1472.5603	1502.4325	1609.017	3023.7087	3052.3957	3078.2834	3100.6175	3129.1797	3135.0083	3219.5046	3244.1955
C1OC2CC3OC12C=C3	C1O[C@H]2C[C@H]3O[C@@]12C=C3	
InChI=1S/C7H8O2/c1-2-7-4-8-6(7)3-5(1)9-7/h1-2,5-6H,3-4H2	InChI=1S/C7H8O2/c1-2-7-4-8-6(7)3-5(1)9-7/h1-2,5-6H,3-4H2/t5-,6-,7-/m0/s1
