18
gdb 96831	3.24493	1.03292	0.94862	2.1441	82.4	-0.2502	0.0166	0.2668	1328.1119	0.144403	-401.915469	-401.905796	-401.904851	-401.95024	35.11	
C	 0.5054764377	 1.4723251773	 0.0901863549	-0.340067
N	 0.4456953007	 0.0173016657	 0.1239417522	-0.327973
C	 0.4640979902	-0.6203022881	-0.9496054171	 0.463943
C	 0.4260206805	-2.083508242	-1.3180801895	-0.427064
C	 0.481646385	-1.5572813926	-2.7849379763	 0.218358
C	-0.7724300364	-1.7633319239	-3.6234386699	-0.434935
O	 0.5277164945	-0.1727928723	-2.2632941985	-0.287345
C	 1.6979198018	-1.8777684407	-3.5156744212	 0.327258
C	 2.6929140968	-2.1634437579	-4.1255415438	-0.468258
H	 1.3740253905	 1.8068659728	 0.6678769212	 0.128338
H	 0.5698522252	 1.8959466816	-0.9187354478	 0.126814
H	-0.3828993308	 1.8782417968	 0.5865576185	 0.12666
H	 1.2923436339	-2.6618795538	-0.9969383416	 0.14487
H	-0.4925204382	-2.6096187183	-1.0523029398	 0.135956
H	-1.6588764216	-1.4987135658	-3.0406583898	 0.128792
H	-0.7366065292	-1.1355268405	-4.517167558	 0.142971
H	-0.8493750133	-2.8084960547	-3.9366562995	 0.135164
H	 3.5768614626	-2.4077897834	-4.6617644341	 0.206519
61.855	79.5768	153.2356	169.4087	203.7383	224.9082	249.6675	339.2729	390.161	465.8076	514.0585	563.1401	572.5722	623.4584	632.7204	673.9262	782.6864	861.3037	906.4296	944.7438	964.6887	1038.0294	1071.1066	1084.8128	1134.7053	1155.2294	1174.7282	1224.8222	1252.233	1271.8977	1407.945	1439.8025	1464.6081	1480.6933	1490.2768	1494.4625	1497.6203	1853.6191	2239.0004	3017.8984	3046.5171	3083.3677	3088.4094	3089.7641	3125.141	3131.2665	3150.0606	3500.3297
CN=C1CC(C)(O1)C#C	CN=C1C[C@@](C)(O1)C#C	
InChI=1S/C7H9NO/c1-4-7(2)5-6(8-3)9-7/h1H,5H2,2-3H3	InChI=1S/C7H9NO/c1-4-7(2)5-6(8-3)9-7/h1H,5H2,2-3H3/t7-/m0/s1
