17
gdb 30216	3.58436	1.29186	1.00474	3.7457	76.69	-0.216	0.0223	0.2383	1169.3747	0.137214	-418.009671	-418.001488	-418.000544	-418.042733	30.105	
C	-0.0584149969	 1.5667676936	-0.0727644277	-0.496268
C	 0.0625685019	 0.0820796429	-0.0680088147	 0.218046
C	-0.1804326864	-0.8735257926	-1.0469317734	-0.162737
N	 0.0555607981	-2.1691844359	-0.6182771805	-0.370469
C	 0.4636254097	-1.9828173617	 0.6142721042	 0.291658
C	 0.8142423275	-2.499289312	 2.0061952297	 0.008767
O	 1.9738994581	-3.2549007341	 2.1998029669	-0.415018
C	 0.8474286637	-0.9501719728	 2.3977222826	-0.213896
N	 0.5037958967	-0.6822035357	 0.9866287669	-0.036123
H	 0.902576968	 2.0598489486	 0.1162567302	 0.131446
H	-0.4196749886	 1.9045758347	-1.0470925074	 0.141484
H	-0.7643728249	 1.9258046738	 0.6856632506	 0.131082
H	-0.5116770239	-0.6785061546	-2.0572559294	 0.105299
H	 0.0086734214	-3.0358055842	 2.5146875405	 0.119982
H	 2.6285494565	-2.9742769897	 1.5505882813	 0.290276
H	 0.086624357	-0.6236990832	 3.1118867375	 0.130459
H	 1.8327577923	-0.582651787	 2.6960266826	 0.126014
86.5059	114.653	141.9885	219.9599	254.3279	316.8563	365.1338	462.956	538.0871	631.0817	643.7978	691.786	771.7667	782.8573	827.4018	868.0183	981.3213	1002.7388	1041.0113	1064.168	1131.8954	1144.3414	1154.119	1193.9775	1209.4614	1247.6627	1271.8188	1297.6804	1377.827	1414.3529	1423.0193	1438.9029	1479.8146	1499.4309	1503.4671	1543.627	1580.0854	3023.5226	3056.5171	3070.2739	3083.1671	3117.8298	3121.2536	3235.2797	3804.2043
CC1=CN=C2C(O)CN12	Cc1cnc2[C@@H](O)Cn12	
InChI=1S/C6H8N2O/c1-4-2-7-6-5(9)3-8(4)6/h2,5,9H,3H2,1H3	InChI=1S/C6H8N2O/c1-4-2-7-6-5(9)3-8(4)6/h2,5,9H,3H2,1H3/t5-/m0/s1
