17
gdb 41584	3.50467	1.58422	1.41342	2.6039	74.16	-0.2261	-0.0053	0.2208	952.3876	0.137448	-421.75557	-421.748804	-421.74786	-421.786852	26.615	
C	 0.102067373	 1.4305675701	-0.3222959636	-0.06567
O	 1.4924977918	 1.4233232487	 0.074458559	-0.280804
C	 1.3790592931	 0.1267651513	 0.679067515	 0.06108
C	-0.0490198335	-0.0594439844	 0.0361575021	-0.203848
C	 0.6521007022	-0.938703045	-0.9959363351	 0.207794
C	 0.9523562472	-1.0117693705	-2.2867375069	-0.233283
C	 2.4384886063	-1.3328320936	-2.3864100211	-0.104766
O	 2.9742070341	-1.1314253512	-1.0617193875	-0.275739
C	 1.8853079408	-1.1015152246	-0.1753688309	 0.104172
H	-0.4875111828	 2.096992006	 0.3217580379	 0.10079
H	-0.0344743609	 1.7118561499	-1.3711397194	 0.110277
H	 1.6011859418	 0.1349958727	 1.7499243117	 0.078836
H	-0.932913316	-0.4125993341	 0.5629984661	 0.094697
H	 0.349163567	-0.7590785351	-3.1496562696	 0.107859
H	 2.6481892044	-2.3620777042	-2.7189795936	 0.10518
H	 2.9468679492	-0.6503666788	-3.0797223945	 0.118739
H	 1.8914144423	-1.9732246172	 0.5023089605	 0.074689
114.4563	163.5915	222.1662	286.0982	443.4701	512.5326	642.7985	698.0985	724.4293	780.8213	824.2664	844.0894	878.2086	917.6275	936.4162	972.4936	974.4276	1004.5813	1024.0821	1039.7033	1062.4805	1098.5963	1124.72	1135.5736	1168.2138	1186.4722	1196.0825	1225.2889	1263.074	1267.9841	1317.3207	1334.3591	1361.5111	1382.0609	1512.16	1513.3935	1716.6232	2947.8234	2975.1484	3008.5565	3035.0441	3069.4176	3078.8333	3135.1975	3212.5774
C1OC2C1C1=CCOC21	C1O[C@H]2[C@@H]1[C]1[CH]CO[C@@H]21	
InChI=1S/C7H8O2/c1-2-8-6-4(1)5-3-9-7(5)6/h1,5-7H,2-3H2	InChI=1S/C7H8O2/c1-2-8-6-4(1)5-3-9-7(5)6/h1,5-7H,2-3H2/t5-,6+,7-/m0/s1
