23
gdb 100880	1.87579	1.14476	0.8739	1.3294	88.21	-0.2511	0.0381	0.2892	1493.2431	0.201623	-388.249656	-388.238136	-388.237192	-388.286695	41.127	
C	-0.3367012805	 1.5624112992	-0.1121758493	-0.38934
C	-0.099915431	 0.0491174385	-0.0767346737	-0.178297
C	 0.8052604384	-0.4740921372	-1.2058917525	 0.021892
C	 2.2393180158	 0.0631072105	-1.1390612981	-0.400175
C	 0.7919112096	-2.0268600706	-1.2414108944	-0.077482
O	 1.5046938613	-2.5441234457	-2.3624598817	-0.245102
C	 0.7554602365	-2.5825752087	-3.5570013469	-0.238742
C	 1.3730477305	-2.6202140041	-0.0348976767	 0.346331
C	 1.8331197226	-3.0952151659	 0.9683239722	-0.450342
H	 0.5904967554	 2.1238048695	 0.0363356981	 0.121247
H	-0.7650333525	 1.875717121	-1.071201626	 0.111219
H	-1.0328451806	 1.8650452664	 0.6762373795	 0.113092
H	 0.3340583591	-0.2353404719	 0.8894084101	 0.109934
H	-1.0704002755	-0.4621346394	-0.1358918363	 0.089588
H	 0.3607759688	-0.155681633	-2.1592989404	 0.070786
H	 2.6951035838	-0.1640355029	-0.1697381925	 0.123994
H	 2.8533952576	-0.3989323795	-1.9160743014	 0.12837
H	 2.2655769355	 1.1464745498	-1.282855355	 0.109657
H	-0.2601695614	-2.3534418382	-1.3057874143	 0.088336
H	 1.3870515192	-3.0594043759	-4.3102758799	 0.131327
H	-0.1645602106	-3.1758043587	-3.4387753874	 0.107764
H	 0.4770976771	-1.58229408	-3.9191797758	 0.108951
H	 2.2419111011	-3.5252584034	 1.8491826625	 0.196989
57.8945	75.5852	82.3	138.1927	163.1831	178.6753	214.3861	235.8333	255.0294	292.9119	341.8621	378.8345	412.1571	463.9645	544.8586	619.6984	654.9014	664.6032	779.0429	817.9409	886.0709	955.526	980.513	985.4776	1016.1826	1051.5606	1108.4454	1134.5541	1160.7844	1180.1001	1194.7103	1214.708	1282.9147	1302.4363	1318.5491	1371.1871	1379.4541	1390.7363	1411.5177	1413.7151	1476.4354	1485.2814	1488.4603	1494.4291	1500.852	1507.2072	1508.9739	1512.1677	2237.8954	2952.5086	2978.2241	3007.2216	3013.6237	3028.5658	3032.7308	3044.2184	3058.2462	3098.3093	3107.5275	3114.3083	3116.4832	3124.5655	3502.9519
CCC(C)C(OC)C#C	CC[C@@H](C)[C@@H](OC)C#C	
InChI=1S/C8H14O/c1-5-7(3)8(6-2)9-4/h2,7-8H,5H2,1,3-4H3	InChI=1S/C8H14O/c1-5-7(3)8(6-2)9-4/h2,7-8H,5H2,1,3-4H3/t7-,8+/m1/s1
