18
gdb 85101	1.97338	1.58237	1.22573	2.674	79.45	-0.2627	0.0176	0.2803	1130.7745	0.145093	-401.921335	-401.911881	-401.910937	-401.955301	35.143	
C	-0.3760551728	 1.4574815134	-0.0220529007	-0.416973
C	 0.1365242904	 0.0370635317	-0.0447188092	 0.126328
O	 1.4140913024	-0.0826135383	-0.7599952468	-0.275154
C	 2.0268299452	-0.684468822	 0.3110052569	 0.426556
N	 3.1923072847	-1.1135785238	 0.4645862355	-0.546526
C	 0.8032881449	-0.6004740018	 1.2299823274	-0.053848
C	 1.0207509657	 0.3011280034	 2.4539716601	-0.445438
C	 0.2344195789	-1.8826814821	 1.61059555	 0.3023
C	-0.2612813885	-2.9301520593	 1.9288038328	-0.463675
H	 0.3583417588	 2.1492536477	 0.3965098076	 0.131373
H	-0.6080094007	 1.7817409362	-1.0409930297	 0.137838
H	-1.2949009424	 1.5183294759	 0.5699806931	 0.132229
H	-0.591179167	-0.6393100979	-0.5004908401	 0.105158
H	 3.7545068947	-0.9857569073	-0.3785373912	 0.229728
H	 1.4736470566	 1.2539818079	 2.1708451865	 0.126588
H	 0.0738619175	 0.4928261397	 2.9657613765	 0.128921
H	 1.6963052691	-0.2004487864	 3.1502891224	 0.153758
H	-0.6823061076	-3.8640638371	 2.2091181889	 0.200837
80.2365	122.6594	154.4855	200.524	215.8288	231.7368	287.2174	311.3555	395.6616	463.8131	518.4822	568.8647	626.4812	633.5758	642.7231	684.9267	733.8129	847.8787	864.8539	873.0122	963.7497	1013.4659	1029.3016	1070.1557	1109.5957	1161.0717	1182.3299	1227.2573	1240.0427	1338.7777	1383.473	1407.6452	1413.6776	1477.1087	1485.7681	1493.9879	1503.4255	1824.5229	2238.5288	3044.6787	3053.0187	3077.1249	3113.5983	3127.7333	3133.3837	3138.0016	3477.4238	3501.3049
CC1OC(=N)C1(C)C#C	C[C@H]1O[C]([NH])[C@]1(C)C#C	
InChI=1S/C7H9NO/c1-4-7(3)5(2)9-6(7)8/h1,5,8H,2-3H3	InChI=1S/C7H9NO/c1-4-7(3)5(2)9-6(7)8/h1,5,8H,2-3H3/t5-,7-/m1/s1
