17
gdb 40066	3.38245	1.5404	1.44816	1.9038	66.15	-0.2616	0.0762	0.3377	944.4476	0.137732	-458.942395	-458.935691	-458.934747	-458.973464	27.019	
C	 0.0530794493	 1.5132237894	 0.0165625456	-0.273733
O	 1.1995725024	 0.6513110516	-0.0066561455	-0.28315
C	-0.0916776984	 0.0579569684	 0.0270120141	 0.483068
C	-0.4818145478	-0.8232275655	 1.2233574729	-0.336669
C	-1.0954417346	-2.013508483	 0.4562556276	 0.181549
O	-2.3759187479	-1.6288455559	-0.0441324576	-0.276144
C	-2.0803469996	-0.8106226013	-1.1892867399	-0.087567
C	-0.5383427275	-0.7859963414	-1.1663234937	-0.064863
O	-0.2741235313	-2.1191657835	-0.6926109976	-0.246742
H	-0.091440353	 2.0768666401	 0.9372014214	 0.119889
H	-0.1245666152	 2.076304991	-0.8998238483	 0.11445
H	 0.4113787646	-1.1206988644	 1.7790599311	 0.128364
H	-1.1974989676	-0.3562794476	 1.9020084325	 0.118746
H	-1.1723622664	-2.9666800671	 0.9768965792	 0.100079
H	-2.4677794158	-1.2887993812	-2.0953118947	 0.112444
H	-2.5322931747	 0.1805401856	-1.0769143986	 0.106978
H	-0.0267469966	-0.5893918951	-2.1060694086	 0.1033
114.186	226.3185	305.6386	329.9739	389.899	449.6433	546.0505	621.4105	696.0085	816.1444	827.5575	847.0099	865.111	890.1609	931.4829	950.2291	961.4781	987.3697	1009.753	1033.0531	1047.0738	1092.2802	1124.3076	1162.3765	1173.1289	1190.1489	1218.4112	1250.6052	1268.1071	1280.0955	1320.4127	1333.0949	1375.499	1435.3746	1471.4453	1518.1759	1538.2518	3035.418	3072.0444	3077.3389	3081.4351	3130.9959	3144.3487	3155.7965	3162.6544
C1OC11CC2OCC1O2	C1O[C@]21C[C@H]1OC[C@@H]2O1	
InChI=1S/C6H8O3/c1-5-7-2-4(9-5)6(1)3-8-6/h4-5H,1-3H2	InChI=1S/C6H8O3/c1-5-7-2-4(9-5)6(1)3-8-6/h4-5H,1-3H2/t4-,5-,6-/m0/s1
