19
gdb 103224	3.87836	1.2553	1.12627	2.2469	75.64	-0.2465	0.0609	0.3074	1124.3154	0.159178	-422.940734	-422.932825	-422.931881	-422.972869	31.691	
O	-0.1095309749	 1.5060017728	-0.070659975	-0.436323
C	 0.0311254948	 0.0935185415	 0.1007393938	-0.169096
C	-1.3731903308	-0.4847911644	 0.0333797244	 0.462791
O	-2.1919205392	 0.1554062944	 0.9851325851	-0.504464
C	-2.00522767	-0.7529860569	-1.3563686459	-0.106793
C	-1.2050595018	-2.0912626006	-1.5361574479	-0.057029
C	-2.4807949898	-2.8952074166	-1.85224819	-0.273292
C	-2.9180950052	-1.8891668119	-0.771376924	-0.040996
C	-1.5506436054	-2.008531192	-0.0058861965	-0.107867
H	 0.7093414312	 1.9315964167	 0.1969847026	 0.294082
H	 0.6760950859	-0.3364745043	-0.6772176959	 0.093732
H	 0.4683552818	-0.1382394807	 1.0831087572	 0.094491
H	-1.9540850098	 1.0907941819	 0.9441653458	 0.283642
H	-2.2743598497	-0.0488088394	-2.1449893396	 0.069551
H	-0.208488714	-2.1965321183	-1.9669504858	 0.06738
H	-2.9095933011	-2.7648398949	-2.8512667333	 0.090611
H	-2.478522691	-3.9536428114	-1.571211472	 0.089948
H	-3.8931218992	-1.7482938877	-0.3090470323	 0.08371
H	-1.3005975618	-2.7467492281	 0.7585551393	 0.065921
102.7099	175.376	221.8009	258.3207	312.6282	356.1566	395.7541	472.2149	508.5855	562.3966	685.7272	751.3541	818.0258	844.1998	850.9998	879.3995	918.354	926.1792	965.6349	1000.1333	1011.1172	1030.5932	1061.6942	1067.5512	1084.481	1137.2645	1144.1492	1152.9149	1154.0689	1165.9046	1194.4638	1200.0397	1244.0407	1246.2105	1264.9562	1303.9592	1309.9684	1417.281	1455.3959	1506.9396	1513.3276	2990.9796	3034.3713	3035.7238	3090.289	3091.9331	3098.7946	3108.3798	3136.4126	3768.5465	3843.2638
OCC1(O)C2C3CC2C13	OC[C@@]1(O)[C@H]2[C@@H]3C[C@H]2[C@H]13	
InChI=1S/C7H10O2/c8-2-7(9)5-3-1-4(5)6(3)7/h3-6,8-9H,1-2H2	InChI=1S/C7H10O2/c8-2-7(9)5-3-1-4(5)6(3)7/h3-6,8-9H,1-2H2/t3-,4+,5-,6+,7-
