21
gdb 79701	2.58263	1.67339	1.29611	1.3239	81.31	-0.2426	0.0769	0.3196	1060.9556	0.184402	-387.038633	-387.030725	-387.029781	-387.070462	32.619	
C	-0.0667139531	 1.6595036074	-0.0142418242	-0.464482
C	 0.0257609166	 0.1259267191	-0.025185324	 0.055999
C	 0.9134314862	-0.726912626	-0.986970853	-0.124192
C	 2.3742747611	-0.4871260472	-0.5851912748	-0.036844
C	 2.7872042607	 0.7077187012	 0.2369714673	-0.314884
C	 2.233711759	-0.5048153301	 0.9408674682	-0.038665
C	 0.7237148171	-0.7540439001	 1.0637577508	-0.08709
C	 0.6003058497	-1.915782907	 0.0157519042	 0.161435
O	-0.6841272434	-2.4920745468	-0.0244269566	-0.44732
H	 0.4784424582	 2.1174205018	-0.8453276894	 0.124661
H	-1.1103293127	 1.9762581971	-0.104658537	 0.107175
H	 0.3184024481	 2.094632323	 0.9130231988	 0.125974
H	-0.9842442952	-0.2714194392	-0.1220808819	 0.099188
H	 0.6844069584	-0.8005839501	-2.0523132148	 0.050644
H	 3.1408147582	-1.0630548702	-1.0920165247	 0.081337
H	 3.8624378196	 0.8256065848	 0.3387053129	 0.105296
H	 2.2620380834	 1.6482110514	 0.198041391	 0.113857
H	 2.8949160448	-1.0938107033	 1.566639337	 0.084068
H	 0.3015515542	-0.8566862017	 2.0641172353	 0.0622
H	 1.3776468403	-2.6888674436	 0.0758198838	 0.058673
H	-0.7307235114	-3.0630281704	-0.7974885489	 0.282969
128.2287	234.7668	244.507	258.5405	300.5729	306.2883	412.1093	439.2921	512.2959	644.9354	652.5128	712.3956	743.0141	804.3074	846.8698	874.7388	880.0987	909.2599	920.1258	998.7992	1003.942	1033.0677	1058.1946	1062.3153	1086.0784	1099.1474	1106.4065	1112.8379	1129.4292	1143.172	1174.2158	1200.6657	1204.7232	1231.588	1281.9299	1285.3246	1305.2412	1340.209	1366.8582	1403.1099	1420.5034	1451.6233	1487.3647	1506.9984	1513.3352	3012.9865	3034.4019	3086.2341	3089.0791	3101.7919	3107.1673	3114.1975	3141.8787	3163.026	3173.9426	3267.5363	3819.0482
CC1C2C3CC3C1C2O	C[C@H]1[C@H]2[C@H]3C[C@H]3[C@@H]1[C@H]2O	
InChI=1S/C8H12O/c1-3-6-4-2-5(4)7(3)8(6)9/h3-9H,2H2,1H3	InChI=1S/C8H12O/c1-3-6-4-2-5(4)7(3)8(6)9/h3-9H,2H2,1H3/t3-,4-,5+,6-,7+,8-
