21
gdb 109711	2.0996	1.42128	1.06525	1.3893	79.58	-0.2109	0.0673	0.2782	1249.6494	0.180428	-424.17635	-424.166537	-424.165593	-424.211333	35.287	
C	 0.0219381789	 1.1840614261	 0.397342745	-0.233013
O	-0.1542703409	 0.0875679319	-0.4776625775	-0.232744
C	-1.350727036	-0.5936960204	-0.2571035913	 0.010315
C	-1.4790145936	-1.9854977234	-0.8462124211	-0.15097
C	-0.3579362776	-2.6132412289	-1.6458101387	-0.405689
C	-1.3616790445	-1.798502984	 0.6393979104	 0.406773
C	-0.2845864525	-2.2883019968	 1.5979303893	-0.351487
C	-1.4763532698	-2.5129257167	 2.5555791708	-0.075159
O	-2.4263645805	-2.0886414277	 1.5488045114	-0.308585
H	 0.9859002172	 1.6380800054	 0.1555850711	 0.126786
H	-0.770403222	 1.9358971547	 0.2624875591	 0.110029
H	 0.0235817312	 0.8743450893	 1.4520496553	 0.107789
H	-2.2450820501	 0.0332719117	-0.2608615765	 0.088291
H	-2.4849648724	-2.219823794	-1.1874632533	 0.097964
H	 0.6178975306	-2.2842286147	-1.281361162	 0.131076
H	-0.3993310185	-3.7062825398	-1.5873268106	 0.114663
H	-0.4244572803	-2.3307659206	-2.7015383048	 0.121867
H	 0.2323560507	-3.1978525682	 1.2846093349	 0.114943
H	 0.4531408744	-1.5473738181	 1.9091001123	 0.116189
H	-1.6546756241	-3.5471244641	 2.8692310466	 0.107165
H	-1.5011741102	-1.8599728915	 3.4360471997	 0.103798
72.2285	116.1013	135.6461	145.6329	174.0478	185.5636	208.6687	244.8538	377.3278	430.8543	485.857	554.6475	629.9695	786.8622	810.3364	863.2385	876.0587	942.0882	961.1196	989.5772	1015.9716	1026.6762	1088.8835	1097.7464	1134.123	1148.1279	1163.6317	1173.0821	1183.284	1193.7167	1208.146	1234.1404	1250.5573	1311.5327	1346.4352	1360.367	1412.0985	1454.4252	1482.7567	1485.6228	1492.1716	1493.8692	1505.3924	1510.5943	1531.893	2983.9275	3024.196	3033.9512	3035.8578	3068.1194	3076.7154	3077.9465	3094.2267	3117.1022	3121.1487	3128.9409	3140.8403
COC1C(C)C11CCO1	CO[C@H]1[C@@H](C)[C@]21CCO2	
InChI=1S/C7H12O2/c1-5-6(8-2)7(5)3-4-9-7/h5-6H,3-4H2,1-2H3	InChI=1S/C7H12O2/c1-5-6(8-2)7(5)3-4-9-7/h5-6H,3-4H2,1-2H3/t5-,6+,7+/m1/s1
