12
gdb 53716	10.15185	0.46174	0.44286	3.9413	100.93	-0.2825	-0.1169	0.1657	2253.2081	0.07541	-398.330093	-398.320998	-398.320054	-398.365338	30.171	
C	 0.0088151844	 1.5103035827	-0.0191887722	-0.483277
C	-0.0222278278	 0.0022889086	 0.0578442945	 0.197651
O	-0.0521945574	-0.6246384375	 1.0932523921	-0.25061
C	-0.0138923941	-0.6958442711	-1.2216262275	 0.313119
C	-0.007740995	-1.3045961738	-2.2730595836	-0.304806
C	-0.0007649794	-1.9730829108	-3.4449057424	-0.16959
C	 0.0056343812	-2.5733330835	-4.5022634924	 0.456842
C	 0.0127753324	-3.2418414467	-5.6855469615	 0.085353
N	 0.0187944142	-3.8128215778	-6.699105788	-0.315234
H	 0.9075323421	 1.8412283721	-0.5510991819	 0.15754
H	-0.8531136186	 1.8762087578	-0.5877041374	 0.157382
H	-0.003632142	 1.92514006	 0.9895168202	 0.15563
52.4942	60.323	119.6423	134.5306	171.0263	262.6392	319.5846	339.4708	493.3003	536.1656	539.2951	597.9761	606.4262	639.6301	670.4381	811.3793	971.1682	1043.9569	1163.8734	1315.7663	1385.6872	1458.071	1465.276	1765.7301	2206.7736	2316.1716	2354.2458	3039.9192	3104.1216	3155.8721
CC(=O)C#CC#CC#N	CC(=O)C#CC#CC#N	
InChI=1S/C7H3NO/c1-7(9)5-3-2-4-6-8/h1H3	InChI=1S/C7H3NO/c1-7(9)5-3-2-4-6-8/h1H3
