17
gdb 98723	2.94034	1.10448	0.91272	4.0555	76.7	-0.2507	0.0038	0.2545	1283.9354	0.134007	-417.939468	-417.930245	-417.929301	-417.973976	33.701	
O	-0.0414085368	 1.2099810794	 0.3757692468	-0.422607
C	-0.0865122694	-0.1195605303	-0.0482226662	-0.081962
C	-1.509414935	-0.6526657446	-0.0642896049	 0.328988
N	-2.4371149461	 0.1260246673	 0.3210384173	-0.527843
N	-1.6595813899	-1.9260220013	-0.6172070323	-0.099386
C	-0.9840457522	-3.1167814556	-0.1486867002	-0.249709
C	-2.4867778689	-2.9972485087	-0.0621981845	-0.202119
C	-3.1202682368	-2.8610166847	 1.2212299738	 0.332766
C	-3.6774740451	-2.7482642726	 2.2804251435	-0.442608
H	-0.9661913239	 1.4379476676	 0.574431755	 0.295843
H	 0.3351499798	-0.2293979366	-1.0599433911	 0.113292
H	 0.5210778993	-0.7616362172	 0.6121872277	 0.099846
H	-3.35982583	-0.3034391376	 0.2912288756	 0.229512
H	-0.5430948001	-3.7510696484	-0.9127548842	 0.136051
H	-0.441494587	-3.0668062959	 0.7918377086	 0.144263
H	-3.0779096989	-3.5193455136	-0.8111474628	 0.132725
H	-4.1587365992	-2.6481760272	 3.2222811179	 0.212948
57.4749	86.0031	120.8451	182.9161	223.2014	258.5627	337.2111	407.4242	434.3946	509.5606	526.7344	547.3617	630.3545	653.1865	674.2782	777.2235	833.8863	866.6329	902.0328	971.3943	1041.8078	1051.3245	1062.6635	1126.0232	1127.4472	1135.3631	1159.7186	1250.6227	1260.2637	1337.6647	1372.7565	1399.2555	1479.7229	1504.4254	1507.4504	1719.575	2239.7204	2963.2029	2991.2076	3108.7879	3133.7787	3202.2184	3500.0477	3508.7139	3637.7325
OCC(=N)N1CC1C#C	OC[C]([NH])N1C[C@H]1C#C	
InChI=1S/C6H8N2O/c1-2-5-3-8(5)6(7)4-9/h1,5,7,9H,3-4H2	InChI=1S/C6H8N2O/c1-2-5-3-8(5)6(7)4-9/h1,5,7,9H,3-4H2/t5-,8?/m1/s1
