20
gdb 16694	4.05406	1.61185	1.48994	0.2945	80.67	-0.2111	0.0274	0.2385	968.8065	0.178016	-311.846501	-311.838946	-311.838001	-311.877783	30.181	
C	-0.2038939823	 1.5147876414	 0.0017335169	-0.435065
C	 0.0227275327	 0.0079618788	 0.0074909082	 0.069449
C	 1.210502662	-0.5917310949	-0.8444222245	-0.071931
C	 2.145956403	-0.1961033671	 0.3473364379	-0.217764
C	 0.8850179594	-0.6275059712	 1.1688881993	-0.124372
C	 0.7997433991	-2.114816699	 0.7774707479	 0.350345
C	 0.5248054402	-3.2414432322	 1.7117437727	-0.519154
C	 1.0148898053	-2.0829372786	-0.5441043383	-0.200726
H	 0.7080662854	 2.0945152808	 0.1669997426	 0.116627
H	-0.6283978763	 1.8321613474	-0.9576307582	 0.115133
H	-0.9198254691	 1.7954424906	 0.7828217912	 0.114389
H	-0.9307172956	-0.5041343434	-0.1572616842	 0.061782
H	 1.4051593896	-0.2818383329	-1.8717748632	 0.05208
H	 3.0522139163	-0.7910097404	 0.4822784767	 0.08884
H	 2.3801125195	 0.8696615438	 0.4071719447	 0.090458
H	 0.74366745	-0.3571986388	 2.2169717544	 0.049988
H	-0.4409919937	-3.116561729	 2.218913289	 0.123844
H	 0.5075584622	-4.2004547864	 1.18544356	 0.122796
H	 1.2833483535	-3.303069521	 2.5031294914	 0.124007
H	 1.0378827588	-2.8948616778	-1.2580975543	 0.089273
158.3638	185.5384	194.7979	236.1153	326.257	340.3254	499.6604	508.3388	573.8482	615.9789	756.4627	784.0039	809.1732	839.0379	859.3362	871.7561	933.0061	989.0407	999.61	1021.3997	1055.8745	1062.7959	1079.747	1095.1527	1112.0666	1120.0084	1183.3024	1225.5603	1228.0744	1242.2471	1251.4296	1258.2696	1310.6177	1377.5889	1411.0817	1414.4489	1477.9524	1487.4169	1491.0922	1495.4588	1515.6183	1688.0031	3010.6132	3029.2384	3049.8341	3053.5668	3060.9309	3085.5586	3097.4675	3102.174	3108.6848	3110.9189	3123.3624	3221.7308
CC1C2CC1C(C)=C2	C[C@H]1[C@H]2C[C@@H]1C(=C2)C	
InChI=1S/C8H12/c1-5-3-7-4-8(5)6(7)2/h3,6-8H,4H2,1-2H3	InChI=1S/C8H12/c1-5-3-7-4-8(5)6(7)2/h3,6-8H,4H2,1-2H3/t6-,7+,8+/m0/s1
