16
gdb 32019	3.9306	1.14794	0.89826	5.2577	73.22	-0.263	-0.0614	0.2016	1252.0213	0.126131	-434.14728	-434.1392	-434.138255	-434.181021	29.052	
C	 0.1085186356	 1.5591505115	 0.0080573351	-0.37135
C	-0.0356587783	 0.0384076313	 0.002462781	-0.303941
C	-1.4629781623	-0.4468236578	 0.01339537	 0.436337
N	-2.4693016676	 0.3857654854	 0.0231122651	-0.319741
C	-3.7040958035	-0.2081984964	 0.0320989104	 0.073868
N	-4.0035521611	-1.4732683445	 0.0320543574	-0.299946
C	-2.9566850937	-2.3821773311	 0.0213973811	 0.441317
O	-3.0569614842	-3.5844657131	 0.0206062755	-0.367591
N	-1.6663226169	-1.7828061685	 0.0125300101	-0.363146
H	 1.1669870541	 1.8322133951	-0.0008747363	 0.117697
H	-0.3744893265	 2.0014365619	-0.8656527361	 0.141435
H	-0.3574594843	 1.9934099063	 0.8949716971	 0.141276
H	 0.4577518525	-0.3938215492	-0.8787625219	 0.136175
H	 0.4742159471	-0.4019723201	 0.8701425838	 0.135984
H	-4.5388640767	 0.4916555673	 0.0403080292	 0.131894
H	-0.8883114842	-2.430276588	 0.0051541785	 0.269732
34.2276	122.6239	162.3462	196.062	227.6689	363.7517	423.5413	506.336	590.4899	604.6479	613.6752	734.2998	796.7725	805.079	827.9639	894.1847	994.2822	1016.2526	1029.7654	1090.0722	1104.0667	1110.4775	1216.0846	1278.3786	1291.7215	1374.7146	1418.7779	1420.4096	1460.8149	1475.0301	1490.4409	1498.8306	1576.8865	1647.6452	1836.496	3019.7446	3047.8705	3058.8886	3131.8477	3140.8837	3147.0618	3584.0228
CCC1=NC=NC(=O)N1	CCc1ncnc(=O)[nH]1	
InChI=1S/C5H7N3O/c1-2-4-6-3-7-5(9)8-4/h3H,2H2,1H3,(H,6,7,8,9)	InChI=1S/C5H7N3O/c1-2-4-6-3-7-5(9)8-4/h3H,2H2,1H3,(H,6,7,8,9)
