17
gdb 72628	2.57515	1.48334	1.20579	1.422	76.33	-0.225	0.0295	0.2545	1077.7432	0.132564	-421.748929	-421.739908	-421.738963	-421.782131	34.134	
C	 0.1043932873	 1.5623574961	-0.0911467848	-0.498059
C	 0.1281362947	 0.0807481216	 0.060931813	 0.3735
O	 0.539006025	-0.716078235	-1.0561070808	-0.319553
C	 1.182425135	-1.6821985034	-0.1756294988	-0.147504
C	 0.6582560097	-0.9411419462	 1.0379068285	 0.295689
O	 1.3276298488	-0.8910946959	 2.2327342307	-0.449796
C	-0.8600046343	-0.7705902829	 0.889777251	-0.370125
C	-1.4839061421	-0.1656436925	 2.025156429	 0.280131
C	-1.9406193643	 0.3263846045	 3.026717693	-0.420825
H	 1.0976235535	 1.9399745583	-0.3515902992	 0.133988
H	-0.5928443823	 1.8527084154	-0.8851159988	 0.136128
H	-0.2221869769	 2.0333729781	 0.8389529287	 0.14026
H	 0.8366463095	-2.7071672383	-0.3480596678	 0.110827
H	 2.2724712209	-1.6274833673	-0.2705343794	 0.123684
H	 0.6877931457	-0.6772010065	 2.9257897743	 0.295684
H	-1.4375914533	-1.5283371487	 0.3629115088	 0.114579
H	-2.386646877	 0.7759895528	 3.8794109525	 0.201393
119.0126	124.2089	178.9568	185.6859	258.7716	289.7997	342.3789	361.4436	387.8978	481.9467	506.3679	548.8111	585.1597	670.402	688.013	715.8516	727.8079	874.477	914.1129	970.5237	983.7861	1053.1369	1060.3512	1091.3514	1117.755	1142.0968	1169.2688	1270.1787	1295.0078	1326.0608	1400.4017	1424.9874	1459.3676	1479.0492	1497.1307	1517.8065	2216.8741	3033.0134	3037.4764	3087.8204	3101.8339	3116.9751	3131.0434	3500.005	3744.627
CC12OCC1(O)C2C#C	C[C@@]12OC[C@]1(O)[C@H]2C#C	
InChI=1S/C7H8O2/c1-3-5-6(2)7(5,8)4-9-6/h1,5,8H,4H2,2H3	InChI=1S/C7H8O2/c1-3-5-6(2)7(5,8)4-9-6/h1,5,8H,4H2,2H3/t5-,6-,7-/m0/s1
