21
gdb 69765	2.93554	1.67391	1.48394	1.2558	81.19	-0.2272	0.0831	0.3103	1001.8405	0.184418	-387.066235	-387.058824	-387.05788	-387.097415	31.469	
C	 0.0940076492	 1.4594133408	-0.0856419702	-0.446794
C	-0.0075852072	-0.0383273422	 0.0535991262	 0.431695
C	-0.8869856341	-0.644313001	 1.1280707682	-0.363231
C	 0.6222375694	-0.7942846913	 1.1933024185	-0.08176
C	 1.3461922802	-2.0634667556	 0.7557390045	-0.042727
C	 2.2170094012	-1.6396524245	-0.4707018238	-0.244146
C	 0.904360065	-1.8061520647	-1.2912614307	 0.132016
C	 0.4956298831	-2.8848194365	-0.2545147419	-0.252571
O	 0.058609182	-0.6628488261	-1.2160346901	-0.317776
H	 1.0531150133	 1.7465105079	-0.5293093279	 0.117104
H	-0.7030285241	 1.8363549674	-0.7355432199	 0.125261
H	 0.0014730906	 1.9497261117	 0.8878404265	 0.110499
H	-1.3515206675	 0.0375236739	 1.8330511658	 0.105171
H	-1.496729758	-1.5030481952	 0.8766045193	 0.116369
H	 1.146453354	-0.2114655845	 1.9466362141	 0.083734
H	 1.8085014553	-2.5917631145	 1.5919838223	 0.062508
H	 2.6894163419	-0.6545519684	-0.4511131682	 0.096728
H	 2.9489018675	-2.4004041129	-0.7536369829	 0.096942
H	 0.9572977324	-2.0636736701	-2.3501245488	 0.072477
H	 0.974198883	-3.8427795995	-0.4744591176	 0.098971
H	-0.5671150372	-3.0484888748	-0.0714887435	 0.09953
167.3488	218.2144	245.424	337.9629	379.3463	434.1399	449.0807	487.5381	517.0493	584.9271	702.6825	767.5576	802.9665	837.0508	858.2518	879.7593	902.8339	920.337	945.5589	961.3162	977.1578	1016.6072	1041.1747	1051.5921	1066.5971	1088.5525	1104.2087	1133.2243	1135.3375	1147.5456	1197.6032	1236.7105	1251.442	1259.9319	1267.1679	1288.9559	1344.4675	1379.5306	1397.2825	1420.9627	1467.2915	1479.4702	1489.5781	1501.3639	1510.6072	3031.2994	3058.8281	3066.5756	3083.4551	3096.6319	3101.1543	3110.7708	3120.0878	3125.7143	3133.036	3140.3323	3228.6505
CC12CC1C1CC(C1)O2	C[C@]12C[C@H]1[C@@H]1C[C@@H](C1)O2	
InChI=1S/C8H12O/c1-8-4-7(8)5-2-6(3-5)9-8/h5-7H,2-4H2,1H3	InChI=1S/C8H12O/c1-8-4-7(8)5-2-6(3-5)9-8/h5-7H,2-4H2,1H3/t5-,6+,7-,8-/m0/s1
