17
gdb 13845	4.33054	1.4582	1.26994	3.3345	70.13	-0.2329	0.0148	0.2477	988.1781	0.143225	-363.912468	-363.904394	-363.90345	-363.945796	29.141	
N	-0.0041173168	 1.3547193828	-0.2158106702	-0.522215
C	 0.0652768526	 0.0387315391	 0.1424682808	 0.400054
O	 1.1027901387	-0.4792916638	 0.505302176	-0.35569
C	-1.2817019331	-0.7001944401	 0.0939987985	-0.133844
C	-1.1184530531	-2.2375256463	 0.0040734506	-0.23295
C	-2.148307123	-2.8411126199	 0.9935516901	-0.257303
C	-2.5240315261	-1.6672936142	 1.8623771007	-0.055728
C	-2.0701457704	-0.513488602	 1.3798070925	-0.06541
H	 0.8415576811	 1.9007739072	-0.2005362901	 0.259439
H	-0.8406154418	 1.7666521695	-0.5891512177	 0.256306
H	-1.8568541268	-0.2984259607	-0.7539495375	 0.073415
H	-1.2451486756	-2.6079979202	-1.0157784302	 0.094401
H	-0.1008473837	-2.4744214559	 0.3233033669	 0.140757
H	-3.0348085418	-3.2368494451	 0.4781933994	 0.103512
H	-1.7328148525	-3.6766622903	 1.5682041567	 0.108635
H	-3.1263287176	-1.7698815378	 2.7587024873	 0.093618
H	-2.23608859	 0.4648145375	 1.8173048263	 0.093003
48.8795	81.9552	115.3734	198.7832	264.106	389.8579	407.6248	569.2063	603.3015	626.206	718.228	753.8971	793.48	840.4286	869.6867	927.5862	959.4151	971.1813	1012.8387	1030.1774	1069.0842	1094.2512	1134.0856	1181.2932	1225.5042	1249.8087	1287.1787	1308.3332	1318.5553	1376.6303	1385.9724	1484.2434	1501.2328	1614.4453	1686.956	1799.2722	2981.1521	3009.6322	3054.4236	3072.1687	3120.9456	3180.6372	3206.3792	3603.3127	3740.7071
NC(=O)C1CCC=C1	NC(=O)[C@H]1CCC=C1	
InChI=1S/C6H9NO/c7-6(8)5-3-1-2-4-5/h1,3,5H,2,4H2,(H2,7,8)	InChI=1S/C6H9NO/c7-6(8)5-3-1-2-4-5/h1,3,5H,2,4H2,(H2,7,8)/t5-/m1/s1
