14
gdb 28835	3.11283	1.50151	1.16676	7.2094	74.34	-0.2408	-0.0748	0.166	1019.5749	0.10267	-432.903113	-432.895736	-432.894792	-432.93483	28.201	
N	 0.1239313446	 1.2623541648	 0.3495061065	-0.571015
C	 0.0064634298	-0.075729376	 0.058673252	 0.306682
C	-1.1915100486	-0.7396718954	 0.1235156547	-0.18983
C	-1.4169731642	-2.0855266821	-0.3299559644	 0.003871
N	-0.5760193684	-3.0595222037	-0.427723413	-0.245921
C	 0.7104804232	-2.8703667957	 0.0825835401	 0.360934
O	 1.1732156771	-3.5195567323	 0.9827813552	-0.305845
N	 1.4912028754	-1.9262231931	-0.619428673	-0.209434
C	 1.1936274	-0.6871607213	-0.55669146	-0.029952
H	 1.0419992087	 1.6156638921	 0.5677236867	 0.269332
H	-0.6218568008	 1.6965362636	 0.8700161529	 0.266656
H	-2.0737049989	-0.1709275962	 0.4087983515	 0.096313
H	-2.4437644017	-2.311253968	-0.6282612697	 0.120908
H	 1.8697818738	 0.0175340232	-1.0500649194	 0.127303
104.3176	181.0048	293.8141	334.8214	364.8548	373.0069	406.0745	461.1882	496.8738	591.8964	629.4231	691.0154	752.2989	830.8961	848.5553	904.9365	930.3721	960.0601	991.8604	1024.0147	1125.8215	1167.9162	1315.9779	1396.9682	1418.0255	1447.051	1574.255	1651.7327	1660.1842	1695.3002	1821.3181	3083.4653	3097.5253	3152.0366	3589.6622	3698.2638
NC1=CC=NC(=O)N=C1	Nc1ccnc(=O)nc1	
InChI=1S/C5H5N3O/c6-4-1-2-7-5(9)8-3-4/h1-3H,6H2	InChI=1S/C5H5N3O/c6-4-1-2-7-5(9)8-3-4/h1-3H,6H2
