22
gdb 58090	2.17642	1.39966	1.09592	6.1394	77.67	-0.2433	0.0341	0.2774	1224.4944	0.193004	-441.531654	-441.521384	-441.52044	-441.566228	39.08	
C	 0.0520356255	 1.5939278812	-0.1906970111	-0.408655
C	-0.0134614749	 0.0678599122	-0.0459136347	-0.002116
N	 0.8356172869	-0.4179597865	 1.0703723309	-0.537475
H	 1.8157740513	-0.2551777828	 0.8615940583	 0.245224
H	 0.6285662023	 0.0962475593	 1.9222229144	 0.242541
H	 0.1942952742	-2.0027448696	 0.9684831106	 0.317699
C	-1.4591850549	-0.5113838144	 0.0904012612	 0.112472
C	-2.0967625889	-0.1608827367	 1.4562629985	-0.434035
C	-2.354512958	 0.0195635751	-1.0403047001	-0.419473
C	-1.4453904172	-2.0681859992	-0.0007829885	 0.406214
O	-2.3179801049	-2.6872827233	-0.5557260749	-0.346187
O	-0.436406	-2.6895327984	 0.6169672384	-0.390187
H	 1.0971546249	 1.9132990535	-0.2638072891	 0.111571
H	-0.4636740314	 1.9437282399	-1.0876426756	 0.135035
H	-0.389853184	 2.1012884487	 0.6737086855	 0.120172
H	 0.4154922807	-0.3747131697	-0.9538360699	 0.102144
H	-2.1575686946	 0.9224337986	 1.6010853387	 0.115324
H	-3.114655089	-0.5580628715	 1.4976948959	 0.143694
H	-1.5452509778	-0.5945397467	 2.2957478228	 0.119395
H	-1.8748177527	-0.0968739464	-2.0178984921	 0.114334
H	-3.2830589776	-0.5509886964	-1.0638464041	 0.147596
H	-2.5912985099	 1.0771436231	-0.8959745251	 0.104713
63.9177	111.6227	209.5585	215.6397	244.625	272.7897	274.5524	300.4175	342.9143	356.342	374.1421	384.4489	418.889	475.5272	556.4894	615.9492	722.9659	768.4328	826.4574	899.9625	928.7086	946.6462	956.4551	1007.2371	1012.5969	1032.6589	1088.2185	1111.3888	1162.547	1188.428	1239.1911	1256.4478	1285.4495	1363.4406	1395.1639	1404.1499	1407.1058	1423.8285	1479.8017	1492.2804	1494.7783	1501.6305	1507.4212	1507.9199	1519.2968	1647.5476	1839.4152	3028.4301	3034.8083	3040.1195	3044.6652	3096.4285	3107.6449	3110.7296	3116.6133	3127.1942	3150.7173	3159.9816	3493.606	3572.4481
CC([NH3+])C(C)(C)C([O-])=O	C[C@@H](N)C(C)(C)C(=O)O	
InChI=1S/C6H13NO2/c1-4(7)6(2,3)5(8)9/h4H,7H2,1-3H3,(H,8,9)	InChI=1S/C6H13NO2/c1-4(7)6(2,3)5(8)9/h4H,7H2,1-3H3,(H,8,9)/t4-/m1/s1
