18
gdb 37113	3.65858	1.66884	1.58519	1.5859	79.06	-0.2013	0.0121	0.2134	912.8412	0.149568	-364.716845	-364.710308	-364.709364	-364.747167	28.111	
C	 0.0429384897	 1.4917528676	-0.058598592	-0.251806
C	 1.262711547	 0.662277116	-0.0123116746	-0.083368
N	-0.1142195914	 0.0292826171	 0.0602404328	-0.18228
C	 0.2221587501	-0.6280953439	-1.2779200192	 0.249537
C	 0.6570988729	 0.2250358928	-2.4417463499	-0.386003
C	 1.6335311198	-0.0479823748	-1.331170987	 0.208507
C	 2.605460845	-1.2185951218	-1.4164659004	-0.350672
C	 1.6751317062	-2.4287374861	-1.4626965883	-0.058533
C	 0.3806513491	-2.0993992935	-1.3517858022	-0.148573
H	-0.2346546969	 1.9963145361	 0.8630123757	 0.123998
H	-0.2696080026	 2.018246089	-0.9529850557	 0.119271
H	 1.9240686634	 0.6481345877	 0.8491383384	 0.095332
H	 0.8264293187	-0.3416496061	-3.3507241107	 0.126865
H	 0.2697501995	 1.220739448	-2.6237977607	 0.118437
H	 3.2600443007	-1.1692884026	-2.2959072657	 0.11258
H	 3.2727200955	-1.2597097208	-0.545284199	 0.112168
H	 2.0464892469	-3.4388560027	-1.6106394631	 0.094497
H	-0.4454046537	-2.8013527419	-1.3305652986	 0.100041
209.1337	250.6402	305.5486	426.7473	477.8212	489.2806	531.5774	613.9407	687.7641	705.807	748.9426	777.4721	830.1266	850.2084	866.5482	914.4608	926.0742	940.5292	949.4242	975.5924	993.9046	1048.4829	1070.7554	1088.8302	1111.1791	1127.0469	1133.9696	1160.0421	1205.473	1226.7367	1248.2097	1296.7314	1336.9689	1371.9939	1375.9979	1466.488	1479.7894	1518.4886	1641.5736	3017.0986	3044.7969	3122.6864	3139.999	3150.1378	3170.5421	3200.5603	3206.4673	3220.0818
C1C2N1C13CC21CC=C3	C1[C@H]2N1[C@@]13C[C@@]21CC=C3	
InChI=1S/C8H9N/c1-2-7-5-8(7,3-1)9-4-6(7)9/h1,3,6H,2,4-5H2	InChI=1S/C8H9N/c1-2-7-5-8(7,3-1)9-4-6(7)9/h1,3,6H,2,4-5H2/t6-,7+,8+,9?/m1/s1
