19
gdb 97540	2.57123	0.82805	0.72974	3.0319	85.85	-0.2658	0.0126	0.2784	1664.3587	0.157153	-382.054844	-382.044013	-382.043069	-382.092032	38.064	
C	 0.3054157959	 1.4674587256	 0.2827805054	-0.366491
C	-0.1991116028	 0.085253022	-0.1707972174	-0.318886
C	 0.5375514008	-0.4448648796	-1.3130817534	 0.057321
C	 1.1589428361	-0.8586527847	-2.2569850102	 0.150149
C	 1.9147996951	-1.3821289315	-3.4009374296	-0.116944
C	 2.0944308115	-2.9127261221	-3.2839313482	-0.382139
N	 1.1794342179	-1.0937766587	-4.6447328941	-0.504704
C	 3.263453604	-0.7439325613	-3.4058497678	 0.268995
N	 4.3066890925	-0.2494974505	-3.4719461117	-0.346248
H	 1.357850774	 1.4208993695	 0.5742060191	 0.135932
H	 0.2105362606	 2.1998170419	-0.5232161021	 0.131208
H	-0.2759191743	 1.8194632211	 1.1397521884	 0.118871
H	-0.1296532691	-0.6256527645	 0.662193786	 0.13575
H	-1.2640811803	 0.1454228504	-0.4282450602	 0.136401
H	 1.1066527855	-3.3763099611	-3.2818898901	 0.14504
H	 2.6678273812	-3.2883097705	-4.136507617	 0.127883
H	 2.6240435661	-3.1691794016	-2.3648088255	 0.142141
H	 1.0167343714	-0.0937242562	-4.7193914373	 0.245557
H	 1.7520756137	-1.3614976882	-5.4416343044	 0.240164
20.6967	66.9701	102.5536	166.6005	188.1498	213.6265	227.8511	257.7203	293.216	339.313	379.3162	451.4347	466.2467	510.8592	575.3707	604.7282	658.6407	785.4315	814.2601	887.9644	929.1926	973.1237	1035.8788	1076.4561	1103.818	1107.5296	1157.7334	1207.2408	1285.821	1341.4878	1353.5826	1401.4273	1411.5728	1472.8845	1484.6063	1486.2248	1495.3125	1505.2661	1652.2863	2341.6366	2372.1628	3025.3513	3047.9213	3052.8121	3053.9337	3122.2004	3128.1181	3132.9544	3155.4436	3485.1437	3572.0584
CCC#CC(C)(N)C#N	CCC#C[C@@](C)(N)C#N	
InChI=1S/C7H10N2/c1-3-4-5-7(2,9)6-8/h3,9H2,1-2H3	InChI=1S/C7H10N2/c1-3-4-5-7(2,9)6-8/h3,9H2,1-2H3/t7-/m1/s1
