16
gdb 27230	3.44191	1.62068	1.11114	2.9532	79.38	-0.1801	-0.008	0.1721	1037.1358	0.127989	-396.97032	-396.963229	-396.962285	-397.001626	28.019	
N	 0.0427068891	 1.4123306898	 0.1502267102	-0.595601
C	-0.0346982553	 0.0194891047	 0.0482303737	 0.132649
C	-1.1371618644	-0.798506914	 0.0238139287	 0.279612
C	-2.6365099005	-0.8915171336	 0.0368363225	-0.427227
C	-2.8391642429	-2.4011127567	-0.0029391329	-0.129113
C	-1.6594306148	-3.0333167885	-0.0294249333	-0.017391
N	-0.6198198393	-2.0910766672	-0.0146799418	-0.012861
C	 0.7331203282	-2.001019185	-0.0047142964	-0.025377
N	 1.1178602603	-0.737526781	 0.0274907393	-0.327675
H	 0.9738035575	 1.7280050712	-0.0913426658	 0.247852
H	-0.6438700129	 1.8957602593	-0.4143324283	 0.238859
H	-3.0907711358	-0.4469707373	 0.9338000399	 0.134169
H	-3.116408208	-0.4007129638	-0.8224337245	 0.125161
H	-3.8069616302	-2.8809937673	-0.0096375257	 0.111689
H	-1.4368129978	-4.0895525422	-0.0589040363	 0.135916
H	 1.3851106365	-2.8602413984	-0.0250065992	 0.129338
142.2041	199.3907	243.3461	273.8824	341.6697	467.4791	524.1088	618.8949	652.2857	674.4959	684.9997	730.9239	765.7101	781.5641	824.7983	870.9543	908.696	936.9288	961.9791	1042.3581	1089.0796	1143.6544	1150.9251	1224.9018	1244.573	1289.5669	1317.2779	1346.0542	1403.6885	1454.5311	1470.2914	1507.3336	1632.5999	1647.8854	1676.9055	2998.5336	3015.3385	3236.5805	3258.8793	3261.056	3534.3747	3629.8412
NC1=C2CC=CN2C=N1	Nc1c2CC=Cn2cn1	
InChI=1S/C6H7N3/c7-6-5-2-1-3-9(5)4-8-6/h1,3-4H,2,7H2	InChI=1S/C6H7N3/c7-6-5-2-1-3-9(5)4-8-6/h1,3-4H,2,7H2
