15
gdb 129543	3.27807	1.14608	1.06113	2.6406	73.24	-0.2551	-0.0186	0.2364	1164.8261	0.11264	-416.751979	-416.743675	-416.742731	-416.785614	30.296	
N	-0.1316899074	 1.4316536655	 0.1259810613	-0.501425
C	 0.0216868802	-0.0270496978	-0.0165001697	-0.279137
C	 0.7634655759	-0.4457661641	-1.2179666522	 0.330299
C	 1.3567402692	-0.7461075006	-2.219349256	-0.467461
C	 0.6571659052	-0.5804542317	 1.228913223	 0.503253
C	 0.2639974621	-1.4952066715	 2.1531313599	-0.3575
C	 1.3504193593	-1.5224370056	 3.0682511856	 0.039778
N	 2.3096239572	-0.6987413461	 2.7271005732	-0.135455
O	 1.8698324962	-0.0979828402	 1.5487419805	-0.218579
H	 0.7917864424	 1.8452938469	 0.2266127319	 0.249418
H	-0.5154392463	 1.8031278643	-0.7388894384	 0.239476
H	-0.9853064597	-0.4580275314	-0.0667697473	 0.130704
H	 1.8885381945	-1.0180069971	-3.0977502886	 0.205042
H	-0.6540434189	-2.0572453397	 2.1815193668	 0.125342
H	 1.46432654	-2.1138379709	 3.96582622	 0.136245
46.1007	99.8933	173.583	201.2042	257.0671	318.0183	394.7751	447.1315	565.8506	645.2678	647.8672	656.9578	717.7845	751.6552	816.6276	866.5837	917.922	928.0577	945.4207	983.4191	1015.311	1052.6808	1088.2935	1170.4588	1210.8923	1270.9426	1307.7029	1377.4317	1398.0005	1513.0726	1639.4609	1659.6955	2229.3497	3042.5532	3245.416	3283.7338	3487.8711	3501.8791	3567.5253
NC(C#C)C1=CC=NO1	N[C@@H](C#C)c1ccno1	
InChI=1S/C6H6N2O/c1-2-5(7)6-3-4-8-9-6/h1,3-5H,7H2	InChI=1S/C6H6N2O/c1-2-5(7)6-3-4-8-9-6/h1,3-5H,7H2/t5-/m0/s1
