18
gdb 77632	2.14004	1.42917	1.29272	1.2635	81.54	-0.2045	0.0283	0.2328	1119.0796	0.145262	-401.864148	-401.854709	-401.853765	-401.89805	35.262	
C	-0.0169766857	 1.5294789525	-0.0089295327	-0.420931
C	 0.074335616	 0.0219574545	-0.1015562927	-0.136365
C	 0.6891069752	-0.7587110158	-1.2245056169	 0.29774
O	 0.0421015458	-1.7351692229	-1.9489594346	-0.449891
C	 1.9737830033	-0.1166558951	-1.7389306407	-0.233167
N	 2.500019465	 0.0263658825	-0.3378916468	-0.365571
C	 1.3535471112	-0.7659297588	 0.1803797261	 0.131942
C	 1.4896730538	-1.755216836	 1.1838387857	 0.193969
C	 1.631004089	-2.6081716344	 2.0230183127	-0.428713
H	 0.9441874009	 1.989432897	-0.2475444515	 0.148382
H	-0.7772639699	 1.9241607801	-0.6919180936	 0.111172
H	-0.2878975873	 1.8335686494	 1.0071100302	 0.123337
H	-0.7815928488	-0.5165242788	 0.3055365807	 0.096316
H	-0.9043532385	-1.562296607	-1.9318398353	 0.291885
H	 2.5460044223	-0.8323969769	-2.3365352022	 0.119355
H	 1.8889292033	 0.8291945625	-2.2854638681	 0.104329
H	 3.3585257553	-0.5037293249	-0.2263231083	 0.228903
H	 1.7480848392	-3.3549057979	 2.7684267279	 0.187307
90.4865	128.2165	140.8445	172.0155	225.1713	227.297	292.3712	361.0794	395.9429	499.4096	517.1083	536.549	583.5307	641.7031	667.8977	707.8981	746.8969	765.4046	826.9442	966.2541	981.4101	999.9317	1036.5741	1104.1986	1108.9906	1121.0255	1164.9784	1198.9275	1250.3631	1274.4531	1312.2493	1351.163	1395.8395	1406.5236	1474.8729	1489.1488	1504.7675	1514.9717	2222.8808	3035.4207	3037.911	3092.6046	3096.2987	3114.9728	3134.7995	3502.575	3522.979	3818.984
CC1C2(O)CNC12C#C	C[C@H]1[C@@]2(O)CN[C@@]12C#C	
InChI=1S/C7H9NO/c1-3-6-5(2)7(6,9)4-8-6/h1,5,8-9H,4H2,2H3	InChI=1S/C7H9NO/c1-3-6-5(2)7(6,9)4-8-6/h1,5,8-9H,4H2,2H3/t5-,6+,7+/m1/s1
