17
gdb 40480	3.8463	1.35099	1.22301	1.716	72.61	-0.2333	0.0541	0.2874	1046.2058	0.136719	-417.852464	-417.845356	-417.844412	-417.884508	27.874	
C	 0.3899297178	 1.5426228507	 0.2496966679	-0.234045
N	 1.2327041978	 0.4130776882	-0.1771672562	-0.308421
C	-0.186207197	 0.1783789747	 0.1406811851	-0.219314
C	-0.4691820674	-0.6321595745	 1.347123282	 0.566732
O	 0.1435647932	-0.2961992577	 2.6278199019	-0.352198
C	-0.6795053546	-1.4559181501	 2.940695347	 0.065661
C	-1.8400332951	-1.0554010287	 1.9731906563	-0.132361
N	-1.8511338953	-2.3437650568	 1.20714327	-0.353371
C	-0.4078962031	-2.1786171966	 1.5827747234	-0.12375
H	 0.6292477399	 1.9320354811	 1.2339171007	 0.140959
H	 0.0865320079	 2.2847744961	-0.4838909281	 0.112984
H	 1.3552225017	 0.4314488515	-1.1863735566	 0.233975
H	-0.8732469906	-0.0221012198	-0.6785046984	 0.106045
H	-0.6923400765	-1.8283883634	 3.9656685381	 0.095886
H	-2.7256927293	-0.4474161143	 2.1614979845	 0.090983
H	-2.2795096739	-3.0837923274	 1.7685816212	 0.21322
H	 0.3813023145	-2.8793414429	 1.3111208111	 0.097016
61.8596	154.9223	178.2664	306.3104	424.372	542.8038	548.5638	630.7446	761.4401	774.681	808.3407	843.0154	868.1191	872.294	883.7679	903.626	921.4614	945.0128	976.0222	1004.6603	1052.7416	1079.7954	1112.8615	1118.7509	1129.1212	1135.6975	1151.1977	1181.0665	1210.2585	1228.9427	1253.459	1286.4387	1291.2288	1300.3949	1352.0063	1473.321	1512.6744	3108.6479	3115.1076	3118.4999	3131.6059	3137.4345	3208.9814	3410.4514	3501.868
C1NC1C12OC3C1NC23	C1N[C@H]1[C@@]12O[C@H]3[C@@H]1N[C@@H]23	
InChI=1S/C6H8N2O/c1-2(7-1)6-4-3(9-6)5(6)8-4/h2-5,7-8H,1H2	InChI=1S/C6H8N2O/c1-2(7-1)6-4-3(9-6)5(6)8-4/h2-5,7-8H,1H2/t2-,3-,4-,5+,6+/m1/s1
