16
gdb 53056	6.06499	0.72953	0.65654	5.1203	88.33	-0.2414	-0.0481	0.1933	1654.5528	0.123922	-400.783257	-400.774095	-400.773151	-400.819446	31.527	
C	-0.0929118207	 1.4458391695	 0.0108439968	-0.509165
C	-0.0117114074	-0.005172137	 0.0030699244	 0.225396
C	 0.0689450638	-1.2101561973	-0.0034505308	-0.112598
C	 0.1178572417	-2.618569715	-0.0113020128	 0.206261
C	 1.1892152034	-3.4322630626	-0.0220359544	-0.361575
C	 0.7522322128	-4.8556128279	-0.0269626405	 0.445993
O	 1.431555776	-5.8604283969	-0.0369640433	-0.393635
N	-0.6282996306	-4.8002480972	-0.0178412994	-0.353158
C	-1.1504743509	-3.4582955773	-0.0081091164	-0.263438
H	 0.9040027062	 1.8990569042	 0.0041475445	 0.158529
H	-0.6351392922	 1.815718013	-0.866577466	 0.157097
H	-0.6192807114	 1.8070570738	 0.9014403333	 0.157115
H	 2.2299940907	-3.1452131115	-0.0267784737	 0.123313
H	-1.1912414817	-5.6330962079	-0.0203102734	 0.255247
H	-1.757880263	-3.2434930924	 0.8821068937	 0.132311
H	-1.7681746366	-3.2346125974	-0.8890126719	 0.132306
16.1838	73.3547	87.3423	93.6893	240.8393	292.6828	393.0902	398.9657	408.273	464.0572	551.6711	558.4344	698.3288	738.0264	853.9934	898.5558	930.3602	966.9106	1009.0497	1047.6117	1052.4112	1084.2368	1184.6569	1198.7876	1227.8436	1318.5894	1327.177	1412.3981	1418.9021	1473.1622	1474.121	1500.5636	1651.4247	1819.8433	2348.6741	3006.173	3028.2008	3032.002	3088.2374	3094.884	3255.2457	3676.4016
CC#CC1=CC(=O)NC1	CC#CC1=CC(=O)NC1	
InChI=1S/C7H7NO/c1-2-3-6-4-7(9)8-5-6/h4H,5H2,1H3,(H,8,9)	InChI=1S/C7H7NO/c1-2-3-6-4-7(9)8-5-6/h4H,5H2,1H3,(H,8,9)
