18
gdb 33969	2.31103	1.74462	1.21029	1.6623	83.65	-0.2285	0.0169	0.2454	1070.8887	0.146712	-364.715046	-364.70694	-364.705996	-364.747396	32.125	
C	 0.1011628425	-1.2030847119	 0.0343660028	-0.41052
C	 0.048871612	-0.0008250958	 0.0129100192	 0.2226
C	-0.0761816581	 1.417703823	 0.0093612555	 0.084759
C	 0.2115794578	 2.2796469334	-1.1673907406	-0.270675
N	 1.1132355093	 2.4028311105	-0.0156079945	-0.165134
C	 0.3750274872	 3.2487076148	 0.9934575426	-0.246961
C	-0.7729710166	 2.2404703048	 1.0788136701	 0.313484
C	-2.2465315723	 2.4324315751	 1.2834520196	-0.331374
C	-1.4142826289	 1.7022169367	 2.3160648113	-0.334199
H	 0.1662930912	-2.2628914985	 0.0491905457	 0.191825
H	 0.6806095789	 1.8058132302	-2.0238495531	 0.132118
H	-0.470502848	 3.0949973437	-1.4035744161	 0.112568
H	 0.9642582112	 3.3282786247	 1.9098558119	 0.117427
H	 0.1391859683	 4.2527104219	 0.6229682024	 0.106044
H	-2.5994270361	 3.4305684654	 1.5225934565	 0.115028
H	-2.9279218546	 1.850391278	 0.6712948389	 0.119745
H	-1.5273813802	 0.6255453017	 2.3913712432	 0.128308
H	-1.2056960335	 2.2008770422	 3.2573464347	 0.114959
107.8222	135.5531	180.4316	270.0506	286.3359	412.2643	453.4051	475.2294	543.2947	571.1069	590.8437	624.4217	662.7141	747.7438	776.7416	842.8398	858.2368	879.9462	909.8413	952.4843	993.248	1002.7975	1055.7384	1077.5918	1088.5499	1123.7812	1130.9788	1163.887	1188.4008	1196.2221	1272.2016	1286.2017	1336.0319	1397.482	1461.3076	1487.6063	1503.1728	1507.0924	2230.6167	3038.0128	3096.4117	3103.1976	3124.5094	3127.3473	3200.7129	3204.3181	3218.472	3502.0122
C#CC12CN1CC21CC1	C#C[C@]12CN1CC12CC1	
InChI=1S/C8H9N/c1-2-8-6-9(8)5-7(8)3-4-7/h1H,3-6H2	InChI=1S/C8H9N/c1-2-8-6-9(8)5-7(8)3-4-7/h1H,3-6H2/t8-,9?/m1/s1
