15
gdb 16307	3.78485	1.69659	1.44332	2.1174	63.09	-0.2522	-0.0424	0.2098	875.6714	0.118815	-399.762219	-399.755009	-399.754065	-399.793685	26.938	
O	 0.2654784104	 1.4181922977	-0.0048660742	-0.429493
C	 0.1336205735	 0.0286117973	 0.0307913281	 0.069559
C	 0.2416711138	-0.7090937163	 1.423240136	-0.260405
C	-1.1872348456	-1.2125257144	 1.2282635173	-0.073081
N	-2.039618093	-0.0430480846	 1.0612209629	-0.374569
C	-1.2900171621	-0.5278951483	-0.124588429	 0.219816
C	-2.0202891161	-1.0521131441	-1.2851311396	 0.040968
O	-3.1919275823	-1.3620119739	-1.2481490865	-0.282607
H	-0.4533204341	 1.769058989	 0.5375276439	 0.293979
H	 0.8294396859	-0.3843765296	-0.7040500147	 0.100591
H	 0.9919231626	-1.5019734503	 1.4225701269	 0.114062
H	 0.3892893927	-0.0562230054	 2.2866508921	 0.116569
H	-1.6051684079	-2.1777756126	 1.4867803571	 0.121181
H	-3.0010421179	-0.3598824477	 0.9206332094	 0.256558
H	-1.4171568899	-1.1714390469	-2.2097537596	 0.086871
118.7994	150.1456	204.9671	243.6554	343.0511	433.4921	478.8178	494.8928	641.5278	699.3297	739.1054	819.322	845.0448	910.2909	932.2822	1009.933	1022.4827	1043.8044	1077.7584	1102.5788	1141.6598	1179.4168	1195.7095	1234.8139	1287.9786	1301.1143	1358.5325	1390.6722	1429.0042	1442.9198	1472.8505	1778.93	2911.5704	3071.1684	3086.2642	3133.8488	3199.0242	3459.7547	3767.3353
OC1CC2NC12C=O	O[C@H]1C[C@H]2N[C@@]12C=O	
InChI=1S/C5H7NO2/c7-2-5-3(6-5)1-4(5)8/h2-4,6,8H,1H2	InChI=1S/C5H7NO2/c7-2-5-3(6-5)1-4(5)8/h2-4,6,8H,1H2/t3-,4+,5-/m1/s1
