21
gdb 117953	2.06763	1.12825	0.80717	2.4356	77.12	-0.2479	0.0066	0.2545	1508.3035	0.178938	-461.39155	-461.380366	-461.379422	-461.429278	38.097	
C	-0.0851159961	 1.0209342402	-0.7947722848	-0.382569
C	-0.3681775845	-0.4669400253	-0.6745460064	-0.043064
O	-1.2987223739	-0.6491327057	 0.3842153402	-0.263076
C	-1.5969885359	-1.9966526807	 0.7233006352	 0.025042
C	-1.9599453114	-2.0441491261	 2.1984163773	-0.392375
C	-2.7668654059	-2.4803870823	-0.1466836366	 0.446555
O	-3.9163767502	-2.5555740504	 0.203426825	-0.356897
O	-2.3455057225	-2.7826883748	-1.3934030158	-0.23329
C	-3.3775874421	-3.1716938945	-2.3110084311	-0.243994
H	 0.6366230794	 1.2053002231	-1.5962546584	 0.114447
H	-1.0035119242	 1.569474907	-1.0225324808	 0.12818
H	 0.3241151595	 1.4128755761	 0.140612513	 0.125609
H	-0.7674077092	-0.8647691136	-1.6166332814	 0.103115
H	 0.5581435994	-1.0221248074	-0.4524435272	 0.086347
H	-0.7262976647	-2.635425141	 0.5138169518	 0.083753
H	-2.1873282086	-3.0677921091	 2.5080697049	 0.120983
H	-1.1240040156	-1.6678093786	 2.7925393417	 0.11748
H	-2.8415755415	-1.427993887	 2.3853969158	 0.144902
H	-3.8947385949	-4.0638159034	-1.9494301671	 0.142519
H	-4.1081344403	-2.3680184817	-2.4318464316	 0.143384
H	-2.8739961967	-3.3772016346	-3.2555129736	 0.132948
29.6799	62.9931	95.9299	122.2558	147.241	182.9638	206.6347	232.133	246.6698	290.1924	321.6007	366.1083	437.1132	503.8332	654.7283	789.0081	820.8403	846.477	859.2035	954.5553	1008.3464	1050.2609	1090.9862	1119.4452	1137.4095	1178.2864	1179.5796	1189.1256	1204.0623	1222.2621	1295.8214	1351.8056	1373.8026	1402.5962	1408.3563	1435.7371	1471.3848	1481.4651	1481.7577	1483.1475	1488.5877	1496.8246	1501.5499	1532.7149	1824.3759	2970.1716	2998.0293	3036.2543	3044.9601	3053.4011	3055.8486	3119.1163	3122.3922	3128.988	3130.1915	3145.1393	3160.4381
CCOC(C)C(=O)OC	CCO[C@@H](C)C(=O)OC	
InChI=1S/C6H12O3/c1-4-9-5(2)6(7)8-3/h5H,4H2,1-3H3	InChI=1S/C6H12O3/c1-4-9-5(2)6(7)8-3/h5H,4H2,1-3H3/t5-/m0/s1
