19
gdb 31843	4.82012	0.98158	0.82394	1.0781	88.47	-0.208	0.0049	0.2129	1412.0799	0.159898	-385.95807	-385.949277	-385.948333	-385.992465	32.473	
C	 0.1027184514	 1.4003869174	 0.0228944843	-0.244232
O	 0.0138242778	-0.0087799253	-0.0350319401	-0.265541
C	-1.2255412347	-0.5746540204	-0.0125135858	 0.386738
C	-2.4246677939	 0.1327689365	 0.0632481805	-0.256926
C	-3.6360747905	-0.5627685266	 0.0790890715	-0.183985
C	-3.6888374702	-1.9524033236	 0.02127265	 0.298634
C	-5.001191165	-2.6972567879	 0.0387066759	-0.493894
C	-2.4706457159	-2.6428982934	-0.0544602918	-0.170306
C	-1.2588673234	-1.9733740895	-0.0714290279	-0.18876
H	 1.1670490741	 1.6402389559	-0.0066406467	 0.133213
H	-0.3966681812	 1.8750160278	-0.8320985613	 0.122639
H	-0.3297436274	 1.7974896051	 0.9507675144	 0.122645
H	-2.4337251238	 1.214026128	 0.1101111673	 0.093162
H	-4.5611622723	 0.0036646605	 0.1384489207	 0.086895
H	-5.1325053173	-3.3042279798	-0.8647163707	 0.127201
H	-5.0658721252	-3.380538968	 0.8935608456	 0.12719
H	-5.848233012	-2.008498284	 0.1007109727	 0.119388
H	-2.4742811079	-3.7284641646	-0.100990773	 0.087457
H	-0.3184387126	-2.5097680881	-0.1300134454	 0.098482
31.1794	79.7983	152.5903	225.7155	239.8793	338.7643	345.011	424.0512	424.0703	527.682	529.5276	650.2967	725.7818	730.3962	825.9399	838.7813	846.2433	927.3147	955.7068	1004.5191	1026.0669	1063.2979	1076.7019	1136.4645	1177.1349	1200.1678	1208.9806	1232.8233	1284.3549	1330.1997	1348.7556	1414.7061	1443.3684	1477.6188	1485.1621	1488.8418	1498.3426	1506.556	1549.445	1617.803	1659.2774	3000.4925	3025.4768	3058.1433	3075.6635	3108.7881	3130.7295	3162.8691	3166.3311	3197.1761	3212.0032
COC1=CC=C(C)C=C1	COc1ccc(C)cc1	
InChI=1S/C8H10O/c1-7-3-5-8(9-2)6-4-7/h3-6H,1-2H3	InChI=1S/C8H10O/c1-7-3-5-8(9-2)6-4-7/h3-6H,1-2H3
