16
gdb 56390	3.19257	0.73082	0.61583	1.2459	80.48	-0.2695	-0.0629	0.2066	1752.0264	0.121057	-400.752378	-400.742133	-400.741188	-400.789881	34.293	
C	 0.3907180384	 1.6311724976	-0.1268916049	-0.383822
C	 0.054459011	 0.1266955972	 0.0382016977	-0.313804
C	 0.4262260764	-0.6274975195	-1.1717231202	 0.292245
N	 0.711750423	-1.2000622906	-2.1330671329	-0.312553
C	 0.6826023289	-0.4442918585	 1.2293537991	 0.100048
C	 1.1916136327	-0.8776320242	 2.232646815	 0.041732
C	 1.8040864767	-1.4006999902	 3.4462389359	 0.252415
C	 2.6443795832	-2.6453953651	 3.2644104775	-0.479009
O	 1.6362799497	-0.8570458459	 4.5156109152	-0.269146
H	 1.4663389149	 1.7694997211	-0.250564338	 0.154179
H	-0.1215545325	 2.0323468438	-1.0040365147	 0.146099
H	 0.0643534203	 2.1733501981	 0.7625749623	 0.149003
H	-1.0344548743	 0.0301053811	 0.1502821016	 0.169635
H	 3.4525153135	-2.452226868	 2.550646555	 0.152707
H	 3.0576970949	-2.9508859826	 4.2265186922	 0.14735
H	 2.0343149633	-3.4517236742	 2.8430130491	 0.152922
16.5004	59.7833	95.542	127.5774	148.4762	208.0065	229.5133	244.8246	361.1766	378.1379	474.8245	542.2128	576.4245	600.067	612.347	700.8322	820.0781	948.3396	982.8823	1042.839	1043.6348	1071.8898	1137.2876	1240.4098	1287.3008	1324.0758	1383.321	1409.0964	1459.4949	1467.0117	1489.1141	1496.7595	1773.7794	2339.6768	2367.0025	3020.8478	3040.324	3061.2792	3104.2822	3145.8787	3150.6095	3154.5675
CC(C#N)C#CC(C)=O	C[C@@H](C#N)C#CC(=O)C	
InChI=1S/C7H7NO/c1-6(5-8)3-4-7(2)9/h6H,1-2H3	InChI=1S/C7H7NO/c1-6(5-8)3-4-7(2)9/h6H,1-2H3/t6-/m1/s1
