17
gdb 49606	2.89108	1.55364	1.09668	5.2447	75.67	-0.2382	-0.0144	0.2238	1087.8156	0.137338	-418.032135	-418.024305	-418.023361	-418.064941	29.431	
N	 0.1093286508	 1.2892232891	-0.0300099441	-0.415648
C	-0.0140982725	 0.0280894409	 0.0134127174	 0.077363
N	-1.2347853612	-0.6431141332	-0.0045308763	-0.088831
C	-1.2666602063	-2.0860151309	-0.0184920137	-0.005325
C	-1.7502943451	-2.7677505732	 1.2377107994	-0.304283
C	-2.7075654854	-2.5061863648	 0.0944347048	-0.063932
C	-3.5325042934	-1.2364263788	 0.1172448708	-0.35323
C	-2.5220879691	-0.0769652896	 0.112590334	 0.405935
O	-2.7821410168	 1.0905220826	 0.2130521844	-0.32073
H	 1.0984539747	 1.5332950268	-0.0052267274	 0.228105
H	 0.8167974932	-0.6876301237	 0.0609669949	 0.092748
H	-0.5644336673	-2.567801459	-0.6886035132	 0.112708
H	-1.4472838903	-3.7962806396	 1.4005319603	 0.123121
H	-1.8302598221	-2.165930702	 2.1376231392	 0.127413
H	-3.067106598	-3.3548280965	-0.4735505761	 0.104375
H	-4.1643851234	-1.1428673687	-0.771912025	 0.139526
H	-4.1863475278	-1.1344443293	 0.9880214607	 0.140685
72.4254	119.8972	146.0871	222.7035	310.2982	436.8222	460.0389	484.3159	572.3822	661.5128	688.1629	735.526	808.9159	820.5222	828.0704	900.9946	981.59	992.6897	1042.3092	1056.8555	1063.0186	1067.7302	1097.2274	1119.547	1185.0521	1194.5209	1208.4724	1243.9626	1293.2514	1333.7863	1366.9854	1420.5835	1436.2164	1461.2186	1481.5868	1717.256	1851.6683	3029.2943	3059.801	3100.0313	3128.9451	3176.1239	3189.919	3221.6002	3494.3245
N=CN1C2CC2CC1=O	[NH][CH]N1[C@H]2C[C@H]2CC1=O	
InChI=1S/C6H8N2O/c7-3-8-5-1-4(5)2-6(8)9/h3-5,7H,1-2H2	InChI=1S/C6H8N2O/c7-3-8-5-1-4(5)2-6(8)9/h3-5,7H,1-2H2/t4-,5-/m0/s1
