13
gdb 127809	3.71376	1.7883	1.21637	3.7432	65.59	-0.264	-0.0431	0.2209	930.1596	0.092463	-445.072493	-445.065833	-445.064889	-445.10414	23.897	
C	 0.078066286	 1.4345576186	-0.0607247267	-0.343595
N	 0.007631244	-0.0059677913	 0.0699073966	-0.14864
N	-0.1375669182	-0.8105513581	-1.0286818156	-0.107196
N	-0.1756483135	-2.0455564609	-0.6714785261	-0.117768
N	-0.0537001046	-2.0429756404	 0.6750410129	 0.111798
N	-0.0161002078	-2.9594783796	 1.6683952382	-0.264649
C	 0.1253574356	-2.1468249433	 2.7205854504	 0.046779
N	 0.1811869899	-0.796162782	 2.48678376	-0.395154
C	 0.0626004502	-0.7893591957	 1.1709796643	 0.567109
H	 1.031102284	 1.8029220052	 0.3269896133	 0.166577
H	-0.0053160581	 1.6676878174	-1.1218129571	 0.177178
H	-0.7417150502	 1.9041561472	 0.4885627182	 0.166592
H	 0.1924911126	-2.5550825671	 3.7185056415	 0.140969
70.805	152.8839	258.1202	260.9726	368.5354	545.1134	632.3988	654.3535	664.848	742.4361	763.2135	878.8283	917.5023	970.6471	1010.091	1157.2847	1161.8769	1188.62	1234.1127	1269.9759	1308.4743	1350.4272	1392.9855	1437.7787	1452.6945	1479.7011	1482.8224	1508.6907	1652.7031	3058.0092	3128.061	3170.9028	3260.5589
CN1N=NN2N=CN=C12	Cn1nnn2ncnc12	
InChI=1S/C3H4N6/c1-8-3-4-2-5-9(3)7-6-8/h2H,1H3	InChI=1S/C3H4N6/c1-8-3-4-2-5-9(3)7-6-8/h2H,1H3
