18
gdb 99224	4.69804	0.71122	0.62541	8.1749	73.48	-0.2322	0.028	0.2602	1724.4148	0.147022	-472.448523	-472.438403	-472.437458	-472.484791	35.411	
C	 0.0943304399	 1.3735635448	 0.1905874718	-0.3347
N	-0.1704305438	-0.0022699085	-0.1961988242	-0.331523
C	 0.5571900984	-0.6657591721	-1.1598643633	 0.452459
N	 1.1611228056	 0.1390025594	-2.1053108506	-0.555916
H	 1.4757280659	-0.3291067713	-2.9398968173	 0.269807
H	 0.7405172164	 1.0375119851	-2.2834260504	 0.259532
N	 0.6420082177	-1.9478934331	-1.1094665385	-0.356214
C	 1.3065683759	-2.6777316665	-2.1651395919	-0.320137
C	 1.1799849821	-4.1896699348	-1.9104886297	 0.416006
O	 0.5125372512	-4.4798510918	-0.7898160321	-0.361029
O	 1.6397134039	-5.0187920508	-2.6495166147	-0.347907
H	 1.1506650607	 1.5658110111	 0.4209997619	 0.136981
H	-0.2220658496	 2.0777006157	-0.5883223431	 0.12783
H	-0.5010653289	 1.6000605663	 1.0768932965	 0.142993
H	-0.4423579576	-0.6265694801	 0.5473577479	 0.251169
H	 0.2710121888	-3.5990113889	-0.4181540107	 0.298604
H	 0.8830457931	-2.4942280012	-3.1662905812	 0.120941
H	 2.3835832701	-2.4600844533	-2.2345195201	 0.131106
47.6437	68.375	84.5211	121.7875	156.1944	217.3832	278.7351	301.2341	384.6654	401.6478	506.293	531.4466	584.0821	588.3084	625.6958	683.2257	742.5449	829.4278	878.4944	925.5166	1006.6199	1032.9757	1123.5176	1144.8764	1155.3458	1221.5074	1226.2358	1232.0683	1339.0446	1426.4362	1454.5895	1464.2195	1467.3268	1490.7627	1500.8373	1520.1726	1648.5712	1739.1439	1874.6433	2967.4976	3004.0914	3008.8887	3058.9361	3130.3515	3417.3754	3593.5638	3630.5229	3698.0622
CNC(=[NH2+])NCC([O-])=O	CNC(=NCC(=O)O)N	
InChI=1S/C4H9N3O2/c1-6-4(5)7-2-3(8)9/h2H2,1H3,(H,8,9)(H3,5,6,7)	InChI=1S/C4H9N3O2/c1-6-4(5)7-2-3(8)9/h2H2,1H3,(H,8,9)(H3,5,6,7)
