16
gdb 69012	2.89038	1.35079	1.13406	3.2519	77.71	-0.2401	-0.0054	0.2346	1103.3318	0.122397	-400.714463	-400.70587	-400.704926	-400.747489	32.406	
C	 0.0124329709	 1.5637705125	 0.1037589729	-0.490646
C	 0.0775784454	 0.0705258093	 0.0105245647	 0.077933
C	-0.8327746621	-0.8877350642	 0.7724781071	-0.35114
C	 0.6612678771	-0.9795710375	 0.9752192809	 0.1508
N	 1.2957241144	-1.6542516244	-0.1682136012	-0.398678
C	 0.7275721382	-0.7614368433	-1.0945306421	 0.403221
O	 0.7623808125	-0.721943428	-2.2908203747	-0.340912
C	 1.334110252	-0.7954402334	 2.2137576278	 0.235427
C	 1.8860821381	-0.6460595122	 3.2720594017	-0.402634
H	 0.98009869	 2.0161829746	-0.1321090315	 0.140487
H	-0.7254368593	 1.9601774283	-0.6014214699	 0.14266
H	-0.2765399211	 1.8815721271	 1.1099508476	 0.131416
H	-1.397090684	-0.4280242092	 1.5789445834	 0.135084
H	-1.3450108425	-1.6960571287	 0.2580845983	 0.124992
H	 1.3037553364	-2.6613050133	-0.2910348174	 0.24534
H	 2.382991724	-0.5118682576	 4.2009655125	 0.196649
108.4917	123.665	146.6752	200.1294	260.0387	300.2797	398.9765	466.9889	510.7151	522.6799	581.2035	594.1663	641.6021	678.8308	699.3337	734.7866	752.8512	852.0121	907.5999	960.538	983.6604	1057.5926	1089.8346	1103.9866	1172.5047	1207.4284	1310.6274	1333.8332	1379.6448	1421.1116	1482.9881	1486.4899	1494.5431	1900.1775	2238.907	3038.8214	3105.3908	3113.5385	3114.9385	3207.1767	3501.3477	3539.7748
CC12CC1(NC2=O)C#C	C[C@]12C[C@]1(NC2=O)C#C	
InChI=1S/C7H7NO/c1-3-7-4-6(7,2)5(9)8-7/h1H,4H2,2H3,(H,8,9)	InChI=1S/C7H7NO/c1-3-7-4-6(7,2)5(9)8-7/h1H,4H2,2H3,(H,8,9)/t6-,7-/m1/s1
