14
gdb 20377	6.33997	1.55032	1.3828	2.8949	63.68	-0.2745	-0.0241	0.2504	877.1863	0.109525	-374.870548	-374.864151	-374.863207	-374.902376	23.127	
C	-0.1195232686	 1.4469033246	-0.0970941631	-0.27472
C	 1.2793755496	 0.9120737742	 0.0815815897	-0.274685
C	 0.1098835124	-0.0331680924	 0.0421117819	 0.083975
N	-0.3000037553	-0.7026695625	 1.2469943201	 0.135178
N	-0.7720186364	-1.9430742831	 1.2442418495	-0.250381
C	-1.0089516245	-2.1307727894	 2.5392508163	 0.076132
N	-0.6969258319	-1.0549277389	 3.2898393331	-0.205996
N	-0.2443795073	-0.1506012383	 2.4506902414	-0.137502
H	-0.568667393	 1.9481833832	 0.7518099805	 0.152906
H	-0.4263964571	 1.8128801687	-1.0700309975	 0.13012
H	 1.955021067	 0.9024394446	-0.7658417774	 0.130135
H	 1.7461079712	 1.0631422773	 1.0474984493	 0.15283
H	-0.0323639528	-0.6884804456	-0.8054436259	 0.134365
H	-1.4094378534	-3.0482289224	 2.9383053622	 0.147643
26.002	167.2412	204.1605	424.2525	429.8132	646.014	711.4663	727.5647	779.0832	822.2277	896.8576	916.9877	953.068	1029.6715	1043.1261	1068.2905	1078.4593	1089.77	1121.8836	1163.2549	1200.8448	1215.8823	1221.7268	1266.3233	1319.9481	1382.2743	1438.6927	1455.8822	1479.7212	1504.947	3146.4391	3147.8406	3223.2904	3235.203	3248.5288	3289.0873
C1CC1N1N=CN=N1	C1CC1n1ncnn1	
InChI=1S/C4H6N4/c1-2-4(1)8-6-3-5-7-8/h3-4H,1-2H2	InChI=1S/C4H6N4/c1-2-4(1)8-6-3-5-7-8/h3-4H,1-2H2
