18
gdb 36099	3.27126	1.3185	1.11342	1.6202	80.02	-0.2219	0.051	0.2729	1129.1143	0.14644	-364.686689	-364.678627	-364.677683	-364.71939	31.877	
C	 0.0533172263	-1.2034846241	 0.2297205717	-0.454593
C	 0.0445935713	-0.0187242878	 0.0293117698	 0.312929
C	 0.0378337492	 1.4241015664	-0.1971760794	-0.451376
C	 1.3869116332	 2.0814484694	-0.0014994789	 0.332493
C	 1.8114344544	 3.2807658395	-0.7537920544	-0.301707
N	 2.4707440609	 1.9836740689	-1.0352051687	-0.17166
C	 3.4294340212	 1.625011198	 0.0871865268	 0.01379
C	 3.5454144864	 2.5662478684	 1.2521747571	-0.31622
C	 2.3456922303	 1.6655149289	 1.137992039	-0.120507
H	 0.0587159827	-2.2525807946	 0.3936687857	 0.196787
H	-0.3055091779	 1.6352949085	-1.2169022992	 0.139522
H	-0.689862206	 1.8939529662	 0.479961359	 0.133879
H	 1.1777211027	 3.5924668952	-1.5798012537	 0.119953
H	 2.3538309453	 4.0968940052	-0.2916735875	 0.120332
H	 4.1686293172	 0.8673826455	-0.1372431413	 0.106015
H	 4.2678264584	 2.2260605602	 1.9888814949	 0.119515
H	 3.4943901814	 3.6467358629	 1.1788267788	 0.114461
H	 2.0793987629	 0.9232339433	 1.8772552704	 0.106386
64.9132	106.686	222.3107	283.1188	336.7388	367.5618	460.6777	475.3837	569.455	616.5284	621.455	648.4267	708.1236	724.8527	780.9969	845.8341	906.4543	914.8654	936.7968	945.4116	974.5553	984.9558	1027.9583	1060.2568	1065.7618	1086.5855	1114.5525	1124.0569	1172.0105	1203.0016	1239.9545	1301.6365	1309.846	1345.9728	1389.4339	1450.499	1476.1177	1525.271	2239.7279	3008.498	3057.2626	3121.6343	3133.5868	3195.2526	3200.5172	3212.0629	3216.3214	3505.6503
C#CCC12CN1C1CC21	C#CC[C@]12CN1[C@H]1C[C@@H]21	
InChI=1S/C8H9N/c1-2-3-8-5-9(8)7-4-6(7)8/h1,6-7H,3-5H2	InChI=1S/C8H9N/c1-2-3-8-5-9(8)7-4-6(7)8/h1,6-7H,3-5H2/t6-,7+,8-,9?/m1/s1
