15
gdb 25788	4.32786	1.02564	0.83744	3.1272	72.81	-0.2042	-0.0194	0.1848	1284.2321	0.114025	-454.009803	-454.00156	-454.000615	-454.042611	31.231	
N	-0.1086710078	 1.3300025379	 0.1550728449	-0.559603
C	 0.0331649135	-0.0498947911	 0.0235583465	 0.298979
O	 1.1198600647	-0.5776040078	-0.1229694512	-0.353378
C	-1.2246958283	-0.8043469228	 0.0279699452	 0.268005
C	-1.4119259136	-2.1653546253	 0.2035413517	-0.360375
C	-2.8032262281	-2.4077648862	 0.1327801954	 0.32791
O	-3.4655130095	-3.5902996085	 0.2669256364	-0.445775
C	-3.4365923397	-1.1998374669	-0.0941558639	-0.155896
N	-2.4653177152	-0.2305330521	-0.1291534435	-0.339782
H	 0.7756590638	 1.8041128375	 0.2766442428	 0.257517
H	-0.8374150329	 1.6606284965	 0.7708779429	 0.248391
H	-0.6218137232	-2.8776765452	 0.3852093131	 0.118023
H	-2.8180377932	-4.2924953733	 0.3775658382	 0.300874
H	-4.4806685746	-0.972629889	-0.2285411158	 0.129674
H	-2.610794836	 0.7090652964	-0.4566789728	 0.265437
92.0058	149.0358	161.6675	243.9161	334.7616	354.6769	410.5958	420.8318	524.5834	529.8626	574.7937	633.0718	638.1603	668.4373	720.0289	728.2204	782.0588	829.129	971.0367	999.8767	1084.3443	1124.5251	1136.7634	1174.0608	1276.0527	1329.6112	1365.6205	1463.8322	1473.6398	1528.1215	1616.3916	1653.4789	1779.9988	3253.6672	3277.7449	3556.5279	3670.8944	3675.2772	3843.8151
NC(=O)C1=CC(O)=CN1	NC(=O)c1cc(O)c[nH]1	
InChI=1S/C5H6N2O2/c6-5(9)4-1-3(8)2-7-4/h1-2,7-8H,(H2,6,9)	InChI=1S/C5H6N2O2/c6-5(9)4-1-3(8)2-7-4/h1-2,7-8H,(H2,6,9)
