19
gdb 98607	3.77019	1.12689	1.00759	2.2762	77.36	-0.2414	0.0301	0.2716	1240.7602	0.160664	-419.153946	-419.14546	-419.144516	-419.187762	31.263	
C	 0.34413761	 1.451645768	-0.1252890785	-0.334874
N	 0.3331319337	 0.0215196162	-0.3551708452	-0.298284
C	-0.7024405065	-0.6208939124	-0.9593406131	 0.334416
O	-1.7122409625	-0.0773400916	-1.3733770457	-0.384307
C	-0.522806334	-2.1292551716	-1.0208846048	-0.031831
C	-0.5264874576	-2.9010501023	-2.3599253329	-0.058588
C	 0.8624963222	-2.2670646139	-2.5799933991	-0.176048
N	 0.9260149014	-2.6639043532	-1.0859140355	-0.177547
C	 0.2575927965	-3.9687803897	-1.5636568989	-0.172926
H	-0.6000336267	 1.8487830974	-0.5008558568	 0.168833
H	 0.4308477442	 1.6824762803	 0.9422195161	 0.126643
H	 1.1718825106	 1.9366897431	-0.65492315	 0.125565
H	 1.1209779043	-0.5448173273	-0.0760813047	 0.262226
H	-1.0972136965	-2.5832788419	-0.2053434116	 0.100561
H	-1.3497165743	-3.0283334727	-3.0673117604	 0.083397
H	 1.5822045269	-2.8109031238	-3.1970570093	 0.102959
H	 0.9252816619	-1.1918232058	-2.7554146105	 0.118787
H	-0.2611285252	-4.5098689765	-0.7676772269	 0.105574
H	 0.9383275316	-4.6225438726	-2.1147037022	 0.105446
71.0188	95.1024	115.5546	143.789	241.5622	304.8213	401.8812	460.8756	576.5386	605.8653	667.3003	770.5765	786.0063	794.3841	863.1763	905.4929	910.1492	922.3419	976.767	1026.6123	1059.9569	1086.924	1114.3264	1131.1379	1152.9591	1156.0423	1176.9868	1180.4412	1202.0658	1222.9496	1246.2348	1266.7814	1287.0137	1380.787	1439.6068	1495.9954	1499.7783	1515.9517	1553.8216	1569.3695	1779.0968	3027.3222	3046.1609	3053.5795	3063.533	3079.051	3082.2469	3121.7598	3134.0865	3149.405	3607.9757
CNC(=O)C1C2CN1C2	CNC(=O)[C@H]1[C@H]2CN1C2	
InChI=1S/C6H10N2O/c1-7-6(9)5-4-2-8(5)3-4/h4-5H,2-3H2,1H3,(H,7,9)	InChI=1S/C6H10N2O/c1-7-6(9)5-4-2-8(5)3-4/h4-5H,2-3H2,1H3,(H,7,9)/t5-/m1/s1
