17
gdb 39003	2.98159	2.20415	1.57495	2.5511	77.58	-0.2073	-0.0037	0.2036	857.143	0.13984	-380.817	-380.810818	-380.809874	-380.847098	26.258	
C	-0.051501393	 1.4737730202	-0.0105266497	-0.264839
C	 1.4089533592	 1.9140532503	 0.1251584189	-0.128082
C	 2.2596876132	 0.9035622253	-0.0939813017	 0.140461
C	 3.4389192354	 0.3857740769	 0.75721033	-0.225437
N	 2.6518912004	-0.494428948	 1.715057418	-0.3054
C	 1.6174076293	-0.7943931643	 1.0197230956	 0.347968
N	 0.2317445148	-0.8648155088	 1.2180639173	-0.355723
C	 0.0109064488	-0.0833755742	-0.0739447693	-0.004117
C	 1.4917326193	-0.3564659378	-0.4113815762	-0.180026
H	-0.6405821506	 1.8345118125	 0.8422734626	 0.112025
H	-0.5546286443	 1.8569206768	-0.9092704358	 0.114869
H	 1.6739628381	 2.8625909742	 0.5803126223	 0.096492
H	 4.1922047809	-0.1640126824	 0.1809175453	 0.109552
H	 3.939687598	 1.1607130199	 1.3408077231	 0.119008
H	-0.1469969874	-0.549130393	 2.1062847425	 0.236933
H	-0.7754133817	-0.5313912454	-0.6810224043	 0.091269
H	 1.7976046597	-0.9940518521	-1.2380279587	 0.095048
213.86	303.498	341.0443	367.0199	459.1308	576.3046	614.2917	690.5811	716.922	741.5334	809.9053	827.539	858.4337	864.2409	874.0132	910.9884	930.8864	978.2796	984.9397	999.6281	1020.9159	1095.6278	1137.9282	1160.403	1176.8719	1195.6016	1243.1279	1252.8229	1262.8728	1304.0279	1319.1183	1342.5384	1348.7936	1469.6452	1491.0147	1662.4311	1673.4235	3009.0571	3036.5494	3047.4362	3113.1473	3113.3772	3137.3496	3184.8357	3520.8798
C1C=C2CN=C3NC1C23	C1[CH][C]2C[N][C]3N[C@@H]1[C@@H]23	
InChI=1S/C7H8N2/c1-2-5-6-4(1)3-8-7(6)9-5/h1,5-6H,2-3H2,(H,8,9)	InChI=1S/C7H8N2/c1-2-5-6-4(1)3-8-7(6)9-5/h1,5-6H,2-3H2,(H,8,9)/t5-,6+/m0/s1
