19
gdb 52321	5.54352	0.6646	0.62626	2.2469	72.85	-0.2509	-0.0216	0.2293	1727.3581	0.158385	-460.168788	-460.159566	-460.158622	-460.204888	31.716	
O	-0.2412982872	 0.0674182092	-0.0517016617	-0.236676
C	-0.0136175016	 1.2484385799	-0.0023920182	 0.156583
C	 1.3527420806	 1.8781337333	-0.1314094886	-0.272196
C	 1.4017530168	 2.9156636257	-1.2654496806	-0.221074
C	 2.7216042063	 3.6820987462	-1.2979880112	 0.115582
C	 2.7937729656	 4.7773798828	-2.3838117067	-0.131888
O	 3.4857173931	 5.8381582355	-1.7453349731	-0.230253
C	 3.0596824856	 5.7780391899	-0.4106827919	 0.025067
O	 2.9244687335	 4.4085868935	-0.0793064869	-0.270907
H	-0.8410338262	 1.9836398576	 0.1450946808	 0.069052
H	 1.5773989543	 2.3957122348	 0.8109273848	 0.140707
H	 2.0933018919	 1.0859755544	-0.2756089042	 0.120407
H	 1.2569987603	 2.4191478874	-2.233713688	 0.113968
H	 0.5806858271	 3.6347126743	-1.1480103537	 0.1058
H	 3.5559403619	 2.976055702	-1.4064570875	 0.088649
H	 3.356219289	 4.4801397845	-3.2707418918	 0.124791
H	 1.7828634603	 5.0928965584	-2.688397344	 0.095999
H	 3.8194782048	 6.2383866392	 0.2279011098	 0.122333
H	 2.0915920536	 6.2964006013	-0.2823117676	 0.084057
39.8389	52.4721	83.5698	114.6527	145.7345	260.7852	294.3463	356.2859	462.9435	528.0045	668.4506	741.6616	768.3002	828.074	887.6155	961.5498	976.1523	1011.1236	1028.5131	1037.6019	1101.9794	1103.5706	1119.6711	1149.6199	1179.8468	1207.4639	1215.9711	1255.1859	1270.7324	1310.4551	1329.8612	1366.6577	1370.6311	1406.1936	1431.9578	1436.6083	1463.3914	1482.7073	1510.1504	1547.0389	1837.1359	2844.3897	2932.1295	2976.8697	3011.5111	3020.0334	3031.8115	3062.1668	3083.1574	3102.452	3113.8517
O=CCCC1COCO1	O=CCC[C@H]1COCO1	
InChI=1S/C6H10O3/c7-3-1-2-6-4-8-5-9-6/h3,6H,1-2,4-5H2	InChI=1S/C6H10O3/c7-3-1-2-6-4-8-5-9-6/h3,6H,1-2,4-5H2/t6-/m0/s1
