14
gdb 19380	4.53282	1.67406	1.50219	2.7885	56.46	-0.256	0.0354	0.2913	839.6755	0.105355	-419.565732	-419.558859	-419.557914	-419.597053	25.927	
O	 0.062548561	 1.4053487827	 0.1499541852	-0.411044
C	 0.0733675067	-0.0033619278	-0.0134182401	-0.196768
C	-1.3065005193	-0.5525709679	-0.1636859977	 0.391206
O	-2.1170646188	-0.7148332656	 1.0086879719	-0.261139
C	-1.9329217217	-1.838651102	 0.1496706452	-0.115584
C	-2.902031218	-1.6691514789	-1.0923052409	-0.011769
O	-3.6307210525	-0.4577734959	-0.9215905368	-0.208162
C	-2.289496847	-0.3768707357	-1.3966036048	-0.059152
H	-0.4659619711	 1.5987686139	 0.932363216	 0.296693
H	 0.655771285	-0.1978009288	-0.9206280946	 0.117872
H	 0.5707161858	-0.5144318339	 0.8241705743	 0.105625
H	-1.5345073235	-2.7549247713	 0.5683860653	 0.115648
H	-3.3137974429	-2.4447436387	-1.7253346005	 0.116811
H	-2.0934276937	 0.1321132	-2.3317238626	 0.119762
79.4381	136.7113	272.5712	347.2929	399.0554	433.2774	481.6347	648.3369	699.7949	771.3525	773.5257	827.3498	857.7234	871.2794	956.8309	978.564	987.8548	996.441	1026.0477	1076.1091	1132.9826	1195.1595	1209.8715	1234.9976	1272.3069	1357.0127	1369.8034	1418.0913	1468.5876	1485.506	2999.4664	3073.837	3191.4575	3197.9084	3211.2538	3805.8689
OCC12OC1C1OC21	OC[C@]12O[C@H]1[C@H]1O[C@@H]21	
InChI=1S/C5H6O3/c6-1-5-3-2(7-3)4(5)8-5/h2-4,6H,1H2	InChI=1S/C5H6O3/c6-1-5-3-2(7-3)4(5)8-5/h2-4,6H,1H2/t2-,3+,4-,5+/m0/s1
