14
gdb 20421	6.13213	1.48223	1.25974	3.686	63.74	-0.224	-0.009	0.215	918.8034	0.108512	-378.672537	-378.66607	-378.665125	-378.703796	23.868	
C	-0.1711080406	 1.2865341528	-0.3409194936	-0.227008
C	 1.2504734878	 1.0151969754	 0.0114465212	-0.22878
N	 0.2533129664	-0.0460107687	 0.0941771293	-0.15643
C	-0.1428491463	-0.5054410038	 1.3555168013	 0.145146
C	 0.6007665661	-0.7869176349	 2.4625899082	 0.000238
O	-0.1827959559	-1.2993804643	 3.4315586201	-0.16604
N	-1.4892958059	-1.3614878252	 2.9736479533	-0.12777
C	-1.4571053381	-0.8978663321	 1.7498897786	-0.027302
H	-0.7503521856	 1.884552274	 0.3585071197	 0.127248
H	-0.4763283001	 1.3584116899	-1.3800563342	 0.128614
H	 1.9976299233	 0.8937259294	-0.7665508938	 0.128789
H	 1.616743611	 1.4373849184	 0.9447741564	 0.122513
H	 1.649623107	-0.6985578232	 2.6942877202	 0.146855
H	-2.369339479	-0.8516038776	 1.1722018531	 0.133926
59.4012	171.4448	196.5678	396.5196	479.527	566.0531	615.0628	684.1466	801.0473	822.5875	897.0094	901.3974	910.2657	915.2409	935.113	1023.7127	1040.2873	1114.4151	1132.395	1140.0049	1168.5106	1174.4204	1199.7662	1250.3192	1340.5757	1403.1417	1486.6113	1488.7561	1515.9175	1658.4503	3106.5421	3111.8925	3193.8284	3208.0891	3246.3878	3275.7656
C1CN1C1=CON=C1	C1CN1c1conc1	
InChI=1S/C5H6N2O/c1-2-7(1)5-3-6-8-4-5/h3-4H,1-2H2	InChI=1S/C5H6N2O/c1-2-7(1)5-3-6-8-4-5/h3-4H,1-2H2
