20
gdb 36910	4.31744	0.9387	0.83576	1.861	78.94	-0.2441	0.0264	0.2705	1407.9435	0.172433	-403.151372	-403.142928	-403.141984	-403.185703	31.241	
C	 0.0300649719	 1.544310964	-0.1473013512	-0.22749
C	-0.1270027542	 0.0400341165	-0.1983630453	 0.029503
C	-0.1214458564	-0.7782581014	 1.0668883349	-0.240406
C	-1.399787028	-0.6110582641	 0.2839343139	-0.282204
C	 1.4780029083	 2.0238152843	-0.1025113185	 0.101471
C	 1.6526165865	 3.567898964	-0.0739345696	-0.203611
N	 2.3464395822	 3.861079161	 1.1924970898	-0.263394
C	 2.5281590214	 2.7369403035	 1.7466416761	 0.119736
O	 2.1076276189	 1.600858148	 1.1444212532	-0.226522
H	-0.4384414218	 1.9980909794	-1.0320233106	 0.103845
H	-0.4974744551	 1.9504629867	 0.7256022343	 0.103302
H	 0.3410109151	-0.4235525076	-1.0640739741	 0.080439
H	 0.3695515107	-1.7448589097	 1.05378598	 0.110802
H	-0.0240915393	-0.2457025788	 2.0060258604	 0.115907
H	-2.1703563727	 0.0306618776	 0.699307128	 0.109607
H	-1.7845494606	-1.4617315697	-0.2676486416	 0.110984
H	 2.0534464741	 1.5598101417	-0.9109687199	 0.09006
H	 2.2435661101	 3.9405576699	-0.9165732799	 0.116585
H	 0.6880801233	 4.0889274118	-0.0969402459	 0.113227
H	 3.0111978355	 2.5810923829	 2.7053364361	 0.138159
54.9103	63.997	99.2261	160.5989	290.3757	330.7507	402.9435	447.2784	538.3935	732.2347	770.4781	791.846	837.6332	840.512	877.2458	893.1539	933.7821	962.3888	976.9242	981.0378	1019.2573	1055.5176	1058.7193	1077.2557	1091.5963	1131.2254	1137.2923	1160.5083	1196.9783	1223.3406	1231.4738	1272.7665	1297.6641	1318.7166	1323.6553	1363.6713	1391.7998	1425.4789	1467.3881	1475.3069	1500.9731	1510.1458	1710.3387	3009.4933	3033.7179	3038.8708	3056.9328	3075.1352	3128.2682	3130.5085	3141.355	3209.1337	3211.9324	3227.3354
C(C1CC1)C1CN=CO1	C(C1CC1)[C@H]1CN=CO1	
InChI=1S/C7H11NO/c1-2-6(1)3-7-4-8-5-9-7/h5-7H,1-4H2	InChI=1S/C7H11NO/c1-2-6(1)3-7-4-8-5-9-7/h5-7H,1-4H2/t7-/m0/s1
