17
gdb 30265	4.57354	1.32763	1.07479	4.974	73.82	-0.2003	0.0425	0.2428	1105.369	0.138834	-418.048048	-418.040696	-418.039752	-418.080089	28.096	
C	-0.5635165218	 1.4222695479	-0.0101561785	-0.406441
C	 0.2019879794	 0.1160363512	 0.0342796278	 0.114597
C	 1.0823228253	-0.1776961754	-1.2223231521	-0.220554
N	 2.2441212153	-0.7468765364	-0.5791072483	-0.044521
C	 3.4952990135	-1.2784791399	-0.8688413191	-0.165272
C	 4.1300457116	-1.3273508825	 0.3436494949	-0.086404
N	 3.3364984723	-0.8202509594	 1.3720791985	-0.392062
C	 2.2457117371	-0.4852358219	 0.7515602571	 0.482705
O	 1.1183492122	 0.1326633639	 1.1629030326	-0.279979
H	 0.1203587502	 2.2647475934	-0.14772782	 0.13571
H	-1.2793615648	 1.4119355821	-0.8383809909	 0.125631
H	-1.116837917	 1.5721551025	 0.9201014848	 0.14325
H	-0.4827475309	-0.7262037425	 0.1941789824	 0.104395
H	 0.5889329887	-0.8735744265	-1.9060182965	 0.13069
H	 1.3316064198	 0.7391138534	-1.7728573281	 0.123475
H	 3.7805247767	-1.5928859521	-1.8578751658	 0.125903
H	 5.1166571224	-1.7118436478	 0.5524569913	 0.108877
74.9102	150.4513	228.2897	266.6089	313.5225	444.8501	488.3586	600.694	614.6314	677.8517	732.4582	753.9964	804.2686	834.5528	843.2577	912.6747	945.7334	963.4318	1079.6084	1090.7028	1122.2619	1155.0393	1156.5694	1194.2273	1228.4366	1288.1645	1297.3879	1355.0423	1385.7777	1402.8766	1417.7399	1483.3007	1489.518	1497.2832	1518.9883	1538.4144	1628.0796	3014.4909	3027.4288	3044.5585	3087.7442	3117.6961	3130.4241	3250.91	3287.8088
CC1CN2C=CN=C2O1	C[C@H]1Cn2ccnc2O1	
InChI=1S/C6H8N2O/c1-5-4-8-3-2-7-6(8)9-5/h2-3,5H,4H2,1H3	InChI=1S/C6H8N2O/c1-5-4-8-3-2-7-6(8)9-5/h2-3,5H,4H2,1H3/t5-/m0/s1
