17
gdb 34823	4.97595	1.09003	1.01073	3.8201	78.26	-0.258	0.0243	0.2823	1168.5386	0.137591	-380.798132	-380.790795	-380.789851	-380.829837	28.911	
N	-0.0823831934	-1.188539142	-0.0906356086	-0.334062
C	-0.0387608591	-0.0340782203	-0.0367848157	 0.268394
C	-0.0061651252	 1.4178685636	 0.0129688841	-0.143326
C	 0.0541587311	 2.1192883976	 1.4178994789	-0.144394
C	 1.5349447135	 1.6304122335	 1.529706259	-0.250231
C	 1.3889444957	 2.1395592104	 0.0610602186	-0.117632
C	 0.6159382302	 3.332124859	 0.6546294763	 0.447497
C	 0.029125785	 4.5703546762	 0.1288994077	-0.360921
N	 1.1498279229	 4.584136513	 1.1217884394	-0.40828
H	-0.7292884764	 1.8382157895	-0.6900567595	 0.117702
H	-0.7257277489	 2.0963650227	 2.1792073757	 0.093227
H	 2.1895528996	 2.2181945798	 2.1741207846	 0.115875
H	 1.6840427847	 0.5577404757	 1.6621027618	 0.129922
H	 2.1380533647	 2.1442117386	-0.7287606637	 0.100169
H	 0.2979756839	 4.9450146884	-0.8548308285	 0.129596
H	-0.9617922829	 4.8610718446	 0.4692279829	 0.120438
H	 0.7950689045	 4.8165929796	 2.0467716471	 0.236025
128.5032	141.7396	233.0944	275.9992	338.7992	419.6623	486.2446	552.5089	588.4747	657.7628	747.1238	812.1764	875.8899	886.6559	897.6206	908.344	935.109	971.0279	1009.6298	1023.4845	1046.7623	1061.166	1084.734	1112.7293	1129.9277	1158.8564	1178.3503	1198.79	1207.4806	1234.3331	1254.0742	1261.4327	1359.2873	1447.473	1510.7706	1538.1612	2351.5907	3081.1169	3087.4608	3106.6272	3118.9943	3138.6276	3152.3643	3191.4671	3493.1051
N#CC1C2CC1C21CN1	N#C[C@H]1[C@H]2C[C@@H]1[C@]12CN1	
InChI=1S/C7H8N2/c8-2-4-5-1-6(4)7(5)3-9-7/h4-6,9H,1,3H2	InChI=1S/C7H8N2/c8-2-4-5-1-6(4)7(5)3-9-7/h4-6,9H,1,3H2/t4-,5+,6-,7+
