16
gdb 42298	3.35314	1.25551	0.92399	1.0272	81.38	-0.2313	-0.0345	0.1968	1207.6576	0.125154	-396.907044	-396.898694	-396.89775	-396.940649	30.249	
N	-0.0812853297	 1.348954614	 0.0130312647	-0.525369
C	 0.0250952603	 0.0719315104	 0.003659667	 0.217809
C	-1.177873416	-0.7224270489	 0.0087596614	 0.316131
C	-2.1806365277	-1.3846651723	 0.0130074714	-0.408046
N	 1.207238103	-0.6522562861	-0.0112868222	-0.130735
C	 2.53954313	-0.0409639203	-0.0188297112	-0.213715
C	 3.4563701046	-1.3001820267	-0.0351392174	-0.177989
N	 2.5668007014	-2.4746460082	-0.0354403294	-0.265411
C	 1.3732085763	-2.0363490695	-0.0221228259	 0.084735
H	 0.8339266515	 1.7996116495	 0.0081404398	 0.221112
H	-3.0792261287	-1.9519796883	 0.0169858584	 0.213809
H	 2.6667084036	 0.5937401347	-0.9028642336	 0.129599
H	 2.6821527642	 0.5820188902	 0.871160344	 0.129604
H	 4.0983515483	-1.3277458466	-0.9210308978	 0.126398
H	 4.1133574185	-1.3396009904	 0.8392318792	 0.126398
H	 0.4893068305	-2.6620306413	-0.0187035583	 0.15567
71.5278	101.5412	129.6952	144.9262	268.7689	295.1534	461.7241	497.7695	498.4383	651.1426	661.7362	672.032	707.4681	780.8475	825.9112	848.5064	896.7976	957.866	960.5256	966.3646	986.0108	1113.3158	1209.0061	1214.9891	1243.4814	1252.1075	1317.5365	1328.2722	1389.2201	1415.4331	1496.2918	1527.9374	1656.4841	1701.3717	2240.9943	3029.5998	3052.597	3061.7941	3089.2865	3229.0615	3484.5362	3498.2856
N=C(C#C)N1CCN=C1	[NH][C](C#C)N1CCN=C1	
InChI=1S/C6H7N3/c1-2-6(7)9-4-3-8-5-9/h1,5,7H,3-4H2	InChI=1S/C6H7N3/c1-2-6(7)9-4-3-8-5-9/h1,5,7H,3-4H2
