15
gdb 43937	3.71877	1.56316	1.36943	4.136	64.59	-0.2605	-0.0129	0.2476	922.7636	0.113764	-457.706847	-457.700607	-457.699663	-457.737392	25.571	
O	-0.0884845529	 0.0585719424	-0.5014670774	-0.291679
C	-0.0129314239	 1.1607106622	-0.083801816	 0.342694
O	-1.0835316555	 2.0217291714	 0.2670535063	-0.319688
C	-0.1476373038	 2.8698236682	 0.9868834022	 0.38368
C	 0.3487365174	 4.3161159032	 1.2176349802	-0.330984
C	 1.4223551009	 3.4430821585	 2.0166074994	 0.093038
C	 0.2525594524	 2.5365951849	 2.4409377787	-0.278933
O	 2.1145281018	 2.5840640971	 1.0481585096	-0.290349
C	 1.0058182062	 2.3146213892	 0.2016706346	-0.032379
H	 0.6775693785	 4.8906593731	 0.3511920215	 0.123318
H	-0.2347640024	 4.9253484998	 1.9089298007	 0.123552
H	 2.1372547589	 3.8918323043	 2.7006213968	 0.110876
H	-0.4182649829	 2.9794707955	 3.1784895133	 0.117007
H	 0.5028865225	 1.5028571564	 2.6858958819	 0.124995
H	 1.1506586827	 2.8024422638	-0.7710702817	 0.12485
138.6271	262.7948	371.8978	446.5738	489.0614	509.6477	557.0211	643.6015	685.343	746.2158	765.3183	844.3422	860.4725	892.591	895.6829	955.7942	976.927	1000.5089	1034.1808	1064.4864	1098.1318	1107.1379	1153.1278	1182.8937	1198.7216	1228.6556	1240.2821	1290.9054	1308.0224	1374.1575	1476.0056	1512.6442	1955.1773	3022.4898	3078.628	3087.7723	3149.5024	3158.7737	3172.4393
O=C1OC23CC(C2)OC13	O=C1O[C@@]23C[C@@H](C2)O[C@@H]13	
InChI=1S/C6H6O3/c7-5-4-6(9-5)1-3(2-6)8-4/h3-4H,1-2H2	InChI=1S/C6H6O3/c7-5-4-6(9-5)1-3(2-6)8-4/h3-4H,1-2H2/t3-,4-,6-/m0/s1
