13
gdb 128956	7.83856	0.7951	0.72514	3.8482	64.9	-0.2569	-0.0175	0.2394	1416.632	0.090971	-448.922156	-448.91448	-448.913535	-448.955552	26.573	
N	-0.050738899	-1.0919088637	-0.0044791741	-0.285293
C	-0.0069494158	 0.0613672362	 0.0023590787	 0.277455
C	-0.004436376	 1.523967383	 0.0116633601	-0.211396
O	 1.348710521	 1.9663050187	-0.0010653399	-0.259975
C	 1.5017033856	 3.3024343768	 0.0057031577	 0.402952
N	 0.4924831469	 4.166301385	 0.0228554648	-0.2996
N	 1.1260562699	 5.3428592409	 0.0230836365	-0.083653
N	 2.4464821482	 5.3028906837	 0.0076020595	-0.178731
C	 2.7240938149	 4.0002639045	-0.003918346	-0.140368
H	-0.545363021	 1.9033720184	-0.8637089894	 0.169513
H	-0.5250489861	 1.892093067	 0.9040039032	 0.169515
H	 0.6193898195	 6.2123219236	 0.0344760169	 0.298235
H	 3.734435432	 3.6287096759	-0.0179299479	 0.141346
45.8726	101.5872	118.8866	240.5762	343.7695	388.0925	432.0165	442.69	535.7189	705.6176	731.6492	785.2986	856.9606	963.4679	987.0574	1021.2504	1021.8079	1076.6722	1167.0704	1207.2041	1249.746	1260.3507	1381.3949	1385.5169	1432.6529	1485.3036	1519.7518	1590.1085	2378.3253	3034.8873	3071.3175	3289.6436	3679.2202
N#CCOC1=NNN=C1	N#CCOc1n[nH]nc1	
InChI=1S/C4H4N4O/c5-1-2-9-4-3-6-8-7-4/h3H,2H2,(H,6,7,8)	InChI=1S/C4H4N4O/c5-1-2-9-4-3-6-8-7-4/h3H,2H2,(H,6,7,8)
