17
gdb 113424	3.34845	1.05749	0.926	3.3273	69.88	-0.2516	0.0078	0.2594	1276.7858	0.133939	-458.954282	-458.945691	-458.944746	-458.98797	31.354	
C	-0.2397361755	 1.1563538806	-0.0137886125	-0.241244
O	 0.5878477269	 0.0170313614	 0.1457823286	-0.231506
C	 0.9212845825	-0.5850331015	-1.0607694511	 0.0356
C	 1.477993935	-1.9889107673	-0.9909425959	-0.393944
C	 0.1147632593	-1.7438380998	-1.5491065104	 0.407241
C	-1.2443488653	-2.2696697128	-1.1252176925	-0.490806
C	-1.4496485174	-2.4226552754	-2.6368925856	 0.436474
O	-2.2935444787	-2.7912897434	-3.3855913818	-0.309832
O	-0.1957839485	-1.9432727536	-2.9527092944	-0.25968
H	 0.2603732639	 1.9337276128	-0.6096538156	 0.11698
H	-1.1929247472	 0.9079805912	-0.5010131906	 0.112838
H	-0.4395542759	 1.5476639806	 0.9857804466	 0.135307
H	 1.3422333209	 0.0791760185	-1.8178725807	 0.105188
H	 2.2794992063	-2.242489914	-1.6757163397	 0.139167
H	 1.5349250598	-2.4518654302	-0.0111472065	 0.138387
H	-1.2505778179	-3.2141159643	-0.5779008271	 0.149888
H	-1.9193951779	-1.5604136528	-0.6439390509	 0.14994
78.8766	121.4077	139.4713	171.9334	208.4238	299.1009	396.8226	440.5165	464.174	513.9447	523.2518	615.3682	790.6678	807.2775	869.0501	896.4545	956.6796	992.0938	1039.8083	1047.0127	1062.1192	1070.7066	1120.9341	1145.0102	1174.8907	1182.1686	1199.9797	1234.4806	1252.2046	1347.9066	1406.31	1455.9128	1472.8767	1486.3093	1497.9543	1511.1272	1947.757	2990.9024	3043.0069	3089.0077	3091.2795	3127.4046	3135.8675	3144.1572	3229.7655
COC1CC11CC(=O)O1	CO[C@H]1C[C@]21CC(=O)O2	
InChI=1S/C6H8O3/c1-8-4-2-6(4)3-5(7)9-6/h4H,2-3H2,1H3	InChI=1S/C6H8O3/c1-8-4-2-6(4)3-5(7)9-6/h4H,2-3H2,1H3/t4-,6+/m0/s1
