16
gdb 48122	2.89334	1.28008	0.9075	4.466	76.07	-0.254	-0.0757	0.1783	1222.8931	0.123656	-434.060219	-434.051596	-434.050652	-434.094544	30.53	
N	-0.0229182029	 1.3714025732	-0.0775024838	-0.482443
C	 0.0300559913	 0.1015184204	 0.0252988336	 0.27557
C	-1.2767942036	-0.667651079	 0.1173961302	 0.10813
O	-2.2831110078	-0.3335994893	-0.442270432	-0.208317
N	 1.1765751771	-0.66224692	 0.1557691549	-0.145096
C	 2.5727105635	-0.2158352105	 0.2944965306	-0.194227
C	 2.989275004	-1.713928598	 0.2766070076	-0.321659
C	 1.5164104771	-2.034584841	 0.0526597631	 0.395772
N	 0.9161434042	-3.1187093377	-0.1720391895	-0.535561
H	 0.9102918657	 1.7893417085	-0.0901608861	 0.224931
H	-1.2389180337	-1.5610522233	 0.7777323672	 0.100846
H	 2.927278952	 0.3722424404	-0.5579068781	 0.130807
H	 2.7620738459	 0.3294511777	 1.2235438677	 0.131921
H	 3.6447501801	-2.0157543364	-0.5407785907	 0.145477
H	 3.3869981809	-2.0898303066	 1.2204127797	 0.144789
H	-0.0846028838	-3.0146214785	-0.3316173443	 0.229059
56.4113	75.8314	107.821	183.3821	231.3465	293.8152	371.0899	401.1102	507.293	515.3152	600.1812	749.2173	800.5646	835.735	845.5028	881.6327	929.0425	965.4544	982.9011	1029.7027	1059.0275	1130.0313	1154.1064	1197.3618	1205.1103	1238.8846	1244.7342	1343.1449	1364.6431	1438.0721	1469.2599	1519.4105	1680.2009	1787.8229	1840.7348	2896.8739	3046.7346	3095.4671	3097.9264	3151.9077	3452.4085	3501.5736
N=C(C=O)N1CCC1=N	[NH][C](C=O)N1CC[C]1[NH]	
InChI=1S/C5H7N3O/c6-4-1-2-8(4)5(7)3-9/h3,6-7H,1-2H2	InChI=1S/C5H7N3O/c6-4-1-2-8(4)5(7)3-9/h3,6-7H,1-2H2
