21
gdb 97982	5.52784	0.4358	0.42014	0.7243	95.55	-0.2423	0.0446	0.2868	2613.2112	0.179427	-349.906546	-349.895319	-349.894374	-349.945881	38.877	
C	 0.5340861577	 1.2777160171	-0.4056430682	-0.363194
C	-0.3475909405	 0.2453361447	 0.3205111313	-0.313932
C	 0.3008865362	-0.3419991797	 1.4888911553	 0.14723
C	 0.8545386817	-0.8053163842	 2.4534290316	-0.01462
C	 1.5208869388	-1.4022007134	 3.6054602582	-0.357057
C	 1.9591716392	-2.8588940314	 3.3588397023	-0.163322
C	 2.6599392193	-3.4633860409	 4.5913546143	-0.353915
C	 3.0845049058	-4.8419239969	 4.3831114581	 0.284425
C	 3.4244927055	-5.9778539124	 4.1859544642	-0.429753
H	 1.4635812281	 0.8184325428	-0.7530076497	 0.126773
H	 0.0073404438	 1.688787239	-1.2721554262	 0.112668
H	 0.7958024956	 2.1029636535	 0.2622335393	 0.126725
H	-1.2894893315	 0.719572066	 0.6255708745	 0.126463
H	-0.6278031344	-0.5521962097	-0.3798631031	 0.127025
H	 2.3995100092	-0.8005012168	 3.8766408031	 0.1247
H	 0.8536488387	-1.3670744174	 4.4778846646	 0.124786
H	 1.085930423	-3.4655914995	 3.100414502	 0.121488
H	 2.634268993	-2.8977754302	 2.4985134077	 0.121066
H	 3.5313015011	-2.8488709987	 4.8550225878	 0.129591
H	 1.9845629595	-3.4160209575	 5.4562417834	 0.129684
H	 3.7288450001	-6.9815942044	 4.0220286595	 0.19317
8.1352	60.544	69.9534	92.4768	139.5961	152.1187	218.3231	284.244	299.4885	342.9469	347.7949	449.1428	514.1195	550.6077	615.5379	634.5376	738.9762	741.1187	785.2879	840.849	945.5707	974.999	1031.3714	1036.1123	1076.5437	1083.53	1105.0194	1167.1595	1173.6212	1258.6757	1286.3654	1294.8007	1317.795	1347.8972	1353.2173	1384.0984	1408.0168	1472.1639	1475.0691	1476.3214	1494.4963	1501.4494	1505.809	2239.3419	2367.5047	3003.8348	3011.5943	3016.9962	3030.8811	3039.8648	3042.782	3043.3023	3057.9364	3103.5548	3115.6863	3122.1231	3508.0256
CCC#CCCCC#C	CCC#CCCCC#C	
InChI=1S/C9H12/c1-3-5-7-9-8-6-4-2/h1H,4-5,7,9H2,2H3	InChI=1S/C9H12/c1-3-5-7-9-8-6-4-2/h1H,4-5,7,9H2,2H3
