15
gdb 24974	4.70564	1.30868	1.04275	3.6827	68.85	-0.1829	0.0374	0.2203	1084.7136	0.115293	-453.947137	-453.940137	-453.939193	-453.978551	27.15	
N	-0.0321694793	 1.2487332598	-0.0846985294	-0.576969
C	-0.0377461614	-0.0091734936	 0.0002849174	 0.435273
N	-1.1483538272	-0.8494011066	-0.0762910193	-0.404253
C	-0.6635596925	-2.177864289	-0.1878785025	 0.050955
C	 0.6438406269	-2.0915741164	 0.037937633	 0.435202
O	 1.3266660632	-3.1954485597	 0.3677909441	-0.269473
C	 0.3191098689	-4.2462255333	 0.1632573702	-0.089698
C	-1.0956213977	-3.5688324786	 0.1719051074	-0.335014
O	 1.1060739916	-0.8271763352	 0.1681054344	-0.250917
H	 0.9101287987	 1.6211726228	-0.0111836149	 0.233547
H	-1.9304103719	-0.4923241786	-0.6035910968	 0.268211
H	 0.5182189685	-4.6990982208	-0.8122925556	 0.130729
H	 0.4660459224	-4.9859268957	 0.949875447	 0.134086
H	-1.5738601412	-3.6152286402	 1.160874644	 0.120405
H	-1.7565366988	-4.0723511548	-0.5407094189	 0.117915
120.0111	187.7317	251.5277	303.0187	325.0143	491.9984	539.9172	576.4685	651.934	711.5652	724.7568	739.8759	750.3118	834.1151	869.3246	883.1342	923.7307	972.9535	1029.9914	1078.6538	1117.6801	1190.427	1228.9959	1255.0798	1284.3029	1313.084	1363.7252	1397.7954	1459.5107	1500.5498	1515.7136	1751.5223	1811.351	3000.7373	3057.8917	3072.2448	3143.5319	3550.7942	3626.8669
N=C1NC2=C(OCC2)O1	[NH][C@H]1NC2=C(OCC2)O1	
InChI=1S/C5H6N2O2/c6-5-7-3-1-2-8-4(3)9-5/h1-2H2,(H2,6,7)	InChI=1S/C5H7N2O2/c6-5-7-3-1-2-8-4(3)9-5/h5-7H,1-2H2/t5-/m0/s1
