19
gdb 94053	3.2382	1.04603	0.97026	5.2067	75.38	-0.2309	0.0282	0.259	1270.3041	0.160348	-419.209084	-419.200224	-419.19928	-419.243482	32.636	
O	-0.9252570606	 1.2985142365	 0.4335622116	-0.431515
C	-0.153715293	 0.1323202951	 0.1451893592	 0.12078
C	 0.5766348306	-0.422533814	 1.3942376131	-0.251897
C	-0.2826495555	-1.643070546	 1.848874202	-0.176203
N	-1.5372547517	-1.6071598271	 1.0772420922	-0.073531
C	-2.6278193002	-0.8978148126	 1.7522648358	-0.297873
C	-3.1121329856	-1.6549814934	 2.9129387814	 0.280134
N	-3.4851849604	-2.2298553246	 3.843031914	-0.311787
C	-1.1518393922	-0.9875798926	-0.1959970289	-0.188089
H	-0.3261312543	 1.9865545762	 0.7403743103	 0.285213
H	 0.5373962208	 0.3330397378	-0.6845690711	 0.072
H	 1.6002899757	-0.7269216781	 1.1600910647	 0.10703
H	 0.6347046438	 0.3524102578	 2.164107714	 0.102996
H	 0.2413107296	-2.5752060505	 1.6107226346	 0.113745
H	-0.4913527677	-1.6564783162	 2.920540893	 0.126699
H	-2.3692730698	 0.1202016675	 2.0829957035	 0.145166
H	-3.4596547767	-0.7941980917	 1.0474557352	 0.151755
H	-2.017771606	-0.6118635897	-0.7449511176	 0.11758
H	-0.6522891168	-1.7449063844	-0.812778137	 0.107797
50.077	73.6083	118.0828	179.8998	317.6698	344.7028	359.3073	392.6623	407.389	427.4708	527.5883	669.0164	763.5112	802.3332	848.2182	854.9997	905.7194	934.3153	961.5324	974.9503	998.661	1038.5881	1090.26	1101.222	1147.6191	1203.523	1225.2852	1240.0556	1270.0477	1282.7633	1327.5352	1343.619	1354.4343	1368.3787	1391.7847	1418.8202	1477.7134	1479.6313	1483.8992	1511.2692	2363.6637	2990.2601	3007.2232	3033.9647	3042.361	3058.4955	3072.34	3098.5379	3115.3228	3117.0591	3817.4455
OC1CCN(CC#N)C1	O[C@H]1CCN(CC#N)C1	
InChI=1S/C6H10N2O/c7-2-4-8-3-1-6(9)5-8/h6,9H,1,3-5H2	InChI=1S/C6H10N2O/c7-2-4-8-3-1-6(9)5-8/h6,9H,1,3-5H2/t6-/m0/s1
