21
gdb 111221	2.75898	1.00976	0.86038	2.6608	79.54	-0.256	0.0707	0.3267	1412.7655	0.182821	-424.151575	-424.142413	-424.141469	-424.186142	34.434	
O	-0.2770363523	 1.6442886899	-0.5523046515	-0.422964
C	-0.0191636635	 0.2849477594	-0.2135958808	-0.141599
C	-1.3671203033	-0.4067750965	-0.1387603681	 0.076568
C	-2.1459072044	-0.8332878126	-1.4251523675	-0.070633
C	-1.1456241997	-2.0155248898	-1.5817369927	-0.235502
C	-1.4987068963	-1.9624371512	-0.0643100351	-0.104776
C	-2.987682145	-1.8047221723	-0.5219856146	 0.038549
C	-4.0936879215	-1.3138300947	 0.3993538316	-0.12841
O	-5.2841602156	-1.0284498979	-0.3277108322	-0.417665
H	 0.5619670541	 2.1139384646	-0.5662320289	 0.286514
H	 0.6545088382	-0.1789714026	-0.9462879294	 0.087073
H	 0.4717251643	 0.2097876088	 0.7710815409	 0.084139
H	-1.9658044055	 0.1425024566	 0.5908765617	 0.071217
H	-2.5132234369	-0.1771665213	-2.216302229	 0.070316
H	-1.512112081	-2.8871848806	-2.1303863555	 0.092017
H	-0.1224657988	-1.7790604509	-1.873189799	 0.092539
H	-1.1229745477	-2.6187952871	 0.7236163651	 0.067111
H	-3.3668224682	-2.6739779134	-1.0709054793	 0.070901
H	-4.3637521004	-2.1162054195	 1.0954262369	 0.108128
H	-3.7912902756	-0.4518048212	 1.0085900891	 0.093539
H	-5.0819298508	-0.3151588478	-0.9416726521	 0.28294
61.59	68.9487	161.3687	174.8698	238.9588	273.6261	313.9002	374.2893	406.3095	447.8508	576.7795	585.806	754.6141	791.3363	812.0863	882.4332	898.0311	898.8297	1000.452	1019.0282	1021.9903	1037.302	1064.8828	1065.7027	1075.1494	1101.2433	1118.9079	1138.1527	1154.1809	1188.834	1194.2315	1209.9333	1229.6338	1240.8381	1258.2813	1267.1077	1275.2643	1356.1184	1406.6641	1414.8359	1439.3581	1467.7319	1509.9029	1513.3501	1537.6835	2963.4732	3010.066	3018.5216	3042.6994	3064.3035	3065.7798	3086.7068	3090.0781	3099.0342	3135.5964	3815.6996	3828.9615
OCC1C2CC1C2CO	OC[C@H]1[C@H]2C[C@@H]1[C@H]2CO	
InChI=1S/C7H12O2/c8-2-6-4-1-5(6)7(4)3-9/h4-9H,1-3H2	InChI=1S/C7H12O2/c8-2-6-4-1-5(6)7(4)3-9/h4-9H,1-3H2/t4-,5+,6-,7-
