21
gdb 93903	2.6263	1.44203	1.14292	2.6437	77.66	-0.2559	0.0684	0.3244	1137.7014	0.184186	-424.22096	-424.212479	-424.211535	-424.253661	34.003	
O	 0.0038479367	 1.4259384648	-0.1237736698	-0.431632
C	 0.0053141692	 0.0030550192	 0.0158738503	 0.103204
C	 0.7814234889	-0.4286904084	 1.2710868637	-0.229271
C	-0.0133298595	-0.1423325901	 2.5476332422	-0.242637
C	-1.2704742146	-1.0204625651	 2.6030801041	 0.119938
O	-2.1306911547	-0.6592023731	 3.6807849804	-0.44029
C	-2.0848112498	-0.9553932055	 1.3303690007	-0.012759
C	-2.4900906422	 0.3662006642	 0.7425612744	-0.264809
C	-1.4477355982	-0.4676774004	 0.0397892526	-0.047157
H	 0.9216560323	 1.7136958047	-0.1713772919	 0.276872
H	 0.4913421031	-0.4466918448	-0.8628204406	 0.060657
H	 0.9971738874	-1.503370054	 1.2012420483	 0.095393
H	 1.7532055009	 0.0813602818	 1.2899349518	 0.080287
H	 0.5996598605	-0.3366382541	 3.4363877948	 0.07948
H	-0.2997677652	 0.9140161659	 2.5826629414	 0.117827
H	-0.9392347678	-2.0662308881	 2.730567505	 0.056988
H	-1.6286711123	-0.7486402759	 4.4978132878	 0.275224
H	-2.8040885895	-1.7631005094	 1.2345524626	 0.082272
H	-3.4717435366	 0.442489214	 0.2889148791	 0.105706
H	-2.1523084792	 1.2747466706	 1.2245257143	 0.132856
H	-1.7708045094	-0.9686631363	-0.866482911	 0.081851
80.6969	188.9359	227.3946	283.5868	295.6155	318.449	349.3138	373.6658	441.7575	480.9702	557.7146	584.9069	694.9834	744.5796	797.1839	846.8511	859.0507	913.9074	933.4966	972.6592	1005.727	1030.7202	1054.7497	1066.9174	1078.8976	1092.353	1124.8844	1132.4854	1154.9416	1201.2778	1213.0306	1222.5231	1256.1028	1267.7301	1332.8572	1350.4445	1368.7162	1385.8756	1389.3906	1422.537	1431.2577	1444.9616	1481.1782	1492.9021	1507.9852	2937.2146	2975.5857	3013.6572	3030.2178	3048.8386	3083.1816	3145.7073	3147.6	3160.0235	3236.8906	3805.8459	3807.4016
OC1CCC(O)C2CC12	O[C@H]1CC[C@@H](O)[C@H]2C[C@@H]12	
InChI=1S/C7H12O2/c8-6-1-2-7(9)5-3-4(5)6/h4-9H,1-3H2	InChI=1S/C7H12O2/c8-6-1-2-7(9)5-3-4(5)6/h4-9H,1-3H2/t4-,5+,6+,7-
