17
gdb 79500	2.36613	1.78622	1.19949	2.1655	72.75	-0.2366	-0.0363	0.2003	1037.7153	0.134072	-421.738318	-421.730399	-421.729455	-421.770953	29.792	
C	 0.0680902507	 1.6959619674	 0.1018627294	-0.42109
C	 0.0311014776	 0.1756177073	 0.1398844686	-0.078444
C	 1.060721885	-0.6309098184	-0.691907765	-0.105938
C	 2.187806409	-0.4689471561	 0.3779462259	 0.037808
O	 2.492487787	-1.8894874801	 0.4670034671	-0.325635
C	 1.0467406684	-1.826481455	 0.309015365	 0.037454
C	 0.8545575469	-0.5572423287	 1.2198253717	 0.2341
C	 0.7489250759	-0.5386647134	 2.6985628336	 0.016426
O	-0.0627372146	 0.1167530669	 3.3082831611	-0.254866
H	 1.092476365	 2.078711552	 0.1683788249	 0.112293
H	-0.3688933534	 2.0762057115	-0.827373343	 0.119151
H	-0.4989720179	 2.1124724592	 0.9392820674	 0.143333
H	-0.9960040886	-0.1940660043	 0.0497401502	 0.082638
H	 1.1985052001	-0.692710426	-1.7715686018	 0.090414
H	 3.0067176954	 0.244651838	 0.4561461372	 0.11126
H	 0.4726479417	-2.7526670162	 0.3005038593	 0.109898
H	 1.4888654318	-1.182920214	 3.2227080983	 0.091199
89.7125	129.9104	201.8479	206.2393	248.4215	315.6488	395.3963	521.2438	614.5465	680.0346	714.6758	750.9561	798.2169	824.4932	884.888	906.3415	912.8156	990.7224	999.3134	1052.1104	1072.102	1094.3299	1114.4834	1121.2934	1142.8727	1159.8367	1173.9698	1234.3839	1249.8989	1317.0065	1321.9542	1407.3467	1414.4802	1421.386	1492.7175	1501.8408	1804.7975	2891.2565	3033.7903	3050.0485	3098.1654	3113.5269	3117.0725	3127.3563	3137.5004
CC1C2C3OC2C13C=O	C[C@H]1[C@H]2[C@@H]3O[C@H]2[C@]13C=O	
InChI=1S/C7H8O2/c1-3-4-5-7(3,2-8)6(4)9-5/h2-6H,1H3	InChI=1S/C7H8O2/c1-3-4-5-7(3,2-8)6(4)9-5/h2-6H,1H3/t3-,4-,5-,6+,7+/m0/s1
