13
gdb 24859	2.42048	1.84677	1.11567	1.6526	71.57	-0.2653	-0.104	0.1613	1009.581	0.089844	-452.769666	-452.762371	-452.761427	-452.802291	26.543	
N	-0.0630541049	 1.0339928074	 0.8408263703	-0.476187
C	-0.0693765304	 0.0965759553	-0.0063754617	 0.342969
O	 1.097681032	-0.1906287135	-0.7178327864	-0.24203
C	 1.4978783244	-1.3668188074	-1.2804171277	 0.37579
O	 2.4769839391	-1.3790576339	-1.9707587537	-0.289058
C	 0.7648760289	-2.6424883623	-0.9744948674	-0.080722
N	-0.4816887885	-2.8463541489	-0.8306053967	-0.196845
C	-1.4492777543	-1.8485166919	-0.7970045051	-0.008482
C	-1.3122874815	-0.5811563923	-0.3779333685	-0.103599
H	 0.8735256313	 1.428381697	 0.9428180437	 0.241997
H	 1.4340831072	-3.5031300972	-0.9709105148	 0.156207
H	-2.442737858	-2.216151963	-1.0360094973	 0.134688
H	-2.1996540853	 0.0225371808	-0.2262014848	 0.145271
63.2328	76.7225	249.0799	314.0626	383.8571	428.3017	451.1129	526.4756	614.8411	646.134	701.4533	808.8537	842.5279	849.8736	914.1647	939.8546	948.3856	998.0028	1012.1821	1118.0312	1204.6356	1261.2642	1329.2932	1392.3369	1432.2152	1649.5818	1707.1819	1735.0775	1831.7933	3135.6519	3177.0301	3209.469	3484.0944
N=C1OC(=O)C=NC=C1	[NH][C]1OC(=O)C=NC=C1	
InChI=1S/C5H4N2O2/c6-4-1-2-7-3-5(8)9-4/h1-3,6H	InChI=1S/C5H4N2O2/c6-4-1-2-7-3-5(8)9-4/h1-3,6H
