14
gdb 130011	5.39913	1.31886	1.06192	1.5171	71.41	-0.1948	0.0174	0.2121	1042.932	0.105665	-429.077972	-429.071035	-429.07009	-429.108899	27.364	
N	 0.0759497697	 1.3410860959	 0.1422956478	-0.594508
C	-0.0246330411	-0.0338369576	 0.0312119979	 0.380287
N	-1.1473480199	-0.7060252502	 0.0187981873	-0.416368
C	-0.7279679149	-2.0340884938	 0.0034507646	 0.225409
C	-1.1359659943	-3.3525163927	-0.0167710501	-0.186908
N	 0.0248853131	-4.0809127717	-0.0382158002	-0.19618
N	 1.1741760238	-3.3406130827	-0.0343885345	-0.37059
C	 0.6799909858	-2.116927851	-0.0088415483	 0.411251
N	 1.1341856889	-0.8082119478	-0.019491823	-0.441729
H	 0.7552463987	 1.7644279743	-0.4768480293	 0.252492
H	-0.8327507452	 1.7738990747	 0.0416402486	 0.26658
H	-2.0997121112	-3.8342279754	-0.0189931619	 0.130882
H	 0.1089284974	-5.0817428821	-0.0367514798	 0.271917
H	 2.0579432193	-0.4836868698	 0.2092770707	 0.267464
160.6225	292.5424	307.3247	324.3353	353.2279	365.9412	425.3424	555.6374	594.8378	626.9849	669.9343	741.23	763.2533	771.2349	780.7846	865.9262	973.0038	986.9174	1035.7692	1122.3638	1175.1975	1199.1312	1280.7237	1318.3603	1439.7379	1465.0007	1479.6461	1546.4673	1592.5229	1655.4648	1682.7837	3272.1133	3543.7614	3644.725	3672.7203	3696.0018
NC1=NC2=CNN=C2N1	Nc1nc2c[nH]nc2[nH]1	
InChI=1S/C4H5N5/c5-4-7-2-1-6-9-3(2)8-4/h1H,(H4,5,6,7,8,9)	InChI=1S/C4H5N5/c5-4-7-2-1-6-9-3(2)8-4/h1H,(H4,5,6,7,8,9)
