19
gdb 5107	3.326	1.97803	1.27008	2.0121	80.08	-0.1829	0.0494	0.2322	989.8518	0.165408	-327.976309	-327.967534	-327.96659	-328.009566	31.869	
C	 0.0934023444	 1.4154519856	 0.0086300205	-0.342254
N	-0.0040202269	-0.0283309796	 0.0019015257	-0.083661
C	-0.0127657586	-0.8207277741	-1.1332303301	 0.280809
C	-0.0090382234	-0.2493272467	-2.5129701502	-0.504334
C	-0.0272243539	-2.1328723816	-0.719832373	-0.228004
C	-0.0194613617	-2.1404627936	 0.7012468818	-0.228034
C	-0.0000688845	-0.8328261388	 1.1285336491	 0.280784
C	 0.0192681173	-0.2766956685	 2.5143887555	-0.504336
H	 1.1359128086	 1.7594797995	-0.0018254936	 0.130465
H	-0.4116733977	 1.8293937085	-0.86655294	 0.1386
H	-0.3905983401	 1.8192948188	 0.9001762225	 0.1387
H	 0.8742672757	 0.3705902933	-2.7143314234	 0.121469
H	-0.0093806546	-1.0646187051	-3.2402196803	 0.13301
H	-0.8914690852	 0.3713243736	-2.7183665225	 0.12273
H	-0.048849733	-2.9908890487	-1.3751632078	 0.083412
H	-0.0339594869	-3.0054396687	 1.3475624473	 0.08341
H	 0.9051999307	 0.340356603	 2.7129739601	 0.121487
H	-0.8604423269	 0.3420621532	 2.7364530285	 0.122738
H	 0.0263473964	-1.10007763	 3.2324348499	 0.13301
56.239	135.6463	171.8466	187.1323	215.6606	277.4274	286.1517	308.6286	470.5235	576.6401	634.7505	635.3852	719.5378	726.9324	760.7594	803.064	961.7355	991.0503	1019.9181	1047.2308	1057.3523	1065.3867	1147.5888	1166.4347	1216.6854	1243.3375	1335.8994	1402.1624	1415.4926	1418.486	1441.2217	1470.2728	1479.087	1482.4853	1494.3519	1496.2685	1509.5513	1517.1296	1555.5079	1619.4704	3006.9471	3008.5012	3018.7549	3047.7863	3048.7898	3099.1084	3118.7005	3119.064	3136.7226	3232.6472	3248.4131
CN1C(C)=CC=C1C	Cn1c(C)ccc1C	
InChI=1S/C7H11N/c1-6-4-5-7(2)8(6)3/h4-5H,1-3H3	InChI=1S/C7H11N/c1-6-4-5-7(2)8(6)3/h4-5H,1-3H3
