17
gdb 36168	3.69357	1.23148	1.14481	1.9703	77.41	-0.2335	0.0494	0.2829	1112.3624	0.134326	-384.560792	-384.553079	-384.552135	-384.593329	30.164	
C	 0.0140349325	-1.2688291379	 0.0145568679	-0.449547
C	 0.0413434066	-0.0700489468	-0.0546420387	 0.311095
C	 0.0829923506	 1.3861758846	-0.1263901703	-0.498233
C	 1.4773106854	 1.9489110257	-0.0167513973	 0.497982
O	 2.4350132802	 1.692273701	-1.0880301722	-0.353375
C	 3.1612244888	 2.5154307505	-0.1286262643	 0.084035
C	 1.9443726959	 3.4268053996	 0.2181573116	-0.146194
C	 2.1229193834	 3.1991542292	 1.7348732945	-0.282049
C	 2.5374218411	 1.8401422892	 1.1301851242	-0.126841
H	-0.00972874	-2.3290565698	 0.0656370435	 0.198669
H	-0.3542351091	 1.7311214743	-1.0719599475	 0.147821
H	-0.5259885902	 1.8200374626	 0.6775584829	 0.141004
H	 4.1955528929	 2.7809295379	-0.3421073764	 0.097661
H	 1.6128816823	 4.3088409931	-0.3302430981	 0.083077
H	 2.9130054282	 3.7759877852	 2.2228435275	 0.102192
H	 1.2154077484	 3.2100255516	 2.3449894987	 0.101303
H	 2.872850983	 0.9230839501	 1.6128487241	 0.091398
59.9427	109.7246	233.6164	286.4932	336.2443	402.7513	473.3605	544.342	621.6897	641.6328	681.2623	744.7867	776.6935	784.2923	853.2141	864.779	900.6481	929.5947	930.3291	964.3096	1011.286	1034.5427	1067.1179	1072.1038	1100.7192	1142.9747	1165.8052	1180.3029	1217.1828	1234.7442	1256.7454	1289.902	1324.3035	1385.3976	1448.196	1514.5128	2244.5483	3022.1045	3053.3731	3057.7159	3108.3818	3116.7682	3127.2453	3139.4087	3507.3503
C#CCC12OC3C1CC23	C#CC[C@@]12O[C@H]3[C@@H]1C[C@@H]23	
InChI=1S/C8H8O/c1-2-3-8-5-4-6(8)7(5)9-8/h1,5-7H,3-4H2	InChI=1S/C8H8O/c1-2-3-8-5-4-6(8)7(5)9-8/h1,5-7H,3-4H2/t5-,6+,7-,8+
