23
gdb 92443	2.40009	1.53262	1.35941	1.2611	83.76	-0.2562	0.0788	0.335	1107.7256	0.20861	-388.317091	-388.308758	-388.307814	-388.349371	34.052	
C	-0.1621942566	 1.5050871483	 0.0111850359	-0.437975
C	 0.0579065096	-0.0058112546	 0.0092813615	 0.050914
C	 1.0545153634	-0.5779262913	-1.0317296293	-0.009248
C	 2.4148821058	-0.0334818497	-0.5385414097	-0.211131
C	 2.2630954196	-0.082618473	 1.01526635	-0.22738
C	 0.8218501478	-0.6085281617	 1.2159197276	-0.008088
C	 0.8144330043	-2.1054434532	 0.8584965984	 0.133127
O	-0.43800782	-2.6512241507	 1.2577727277	-0.449128
C	 1.0040185921	-2.0865530443	-0.6957806188	-0.256353
H	 0.7686073035	 2.0714594634	 0.1088891293	 0.114187
H	-0.6470802483	 1.8287344132	-0.9164591518	 0.110933
H	-0.8139204874	 1.798915393	 0.8410699764	 0.114666
H	-0.9141892267	-0.5009674307	-0.0849738642	 0.077326
H	 0.8380064967	-0.3518260958	-2.0784494367	 0.050796
H	 3.249788165	-0.6406296213	-0.9009078453	 0.089937
H	 2.5876078126	 0.9873478156	-0.8904872914	 0.094471
H	 3.0021947897	-0.7358841404	 1.4893365948	 0.092379
H	 2.3845130541	 0.907980122	 1.460760634	 0.09798
H	 0.4026370641	-0.416801379	 2.2053475466	 0.060923
H	 1.6318322239	-2.6399288135	 1.364098816	 0.055369
H	-0.4949979559	-3.5466970241	 0.909832199	 0.277334
H	 0.1393428366	-2.5669348208	-1.1658470015	 0.089586
H	 1.9031616763	-2.6192784712	-1.0211605983	 0.089375
129.7634	187.4982	224.5492	258.7573	270.9856	301.6295	332.0134	412.5319	462.2441	528.3886	636.9725	716.9954	745.8224	801.8473	834.658	852.9447	883.5736	892.8991	931.234	942.3793	971.0948	998.5464	1009.0339	1026.5278	1060.4961	1096.4881	1099.6723	1120.484	1136.8287	1174.0806	1191.2993	1222.559	1233.6022	1250.5994	1276.6621	1289.0783	1306.5956	1317.6498	1335.0183	1345.7805	1356.5503	1403.4932	1411.8042	1423.9724	1478.6539	1485.5708	1498.5305	1505.5149	1515.1146	2985.7558	3031.9316	3038.798	3047.8453	3052.7595	3057.3799	3079.7563	3083.7953	3086.8151	3091.3262	3097.672	3102.176	3108.7242	3815.3878
CC1C2CCC1C(O)C2	C[C@H]1[C@H]2CC[C@@H]1[C@@H](O)C2	
InChI=1S/C8H14O/c1-5-6-2-3-7(5)8(9)4-6/h5-9H,2-4H2,1H3	InChI=1S/C8H14O/c1-5-6-2-3-7(5)8(9)4-6/h5-9H,2-4H2,1H3/t5-,6-,7-,8-/m0/s1
