18
gdb 126311	2.86859	1.40823	1.01839	1.3122	84.18	-0.209	-0.0486	0.1603	1178.884	0.150085	-398.152807	-398.144609	-398.143665	-398.185689	31.238	
C	-0.135864683	 1.561977955	 0.0095125661	-0.376181
C	 0.0606414304	 0.0340804363	 0.0332598586	-0.277203
C	 0.7551267226	-0.486631208	-1.1924233992	 0.302028
C	 2.0504868002	-0.8887933245	-1.2071971562	-0.216428
C	 2.6602894371	-1.3613960435	-2.41321935	 0.001232
N	 2.0240653091	-1.4408775013	-3.5424112752	-0.187801
N	 0.7370518605	-1.0504203761	-3.5183476645	-0.296246
C	-0.0102635309	-0.5638508147	-2.4401951155	 0.320086
N	-1.2473936933	-0.2177394652	-2.5033403144	-0.557853
H	 0.82594991	 2.0816507411	-0.0485008928	 0.110144
H	-0.7439138509	 1.8511218249	-0.8496294901	 0.151311
H	-0.6447864453	 1.8906016101	 0.9206187152	 0.113353
H	 0.6387382514	-0.2522049164	 0.9185068081	 0.094336
H	-0.9223990073	-0.4431712746	 0.1011405882	 0.133231
H	 2.6433540575	-0.8558645228	-0.2981589959	 0.10576
H	 3.6969682849	-1.6778600591	-2.4335733634	 0.123056
H	 0.2762171908	-1.129455131	-4.4132517616	 0.261166
H	-1.6306961437	-0.3426443902	-3.4414327076	 0.196009
90.4795	111.0772	181.8962	218.1507	295.9145	326.5463	438.6513	468.541	531.6951	574.3315	597.2157	661.108	730.3074	776.0405	788.0018	804.9144	873.5841	880.953	952.9772	980.0364	1034.601	1077.2323	1089.9566	1110.4547	1177.8409	1210.0521	1277.4709	1309.1628	1352.93	1395.0193	1396.6746	1411.5012	1461.9611	1473.1271	1494.4776	1513.2593	1600.3393	1657.8433	1694.4795	3039.7972	3041.6858	3086.3934	3108.9598	3142.19	3174.4795	3199.5042	3457.9639	3607.9381
CCC1=CC=NNC1=N	CCC1=C(NN=CC1)[NH]	
InChI=1S/C6H9N3/c1-2-5-3-4-8-9-6(5)7/h3-4H,2H2,1H3,(H2,7,9)	InChI=1S/C6H10N3/c1-2-5-3-4-8-9-6(5)7/h4,7,9H,2-3H2,1H3
