20
gdb 69501	3.01498	1.40363	1.27528	0.8656	78.26	-0.2288	0.0769	0.3056	1086.9571	0.171488	-403.120476	-403.112333	-403.111389	-403.152394	33.336	
C	-0.0766123832	 1.5541958809	 0.0680366846	-0.503982
C	 0.1054202385	 0.0618798431	-0.0267573384	 0.346981
N	-0.5682790382	-0.8276506367	 0.9496817839	-0.3762
C	 0.9094676061	-0.7433447455	 0.93717756	-0.082734
C	 1.6063939458	-1.8803255101	 0.2023806736	-0.298351
C	 1.1516277122	-1.7775689798	-1.2633997397	 0.385804
O	 2.1154033411	-2.0318045656	-2.2454571886	-0.467177
C	-0.2994020239	-1.9672123271	-1.609387406	-0.35299
C	 0.2575684756	-0.5686425848	-1.4007933044	-0.13587
H	 0.6965613973	 2.0818120394	-0.5011218894	 0.127485
H	-1.0499855238	 1.861057414	-0.3321018	 0.126426
H	-0.0171050415	 1.8931649679	 1.1077787996	 0.111178
H	-0.9269656466	-0.2680544016	 1.7204298701	 0.222128
H	 1.4034172293	-0.2856474048	 1.7895084773	 0.081872
H	 2.6899825482	-1.7232760006	 0.2229833033	 0.108653
H	 1.3967949035	-2.8571483727	 0.6519167603	 0.102282
H	 2.1019146207	-2.9757080106	-2.4362081252	 0.280973
H	-0.5023596193	-2.2456945923	-2.6385751283	 0.100965
H	-0.9831041939	-2.3533912871	-0.863477677	 0.136274
H	 0.3504699321	 0.0867687838	-2.2586655456	 0.086284
156.9431	207.943	231.5649	273.3767	300.1912	333.7416	379.8931	415.4098	448.7146	516.6377	574.8334	634.2068	692.908	748.9764	811.8794	852.822	887.2456	909.2351	929.5389	952.4281	973.8441	1011.9722	1023.3878	1046.3104	1058.9258	1078.1048	1099.9009	1123.1643	1142.3642	1182.9813	1228.5622	1252.6958	1296.6319	1307.3581	1317.8377	1366.459	1394.7421	1415.37	1435.7631	1466.5712	1483.6417	1486.0533	1501.5714	3023.9341	3041.7682	3087.1803	3087.2515	3096.5707	3133.3086	3147.9704	3183.3295	3234.0877	3487.3542	3798.9544
CC12NC1CC1(O)CC21	C[C@]12N[C@H]1C[C@@]1(O)C[C@@H]21	
InChI=1S/C7H11NO/c1-6-4-2-7(4,9)3-5(6)8-6/h4-5,8-9H,2-3H2,1H3	InChI=1S/C7H11NO/c1-6-4-2-7(4,9)3-5(6)8-6/h4-5,8-9H,2-3H2,1H3/t4-,5-,6+,7-/m0/s1
