21
gdb 91944	2.04518	1.76046	1.43435	1.8896	76.96	-0.2261	0.0698	0.2959	1060.0304	0.181305	-424.21475	-424.205756	-424.204812	-424.247679	35.724	
C	 0.6032163144	 1.4108900787	-0.4304321749	-0.408648
C	 0.0596876804	 0.0911735381	 0.1164988169	 0.081491
O	 0.0458010635	-0.900371121	-0.9231699835	-0.272167
C	 0.9414992995	-1.9339232052	-0.618721204	 0.103999
C	 2.3967127389	-1.5783623346	-0.4536921646	-0.349688
C	 1.4979619866	-1.7573831251	 0.7565328138	-0.064412
C	 0.7943823718	-0.5475236256	 1.3502797249	 0.337813
C	 1.7084734505	 0.3995302661	 2.1292300519	-0.443266
O	-0.1751026598	-1.1168389644	 2.2403836914	-0.474216
H	 1.6577624143	 1.3476607332	-0.7111274275	 0.119985
H	 0.0357703639	 1.6848546612	-1.3240600377	 0.128496
H	 0.4903002963	 2.2159836816	 0.3027182872	 0.110659
H	-0.9857413076	 0.2484017032	 0.4122269848	 0.077603
H	 0.6358084398	-2.8856532946	-1.0370983577	 0.099684
H	 3.1286233251	-2.3610911757	-0.6242704922	 0.11368
H	 2.728549965	-0.5886429008	-0.7460254596	 0.113949
H	 1.6678615469	-2.5847715438	 1.4343825913	 0.098507
H	 2.5206153434	 0.7877836167	 1.5099893236	 0.121245
H	 1.1504325377	 1.2567088687	 2.525188137	 0.105502
H	 2.1456520485	-0.1381000664	 2.974935917	 0.125994
H	-0.6223273091	-0.3919452202	 2.689917712	 0.27379
86.2902	193.3676	233.0097	261.5133	269.137	273.5123	311.6814	352.4877	392.3481	433.9244	449.7219	525.6551	607.3419	703.5931	726.0736	791.2611	817.7383	884.1245	903.0365	939.1845	982.2339	1000.147	1025.93	1039.0253	1059.355	1083.1047	1107.4417	1116.8585	1118.9016	1154.029	1180.4348	1202.5132	1214.6788	1305.5966	1331.2103	1362.3892	1386.6191	1402.8056	1405.2242	1413.3458	1477.3086	1481.0884	1490.0945	1499.7685	1505.2246	3014.9405	3030.6632	3043.5787	3100.0444	3114.1617	3121.0292	3128.5017	3134.159	3179.2266	3188.9916	3220.8863	3807.3082
CC1OC2CC2C1(C)O	C[C@H]1O[C@H]2C[C@H]2[C@]1(C)O	
InChI=1S/C7H12O2/c1-4-7(2,8)5-3-6(5)9-4/h4-6,8H,3H2,1-2H3	InChI=1S/C7H12O2/c1-4-7(2,8)5-3-6(5)9-4/h4-6,8H,3H2,1-2H3/t4-,5-,6+,7-/m1/s1
