19
gdb 63134	2.34275	1.85598	1.3608	3.8466	74.64	-0.2291	0.0018	0.2309	1006.9576	0.159212	-423.030726	-423.022541	-423.021597	-423.062777	32.693	
C	-0.154484856	 1.6175046948	-0.0225449623	-0.476817
C	 0.0086269284	 0.10675524	 0.0045659962	 0.423442
O	-1.2431092619	-0.5348631956	-0.2000753866	-0.478404
C	 1.1484621218	-0.5894366952	-0.8286320558	-0.204048
C	 2.4359443921	 0.044808887	-0.2590992897	-0.240423
C	 2.0842341039	 0.032023716	 1.2773472133	-0.241508
C	 0.6810141672	-0.6085680316	 1.2241735281	-0.16561
C	 0.9568396098	-1.7321695954	 0.197047022	 0.444137
O	 0.9892743358	-2.9235916835	 0.1910168859	-0.324519
H	 0.7717904736	 2.1563546107	 0.1857611706	 0.124002
H	-0.5083159774	 1.9410402837	-1.0088987833	 0.11243
H	-0.9036752021	 1.9186883224	 0.7154020651	 0.134007
H	-1.5382006871	-0.3435845407	-1.0970614375	 0.281311
H	 1.0681316409	-0.7379674584	-1.9051082617	 0.073293
H	 3.3207000438	-0.5533141402	-0.4904790267	 0.117625
H	 2.6078879004	 1.0536456547	-0.6418911976	 0.107311
H	 2.7829495938	-0.5719699512	 1.8609142333	 0.117802
H	 2.0677699113	 1.0341614295	 1.7123243301	 0.108597
H	 0.1360405317	-0.7755186069	 2.1508065166	 0.087372
153.2926	192.7095	212.5147	252.6089	289.9476	304.5859	385.9737	398.7054	487.6046	489.9325	616.8741	647.4146	671.6091	765.1322	778.3351	851.7349	888.2668	921.7696	953.057	978.2752	983.1388	1012.0959	1037.8537	1084.0915	1112.3851	1147.2679	1156.9297	1179.1706	1191.614	1227.6929	1248.1279	1262.2928	1305.0658	1321.5999	1366.547	1410.2598	1482.2496	1490.6403	1505.3994	1516.3106	1917.3262	3033.6841	3061.3705	3069.4159	3098.608	3098.9661	3115.4574	3126.1621	3132.0736	3149.1922	3802.5686
CC1(O)C2CCC1C2=O	C[C@@]1(O)[C@H]2CC[C@@H]1C2=O	
InChI=1S/C7H10O2/c1-7(9)4-2-3-5(7)6(4)8/h4-5,9H,2-3H2,1H3	InChI=1S/C7H10O2/c1-7(9)4-2-3-5(7)6(4)8/h4-5,9H,2-3H2,1H3/t4-,5+,7+
