20
gdb 82875	2.7222	1.73433	1.37947	1.0057	77.98	-0.2221	0.0688	0.2909	1012.4057	0.17272	-403.088966	-403.08141	-403.080465	-403.120452	31.244	
C	-0.1939712719	 1.6124767174	-0.0521994	-0.446251
C	 0.0542015123	 0.1122089424	 0.0015614106	 0.044697
C	 1.119362837	-0.6144475154	-0.8813841725	-0.11332
C	 2.4096204505	 0.0690211495	-0.4189530401	-0.163974
N	 2.349517826	-0.3392378199	 1.0270865237	-0.155825
C	 2.4994954136	-1.8391056633	 0.8485263317	-0.253458
C	 1.1207408244	-1.785497984	 0.1997596059	 0.395998
O	 0.2916396679	-2.8553069057	-0.1058489006	-0.484849
C	 0.8077387454	-0.5775258467	 1.1412715289	-0.083803
H	 0.7067430224	 2.1997318876	 0.1430121224	 0.126393
H	-0.5860464287	 1.9095361948	-1.0315206452	 0.116191
H	-0.936690564	 1.9002550938	 0.7000092929	 0.117196
H	-0.8947364356	-0.4249496724	-0.1077240642	 0.087288
H	 0.9477363798	-0.8194600665	-1.9374946873	 0.069094
H	 3.3217079009	-0.3177169031	-0.8793025668	 0.099749
H	 2.4071089	 1.1551053681	-0.5284967303	 0.100143
H	 3.3869952449	-2.157276152	 0.2921670255	 0.099229
H	 2.478203613	-2.333710233	 1.8258664035	 0.094534
H	 0.1942826028	-3.4006196636	 0.6823073613	 0.282553
H	 0.4721219393	-0.6413133179	 2.1761344804	 0.068416
152.3378	190.4765	251.1874	302.9653	321.0888	362.6536	474.7589	534.7524	547.4769	600.2694	666.4367	702.6051	755.583	802.8966	849.0439	900.1962	918.3074	935.3334	942.8459	1002.1894	1016.0925	1035.7448	1061.62	1068.0386	1096.5813	1135.1938	1151.5034	1160.2959	1167.2747	1200.8109	1220.7916	1233.26	1264.3669	1287.2948	1314.8572	1332.1347	1369.7742	1398.1015	1411.9552	1490.8175	1495.6978	1507.2377	1536.1685	3032.429	3034.5759	3049.8896	3070.647	3089.995	3091.2864	3110.387	3118.5302	3120.0875	3125.4207	3803.0688
CC1C2CN3CC2(O)C13	C[C@H]1[C@H]2CN3C[C@@]2(O)[C@H]13	
InChI=1S/C7H11NO/c1-4-5-2-8-3-7(5,9)6(4)8/h4-6,9H,2-3H2,1H3	InChI=1S/C7H11NO/c1-4-5-2-8-3-7(5,9)6(4)8/h4-6,9H,2-3H2,1H3/t4-,5+,6-,7-/m0/s1
