18
gdb 91864	3.71043	1.18632	1.12522	2.1698	73.01	-0.258	-0.0413	0.2167	1122.0131	0.148971	-439.089397	-439.08164	-439.080696	-439.121498	30.478	
O	-0.5057318695	 1.1607119293	 0.9720405294	-0.437652
C	 0.0624764056	 0.1886970512	 0.1181662009	 0.115424
C	 0.917848032	-0.8446966889	 0.9002186417	-0.241262
C	-0.0637175425	-1.9359738945	 1.2796870718	-0.051479
N	-1.3417996679	-1.432200655	 1.7822135038	-0.382493
C	-1.2585186589	-1.8283848695	 0.3587210235	 0.254589
C	-1.0271756489	-0.6672814495	-0.5887454233	-0.320307
C	-1.9519340034	-3.0774595787	-0.0298606198	 0.060841
O	-2.3996937285	-3.8661015915	 0.7721928998	-0.277239
H	-1.0397766939	 0.6646354344	 1.6109028451	 0.290025
H	 0.6647065449	 0.7432372578	-0.6055208459	 0.085864
H	 1.7059027616	-1.2701258991	 0.2681881718	 0.105592
H	 1.3905142853	-0.3712194886	 1.7651195426	 0.12259
H	 0.2747760548	-2.9100424202	 1.6183092598	 0.110705
H	-1.8335503362	-2.1816839067	 2.2706318935	 0.253784
H	-1.9202337556	-0.0630813987	-0.768749633	 0.121438
H	-0.6691333398	-1.0492532898	-1.5529924126	 0.103643
H	-2.0291220089	-3.2581043219	-1.1230265489	 0.085936
115.1521	166.9005	213.8455	242.3632	343.4959	391.7473	422.1507	436.8567	514.0911	592.0311	663.3962	751.169	771.5706	825.2751	837.407	882.2476	930.6039	935.3064	970.6922	1005.2135	1050.7474	1060.2381	1099.2179	1115.2298	1150.3006	1176.8288	1213.0773	1249.8166	1282.179	1292.9828	1315.7209	1341.7651	1357.3923	1417.8296	1429.4913	1465.2636	1468.4572	1483.6117	1791.6551	2909.5465	3035.5969	3045.1464	3084.5708	3101.4796	3102.8139	3169.2154	3463.8168	3705.1506
OC1CC2NC2(C1)C=O	O[C@H]1C[C@H]2N[C@]2(C1)C=O	
InChI=1S/C6H9NO2/c8-3-6-2-4(9)1-5(6)7-6/h3-5,7,9H,1-2H2	InChI=1S/C6H9NO2/c8-3-6-2-4(9)1-5(6)7-6/h3-5,7,9H,1-2H2/t4-,5+,6+/m0/s1
