17
gdb 12875	2.74691	2.41654	1.81834	1.3947	67.52	-0.2381	0.0176	0.2557	818.5471	0.142396	-363.866774	-363.859262	-363.858318	-363.898234	28.312	
C	-0.0732262553	 1.5388219324	-0.0076481879	-0.415477
C	 0.0717199528	 0.0357053457	 0.0449194166	-0.089413
C	 1.3588851507	-0.6961336004	-0.2285234753	 0.004289
O	 2.562870694	 0.0504203268	-0.086926936	-0.207967
C	 2.5995499811	 0.4094070446	 1.2229173506	 0.081317
N	 1.669810523	 0.0178725555	 1.9959513982	-0.292032
C	 0.747828436	-0.7424607667	 1.170946413	 0.300514
C	 0.0875407437	-1.9245837146	 1.829107691	-0.470893
H	 0.7701228307	 2.0523638486	 0.458167606	 0.133311
H	-0.1437187779	 1.884157535	-1.044414747	 0.121031
H	-0.9808017602	 1.854707484	 0.5165589976	 0.123224
H	-0.7831063821	-0.5051428493	-0.3564369014	 0.091687
H	 1.4525667956	-1.5047138383	-0.9430472386	 0.107759
H	 3.4504567726	 1.0189194239	 1.5025946511	 0.1419
H	-0.5668164234	-1.5943335478	 2.6422911612	 0.132193
H	-0.51849801	-2.4837241317	 1.1100353561	 0.113074
H	 0.8344350988	-2.6036108277	 2.2524804649	 0.125482
127.7401	176.7126	202.9863	235.0088	247.0942	319.6263	452.4243	551.776	606.5108	691.4681	711.5921	752.2819	878.4085	898.414	924.0808	943.0685	955.673	999.3959	1027.4914	1086.2247	1117.4595	1124.1878	1143.3362	1159.7115	1253.6617	1274.4808	1315.1933	1354.2269	1414.1413	1419.2813	1443.8382	1479.9609	1490.9338	1497.4844	1501.5881	1667.6132	3035.587	3040.7089	3099.0813	3103.585	3110.9425	3121.4516	3135.9836	3186.117	3226.1971
CC1C2OC=NC12C	C[C@H]1[C@H]2OC=N[C@@]12C	
InChI=1S/C6H9NO/c1-4-5-6(4,2)7-3-8-5/h3-5H,1-2H3	InChI=1S/C6H9NO/c1-4-5-6(4,2)7-3-8-5/h3-5H,1-2H3/t4-,5+,6-/m0/s1
