19
gdb 103112	1.94651	1.54684	1.21557	4.8194	77.18	-0.2371	0.0289	0.266	1147.1992	0.157466	-419.191403	-419.181228	-419.180284	-419.226124	36.543	
C	-0.2873837844	 1.1795984538	 0.0048619376	-0.257126
O	 0.2836583289	-0.1230658917	 0.0510147363	-0.277659
C	 0.7874515001	-0.6037316413	-1.1500297688	 0.39729
C	 1.9457233878	 0.1549150072	-1.7559255865	-0.467707
C	 0.7088161238	-2.1036273829	-1.2553235358	-0.052463
N	 0.166308477	-2.9454227665	-0.2302963272	-0.508951
C	-0.2370055941	-1.2596328872	-2.1142326318	-0.298944
C	-1.6306132103	-1.222314061	-1.7891567118	 0.31749
N	-2.7563448655	-1.184190745	-1.5205426903	-0.357447
H	 0.4719337144	 1.9483769014	-0.1862096506	 0.114771
H	-1.0727669432	 1.2469372201	-0.7567026235	 0.1344
H	-0.7289482803	 1.3562990206	 0.9872699298	 0.138049
H	 2.743656363	 0.2704416868	-1.0150133578	 0.134341
H	 2.352120472	-0.3870204013	-2.6145564709	 0.125886
H	 1.6513673317	 1.1505752371	-2.1031383556	 0.130097
H	 1.5053671106	-2.5840758047	-1.8169155867	 0.107248
H	 0.8988860966	-3.1775212065	 0.4347296683	 0.237742
H	-0.5410633119	-2.4373502449	 0.2929575948	 0.253627
H	-0.0265065159	-1.206796274	-3.1772773594	 0.129355
113.8212	115.3613	137.277	162.4095	182.0935	197.273	220.053	249.104	296.2622	376.8985	408.4456	423.7608	551.5965	625.2703	651.9765	703.0141	777.9989	818.6925	906.28	951.0634	974.4223	1052.631	1081.0756	1102.0914	1121.5155	1167.4156	1181.5867	1189.225	1223.0706	1291.4402	1307.1532	1350.823	1412.6181	1459.7504	1476.6565	1483.0513	1490.5575	1504.6396	1506.7521	1666.5492	2344.1394	3014.1092	3036.2827	3080.1798	3102.8062	3114.5656	3134.0735	3148.0926	3166.8128	3494.6843	3572.0088
COC1(C)C(N)C1C#N	CO[C@@]1(C)[C@@H](N)[C@H]1C#N	
InChI=1S/C6H10N2O/c1-6(9-2)4(3-7)5(6)8/h4-5H,8H2,1-2H3	InChI=1S/C6H10N2O/c1-6(9-2)4(3-7)5(6)8/h4-5H,8H2,1-2H3/t4-,5+,6-/m1/s1
