16
gdb 22795	2.55581	1.48832	0.96957	3.2628	78.75	-0.2386	-0.0636	0.175	1164.5755	0.124817	-437.877781	-437.869841	-437.868897	-437.910587	29.952	
O	-0.1017394346	 1.3275351818	 0.1711976822	-0.372488
N	 0.012530678	-0.0503338113	 0.094857473	-0.165521
C	-1.12956965	-0.6350477656	-0.0358590421	 0.234293
C	-2.431312771	 0.023550675	-0.0973372737	-0.115845
C	-3.5767900308	-0.6704984373	-0.1421686766	-0.077382
C	-3.6292950403	-2.1714535701	-0.1684396038	-0.276602
C	-2.3237904239	-2.7824910678	-0.7051785504	-0.31733
C	-1.0718099384	-2.1423576135	-0.123424434	 0.332677
O	-0.1058882964	-2.7863522125	 0.2085484551	-0.29756
H	 0.8171828104	 1.606981514	 0.2521497225	 0.317919
H	-2.4367021537	 1.1058154736	-0.0668329437	 0.121127
H	-4.523511705	-0.1367017036	-0.1442451993	 0.106289
H	-3.8299020497	-2.5433251759	 0.8472221235	 0.132625
H	-4.4765040841	-2.5090758477	-0.7755432574	 0.118416
H	-2.2686747403	-3.8600654878	-0.53767464	 0.126348
H	-2.2810321704	-2.6117174613	-1.7904146653	 0.133034
63.2918	149.62	224.6897	235.5705	318.2113	359.4968	420.5315	479.2359	491.0584	558.8585	597.07	663.0903	732.9684	759.5946	833.1317	880.5839	897.4282	1002.8341	1012.2856	1031.106	1036.7713	1139.6307	1165.5117	1183.6192	1255.8704	1303.877	1321.7465	1366.3917	1394.8283	1428.0785	1460.2306	1479.024	1649.759	1688.5432	1814.0744	3004.384	3019.6262	3060.0586	3114.2282	3163.9358	3217.8537	3809.5105
ON=C1C=CCCC1=O	ON=C1C=CCCC1=O	
InChI=1S/C6H7NO2/c8-6-4-2-1-3-5(6)7-9/h1,3,9H,2,4H2	InChI=1S/C6H7NO2/c8-6-4-2-1-3-5(6)7-9/h1,3,9H,2,4H2
