21
gdb 105530	2.24482	1.45366	1.12742	0.7804	77.84	-0.246	0.0665	0.3125	1191.2698	0.181424	-424.18512	-424.175793	-424.174849	-424.219942	34.341	
C	-1.0473676513	-0.2851407379	 0.9592619637	-0.396015
C	 0.3806704066	-0.0815403622	 0.4374586941	-0.253256
C	 0.6287842131	-0.5401297046	-0.9991972391	 0.401496
C	-0.0970725409	 0.2839376617	-2.1007089723	-0.333349
C	 1.3182165015	 0.703963048	-2.5355031641	-0.073433
O	 1.9260718088	-0.0573324566	-1.4704706411	-0.324472
C	 0.604619397	-2.036805433	-1.2548771579	 0.064395
C	 0.8825263888	-3.0696663168	-0.250934107	-0.191932
O	-0.4518981063	-2.8346511932	-0.7126917283	-0.235206
H	-1.7759153825	 0.24116639	 0.3328245302	 0.113895
H	-1.3255123783	-1.339552995	 0.9701902136	 0.146704
H	-1.1389176062	 0.1146875772	 1.9736874962	 0.110746
H	 0.636348884	 0.9839870321	 0.4666728549	 0.100854
H	 1.104826839	-0.5757844621	 1.0957552604	 0.102485
H	-0.6668348293	-0.3010041835	-2.8245962386	 0.115862
H	-0.7250088832	 1.0908857673	-1.7205095271	 0.112796
H	 1.6367329637	 0.3494561471	-3.523529459	 0.10331
H	 1.5491604295	 1.7728927352	-2.4562716026	 0.104538
H	 0.8477724167	-2.2815392083	-2.2908640283	 0.090611
H	 1.3252544577	-4.0124923613	-0.5683660934	 0.11909
H	 1.0706762215	-2.7960665039	 0.7843911756	 0.12088
46.2783	70.973	129.7192	205.2687	214.6542	231.6491	295.0315	365.9561	395.0897	417.9167	514.0148	670.7935	780.8266	788.135	840.3515	869.4691	881.2926	936.7456	962.1377	986.1148	1005.6835	1014.2017	1021.1579	1048.8062	1096.0283	1115.5586	1156.1635	1162.3106	1174.5658	1199.2328	1211.8539	1252.6777	1269.8137	1301.4716	1327.8104	1345.7835	1365.1635	1415.4985	1443.0851	1485.8127	1495.4627	1498.6725	1517.2484	1529.8646	1532.4656	3016.8082	3033.5225	3043.1408	3054.807	3065.0096	3080.301	3087.9904	3096.8543	3101.8294	3134.9605	3148.026	3183.9824
CCC1(CCO1)C1CO1	CC[C@]1(CCO1)[C@H]1CO1	
InChI=1S/C7H12O2/c1-2-7(3-4-9-7)6-5-8-6/h6H,2-5H2,1H3	InChI=1S/C7H12O2/c1-2-7(3-4-9-7)6-5-8-6/h6H,2-5H2,1H3/t6-,7+/m1/s1
