18
gdb 32933	4.5091	0.89336	0.77068	2.7083	76.75	-0.2133	0.0172	0.2306	1504.0224	0.146552	-439.122413	-439.113155	-439.112211	-439.157853	32.378	
C	 0.0561769341	 1.4367245602	-0.0845868955	-0.38695
C	-0.1946453523	-0.0320386374	 0.192354602	-0.06336
O	 0.9617503782	-0.5493387604	 0.88446674	-0.276521
C	 0.9040834309	-1.827613595	 1.2518277981	 0.381019
C	 1.1596496054	-2.4708581816	 2.4142881708	-0.228383
N	 1.0396067364	-3.8428830488	 2.2016461307	-0.295505
C	 0.7133315828	-3.9645133305	 0.9567566496	 0.3891
C	 0.4312675381	-5.2010457624	 0.1840868196	-0.485337
O	 0.6143949212	-2.7698459396	 0.2959269689	-0.220469
H	 0.9472686053	 1.564414925	-0.7052266054	 0.135153
H	-0.7994122033	 1.8678634759	-0.6124682814	 0.123522
H	 0.2030160854	 1.9873903887	 0.8484327075	 0.133757
H	-1.0790071976	-0.1783010875	 0.8260659605	 0.110029
H	-0.3404201991	-0.5950760701	-0.7358255621	 0.123042
H	 1.4239449066	-2.0512267702	 3.370165842	 0.121484
H	-0.592096303	-5.2020288767	-0.206725155	 0.140318
H	 1.1098366928	-5.301354967	-0.6696675708	 0.142549
H	 0.559547618	-6.0603430427	 0.8429499005	 0.156552
42.5793	54.6626	114.3468	126.5989	220.7897	243.6221	298.2401	344.3971	393.1822	485.4405	646.9361	686.2596	696.6011	759.458	817.3363	822.2478	900.3812	968.6892	977.0305	1034.8494	1058.5089	1065.3078	1127.7366	1141.9775	1179.9343	1236.0644	1286.0658	1294.6697	1347.9673	1397.1309	1413.1625	1420.9588	1475.2265	1483.0306	1483.2775	1499.8361	1521.5764	1632.0639	1676.6276	3020.2311	3039.0142	3048.3568	3071.8135	3091.4007	3123.6954	3128.4588	3154.1961	3277.1137
CCOC1=CN=C(C)O1	CCOc1cnc(C)o1	
InChI=1S/C6H9NO2/c1-3-8-6-4-7-5(2)9-6/h4H,3H2,1-2H3	InChI=1S/C6H9NO2/c1-3-8-6-4-7-5(2)9-6/h4H,3H2,1-2H3
