17
gdb 75933	2.76578	1.57605	1.13197	2.1859	68.43	-0.2496	0.0175	0.2671	1057.2663	0.137669	-455.156329	-455.148329	-455.147385	-455.18885	30.695	
O	 0.4293186677	 0.7850794783	-0.8340373399	-0.439836
C	 0.0675688931	-0.3407635119	-0.0844211454	-0.055842
C	 0.4393843701	-0.1795647091	 1.3951523671	 0.399264
O	 1.3798908605	 0.4784755455	 1.7928096991	-0.398316
N	-0.4807853158	-0.8682079704	 2.1172705282	-0.32848
C	-1.5926041103	-1.3905867607	 1.3245893246	-0.226723
C	-1.422611568	-0.6364002617	 0.0020294756	 0.311431
C	-2.4237289923	 0.3235460916	-0.5140599641	-0.278462
N	-2.2526901698	-1.0112973445	-1.1321822248	-0.382058
H	 1.0963809356	 1.2431565317	-0.2992431131	 0.297055
H	 0.5905096423	-1.2395176421	-0.4613572303	 0.095493
H	-0.4340658911	-0.9180785295	 3.122618079	 0.259578
H	-1.5131107208	-2.4748532387	 1.1725730247	 0.122721
H	-2.5549712009	-1.1828680966	 1.8007949594	 0.12527
H	-3.3646572985	 0.4636993868	 0.0111308308	 0.116184
H	-2.0446325118	 1.1919037689	-1.0424024842	 0.139877
H	-1.7226204197	-0.9229726174	-1.9966799868	 0.242844
76.9347	163.1379	239.8017	258.1904	290.3963	345.0867	394.2741	457.2469	490.8787	537.9528	560.3011	662.0759	715.7514	781.5051	880.4251	898.0428	940.0034	960.2233	985.4407	1033.5274	1059.9785	1068.7866	1126.4119	1169.7143	1204.1962	1225.2171	1257.1766	1267.6188	1313.611	1338.3665	1380.7669	1390.5993	1433.0509	1453.5145	1510.2906	1526.0658	1829.0009	2931.0317	3020.7654	3083.9861	3115.8598	3213.9368	3491.542	3640.5443	3706.5762
OC1C(=O)NCC11CN1	O[C@H]1C(=O)NC[C@]21CN2	
InChI=1S/C5H8N2O2/c8-3-4(9)6-1-5(3)2-7-5/h3,7-8H,1-2H2,(H,6,9)	InChI=1S/C5H8N2O2/c8-3-4(9)6-1-5(3)2-7-5/h3,7-8H,1-2H2,(H,6,9)/t3-,5+/m0/s1
