18
gdb 104473	1.83493	1.56108	1.17898	3.3584	69.92	-0.214	-0.0205	0.1935	1142.9235	0.144716	-476.189153	-476.179195	-476.178251	-476.223597	36.047	
C	 0.5329859806	 1.1250959796	-0.3082529935	-0.32959
N	 0.1149652955	-0.1154183904	 0.3565618475	-0.365842
C	-1.267995841	-0.4440850251	 0.2047786389	 0.115669
C	-2.2135384801	 0.2051357347	 1.1365176891	 0.123415
O	-3.4116834072	 0.0172091935	 1.1218593951	-0.290861
C	-1.8675129457	-0.8473064152	-1.1843569233	 0.076467
O	-1.0348058527	-0.8239078846	-2.2919061771	-0.425748
C	-1.6507773954	-1.8957212231	-0.1607486962	-0.011654
O	-0.6188032743	-2.7813378421	-0.4728082404	-0.431349
H	 1.6037535938	 1.27095438	-0.1384123735	 0.116269
H	 0.335869361	 1.1341596174	-1.387506114	 0.131348
H	 0.0125277724	 1.9747320029	 0.1456023483	 0.122733
H	 0.683999613	-0.8903314776	 0.0372729073	 0.218807
H	-1.733480565	 0.8834924663	 1.8747516714	 0.08164
H	-2.8820943146	-0.5116102723	-1.3759385221	 0.129919
H	-0.5334752013	-1.6490543336	-2.296443385	 0.304324
H	-2.5077149408	-2.3082840834	 0.3668470851	 0.12606
H	-0.3098570982	-3.204428537	 0.3351996622	 0.308395
104.7502	126.5399	163.1468	181.1749	198.0002	232.2113	242.6917	281.0919	294.8192	315.0812	361.4352	489.2195	584.0277	649.6192	655.8779	700.7468	722.8531	799.9121	897.2064	1005.8777	1051.9136	1064.298	1090.1857	1121.0866	1157.7622	1161.0072	1187.9173	1227.3485	1241.5303	1311.1465	1334.0041	1396.6374	1415.2302	1456.6632	1464.566	1486.3078	1490.3375	1525.1963	1784.8336	2899.4647	3019.1733	3083.8172	3106.9993	3136.5496	3163.3041	3546.4604	3774.9494	3818.0986
CNC1(C=O)C(O)C1O	CN[C@@]1(C=O)[C@@H](O)[C@H]1O	
InChI=1S/C5H9NO3/c1-6-5(2-7)3(8)4(5)9/h2-4,6,8-9H,1H3	InChI=1S/C5H9NO3/c1-6-5(2-7)3(8)4(5)9/h2-4,6,8-9H,1H3/t3-,4+,5-
