18
gdb 102079	1.88005	1.30555	1.14679	5.1507	70.15	-0.247	-0.0402	0.2069	1207.7785	0.14468	-476.237161	-476.226907	-476.225962	-476.273227	34.967	
C	-0.2705611819	-0.5393003777	 1.195360822	-0.353788
N	 0.0555597007	 0.1556691164	-0.0423000627	-0.046528
C	 0.3423636126	 1.4988228592	-0.0035278459	 0.136541
O	 0.2948412169	 2.1827048906	 0.9973544375	-0.344658
C	 0.1331129462	-0.6131412159	-1.2688999485	-0.121483
C	-1.0848369259	-0.4230649177	-2.2009973889	-0.083223
O	-1.1860324847	 0.8895051715	-2.7097190453	-0.406587
C	 1.4365541552	-0.4274241793	-2.0481927751	 0.181385
O	 2.3723847962	 0.2363517929	-1.6987802345	-0.234827
H	-1.2431685293	-1.0396509662	 1.1233058038	 0.121689
H	 0.4922721818	-1.2892065079	 1.4367503617	 0.130881
H	-0.3062133501	 0.2046632495	 1.9905537319	 0.176293
H	 0.6046840887	 1.9007429002	-0.993830053	 0.105679
H	 0.1374439537	-1.6779872042	-0.9898368855	 0.116146
H	-0.9779755664	-1.084858737	-3.068206886	 0.121017
H	-1.9933224967	-0.7277696438	-1.6637938384	 0.109999
H	-1.5204686816	 1.4624305668	-2.0121218746	 0.300004
H	 1.4530590046	-1.0066015974	-2.9990889585	 0.091461
60.2164	81.0426	88.8865	125.0631	146.8566	200.193	255.6695	300.6309	327.8437	337.012	361.8772	404.566	585.009	638.8925	729.8798	821.343	871.0225	944.1595	982.3966	1025.7116	1058.8425	1078.6353	1128.9863	1156.1176	1216.9532	1232.9537	1260.2857	1329.993	1397.4901	1399.9698	1418.723	1421.7163	1448.0924	1454.2877	1493.8812	1502.3321	1514.1894	1787.0492	1848.9417	2879.6024	3001.7489	3014.4916	3020.3469	3025.0454	3071.0739	3072.7903	3162.1821	3822.0326
CN(C=O)C(CO)C=O	CN(C=O)[C@@H](CO)C=O	
InChI=1S/C5H9NO3/c1-6(4-9)5(2-7)3-8/h2,4-5,8H,3H2,1H3	InChI=1S/C5H9NO3/c1-6(4-9)5(2-7)3-8/h2,4-5,8H,3H2,1H3/t5-/m1/s1
