18
gdb 90145	3.50038	1.49863	1.32386	2.6911	75.77	-0.2194	-0.0004	0.219	999.146	0.149706	-401.89748	-401.890333	-401.889389	-401.92867	29.539	
O	-0.0386034647	 1.4602414229	-0.0916109004	-0.433734
C	 0.0914068967	 0.0733049042	 0.0171744022	 0.095815
C	 0.3942322519	-0.5507286772	 1.4447854659	-0.32076
C	-0.9270188868	-1.3225103382	 1.322219821	 0.2292
N	-1.9934374326	-0.300571068	 1.1309290208	-0.415387
C	-1.2115061045	-0.7562969429	-0.03298052	 0.214225
C	-1.727519272	-1.8657800504	-0.9316566634	-0.381067
C	-1.7959375566	-3.0477482862	 0.0369449654	-0.068907
C	-1.3168088981	-2.7544923151	 1.2567612833	-0.187358
H	-0.7986311757	 1.6908358261	 0.4596145539	 0.289406
H	 0.8232062631	-0.2458507714	-0.7291051001	 0.091292
H	 1.2779644757	-1.192227729	 1.439100799	 0.106919
H	 0.4591565948	 0.1627189075	 2.2697831507	 0.104075
H	-2.8935968009	-0.774896804	 1.1309939901	 0.23298
H	-2.698104565	-1.6523364327	-1.3971611072	 0.117289
H	-1.0308003598	-2.0668523005	-1.7559631458	 0.122367
H	-2.2363619847	-3.9993448451	-0.2443359083	 0.100478
H	-1.2556670309	-3.4487313502	 2.0870749629	 0.103168
125.2501	230.0018	278.6327	301.6807	440.7503	445.9121	499.9225	504.5793	581.2736	678.0416	711.2943	736.3807	768.0657	826.3984	842.7049	865.2159	914.6243	937.8972	949.7297	969.065	1015.182	1057.557	1081.5751	1116.7284	1133.38	1138.3616	1151.6162	1204.6241	1221.0007	1267.8285	1288.1319	1312.9693	1354.515	1367.8649	1384.6886	1442.7184	1470.5023	1473.8709	1627.8164	3021.9949	3050.0926	3064.9343	3084.1769	3127.8686	3176.9217	3204.204	3505.8873	3758.9565
OC1CC23NC12CC=C3	O[C@H]1C[C@@]23N[C@@]12CC=C3	
InChI=1S/C7H9NO/c9-5-4-6-2-1-3-7(5,6)8-6/h1-2,5,8-9H,3-4H2	InChI=1S/C7H9NO/c9-5-4-6-2-1-3-7(5,6)8-6/h1-2,5,8-9H,3-4H2/t5-,6+,7-/m0/s1
