15
gdb 77347	3.00688	1.30081	0.949	3.5481	65.97	-0.2592	-0.0566	0.2026	1152.7163	0.112759	-453.960682	-453.952442	-453.951498	-453.99389	30.064	
O	 0.2404056306	 1.292725936	 0.4154302834	-0.429584
C	 0.0626055618	-0.0428188824	 0.0687665537	 0.048382
C	-1.4079978522	-0.5172018061	-0.0469249936	-0.136509
N	-1.3666310449	-1.7093380822	-0.9272282004	-0.312109
C	-0.3045862667	-1.4695242493	-1.9160595979	-0.282667
C	 0.5660137339	-0.3532667744	-1.3440918088	 0.346098
O	 1.429877228	 0.2826319552	-1.8890651526	-0.310125
C	-2.0370430544	-0.823579694	 1.2331540355	 0.273994
N	-2.5152347252	-1.0850331903	 2.2515321672	-0.308815
H	 0.9231249985	 1.6395446316	-0.1795420623	 0.300155
H	 0.5815346052	-0.7239565411	 0.7678666158	 0.112832
H	-1.9847551328	 0.2792244566	-0.5360196877	 0.146397
H	-1.1552016159	-2.5278983561	-0.3678777765	 0.245382
H	 0.2775402485	-2.3718029761	-2.1230092886	 0.151429
H	-0.7199048943	-1.1275250473	-2.8731813672	 0.155138
75.3569	123.1689	144.8038	243.0749	264.4668	346.7425	380.846	445.1331	494.5375	557.5069	584.2314	609.655	648.6991	741.5434	798.2726	932.9209	968.7597	1041.429	1064.8486	1098.2909	1106.9753	1175.3742	1210.0028	1235.3906	1270.6309	1308.012	1343.6984	1363.9132	1405.643	1461.6791	1472.7741	1853.9534	2368.5231	2944.9395	3028.7224	3030.7887	3096.9993	3543.5632	3709.6667
OC1C(NCC1=O)C#N	O[C@H]1[C@@H](NCC1=O)C#N	
InChI=1S/C5H6N2O2/c6-1-3-5(9)4(8)2-7-3/h3,5,7,9H,2H2	InChI=1S/C5H6N2O2/c6-1-3-5(9)4(8)2-7-3/h3,5,7,9H,2H2/t3-,5-/m0/s1
