14
gdb 132025	2.41206	1.85082	1.04848	4.442	71.09	-0.1898	-0.0122	0.1777	1032.9707	0.102713	-474.18382	-474.17615	-474.175206	-474.215742	29.415	
N	 0.0418394587	 1.4079898722	 0.1642478398	-0.598617
C	-0.0097533894	 0.0316030802	 0.0604097921	 0.113216
C	-1.1354036201	-0.7060860263	 0.0331805957	 0.27709
F	-2.3674567504	-0.1941710531	 0.0415221303	-0.070852
N	-1.0969362421	-2.0869312326	-0.0090908002	-0.369227
C	 0.1142166446	-2.707744675	-0.0211856082	 0.08315
N	 1.2467223517	-2.0949716692	-0.0137078227	-0.329705
C	 1.2734145396	-0.6944752837	 0.0100388041	 0.310741
N	 2.3498876442	 0.005179231	-0.017443436	-0.560687
H	 0.9617055493	 1.7482358679	-0.0924942066	 0.271267
H	-0.72829992	 1.9169038011	-0.2424467056	 0.247836
H	-1.9627858698	-2.6015216947	-0.0148158985	 0.275741
H	 0.0779039745	-3.7939300121	-0.0422653469	 0.134011
H	 3.1574937891	-0.6162441557	-0.0599636672	 0.216034
120.4262	199.3455	274.6095	292.4469	325.4907	356.5514	378.18	498.524	527.3266	550.2467	560.0952	569.7675	647.49	715.6202	777.9348	867.3859	898.6635	929.7183	987.6723	1058.6039	1155.89	1271.1328	1294.1599	1300.5752	1386.8141	1428.8107	1534.7659	1605.9259	1645.5151	1674.6455	1760.0995	3167.3244	3487.8373	3526.4538	3651.6412	3658.1349
NC1=C(F)NC=NC1=N	NC1=C(F)NCN=C1[NH]	
InChI=1S/C4H5FN4/c5-3-2(6)4(7)9-1-8-3/h1H,6H2,(H2,7,8,9)	InChI=1S/C4H6FN4/c5-3-2(6)4(7)9-1-8-3/h7-8H,1,6H2
