23
gdb 122949	3.77464	0.56072	0.52022	3.4274	79.81	-0.2534	0.0746	0.328	2154.1708	0.202897	-462.546923	-462.535331	-462.534387	-462.58543	40.143	
C	-0.1750425662	 1.5088316814	-0.0387966664	-0.398271
C	-0.0418709045	-0.0148449314	-0.0740669242	 0.12071
C	 0.8346223816	-0.4928869998	-1.2350368294	-0.060107
O	 2.1647080337	-0.0285641957	-1.1076143965	-0.422502
O	 0.6045457262	-0.5297212663	 1.0893648047	-0.278023
C	-0.1653345999	-0.5440326923	 2.2740587089	-0.061773
C	 0.6405710176	-1.2517662823	 3.355054867	-0.181931
C	-0.0977173325	-1.325028218	 4.6851257714	-0.072272
O	 0.7442566769	-1.9986012682	 5.6072769401	-0.418868
H	 0.8169152363	 1.9670411168	-0.0320530243	 0.135584
H	-0.7112047133	 1.8591579953	-0.9267739741	 0.115404
H	-0.7307191048	 1.8498848135	 0.838770423	 0.112921
H	-1.0388541705	-0.476677738	-0.1707324262	 0.061589
H	 0.7971802009	-1.5924386776	-1.2742804246	 0.088225
H	 0.4478568886	-0.1050953404	-2.1831428881	 0.103126
H	 2.4396962968	-0.2757849405	-0.2163898488	 0.290762
H	-0.4157004559	 0.4790812341	 2.5961592076	 0.091235
H	-1.1192977347	-1.0691330982	 2.0952576307	 0.085747
H	 0.8834599348	-2.2663544261	 3.0220660771	 0.115594
H	 1.5900791366	-0.7259239276	 3.5020582109	 0.11519
H	-0.3402477845	-0.3082026442	 5.03619158	 0.085867
H	-1.0536750915	-1.8590264584	 4.5547594813	 0.085491
H	 0.2872953882	-2.0471558261	 6.4518715197	 0.286301
32.5775	57.4791	79.3064	109.2575	128.2306	143.2308	214.5703	233.9543	266.1514	276.7791	323.5865	405.083	420.4491	471.6775	509.4675	665.6015	779.3237	822.8143	890.378	914.3757	925.6486	1005.0509	1030.0356	1058.341	1077.6122	1102.359	1123.3551	1137.0903	1164.0752	1178.2394	1228.877	1237.0603	1252.4318	1303.9423	1306.4501	1317.1598	1344.6361	1364.1387	1386.002	1412.7861	1433.1358	1442.8413	1468.0557	1488.8266	1495.8776	1499.5675	1501.9586	1523.3974	1535.0155	2951.8993	2959.4879	2965.0585	2979.7953	2990.1822	2990.7553	3045.3967	3050.0943	3078.3063	3096.573	3111.0977	3132.7728	3790.7772	3831.1016
CC(CO)OCCCO	C[C@@H](CO)OCCCO	
InChI=1S/C6H14O3/c1-6(5-8)9-4-2-3-7/h6-8H,2-5H2,1H3	InChI=1S/C6H14O3/c1-6(5-8)9-4-2-3-7/h6-8H,2-5H2,1H3/t6-/m0/s1
