17
gdb 30462	4.75618	1.04912	0.86536	3.8405	85.11	-0.1877	-0.0389	0.1488	1313.7463	0.136413	-418.028974	-418.020362	-418.019418	-418.062264	32.055	
C	 0.0083419669	 1.4433283042	 0.021234839	-0.31688
N	-0.0043998834	-0.0068377432	-0.0298561013	-0.32718
C	 0.5473606684	-0.6481764711	 0.9189796456	 0.405481
O	 1.145550458	 0.0220202466	 1.9795015366	-0.251632
C	 1.7689367344	-0.6484065603	 2.9903128412	-0.007113
C	 1.8117837106	-1.9932630013	 3.0724094429	 0.173065
N	 2.354570932	-2.6989679594	 4.1645903189	-0.588702
C	 1.1844641428	-2.7387689406	 2.0033691734	-0.096449
C	 0.5929884863	-2.0952306144	 0.9788991812	-0.170984
H	 1.029795739	 1.8493770496	 0.0462892265	 0.113671
H	-0.4963630689	 1.8374500423	-0.864291376	 0.113604
H	-0.5056029232	 1.831035745	 0.9125232451	 0.115019
H	 2.1973776409	 0.0327225248	 3.715316145	 0.115146
H	 2.885724492	-2.1079024521	 4.7920323016	 0.243607
H	 2.9355017705	-3.4767195745	 3.8736243244	 0.246673
H	 1.1939570642	-3.8234943626	 2.0504110246	 0.107708
H	 0.1166821995	-2.6160419032	 0.1584968714	 0.124966
76.4151	113.8172	195.8099	205.6791	237.3523	342.9827	353.3151	365.3427	422.9911	542.0843	566.6363	619.3651	720.3808	748.7341	786.6727	789.1996	824.2964	842.3269	950.7247	997.7757	1049.511	1106.3705	1112.3841	1138.767	1177.5192	1195.5813	1246.0034	1299.9225	1387.9214	1434.8941	1468.2011	1486.3686	1495.9665	1611.9608	1653.7149	1703.4452	1738.0921	2988.9606	3034.0246	3101.1845	3178.3936	3207.1892	3226.6536	3520.6756	3612.7275
CN=C1OC=C(N)C=C1	C[N]C1=CC=C(CO1)N	
InChI=1S/C6H8N2O/c1-8-6-3-2-5(7)4-9-6/h2-4H,7H2,1H3	InChI=1S/C6H9N2O/c1-8-6-3-2-5(7)4-9-6/h2-3H,4,7H2,1H3
