23
gdb 120815	4.07221	0.59185	0.55033	3.0155	88.3	-0.2434	-0.0179	0.2256	2061.6004	0.203669	-388.294675	-388.284054	-388.28311	-388.331869	37.652	
C	 0.1587382456	 1.5386190943	-0.2253730653	-0.382636
C	 0.2356238338	 0.0147254074	-0.1044154029	-0.157573
C	 0.4591920712	-0.4634671083	 1.3373836589	-0.191797
C	 0.5179658989	-1.9732715425	 1.4479017494	-0.007863
C	 1.8066118918	-2.7278232193	 1.2255816334	-0.29244
C	 1.1717862757	-2.7053621342	 2.6000753652	-0.031534
C	 1.8378870176	-1.9947228353	 3.7653267965	-0.29988
C	 2.9004846082	-2.8653158194	 4.4044711289	 0.165477
O	 2.9654746996	-3.1263956786	 5.5780076729	-0.240425
H	 1.0843893191	 2.0116624308	 0.1216141905	 0.113342
H	-0.0042510985	 1.8492235671	-1.2619990071	 0.113035
H	-0.6627366037	 1.9433757473	 0.37637415	 0.114753
H	-0.6895358144	-0.4319193858	-0.4917925414	 0.095508
H	 1.04507787	-0.3689273222	-0.7381311901	 0.09962
H	 1.3859359656	-0.0166702009	 1.718299984	 0.090625
H	-0.3486348329	-0.0778471824	 1.9748940109	 0.096967
H	-0.374537654	-2.4641251217	 1.0652952481	 0.085713
H	 1.7939204229	-3.6507402469	 0.6565549046	 0.114179
H	 2.7063508117	-2.1354193213	 1.0835926747	 0.10899
H	 0.6702915142	-3.6239252643	 2.895062252	 0.094608
H	 2.3380132276	-1.0823601629	 3.4142050103	 0.116799
H	 1.1182254585	-1.7061106358	 4.5379146474	 0.12058
H	 3.6468794816	-3.2724516052	 3.683260319	 0.073952
51.8627	55.3826	84.8566	97.9913	115.7318	200.001	243.5363	253.8915	301.7881	386.6054	441.2451	491.1133	541.5321	743.8798	776.0461	797.4061	838.6936	863.3241	893.121	905.3582	939.647	969.2575	1029.9869	1049.6765	1063.3399	1082.0204	1092.2301	1127.4529	1148.6148	1164.7944	1199.7542	1241.5603	1252.1777	1270.8376	1293.3463	1304.9168	1329.6315	1382.2022	1401.6631	1414.912	1423.7499	1431.4729	1457.1288	1481.4476	1492.5452	1497.0858	1500.3808	1510.4163	1834.5527	2863.5569	3008.1517	3020.1192	3027.307	3029.4041	3041.0588	3060.9449	3089.7573	3095.3694	3102.5096	3122.8757	3123.4577	3137.3506	3208.4915
CCCC1CC1CC=O	CCC[C@H]1C[C@H]1CC=O	
InChI=1S/C8H14O/c1-2-3-7-6-8(7)4-5-9/h5,7-8H,2-4,6H2,1H3	InChI=1S/C8H14O/c1-2-3-7-6-8(7)4-5-9/h5,7-8H,2-4,6H2,1H3/t7-,8+/m0/s1
