20
gdb 66484	2.85313	1.83071	1.42073	1.5753	82.3	-0.219	0.0884	0.3075	999.5032	0.17114	-365.944341	-365.936648	-365.935704	-365.975858	31.425	
C	-0.1536809855	 1.4839112175	-0.0265398328	-0.527135
C	 0.0917618109	 0.0144679139	 0.0308655498	 0.358756
C	 0.3898704484	-1.0134471162	-0.9970902507	-0.106926
C	 1.2532916347	-1.8852093407	-0.0661530848	-0.07047
C	 0.3210323575	-3.0201592458	 0.4159851626	-0.28299
C	-0.5520746354	-1.8616470339	 0.9401716651	 0.374537
C	-1.6695039604	-2.0205020254	 1.9306950816	-0.497387
C	 0.7101510144	-0.9459899925	 1.0851305114	-0.185575
N	-0.9384193566	-1.0276137475	-0.285080062	-0.219915
H	 0.7887411073	 2.0425981698	-0.0518935431	 0.120271
H	-0.7250713714	 1.7336148576	-0.9261420796	 0.13281
H	-0.7261771197	 1.8266279533	 0.8429285891	 0.12246
H	 0.3780651276	-0.9575889108	-2.0792079303	 0.089293
H	 2.3090364762	-2.0237326669	-0.2904226392	 0.070502
H	-0.1080808025	-3.7033025404	-0.3232621808	 0.098845
H	 0.7623510999	-3.5853627108	 1.2435733522	 0.097106
H	-1.3267728913	-2.5373905474	 2.8328679011	 0.112273
H	-2.072275314	-1.045709748	 2.2248158766	 0.120819
H	-2.4891748181	-2.599649845	 1.4908462002	 0.126424
H	 1.247081358	-0.719787531	 2.0036759537	 0.0663
178.9047	196.3963	212.744	255.5713	283.0112	315.6005	434.1978	570.4487	578.9543	593.2299	734.5623	760.8521	802.0447	827.0464	835.7899	862.5944	894.1987	896.2368	929.9647	950.8341	995.2461	1018.0007	1044.3567	1062.6831	1079.2253	1093.7424	1122.2327	1155.4299	1184.9946	1190.2342	1214.2756	1239.482	1262.902	1277.209	1330.0318	1400.1226	1413.2863	1450.157	1479.8734	1481.8067	1484.2072	1488.4813	1491.6386	3025.3985	3029.2578	3043.4489	3086.7482	3097.007	3101.2805	3104.5524	3105.4612	3133.0555	3142.5199	3180.4312
CC12C3C4CC(C)(C14)N23	C[C@@]12[C@H]3[C@@H]4C[C@@](C)([C@H]14)N23	
InChI=1S/C8H11N/c1-7-3-4-5(7)8(2)6(4)9(7)8/h4-6H,3H2,1-2H3	InChI=1S/C8H11N/c1-7-3-4-5(7)8(2)6(4)9(7)8/h4-6H,3H2,1-2H3/t4-,5-,6-,7+,8+,9?/m1/s1
