20
gdb 72020	2.79949	2.01474	1.80077	1.8026	79.78	-0.2225	0.0915	0.314	890.8847	0.17455	-365.991405	-365.984909	-365.983964	-366.021709	28.331	
C	-0.0103881339	 1.50726505	-0.0200391626	-0.512816
C	 0.011052959	-0.0025765997	-0.0601302799	 0.329282
C	 0.8309546454	-0.7228937572	-1.1512775615	-0.257631
C	 0.7067541119	-2.1341926922	-0.5312378655	-0.061987
C	 1.3566524334	-1.893988267	 0.853806554	-0.217563
C	 0.3472311887	-0.8239127772	 1.2595915045	-0.034463
N	-0.9866828301	-1.5428197794	 1.1968323556	-0.152824
C	-0.7979308142	-2.1865253165	-0.1473013323	-0.045731
C	-1.311428249	-0.7961253834	-0.0553817086	-0.085999
H	 0.9966996088	 1.9127901441	 0.1281460789	 0.115919
H	-0.3995334388	 1.9232597056	-0.9567906417	 0.116354
H	-0.642375122	 1.8763965618	 0.7948133555	 0.122147
H	 0.3549747615	-0.636531288	-2.1339002491	 0.092097
H	 1.8699706692	-0.3818831073	-1.2262909288	 0.088015
H	 1.0722057379	-2.975301025	-1.1186600139	 0.062732
H	 1.3110246734	-2.7606239597	 1.5193801934	 0.106739
H	 2.3898147871	-1.5397822512	 0.7848261462	 0.093954
H	 0.4927878634	-0.2770967554	 2.1903550354	 0.069613
H	-1.4333877588	-3.0390792735	-0.3517505894	 0.090541
H	-2.313278003	-0.4521742188	-0.2943966303	 0.08162
219.4713	248.562	271.5387	423.4706	463.3169	547.7881	578.272	647.9143	684.4285	779.0669	789.8439	825.4705	841.27	877.546	894.5169	908.3843	919.416	926.4646	966.2725	970.0221	993.5284	1011.8709	1036.996	1059.229	1089.4929	1125.3599	1163.672	1178.1478	1184.9863	1212.6551	1230.0492	1239.5846	1259.859	1275.181	1289.5955	1303.1735	1351.9908	1373.2024	1416.6944	1476.7839	1493.2721	1496.0837	1497.3171	3022.9334	3032.9545	3053.5988	3084.175	3087.1827	3093.4864	3108.0427	3123.3345	3127.6713	3150.8261	3192.6584
CC12CC3CC1N1C3C21	C[C@@]12C[C@H]3C[C@@H]1N1[C@H]3[C@H]21	
InChI=1S/C8H11N/c1-8-3-4-2-5(8)9-6(4)7(8)9/h4-7H,2-3H2,1H3	InChI=1S/C8H11N/c1-8-3-4-2-5(8)9-6(4)7(8)9/h4-7H,2-3H2,1H3/t4-,5+,6-,7-,8-,9?/m1/s1
