17
gdb 33736	3.25528	1.52503	1.29368	4.7736	76.38	-0.2485	0.0256	0.2741	992.1399	0.13927	-380.83258	-380.825914	-380.82497	-380.86349	27.608	
N	-0.0055740234	-1.1394293226	-0.0490726577	-0.346711
C	 0.0153595368	 0.0168734055	-0.0336413399	 0.146054
C	 0.0358205662	 1.4609802687	-0.0026565588	 0.229391
C	-0.2821728053	 2.2786866011	 1.3093385425	-0.24861
C	 0.4555014068	 3.4085579822	 0.5105961102	-0.071019
C	 1.3669630687	 2.2773478158	-0.0382807892	-0.258036
C	-0.5608324504	 3.6244722173	-0.6306282501	-0.034091
N	-0.1402120027	 3.0969858316	-1.9505654421	-0.335984
C	-0.8678240828	 2.2274718512	-1.0060746264	-0.08705
H	-1.3374668214	 2.4246193507	 1.5539401525	 0.105731
H	 0.2727739679	 1.9175402483	 2.1774093313	 0.118042
H	 0.8686479556	 4.2856870639	 1.0049226734	 0.078479
H	 2.0671074403	 1.9168971127	 0.7155171286	 0.112288
H	 1.8459967902	 2.4115358312	-1.0043719512	 0.143246
H	-1.3129368461	 4.4018102566	-0.5668338783	 0.10083
H	-0.7929752506	 3.421195922	-2.6612965332	 0.237539
H	-1.8557211297	 1.850888534	-1.2404188816	 0.109903
146.1921	164.4718	370.7868	401.0269	506.2965	515.1541	530.7462	554.9113	606.2496	672.0464	787.224	808.1936	853.7811	877.6497	903.328	923.4827	933.2763	942.6336	972.1133	1003.5045	1043.9106	1072.7949	1090.1861	1123.8972	1147.5979	1169.7445	1190.8256	1221.6776	1230.5719	1236.9811	1256.4009	1298.9525	1342.1199	1394.7559	1476.5638	1512.8451	2351.6759	3065.004	3102.7775	3133.1817	3137.5833	3182.6899	3183.589	3195.7989	3497.3546
N#CC12CC(C1)C1NC21	N#C[C@@]12C[C@@H](C1)[C@H]1N[C@@H]21	
InChI=1S/C7H8N2/c8-3-7-1-4(2-7)5-6(7)9-5/h4-6,9H,1-2H2	InChI=1S/C7H8N2/c8-3-7-1-4(2-7)5-6(7)9-5/h4-6,9H,1-2H2/t4-,5-,6-,7+/m1/s1
