19
gdb 40450	3.55502	1.21797	1.10358	0.572	74.74	-0.2578	0.0776	0.3355	1160.6447	0.160065	-423.001728	-422.993894	-422.99295	-423.034429	30.251	
C	-0.028345973	 1.4391661502	-0.0660662089	-0.186775
O	 1.1565182822	 0.6435439686	-0.1545742866	-0.2369
C	-0.0946425195	-0.0256441669	 0.0295728367	-0.019212
C	-0.2804041203	-0.7472240071	 1.321908791	 0.438093
C	 0.164952101	-0.1601584635	 2.6496599505	-0.30152
C	 0.0329544861	-1.3381861024	 3.6453021767	-0.221939
C	 0.2176661183	-2.6229711146	 2.8009467491	-0.240388
C	-0.2514017988	-2.2167751098	 1.4197004766	-0.010175
O	-1.5015856852	-1.5074180516	 1.4134591042	-0.312342
H	-0.1157823323	 2.0461355694	 0.8328719598	 0.11758
H	-0.3340094601	 1.9276911168	-0.9899053144	 0.119754
H	-0.4507717704	-0.5797755405	-0.8393758232	 0.0956
H	 1.2023055718	 0.1762890643	 2.5440747073	 0.122516
H	-0.4357724393	 0.703098254	 2.9528503638	 0.104863
H	 0.7487971034	-1.2714543612	 4.4677193412	 0.100565
H	-0.9687900071	-1.3326455999	 4.0799564777	 0.12027
H	 1.2726676471	-2.9171744636	 2.7377491909	 0.107435
H	-0.3372094316	-3.4750908522	 3.2056215501	 0.110054
H	-0.0781498025	-2.8559370003	 0.5568355875	 0.09252
63.2217	152.7054	189.7752	215.2771	306.2675	383.2031	414.4712	525.5682	579.3634	658.4093	699.373	813.5421	854.5124	868.8335	890.1522	900.732	903.3719	948.8694	951.9927	1007.4493	1033.4643	1041.702	1097.6244	1122.5476	1153.4177	1166.8014	1171.6635	1205.3223	1247.6121	1256.3199	1279.6007	1289.654	1326.6347	1341.8185	1356.7208	1400.3494	1471.1556	1480.1311	1490.5928	1502.0346	1528.8779	3036.4163	3046.8956	3072.2807	3084.5644	3087.0475	3091.3794	3109.962	3120.6141	3141.2708	3178.9289
C1OC1C12CCCC1O2	C1O[C@H]1[C@]12CCC[C@H]1O2	
InChI=1S/C7H10O2/c1-2-5-7(3-1,9-5)6-4-8-6/h5-6H,1-4H2	InChI=1S/C7H10O2/c1-2-5-7(3-1,9-5)6-4-8-6/h5-6H,1-4H2/t5-,6-,7+/m1/s1
