21
gdb 76620	2.3975	1.41114	1.14953	1.9966	78.28	-0.2287	0.0515	0.2802	1172.1261	0.181259	-424.183254	-424.173815	-424.172871	-424.217265	36.59	
C	-0.0799619353	 1.2231690233	-0.6173959944	-0.457218
C	 0.1721296711	-0.1200097855	 0.0490509254	 0.357461
C	 1.4970128757	-0.7973640628	-0.2302329504	-0.313094
C	 1.2458465397	-0.1666422209	 1.11585249	-0.302983
C	-1.0851346064	-0.911345451	 0.3040094319	-0.171292
C	-2.0082099563	-1.3837068864	-0.7997772084	 0.00552
O	-1.4913475136	-1.2809929585	-2.1073536637	-0.41973
C	-1.3082144539	-2.402280925	 0.0682969154	 0.074312
O	-0.3632672088	-3.2209312429	-0.5481286192	-0.425485
H	 0.8498228824	 1.7934864979	-0.713249662	 0.105346
H	-0.5038144292	 1.0869318737	-1.6167015442	 0.131865
H	-0.7816997867	 1.8295429573	-0.0315642836	 0.105412
H	 1.5289982172	-1.8770174785	-0.2745887023	 0.132804
H	 2.1730584407	-0.2923357188	-0.9127286906	 0.101367
H	 1.7558221654	 0.7590459077	 1.3623303685	 0.103046
H	 1.096353545	-0.8327996373	 1.9590220726	 0.108678
H	-1.6416756637	-0.5411068543	 1.1648118156	 0.090535
H	-3.0776230009	-1.2005267353	-0.7182749942	 0.089098
H	-2.0133664289	-1.8600724804	-2.6741669399	 0.296649
H	-1.8670512269	-2.9512764154	 0.8196800529	 0.102113
H	-0.2143280066	-2.8352629468	-1.4237258396	 0.285595
49.1511	137.8051	198.9935	232.7866	258.8537	275.2433	292.1102	308.064	346.9334	391.376	536.4595	558.0004	593.7454	667.7127	718.8384	785.8872	794.3666	807.3668	865.3209	900.3561	942.7135	954.7431	1035.8767	1052.9108	1059.7328	1070.8935	1081.2398	1092.7449	1122.3928	1130.8855	1157.4484	1200.6073	1231.5855	1263.8966	1277.9657	1324.792	1344.2913	1384.1527	1411.4638	1419.6446	1466.5275	1472.5724	1490.9283	1501.6535	1510.4918	3022.9546	3085.5335	3100.5508	3109.6483	3118.8524	3125.599	3139.7711	3158.725	3208.9322	3245.207	3728.2657	3798.1029
CC1(CC1)C1C(O)C1O	CC1(CC1)[C@H]1[C@@H](O)[C@H]1O	
InChI=1S/C7H12O2/c1-7(2-3-7)4-5(8)6(4)9/h4-6,8-9H,2-3H2,1H3	InChI=1S/C7H12O2/c1-7(2-3-7)4-5(8)6(4)9/h4-6,8-9H,2-3H2,1H3/t4-,5+,6-
