20
gdb 12814	3.33161	1.91294	1.54287	1.2321	74.28	-0.2443	0.0822	0.3265	914.6736	0.179032	-349.001493	-348.994075	-348.993131	-349.03265	29.673	
C	-0.0038085874	 1.5201374139	 0.0019821313	-0.465119
C	-0.0218188271	 0.0052724614	 0.0215057772	 0.362827
C	-0.8684559263	-0.6750181529	 1.0670056478	-0.331702
C	 0.6414573871	-0.7099105784	 1.1825319721	-0.081177
C	 1.4014596551	-2.0098876351	 0.9234185222	-0.097574
O	 1.6993995863	-2.2466723292	-0.4429055104	-0.238186
C	 0.5578517328	-2.1098464173	-1.2659553219	-0.097655
C	 0.1211730554	-0.6440636804	-1.3490383151	-0.264366
H	 0.9309909071	 1.899338383	-0.4273224885	 0.116448
H	-0.830071504	 1.9161262141	-0.6011294805	 0.113778
H	-0.1011963684	 1.9341421425	 1.010759747	 0.110655
H	-1.4232589585	-0.0490087024	 1.7582919439	 0.104926
H	-1.3727824236	-1.6031665698	 0.8128812618	 0.105617
H	 1.0766567421	-0.078952141	 1.9518452594	 0.08282
H	 2.3691922288	-1.9845208869	 1.4322842909	 0.108156
H	 0.83628819	-2.866810073	 1.3287763469	 0.086341
H	 0.8406328374	-2.479963529	-2.2557815136	 0.10605
H	-0.2618260501	-2.750366397	-0.896442573	 0.084225
H	-0.8149182655	-0.5614329392	-1.9171677107	 0.092133
H	 0.8871238886	-0.0979804333	-1.9137496969	 0.101804
141.5864	194.3906	238.7504	323.4041	342.3545	374.053	393.5865	460.3117	524.1176	628.2316	702.193	774.8712	865.9148	882.2283	911.0463	930.143	952.6997	984.58	1022.1305	1043.4919	1062.7302	1074.1311	1101.6712	1128.7991	1145.8286	1169.2416	1240.7417	1258.339	1273.9442	1318.8203	1328.062	1370.0179	1389.7738	1414.8049	1417.7357	1422.978	1479.4394	1489.7819	1493.1374	1497.006	1504.7444	1514.2617	2950.5822	2958.5938	3014.5365	3019.815	3054.0491	3078.6114	3079.458	3082.2816	3096.1299	3118.4013	3146.3497	3201.1495
CC12CC1COCC2	C[C@]12C[C@H]1COCC2	
InChI=1S/C7H12O/c1-7-2-3-8-5-6(7)4-7/h6H,2-5H2,1H3	InChI=1S/C7H12O/c1-7-2-3-8-5-6(7)4-7/h6H,2-5H2,1H3/t6-,7-/m0/s1
