19
gdb 75256	2.79571	1.66849	1.37244	1.798	80.	-0.2217	0.017	0.2387	1017.489	0.159947	-385.845593	-385.837972	-385.837028	-385.87721	30.65	
C	 0.016049782	 1.5458706291	 0.0011436563	-0.497486
C	 0.0030628286	 0.0484490643	-0.017606862	 0.242958
C	 0.0263357187	-0.7460026722	-1.103119559	-0.155323
C	-0.0373789315	-2.2384849521	-0.786250145	-0.353167
C	 0.0187155	-2.221788294	 0.7298751432	 0.386831
C	 1.1745460781	-1.7047738377	 1.514494617	-0.364289
C	-0.0114487334	-0.790092485	 1.2201692597	 0.050496
C	-1.2277191976	-1.2587208475	 2.0339878549	-0.137813
O	-1.0708123076	-2.633557137	 1.5722896389	-0.32512
H	 0.8871140777	 1.9257036409	 0.5490027632	 0.129111
H	 0.033413915	 1.964316649	-1.0088487093	 0.122665
H	-0.8695234894	 1.9407166837	 0.5150247963	 0.126766
H	 0.1083242327	-0.3810524931	-2.1235730641	 0.086729
H	-0.9767252444	-2.6900722621	-1.1286044522	 0.124197
H	 0.7767305452	-2.8049037475	-1.2542841977	 0.111463
H	 1.3204099918	-2.0734640268	 2.5254233619	 0.1184
H	 2.0806267133	-1.4762420147	 0.9647338604	 0.121876
H	-1.1723482576	-1.1861330767	 3.1265686789	 0.103673
H	-2.1751852814	-0.8355588805	 1.6819595885	 0.108033
154.6519	181.2543	244.3976	254.6012	284.0434	370.5233	417.9214	551.4465	565.1154	583.8445	674.4757	740.0672	791.8037	830.7206	847.7074	916.5815	932.2336	946.4228	958.5002	973.7414	1003.3312	1031.9811	1058.6306	1063.2815	1109.9767	1135.8211	1159.9146	1173.5734	1229.3079	1249.8178	1300.7939	1334.62	1349.6623	1385.1044	1414.5407	1464.6823	1477.252	1478.1437	1488.3995	1513.1017	1674.179	3019.5639	3021.2121	3026.9135	3058.3406	3066.9943	3072.8329	3110.9353	3124.6582	3167.9153	3223.2777
CC1=CCC23CC12CO3	CC1=CC[C@@]23C[C@@]12CO3	
InChI=1S/C8H10O/c1-6-2-3-8-4-7(6,8)5-9-8/h2H,3-5H2,1H3	InChI=1S/C8H10O/c1-6-2-3-8-4-7(6,8)5-9-8/h2H,3-5H2,1H3/t7-,8-/m1/s1
