22
gdb 11952	3.23282	1.57307	1.31418	0.3151	82.8	-0.235	0.0866	0.3217	1072.7199	0.199834	-313.057892	-313.049071	-313.048127	-313.090885	33.729	
C	 0.0564115784	 1.5023124607	-0.2498666657	-0.370092
C	 0.0086632774	 0.0172462171	 0.1382509304	-0.294709
C	-1.3891538477	-0.5396831109	 0.1625549985	 0.351588
C	-2.1071605398	-1.0118151433	-1.0785140006	-0.37111
C	-1.9030998633	-1.9861070249	 0.0544647529	 0.298807
C	-1.165238713	-3.2847807365	-0.1050457616	-0.495245
C	-2.9553456898	-1.7061951406	 1.1371684812	-0.275681
C	-2.4372027362	-0.2353999923	 1.2449613486	-0.28103
H	 1.0835120238	 1.8807376622	-0.2472367816	 0.107771
H	-0.3604500727	 1.6591436348	-1.250098146	 0.117401
H	-0.5251884213	 2.1117824926	 0.4500540037	 0.117246
H	 0.6200306709	-0.5627659648	-0.5650871251	 0.092669
H	 0.4723079392	-0.1138283539	 1.1258060617	 0.090972
H	-3.1013481731	-0.6418619927	-1.3254462871	 0.094649
H	-1.4708497957	-1.1742604231	-1.9444184805	 0.100908
H	-0.3237544643	-3.1848187852	-0.7988710764	 0.11466
H	-0.7679511823	-3.641559952	 0.8526901035	 0.111896
H	-1.8229069301	-4.0692347669	-0.5005532979	 0.11755
H	-4.0012039051	-1.8437516742	 0.8405085818	 0.089427
H	-2.7803496795	-2.2736626692	 2.0554194868	 0.096215
H	-1.9914882213	-0.0250783053	 2.2213805682	 0.095829
H	-3.1551307844	 0.5593869785	 1.0145919151	 0.090279
77.7657	131.7267	189.4642	204.1475	227.2124	263.9779	336.3321	349.051	435.7382	487.3603	575.4227	703.9968	728.9687	782.5966	793.3197	846.9216	915.7903	937.832	956.1867	977.4244	990.5854	1025.3573	1037.7128	1060.7626	1079.8111	1103.0212	1146.6909	1197.8703	1221.025	1239.8595	1241.3261	1259.153	1315.8737	1334.5783	1360.0753	1401.1468	1408.5697	1425.8661	1478.3843	1483.1675	1486.7764	1488.0492	1497.6676	1499.5089	1507.7788	1521.4285	3006.6401	3015.3024	3031.7932	3032.6189	3041.0254	3041.7781	3070.5721	3079.4628	3089.0725	3091.106	3099.2102	3100.7322	3104.192	3180.0835
CCC12CC1(C)CC2	CC[C@@]12C[C@]1(C)CC2	
InChI=1S/C8H14/c1-3-8-5-4-7(8,2)6-8/h3-6H2,1-2H3	InChI=1S/C8H14/c1-3-8-5-4-7(8,2)6-8/h3-6H2,1-2H3/t7-,8+/m0/s1
