18
gdb 37251	3.45344	1.56408	1.38606	2.5089	74.68	-0.2268	0.0525	0.2793	973.2292	0.148502	-401.846255	-401.839298	-401.838353	-401.877397	28.495	
C	 0.051534349	 1.4650226844	 0.0512273139	-0.249059
C	 1.3014773034	 0.6847740292	-0.0170182146	-0.032825
C	 1.699645813	 0.0214976881	 1.312558855	-0.034107
C	 1.3903433588	 0.7939334245	 2.6284444351	-0.350477
C	-0.0191150426	 0.1657240498	 2.6050874198	 0.441854
C	-0.8684606845	-0.2312685584	 3.7310988473	-0.271823
O	-1.2210763704	 0.8643136125	 2.8783713948	-0.263094
C	 0.2815737589	-0.6070037825	 1.3098078769	-0.0774
N	-0.0628425177	-0.004140613	-0.0421700155	-0.147064
H	-0.262125035	 1.9835769978	 0.9499804506	 0.14446
H	-0.2660790461	 1.9476576507	-0.868803054	 0.120897
H	 1.9340208182	 0.6943410782	-0.8995910379	 0.094663
H	 2.5989937764	-0.5897072907	 1.2784068897	 0.078662
H	 1.995854739	 0.4745248984	 3.4809368701	 0.110664
H	 1.4177978654	 1.884804868	 2.5649189286	 0.116061
H	-1.5053925338	-1.1110876973	 3.6468493453	 0.120287
H	-0.5776067786	 0.0413577174	 4.7451560326	 0.116584
H	 0.0894239566	-1.6799909472	 1.3033951723	 0.081717
118.8737	210.2776	273.5557	332.6331	370.4186	463.0403	507.1549	607.5921	712.219	725.3703	735.6956	829.9288	855.4101	866.147	886.9961	901.623	934.8522	961.8836	986.8182	1021.6208	1058.7582	1079.4634	1114.892	1117.035	1128.803	1138.2351	1149.2838	1170.0883	1191.4796	1219.0488	1232.9402	1247.8163	1280.2866	1306.0374	1365.9987	1420.5777	1470.0121	1513.8379	1528.7886	3057.5035	3077.764	3106.8592	3110.3938	3127.7353	3133.8646	3154.5589	3166.2032	3214.588
C1C2C3CC4(CO4)C3N12	C1[C@H]2[C@H]3C[C@]4(CO4)[C@H]3N12	
InChI=1S/C7H9NO/c1-4-5-2-8(5)6(4)7(1)3-9-7/h4-6H,1-3H2	InChI=1S/C7H9NO/c1-4-5-2-8(5)6(4)7(1)3-9-7/h4-6H,1-3H2/t4-,5+,6+,7+,8?/m1/s1
