21
gdb 52932	3.01448	0.9808	0.84975	0.3428	94.68	-0.2377	0.0528	0.2905	1480.5379	0.182018	-349.890328	-349.880909	-349.879965	-349.926311	34.848	
C	-1.0125922055	 1.0477011501	 0.4994046025	-0.516889
C	-0.7183550512	-0.3707427759	 0.3617901957	 0.37899
C	-0.4750568872	-1.5465959983	 0.2514309868	-0.423089
C	-0.1824172559	-2.9433162226	 0.1031400116	 0.28507
C	 0.6555389678	-3.8562638817	 1.0612784873	-0.255532
C	 0.2069429885	-4.7844434465	-0.1017910697	-0.099979
C	-1.1991042127	-4.1344310587	 0.0288419622	-0.263391
C	 0.6128471816	-3.6305430231	-1.0741916012	 0.031443
C	 0.1222563287	-3.5579847723	-2.5103598486	-0.444739
H	-0.4870382277	 1.6396556129	-0.2584556561	 0.147007
H	-2.0847174312	 1.2452617811	 0.3877458746	 0.147428
H	-0.7079302944	 1.424522183	 1.4823355786	 0.147666
H	 1.7225141796	-3.6284976726	 1.1331297784	 0.091777
H	 0.215032379	-4.0488717496	 2.042675123	 0.091913
H	 0.430924769	-5.8454088059	-0.2139527277	 0.069966
H	-1.7470021386	-4.3432894982	 0.9514010216	 0.093214
H	-1.8652039818	-4.1688036347	-0.8335666831	 0.096124
H	 1.6836070661	-3.3969824177	-1.0391215287	 0.06468
H	-0.9351571916	-3.8085008704	-2.6245606292	 0.118079
H	 0.267692833	-2.5477458708	-2.9082679852	 0.124338
H	 0.6952575546	-4.2455905681	-3.1423836028	 0.115924
13.6549	79.6057	102.5022	173.8617	222.8288	297.8178	338.0733	344.3911	455.0832	501.5633	513.4435	551.339	598.1977	763.7942	798.1466	808.4911	882.1209	926.0576	943.654	1000.9703	1003.6968	1016.9391	1054.1785	1054.6374	1062.9727	1081.8171	1119.9354	1129.9694	1148.4871	1158.4592	1173.6214	1217.2878	1242.712	1246.2292	1330.381	1404.286	1414.2834	1421.8248	1477.8611	1477.8883	1489.1741	1494.9848	1510.2998	1543.2464	2360.8525	3023.3585	3029.0599	3035.6462	3051.1315	3065.7875	3083.3294	3083.5246	3091.3831	3111.8867	3114.5165	3119.9407	3135.4647
CC#CC12CC(C1)C2C	CC#C[C@@]12C[C@@H](C1)[C@H]2C	
InChI=1S/C9H12/c1-3-4-9-5-8(6-9)7(9)2/h7-8H,5-6H2,1-2H3	InChI=1S/C9H12/c1-3-4-9-5-8(6-9)7(9)2/h7-8H,5-6H2,1-2H3/t7-,8-,9+/m1/s1
