16
gdb 71870	3.20694	1.59114	1.30177	2.3486	69.78	-0.2503	0.0232	0.2735	970.0773	0.125729	-437.868091	-437.861172	-437.860227	-437.899169	28.114	
O	-0.1061908678	 1.3751103794	-0.049652499	-0.455838
C	 0.0545991964	 0.0095889091	-0.0566475621	 0.38692
C	 0.8762891235	-0.7966742617	-1.0616576913	-0.32059
C	-0.0589589815	-1.9985566185	-0.7248736304	 0.064121
O	 0.5298936276	-2.8070915538	 0.3059307894	-0.251484
C	 0.5554687597	-2.0600978338	 1.4614359675	 0.422717
N	 1.1161799432	-2.4021420004	 2.5402135387	-0.561274
C	-0.2232570142	-0.8178509265	 1.217680316	-0.212137
C	-1.0444878669	-1.0168596987	-0.0357737889	-0.14597
H	 0.6357689936	 1.7715101472	 0.4213342308	 0.294969
H	 0.7030933106	-0.4274870761	-2.07603772	 0.117797
H	 1.9462177051	-0.9497330849	-0.8894002166	 0.107341
H	-0.3912152869	-2.6489064194	-1.529416058	 0.101556
H	 1.5573390575	-3.3176672292	 2.437854813	 0.221775
H	-0.6202999282	-0.2647027415	 2.0571815788	 0.11937
H	-2.1199691416	-0.9447418012	-0.116383908	 0.110728
146.7525	209.5988	284.2123	337.5708	421.9499	445.5084	460.2774	585.2359	622.3116	674.4433	723.7944	789.6962	864.4652	876.967	884.7516	893.9288	921.9301	926.0317	981.3488	1002.9227	1023.5508	1055.3195	1096.8505	1134.1056	1163.1566	1178.674	1226.8821	1240.3404	1287.1596	1294.2115	1314.6463	1370.2841	1438.8014	1495.5948	1779.2934	3049.9545	3112.8091	3159.0865	3217.0323	3229.6683	3473.6584	3793.8489
OC12CC3OC(=N)C1C23	O[C@@]12C[C@H]3O[C]([NH])[C@@H]1[C@@H]23	
InChI=1S/C6H7NO2/c7-5-4-3-2(9-5)1-6(3,4)8/h2-4,7-8H,1H2	InChI=1S/C6H7NO2/c7-5-4-3-2(9-5)1-6(3,4)8/h2-4,7-8H,1H2/t2-,3+,4+,6-/m1/s1
