18
gdb 57696	3.14075	0.82484	0.75596	3.8991	78.87	-0.2804	0.019	0.2995	1519.9619	0.14412	-401.931535	-401.921238	-401.920294	-401.967014	37.246	
C	 0.1603953633	 1.5883503144	 0.0178436817	-0.404695
C	 0.0018655632	 0.0613121055	-0.0153115234	 0.147764
O	 0.623527255	-0.4163554554	 1.1847123526	-0.446294
C	-1.4845159112	-0.382778886	-0.0541062619	-0.201409
C	-2.2646107327	 0.0495336523	 1.2029224606	-0.357875
C	-3.5924812808	-0.5551205291	 1.2571385963	 0.252775
N	-4.639925056	-1.0425654383	 1.2859856954	-0.305305
C	 0.6806457236	-0.4949185658	-1.1943948313	 0.293727
C	 1.2260441766	-0.9852777046	-2.1467349777	-0.447063
H	 1.2199998414	 1.8472030223	-0.0200047423	 0.14105
H	-0.3469900712	 2.0492457336	-0.8330837767	 0.128597
H	-0.2550703208	 1.9893715944	 0.9456661748	 0.129941
H	 0.7992043147	-1.3573473139	 1.0730371233	 0.289226
H	-1.9619714967	 0.013111335	-0.9553750084	 0.129695
H	-1.5132214396	-1.4740525817	-0.1358171245	 0.123216
H	-1.6993615597	-0.2423968708	 2.0937225922	 0.167538
H	-2.3817529615	 1.1374419655	 1.239798875	 0.153759
H	 1.7157681327	-1.4078054576	-2.9896491657	 0.205351
59.941	90.6946	107.0272	179.2514	189.3584	240.5751	247.7589	312.9494	352.5089	397.6869	403.4267	444.0951	498.4308	565.9288	597.1962	641.0872	674.9062	756.4993	769.0207	915.5414	939.3246	963.3629	982.6735	1036.2498	1100.7231	1156.4866	1181.6051	1217.2627	1279.5871	1310.4074	1364.3019	1386.655	1412.9379	1469.882	1481.95	1488.3138	1500.2586	2232.5205	2362.4066	3050.6389	3057.0329	3060.5074	3090.3029	3109.7827	3133.6526	3142.6635	3498.5378	3807.6627
CC(O)(CCC#N)C#C	C[C@@](O)(CCC#N)C#C	
InChI=1S/C7H9NO/c1-3-7(2,9)5-4-6-8/h1,9H,4-5H2,2H3	InChI=1S/C7H9NO/c1-3-7(2,9)5-4-6-8/h1,9H,4-5H2,2H3/t7-/m0/s1
