19
gdb 96759	2.41126	1.51403	1.07156	2.4645	79.72	-0.2094	0.0131	0.2225	1177.0796	0.157014	-419.150135	-419.140485	-419.139541	-419.184562	35.075	
C	 0.0883486544	 1.3576814364	-0.0154855208	-0.335721
N	-0.0324219217	-0.0886931622	 0.093195337	-0.342416
C	-1.1210884656	-0.6713428356	-0.1506322229	 0.320204
N	-2.4719724488	-0.2952865741	-0.4568323926	-0.146088
C	-3.125436875	 0.8011187031	 0.243025363	-0.337078
C	-2.9242917398	-1.6833810342	-0.128735373	-0.098721
C	-2.3252922902	-2.6073309372	-1.1480493526	-0.326194
C	-1.457721261	-2.1286978925	-0.0127312328	 0.313516
O	-0.7607039943	-3.0107467688	 0.7730121792	-0.446222
H	 1.1294059681	 1.6050188985	-0.2430261913	 0.12707
H	-0.5437699191	 1.7927567395	-0.8002328974	 0.120707
H	-0.1573845685	 1.847227812	 0.9354412681	 0.123158
H	-2.6872819378	 1.7546205537	-0.0560611923	 0.133736
H	-4.1824651749	 0.815967381	-0.0390212816	 0.130171
H	-3.0627065668	 0.719880613	 1.3408504783	 0.107644
H	-3.8018368616	-1.8608839744	 0.4778035425	 0.11273
H	-2.5995778833	-3.6528696111	-1.0340209507	 0.127301
H	-2.1752838346	-2.2687956154	-2.1700446719	 0.119433
H	-0.2611746296	-2.4826305718	 1.4084970318	 0.296768
72.9589	116.4617	140.4202	161.6747	210.5547	238.2249	256.7411	311.6787	332.6324	403.4094	449.2262	515.4964	591.6533	719.0711	742.0268	806.2113	881.1711	895.0796	913.2962	981.1097	1003.7439	1023.0472	1068.5058	1101.0071	1119.8464	1148.1198	1165.8237	1171.5513	1195.0539	1234.4751	1314.0683	1378.7946	1418.8397	1435.2603	1455.6926	1485.4805	1492.1083	1497.2978	1503.1373	1513.6613	1813.704	2966.6838	3004.5009	3063.8649	3079.6865	3091.2202	3106.6167	3132.9259	3201.3281	3213.4819	3782.4052
CN=C1N(C)C2CC12O	CN=C1N(C)[C@H]2C[C@@]12O	
InChI=1S/C6H10N2O/c1-7-5-6(9)3-4(6)8(5)2/h4,9H,3H2,1-2H3	InChI=1S/C6H10N2O/c1-7-5-6(9)3-4(6)8(5)2/h4,9H,3H2,1-2H3/t4-,6-/m0/s1
