15
gdb 23890	3.26476	1.40623	1.23002	1.7687	50.22	-0.2903	0.0696	0.3599	999.7396	0.113789	-531.315374	-531.306787	-531.305843	-531.348852	30.454	
C	-0.0139108199	 1.5867498771	 0.0589732808	-0.389856
C	-0.0283264757	 0.0580803793	-0.0031189502	-0.202718
C	 0.7212508568	-0.4775973346	-1.2286543847	-0.011739
O	 2.0726522822	-0.0673378633	-1.2790808141	-0.423113
C	 0.6622594077	-2.0055102199	-1.3049750116	 0.272151
F	-0.5974173777	-2.4596272061	-1.233293672	-0.077274
F	 1.1984077791	-2.4684181798	-2.4364013076	-0.066446
F	 1.3517697456	-2.5497065634	-0.2797829889	-0.099484
H	 1.0111218179	 1.9656073239	 0.0515725344	 0.132364
H	-0.5358373417	 2.0209239055	-0.8006676044	 0.119726
H	-0.5084116378	 1.9441088593	 0.9663567984	 0.117779
H	 0.4341932155	-0.3648057011	 0.8982503623	 0.104011
H	-1.0565939947	-0.3167456281	-0.0283737477	 0.118118
H	 0.2592805747	-0.0990043566	-2.1472414937	 0.116544
H	 2.5225558181	-0.4547360121	-0.5184933613	 0.289936
76.6758	89.8747	171.191	210.7145	249.9257	302.254	337.7821	357.4673	413.4049	483.2231	557.9054	574.2294	695.3308	781.4819	835.653	922.9566	997.6521	1062.1306	1110.9136	1133.9224	1171.6276	1220.3431	1261.8323	1273.1918	1332.1016	1344.3716	1390.9101	1409.2833	1434.974	1487.6196	1496.7763	1509.2524	3028.9903	3042.0126	3065.6028	3083.7995	3109.4877	3127.398	3793.3927
CCC(O)C(F)(F)F	CC[C@@H](O)C(F)(F)F	
InChI=1S/C4H7F3O/c1-2-3(8)4(5,6)7/h3,8H,2H2,1H3	InChI=1S/C4H7F3O/c1-2-3(8)4(5,6)7/h3,8H,2H2,1H3/t3-/m1/s1
