19
gdb 10533	2.80733	1.39729	1.09033	2.1791	67.2	-0.2482	0.0634	0.3116	1128.2916	0.165155	-402.159601	-402.150527	-402.149583	-402.19363	32.906	
O	-1.5869597181	 1.7002906696	 0.6695370205	-0.41539
C	-1.009465454	 0.4235417958	 0.4351553901	-0.07236
C	-2.0805927184	-0.6752422607	 0.3544032993	-0.299813
C	-1.5571595706	-2.0505277159	-0.0234875061	 0.310246
C	-0.5805990014	-2.7144249094	 0.936020194	-0.113278
O	 0.7145728991	-2.1469124927	 0.8387254001	-0.41495
C	-2.3880456627	-2.9179952752	-0.8978286882	-0.287401
N	-1.1599406338	-2.2959032187	-1.4300942193	-0.359783
H	-1.9259553066	 1.7086510682	 1.5700632812	 0.280904
H	-0.4894095867	 0.5069504519	-0.5255341431	 0.105442
H	-0.2496596721	 0.1713743612	 1.1841594662	 0.118586
H	-2.5958179561	-0.7425796834	 1.3235985316	 0.092544
H	-2.8354187703	-0.3556532513	-0.3746660679	 0.099521
H	-0.904281149	-2.578463684	 1.9735557468	 0.10405
H	-0.5507113081	-3.7950222451	 0.7332375962	 0.092148
H	 0.9475443849	-2.2053765225	-0.096698389	 0.291935
H	-2.3448857161	-3.999028499	-0.795943983	 0.119273
H	-3.3481936799	-2.5345928296	-1.2329035403	 0.114369
H	-1.40623104	-1.4938340092	-2.0055088991	 0.233955
73.1015	101.1638	108.2199	161.5096	259.1229	283.4701	315.5898	358.6264	373.3959	467.6556	490.9561	559.3826	752.7657	787.407	897.1316	909.6658	929.3889	966.4033	990.4852	1027.7993	1058.1111	1070.1246	1072.3376	1093.501	1143.1724	1160.0779	1206.6659	1261.4738	1290.9026	1312.2026	1353.7524	1367.1052	1398.3134	1409.5956	1421.5309	1434.0315	1476.5541	1498.7735	1511.8059	1514.1272	2994.7193	3004.1646	3035.5854	3049.304	3072.5944	3084.1089	3107.4679	3191.8591	3493.1555	3775.8023	3818.4756
OCCC1(CO)CN1	OCC[C@@]1(CO)CN1	
InChI=1S/C5H11NO2/c7-2-1-5(4-8)3-6-5/h6-8H,1-4H2	InChI=1S/C5H11NO2/c7-2-1-5(4-8)3-6-5/h6-8H,1-4H2/t5-/m0/s1
