16
gdb 75726	2.24819	1.58862	1.45015	3.4049	64.8	-0.2273	-0.0343	0.193	986.6879	0.123053	-474.975252	-474.966856	-474.965912	-475.008351	31.567	
O	 0.3168773947	 1.2242208054	-0.3963141878	-0.418114
C	 0.0415385511	-0.1060224559	-0.0628966289	-0.064603
C	 0.1779153237	-0.5586177781	 1.4290942629	 0.415138
O	 1.0870319325	-0.5748806521	 2.2039378291	-0.301709
C	-1.3159073778	-0.9014961999	 1.4854895985	-0.202688
N	-1.9818695513	 0.4300204782	 1.6813974911	-0.337985
C	-2.4954612646	 0.4468579548	 0.2883863275	-0.238179
C	-1.4494027025	-0.6303162367	-0.0503638076	 0.371352
O	-1.7541724861	-1.6653465769	-0.9274415523	-0.479014
H	-0.0012742426	 1.774970586	 0.3288087422	 0.300725
H	 0.6459248416	-0.7474664672	-0.7163598578	 0.116952
H	-1.7233565047	-1.7661370582	 2.0108967251	 0.094504
H	-2.6686756368	 0.4595148227	 2.4238663913	 0.239287
H	-3.5105061888	 0.0456927412	 0.1745645757	 0.108808
H	-2.4199868596	 1.4159282102	-0.2161741476	 0.106554
H	-1.5567882289	-1.3759962435	-1.8255044314	 0.288971
52.6451	178.7178	210.4936	241.813	250.1823	313.7505	343.2882	411.8699	445.1913	513.8203	594.9292	626.4392	647.7143	707.4434	830.8622	871.3297	926.697	965.3497	1006.5182	1026.6961	1069.7763	1103.4013	1124.8786	1127.4728	1169.7146	1202.0999	1210.42	1250.8642	1286.2854	1316.2068	1362.4038	1394.7941	1411.4311	1512.258	1898.6245	3019.0571	3045.1197	3075.6264	3109.6764	3565.7863	3796.0096	3796.4904
OC1C(=O)C2NCC12O	O[C@H]1C(=O)[C@H]2NC[C@@]12O	
InChI=1S/C5H7NO3/c7-2-3-5(9,1-6-3)4(2)8/h3-4,6,8-9H,1H2	InChI=1S/C5H7NO3/c7-2-3-5(9,1-6-3)4(2)8/h3-4,6,8-9H,1H2/t3-,4+,5+/m1/s1
