18
gdb 121527	2.8159	0.98014	0.7516	7.8809	77.22	-0.2538	-0.0174	0.2364	1473.3073	0.147729	-439.086971	-439.077398	-439.076454	-439.12211	33.98	
N	 0.9171800642	 0.2097199659	 2.2357588777	-0.495619
H	 1.3787958102	-0.4869644703	 3.9431969924	 0.322733
H	 1.7230154922	 0.7719636403	 1.9709373066	 0.243514
H	 1.0000288005	-0.6527876102	 1.7023539769	 0.248822
C	-0.3198722656	 0.9092801621	 1.8176512081	-0.151037
C	-0.4532802462	 2.3234065006	 2.4104146492	-0.180565
C	-1.0959617307	 2.4059224232	 3.8171307522	-0.355786
C	-0.3923382128	 1.5717437427	 4.7760309877	 0.114181
C	 0.2691631103	 0.7888388013	 5.4088457504	-0.076097
C	 1.1680418941	-0.2698235841	 5.8396108537	 0.317935
O	 1.4144578632	-0.571752118	 6.9766931717	-0.3294
O	 1.7134769724	-0.8973224276	 4.7820155878	-0.386543
H	-0.3725102426	 0.9923453722	 0.7223409117	 0.100585
H	-1.1708900298	 0.2921862378	 2.1279364233	 0.123114
H	 0.5344544027	 2.7993695393	 2.4370958588	 0.112577
H	-1.0675545421	 2.9250323769	 1.7317770067	 0.111605
H	-1.1178342081	 3.4513240184	 4.1477527084	 0.13916
H	-2.1444568419	 2.0846314393	 3.7581597267	 0.140821
58.4375	91.953	123.4814	155.9075	193.7271	201.7426	304.0035	317.1493	371.0942	435.6508	473.7804	541.9645	622.8294	751.8843	764.1047	819.5393	845.8651	878.1455	917.3708	978.8615	1009.7534	1064.8897	1085.1082	1110.8603	1155.9323	1241.8935	1254.69	1275.9662	1328.9815	1357.0888	1381.2398	1431.4605	1454.4602	1468.3615	1479.089	1508.862	1649.7858	1844.8634	2350.1508	2989.9396	3022.0392	3033.4828	3057.1151	3063.3889	3080.8561	3275.7122	3474.4753	3547.7152
[NH3+]CCCC#CC([O-])=O	NCCCC#CC(=O)O	
InChI=1S/C6H9NO2/c7-5-3-1-2-4-6(8)9/h1,3,5,7H2,(H,8,9)	InChI=1S/C6H9NO2/c7-5-3-1-2-4-6(8)9/h1,3,5,7H2,(H,8,9)
