18
gdb 47846	2.48484	1.54776	1.09861	2.5239	75.42	-0.2346	-0.0153	0.2193	1106.5598	0.149867	-439.106969	-439.098994	-439.09805	-439.139771	30.553	
O	-0.0232051011	-0.1607443091	-0.0752877786	-0.358863
C	-0.0084443697	 1.0536864339	-0.0239618393	 0.369021
C	-1.3421248969	 1.8059278849	 0.0106818443	-0.307737
C	-1.4491548298	 3.3320937139	-0.0515853471	-0.092733
O	-1.263174209	 3.9904474936	 1.1861203612	-0.245953
C	-0.0225476811	 3.6971763027	 1.8259094291	-0.145033
C	 1.1726409807	 3.9185424618	 0.9497928171	-0.097848
C	 1.673530123	 3.0031880631	 0.1155937267	 0.009196
N	 1.2200155362	 1.6979153898	-0.1052153575	-0.319162
H	-1.8766028741	 1.3946414266	-0.8534350315	 0.142243
H	-1.8844647464	 1.4343473493	 0.8871970157	 0.147498
H	-0.7764497929	 3.7330559379	-0.8223976225	 0.100813
H	-2.470878185	 3.5883589634	-0.3477813587	 0.113886
H	 0.0083289406	 4.3556921587	 2.6975516689	 0.115145
H	-0.0221226217	 2.6598229728	 2.1960786165	 0.101734
H	 1.6355616715	 4.899453658	 0.9472751373	 0.099855
H	 2.5611956331	 3.2321072778	-0.4688080671	 0.113653
H	 1.9400749029	 1.0171443112	-0.3116230544	 0.254285
63.1693	129.9487	246.9892	266.8542	285.1269	330.5513	435.5803	497.4524	523.1315	566.4738	609.3599	680.9229	714.9373	777.8688	796.1484	855.8191	938.5675	954.374	969.7094	1008.1015	1067.352	1091.3542	1126.01	1132.271	1237.4004	1253.6567	1294.0575	1316.6187	1341.0811	1365.5694	1394.3039	1419.9376	1438.7247	1449.3232	1488.7658	1498.2364	1505.2841	1719.4063	1769.4065	2980.6589	3011.3701	3048.0355	3081.4561	3086.7491	3093.1472	3155.681	3191.5543	3575.4081
O=C1CCOCC=CN1	O=C1CCOCC=CN1	
InChI=1S/C6H9NO2/c8-6-2-5-9-4-1-3-7-6/h1,3H,2,4-5H2,(H,7,8)/b3-1-	InChI=1S/C6H9NO2/c8-6-2-5-9-4-1-3-7-6/h1,3H,2,4-5H2,(H,7,8)/b3-1-
