22
gdb 88163	2.30617	1.43104	1.0847	1.8246	81.78	-0.2327	0.0716	0.3043	1223.9633	0.195324	-404.342399	-404.333312	-404.332368	-404.376218	35.294	
C	-0.2256510022	 1.5504947975	 0.2416757292	-0.396314
C	-0.1566708814	 0.0434108569	 0.2751393261	-0.056219
N	 1.0584616403	-0.5836713452	-0.279845938	-0.392788
C	 0.7767818829	-0.7104618266	 1.1581143312	 0.314225
C	 1.7189327494	-0.0410011944	 2.1660556489	-0.277362
C	 1.9017000222	-1.0800683868	 3.298708179	-0.219571
C	 0.6170359767	-1.9215588058	 3.246937636	-0.24142
C	 0.370931288	-2.0785851197	 1.7400166359	 0.059603
O	-0.9102978439	-2.5493982856	 1.3667187321	-0.43124
H	 0.7555785319	 1.992580838	 0.4306412785	 0.12765
H	-0.5649101631	 1.8974907392	-0.7401858191	 0.120516
H	-0.9283623559	 1.9306232945	 0.9921841056	 0.108198
H	-1.0934850753	-0.4634676061	 0.0496524827	 0.079589
H	 0.8044352885	-1.4513101459	-0.7504554793	 0.228051
H	 2.6622212507	 0.245969706	 1.6957188708	 0.112602
H	 1.2655695674	 0.8736131501	 2.5648405785	 0.100532
H	 2.7665803262	-1.7203256337	 3.0895318841	 0.105509
H	 2.073636236	-0.6186081589	 4.274326725	 0.098647
H	 0.689674936	-2.8805771929	 3.7659020577	 0.102527
H	-0.2206234056	-1.3643826857	 3.6912907722	 0.087162
H	 1.0611701726	-2.8374183186	 1.3459008512	 0.093215
H	-1.5634091213	-1.9613981562	 1.7624693017	 0.276888
49.2065	162.2959	181.8335	209.1338	213.516	279.7233	350.0165	388.4219	445.937	477.6175	506.0767	552.7932	560.8322	690.2275	781.8731	837.2025	862.7332	916.4588	920.4141	934.575	1003.0824	1015.0456	1040.7626	1051.2593	1073.3971	1093.8336	1122.9962	1137.9557	1153.4888	1193.1116	1237.4476	1248.4579	1264.7802	1299.4832	1305.1927	1322.7293	1340.4455	1344.6948	1361.9169	1407.6695	1432.6918	1459.3507	1486.3696	1489.523	1490.5771	1500.0191	1508.378	3004.2917	3018.3644	3031.7387	3038.7691	3041.9443	3091.7273	3092.7599	3098.5052	3104.1938	3112.71	3130.6565	3466.7848	3799.2564
CC1NC11CCCC1O	C[C@H]1N[C@]21CCC[C@H]2O	
InChI=1S/C7H13NO/c1-5-7(8-5)4-2-3-6(7)9/h5-6,8-9H,2-4H2,1H3	InChI=1S/C7H13NO/c1-5-7(8-5)4-2-3-6(7)9/h5-6,8-9H,2-4H2,1H3/t5-,6-,7+/m1/s1
