18
gdb 55775	3.67521	1.10551	0.94389	5.5089	72.69	-0.2494	0.0226	0.272	1239.4092	0.14898	-439.079629	-439.071679	-439.070735	-439.112721	30.345	
O	 0.0190379397	 0.3436466763	 1.1339529462	-0.374855
C	-0.0173505623	 1.3042805729	 0.1913133925	 0.399221
O	 0.9622647885	 1.6210049033	-0.4257826742	-0.321635
C	-1.3828969372	 1.9835285565	 0.0244298397	-0.437869
C	-2.5405692666	 1.0201792714	-0.096868745	 0.369569
C	-3.3859216333	 0.7756357697	-1.3107619726	-0.322076
C	-4.047076612	 1.237747429	-0.0304110937	-0.132851
C	-4.1195184743	 0.0861974203	 0.9689176935	-0.178686
N	-2.6348013602	-0.1122568377	 0.8594792232	-0.384775
H	-2.3849349847	-1.0016214469	 0.4299700369	 0.234384
H	-0.8920795478	 0.1761327837	 1.4650214867	 0.305347
H	-1.5244054306	 2.6114624007	 0.9147555642	 0.133392
H	-1.322035561	 2.6423873117	-0.842176694	 0.135743
H	-3.3202107037	 1.5328426645	-2.0858060549	 0.126898
H	-3.5417819377	-0.2357281286	-1.682027928	 0.108427
H	-4.5960049628	 2.1680540622	 0.0339530584	 0.105288
H	-4.3967477661	 0.390338029	 1.9818588745	 0.124298
H	-4.7212240578	-0.7828487879	 0.6792572867	 0.110179
65.4311	90.136	202.3604	240.5169	325.1589	388.4245	405.9384	447.099	565.9797	646.6398	720.1365	765.2788	820.2927	837.8226	885.3894	892.054	920.296	947.9916	962.4317	999.4132	1017.9882	1026.2597	1038.7242	1084.5483	1104.9542	1163.2458	1192.1571	1247.1425	1260.2499	1275.6141	1306.9365	1332.0888	1362.1549	1401.8298	1441.4497	1469.1628	1487.6959	1511.7886	1868.8671	3021.9813	3035.7177	3092.2097	3101.5034	3131.112	3196.6895	3205.6087	3420.8898	3467.2298
[O-]C(=O)CC12CC1C[NH2+]2	OC(=O)C[C@]12C[C@H]1CN2	
InChI=1S/C6H9NO2/c8-5(9)2-6-1-4(6)3-7-6/h4,7H,1-3H2,(H,8,9)	InChI=1S/C6H9NO2/c8-5(9)2-6-1-4(6)3-7-6/h4,7H,1-3H2,(H,8,9)/t4-,6+/m0/s1
