19
gdb 47819	2.39482	1.70247	1.25055	3.3195	75.44	-0.2322	0.0217	0.2539	1053.7106	0.16333	-419.220415	-419.212614	-419.21167	-419.25266	30.596	
O	 0.1203393713	-0.002396143	 0.0219620236	-0.382822
C	 0.0051704675	 1.211397169	 0.087640273	 0.398654
N	-1.2160624064	 1.8190002625	 0.0065529792	-0.322953
C	-1.5458783135	 3.2149216748	 0.2854053639	-0.159536
C	-1.0378558255	 4.2240884474	-0.7699522117	-0.186285
C	 0.2579397862	 3.8435408337	-1.5110844835	-0.220362
C	 1.395630335	 3.3141132377	-0.6515613963	-0.022042
N	 1.2626773242	 3.3905163383	 0.8054866791	-0.347494
C	 1.2470643828	 2.0627533411	 0.1517985067	-0.110273
H	-1.9711029761	 1.1522602519	-0.049125243	 0.244543
H	-2.6367631605	 3.2694535102	 0.3382377005	 0.101808
H	-1.1566880181	 3.4935219301	 1.2650412261	 0.142905
H	-1.8095254668	 4.3855793218	-1.5311225889	 0.097555
H	-0.8966501571	 5.1826622476	-0.2598996253	 0.108456
H	 0.0347123449	 3.0884384264	-2.2746245987	 0.117975
H	 0.6070524406	 4.7276497643	-2.0567610675	 0.102212
H	 2.3882069308	 3.4699133924	-1.0699888867	 0.09348
H	 2.1649676206	 3.5332606925	 1.2498841274	 0.239332
H	 2.1228035098	 1.4311095413	 0.2601935222	 0.104845
98.1382	136.6752	251.8844	259.4686	301.2234	361.0697	434.4305	474.7733	552.7065	597.7384	693.9075	726.0158	742.175	779.0217	829.2257	856.2427	901.9094	930.7327	975.5715	998.8234	1049.4718	1082.8022	1112.8002	1141.7668	1163.9629	1199.4288	1231.2399	1261.0569	1282.506	1315.1771	1349.8437	1374.7703	1396.1502	1410.0336	1422.6502	1454.7203	1463.1031	1485.2817	1496.8496	1506.0091	1768.7486	3028.6188	3038.8899	3059.7501	3067.369	3080.725	3122.4538	3123.0451	3169.1887	3512.9621	3620.389
O=C1NCCCC2NC12	O=C1NCCC[C@H]2N[C@@H]12	
InChI=1S/C6H10N2O/c9-6-5-4(8-5)2-1-3-7-6/h4-5,8H,1-3H2,(H,7,9)	InChI=1S/C6H10N2O/c9-6-5-4(8-5)2-1-3-7-6/h4-5,8H,1-3H2,(H,7,9)/t4-,5-/m1/s1
