19
gdb 38920	3.09182	1.6729	1.21199	2.0922	81.76	-0.2227	0.0047	0.2274	1037.67	0.161395	-385.872086	-385.86502	-385.864076	-385.903272	29.219	
C	-0.0090861773	 1.574736218	-0.0691781494	-0.281038
C	 1.5221601063	 1.565379575	 0.0755510824	-0.070668
O	 2.0647094914	 0.7855714499	-0.9983118964	-0.315373
C	 1.5479170152	 0.0834965571	 0.1386802616	 0.484054
C	 2.3084164087	-0.9263487919	 0.8682381504	-0.184661
C	 1.6493080069	-1.8977216808	 1.509367667	-0.066798
C	 0.1385330334	-1.991965177	 1.5481046093	-0.26828
C	-0.5547493965	-0.6421747328	 1.2663024746	-0.229943
C	 0.0220291693	 0.0061034679	 0.0068166538	-0.066548
H	-0.5199892788	 2.0270465012	 0.785173387	 0.104461
H	-0.3832716698	 2.0182881808	-0.9950952172	 0.109357
H	 2.1763041149	 2.3063393711	 0.5216107008	 0.101016
H	 3.3922839863	-0.8675692262	 0.8643485692	 0.09782
H	 2.2059148755	-2.6661587842	 2.039439572	 0.094225
H	-0.1963089784	-2.7482214615	 0.8224349044	 0.115218
H	-0.1766845596	-2.3710970379	 2.5275669515	 0.105227
H	-1.6390973801	-0.7746731572	 1.1855512344	 0.096986
H	-0.3785822563	 0.0197775881	 2.1239319958	 0.099713
H	-0.3120945512	-0.5122075595	-0.8972801713	 0.075234
137.3259	195.4464	267.155	366.2813	413.578	448.4989	480.1167	509.529	622.4237	704.671	743.9699	760.847	818.7385	862.9304	866.9516	883.4496	943.8051	952.254	990.6261	997.7078	1012.4206	1015.0523	1060.6545	1099.5665	1133.0499	1145.7552	1208.3822	1223.3821	1228.8407	1247.6737	1266.4039	1288.7092	1332.222	1356.9402	1367.6621	1382.6306	1462.2802	1474.0275	1481.0132	1491.3979	1693.924	2999.6201	3022.5785	3049.6714	3055.6226	3061.6254	3075.6389	3117.331	3158.2519	3180.0112	3185.3725
C1C2OC22C=CCCC12	C1[C@@H]2O[C@]32C=CCC[C@@H]13	
InChI=1S/C8H10O/c1-2-4-8-6(3-1)5-7(8)9-8/h2,4,6-7H,1,3,5H2	InChI=1S/C8H10O/c1-2-4-8-6(3-1)5-7(8)9-8/h2,4,6-7H,1,3,5H2/t6-,7-,8+/m0/s1
