18
gdb 39791	3.44294	1.43462	1.16986	2.7313	77.19	-0.2337	0.0747	0.3085	1075.4192	0.147294	-401.810656	-401.80321	-401.802266	-401.842275	30.11	
C	-0.0332319313	 1.5272116877	 0.0079085049	-0.366448
C	 1.328512508	 0.8344678434	-0.0232162559	-0.355106
C	 0.0649617339	 0.0474163016	-0.0041455884	 0.50354
C	-0.5342120232	-1.0322860867	 0.9097831405	-0.202226
O	-1.7305177068	-1.0487778807	 0.0263754877	-0.304778
C	-0.5682542616	-1.0219067937	-0.9068469497	-0.188272
C	 0.0914603939	-2.090457697	-0.0174049208	 0.504655
C	 1.3132670643	-2.9042422425	 0.0000366593	-0.339472
N	-0.0453277033	-3.5177801456	-0.0805623921	-0.396812
H	-0.3303371086	 2.0196822621	 0.9280333517	 0.11903
H	-0.3672568943	 2.0313737939	-0.8929985356	 0.120472
H	 1.8998663926	 0.8780617651	-0.9449365169	 0.117985
H	 1.9349975732	 0.8674211117	 0.8763098207	 0.115846
H	-0.6936687155	-1.0345074519	 1.9888126154	 0.094954
H	-0.7714735908	-1.018603994	-1.9768566456	 0.102446
H	 1.9176688769	-3.0286706418	-0.8941869763	 0.123856
H	 1.8658945907	-2.9799022565	 0.9337141373	 0.114373
H	-0.3248767381	-3.9069222151	 0.8164312038	 0.235958
127.0261	210.5412	221.3497	267.5229	313.9462	376.1867	474.3142	519.4282	655.2083	732.7657	739.688	757.5202	776.7958	857.4856	872.754	904.1373	917.1445	920.6625	962.452	968.7251	1015.2721	1048.3184	1056.8918	1078.1808	1099.0184	1118.482	1133.4632	1136.8766	1177.9911	1178.7869	1194.6517	1233.4405	1247.1261	1252.6517	1418.494	1452.6866	1461.0409	1515.5869	1539.1035	3104.5546	3114.5415	3124.7692	3130.0178	3136.179	3188.5785	3202.6933	3216.9793	3502.4913
C1CC11C2OC1C21CN1	C1CC21[C@H]1O[C@@H]2[C@]21CN2	
InChI=1S/C7H9NO/c1-2-6(1)4-7(3-8-7)5(6)9-4/h4-5,8H,1-3H2	InChI=1S/C7H9NO/c1-2-6(1)4-7(3-8-7)5(6)9-4/h4-5,8H,1-3H2/t4-,5+,7-
