16
gdb 20893	5.59032	1.31015	1.15318	4.1532	68.15	-0.2068	0.0087	0.2155	1051.4418	0.132117	-376.104778	-376.096919	-376.095974	-376.13749	28.454	
C	-0.3714558387	 1.4599893683	 0.2386129236	-0.377473
C	 0.2571207779	 0.0991342714	-0.0653555012	-0.142879
N	 0.7995973223	-0.5495058814	 1.118216243	 0.091142
C	 0.1364520976	-1.1782053447	 2.1286361519	-0.184536
C	 1.1376820012	-1.5419123423	 3.0057690292	 0.319987
N	 1.0771214957	-2.2769502743	 4.1885511386	-0.592325
N	 2.3279445885	-1.1256354312	 2.4965226095	-0.25673
N	 2.1157226403	-0.5278048976	 1.3501630831	-0.153979
H	 0.3680964803	 2.1326099481	 0.6809690594	 0.144511
H	-0.7444589797	 1.9125839121	-0.6849391424	 0.125986
H	-1.210601814	 1.3645297371	 0.9338585816	 0.125746
H	-0.4738604208	-0.5757454373	-0.5223065449	 0.123764
H	 1.0974406734	 0.2038755738	-0.7545127859	 0.147019
H	-0.9307231597	-1.3174271415	 2.1282503313	 0.129637
H	 0.3129576781	-2.0114563144	 4.7949931078	 0.245761
H	 1.9565543275	-2.2173562662	 4.6866903554	 0.254369
47.6015	113.265	211.1578	226.6728	292.7949	310.0793	429.3357	441.5387	609.8764	668.9749	699.4738	718.8934	757.6065	792.4648	798.2897	972.1526	1047.2244	1051.4281	1096.1896	1102.5275	1117.6859	1181.7804	1263.4085	1281.3026	1375.3997	1389.4047	1405.6919	1412.4185	1477.7282	1490.81	1502.1294	1505.5246	1616.3201	1649.944	3045.5974	3057.7185	3111.0207	3123.6603	3135.5417	3283.9697	3542.1526	3635.8711
CCN1C=C(N)N=N1	CCn1cc(N)nn1	
InChI=1S/C4H8N4/c1-2-8-3-4(5)6-7-8/h3H,2,5H2,1H3	InChI=1S/C4H8N4/c1-2-8-3-4(5)6-7-8/h3H,2,5H2,1H3
