15
gdb 8856	3.97423	1.22733	1.02778	3.7768	62.62	-0.2861	-0.0869	0.1992	1104.2885	0.116317	-399.814633	-399.805535	-399.80459	-399.848943	30.871	
C	-0.2404785408	 1.4109613445	 0.1276546528	-0.413765
C	 0.0629261237	-0.091716574	-0.0467294754	-0.09232
C	 0.8332440025	-0.3881802688	-1.3339007313	-0.088173
O	 0.0027736652	 0.0122568033	-2.410907031	-0.424344
C	 0.8099547718	-0.6289330968	 1.1529795301	 0.289197
O	 1.9217732984	-1.0954374249	 1.1349610385	-0.275114
C	 0.0707403458	-0.5483925003	 2.4369471704	 0.241448
N	-0.5131219841	-0.4936101994	 3.4335536472	-0.30321
H	 0.6870510868	 1.9865309567	 0.212375175	 0.130477
H	-0.785168516	 1.7617753248	-0.7499516308	 0.157337
H	-0.8467271643	 1.5979622275	 1.0176224198	 0.143756
H	-0.8985568476	-0.6238550081	-0.0884351655	 0.126727
H	 1.7862680793	 0.1608702843	-1.3253277956	 0.106292
H	 1.0743363878	-1.4592324252	-1.3822842424	 0.107185
H	 0.4833445114	-0.1292992136	-3.231404382	 0.294508
45.8726	103.7157	130.6873	202.4867	226.129	240.7175	251.1243	303.077	362.23	405.2442	478.8022	614.3827	723.6481	798.1509	873.5704	934.5113	1024.9039	1066.5641	1096.5306	1119.5997	1169.3555	1252.396	1265.6999	1318.6915	1343.7235	1404.4286	1461.9625	1494.0663	1505.3843	1518.3123	1790.0683	2336.5612	2993.0808	3013.1298	3032.3919	3047.8725	3120.1861	3149.2801	3838.7136
CC(CO)C(=O)C#N	C[C@@H](CO)C(=O)C#N	
InChI=1S/C5H7NO2/c1-4(3-7)5(8)2-6/h4,7H,3H2,1H3	InChI=1S/C5H7NO2/c1-4(3-7)5(8)2-6/h4,7H,3H2,1H3/t4-/m0/s1
