22
gdb 112660	2.4546	1.22393	1.0165	3.0477	83.28	-0.2506	0.0321	0.2827	1314.5025	0.194712	-404.388394	-404.378814	-404.37787	-404.423387	35.557	
C	 0.0866462699	 1.2668691876	 0.4694408971	-0.383842
C	-0.1531427588	-0.2327442728	 0.2816159438	-0.186102
C	-1.541047617	-0.5578747647	-0.2715573498	 0.118661
C	-1.8449680077	-2.0660233316	-0.4135160924	-0.272795
C	-2.7549683646	-2.3989728494	 0.7872113104	-0.067767
C	-2.0733027336	-3.1747790786	 1.924060654	-0.398222
C	-3.2312756946	-1.0357778307	 1.2583736688	 0.399324
N	-4.1259636576	-0.8478123751	 2.1306699513	-0.543644
O	-2.5578705097	-0.0406674277	 0.6160893797	-0.245173
H	 1.0847606564	 1.457910585	 0.8741175346	 0.113912
H	 0.003977254	 1.8016881618	-0.4833862028	 0.114593
H	-0.6490447358	 1.6929221804	 1.1563522583	 0.135536
H	 0.5873339104	-0.6500031364	-0.4128345168	 0.100251
H	-0.0169199924	-0.7586226558	 1.2350977439	 0.105977
H	-1.6773220146	-0.0309155607	-1.222764513	 0.085951
H	-2.3631369148	-2.2583417397	-1.3563420235	 0.110987
H	-0.9266166502	-2.658784996	-0.4175721893	 0.10793
H	-3.6317733913	-2.9678669336	 0.4670522277	 0.107342
H	-1.1800213828	-2.6550277943	 2.2861053328	 0.119953
H	-2.7625665263	-3.2853644654	 2.7645084326	 0.145813
H	-1.770135953	-4.1696171907	 1.5829895193	 0.113691
H	-4.2625422758	 0.1505519282	 2.2970259133	 0.217627
51.8474	71.3712	112.704	207.3744	232.6702	240.2698	259.0468	342.9247	374.2453	427.3127	486.3108	642.9002	669.7937	721.9478	759.9566	806.8106	829.7541	885.2351	903.683	938.0698	964.0987	1014.8074	1042.7689	1044.6959	1067.6043	1094.7516	1124.712	1137.5408	1173.7406	1242.1583	1258.2058	1282.8408	1304.7553	1325.5292	1337.1636	1346.2605	1393.1927	1403.3741	1410.234	1417.3016	1475.9905	1493.0831	1497.633	1499.7264	1501.3936	1508.8457	1766.8041	3022.4201	3036.0135	3036.7489	3038.3143	3059.681	3065.5965	3073.4323	3104.1055	3104.7561	3108.1475	3124.8605	3128.7937	3472.2422
CCC1CC(C)C(=N)O1	CC[C@H]1C[C@@H](C)[C]([NH])O1	
InChI=1S/C7H13NO/c1-3-6-4-5(2)7(8)9-6/h5-6,8H,3-4H2,1-2H3	InChI=1S/C7H13NO/c1-3-6-4-5(2)7(8)9-6/h5-6,8H,3-4H2,1-2H3/t5-,6+/m1/s1
