15
gdb 129762	3.56393	1.60523	1.2372	4.4422	72.8	-0.2068	-0.0117	0.1951	977.9277	0.115114	-412.908645	-412.901801	-412.900857	-412.939802	26.924	
N	-0.0669109997	 1.3903659336	-0.2132316242	-0.596186
C	-0.1135937578	 0.0123269954	-0.0480780635	 0.228203
C	-1.152402987	-0.8642600981	 0.189387481	 0.154033
C	-2.5078819923	-1.4927945901	-0.0838731479	-0.2092
C	-2.3961934518	-2.2893150072	-1.3765502847	-0.268607
C	-1.7732992924	-2.8355408128	-0.1186783364	-0.003837
N	-0.5431402545	-2.0865084791	 0.1993971606	 0.075918
N	 0.7616052446	-2.0279582374	-0.0878755305	-0.170421
N	 1.0356059383	-0.7418437819	-0.140522862	-0.244738
H	 0.8801854022	 1.7365939887	-0.1259761663	 0.257373
H	-0.6937992784	 1.8997853881	 0.3931984451	 0.251311
H	-3.4488772644	-1.2679474336	 0.3968175345	 0.117528
H	-3.2994790994	-2.8004450334	-1.7003547083	 0.129158
H	-1.760638782	-1.928474634	-2.178429397	 0.147189
H	-2.0034692354	-3.780647408	 0.3515155197	 0.132277
123.4409	210.5777	247.3788	298.0411	410.3398	486.4585	513.8282	652.6199	680.5986	702.5023	716.5924	750.0549	808.2882	822.5586	884.5537	929.2063	994.2582	1002.3432	1044.1208	1065.4149	1090.3341	1113.954	1166.3462	1201.924	1221.8317	1263.738	1287.4237	1311.8469	1356.8228	1428.4856	1473.4953	1628.8715	1659.9759	3121.3951	3213.1867	3220.1424	3230.5787	3548.9973	3646.8925
NC1=C2C3CC3N2N=N1	Nc1c2[C@H]3C[C@H]3n2nn1	
InChI=1S/C5H6N4/c6-5-4-2-1-3(2)9(4)8-7-5/h2-3H,1,6H2	InChI=1S/C5H6N4/c6-5-4-2-1-3(2)9(4)8-7-5/h2-3H,1,6H2/t2-,3+/m0/s1
