20
gdb 77251	2.77151	1.01186	0.92836	1.9125	78.34	-0.2493	0.0196	0.269	1366.6958	0.167651	-440.265467	-440.255057	-440.254113	-440.301053	37.422	
C	 0.2781532426	 1.4799718322	-0.2514034553	-0.425808
C	 0.2309904042	-0.014012421	-0.0205708716	-0.080918
C	 1.4875319159	-0.8757245772	-0.0367612438	 0.011147
O	 2.7526419886	-0.2648992499	-0.1317997852	-0.191105
C	 3.1856841636	 0.0119671016	-1.3826316833	 0.13566
N	 4.3225368546	 0.5316827179	-1.5509716562	-0.442189
C	 0.7244121014	-0.6680435107	 1.2468094615	 0.337073
C	 1.328805012	 0.1211758011	 2.3842153357	-0.454977
O	-0.0893692683	-1.7417015195	 1.6487587332	-0.464458
H	 1.2181020348	 1.9189566714	 0.0896755949	 0.140002
H	 0.1758370593	 1.7090696508	-1.3176186183	 0.119363
H	-0.540635518	 1.9814036854	 0.2746740147	 0.126333
H	-0.6370733877	-0.5158108622	-0.4396584173	 0.102539
H	 1.4324832072	-1.8607620998	-0.4942316844	 0.104433
H	 2.4632951447	-0.2628558835	-2.1625071787	 0.090092
H	 4.4954101428	 0.67205178	-2.5442425229	 0.229706
H	 1.9999737042	 0.9034623755	 2.0281570263	 0.144183
H	 0.5401126194	 0.5724546107	 2.9938814392	 0.126159
H	 1.9184427336	-0.5422711148	 3.0285417998	 0.113073
H	 0.458148975	-2.3524124078	 2.1562506717	 0.279693
59.8624	97.0474	117.7498	163.8842	178.2472	215.5152	229.2611	278.8177	294.5418	352.4459	401.9546	439.5997	499.8001	554.0887	675.0163	720.4371	800.709	826.9547	895.0452	964.8284	985.9687	1018.4005	1027.0088	1049.6188	1077.6596	1090.4004	1134.3636	1160.364	1175.4972	1240.3337	1273.5768	1299.6311	1337.2714	1352.1906	1412.1683	1415.9418	1423.144	1453.2156	1485.8519	1491.104	1503.6679	1516.7159	1745.1558	3032.6717	3033.3693	3038.8918	3094.1985	3095.8661	3125.2652	3132.2337	3147.6537	3153.1579	3517.7874	3783.938
CC1C(OC=N)C1(C)O	C[C@H]1[C@@H](O[CH][NH])[C@]1(C)O	
InChI=1S/C6H11NO2/c1-4-5(9-3-7)6(4,2)8/h3-5,7-8H,1-2H3	InChI=1S/C6H11NO2/c1-4-5(9-3-7)6(4,2)8/h3-5,7-8H,1-2H3/t4-,5+,6+/m0/s1
