25
gdb 70246	2.7442	1.25589	1.15288	0.1621	91.98	-0.2528	0.0821	0.3349	1266.0598	0.229132	-352.372266	-352.362774	-352.36183	-352.40551	38.392	
C	-0.5381775903	 1.4594148894	 0.2367687708	-0.478984
C	-0.008650857	 0.0613737814	 0.01688075	 0.369672
C	-0.7842671259	-1.1148942443	 0.5632095863	-0.339196
C	 0.5750961308	-0.7793360956	 1.1335059895	-0.064105
C	 1.7856980364	-1.5357596553	 0.6145648574	-0.264833
C	 1.7996393491	-1.3831669309	-0.9439550459	 0.322411
C	 3.2177046808	-1.0547117447	-1.4406342409	-0.426618
C	 1.3380988265	-2.6759426783	-1.6429783291	-0.430464
C	 0.828055586	-0.1914614365	-1.2338082286	-0.319196
H	 0.2719057359	 2.1987175552	 0.2256669084	 0.11027
H	-1.2538680875	 1.7436327218	-0.5443731688	 0.113826
H	-1.0534323777	 1.5423688943	 1.1993076975	 0.110767
H	-1.6441157237	-0.8826650736	 1.184167443	 0.102123
H	-0.9121151321	-2.0104233601	-0.0342713541	 0.10666
H	 0.6102148291	-0.3979209494	 2.1494903338	 0.07329
H	 2.6931318503	-1.0916551909	 1.0406246745	 0.090014
H	 1.7868620107	-2.5915994806	 0.9111334434	 0.091501
H	 3.9165703887	-1.8662164005	-1.20737562	 0.108048
H	 3.2319381753	-0.9072029677	-2.5266094087	 0.108148
H	 3.5976744175	-0.1400975089	-0.9728817463	 0.107378
H	 0.3331161256	-2.9826463211	-1.3418700743	 0.115366
H	 1.3304766271	-2.5470979916	-2.7313284042	 0.108601
H	 2.0170522995	-3.5045741603	-1.4116019583	 0.108741
H	 0.2107678115	-0.3843091712	-2.1199881236	 0.089904
H	 1.4068074834	 0.7148440993	-1.4521636217	 0.086679
105.4337	158.0032	222.7265	237.466	253.3735	294.75	322.3671	350.0196	361.0208	389.0246	417.3486	435.0089	542.5909	603.9735	710.7438	776.3856	824.1529	869.5126	885.2936	896.3293	923.9177	942.8975	958.1997	965.3302	993.1668	1020.0912	1039.4074	1051.2275	1088.2855	1104.6473	1108.3801	1164.439	1201.7271	1204.9526	1227.263	1260.5598	1305.3183	1311.5588	1336.2073	1337.9036	1398.1341	1403.9889	1420.7689	1432.6847	1480.1539	1484.2338	1488.0929	1492.5498	1496.0059	1499.003	1505.1619	1509.4138	1513.8242	3014.4596	3017.8409	3019.2761	3022.8801	3030.8518	3050.681	3056.6543	3073.9059	3084.5906	3091.0081	3092.504	3094.2022	3111.2062	3129.4787	3151.9582	3211.0177
CC12CC1CC(C)(C)C2	C[C@]12C[C@H]1CC(C)(C)C2	
InChI=1S/C9H16/c1-8(2)4-7-5-9(7,3)6-8/h7H,4-6H2,1-3H3	InChI=1S/C9H16/c1-8(2)4-7-5-9(7,3)6-8/h7H,4-6H2,1-3H3/t7-,9-/m1/s1
