19
gdb 68751	2.46505	1.7031	1.22714	4.514	75.26	-0.2577	0.0149	0.2726	1068.7736	0.158933	-423.074783	-423.06608	-423.065135	-423.107724	32.904	
C	-0.0239287254	 1.518231488	-0.0818559273	-0.488371
C	-0.0046428921	 0.0144398381	 0.0291304038	 0.263669
C	 1.2388008586	-0.7844445525	-0.2317490061	-0.364945
C	 0.6362318972	-0.7577092873	 1.1684230394	 0.120079
C	 1.3809061894	-0.1971250266	 2.352323716	-0.482019
C	-0.2625951424	-1.9333664869	 1.4136004854	 0.422872
O	-0.1838803877	-2.7536101531	 2.2827359892	-0.350951
O	-1.2511304063	-1.9653467579	 0.4688470066	-0.234944
C	-1.2900411594	-0.742202111	-0.2813100265	-0.141582
H	 0.9319007328	 1.9516098914	 0.2252322107	 0.127122
H	-0.2085372688	 1.8321260728	-1.1156862753	 0.128433
H	-0.8092085417	 1.954768067	 0.5452106648	 0.125792
H	 1.1800925789	-1.6979008328	-0.8161223048	 0.127973
H	 2.1660301159	-0.2325858346	-0.3490163507	 0.119475
H	 2.0486543226	 0.6158139176	 2.05483102	 0.115498
H	 0.6925267672	 0.1862105964	 3.1122609723	 0.129141
H	 1.9820997931	-0.9829192026	 2.8186923578	 0.147418
H	-2.1727420044	-0.1705483767	 0.0313890385	 0.11463
H	-1.3968058476	-0.9983310692	-1.3404926937	 0.120711
125.1734	156.8319	180.4047	197.4087	208.7759	265.4483	315.9899	374.3356	429.9898	508.5914	543.6352	656.2083	696.0201	717.7014	791.7386	840.2819	912.281	941.6314	974.856	988.9134	1030.1922	1054.8618	1060.805	1102.1328	1109.7518	1128.3799	1189.061	1237.394	1254.6784	1348.6169	1373.2651	1415.9719	1417.3751	1426.7337	1481.3662	1489.6126	1493.2971	1495.6226	1506.238	1522.1941	1873.1776	3025.001	3030.1448	3041.7	3076.1763	3087.9936	3107.0569	3110.2946	3118.9844	3121.0019	3208.3828
CC12CC1(C)C(=O)OC2	C[C@@]12C[C@]1(C)C(=O)OC2	
InChI=1S/C7H10O2/c1-6-3-7(6,2)5(8)9-4-6/h3-4H2,1-2H3	InChI=1S/C7H10O2/c1-6-3-7(6,2)5(8)9-4-6/h3-4H2,1-2H3/t6-,7+/m0/s1
