19
gdb 83029	2.63111	1.35928	1.14047	3.4023	83.44	-0.2439	-0.0543	0.1896	1151.4599	0.159518	-385.908014	-385.899746	-385.898802	-385.940888	31.552	
C	-0.1351357973	 1.5603390141	 0.0138958945	-0.418957
C	 0.0385939626	 0.0599577392	-0.0487791199	 0.001795
C	 0.7173832735	-0.6748250147	-1.1791411138	-0.080439
C	 1.6627055744	 0.096217049	-2.1064373732	-0.277256
C	 2.7738492409	 0.5536156075	-1.1945589072	-0.163455
C	 2.6074745001	 0.1091700619	 0.0642508702	 0.261707
C	 3.5557223546	 0.3550840727	 1.1536789357	 0.062241
O	 3.4213051456	-0.0554389387	 2.2855024874	-0.270955
C	 1.3469587951	-0.6723692121	 0.2135540844	-0.169771
H	 0.7569263224	 2.0988982516	-0.3149522051	 0.117828
H	-0.9703699863	 1.8791976709	-0.6198587708	 0.116473
H	-0.3537062785	 1.8807502275	 1.0380351346	 0.125113
H	-0.8185749915	-0.4816642212	 0.3451712146	 0.090614
H	 0.2360537527	-1.5633462859	-1.5707013728	 0.087881
H	 2.0554930589	-0.5438404876	-2.9077464914	 0.120954
H	 1.1756409188	 0.9426100021	-2.6095864299	 0.121407
H	 3.5944407734	 1.1825038983	-1.5256225093	 0.108716
H	 4.4470348928	 0.9549138963	 0.8609182832	 0.064322
H	 1.3409765178	-1.5296264408	 0.8755798486	 0.101782
86.4094	165.9497	186.0245	195.4813	221.662	299.2169	373.9206	480.9307	491.2603	603.9357	699.4834	715.2528	750.8503	802.6233	823.8614	851.0404	931.1842	939.5299	971.6869	996.5492	1019.1275	1042.2541	1065.2985	1087.8922	1115.3972	1136.8665	1182.2563	1198.0097	1226.1222	1266.6359	1315.5454	1357.4969	1395.0588	1412.2935	1423.2344	1428.9039	1464.5469	1497.1583	1500.9313	1662.3857	1784.9873	2874.2924	3015.4873	3034.0977	3038.9526	3091.0617	3113.9394	3133.8196	3173.8328	3186.128	3189.5295
CC1C2CC=C(C=O)C12	C[C@H]1[C@H]2CC=C(C=O)[C@@H]12	
InChI=1S/C8H10O/c1-5-7-3-2-6(4-9)8(5)7/h2,4-5,7-8H,3H2,1H3	InChI=1S/C8H10O/c1-5-7-3-2-6(4-9)8(5)7/h2,4-5,7-8H,3H2,1H3/t5-,7+,8+/m0/s1
