15
gdb 20652	3.38136	2.26776	1.36868	1.3586	72.91	-0.2092	-0.0474	0.1618	863.4343	0.121371	-358.865519	-358.858604	-358.85766	-358.896454	26.425	
C	-0.0309270266	 1.5254799252	 0.0250524399	-0.473898
C	-0.0077572415	 0.031681256	-0.0275254508	 0.302018
C	-0.0325304495	-0.6926682648	-1.1733701588	-0.21059
C	-0.0077379844	-2.1239296462	-1.1334798536	 0.000816
N	 0.0389514415	-2.8005573575	-0.0258560849	-0.187858
N	 0.0633767843	-2.0738710784	 1.1054087317	-0.296451
C	 0.0449139556	-0.6825628072	 1.2502153209	 0.317042
N	 0.0703236878	-0.0551889026	 2.3719389207	-0.554104
H	 0.8512040431	 1.9003149612	 0.5545618652	 0.151803
H	-0.0674087632	 1.9592863259	-0.9768853366	 0.113359
H	-0.8928582585	 1.8714959253	 0.6051438278	 0.151674
H	-0.0715489546	-0.1941826117	-2.1369283778	 0.106037
H	-0.027325286	-2.7122603762	-2.0438366684	 0.122836
H	 0.0994442879	-2.6348235748	 1.9441948187	 0.26147
H	 0.1063287441	-0.6964461942	 3.166139966	 0.195847
131.2421	171.3446	238.7545	304.4757	407.7981	459.1064	527.8319	548.9876	597.3669	657.1445	747.6076	759.3604	795.876	870.323	889.9106	946.9112	1000.767	1068.2529	1075.6973	1094.6027	1179.0619	1213.7684	1303.7987	1396.6031	1399.7035	1415.0171	1462.7065	1462.78	1478.9166	1602.4961	1662.0208	1699.9177	3040.6985	3096.5882	3129.1799	3177.0108	3199.4238	3455.4406	3607.4171
CC1=CC=NNC1=N	CC1=C(NN=CC1)[NH]	
InChI=1S/C5H7N3/c1-4-2-3-7-8-5(4)6/h2-3H,1H3,(H2,6,8)	InChI=1S/C5H8N3/c1-4-2-3-7-8-5(4)6/h3,6,8H,2H2,1H3
