14
gdb 74242	2.73979	1.30558	0.88941	11.8322	80.49	-0.179	-0.0477	0.1313	1208.0747	0.101254	-432.891631	-432.883287	-432.882342	-432.924638	30.791	
N	-0.0316472376	 1.3327942383	 0.1167154414	-0.578219
C	 0.0209414372	-0.0169616539	 0.0268623757	 0.434949
N	-1.0167311116	-0.8136119652	 0.0200542655	-0.299017
H	-1.9779711292	-0.5006080933	 0.0451374923	 0.28389
C	-0.697954722	-2.2091590152	-0.0033804425	 0.006636
C	-1.7266644766	-3.1466860765	-0.0241829387	 0.170635
N	-2.6186278158	-3.896266427	-0.0405139986	-0.382524
C	 0.719150267	-2.3356362086	-0.0172970139	 0.282109
O	 1.4509171649	-3.3077743567	-0.0439707619	-0.371357
C	 1.2585470095	-0.8527192144	 0.0038662148	-0.436914
H	 0.8029230443	 1.8467160488	-0.1123996835	 0.28685
H	-0.8999833163	 1.8185952498	-0.0491200479	 0.274247
H	 1.8707753657	-0.6558444066	-0.8818930847	 0.161076
H	 1.8803812307	-0.6793088897	 0.8873845922	 0.167642
113.4448	116.9104	136.8914	282.151	307.6886	354.1692	379.8835	426.9216	443.2233	511.18	543.1439	566.4772	602.6693	630.5037	721.8327	796.7734	901.2404	913.8045	981.9063	1096.4184	1130.	1174.4295	1202.311	1275.1115	1410.7267	1453.9151	1482.1089	1642.4002	1704.382	1781.2101	2288.7554	3065.46	3110.8498	3585.8726	3604.3774	3706.0464
NC1=[NH+][C-](C#N)C(=O)C1	N[C]1N[C](C#N)C(=O)C1	
InChI=1S/C5H5N3O/c6-2-3-4(9)1-5(7)8-3/h8H,1,7H2	InChI=1S/C5H5N3O/c6-2-3-4(9)1-5(7)8-3/h8H,1,7H2
