23
gdb 103124	1.6768	1.35693	1.06251	3.5028	87.97	-0.2393	-0.0154	0.2239	1341.9125	0.202999	-388.301477	-388.290708	-388.289764	-388.337048	39.382	
C	-0.0153920609	-0.4724630238	 1.0341411811	-0.386389
C	 0.4451987687	-1.7367350435	 0.2960090921	-0.254244
C	 0.9165067417	-1.495304346	-1.1349936875	 0.317486
C	 2.1804180426	-0.6563314976	-1.2371402651	-0.454397
C	 0.7164258119	-2.5370069591	-2.1959498035	-0.076381
C	 0.1057689967	-3.9065619713	-1.9761496328	-0.423093
C	-0.1145231568	-1.2464003606	-2.2553894764	-0.156747
C	-1.5694447184	-1.2402975233	-2.0031729032	 0.15659
O	-2.3431532581	-0.4932271953	-2.5571030953	-0.281656
H	 0.7892109329	 0.2627881059	 1.1269309908	 0.121413
H	-0.8479510702	 0.0114034297	 0.5129122771	 0.130625
H	-0.3524779792	-0.7197584198	 2.0453200695	 0.115867
H	 1.2760623859	-2.1964196413	 0.848088533	 0.098945
H	-0.3645888033	-2.4708204374	 0.3180053511	 0.099051
H	 2.9990620571	-1.1260931095	-0.6786149899	 0.117747
H	 2.5033748705	-0.5497637933	-2.2768572884	 0.118117
H	 2.0342147392	 0.3499498777	-0.8325135495	 0.126648
H	 1.4981685204	-2.5526472825	-2.9525032103	 0.093089
H	-0.6816838242	-3.9175749324	-1.2205386221	 0.124158
H	-0.3295269977	-4.2854158913	-2.9067844114	 0.128409
H	 0.8760100076	-4.6173719466	-1.6574491976	 0.123669
H	 0.1686655446	-0.520570095	-3.0116040022	 0.097242
H	-1.9408160009	-1.9766912138	-1.2576100496	 0.063854
71.3116	98.9102	133.4307	177.166	194.0046	211.246	226.5161	241.7914	278.7578	289.9668	366.8689	438.7881	474.6956	484.3813	557.0713	660.1739	754.0555	794.2593	896.1512	913.4538	974.3804	1005.0991	1010.8665	1026.082	1046.1966	1062.5427	1085.6036	1124.6561	1133.7964	1159.7183	1187.7275	1242.347	1300.7454	1308.4571	1349.5048	1375.993	1411.0473	1417.5982	1421.7541	1432.4952	1459.087	1480.917	1489.8802	1495.6016	1496.741	1504.2923	1508.1658	1513.6823	1799.7196	2884.9219	3020.5744	3026.6937	3038.5076	3039.9227	3081.2727	3091.2454	3094.5182	3104.8431	3107.5773	3114.2139	3118.7008	3135.2695	3160.3205
CCC1(C)C(C)C1C=O	CC[C@@]1(C)[C@@H](C)[C@H]1C=O	
InChI=1S/C8H14O/c1-4-8(3)6(2)7(8)5-9/h5-7H,4H2,1-3H3	InChI=1S/C8H14O/c1-4-8(3)6(2)7(8)5-9/h5-7H,4H2,1-3H3/t6-,7+,8-/m0/s1
