17
gdb 106054	2.70415	1.66184	1.32629	1.1529	66.7	-0.2216	0.0703	0.2919	994.8773	0.135002	-458.873876	-458.865995	-458.865051	-458.906361	30.182	
C	 0.0705439632	 1.3090233661	 0.1816288149	-0.265096
O	-0.0305863846	-0.0658937793	-0.1815344095	-0.285107
C	-1.312056249	-0.540148433	-0.1393237959	 0.338789
C	-2.0138867013	-0.9975624423	 1.1545596636	-0.003124
O	-3.4318398859	-0.9363503369	 0.9320501876	-0.305855
C	-3.1466187678	-1.4930530455	-0.3928047015	 0.002401
C	-1.7368024447	-1.9881640697	 0.0672706272	-0.219802
C	-2.4723902599	-0.293171516	-1.1148208286	 0.087179
O	-3.1533477959	 0.9278911298	-1.1122998746	-0.44469
H	 1.1233425111	 1.5817677561	 0.0881520667	 0.129601
H	-0.5342708221	 1.9394007271	-0.4800467266	 0.139143
H	-0.2562679779	 1.4689371778	 1.2181940403	 0.111158
H	-1.6189177188	-0.8856637357	 2.1552244227	 0.119062
H	-3.9692476336	-2.0646913859	-0.8149391825	 0.094014
H	-1.2079084552	-2.9282216422	 0.0194424377	 0.115132
H	-2.1868105518	-0.5371014975	-2.141052846	 0.100604
H	-3.5805447458	 0.976632417	-0.2451173756	 0.28659
86.8415	151.9104	166.5877	222.6557	287.1485	392.7819	409.5067	522.9736	547.4104	624.6277	691.0425	761.0716	786.6817	829.7088	835.1964	888.8583	941.7392	951.8238	970.9449	1019.1348	1033.702	1053.2178	1115.8095	1128.9274	1143.1192	1182.5474	1191.8309	1215.2843	1222.3987	1279.2906	1289.5113	1315.9611	1409.6867	1442.3697	1485.5329	1493.3777	1509.3866	3006.3455	3074.8242	3097.1881	3133.2558	3155.9589	3213.9015	3232.6804	3744.0836
COC12C3OC(C13)C2O	CO[C@]12[C@H]3O[C@H]([C@@H]13)[C@H]2O	
InChI=1S/C6H8O3/c1-8-6-2-3(4(6)7)9-5(2)6/h2-5,7H,1H3	InChI=1S/C6H8O3/c1-8-6-2-3(4(6)7)9-5(2)6/h2-5,7H,1H3/t2-,3-,4-,5+,6-/m1/s1
