15
gdb 56475	2.55908	1.1082	0.79196	2.7782	70.67	-0.2715	-0.041	0.2306	1361.9709	0.112919	-450.160686	-450.151347	-450.150403	-450.195773	32.276	
N	-0.3420646117	 1.635127919	 0.0975919173	-0.493132
C	-0.1099679326	 0.2111080323	-0.0989722335	-0.235634
C	-1.373215196	-0.5290960663	-0.1559061808	 0.285607
N	-2.3449512849	-1.1484672464	-0.2428003799	-0.312444
C	 0.8151065753	-0.099272567	-1.3197707399	 0.432996
O	 1.6144616533	 0.7368759619	-1.6817604386	-0.354876
N	 0.7021451209	-1.3465300347	-1.8701790345	-0.323329
C	 1.514958987	-1.8069641087	-2.9045942347	 0.102086
N	 1.3369009432	-2.9721553923	-3.3686192739	-0.447118
H	 0.5506538854	 2.0995682381	-0.0589326813	 0.257787
H	-0.961615813	 1.9780121542	-0.6323094911	 0.247627
H	 0.442480425	-0.1668687663	 0.7748191906	 0.168453
H	-0.0265901468	-1.9771161051	-1.5593727134	 0.284734
H	 2.2545381983	-1.0652087656	-3.2108093942	 0.146046
H	 2.0021652166	-3.1655120031	-4.1150019721	 0.241197
41.6157	108.0627	125.4125	176.6953	201.5913	220.1483	261.1662	319.4373	372.6245	478.1361	525.9632	556.7642	594.1618	680.8389	809.7111	837.5694	894.5196	933.8438	988.294	1063.3288	1089.2788	1154.9507	1192.0788	1226.0772	1281.2826	1297.7798	1392.4211	1403.5935	1510.6725	1669.5257	1733.4941	1800.4433	2359.6466	3005.1172	3128.0735	3480.6412	3510.9353	3557.0562	3582.8825
NC(C#N)C(=O)NC=N	N[C@@H](C#N)C(=O)NC=N	
InChI=1S/C4H6N4O/c5-1-3(7)4(9)8-2-6/h2-3H,7H2,(H2,6,8,9)	InChI=1S/C4H6N4O/c5-1-3(7)4(9)8-2-6/h2-3H,7H2,(H2,6,8,9)/t3-/m0/s1
