19
gdb 98979	2.81967	0.96965	0.7951	2.3023	73.82	-0.247	-0.0217	0.2253	1481.8515	0.156227	-460.217944	-460.207456	-460.206512	-460.255499	35.6	
C	 0.9052039482	 1.3776604891	-1.0640122934	-0.398171
C	 0.0681086437	 0.1076970961	-0.8426461196	-0.261997
C	 0.8832221948	-1.1344145395	-0.5271497672	 0.381457
O	 0.6671839714	-1.8184435361	 0.4442855939	-0.293245
C	 2.0417820438	-1.5174264288	-1.4705048516	-0.408604
C	 1.63217807	-1.6810293843	-2.9209215053	 0.431036
O	 1.0728086367	-0.8440678103	-3.5881461164	-0.358105
O	 1.9767171418	-2.8947635113	-3.3836798391	-0.219258
C	 1.6375161844	-3.1482351126	-4.7552698089	-0.241826
H	 1.5655247315	 1.5793618854	-0.2139996622	 0.120402
H	 1.5084634677	 1.2958591158	-1.9712051594	 0.139792
H	 0.2454246922	 2.241495557	-1.1833097201	 0.125754
H	-0.6353088007	 0.2326463246	-0.0155396077	 0.117103
H	-0.505307762	-0.0931735566	-1.7548539787	 0.142253
H	 2.7816944966	-0.7084382269	-1.4418914754	 0.1516
H	 2.4982323577	-2.4297239837	-1.0902510691	 0.144744
H	 1.9900644091	-4.157942232	-4.9637745762	 0.138801
H	 0.5568484395	-3.0803661655	-4.9014715564	 0.144497
H	 2.1278402337	-2.4256905603	-5.4120930973	 0.143766
22.6433	55.4336	74.7329	120.2868	148.8104	200.3982	220.897	240.3132	304.8056	387.2363	420.1173	500.3981	570.9113	631.0161	742.0339	758.5186	813.9049	899.5058	938.791	986.3371	1027.214	1074.4439	1086.8746	1149.7266	1178.5428	1202.1806	1213.5988	1241.1077	1293.8896	1329.739	1342.0044	1407.7394	1452.3028	1462.705	1473.7513	1481.937	1495.9994	1500.3588	1512.7243	1798.5718	1815.5259	3041.7343	3050.4902	3052.3694	3055.217	3103.3293	3111.4717	3131.3259	3132.0964	3154.8299	3164.8198
CCC(=O)CC(=O)OC	CCC(=O)CC(=O)OC	
InChI=1S/C6H10O3/c1-3-5(7)4-6(8)9-2/h3-4H2,1-2H3	InChI=1S/C6H10O3/c1-3-5(7)4-6(8)9-2/h3-4H2,1-2H3
