22
gdb 64415	2.35852	1.66469	1.31214	2.4711	81.58	-0.2399	0.0698	0.3097	1097.124	0.195162	-404.337798	-404.329112	-404.328168	-404.370439	34.819	
C	 0.077245919	 1.4934588308	-0.0303032713	-0.412186
C	-0.0307747732	-0.0308556998	 0.0215557736	 0.365671
C	-1.5040507238	-0.4712228214	 0.0822003648	-0.42429
O	 0.572084865	-0.4782077406	-1.2022589379	-0.287303
C	 0.8713557074	-1.8596595745	-1.2708738343	-0.080386
C	 1.9885939904	-2.2494906097	-0.2986433224	-0.210089
C	 1.7057113078	-1.6852445582	 1.0855527937	-0.040421
N	 2.1568211931	-0.2997548754	 1.3139893324	-0.333515
C	 0.7175946789	-0.5786709909	 1.2357624129	-0.059471
H	 1.1296434264	 1.7810217997	-0.0662959698	 0.139123
H	-0.4270329392	 1.8750293805	-0.9227982673	 0.115054
H	-0.385206576	 1.9472181354	 0.8521810764	 0.100841
H	-2.0244011145	-0.1444231923	-0.8221530399	 0.122174
H	-1.6066899771	-1.557442572	 0.1652043307	 0.113134
H	-2.004712646	-0.026415459	 0.9481159607	 0.111116
H	-0.0241605346	-2.4682191532	-1.0715644864	 0.083638
H	 1.1695275643	-2.0485704886	-2.3065873576	 0.103357
H	 2.068868616	-3.3415150655	-0.2565493473	 0.091163
H	 2.9463982469	-1.8578973063	-0.6548986314	 0.117292
H	 1.8006447188	-2.3785465253	 1.9180870732	 0.082308
H	 2.435888546	-0.1727960156	 2.2829887071	 0.227654
H	 0.1452895243	-0.539860358	 2.16107828	 0.075136
98.703	193.1618	213.2238	250.4531	273.4707	318.8618	348.6442	382.681	409.2483	470.5424	490.6373	551.3063	658.6515	737.9839	793.6396	830.8018	881.5218	910.9487	923.8255	932.0172	938.0305	962.8075	1013.9744	1031.3773	1079.1398	1110.5431	1121.3701	1154.171	1185.535	1212.3859	1226.081	1254.5305	1262.1024	1269.1039	1302.6782	1364.6162	1388.9692	1391.0651	1406.4145	1422.9051	1453.758	1470.7414	1476.6571	1485.0992	1494.8047	1504.6071	1512.1597	2984.8401	3037.934	3040.8761	3044.0269	3076.7131	3091.3922	3103.4213	3112.113	3114.6905	3120.7477	3130.5078	3139.7521	3503.2801
CC1(C)OCCC2NC12	CC1(C)OCC[C@H]2N[C@@H]12	
InChI=1S/C7H13NO/c1-7(2)6-5(8-6)3-4-9-7/h5-6,8H,3-4H2,1-2H3	InChI=1S/C7H13NO/c1-7(2)6-5(8-6)3-4-9-7/h5-6,8H,3-4H2,1-2H3/t5-,6-/m1/s1
