17
gdb 82085	2.62418	1.57753	1.17953	3.0905	67.67	-0.2335	0.0363	0.2698	1046.5899	0.137527	-455.128099	-455.120154	-455.11921	-455.160796	30.904	
N	 0.1155664062	 1.1637081391	 0.4459735152	-0.533794
C	 0.0639903313	 0.0040019275	-0.2673057605	 0.396387
O	 0.9134146673	-0.3403935688	-1.0665948475	-0.378667
C	-1.1973939234	-0.8289265691	-0.0602664721	-0.151089
C	-0.991248966	-2.3260445848	 0.1477177561	-0.038768
N	-0.3922804016	-2.4763135226	 1.4980137081	-0.353613
C	-1.8633218518	-2.3353263508	 1.352691919	-0.081196
C	-2.0568614856	-0.8153706492	 1.2817915827	 0.094811
O	-1.5676448142	-0.0955539212	 2.3894026144	-0.432699
H	 0.9710019566	 1.6946120964	 0.3909176693	 0.253012
H	-0.4701480114	 1.2585251906	 1.2648123412	 0.267854
H	-1.8595074245	-0.6406812461	-0.9112826219	 0.110721
H	-0.8475858192	-3.0865401994	-0.6073188245	 0.109655
H	-0.1819324868	-3.4617945625	 1.642536104	 0.240147
H	-2.54120381	-3.0869506976	 1.736457797	 0.102734
H	-3.0849866162	-0.4924906054	 1.1125251321	 0.098123
H	-0.7685289408	-0.5759693361	 2.6580791473	 0.296382
68.7336	121.6923	218.549	233.7065	322.7686	420.2306	459.1112	499.3177	563.6695	605.7586	614.7731	693.6536	722.0067	737.0788	812.0518	842.9458	855.652	910.1123	949.105	995.5023	1024.3374	1033.5361	1077.5103	1098.512	1117.0536	1145.6782	1169.68	1221.5268	1248.3372	1299.224	1314.687	1331.5883	1368.5011	1384.4732	1451.0295	1624.3654	1795.8263	3067.7821	3108.7976	3196.5488	3218.3641	3499.8	3535.4105	3683.3315	3705.0213
NC(=O)C1C2NC2C1O	NC(=O)[C@H]1[C@H]2N[C@H]2[C@H]1O	
InChI=1S/C5H8N2O2/c6-5(9)1-2-3(7-2)4(1)8/h1-4,7-8H,(H2,6,9)	InChI=1S/C5H8N2O2/c6-5(9)1-2-3(7-2)4(1)8/h1-4,7-8H,(H2,6,9)/t1-,2+,3+,4-/m0/s1
