17
gdb 17747	3.90444	2.54907	2.10605	1.7422	69.98	-0.2145	0.0803	0.2948	718.2891	0.143678	-326.633305	-326.62731	-326.626366	-326.662883	25.156	
C	-0.023318574	 1.5032029355	 0.0241954451	-0.5159
C	-0.0076151002	-0.0010485859	-0.0435742316	 0.321471
C	 0.2661213101	-0.8335027801	-1.3154671219	-0.218796
N	-0.4657878298	-1.9788800942	-0.6594730245	-0.160183
C	 0.3027642032	-2.2285998137	 0.6003294553	-0.024297
C	-0.6528692239	-1.5077158588	 1.5037297779	-0.11191
C	 0.6467043787	-0.8257061798	 1.1000985627	-0.127608
C	-1.2415040864	-0.9507786201	 0.1898895857	-0.057197
H	 0.9866425305	 1.9143414737	-0.0915792495	 0.119344
H	-0.6492089415	 1.9308997166	-0.7667000357	 0.116457
H	-0.4121739382	 1.8518536945	 0.9874986682	 0.121165
H	-0.30701016	-0.488818881	-2.1828699012	 0.100689
H	 1.2997643405	-1.044640559	-1.6080353207	 0.096255
H	 0.9054764327	-3.1127590991	 0.7619950369	 0.09058
H	-1.0721998187	-1.7675899504	 2.4655940184	 0.093052
H	 1.5152719762	-0.5905067185	 1.7009489498	 0.084507
H	-2.277906909	-0.7356910896	-0.0660064749	 0.072371
228.2771	253.6891	273.8256	430.2556	564.4497	592.4055	752.9055	758.9906	784.4061	807.5683	836.0591	851.0543	857.3217	885.1649	897.724	915.5778	986.2644	1004.2088	1018.0877	1038.343	1046.6456	1059.3147	1124.2887	1151.9155	1170.5995	1187.8901	1207.6054	1229.4038	1242.9925	1257.5199	1327.5184	1363.5104	1413.6071	1490.9954	1492.1427	1496.8654	3021.5595	3038.2758	3084.2696	3091.4312	3097.2511	3124.689	3194.5713	3200.0788	3215.9845
CC12CN3C4C(C14)C23	C[C@@]12CN3[C@@H]4[C@@H]([C@H]14)[C@@H]23	
InChI=1S/C7H9N/c1-7-2-8-5-3(4(5)7)6(7)8/h3-6H,2H2,1H3	InChI=1S/C7H9N/c1-7-2-8-5-3(4(5)7)6(7)8/h3-6H,2H2,1H3/t3-,4+,5-,6+,7-/m1/s1
