19
gdb 27243	3.1135	1.47541	1.03397	1.0091	83.08	-0.2028	0.0232	0.2261	1166.2393	0.161478	-385.939484	-385.931596	-385.930651	-385.971913	30.415	
C	 0.1058862211	 1.4988978461	 0.0091919851	-0.489609
C	-0.0717057464	 0.0231069685	 0.0270969612	 0.181097
C	-1.1425486161	-0.8108397049	-0.0055974164	 0.180807
C	-2.644324625	-0.8054226391	-0.0631297497	-0.355914
C	-2.9580273764	-2.2732837043	-0.4896223997	-0.198076
C	-1.7638496475	-3.1465202234	 0.0064938749	-0.349701
C	-0.6390273484	-2.1514076089	 0.0338006703	 0.252632
C	 0.7097893792	-2.0544639918	 0.0879240922	-0.200846
O	 1.073199337	-0.7329730339	 0.0828866155	-0.191302
H	 0.7325409861	 1.8195737677	-0.8309468142	 0.135848
H	-0.8669238841	 1.9873741356	-0.083995765	 0.130161
H	 0.5818464298	 1.8622618922	 0.9277291908	 0.135692
H	-3.07748431	-0.5871747117	 0.9221788596	 0.109086
H	-3.0669417378	-0.0769672267	-0.7620557243	 0.106591
H	-3.9219330028	-2.6247792058	-0.111991533	 0.096026
H	-2.9998904233	-2.3215576753	-1.582895214	 0.10869
H	-1.963022857	-3.5407460881	 1.0116762333	 0.111175
H	-1.5869190778	-4.0092898613	-0.6424122269	 0.109291
H	 1.5259462493	-2.7569081949	 0.1230895402	 0.128353
106.5346	141.0436	167.805	242.4685	271.3965	314.6747	492.2419	554.7563	593.7822	614.9269	659.2855	703.7068	727.4915	776.1249	849.035	888.522	905.6045	946.5648	990.4076	1044.6799	1057.1488	1066.0579	1128.0633	1142.6435	1153.5169	1199.665	1226.5255	1251.9025	1282.4678	1312.1598	1317.3611	1340.5633	1399.928	1419.2182	1473.2405	1485.1803	1486.0777	1490.5896	1503.3064	1622.8213	1696.8479	3015.8921	3020.1823	3026.4677	3047.0663	3072.5378	3075.51	3078.9791	3101.2462	3124.1012	3272.309
CC1=C2CCCC2=CO1	Cc1c2CCCc2co1	
InChI=1S/C8H10O/c1-6-8-4-2-3-7(8)5-9-6/h5H,2-4H2,1H3	InChI=1S/C8H10O/c1-6-8-4-2-3-7(8)5-9-6/h5H,2-4H2,1H3
