21
gdb 109885	2.17814	1.6453	1.19099	3.0036	76.87	-0.248	0.0579	0.3058	1126.9206	0.183393	-424.184525	-424.175832	-424.174888	-424.217965	33.309	
C	-0.721427972	 1.4079568087	-0.0084640139	-0.418117
C	-0.141616219	 0.0008501598	 0.0794007905	-0.005626
C	 0.9500515323	-0.500515794	-0.9453742906	-0.056426
C	 1.6713075258	 0.5265032373	-1.8217171503	-0.072999
O	 2.9167913433	 0.0297387667	-2.2816801767	-0.43023
C	 1.8001023033	-1.0109974408	 0.2528349484	 0.104364
O	 2.8496388039	-0.0913104123	 0.6318662133	-0.300374
C	 1.9698226355	 0.5720423015	 1.5783858361	-0.091252
C	 0.7998402322	-0.3828084187	 1.2571904914	-0.093692
H	 0.0471320777	 2.1858269656	 0.013500877	 0.120139
H	-1.2938332888	 1.5387447962	-0.9330390289	 0.12113
H	-1.4021877329	 1.5946042666	 0.8297024474	 0.115339
H	-0.9733255071	-0.7114356209	 0.0722914866	 0.079854
H	 0.5935051724	-1.3202966474	-1.5755271069	 0.076076
H	 1.0719910396	 0.7517742393	-2.7103394275	 0.1031
H	 1.8085169435	 1.4711567153	-1.2788258751	 0.085232
H	 3.4869145408	 0.017427228	-1.5028539133	 0.293651
H	 2.1408120292	-2.0485165753	 0.2518184201	 0.079114
H	 2.3616586507	 0.4845653991	 2.5983059026	 0.109677
H	 1.8311676724	 1.6338386906	 1.3429007243	 0.104767
H	 0.3638966871	-0.9098378555	 2.1054140654	 0.076273
79.3707	105.4538	170.124	223.0991	243.0331	256.645	327.6563	432.8814	500.4364	533.8433	577.1368	638.7508	762.1354	797.8288	851.6544	867.3649	893.4637	939.1414	980.4638	988.6311	1005.4566	1017.4502	1050.7776	1073.6422	1119.0715	1141.6488	1153.6054	1158.2111	1180.4989	1203.2104	1221.3865	1248.7782	1290.3003	1305.1872	1333.9757	1340.8266	1349.1001	1378.5417	1405.0504	1415.0892	1426.786	1493.6654	1500.1994	1504.3866	1524.369	3008.9164	3022.5518	3033.1474	3039.6946	3059.0884	3065.1933	3074.2342	3087.8384	3093.2933	3110.4031	3113.8766	3781.7301
CC1C(CO)C2OCC12	C[C@H]1[C@@H](CO)[C@H]2OC[C@@H]12	
InChI=1S/C7H12O2/c1-4-5(2-8)7-6(4)3-9-7/h4-8H,2-3H2,1H3	InChI=1S/C7H12O2/c1-4-5(2-8)7-6(4)3-9-7/h4-8H,2-3H2,1H3/t4-,5+,6-,7+/m0/s1
