20
gdb 58681	2.095	1.41376	1.21027	2.933	76.52	-0.2441	-0.0353	0.2088	1171.71	0.168174	-440.263588	-440.253645	-440.252701	-440.29814	36.613	
C	 1.9503993871	-3.4170767725	-0.2233906086	-0.419531
C	 0.7914681095	-2.4215930516	-0.0881181039	 0.055721
O	 0.7048682214	-1.8777927287	 1.2201475588	-0.448082
C	 0.8677007827	-1.3065731477	-1.1299827439	 0.210258
C	 0.3716551463	-1.5421337963	-2.5306466402	-0.289564
N	-0.3273362919	-0.6189888218	-1.6750475395	-0.123627
C	-1.647660353	-0.9729403067	-1.1673722356	-0.321109
C	 1.9638604501	-0.3068796139	-0.9509108755	 0.146762
O	 2.7601072078	-0.3121028097	-0.0393473352	-0.290005
H	 1.9396241431	-3.9068458733	-1.2025807369	 0.110411
H	 2.9134594796	-2.9153698967	-0.098613916	 0.137802
H	 1.8580570953	-4.1846449061	 0.5496742959	 0.125137
H	-0.1461717253	-2.9674986141	-0.2323427552	 0.085038
H	 1.5227892422	-1.380974231	 1.3573399434	 0.29455
H	 0.8912997326	-1.1205150554	-3.3886756711	 0.120981
H	-0.0699651898	-2.5243701944	-2.7040237941	 0.118473
H	-1.8532580532	-2.0530405455	-1.1528865417	 0.1104
H	-1.7565233966	-0.5851606785	-0.1515962663	 0.149291
H	-2.3954638472	-0.4961949092	-1.8082112047	 0.129701
H	 1.9713413194	 0.4920179731	-1.7222533597	 0.097394
73.1581	110.9041	145.6934	211.0665	220.2552	240.1554	246.6094	265.4687	364.5019	375.8991	437.4297	477.2947	519.8759	542.7381	568.3459	751.475	778.615	884.7473	915.0089	934.1006	1024.8225	1042.3483	1062.9638	1090.8945	1120.0156	1126.1772	1131.4214	1152.2528	1201.402	1291.3296	1322.9857	1336.5791	1369.5318	1402.7659	1428.85	1444.3111	1449.1905	1485.5957	1491.205	1503.4982	1506.1203	1510.6192	1797.9054	2916.0523	2994.673	3042.3498	3061.8771	3076.4242	3080.8511	3114.197	3125.5383	3131.0916	3162.0068	3758.8101
CC(O)C1(CN1C)C=O	C[C@@H](O)[C@]1(CN1C)C=O	
InChI=1S/C6H11NO2/c1-5(9)6(4-8)3-7(6)2/h4-5,9H,3H2,1-2H3	InChI=1S/C6H11NO2/c1-5(9)6(4-8)3-7(6)2/h4-5,9H,3H2,1-2H3/t5-,6+,7?/m1/s1
