15
gdb 124975	3.33772	1.18336	0.88318	3.8834	71.42	-0.2582	-0.0099	0.2483	1233.875	0.113324	-413.009166	-413.000655	-412.999711	-413.044462	29.279	
C	-0.7035083855	 1.4593322162	 0.3188619311	-0.506546
C	-0.1697073466	 0.0853089506	 0.0792203856	 0.218025
C	 0.3111429668	-0.4902535457	-1.0788212407	 0.287209
C	 0.4646152973	 0.0483772633	-2.4731797296	-0.462142
C	 1.0144406176	-0.943984194	-3.3959732353	 0.267812
N	 1.4514271189	-1.7580733933	-4.0893863848	-0.297792
N	 0.6547311774	-1.7455426226	-0.701593535	-0.232794
N	 0.4099176163	-1.9537583688	 0.6015938962	-0.115788
N	-0.0884156644	-0.8466086678	 1.073783211	-0.239367
H	 0.0468518147	 2.2322781024	 0.1171593135	 0.13139
H	-1.5755301284	 1.6761277354	-0.3085423326	 0.130649
H	-1.0071778305	 1.5466678445	 1.3637822085	 0.159066
H	-0.5034130643	 0.3879074437	-2.8624257344	 0.182076
H	 1.1210119417	 0.9276794831	-2.4761623058	 0.182169
H	 1.0464342291	-2.484528207	-1.2675754475	 0.296031
15.9947	67.6507	111.9816	218.0057	234.5043	281.0329	372.1821	399.8496	516.608	604.9026	654.2559	685.371	735.9575	773.8886	946.9586	949.198	986.1059	1035.8129	1068.2157	1094.7192	1181.4589	1221.7347	1237.9536	1311.7572	1340.2445	1375.5018	1417.7352	1460.6883	1486.391	1487.913	1515.5782	1615.9687	2366.904	3030.8203	3032.0114	3059.1945	3081.2397	3136.8411	3630.3937
CC1=C(CC#N)NN=N1	Cc1c(CC#N)[nH]nn1	
InChI=1S/C5H6N4/c1-4-5(2-3-6)8-9-7-4/h2H2,1H3,(H,7,8,9)	InChI=1S/C5H6N4/c1-4-5(2-3-6)8-9-7-4/h2H2,1H3,(H,7,8,9)
