23
gdb 110928	2.61529	1.02577	0.88822	1.2037	86.01	-0.2464	0.0766	0.323	1445.422	0.205701	-388.254713	-388.244992	-388.244048	-388.289626	36.54	
C	-0.1488886629	 1.674560144	 0.3368413622	-0.378538
C	 0.119845251	 0.2145687466	-0.0503476686	-0.21037
C	 0.7723742985	-0.5569980356	 1.0826475568	 0.032612
C	 0.0539653659	-1.2851711846	 2.1838412113	-0.072738
C	-1.1541116878	-2.0776385481	 1.6572520391	-0.259081
C	-0.1881253226	-2.9238504012	 0.7645850944	 0.055712
C	-0.4657471715	-3.1387685371	-0.7123325362	-0.105855
O	-1.5833792181	-4.0149165093	-0.8085923014	-0.424139
C	 0.9862360618	-2.0453431445	 1.2195260848	-0.146205
H	 0.7808797862	 2.1923409775	 0.5979713714	 0.112184
H	-0.6171501555	 2.2252833328	-0.4849408036	 0.108498
H	-0.8139250258	 1.7331919049	 1.2048434208	 0.119898
H	-0.8233320084	-0.2528891006	-0.3464817506	 0.102465
H	 0.769281891	 0.1827916804	-0.9351166167	 0.092457
H	 1.6428312108	-0.0281257091	 1.4739334164	 0.079084
H	 0.220893947	-1.0501381251	 3.2284882309	 0.080033
H	-1.6473379243	-2.6781262081	 2.4232829343	 0.104374
H	-1.9232102116	-1.4997071856	 1.1349074807	 0.097134
H	-0.0842134326	-3.9172476684	 1.2133077388	 0.084383
H	-0.6679175188	-2.1874173018	-1.2233389503	 0.08529
H	 0.4288784517	-3.5783441043	-1.1853547865	 0.080735
H	-1.8004140185	-4.1246818737	-1.7387770746	 0.284754
H	 1.9802247745	-2.4331777487	 1.4159317664	 0.077312
71.1123	76.5989	133.4999	165.3093	217.6819	238.8599	271.6093	282.8804	392.6325	423.2716	471.7976	564.5041	698.2887	741.28	793.2925	812.522	838.3074	882.9284	902.2204	950.7162	984.2631	1006.4737	1019.2891	1039.8425	1068.5931	1074.0673	1081.9725	1100.3063	1123.1307	1137.7032	1172.8975	1221.9824	1226.6637	1250.9792	1262.4227	1277.3168	1299.3862	1308.7916	1334.1793	1360.4285	1380.8226	1409.0722	1454.4043	1461.736	1480.1508	1498.273	1499.9139	1508.7913	1519.2024	2959.1721	3015.5875	3023.5418	3030.5511	3051.7637	3053.993	3078.8679	3094.684	3104.2355	3106.8934	3113.9257	3158.982	3177.9334	3829.9456
CCC1C2CC(CO)C12	CC[C@H]1[C@H]2C[C@@H](CO)[C@@H]12	
InChI=1S/C8H14O/c1-2-6-7-3-5(4-9)8(6)7/h5-9H,2-4H2,1H3	InChI=1S/C8H14O/c1-2-6-7-3-5(4-9)8(6)7/h5-9H,2-4H2,1H3/t5-,6-,7+,8-/m0/s1
