19
gdb 74759	2.92293	1.50594	1.30179	1.3756	80.93	-0.2102	0.0093	0.2195	1062.5005	0.1608	-381.991403	-381.98371	-381.982765	-382.023263	30.869	
C	 0.0830142091	 1.4311079246	 0.0605820428	-0.516053
C	-0.0066460634	-0.0531792359	 0.0049539377	 0.352802
C	-0.018487692	-0.9186574142	-1.0186759601	-0.215869
C	-0.0238024323	-2.2863535848	-0.3068290422	-0.160648
N	-0.9935399384	-2.0846837281	 0.8302631263	-0.300007
C	-0.018856053	-1.0050717557	 1.2258368876	-0.197153
C	 1.06028696	-2.0266792515	 0.7769689291	 0.472641
C	 1.9156597388	-2.9591825993	 1.5176534197	-0.334859
N	 2.4833754601	-1.8479752551	 0.6977610033	-0.393909
H	 1.0079903708	 1.7463981804	 0.5601381393	 0.140543
H	 0.0724168831	 1.8725679519	-0.9399969626	 0.126027
H	-0.7452612006	 1.8649741304	 0.6352216622	 0.125531
H	 0.0314273032	-0.734374425	-2.0828444235	 0.099107
H	-0.0920705603	-3.2066416882	-0.8881716916	 0.066334
H	-1.8621674539	-1.6715193178	 0.4848089005	 0.199666
H	-0.0806617473	-0.5917559014	 2.232863786	 0.068117
H	 2.0632938021	-2.8519748049	 2.588698379	 0.122043
H	 2.0032701072	-3.9780519434	 1.1480900052	 0.114344
H	 2.8526991266	-2.198363492	-0.1826931288	 0.231342
122.8179	174.2039	232.7108	236.5482	311.9872	340.6364	465.8049	553.6076	565.424	638.105	655.5293	777.4862	813.3722	825.3738	842.996	892.3081	893.2976	931.3838	950.449	969.7268	1003.8541	1034.2011	1051.9701	1062.4705	1093.9034	1122.6783	1138.4615	1179.424	1219.767	1227.2672	1238.8508	1254.3331	1268.345	1286.4592	1330.6423	1411.5888	1436.0035	1478.1961	1485.323	1524.9161	1676.8062	3015.7567	3062.3547	3105.369	3107.0003	3111.6822	3118.977	3189.5331	3227.3214	3426.6745	3499.2
CC1=CC2NC1C21CN1	CC1=C[C@@H]2N[C@H]1[C@]12CN1	
InChI=1S/C7H10N2/c1-4-2-5-7(3-8-7)6(4)9-5/h2,5-6,8-9H,3H2,1H3	InChI=1S/C7H10N2/c1-4-2-5-7(3-8-7)6(4)9-5/h2,5-6,8-9H,3H2,1H3/t5-,6+,7+/m0/s1
