19
gdb 71494	2.92736	1.85113	1.70153	1.2324	79.14	-0.2362	0.0082	0.2445	909.288	0.161319	-385.878502	-385.871724	-385.87078	-385.909078	29.043	
C	-0.0979746352	 1.5091732711	 0.0109712844	-0.494009
C	 0.0627000316	 0.0156111944	-0.0048939319	 0.42582
C	 0.9956269721	-0.7823875411	-0.9475134463	-0.278666
C	 0.7265067731	-1.8995088303	 0.0809761597	-0.072397
C	 0.7279002307	-0.8311449132	 1.2193924633	-0.120923
C	-0.2243574343	-1.3348003066	 2.2491868916	-0.083304
C	-1.1209555524	-2.1154005785	 1.6284612158	-0.090633
C	-0.8196887822	-2.0277061444	 0.1487971756	 0.053268
O	-1.1814063139	-0.6445958587	-0.2133762436	-0.31256
H	 0.8678796555	 1.9997725806	 0.161846207	 0.115127
H	-0.5206407587	 1.8620257756	-0.9353941854	 0.128441
H	-0.7740663166	 1.8102603173	 0.8170223512	 0.129006
H	 0.6528502121	-0.9118379641	-1.9767766826	 0.095201
H	 2.0347897637	-0.4450486057	-0.9180629412	 0.094978
H	 1.3084138595	-2.8173406625	 0.160811024	 0.072942
H	 1.6951538816	-0.4409742665	 1.5331914023	 0.067361
H	-0.2245273523	-1.0460472906	 3.293181924	 0.09923
H	-2.0019547479	-2.5792531508	 2.0527312927	 0.099231
H	-1.3216165465	-2.7190153359	-0.5271828506	 0.071887
203.1926	217.2178	288.9972	405.1459	419.106	459.8199	534.9585	609.1067	645.5243	693.5887	770.3297	794.7742	805.7735	849.5081	883.8804	891.175	909.0363	925.0676	936.7845	958.6171	982.5737	1009.6967	1023.0815	1069.2261	1092.0513	1127.5703	1132.3728	1166.4223	1200.964	1221.4484	1253.3899	1273.7692	1298.0723	1314.8778	1329.0463	1362.8551	1415.8985	1481.424	1489.1401	1492.2779	1627.6937	3038.4872	3060.908	3107.4554	3116.3357	3119.1186	3122.5506	3125.5517	3131.1641	3198.0543	3225.6505
CC12CC3C1C=CC3O2	C[C@@]12C[C@H]3[C@@H]1C=C[C@H]3O2	
InChI=1S/C8H10O/c1-8-4-5-6(8)2-3-7(5)9-8/h2-3,5-7H,4H2,1H3	InChI=1S/C8H10O/c1-8-4-5-6(8)2-3-7(5)9-8/h2-3,5-7H,4H2,1H3/t5-,6-,7+,8+/m0/s1
