19
gdb 77018	2.26419	1.18964	0.93241	1.1186	87.44	-0.2422	0.0454	0.2876	1328.8942	0.156001	-348.6773	-348.66731	-348.666366	-348.712446	36.967	
C	-0.0931990317	 1.5804743095	 0.1600074575	-0.409261
C	 0.0022483601	 0.0790755922	 0.0071129441	-0.050693
C	 0.5646417089	-0.5918504302	-1.2159857318	-0.020687
C	 1.0893077383	 0.1927193418	-2.4112310633	-0.381035
C	 1.8565119577	-0.6444866238	-3.328747186	 0.304835
C	 2.4729114597	-1.3508858253	-4.0805044664	-0.443986
C	 1.3447335965	-0.6521344523	 0.0969531312	-0.212252
C	 2.5640764996	 0.0822955173	 0.2591781767	 0.341716
C	 3.5894253409	 0.6963582117	 0.4031563968	-0.47424
H	 0.7958928615	 2.0899290037	-0.2172522104	 0.132616
H	-0.9661658184	 1.9728219007	-0.373006244	 0.117939
H	-0.1978816554	 1.8508426412	 1.2157186944	 0.122895
H	-0.8159850788	-0.4598664519	 0.4779707029	 0.092988
H	 0.0955978928	-1.5298764469	-1.4971685383	 0.102513
H	 0.2449737971	 0.6409627094	-2.9517579862	 0.130051
H	 1.7181120159	 1.0224883298	-2.071924908	 0.143905
H	 3.0283711791	-1.9654800295	-4.7443323797	 0.193566
H	 1.3318944245	-1.6105387877	 0.6076847361	 0.112761
H	 4.4997908416	 1.2276905503	 0.5295555543	 0.196369
43.1432	114.0412	134.4121	154.9669	166.1748	217.416	316.0905	334.9187	360.1846	452.0299	507.0955	574.583	585.7946	608.6077	613.8452	639.0482	651.4446	744.9184	793.7039	870.4789	914.2238	942.7829	978.6376	1001.8223	1048.0365	1105.1711	1121.2063	1148.1876	1165.7645	1241.8875	1260.9655	1315.8485	1366.1386	1388.7805	1422.6027	1437.0899	1463.6695	1492.4233	1503.0502	2230.6078	2240.5392	3020.3786	3037.9419	3072.0499	3095.4297	3123.0407	3139.2351	3144.0576	3158.7564	3504.9982	3508.273
CC1C(CC#C)C1C#C	C[C@H]1[C@@H](CC#C)[C@H]1C#C	
InChI=1S/C9H10/c1-4-6-9-7(3)8(9)5-2/h1-2,7-9H,6H2,3H3	InChI=1S/C9H10/c1-4-6-9-7(3)8(9)5-2/h1-2,7-9H,6H2,3H3/t7-,8+,9-/m1/s1
