21
gdb 101112	3.29664	1.04585	0.96774	0.8713	78.56	-0.2315	0.0761	0.3076	1315.3984	0.181116	-424.179777	-424.170257	-424.169313	-424.214272	35.45	
C	-0.030049009	 1.6444033676	 0.1291284243	-0.400771
C	-0.0340120097	 0.1145143832	 0.007905441	-0.088132
C	 0.7419720805	-0.5462978228	 1.1543234283	-0.079797
O	 2.0907050931	-0.1038060911	 1.0871010305	-0.425285
C	-1.4272908683	-0.4427283298	-0.0431938059	 0.502269
C	-1.8779457974	-1.7157337457	-0.6939311964	-0.343514
C	-2.5547921695	-0.4047577174	-1.0542243571	-0.207298
C	-3.4212210041	 0.0335672502	 0.1175657321	-0.086187
O	-2.3152859817	-0.1239697023	 1.0471761825	-0.333084
H	 0.9926243476	 2.0119924002	 0.2319621405	 0.130239
H	-0.4827849974	 2.1073605259	-0.7531074294	 0.105237
H	-0.6047131161	 1.9550062871	 1.0068565761	 0.126075
H	 0.4663230428	-0.1751123968	-0.9255403688	 0.085094
H	 0.2755100109	-0.2721139484	 2.1126132898	 0.104032
H	 0.6789061963	-1.6408932279	 1.0543378108	 0.087599
H	 2.5474823712	-0.413688882	 1.8739740721	 0.286654
H	-1.2209492112	-2.1087306702	-1.4639136465	 0.114416
H	-2.4051926191	-2.4649169854	-0.1086969344	 0.111336
H	-2.5904536755	-0.0125475766	-2.0617280874	 0.100347
H	-3.7344333084	 1.0826065357	 0.0685836283	 0.108584
H	-4.279065715	-0.5966259036	 0.3826570795	 0.102187
60.8738	107.1903	131.5892	198.5968	230.3428	234.5521	286.4349	309.7746	351.0228	417.8097	470.3272	513.6643	708.1883	759.3523	835.385	870.1434	898.5213	931.6878	955.2316	970.957	982.9675	996.1038	1014.8426	1022.8269	1072.2797	1074.3282	1103.966	1131.0001	1162.0076	1168.3809	1187.5471	1245.1034	1266.6833	1277.0763	1309.7157	1342.2556	1349.538	1396.92	1417.5927	1454.7212	1483.6756	1499.6885	1507.6046	1518.7871	1524.6766	2976.3817	3008.4461	3019.7756	3032.6862	3044.6927	3068.2897	3109.8763	3111.3843	3137.3425	3197.5774	3206.1442	3836.0029
CC(CO)C12CC1CO2	C[C@@H](CO)[C@]12C[C@H]1CO2	
InChI=1S/C7H12O2/c1-5(3-8)7-2-6(7)4-9-7/h5-6,8H,2-4H2,1H3	InChI=1S/C7H12O2/c1-5(3-8)7-2-6(7)4-9-7/h5-6,8H,2-4H2,1H3/t5-,6-,7+/m0/s1
