16
gdb 41041	3.62088	1.94878	1.58478	1.275	70.94	-0.2081	0.0517	0.2598	847.0629	0.125567	-400.592566	-400.586409	-400.585465	-400.62286	25.619	
C	 0.0425448953	 1.3715536243	-0.0863767694	-0.095736
C	 1.5275609854	 1.8674830505	 0.0586597362	-0.413389
C	 2.122188166	 0.7052309283	 0.8064005303	 0.323692
C	 3.2198985634	-0.2687016342	 1.0321158592	-0.139858
C	 2.1875434761	-1.439239289	 1.0157077681	-0.231295
C	 1.493457144	-0.7344744165	 2.2030343475	-0.128453
N	 2.5365916463	 0.3989143937	 2.2190087287	-0.230367
C	 1.0976772937	-0.3994218279	 0.7886854951	 0.413224
O	 0.0222627317	-0.0833095333	-0.0009722015	-0.299426
H	-0.5700882844	 1.7822875366	 0.725306557	 0.118287
H	-0.4099033971	 1.6369994209	-1.0434188098	 0.121441
H	 1.9922243029	 1.9932739131	-0.9233693583	 0.126275
H	 1.5788157136	 2.8202160432	 0.5902949177	 0.130751
H	 4.2925526346	-0.2108560963	 0.8797642142	 0.098026
H	 2.2541278475	-2.4964434176	 0.8014981896	 0.103249
H	 1.0131731009	-1.1599911558	 3.0756801753	 0.103577
146.2176	228.622	338.622	438.3376	574.2563	635.2469	669.2992	690.9652	761.2407	790.7288	811.0861	834.8166	854.2696	865.348	894.8858	914.8191	926.2053	938.0167	982.8928	1001.4817	1028.3739	1059.6856	1090.0793	1156.5688	1167.3283	1189.5179	1221.8258	1232.4619	1252.7957	1301.4558	1346.4251	1423.6759	1454.0255	1475.1299	1514.4833	3032.7794	3063.7896	3112.3839	3124.7803	3164.4684	3187.5022	3220.6572
C1CC23C4C5C(N24)C35O1	C1C[C@@]23[C@@H]4[C@H]5[C@@H](N24)[C@@]35O1	
InChI=1S/C7H7NO/c1-2-9-7-3-4-6(1,7)8(4)5(3)7/h3-5H,1-2H2	InChI=1S/C7H7NO/c1-2-9-7-3-4-6(1,7)8(4)5(3)7/h3-5H,1-2H2/t3-,4-,5+,6-,7+,8?/m0/s1
