20
gdb 13896	2.81023	1.62584	1.26266	2.2642	70.66	-0.2341	0.0457	0.2798	1050.4324	0.174969	-386.120858	-386.111448	-386.110504	-386.154699	34.951	
C	 0.0455964852	 1.3489645008	-0.3251951525	-0.390768
C	 0.0615716882	-0.1188448143	 0.1254388558	 0.024964
C	 0.7372740093	-0.2788735406	 1.4958622595	-0.390024
C	-1.3483702049	-0.6830974282	 0.1422864988	-0.081462
C	-2.0272079944	-1.1347823269	-1.1380366268	 0.08809
O	-1.3156522718	-1.1203961079	-2.337487372	-0.430363
C	-1.6304952744	-2.1569294265	-0.1060063143	 0.005937
O	-0.5968955404	-3.0028661468	-0.5422649024	-0.429387
H	 1.0586578411	 1.7648406957	-0.3484192357	 0.105134
H	-0.3850985147	 1.4367888824	-1.3259682311	 0.134613
H	-0.5505264479	 1.9639560458	 0.3596098949	 0.106298
H	 0.6423827408	-0.6829349084	-0.6122540739	 0.072516
H	 0.1922417572	 0.274432282	 2.2696626144	 0.11515
H	 0.7743374712	-1.3277423808	 1.8129986027	 0.092687
H	 1.7642174011	 0.1009211453	 1.4769875859	 0.113337
H	-2.004764248	-0.2191376794	 0.8772275964	 0.080014
H	-3.0806395435	-0.9092259093	-1.2783139313	 0.096376
H	-0.7475339021	-1.9030812964	-2.3218975257	 0.297246
H	-2.3965644225	-2.6572065909	 0.4835814426	 0.090799
H	 0.0832281405	-3.0441624956	 0.1375244247	 0.298843
54.3206	124.5652	170.0464	230.9374	250.0226	261.1122	282.7508	287.5914	333.7497	417.1179	424.1798	568.1246	602.4296	662.0797	771.7573	781.3422	862.3208	922.4692	927.8074	963.0776	1008.62	1037.053	1069.7353	1120.124	1141.1667	1165.4038	1183.0655	1196.9267	1236.7989	1285.5168	1301.494	1338.6791	1347.3036	1393.5493	1396.9277	1403.3545	1419.9418	1451.7891	1485.0373	1491.3077	1504.2721	1509.6033	3019.687	3027.1845	3046.982	3082.348	3089.1977	3097.4795	3109.4946	3118.6714	3120.3152	3146.388	3744.39	3814.7566
CC(C)C1C(O)C1O	CC(C)[C@H]1[C@@H](O)[C@H]1O	
InChI=1S/C6H12O2/c1-3(2)4-5(7)6(4)8/h3-8H,1-2H3	InChI=1S/C6H12O2/c1-3(2)4-5(7)6(4)8/h3-8H,1-2H3/t4-,5+,6-
