20
gdb 85958	2.91161	1.1804	1.07043	2.6994	75.23	-0.2303	0.0347	0.265	1234.8346	0.169229	-440.3219	-440.312084	-440.31114	-440.356774	36.441	
C	-0.33853359	 1.0972384928	 1.1326744708	-0.400486
C	 0.4246418951	-0.0742350782	 0.5535281887	 0.160616
C	 0.5956540527	-0.1713446167	-0.9764855725	-0.337748
C	 2.1137640849	-0.2013486569	-0.675897454	 0.333362
C	 2.9857385999	 0.8653993343	-1.3159840685	-0.44042
O	 1.8647665757	 0.0586592741	 0.7356671528	-0.350449
C	 2.7339815167	-1.5891375239	-0.9075562575	 0.339323
N	 3.0770685047	-2.2361720721	 0.2329598907	-0.520168
O	 2.8862884989	-2.0311388785	-2.0316801713	-0.385699
H	-0.0074339829	 2.0378775716	 0.6823707854	 0.121772
H	-1.4118279506	 0.9791437387	 0.9474696929	 0.120364
H	-0.1842023272	 1.1605041165	 2.2145281191	 0.127084
H	 0.0781047119	-1.014401424	 1.0039623047	 0.077471
H	 0.18841325	-1.0526535369	-1.4714646606	 0.126994
H	 0.2792055114	 0.7263494508	-1.5128202201	 0.107713
H	 2.5158125574	 1.8484731317	-1.2271278429	 0.113642
H	 3.9637585177	 0.9035956314	-0.8251806485	 0.126014
H	 3.1371195815	 0.6253571009	-2.371294009	 0.148793
H	 2.9365036637	-1.7756107286	 1.117070042	 0.271635
H	 3.5310557386	-3.1319860171	 0.1751940879	 0.260188
51.4922	63.3417	185.6757	220.7401	231.6563	237.5862	307.5526	319.236	332.7812	356.0816	449.2369	493.8287	536.2847	637.1895	663.4434	751.6676	778.0796	855.2587	885.0349	921.747	928.6221	936.5482	1015.4789	1061.5222	1094.2498	1115.1847	1151.7642	1193.8208	1210.5576	1229.4375	1259.7707	1318.9211	1370.2918	1388.5309	1395.9363	1410.4139	1480.6458	1484.0215	1491.2594	1491.7804	1499.9286	1583.2562	1795.3398	3007.3069	3034.1259	3041.4097	3075.7602	3106.2191	3112.8011	3114.5992	3135.0301	3142.2836	3592.2102	3736.1708
CC1CC(C)(O1)C(N)=O	C[C@H]1C[C@@](C)(O1)C(=O)N	
InChI=1S/C6H11NO2/c1-4-3-6(2,9-4)5(7)8/h4H,3H2,1-2H3,(H2,7,8)	InChI=1S/C6H11NO2/c1-4-3-6(2,9-4)5(7)8/h4H,3H2,1-2H3,(H2,7,8)/t4-,6+/m0/s1
