18
gdb 60739	3.45592	1.10966	0.90758	5.1753	76.35	-0.2431	-0.0073	0.2358	1278.1471	0.147457	-435.265286	-435.256083	-435.255138	-435.299877	32.802	
C	-0.5787501653	 1.4443801575	 0.0499629864	-0.344941
N	-0.1094620923	 0.0661783886	-0.0725995262	-0.125276
C	 0.3963435613	-0.560815102	 1.0592243905	 0.169747
O	 0.4792241218	-0.0237483917	 2.1400840165	-0.331039
C	-0.2093049881	-0.6454547872	-1.2804402993	 0.401629
N	-0.1146647787	-1.9163410061	-1.2951692426	-0.531824
N	-0.4973149412	 0.1888262755	-2.3749924769	-0.110946
C	 0.5076572532	 1.0830523693	-2.9451067729	-0.226671
C	 0.0183845856	-0.1127689973	-3.6947492203	-0.238472
H	 0.1322822972	 2.157131923	-0.3798538603	 0.127558
H	-1.5409419779	 1.5609207011	-0.4503806231	 0.145452
H	-0.6757215256	 1.6501891957	 1.1154178367	 0.168262
H	 0.7118173899	-1.5905293073	 0.8488040539	 0.137264
H	-0.1652060783	-2.2736033515	-2.2460010245	 0.221052
H	 0.1596789718	 2.0784841161	-3.2044170482	 0.133929
H	 1.5155355669	 1.0337332986	-2.5403711221	 0.138786
H	 0.706173847	-0.9501231523	-3.7927633105	 0.130325
H	-0.686319317	 0.0035173901	-4.5122753372	 0.135166
50.5951	100.1981	136.1711	168.3379	201.8256	242.8089	314.6815	331.5578	358.0667	451.0271	510.9295	668.4897	738.9538	788.1502	804.8458	836.8847	888.7512	950.2745	1029.9596	1047.1712	1054.0701	1076.7901	1124.1995	1143.2406	1158.0862	1173.5917	1175.8318	1222.4725	1292.8898	1340.8059	1397.9826	1423.127	1449.5751	1491.903	1497.0328	1517.9984	1522.6556	1699.4573	1797.0655	3048.0814	3069.9775	3107.1861	3111.4707	3121.0723	3168.3277	3193.3021	3206.9479	3521.1873
CN(C=O)C(=N)N1CC1	CN(C=O)C(=N)N1CC1	
InChI=1S/C5H9N3O/c1-7(4-9)5(6)8-2-3-8/h4,6H,2-3H2,1H3	InChI=1S/C5H9N3O/c1-7(4-9)5(6)8-2-3-8/h4,6H,2-3H2,1H3
