18
gdb 26105	3.21304	1.2236	1.09619	0.9074	72.93	-0.238	0.0071	0.2452	1162.7279	0.14656	-439.122124	-439.113212	-439.112268	-439.155647	33.37	
C	-0.3597976753	 1.4571189811	-0.1244820774	-0.416094
C	 0.029769971	-0.0206731314	 0.043318675	 0.227099
C	 0.9727585689	-0.2093223684	 1.2428832848	-0.416094
O	-1.1405754416	-0.830274428	 0.1971542832	-0.467719
C	 0.6846045691	-0.526232451	-1.2109731466	 0.278553
C	 0.2921264774	-1.5209515259	-2.0411632213	-0.123264
O	 1.2115868677	-1.6160665838	-3.053021172	-0.143218
C	 2.1185342567	-0.6579941467	-2.76867369	 0.067037
N	 1.8698443674	 0.0215787125	-1.6981448502	-0.319525
H	 0.5195245067	 2.0645822801	-0.3535576793	 0.139637
H	-1.0819159659	 1.5628170718	-0.9381222095	 0.123776
H	-0.8124092258	 1.8387258443	 0.7983288155	 0.099456
H	 0.5107020409	 0.1840587431	 2.1560131663	 0.099455
H	 1.1847451503	-1.2717421703	 1.3876845905	 0.123775
H	 1.9158747715	 0.3183636766	 1.079267872	 0.139642
H	-1.5925086446	-0.5371460713	 0.9947866089	 0.277824
H	-0.5373379126	-2.2029034129	-2.0642183486	 0.160618
H	 2.9479875583	-0.5543218996	-3.4504804712	 0.149044
61.6393	150.6328	186.7586	234.3122	240.2919	278.6034	325.4043	347.7405	356.5179	476.4164	493.3197	607.9858	645.0932	728.0708	792.4978	844.6332	848.7009	921.4979	936.8788	969.0666	991.1842	1017.5492	1091.1909	1116.6684	1136.8431	1192.0444	1207.2785	1229.7517	1268.3788	1340.9837	1388.3881	1389.6505	1408.7945	1476.5753	1483.2322	1494.5756	1508.2913	1556.1068	1634.3959	3028.5316	3034.1359	3103.7024	3108.8412	3130.2506	3133.4409	3275.0056	3319.6278	3821.0461
CC(C)(O)C1=COC=N1	CC(C)(O)c1cocn1	
InChI=1S/C6H9NO2/c1-6(2,8)5-3-9-4-7-5/h3-4,8H,1-2H3	InChI=1S/C6H9NO2/c1-6(2,8)5-3-9-4-7-5/h3-4,8H,1-2H3
