14
gdb 21936	3.6314	1.91385	1.30388	1.7042	59.46	-0.2095	0.018	0.2275	877.6942	0.1094	-415.867909	-415.860843	-415.859899	-415.899156	26.669	
O	 0.1455083975	 1.0977662554	-0.742903586	-0.419657
C	-0.0382106393	 0.0120886559	 0.182062731	-0.191626
C	-1.4317040299	-0.5247295628	 0.0998227171	 0.191477
N	-2.1102748944	-0.981587775	 1.1527100899	-0.289654
N	-3.2821257108	-1.3874818695	 0.6449184278	-0.185772
C	-3.3950500902	-1.1890931906	-0.7003807361	-0.127469
C	-2.1979648614	-0.6254591957	-1.0886858036	 0.213808
O	-1.8311855199	-0.2462970125	-2.3384839565	-0.44998
H	-0.4204405328	 1.8213971031	-0.4505029968	 0.293452
H	 0.6988915777	-0.7373258821	-0.1272289863	 0.131036
H	 0.2014662798	 0.3077250335	 1.2106290478	 0.12472
H	-3.9731423733	-1.7733332585	 1.2642599924	 0.275354
H	-4.2801703648	-1.4512884432	-1.2551578757	 0.134379
H	-1.0255715883	 0.2835674721	-2.2300172951	 0.299932
102.0223	192.8182	244.4781	325.2981	389.6172	425.5081	453.076	473.8877	636.0415	657.803	681.6744	718.2225	756.1465	768.5051	945.2049	974.3053	1024.7935	1067.9594	1163.5966	1188.8681	1226.758	1295.8548	1344.7038	1370.0697	1409.8618	1454.6067	1479.4614	1500.2137	1537.6709	1654.513	3030.9883	3072.3936	3276.205	3684.4192	3692.2826	3801.1398
OCC1=NNC=C1O	OCc1n[nH]cc1O	
InChI=1S/C4H6N2O2/c7-2-3-4(8)1-5-6-3/h1,7-8H,2H2,(H,5,6)	InChI=1S/C4H6N2O2/c7-2-3-4(8)1-5-6-3/h1,7-8H,2H2,(H,5,6)
