15
gdb 33913	4.05059	1.31688	1.19	4.3782	71.	-0.2557	-0.0031	0.2526	1022.7861	0.114053	-416.734105	-416.727218	-416.726274	-416.76546	26.791	
N	 0.0367890195	-1.1477032197	-0.1260633614	-0.340774
C	 0.0423090366	 0.007559566	-0.0421897376	 0.15131
C	 0.0356680276	 1.4230723969	 0.0936475362	 0.253937
N	 0.2578713802	 2.3246910691	-1.0663517077	-0.352633
C	 1.1834454091	 2.40639053	 0.0651975542	-0.124128
C	 0.5203670987	 3.268906335	 1.1640066082	-0.094864
C	-0.5663186851	 4.2753385491	 0.7166169322	-0.08572
O	-1.596446117	 3.2483144368	 0.7889843617	-0.277252
C	-0.6549841491	 2.2702647824	 1.2162246972	 0.050418
H	 0.6969592157	 1.7721781679	-1.8023134215	 0.254935
H	 2.2394283747	 2.1989424344	-0.0532658131	 0.124777
H	 1.1339103535	 3.4962917294	 2.0322840751	 0.099788
H	-0.7639717231	 5.0739003663	 1.439443395	 0.108847
H	-0.4671289279	 4.6833118679	-0.2916978531	 0.128982
H	-0.9559319836	 1.6986499786	 2.0964433843	 0.102375
130.0707	149.0647	243.0368	317.8736	405.2357	476.9342	551.3555	578.2164	632.6193	712.3376	803.3421	829.1367	853.0755	875.4247	932.3946	952.5664	988.5694	1001.3396	1015.5298	1048.4721	1056.6098	1134.6714	1167.1567	1188.5314	1208.9624	1236.6739	1263.356	1293.9471	1329.9089	1365.7296	1390.8066	1500.3939	2339.3268	3043.3287	3097.5698	3111.8559	3148.7501	3202.3645	3486.864
N#CC12NC1C1COC21	N#C[C@]12N[C@H]1[C@H]1CO[C@@H]21	
InChI=1S/C6H6N2O/c7-2-6-4(8-6)3-1-9-5(3)6/h3-5,8H,1H2	InChI=1S/C6H6N2O/c7-2-6-4(8-6)3-1-9-5(3)6/h3-5,8H,1H2/t3-,4+,5-,6+/m1/s1
