20
gdb 33132	3.04605	1.07556	0.80688	2.0968	83.34	-0.1854	0.057	0.2424	1447.6091	0.170381	-403.183773	-403.173989	-403.173045	-403.218815	35.44	
C	-0.0110112305	 1.5261638604	-0.0962967621	-0.391042
C	-0.0036128805	 0.0090355798	-0.0399911401	-0.040206
O	 0.6694888288	-0.4752756018	-1.1898264641	-0.273055
C	 0.7633424362	-1.82807941	-1.2950325082	 0.278305
C	 0.3004441345	-2.8093329405	-0.443152244	-0.216599
N	 0.6536086825	-4.0185744805	-1.008172892	-0.260557
C	 1.3212871527	-3.806327908	-2.1839472922	-0.150262
C	 1.4130718223	-2.4500939495	-2.403533178	 0.148391
C	 2.0547780496	-1.7429881766	-3.5560837741	-0.50169
H	 1.010867246	 1.915376145	-0.1131760732	 0.128561
H	-0.5259166522	 1.8751071492	-0.9958061945	 0.128554
H	-0.5243964448	 1.9353064979	 0.778951949	 0.114551
H	 0.5080806576	-0.3486170965	 0.8670611368	 0.095044
H	-1.0299881778	-0.3890185634	-0.0163670432	 0.095064
H	-0.2344755439	-2.759598582	 0.4888728464	 0.113342
H	 0.4497757621	-4.9170080265	-0.6111289927	 0.257366
H	 1.6819872716	-4.6310069	-2.7784299481	 0.112963
H	 1.3363587009	-1.1171696392	-4.0982977182	 0.124664
H	 2.8617528815	-1.0787613766	-3.2254003968	 0.124687
H	 2.4795275936	-2.4577645611	-4.2669126906	 0.111919
67.8968	97.6693	104.4623	131.3408	237.1956	244.3804	258.9931	296.7726	351.0115	381.4119	500.4496	617.8141	624.7517	627.3186	707.474	739.526	770.2082	829.2193	903.2297	927.8284	999.365	1065.8438	1072.487	1086.3271	1131.7282	1154.0595	1189.0992	1219.7648	1262.251	1293.1869	1347.4982	1393.0908	1405.7266	1418.823	1436.1613	1478.5452	1479.7667	1483.556	1500.4254	1501.3178	1527.2984	1577.7557	1635.1097	2975.3184	3005.1461	3024.6815	3045.6315	3071.4861	3104.6875	3119.9665	3122.9378	3255.2124	3282.1207	3703.4371
CCOC1=CNC=C1C	CCOc1c[nH]cc1C	
InChI=1S/C7H11NO/c1-3-9-7-5-8-4-6(7)2/h4-5,8H,3H2,1-2H3	InChI=1S/C7H11NO/c1-3-9-7-5-8-4-6(7)2/h4-5,8H,3H2,1-2H3
