12
gdb 10448	2.93929	1.77329	1.28949	6.0991	59.01	-0.3214	-0.0204	0.301	909.1844	0.082794	-377.513529	-377.506013	-377.505069	-377.546006	25.966	
N	-0.1596268952	-1.0562980286	 0.5000258122	-0.283738
C	-0.0746574037	 0.0431744071	 0.1584143077	 0.282279
C	 0.0239317725	 1.4369474642	-0.2745306311	-0.419246
C	 1.432537081	 2.0050506214	-0.1284147621	 0.251411
C	 1.6260168674	 3.4166538143	 0.2619629559	-0.206626
O	 1.8288316019	 2.3558745139	 1.1919672386	-0.230291
C	 2.4546564096	 1.3655621853	-0.9405056208	 0.273822
N	 3.2474701451	 0.8630101975	-1.613643403	-0.309867
H	-0.2961931162	 1.5100993635	-1.3198402391	 0.177349
H	-0.657686937	 2.0453078227	 0.3273635723	 0.172273
H	 2.5235257693	 3.9382344865	-0.0612977159	 0.154409
H	 0.7464805753	 4.0347664921	 0.4334710654	 0.138226
57.5908	117.2765	187.0354	238.8108	336.8439	356.211	383.066	489.3263	575.8245	587.3425	730.5883	839.3817	899.4157	943.813	966.3211	989.8834	1132.4153	1168.9699	1196.8773	1270.3813	1324.0558	1388.383	1446.9263	1521.6891	2365.3865	2373.4729	3055.3711	3097.6638	3104.886	3197.18
N#CCC1(CO1)C#N	N#CC[C@]1(CO1)C#N	
InChI=1S/C5H4N2O/c6-2-1-5(3-7)4-8-5/h1,4H2	InChI=1S/C5H4N2O/c6-2-1-5(3-7)4-8-5/h1,4H2/t5-/m1/s1
