21
gdb 114391	4.09451	0.94969	0.90291	0.4078	79.21	-0.2228	0.0712	0.294	1398.9864	0.18019	-424.186079	-424.176547	-424.175603	-424.219993	36.308	
C	-0.075959812	 1.4736283954	-0.2328187545	-0.386103
C	-0.0319680473	-0.0208045338	 0.0972236662	-0.184652
C	-1.4194481006	-0.6329344282	 0.1849604938	 0.118241
O	-2.1085820966	-0.5728169685	-1.1092756346	-0.301411
C	-2.0823664466	-1.9971994481	-1.2035526406	 0.014318
C	-1.4730363128	-2.156971977	 0.1768958984	-0.181521
C	-2.8785168444	-2.648527126	-0.1015619945	 0.354276
C	-4.1372698035	-2.0529265277	 0.4784734506	-0.463362
O	-2.8589996968	-4.0544174286	-0.1678953102	-0.464311
H	 0.932285805	 1.8866903921	-0.3287813018	 0.112089
H	-0.6052871539	 1.6385420086	-1.17534268	 0.137567
H	-0.5960273892	 2.0378693826	 0.5492201588	 0.112516
H	 0.5429691958	-0.5611839121	-0.6641317615	 0.103254
H	 0.4748227777	-0.1874310998	 1.0573846616	 0.095513
H	-2.0116825304	-0.1264666506	 0.9593180326	 0.076402
H	-1.8659336675	-2.4552901762	-2.1629361129	 0.100714
H	-0.7034773534	-2.8283674548	 0.534396147	 0.103293
H	-4.1328721152	-0.9643590434	 0.3957128336	 0.141303
H	-5.012986347	-2.4190123973	-0.0719477837	 0.105335
H	-4.2578098611	-2.3351584102	 1.5291297171	 0.123181
H	-3.5528707703	-4.3275477264	-0.7788026152	 0.283357
92.1042	126.1826	167.1083	194.6241	235.6175	266.1531	289.4823	316.2275	331.059	406.269	459.2961	508.847	534.3262	698.1476	757.3681	826.1474	849.2836	875.329	912.3861	931.459	969.4719	994.9037	1016.0989	1035.8586	1046.4965	1087.8403	1098.1828	1110.8668	1136.9369	1191.6291	1210.7389	1276.7498	1279.9476	1297.8965	1312.2887	1344.0756	1405.241	1407.3574	1410.3408	1432.8834	1476.5676	1492.9391	1497.2322	1499.1426	1510.1627	3011.663	3020.6202	3027.8966	3037.5271	3064.2843	3089.3178	3104.6983	3121.1447	3137.4714	3166.4341	3203.1142	3790.8395
CCC1OC2C1C2(C)O	CC[C@H]1O[C@H]2[C@@H]1[C@]2(C)O	
InChI=1S/C7H12O2/c1-3-4-5-6(9-4)7(5,2)8/h4-6,8H,3H2,1-2H3	InChI=1S/C7H12O2/c1-3-4-5-6(9-4)7(5,2)8/h4-6,8H,3H2,1-2H3/t4-,5-,6+,7+/m1/s1
