16
gdb 5553	3.21579	1.82114	1.20184	1.7216	69.29	-0.1722	0.0437	0.2159	971.3919	0.131919	-379.941865	-379.933746	-379.932802	-379.97447	29.991	
N	 0.0607838057	 1.4561891142	-0.0241290972	-0.609878
C	 0.0242554352	 0.0453633092	-0.013270186	 0.156729
C	-1.0925079177	-0.7603832188	 0.1042349871	 0.270231
C	-2.5404161183	-0.4490902753	 0.2190315304	-0.211982
O	-3.271316774	-1.4288581698	-0.5253460617	-0.424776
N	-0.6485172064	-2.067515797	 0.1923690434	-0.283486
C	 0.7107923829	-2.1045768838	 0.0893041706	-0.082048
C	 1.1657992081	-0.8094478996	-0.0193143776	-0.213244
H	 0.8261207709	 1.8022276686	-0.5903244749	 0.2383
H	-0.7992429839	 1.8610492291	-0.3752445971	 0.232508
H	-2.8776643464	-0.459376578	 1.2701539554	 0.097349
H	-2.7286021169	 0.5682964798	-0.1613047214	 0.088007
H	-4.1985614764	-1.3538384202	-0.2791135667	 0.286261
H	-1.2728223032	-2.8525224686	 0.128050046	 0.261756
H	 1.2472731819	-3.0398183005	 0.0915736251	 0.111659
H	 2.1975991486	-0.4980394794	-0.0836018454	 0.082614
63.5413	148.2037	181.1463	232.7447	290.5273	312.458	344.0806	474.0387	503.1608	622.9386	642.2702	674.1557	710.3043	752.2448	789.9729	812.8338	916.8425	1003.7366	1028.3125	1059.1335	1090.4306	1136.1071	1215.8457	1224.5403	1253.3599	1294.9486	1340.4576	1436.3647	1463.6996	1506.4356	1512.5938	1520.9355	1641.4662	1662.3008	2939.7337	2972.3112	3239.5841	3267.0656	3516.6284	3604.4073	3685.3546	3818.4163
NC1=C(CO)NC=C1	Nc1c(CO)[nH]cc1	
InChI=1S/C5H8N2O/c6-4-1-2-7-5(4)3-8/h1-2,7-8H,3,6H2	InChI=1S/C5H8N2O/c6-4-1-2-7-5(4)3-8/h1-2,7-8H,3,6H2
