17
gdb 44378	3.40921	1.6513	1.384	3.738	71.38	-0.2115	0.0276	0.239	939.2774	0.139361	-417.996894	-417.990221	-417.989277	-418.027863	27.326	
O	 0.0032055837	-0.1116433995	-0.2376598174	-0.374403
C	-0.031217031	 1.0899151801	-0.058766971	 0.376098
C	-1.3460033749	 1.8786388711	 0.0515450396	-0.291933
N	-1.2409451303	 3.16910525	 0.7292966061	-0.112542
C	-0.5538172937	 3.1436649837	 2.0668531565	-0.193029
C	 0.5965240209	 3.9673900348	 1.500954677	-0.112789
C	 1.1212496187	 3.2736697193	 0.249519876	 0.011045
N	 1.1021381444	 1.8498033035	 0.0741456529	-0.311656
C	-0.1681424888	 4.0140852285	 0.1809681241	-0.047095
H	-1.7370286722	 2.0420504061	-0.9599270405	 0.133163
H	-2.0633409174	 1.2344257852	 0.5675586023	 0.138095
H	-1.1503364795	 3.6653109655	 2.8199491453	 0.118134
H	-0.2975554272	 2.1442530419	 2.4394174621	 0.114027
H	 1.1438653155	 4.7539339713	 2.0037440946	 0.09748
H	 1.9747793659	 3.7605280416	-0.2125988572	 0.109688
H	 1.9667062442	 1.3301784847	 0.1207203268	 0.24693
H	-0.3858066583	 4.8234142223	-0.5075942873	 0.098787
100.0127	236.8742	351.983	422.3328	443.8915	460.9453	523.3572	563.45	624.0004	713.6561	752.4443	793.4878	808.7737	867.184	886.7196	922.6298	958.6988	994.6163	1039.8991	1052.9445	1058.0411	1082.6519	1097.5624	1139.5012	1176.7333	1212.7415	1258.1203	1272.9821	1300.2479	1313.5747	1331.7176	1366.1763	1420.6992	1454.1585	1470.9768	1505.7822	1798.8749	3027.9588	3044.6852	3088.4277	3101.6533	3155.6692	3166.5847	3202.5486	3606.3151
O=C1CN2CC3C(N1)C23	O=C1CN2C[C@H]3[C@@H](N1)[C@@H]23	
InChI=1S/C6H8N2O/c9-4-2-8-1-3-5(7-4)6(3)8/h3,5-6H,1-2H2,(H,7,9)	InChI=1S/C6H8N2O/c9-4-2-8-1-3-5(7-4)6(3)8/h3,5-6H,1-2H2,(H,7,9)/t3-,5+,6-/m0/s1
