22
gdb 75606	2.28307	1.59206	1.11012	2.085	83.51	-0.2405	0.0173	0.2578	1188.8295	0.19561	-404.365978	-404.357063	-404.356119	-404.399259	34.374	
C	-0.0371960377	 1.49805138	-0.031650725	-0.460414
C	 0.0065353359	-0.0029389487	-0.0599535934	 0.365841
N	 0.0414244411	-0.6589951719	-1.137920059	-0.258514
C	 0.085311641	-2.1199609879	-1.0648537382	-0.148057
C	-1.3069045259	-2.7571905475	-0.903435806	-0.185819
C	-1.920352859	-2.7560717124	 0.5099954343	-0.178185
C	-2.2825096681	-1.3831252868	 1.1104988317	-0.210691
C	-1.1594382242	-0.7054013588	 1.8978734866	-0.081138
O	 0.0738006236	-0.6090652642	 1.1802441837	-0.257092
H	 0.8276587713	 1.8863715226	 0.5166502423	 0.138986
H	-0.0352830084	 1.8886176913	-1.0489024628	 0.144369
H	-0.9325673823	 1.8581071179	 0.4879443308	 0.127892
H	 0.5143305049	-2.4686131723	-2.0096627484	 0.094161
H	 0.739556777	-2.4629955847	-0.2535084389	 0.103469
H	-1.9965892883	-2.2659862802	-1.601723977	 0.103221
H	-1.2314895591	-3.8017174954	-1.230250072	 0.093685
H	-2.836222697	-3.3567757385	 0.4603779624	 0.095394
H	-1.2496429951	-3.2870299129	 1.1987513407	 0.097235
H	-2.6425055021	-0.7144617225	 0.3186891808	 0.108522
H	-3.1188209306	-1.4964184427	 1.8118238524	 0.096254
H	-1.4831505457	 0.2893015281	 2.2387163579	 0.096293
H	-0.9112134013	-1.2944541325	 2.786122387	 0.114587
107.34	134.0821	173.4517	182.6465	241.4148	304.7636	339.8676	359.5546	405.2917	472.2895	507.6747	602.8021	676.4407	738.4143	791.8771	808.7968	877.2081	890.5439	950.0525	975.6364	1005.6061	1022.5177	1062.1188	1079.3503	1107.788	1114.9759	1146.4413	1207.7055	1218.6179	1245.6887	1285.436	1301.2302	1312.9954	1371.7153	1381.4437	1386.4789	1393.5791	1402.2143	1416.6303	1472.5731	1473.2148	1477.8182	1482.1649	1484.3346	1500.5732	1506.9816	1762.6307	2994.6429	3015.6905	3020.2615	3021.7701	3024.9846	3038.593	3054.1269	3058.1583	3064.3837	3071.1119	3084.7928	3092.4116	3158.7892
CC1=NCCCCCO1	CC1=NCCCCCO1	
InChI=1S/C7H13NO/c1-7-8-5-3-2-4-6-9-7/h2-6H2,1H3/b8-7-	InChI=1S/C7H13NO/c1-7-8-5-3-2-4-6-9-7/h2-6H2,1H3/b8-7-
