15
gdb 29455	3.427	1.61003	1.10289	1.6354	72.15	-0.2054	0.0194	0.2248	1039.9727	0.114303	-420.656772	-420.649755	-420.648811	-420.688138	27.192	
C	-0.0168566974	 1.5322352578	-0.0252432405	-0.502072
C	-0.0068246692	 0.0385247353	 0.046671998	 0.074444
C	-0.0323322194	-0.824053219	-1.0098727891	-0.109449
O	-0.0136630469	-2.1635221387	-0.6140379865	-0.213653
C	 0.0238673949	-2.0749077108	 0.714539985	 0.416775
C	 0.0313901651	-0.8099528264	 1.2182440851	 0.12747
C	 0.0732479901	-1.0099804376	 2.6451980441	-0.360297
C	 0.0856994416	-2.3593628048	 2.8296466737	-0.014518
O	 0.0550130081	-3.0524659952	 1.6209068411	-0.207866
H	 0.8771538985	 1.9597785294	 0.4428513694	 0.132968
H	-0.0508729013	 1.8777996815	-1.0620198498	 0.127179
H	-0.8844974242	 1.950516301	 0.4975970782	 0.132932
H	-0.0637364992	-0.6742039463	-2.0757489999	 0.139171
H	 0.0918631077	-0.2751735378	 3.4348607211	 0.116358
H	 0.1139873115	-2.9881448485	 3.7026079001	 0.140557
150.0718	175.6849	232.2515	239.0591	392.0985	517.7186	582.9905	593.1747	597.5881	679.874	690.4024	697.3766	753.2847	780.5439	819.2806	913.9667	1008.0165	1017.3278	1062.8863	1063.7434	1096.1387	1161.998	1203.4153	1249.594	1321.1478	1419.8025	1435.2033	1480.4506	1492.1462	1518.9873	1554.6693	1580.9941	1629.6729	3029.2854	3080.1425	3112.8964	3255.2119	3286.549	3297.5409
CC1=COC2=C1C=CO2	Cc1coc2c1cco2	
InChI=1S/C7H6O2/c1-5-4-9-7-6(5)2-3-8-7/h2-4H,1H3	InChI=1S/C7H6O2/c1-5-4-9-7-6(5)2-3-8-7/h2-4H,1H3
