21
gdb 85229	2.63943	1.46314	1.08333	3.0214	82.7	-0.2331	-0.0062	0.2269	1188.7338	0.182327	-387.127813	-387.118855	-387.117911	-387.161071	34.602	
C	 0.0521487388	 1.6034164065	 0.0032339822	-0.396597
C	 0.0187788214	 0.0744018566	 0.03716405	 0.015266
C	 0.642764367	-0.6117229473	-1.1991410627	-0.358469
C	 1.2058388551	-1.9433258281	-0.6819804635	 0.364437
O	 1.3505200899	-2.9499750195	-1.3326743166	-0.33369
C	 1.462879295	-1.8212646383	 0.7908142722	 0.221203
C	 1.5804855566	-3.0857023901	 1.6028202087	-0.482355
C	 2.2552587404	-0.5698547956	 1.1647709126	-0.328144
C	 0.7609429614	-0.5419795336	 1.228438952	-0.079815
H	 1.0820199283	 1.972913853	-0.0521742472	 0.11556
H	-0.490746458	 1.9915988881	-0.8648440538	 0.11644
H	-0.4068148469	 2.0287537228	 0.9020680704	 0.114216
H	-1.0284650407	-0.2473005098	 0.1069661188	 0.082143
H	-0.0640509363	-0.7916498419	-2.0113305988	 0.126707
H	 1.4636476953	-0.0165968048	-1.6198488177	 0.123313
H	 2.4184287211	-3.6931584472	 1.247546847	 0.136721
H	 1.7424659217	-2.8617296548	 2.6613586998	 0.110361
H	 0.67560772	-3.6955893153	 1.5160937517	 0.126512
H	 2.7975016165	-0.6333988864	 2.1021502999	 0.120141
H	 2.7773339781	-0.0154770245	 0.3917439693	 0.117009
H	 0.2894442254	-0.4951355099	 2.2048751656	 0.089041
104.0357	131.6768	163.222	225.5189	236.786	275.5909	296.9173	372.6788	466.7909	480.9826	527.3434	559.7062	666.2677	678.3547	783.9886	835.7549	859.9962	904.6649	912.9492	966.1463	983.8306	1025.0345	1037.7119	1050.4858	1071.1198	1109.4128	1115.9079	1127.5298	1158.6849	1203.6739	1255.4811	1283.3684	1314.0246	1341.5913	1367.7995	1399.4342	1412.1574	1420.5523	1459.2626	1482.8706	1494.0354	1496.4242	1497.2426	1501.3219	1825.0652	3016.7088	3028.8593	3034.4589	3037.7097	3097.9779	3099.7583	3104.277	3111.4102	3115.1545	3129.4396	3160.5562	3212.5332
CC1CC(=O)C2(C)CC12	C[C@H]1CC(=O)[C@@]2(C)C[C@@H]12	
InChI=1S/C8H12O/c1-5-3-7(9)8(2)4-6(5)8/h5-6H,3-4H2,1-2H3	InChI=1S/C8H12O/c1-5-3-7(9)8(2)4-6(5)8/h5-6H,3-4H2,1-2H3/t5-,6-,8-/m0/s1
