22
gdb 11623	5.24198	0.81883	0.74838	1.4368	78.97	-0.2571	0.0741	0.3311	1572.3766	0.19899	-350.197461	-350.187844	-350.186899	-350.232341	35.365	
C	 0.0014199994	 1.5082835386	-0.1460583032	-0.401199
C	 0.0120196475	-0.0074898192	 0.0550435208	 0.136143
O	 0.6507843043	-0.3568001368	 1.283558044	-0.428164
C	-1.3904058279	-0.6206201633	-0.0466816015	-0.182804
C	-1.401027084	-2.1491341159	 0.078909235	-0.201171
C	-2.7936107211	-2.7410738321	 0.041631139	 0.033794
C	-3.4674047179	-3.0376183869	-1.275965149	-0.25622
C	-3.0119413239	-4.1692734451	-0.3855992874	-0.276271
H	 1.0127835673	 1.9121922886	-0.0483573994	 0.122303
H	-0.3876127797	 1.7760935025	-1.1338425091	 0.114639
H	-0.6350809628	 1.9946595274	 0.6043192248	 0.104055
H	 0.6503711671	-0.4628487285	-0.713505458	 0.085725
H	 0.1499531389	 0.0562045275	 1.9962393357	 0.273981
H	-2.0226593737	-0.1805527785	 0.7402252761	 0.078522
H	-1.8442079834	-0.3225070492	-1.0004747191	 0.095782
H	-0.8037858241	-2.5824548623	-0.7353434313	 0.086954
H	-0.8944684779	-2.4304884783	 1.0092205379	 0.107993
H	-3.450972235	-2.3832665535	 0.8315474811	 0.075325
H	-4.5317869142	-2.8534943651	-1.3729700586	 0.107305
H	-2.9026421405	-2.8527149873	-2.1846219985	 0.106241
H	-2.1439267992	-4.7408429372	-0.6983476058	 0.109161
H	-3.7653655191	-4.7560652655	 0.1284179963	 0.107904
56.5935	70.163	121.0268	145.5182	243.2571	249.5776	292.9371	303.3185	383.1769	426.2572	481.6655	492.4174	761.9965	775.1163	820.09	832.9229	849.9441	913.9881	933.0976	955.9878	992.2123	1041.5713	1046.4661	1063.5676	1075.9505	1102.4124	1121.193	1139.9025	1175.7005	1198.4675	1226.4114	1233.9917	1274.7597	1300.8308	1342.2973	1351.5124	1391.9064	1402.8536	1419.2568	1421.5516	1468.8637	1475.3988	1491.3763	1495.3714	1497.784	1509.1652	2990.752	3014.7309	3021.1977	3029.5595	3045.2554	3069.7086	3092.4342	3117.0557	3124.4322	3125.5619	3131.5985	3203.0034	3218.4358	3792.9139
CC(O)CCC1CC1	C[C@@H](O)CCC1CC1	
InChI=1S/C7H14O/c1-6(8)2-3-7-4-5-7/h6-8H,2-5H2,1H3	InChI=1S/C7H14O/c1-6(8)2-3-7-4-5-7/h6-8H,2-5H2,1H3/t6-/m1/s1
