23
gdb 115302	4.00452	0.91437	0.78692	0.9781	89.3	-0.2299	0.0319	0.2617	1535.0295	0.20591	-388.309835	-388.300211	-388.299267	-388.344238	36.249	
C	 0.0770205681	 1.3642825999	 0.1363506223	-0.239072
O	 0.0053516887	-0.0130692762	-0.145214949	-0.24767
C	-1.2978049214	-0.56846887	-0.0684919242	 0.137651
C	-1.2436655509	-1.946555015	-0.7202612535	-0.223233
C	-2.6357233401	-2.5881807162	-0.7692986558	-0.301765
C	-3.3991016778	-2.4479593954	 0.5293201791	 0.327519
C	-4.6234796395	-3.31022977	 0.6737603115	-0.473962
C	-3.0063696913	-1.5972612153	 1.4809471586	-0.149227
C	-1.808401832	-0.6881960266	 1.3759325611	-0.269504
H	 1.1037336553	 1.6812439693	-0.0649574843	 0.124162
H	-0.6036621634	 1.946898778	-0.5052801588	 0.100163
H	-0.1578580973	 1.5980813844	 1.185151688	 0.105412
H	-1.9969853497	 0.0693767069	-0.6386905496	 0.059781
H	-0.8178852179	-1.8577041162	-1.7242700271	 0.098498
H	-0.5608414483	-2.5757655974	-0.1364605184	 0.104689
H	-3.2303983138	-2.1457675073	-1.5833333467	 0.105108
H	-2.5453384114	-3.6515031683	-1.0278960952	 0.100357
H	-4.3664165635	-4.3764021399	 0.6229672889	 0.120304
H	-5.1394476785	-3.1289171944	 1.620476758	 0.117771
H	-5.3350287164	-3.1258886432	-0.1420273179	 0.119768
H	-3.5809270223	-1.5338240839	 2.4032152547	 0.073367
H	-0.9830921933	-1.0610707827	 2.0007490858	 0.111934
H	-2.0658784132	 0.2996499594	 1.7773736527	 0.097949
73.5333	94.8708	177.0666	190.6525	203.8007	250.8808	278.0507	324.5855	368.5757	440.1684	452.2473	482.6471	527.5945	661.2777	770.9367	820.8934	828.9612	923.8455	935.5135	966.2105	1016.2742	1031.8901	1045.8356	1067.7333	1101.286	1131.123	1153.6562	1159.0104	1174.9286	1183.4207	1217.5543	1252.4481	1265.2919	1322.9875	1334.325	1344.7098	1382.6673	1391.4917	1408.874	1415.9682	1475.5741	1478.8586	1480.5455	1481.7382	1492.499	1494.0836	1502.245	1511.7436	1742.2838	2939.133	2971.8121	2991.734	3000.8734	3012.1045	3020.8071	3026.7696	3042.1925	3045.6091	3056.3951	3087.0527	3106.766	3109.3509	3139.9387
COC1CCC(C)=CC1	CO[C@H]1CCC(=CC1)C	
InChI=1S/C8H14O/c1-7-3-5-8(9-2)6-4-7/h3,8H,4-6H2,1-2H3	InChI=1S/C8H14O/c1-7-3-5-8(9-2)6-4-7/h3,8H,4-6H2,1-2H3/t8-/m1/s1
