13
gdb 131765	2.49354	1.64547	1.03023	1.6865	61.64	-0.2896	-0.1042	0.1853	1057.1796	0.088911	-489.843814	-489.836279	-489.835335	-489.876273	26.921	
O	 0.4690030604	 0.3537503354	-0.9605002743	-0.412247
C	-0.4448050189	 0.579497833	 0.082787073	-0.186379
C	-1.5670674112	-0.4263929982	 0.0898456937	 0.248767
N	-1.9366281437	-1.07790538	 1.1556394532	-0.128737
O	-2.9920387284	-1.8824013087	 0.7632055103	-0.139267
N	-3.2667423977	-1.7309773755	-0.5434573266	-0.110386
C	-2.4106243474	-0.8445672681	-0.9939751742	 0.18687
C	-2.4363578972	-0.4353035192	-2.4048988776	 0.097339
O	-1.6410172665	 0.3386127182	-2.8931921019	-0.269947
H	 0.0021555292	 0.5311135551	-1.7913112686	 0.307347
H	 0.0971881133	 0.4969251275	 1.0279995019	 0.149613
H	-0.884780979	 1.5885527853	 0.0415117784	 0.120032
H	-3.2499511229	-0.8874084047	-2.9997792675	 0.136994
109.4128	130.7017	198.7921	212.9486	293.401	319.0819	434.6283	508.8916	601.7843	652.072	680.0863	742.5638	798.4815	867.8353	963.1465	995.5347	1039.3085	1072.2582	1095.0216	1222.4274	1261.9355	1386.6714	1394.6828	1447.7631	1456.3272	1486.2339	1496.8842	1596.4426	1782.0388	2982.8476	2985.7571	3107.1521	3704.1785
OCC1=NON=C1C=O	OCc1nonc1C=O	
InChI=1S/C4H4N2O3/c7-1-3-4(2-8)6-9-5-3/h1,8H,2H2	InChI=1S/C4H4N2O3/c7-1-3-4(2-8)6-9-5-3/h1,8H,2H2
