15
gdb 29051	2.74552	1.76321	1.07368	1.722	88.26	-0.2117	-0.0824	0.1294	1046.7075	0.115216	-413.004833	-412.997425	-412.996481	-413.037055	28.497	
N	 0.0160345646	 1.3436635373	 0.0083851904	-0.525291
C	-0.0176445219	 0.0029961496	 0.0011596893	 0.33212
C	-1.2337335319	-0.6665989919	 0.0044331692	-0.092078
N	-1.5222863964	-1.9761391865	-0.0009424739	-0.237893
C	-0.6670498844	-2.9599117303	-0.010825719	-0.024803
C	 0.7650024476	-2.9235870678	-0.0184321042	 0.014608
N	 1.6204874155	-1.9496733201	-0.018241694	-0.332572
C	 1.3559936389	-0.5945013644	-0.0100128543	 0.299439
N	 2.3127007334	 0.2680078252	-0.0118116693	-0.526428
H	 0.9402953881	 1.7602112992	 0.0045022618	 0.290432
H	-0.8225579793	 1.8980457231	 0.0152268241	 0.267601
H	-2.1147970797	-0.023521678	 0.0128283682	 0.090476
H	-1.0984564355	-3.9609082103	-0.0137156763	 0.105914
H	 1.2229104957	-3.917462219	-0.025894686	 0.111795
H	 3.2046673552	-0.2270620664	-0.0197141262	 0.22668
52.322	156.604	332.3331	372.3619	383.9561	384.7023	427.5816	453.2443	518.3731	635.766	665.6661	672.7756	758.3205	799.8203	847.1009	895.1748	902.4725	923.4738	968.2644	997.1772	1033.5328	1097.9964	1248.5135	1314.9307	1382.7639	1436.2173	1446.2764	1474.9482	1489.213	1574.209	1604.0906	1641.5715	1662.6684	3077.8099	3108.0931	3126.9044	3488.2667	3512.2974	3706.2753
NC1=CN=CC=NC1=N	N[C]1C=NC=CN=C1[NH]	
InChI=1S/C5H6N4/c6-4-3-8-1-2-9-5(4)7/h1-3H,(H3,6,7,9)	InChI=1S/C5H6N4/c6-4-3-8-1-2-9-5(4)7/h1-3H,(H3,6,7,9)
