22
gdb 111680	2.41767	1.29425	1.13455	2.1115	80.94	-0.2255	0.062	0.2875	1218.5901	0.195654	-404.323395	-404.31434	-404.313396	-404.357148	34.695	
C	-0.5098266886	 1.5859038645	 0.4909540775	-0.406907
C	-0.1034373569	 0.132552672	 0.229972842	 0.0343
C	 0.5564691635	-0.1202716832	-1.1482355854	-0.255246
C	 1.6124932657	-1.224545406	-0.888000781	-0.163907
N	 1.8536904715	-1.3459233911	 0.5679120239	-0.128708
C	 2.330792354	-0.1180713797	 1.2497463288	-0.022739
C	 3.0412011339	 1.0260290505	 0.5623978821	-0.095056
O	 4.4298454788	 0.750091083	 0.4175656226	-0.423826
C	 0.8799390583	-0.4576743561	 1.2355737122	-0.068442
H	 0.3514788684	 2.2586894438	 0.4244909823	 0.120868
H	-1.254288208	 1.9224345	-0.2380985859	 0.11632
H	-0.947517357	 1.7014954142	 1.4879898614	 0.117267
H	-1.007857998	-0.4860120439	 0.2981182334	 0.080669
H	-0.1783851422	-0.4334047132	-1.8951305206	 0.101824
H	 1.0134146786	 0.7966316912	-1.5303920971	 0.108885
H	 1.2439173803	-2.1992542811	-1.2229178733	 0.111631
H	 2.5515402759	-1.0406309955	-1.4226880286	 0.095276
H	 2.8538743538	-0.3752690127	 2.1712614766	 0.09846
H	 2.5930049139	 1.2901608695	-0.4017269074	 0.09075
H	 2.9854004146	 1.9166505658	 1.1983357501	 0.114631
H	 4.5114318441	-0.1026371947	-0.0220555438	 0.287877
H	 0.4485670155	-0.8358876775	 2.1605691501	 0.086072
79.9457	102.3623	172.5601	219.2938	237.3589	264.612	304.4514	340.6081	404.34	502.1651	540.9275	652.6402	700.9232	725.9264	773.19	834.7924	856.9514	907.0485	956.6812	974.4933	978.3674	1027.991	1050.7034	1060.9072	1079.7559	1106.6693	1151.0514	1158.8834	1178.5937	1214.0572	1224.5904	1249.6143	1296.2164	1311.6193	1331.7975	1339.7968	1347.4158	1369.2667	1388.6109	1412.2034	1418.849	1451.9286	1496.4264	1497.3544	1500.5576	1503.0569	1521.1877	3013.7716	3032.1882	3035.6651	3038.7722	3059.231	3068.7292	3072.2703	3097.9596	3099.4935	3102.8593	3105.7414	3121.5804	3815.328
CC1CCN2C(CO)C12	C[C@H]1CCN2[C@@H](CO)[C@@H]12	
InChI=1S/C7H13NO/c1-5-2-3-8-6(4-9)7(5)8/h5-7,9H,2-4H2,1H3	InChI=1S/C7H13NO/c1-5-2-3-8-6(4-9)7(5)8/h5-7,9H,2-4H2,1H3/t5-,6-,7+,8?/m0/s1
