18
gdb 43624	5.2768	0.88363	0.80238	1.3138	73.68	-0.2563	0.0234	0.2797	1398.7546	0.14815	-439.058721	-439.050491	-439.049547	-439.092913	29.79	
N	 0.1124645134	 1.096644094	 0.5505472125	-0.536186
C	 0.002124374	-0.0192473496	-0.0075174478	 0.437285
C	-1.1522568985	-0.9465058216	-0.3243941275	-0.389805
C	-0.055499399	-1.836569013	-0.9519130146	 0.119638
O	 0.9591160172	-0.8414068817	-0.571708489	-0.267168
C	 0.2210130238	-3.1830579253	-0.3302211483	-0.046188
C	-0.6532236242	-4.3388496327	-0.8724755228	-0.089162
O	 0.4673677435	-4.921974049	-1.5633387053	-0.268989
C	 1.3829956051	-3.9784781707	-0.9673044715	-0.086663
H	 1.0847272981	 1.4093112991	 0.5680729152	 0.229414
H	-1.6556486676	-1.3630925908	 0.5505368438	 0.136795
H	-1.8941581124	-0.5361642293	-1.0106382337	 0.141485
H	-0.098640518	-1.9107498289	-2.0438602588	 0.101349
H	 0.2603824641	-3.0917509172	 0.7577719111	 0.087126
H	-1.0590703399	-5.0075029376	-0.1028519102	 0.105139
H	-1.462172729	-4.0576018673	-1.5590973005	 0.104682
H	 1.9794018145	-3.4467397801	-1.7178752906	 0.115188
H	 2.058674145	-4.4593488185	-0.249367292	 0.10606
56.8419	64.9528	90.7699	174.8512	311.6823	344.2089	394.1854	494.8311	511.8532	735.318	787.3807	837.1583	867.0187	879.4482	926.9824	941.4037	963.5961	966.9358	1012.3771	1033.0458	1041.9469	1052.6013	1080.2712	1113.8812	1156.7402	1163.4186	1221.6878	1230.1918	1241.2153	1251.5179	1307.4887	1310.3701	1331.7584	1380.1825	1420.6853	1466.0038	1511.8019	1537.7987	1828.332	3006.5333	3021.0884	3048.4173	3054.4272	3063.762	3085.6679	3088.4277	3141.8596	3477.491
N=C1CC(O1)C1COC1	[NH][C]1C[C@@H](O1)C1COC1	
InChI=1S/C6H9NO2/c7-6-1-5(9-6)4-2-8-3-4/h4-5,7H,1-3H2	InChI=1S/C6H9NO2/c7-6-1-5(9-6)4-2-8-3-4/h4-5,7H,1-3H2/t5-/m1/s1
