23
gdb 58837	3.03092	1.28015	1.07662	0.2832	89.77	-0.222	0.0251	0.2471	1239.7204	0.206071	-351.162041	-351.15304	-351.152096	-351.195465	35.779	
C	-0.2904047611	 1.5613228889	-0.2310949798	-0.381288
C	 0.0141979159	 0.0647405019	-0.0420005035	-0.065762
C	-1.2695816001	-0.7011721592	 0.3047919252	-0.406678
C	 0.7779798959	-0.4816835291	-1.2448716647	 0.37912
C	 0.0650585172	-0.9127394516	-2.5029265001	-0.321438
C	 0.8027657364	-1.9478817207	-1.6690306045	-0.141071
C	 2.2017427357	-2.2271940894	-2.1003680271	-0.071459
C	 2.9687523632	-1.1383949105	-2.0158756914	-0.08842
C	 2.2117933069	 0.0419373266	-1.4466691291	-0.331868
H	 0.6210225389	 2.1402131534	-0.4088428726	 0.114049
H	-0.9555971082	 1.714840048	-1.088436331	 0.11399
H	-0.7822640988	 1.9768484146	 0.6547255763	 0.105671
H	 0.6880420341	-0.0291885767	 0.822726826	 0.071151
H	-2.0186750862	-0.6239142449	-0.4908105432	 0.115466
H	-1.0761145813	-1.7620821203	 0.4876469701	 0.115298
H	-1.719681415	-0.2861382179	 1.2122638916	 0.111445
H	-1.0194057595	-0.939165039	-2.4813615919	 0.105713
H	 0.4896801661	-0.649030048	-3.4669668186	 0.105095
H	 0.2225083764	-2.7128315233	-1.1654036873	 0.081761
H	 2.5198984381	-3.1958441067	-2.4694766437	 0.091378
H	 4.0052860577	-1.0706409794	-2.3263980326	 0.089789
H	 2.2486478921	 0.9131252138	-2.1135646615	 0.107745
H	 2.6483502455	 0.3715554394	-0.4922543564	 0.100312
54.3003	158.6297	210.8823	225.1005	247.58	306.7873	336.0848	351.1794	431.8767	453.6721	495.4675	613.5599	710.7192	744.7594	774.243	828.0074	880.6259	893.4517	915.8056	929.4402	952.8499	959.3756	964.859	986.6058	1006.946	1036.3993	1069.6744	1079.1087	1111.5758	1132.5867	1144.6959	1155.6317	1187.4606	1232.2382	1267.6177	1305.818	1346.0853	1362.0625	1377.9145	1392.901	1398.4397	1418.8202	1468.8109	1485.1127	1488.6834	1492.9074	1505.7854	1511.811	1671.7856	2988.2272	2998.1903	3027.9387	3033.5475	3035.9845	3092.4284	3098.5115	3103.6016	3108.9415	3120.3648	3169.6809	3184.0553	3207.4355	3209.0852
CC(C)C12CC1C=CC2	CC(C)[C@]12C[C@H]1C=CC2	
InChI=1S/C9H14/c1-7(2)9-5-3-4-8(9)6-9/h3-4,7-8H,5-6H2,1-2H3	InChI=1S/C9H14/c1-7(2)9-5-3-4-8(9)6-9/h3-4,7-8H,5-6H2,1-2H3/t8-,9+/m1/s1
