20
gdb 52775	2.50946	1.22935	0.9508	1.8609	88.79	-0.219	0.0436	0.2626	1332.1535	0.169513	-365.949046	-365.939449	-365.938505	-365.984613	34.943	
C	 0.0493901335	 1.486910392	-0.0020178754	-0.503832
C	 0.0150025327	 0.0317416732	 0.0303399803	 0.094044
C	-0.0104357411	-1.1733742208	 0.0589359885	 0.022021
C	 0.0036620508	-2.6147170272	 0.0509069629	 0.150922
C	 1.112450655	-3.2327998608	-0.7844023393	-0.465664
C	-0.4612362202	-3.4030608691	 1.2265265192	-0.053668
C	-1.5612838465	-2.6997668749	 2.0139388538	-0.264901
C	-2.3382819346	-2.6381630174	 0.6729777054	-0.155058
N	-1.264587853	-3.4041216839	-0.0591992631	-0.184252
H	 1.0221122993	 1.8673968279	 0.3291560328	 0.150358
H	-0.1288513302	 1.8686320249	-1.0134639663	 0.150391
H	-0.714499068	 1.9175234365	 0.6546435407	 0.14938
H	 2.0939475973	-2.9373553325	-0.4015388222	 0.120961
H	 1.0339880284	-4.3226903204	-0.763738634	 0.126958
H	 1.0337394334	-2.9029078293	-1.8239909065	 0.12976
H	 0.0940986432	-4.2778557205	 1.5548630114	 0.088779
H	-2.0375521443	-3.3470376045	 2.7523521339	 0.108221
H	-1.2858650057	-1.753623677	 2.4867350292	 0.111694
H	-3.2592989246	-3.2238399406	 0.6686696893	 0.108689
H	-2.5326765753	-1.6475356657	 0.2547303893	 0.115196
21.6399	88.0416	111.2805	199.4275	225.0519	254.9794	290.3977	304.9511	353.128	437.1966	527.5966	557.0861	596.7131	742.5536	775.7421	798.5129	824.0355	941.8533	962.8531	984.3121	1023.5898	1031.4179	1051.8243	1053.9488	1067.6827	1080.781	1113.2342	1170.0056	1216.8413	1222.303	1265.3307	1297.2257	1330.3034	1385.5807	1409.5313	1415.3528	1476.6951	1477.8074	1478.7799	1482.6151	1493.4926	1501.24	2359.5043	3026.5347	3043.0354	3063.6384	3069.3311	3086.6413	3088.6229	3112.6956	3115.5412	3125.7853	3129.718	3143.4824
CC#CC1(C)C2CCN12	CC#C[C@@]1(C)[C@H]2CCN12	
InChI=1S/C8H11N/c1-3-5-8(2)7-4-6-9(7)8/h7H,4,6H2,1-2H3	InChI=1S/C8H11N/c1-3-5-8(2)7-4-6-9(7)8/h7H,4,6H2,1-2H3/t7-,8+,9?/m1/s1
