15
gdb 25250	3.14836	1.67387	1.10771	1.8053	74.13	-0.24	-0.0394	0.2006	1019.7079	0.11646	-416.880512	-416.873743	-416.872799	-416.911937	25.986	
O	-0.0537635776	-0.0778676045	 0.0050231726	-0.356706
C	-0.0088300647	 1.1326141363	 0.0097895666	 0.294406
C	-1.2303755493	 2.0930340032	 0.0316188742	-0.321996
C	-0.6965522885	 3.5594907845	 0.0306809069	-0.361807
C	 0.7874984844	 3.3527534425	 0.0085209924	 0.294679
C	 1.1360524509	 2.0264312572	-0.0024810226	 0.215079
N	 2.5113073566	 2.0047247558	-0.0221645777	-0.388492
C	 2.9033477806	 3.3121292438	-0.0219413629	 0.010579
N	 1.886091713	 4.1613302018	-0.0034894141	-0.340125
H	-1.8588149027	 1.8765040958	-0.8374127182	 0.135737
H	-1.8338008173	 1.8685052024	 0.9162094053	 0.13574
H	-1.0454788457	 4.1249155161	-0.8398620989	 0.12809
H	-1.0203659723	 4.1168828131	 0.9159834498	 0.128092
H	 3.1077738722	 1.1938756444	-0.0343241643	 0.283631
H	 3.9469787903	 3.5927235876	-0.035598569	 0.143093
105.3688	157.2936	256.8044	295.6274	521.0424	526.5849	568.9769	599.5921	641.0775	673.96	688.8363	738.7827	836.3686	857.3189	964.2239	967.6424	1011.0127	1032.5509	1087.5767	1126.8731	1154.3678	1222.5702	1253.71	1264.3502	1282.1731	1379.9011	1391.9287	1445.0301	1455.8544	1488.2225	1526.6048	1588.8841	1803.9569	3046.4737	3064.9464	3076.1493	3106.3839	3246.1988	3664.7907
O=C1CCC2=C1NC=N2	O=C1CCc2c1[nH]cn2	
InChI=1S/C6H6N2O/c9-5-2-1-4-6(5)8-3-7-4/h3H,1-2H2,(H,7,8)	InChI=1S/C6H6N2O/c9-5-2-1-4-6(5)8-3-7-4/h3H,1-2H2,(H,7,8)
