21
gdb 60109	3.71065	0.9618	0.85924	3.3201	78.88	-0.2228	0.0629	0.2858	1409.667	0.180959	-424.181224	-424.171849	-424.170905	-424.215704	35.34	
C	-0.0105158434	 1.5945655628	 0.0071096917	-0.405523
C	-0.0206807718	 0.069200881	-0.0807722765	 0.143312
O	 0.7946755289	-0.5121149686	 0.9376971604	-0.431621
C	-1.4203433437	-0.5223408902	 0.1132338554	-0.325807
C	-1.44060683	-2.0179410072	-0.0184194704	 0.31879
C	-1.604183621	-2.7624084159	-1.3346432504	-0.34739
C	-2.5542766029	-3.0230210245	-0.2047060348	 0.033795
O	-1.993005058	-3.9505493247	 0.7242485049	-0.29282
C	-0.9204001289	-3.0092815431	 1.020353094	-0.117104
H	 1.0066425559	 1.9850458084	-0.1133033987	 0.104389
H	-0.630572173	 2.0399254496	-0.7779161417	 0.11543
H	-0.3877471377	 1.9244158373	 0.9803924377	 0.125154
H	 0.348839086	-0.2377840219	-1.0731634099	 0.069296
H	 1.6963054939	-0.1987783533	 0.8171629477	 0.282292
H	-1.7811886989	-0.2257009411	 1.1071775199	 0.104366
H	-2.0980936436	-0.0740597704	-0.6225597862	 0.096
H	-1.9974610543	-2.158086119	-2.1476325158	 0.105846
H	-0.9067419601	-3.5410607781	-1.6330605979	 0.11073
H	-3.6344522175	-2.9341601785	-0.2496921394	 0.099289
H	 0.0741671941	-3.4389784965	 0.8624612646	 0.103628
H	-1.0048986943	-2.6416538459	 2.0485161551	 0.107951
57.5905	85.0936	124.8949	240.5925	268.7577	279.9764	302.5978	310.4654	381.4555	447.5362	460.1722	476.8722	707.7028	760.4304	825.4474	874.6666	891.5839	908.034	929.6976	951.5354	981.0816	1002.6726	1012.1477	1044.2113	1064.2014	1078.1551	1085.7546	1120.287	1134.8778	1151.3801	1188.7355	1251.5485	1283.8555	1288.8158	1331.1934	1338.8069	1384.0918	1407.4358	1410.7083	1426.7172	1468.0904	1483.3901	1492.5139	1498.4829	1514.5475	2964.6786	3018.8247	3027.7315	3036.0354	3067.244	3087.3683	3093.3176	3106.6758	3111.5032	3168.9679	3198.3173	3822.4882
CC(O)CC12CC1OC2	C[C@@H](O)C[C@]12C[C@H]1OC2	
InChI=1S/C7H12O2/c1-5(8)2-7-3-6(7)9-4-7/h5-6,8H,2-4H2,1H3	InChI=1S/C7H12O2/c1-5(8)2-7-3-6(7)9-4-7/h5-6,8H,2-4H2,1H3/t5-,6-,7-/m1/s1
