21
gdb 42133	1.95466	1.86233	1.1237	1.9816	80.83	-0.2355	0.0111	0.2466	1145.3804	0.184074	-424.202789	-424.194398	-424.193454	-424.235613	32.697	
C	-0.0063255802	 1.4420912214	-0.0472096449	-0.067165
C	 1.388944555	 2.0603352361	 0.0903263319	-0.086263
O	 2.0669529052	 1.6752297856	 1.2670162734	-0.24046
C	 3.16699741	 0.7774821046	 1.1142919733	-0.128982
C	 2.8176566269	-0.6888215226	 1.2474938952	-0.05225
C	 2.3118379815	-1.4637607338	 0.2874232687	-0.008721
C	 1.9075105528	-1.005991796	-1.0841598971	-0.281984
C	 0.3922640574	-0.6762292979	-1.1405561687	-0.065088
O	-0.0846494764	 0.0356039971	-0.0206046008	-0.222995
H	-0.6153716603	 1.7727399754	 0.8005230547	 0.115738
H	-0.4634184551	 1.8452888308	-0.9689024935	 0.077914
H	 1.9991605417	 1.856331486	-0.7995162617	 0.087905
H	 1.2449152298	 3.1507625011	 0.1290611079	 0.098417
H	 3.6676663158	 0.9717515135	 0.1544801482	 0.095688
H	 3.8736349476	 1.0498976132	 1.9049981538	 0.104975
H	 2.9956196476	-1.1282093831	 2.226084751	 0.088237
H	 2.0877832961	-2.5023571403	 0.5260571571	 0.087974
H	 2.491707155	-0.133403317	-1.3888153546	 0.101246
H	 2.1009131237	-1.7882270295	-1.8287900339	 0.099892
H	 0.1616479662	-0.1441424046	-2.0773863219	 0.087204
H	-0.1719616302	-1.6157641497	-1.1468181879	 0.108715
96.9799	167.6332	179.685	209.3895	267.9117	322.1945	393.0735	408.2396	473.2291	532.989	556.0972	619.8628	742.9784	800.3106	841.2	863.1473	893.6175	924.311	977.4914	1006.5107	1010.7766	1027.2606	1035.0118	1115.1429	1129.3717	1159.5809	1180.1925	1237.7252	1267.7643	1285.1055	1293.9382	1315.6896	1326.0576	1352.09	1388.5481	1404.4273	1410.0546	1419.2522	1433.2101	1472.5798	1481.0466	1486.6104	1492.205	1508.9538	1720.9296	2948.4399	2977.6449	2989.9295	2996.7068	3029.1524	3035.7061	3055.8718	3067.9141	3078.8076	3093.975	3133.2177	3161.426
C1COCC=CCCO1	C1COCC=CCCO1	
InChI=1S/C7H12O2/c1-2-4-8-6-7-9-5-3-1/h1-2H,3-7H2/b2-1-	InChI=1S/C7H12O2/c1-2-4-8-6-7-9-5-3-1/h1-2H,3-7H2/b2-1-
