15
gdb 44816	2.82393	1.54459	1.19867	4.3207	65.12	-0.2747	-0.0053	0.2694	1021.44	0.111925	-457.728436	-457.720977	-457.720033	-457.76095	27.682	
O	-0.0308375414	 0.0456926059	 0.2302429763	-0.331268
C	 0.0383222495	 1.2278717194	 0.1459085588	 0.445632
O	-1.0074525581	 2.1407891454	 0.114709852	-0.260401
C	-0.068855778	 3.2226895317	-0.1384257216	 0.054379
C	 0.8242986218	 3.3757644047	 1.0321946414	-0.349232
C	 1.1117156807	 2.281831698	-0.0144273215	 0.121278
C	 2.3831852197	 2.142364755	-0.7596053663	-0.050261
C	 2.9950531958	 0.8226984867	-0.9827746313	-0.186298
O	 2.3063860935	 1.5037932754	-2.035011313	-0.233031
H	-0.3328793537	 3.9415658665	-0.9000177526	 0.143194
H	 1.5301941389	 4.2014795137	 0.9987342645	 0.13702
H	 0.4673359803	 3.1102221568	 2.0219705996	 0.144154
H	 3.033844676	 3.0172070994	-0.7319676069	 0.095761
H	 4.0750396054	 0.7496499475	-1.1000056074	 0.119825
H	 2.4918267795	-0.0613187459	-0.5982514823	 0.14925
70.9718	140.0741	160.5539	211.9442	366.6536	446.1702	471.0049	507.0892	667.0145	714.0975	776.4969	844.0746	847.2994	879.7324	913.3421	927.1155	958.0481	1009.9298	1029.1939	1051.1798	1071.342	1094.5574	1101.6419	1167.946	1170.2755	1230.2811	1271.6059	1299.8729	1370.5731	1448.4454	1487.3344	1522.9098	1937.3669	3092.68	3103.1242	3122.3296	3192.9471	3214.526	3237.6622
O=C1OC2CC12C1CO1	O=C1O[C@H]2C[C@@]12[C@H]1CO1	
InChI=1S/C6H6O3/c7-5-6(4-2-8-4)1-3(6)9-5/h3-4H,1-2H2	InChI=1S/C6H6O3/c7-5-6(4-2-8-4)1-3(6)9-5/h3-4H,1-2H2/t3-,4+,6+/m0/s1
