19
gdb 53087	3.44166	0.89394	0.75712	1.5044	92.3	-0.2207	-0.0143	0.2063	1553.3221	0.158409	-385.886797	-385.877039	-385.876095	-385.923509	34.511	
C	-0.0816129376	 1.4981441691	-0.2122909369	-0.508267
C	-0.0253579066	 0.0475686706	-0.1285217652	 0.212939
C	 0.0289622554	-1.1565752896	-0.0568155351	-0.112316
C	 0.0323407623	-2.5696111077	 0.0169652639	 0.140265
C	 1.1008210883	-3.3843519299	 0.0306455924	-0.179147
C	 0.7314267143	-4.8396997749	 0.1367279729	-0.257604
C	-0.8075518255	-4.8296711502	-0.0366901139	-0.244496
C	-1.2603388151	-3.3650034671	 0.1907492965	 0.025776
O	-1.8548091985	-3.1273336628	 1.4634942156	-0.426877
H	 0.6855148327	 1.9644941198	 0.416202008	 0.149122
H	 0.0796392234	 1.8438428515	-1.2399994923	 0.149877
H	-1.0560743298	 1.8769433665	 0.1151155148	 0.15237
H	 2.1283938997	-3.0409633922	-0.015053221	 0.096685
H	 1.2297000695	-5.4479136626	-0.6272089498	 0.111514
H	 1.0499903659	-5.2573760905	 1.102348815	 0.109759
H	-1.0648674552	-5.1360237935	-1.0550082966	 0.108061
H	-1.3319543277	-5.4984018932	 0.6497428025	 0.106885
H	-2.0299850763	-3.0617573326	-0.5247331285	 0.089121
H	-1.1570911391	-3.1860001009	 2.1256605677	 0.276332
14.3221	68.9259	88.0292	113.7318	248.9155	249.9912	294.6844	322.8261	370.0372	429.3851	475.7241	522.0704	658.7016	721.0236	777.741	840.6065	862.0872	911.2983	938.729	971.0569	1009.5415	1049.0717	1052.6998	1056.0978	1077.3768	1162.6537	1195.4731	1251.9376	1263.2784	1290.0257	1302.952	1326.0273	1343.7456	1412.9981	1430.8029	1475.5483	1475.84	1476.1178	1494.4989	1673.455	2348.8446	3007.9433	3023.1594	3045.5103	3059.1182	3075.0392	3081.0383	3087.2054	3111.5321	3195.2901	3798.5989
CC#CC1=CCCC1O	CC#CC1=CCC[C@H]1O	
InChI=1S/C8H10O/c1-2-4-7-5-3-6-8(7)9/h5,8-9H,3,6H2,1H3	InChI=1S/C8H10O/c1-2-4-7-5-3-6-8(7)9/h5,8-9H,3,6H2,1H3/t8-/m1/s1
