17
gdb 35355	3.02321	1.42567	1.22284	2.3916	79.09	-0.2322	0.0154	0.2476	1059.2079	0.137461	-380.812711	-380.805105	-380.80416	-380.844807	29.845	
C	-0.4056985848	-1.1397423701	-0.0674878858	-0.462594
C	-0.2404991526	 0.051360895	-0.0581022361	 0.377073
C	-0.0416727474	 1.4873021595	-0.0347394529	-0.223324
N	-0.0282056961	 2.099879911	 1.3550777178	-0.366413
C	 1.3673535438	 2.1392764724	 1.2979916054	 0.384731
N	 2.3713834843	 1.9190440343	 2.0369406764	-0.304145
C	 3.4658349919	 1.6517596899	 1.055305028	-0.158228
C	 2.7582356131	 1.1846403347	-0.2725701832	-0.265686
C	 1.458871344	 1.9934164879	-0.1899733663	-0.09434
H	-0.5553062849	-2.1913642412	-0.0772499936	 0.207987
H	-0.7549033163	 1.9912085077	-0.6917376735	 0.113953
H	-0.4823601092	 1.6145737423	 2.1218255851	 0.247503
H	 4.0748172765	 2.5514194131	 0.8927339901	 0.104438
H	 4.1272855395	 0.881170449	 1.4603290109	 0.111149
H	 3.3497131276	 1.3778260718	-1.1707783256	 0.101317
H	 2.5518966232	 0.1111739969	-0.2165830892	 0.122575
H	 1.4816520374	 2.9284649457	-0.7536192875	 0.104004
88.6501	137.483	219.3063	290.4087	322.7122	422.379	514.839	551.0864	609.9158	635.9853	653.5234	659.9093	738.7807	769.642	818.9081	847.4634	905.2685	928.9517	945.1402	978.7125	1007.2606	1069.9335	1088.8802	1144.7826	1167.7034	1197.1176	1233.4593	1285.4799	1290.5147	1304.9454	1326.8345	1338.2096	1366.2504	1482.6009	1503.2504	1771.6525	2232.5346	3017.1294	3057.7086	3073.8167	3087.4744	3090.5924	3115.6999	3501.1365	3544.2696
C#CC1NC2=NCCC12	C#C[C@H]1N[C]2[N]CC[C@@H]12	
InChI=1S/C7H8N2/c1-2-6-5-3-4-8-7(5)9-6/h1,5-6H,3-4H2,(H,8,9)	InChI=1S/C7H8N2/c1-2-6-5-3-4-8-7(5)9-6/h1,5-6H,3-4H2,(H,8,9)/t5-,6+/m0/s1
