15
gdb 131131	3.82677	1.07098	0.97136	3.4807	67.77	-0.2483	-0.0352	0.2131	1195.7049	0.113404	-453.968827	-453.960881	-453.959937	-454.002421	28.852	
O	-0.2680398002	 1.3811448748	 0.0953664157	-0.429845
C	-0.005419964	 0.0071401826	 0.0558509076	-0.035682
C	 0.8506329985	-0.3267553165	-1.1625388761	 0.130917
O	 1.1852891634	 0.5262568657	-1.9473696735	-0.259533
C	 0.7070004149	-0.4633277487	 1.2992094095	 0.296495
N	 0.740779916	-1.7580766037	 1.6103249752	-0.299523
N	 1.483831938	-1.8072595684	 2.7319952598	-0.179368
C	 1.9124364534	-0.5885618559	 3.1402875704	-0.021154
C	 1.4302405348	 0.3210973972	 2.2241616074	-0.268903
H	 0.1450193371	 1.7426659232	-0.7058972403	 0.29546
H	-0.9358749232	-0.5771024605	-0.0512979842	 0.113903
H	 1.1457628078	-1.3876179878	-1.2691275933	 0.118075
H	 1.6372958672	-2.6970072523	 3.1753204189	 0.278033
H	 2.5076325981	-0.4669879472	 4.0314500305	 0.138171
H	 1.553717898	 1.3900788674	 2.2202454421	 0.122954
39.3421	88.8168	169.7692	239.3917	309.2577	369.5339	437.0972	492.9435	517.0877	660.0201	675.485	730.61	779.305	786.0744	857.6644	871.5895	947.6888	993.1527	1028.8692	1064.6362	1102.6016	1152.9343	1208.1885	1247.344	1291.443	1322.5782	1380.8974	1404.9093	1427.4047	1477.4882	1492.4703	1562.5916	1812.782	2956.5594	2971.3562	3263.0398	3294.5661	3674.9652	3676.3121
OC(C=O)C1=NNC=C1	O[C@@H](C=O)c1n[nH]cc1	
InChI=1S/C5H6N2O2/c8-3-5(9)4-1-2-6-7-4/h1-3,5,9H,(H,6,7)	InChI=1S/C5H6N2O2/c8-3-5(9)4-1-2-6-7-4/h1-3,5,9H,(H,6,7)/t5-/m0/s1
