16
gdb 34618	3.47525	1.24253	0.9891	4.6843	86.47	-0.242	-0.0593	0.1827	1165.6797	0.126565	-363.650203	-363.642732	-363.641787	-363.682081	28.837	
N	 0.0419131309	-1.1521511848	 0.1932756076	-0.335823
C	-0.0025019861	 0.0019741834	 0.1091825736	 0.210452
C	-0.0336031363	 1.4341130592	 0.0182234195	 0.166684
C	-1.2358725095	 2.0584218396	-0.0440849586	-0.140714
C	-1.3483679007	 3.5543083287	 0.0114704919	-0.312276
C	-0.7411923343	 4.1044408346	-1.2564572122	-0.084557
C	 0.5770301041	 4.0024558267	-1.5083984485	-0.055274
C	 1.5198086692	 3.2462009672	-0.7182929543	-0.088531
C	 1.2564229135	 2.1047868004	-0.0313409466	-0.160436
H	-2.1384251804	 1.4613901864	-0.1271883751	 0.122608
H	-2.3901089448	 3.8615528795	 0.1178536531	 0.115516
H	-0.7916012635	 3.9319877451	 0.8801715674	 0.130435
H	-1.3926540253	 4.6039367608	-1.9673312856	 0.107399
H	 0.9826472274	 4.5115081516	-2.379718068	 0.103092
H	 2.5605288831	 3.5560407927	-0.775208795	 0.106239
H	 2.0902783327	 1.5682213489	 0.4111738708	 0.115186
115.0861	159.8499	233.4976	293.4479	326.8004	404.106	415.7308	533.6035	565.4012	574.7764	671.9624	722.8616	764.7855	832.7521	880.5346	912.6755	949.496	963.5513	985.0653	1008.6295	1048.5435	1079.2498	1148.3159	1222.8472	1247.8761	1259.3826	1323.8131	1344.5441	1406.8648	1471.6218	1473.6932	1578.0421	1648.2016	1674.3895	2339.2704	3008.3311	3111.0025	3147.6048	3159.1824	3179.2066	3182.326	3186.8946
N#CC1=CCC=CC=C1	N#CC1=CCC=CC=C1	
InChI=1S/C8H7N/c9-7-8-5-3-1-2-4-6-8/h1-3,5-6H,4H2	InChI=1S/C8H7N/c9-7-8-5-3-1-2-4-6-8/h1-3,5-6H,4H2
