18
gdb 97075	4.48189	0.95574	0.7996	0.4349	81.43	-0.2318	0.0068	0.2386	1436.2322	0.147212	-435.293781	-435.284151	-435.283207	-435.329476	33.017	
C	-0.0598157481	 1.4117679177	 0.0120986779	-0.342592
N	 0.0668768609	-0.0357702783	-0.0651000103	-0.325688
C	 0.6247878614	-0.6260153845	 0.9046895023	 0.401242
C	 0.8431797173	-2.1248531684	 0.9972375632	-0.177064
O	 1.5020507938	-2.333552223	 2.2530911296	-0.257722
C	 1.6878724818	-1.138122717	 2.8913196256	 0.524694
N	 1.1627472434	-0.1378668437	 2.0792007809	-0.420402
N	 2.2283126503	-0.9337995911	 4.0065123919	-0.371273
C	 2.7434435392	-2.0560788154	 4.7712595675	-0.332076
H	 0.9182794191	 1.9126233735	 0.0810685081	 0.113234
H	-0.5568722839	 1.7817939059	-0.8873667731	 0.131285
H	-0.6590991137	 1.7320318006	 0.8784543132	 0.113239
H	-0.1036083943	-2.6729630339	 0.9843466825	 0.146955
H	 1.4775068235	-2.4919466008	 0.1849139657	 0.146956
H	 1.1963582168	 0.8254257683	 2.363837434	 0.277271
H	 2.6102684514	-3.0303454028	 4.2873566786	 0.123965
H	 3.8126903087	-1.9055007527	 4.9600442318	 0.123988
H	 2.2505129824	-2.0842822544	 5.7499430104	 0.123988
51.2918	65.3037	84.2783	144.7825	162.9845	225.9319	239.1943	259.364	460.5398	463.5574	513.1555	600.1323	689.2789	697.7882	714.2149	901.4227	919.6479	1026.9368	1032.5006	1049.9587	1091.0982	1110.1767	1138.007	1155.1927	1173.5064	1198.7545	1219.3954	1334.2922	1381.0543	1390.8859	1437.8489	1446.216	1492.9119	1495.6711	1501.4841	1504.0301	1507.1039	1791.391	1833.2651	2972.2671	3014.9442	3019.8484	3055.0825	3071.7526	3084.2887	3098.7759	3107.3274	3689.8528
CN=C1COC(N1)=NC	CN=C1COC(=NC)N1	
InChI=1S/C5H9N3O/c1-6-4-3-9-5(7-2)8-4/h3H2,1-2H3,(H,6,7,8)	InChI=1S/C5H9N3O/c1-6-4-3-9-5(7-2)8-4/h3H2,1-2H3,(H,6,7,8)
