16
gdb 13783	2.90433	1.63437	1.32046	2.9383	61.78	-0.2535	-0.0298	0.2237	972.0301	0.12742	-420.856306	-420.847743	-420.846799	-420.890008	30.385	
C	-0.2054290757	 1.1746323588	 0.9389151054	-0.427866
C	-0.0665617295	 0.2602092337	-0.2784808268	 0.087733
O	 1.0171668771	-0.6489919392	-0.1432429611	-0.422735
C	-1.3794051814	-0.4498876047	-0.5765015829	 0.078262
O	-1.4288885856	-1.3533254728	-1.6712437562	-0.246704
C	-1.6105982699	-1.8971771679	-0.3632045802	-0.053806
C	-0.5428084023	-2.842737178	 0.1138166902	 0.115111
O	-0.5737482363	-3.3548917217	 1.2061116459	-0.262855
H	 0.7393511641	 1.6910183827	 1.1272716308	 0.135837
H	-0.9835944583	 1.9280918744	 0.7849775654	 0.130636
H	-0.4720629508	 0.5959819323	 1.8318158753	 0.129162
H	 0.1739560599	 0.8669618314	-1.1615651077	 0.110622
H	 1.1037736715	-0.8806708241	 0.7884105781	 0.295743
H	-2.2563787825	 0.1988349843	-0.5048425932	 0.098771
H	-2.6244291785	-2.2132802182	-0.1127857369	 0.119467
H	 0.2437221283	-3.0570418608	-0.6339132961	 0.112623
45.273	74.506	203.4579	232.2034	256.8821	284.127	342.5345	353.0087	401.0735	494.6742	529.3071	668.7744	775.1076	858.4253	889.9678	954.7102	991.8656	1007.9268	1068.4317	1078.2806	1102.8626	1148.2082	1171.0888	1274.3068	1306.0404	1341.5575	1358.2486	1392.3208	1407.1584	1416.031	1462.5276	1494.2122	1497.557	1809.862	2961.616	3026.4847	3033.5316	3076.5277	3103.9083	3108.4919	3124.9015	3802.7149
CC(O)C1OC1C=O	C[C@@H](O)[C@H]1O[C@H]1C=O	
InChI=1S/C5H8O3/c1-3(7)5-4(2-6)8-5/h2-5,7H,1H3	InChI=1S/C5H8O3/c1-3(7)5-4(2-6)8-5/h2-5,7H,1H3/t3-,4+,5-/m1/s1
