19
gdb 126646	6.12966	0.71038	0.6467	4.1189	80.92	-0.2044	0.019	0.2235	1734.3077	0.159588	-419.205417	-419.196241	-419.195297	-419.240756	32.837	
C	-0.0142204031	 1.5511911993	-0.0353047357	-0.381865
C	 0.1525205286	 0.0306659243	 0.0129937947	-0.192984
C	 0.6013203013	-0.5470931399	-1.3279629304	-0.122807
N	 0.7521190808	-1.9972568942	-1.236505904	-0.412343
C	 1.3168516466	-2.720421283	-2.2464217562	 0.543095
C	 1.3302362233	-4.0628543423	-2.5375540015	-0.39012
C	 2.1596992301	-4.1268859664	-3.6807346855	 0.053677
N	 2.6117385287	-2.959876888	-4.0681629075	-0.169702
O	 2.0585364259	-2.045745791	-3.1353027671	-0.220777
H	 0.9289474349	 2.0442944035	-0.2933822507	 0.124536
H	-0.7586914424	 1.8469405346	-0.7822234578	 0.121222
H	-0.3402339993	 1.9413590712	 0.9328919504	 0.119974
H	 0.8831677768	-0.248057774	 0.7810153153	 0.11364
H	-0.7999623593	-0.4330593941	 0.3060194238	 0.094555
H	-0.11205025	-0.2645991361	-2.1183743034	 0.106253
H	 1.5698444355	-0.1277429958	-1.6144278103	 0.139247
H	 0.0095105408	-2.4781807268	-0.7517446667	 0.247175
H	 0.8351199727	-4.8629222321	-2.015013555	 0.102635
H	 2.448346448	-5.0026588392	-4.2466201923	 0.124588
39.4114	60.3293	97.9923	147.9654	239.3576	270.6901	298.6182	339.0517	439.6567	553.0166	625.996	714.8315	732.1744	747.0184	759.1995	886.225	894.7788	919.1539	920.2568	932.169	1007.6391	1048.6724	1063.4078	1094.3344	1143.1922	1169.3659	1223.7694	1266.9174	1311.1925	1328.2065	1341.7721	1366.4849	1407.6931	1415.9502	1484.8256	1490.6574	1500.6995	1505.4458	1523.1399	1556.7903	1657.7313	2979.9277	3011.1076	3036.3347	3060.6644	3090.5423	3104.8364	3112.3729	3233.2054	3281.3663	3614.8791
CCCNC1=CC=NO1	CCCNc1ccno1	
InChI=1S/C6H10N2O/c1-2-4-7-6-3-5-8-9-6/h3,5,7H,2,4H2,1H3	InChI=1S/C6H10N2O/c1-2-4-7-6-3-5-8-9-6/h3,5,7H,2,4H2,1H3
