21
gdb 103932	3.24291	1.10411	1.03475	2.4091	78.64	-0.2416	0.0703	0.3119	1269.3807	0.180196	-424.194457	-424.184888	-424.183944	-424.228186	37.201	
C	 0.0802440122	 1.5513183933	-0.0138996485	-0.404491
C	 0.017765213	 0.0246698306	 0.1120806129	-0.218152
C	-1.396779209	-0.5447536051	-0.0091332844	 0.424366
O	-2.2384408237	-0.0506196695	 1.023534242	-0.486743
C	-2.1055225867	-0.4848663261	-1.4184401711	-0.369458
C	-2.2726758699	-2.0097184284	-1.3569573093	 0.408282
O	-3.4262423693	-2.6794935956	-1.7232426082	-0.46446
C	-0.9391030782	-2.6884360742	-1.251364336	-0.35915
C	-1.5628680266	-2.0694166272	-0.0166919952	-0.139817
H	 1.1128193529	 1.9075620662	 0.0449090758	 0.119139
H	-0.3335762927	 1.8942454322	-0.9690790361	 0.119015
H	-0.4734226315	 2.0460251361	 0.7921060232	 0.11158
H	 0.6566787852	-0.4266385712	-0.6548836973	 0.09357
H	 0.423756992	-0.2826491806	 1.0833893034	 0.103496
H	-2.3394138886	 0.8986014945	 0.8963586872	 0.275772
H	-3.0642303192	 0.0304727385	-1.3329816385	 0.108535
H	-1.5388708463	-0.0828673096	-2.2661821162	 0.080755
H	-3.3448145779	-2.9398784973	-2.6473566757	 0.283457
H	-0.993242385	-3.7726986978	-1.2638896728	 0.114552
H	-0.0437587385	-2.2773810525	-1.7122180373	 0.101657
H	-1.7918874822	-2.6493337564	 0.8685129421	 0.098094
94.3111	131.8314	159.6094	226.2956	257.6025	275.8817	303.8735	347.5395	377.4903	404.8137	434.8798	456.4811	509.444	598.0448	686.9734	780.4069	792.0986	849.8345	891.5998	907.5073	946.0876	979.1062	995.7154	1006.5053	1025.6066	1049.7173	1079.8044	1098.1318	1105.4669	1159.8169	1212.7245	1226.3944	1249.9228	1270.8971	1303.664	1314.9251	1340.8466	1392.7474	1404.6081	1409.738	1464.9814	1476.6597	1500.2694	1503.5472	1510.4896	3027.3573	3032.5862	3035.0201	3068.5802	3094.8538	3104.1101	3105.3224	3117.544	3193.8066	3201.7456	3792.7576	3808.4198
CCC1(O)CC2(O)CC12	CC[C@@]1(O)C[C@@]2(O)C[C@@H]12	
InChI=1S/C7H12O2/c1-2-6(8)4-7(9)3-5(6)7/h5,8-9H,2-4H2,1H3	InChI=1S/C7H12O2/c1-2-6(8)4-7(9)3-5(6)7/h5,8-9H,2-4H2,1H3/t5-,6+,7-/m0/s1
