15
gdb 28841	3.23179	1.42707	1.07098	4.3946	82.93	-0.2179	-0.0723	0.1455	1085.5607	0.114863	-413.005963	-412.99836	-412.997415	-413.038106	29.276	
N	 0.1167777347	 1.2858808964	 0.2723511774	-0.536711
C	-0.0192249481	-0.0476350753	-0.0127719133	 0.352085
N	-1.1894976126	-0.5853997505	 0.0909585634	-0.327103
C	-1.4670082029	-1.9042803922	-0.1803989311	-0.000518
C	-0.6487380521	-2.9786970806	-0.174658431	-0.100277
C	 0.7954433322	-2.9427974183	 0.0671440333	 0.284136
N	 1.3815309702	-3.8800161407	 0.7066603938	-0.497448
N	 1.5367490307	-1.9096499165	-0.5533174713	-0.233824
C	 1.2013681266	-0.682396061	-0.5669868638	-0.041096
H	 1.0281967195	 1.6482947601	 0.4988155796	 0.26555
H	-0.6677638347	 1.7168096096	 0.737406178	 0.268233
H	-2.5295663867	-2.0821732736	-0.3330356098	 0.110439
H	-1.0817923222	-3.9669026198	-0.28782403	 0.116886
H	 2.3916034405	-3.7163443969	 0.698002195	 0.216892
H	 1.8839158548	 0.0083621492	-1.0727402501	 0.122755
67.6675	180.3189	296.4416	323.3703	354.7007	374.9707	415.1017	451.083	502.5638	537.7657	631.4331	706.6883	724.9751	782.6335	818.7421	863.886	900.5455	919.1804	961.3377	988.5064	1000.8779	1091.2394	1180.6523	1326.3939	1330.3752	1356.3924	1436.3989	1448.5098	1602.0832	1622.1774	1653.6446	1697.6724	1716.4471	3070.3567	3147.2029	3192.0556	3446.0612	3586.621	3711.801
NC1=NC=CC(=N)N=C1	NC1=NC=C[C]([NH])N=C1	
InChI=1S/C5H6N4/c6-4-1-2-8-5(7)3-9-4/h1-3,6H,(H2,7,8)	InChI=1S/C5H6N4/c6-4-1-2-8-5(7)3-9-4/h1-3,6H,(H2,7,8)
