20
gdb 13451	3.32612	1.43902	1.22996	3.274	71.45	-0.2358	0.0608	0.2966	1071.2389	0.176284	-386.122679	-386.113521	-386.112577	-386.156288	33.774	
C	-0.080198916	 1.5912155325	-0.0976927499	-0.403863
C	 0.1845618629	 0.1010030841	-0.0950345979	-0.058913
C	 1.5891797969	-0.4306473946	 0.0577166897	 0.093464
O	 2.6128075979	 0.4926420952	 0.2572062978	-0.432118
C	 0.5797179946	-0.6644367317	 1.1618912729	-0.056861
C	 0.7316643348	 0.0026525109	 2.5157686203	-0.226083
C	 1.7611136598	-0.6798965432	 3.4129763021	-0.073367
O	 3.0645223644	-0.4534451791	 2.8681872075	-0.41028
H	 0.7247787056	 2.1371185425	 0.3974252138	 0.136058
H	-0.1352199135	 1.9619922395	-1.1268373099	 0.114022
H	-1.0280549807	 1.8370940827	 0.3940482104	 0.105281
H	-0.4476309081	-0.4612316564	-0.7779193987	 0.077022
H	 1.8699681789	-1.290251816	-0.5527983703	 0.070355
H	 3.0634754012	 0.230134211	 1.0748194365	 0.294551
H	 0.1887148226	-1.6784214011	 1.226943973	 0.071721
H	 1.0199267835	 1.0518498485	 2.4070403224	 0.120478
H	-0.2311834184	-0.0046064123	 3.0421624874	 0.099218
H	 1.7042613572	-0.2676751363	 4.4311174258	 0.092668
H	 1.553037344	-1.7584308742	 3.4748025779	 0.092327
H	 3.6945801225	-1.034326632	 3.3028589093	 0.29432
70.971	135.82	169.6903	185.3504	213.1747	234.6606	259.0431	295.278	420.2124	507.065	549.8972	586.5903	627.0388	758.0065	778.7919	860.3706	883.302	953.4383	969.0958	997.3487	1036.2505	1077.3771	1088.7698	1114.4432	1146.0064	1157.0112	1184.7372	1214.9764	1255.6646	1269.8114	1309.2508	1342.9371	1371.0277	1385.2433	1411.2343	1420.6993	1445.2735	1456.4342	1471.9016	1496.5899	1506.9314	1519.1089	2984.204	3017.6387	3032.4587	3036.8654	3077.4073	3087.1277	3095.182	3115.2903	3126.4654	3141.0324	3686.4899	3842.9599
CC1C(O)C1CCO	C[C@H]1[C@@H](O)[C@H]1CCO	
InChI=1S/C6H12O2/c1-4-5(2-3-7)6(4)8/h4-8H,2-3H2,1H3	InChI=1S/C6H12O2/c1-4-5(2-3-7)6(4)8/h4-8H,2-3H2,1H3/t4-,5+,6-/m1/s1
