17
gdb 75222	3.95885	1.14549	1.02508	1.9062	81.53	-0.2393	0.0014	0.2406	1200.816	0.134146	-384.651004	-384.642668	-384.641723	-384.683616	32.102	
C	 0.0366409098	 1.5143494761	 0.0709512496	-0.502169
C	-0.0008579322	 0.0219309006	-0.014171347	 0.341414
C	 0.0423408746	-0.7498086731	-1.1061937746	-0.185892
C	-0.0405576192	-2.2273188365	-0.7951160159	-0.348724
C	-0.0852433626	-2.2598236895	 0.7359983805	 0.247275
O	 1.0912540552	-1.706779732	 1.3526924411	-0.289584
C	-0.058538789	-0.8511271967	 1.2031776165	-0.14035
C	-0.7337060013	-3.3373726095	 1.4243076425	 0.205274
C	-1.2837139329	-4.2610739981	 1.962468575	-0.368887
H	 0.9142145687	 1.8584055146	 0.6320163959	 0.137102
H	 0.0663050929	 1.9699773283	-0.9222617164	 0.12781
H	-0.844442685	 1.9043638928	 0.5959624094	 0.129197
H	 0.1549899977	-0.380267254	-2.1198668799	 0.098145
H	-0.9405185918	-2.6906275912	-1.2169234898	 0.123504
H	 0.8198201834	-2.7904693987	-1.1751393509	 0.131053
H	-0.5132792357	-0.525316621	 2.1348206094	 0.103147
H	-1.7638715326	-5.0726334921	 2.4508644044	 0.191685
109.6477	143.788	174.3645	218.8207	292.7095	320.274	380.717	463.8164	529.1638	556.9141	604.7203	613.6756	629.5441	668.7807	754.7835	811.2747	847.137	906.3896	937.4928	957.3373	991.9512	1028.8288	1057.9052	1071.5826	1166.0966	1187.4108	1196.8304	1255.1349	1307.7608	1339.8952	1405.0183	1415.7709	1462.3152	1479.0295	1489.1592	1706.3334	2241.3475	3020.6543	3036.1535	3068.4675	3071.3669	3113.9311	3155.961	3190.3591	3502.7406
CC1=CCC2(OC12)C#C	CC1=CC[C@]2(O[C@@H]12)C#C	
InChI=1S/C8H8O/c1-3-8-5-4-6(2)7(8)9-8/h1,4,7H,5H2,2H3	InChI=1S/C8H8O/c1-3-8-5-4-6(2)7(8)9-8/h1,4,7H,5H2,2H3/t7-,8+/m0/s1
