23
gdb 91762	2.30228	1.71192	1.54356	1.398	83.77	-0.235	0.0765	0.3115	1046.8662	0.209532	-388.324025	-388.316188	-388.315244	-388.355743	32.58	
C	-0.130143223	 1.5228619509	-0.0762196525	-0.415343
C	-0.0052591516	 0.011392185	 0.0377188033	 0.161629
O	 0.6511614537	-0.5251389849	-1.1274785174	-0.301047
C	 1.5152757159	-1.6047492743	-0.7277107566	 0.121558
C	 1.0256976416	-1.9866033637	 0.6752401687	-0.233425
C	 0.7834350796	-0.5717942299	 1.2276423173	-0.033113
C	 2.1497167388	 0.1014523408	 1.4828706432	-0.212327
C	 3.0471773079	 0.1592068938	 0.2246364344	-0.192544
C	 2.9673123893	-1.1087630011	-0.6489175713	-0.203799
H	 0.8413458519	 2.0217964716	-0.0863960974	 0.121755
H	-0.6538507164	 1.7838013382	-1.0004466752	 0.12546
H	-0.711773424	 1.915329284	 0.7647497357	 0.110532
H	-1.0260011536	-0.4053966103	 0.0782010006	 0.063192
H	 1.4098796293	-2.4094884094	-1.4622100514	 0.06638
H	 0.0958759619	-2.5623875086	 0.6284805908	 0.094539
H	 1.7617833944	-2.5615028611	 1.2431479033	 0.091839
H	 0.1807676982	-0.5639232979	 2.1409413311	 0.060726
H	 2.0131772862	 1.1143097557	 1.8786555832	 0.09426
H	 2.6537524237	-0.4679354447	 2.2743000134	 0.092125
H	 2.7399464274	 1.0064900605	-0.3942320488	 0.113297
H	 4.0841664519	 0.3546901837	 0.51798405	 0.08906
H	 3.5885198677	-1.9157038397	-0.2395653347	 0.088621
H	 3.3497043292	-0.8904845588	-1.6516862999	 0.096625
153.8944	200.3296	217.4769	263.8541	344.8643	353.402	411.7873	452.1636	504.9176	566.1152	710.5373	733.4519	780.8531	813.4916	828.3586	872.0802	891.8004	905.4939	918.4073	970.3905	995.9588	1019.938	1044.0214	1058.64	1076.1418	1107.0981	1121.3886	1124.6256	1159.1027	1183.7236	1221.821	1258.9251	1284.6063	1314.2326	1323.201	1343.8232	1349.9506	1357.1643	1379.1428	1386.896	1392.6427	1402.3925	1412.5915	1477.3894	1481.054	1486.8625	1496.207	1497.0716	1509.7257	2946.5562	3021.4574	3024.654	3042.4412	3044.3812	3047.9315	3057.1917	3059.1687	3067.3035	3070.4199	3093.3376	3101.7743	3109.1206	3128.0659
CC1OC2CC1CCC2	C[C@H]1O[C@@H]2C[C@H]1CCC2	
InChI=1S/C8H14O/c1-6-7-3-2-4-8(5-7)9-6/h6-8H,2-5H2,1H3	InChI=1S/C8H14O/c1-6-7-3-2-4-8(5-7)9-6/h6-8H,2-5H2,1H3/t6-,7-,8+/m1/s1
