23
gdb 100090	3.09609	0.93002	0.86528	3.3167	82.5	-0.2366	-0.0097	0.2268	1482.2096	0.20148	-425.458293	-425.446945	-425.446001	-425.495096	41.394	
C	 0.1097975403	 1.4501136557	-0.3472471316	-0.393813
C	-0.0641439225	 0.0352678397	 0.2130369156	-0.198776
C	-1.4890397625	-0.5487688691	 0.0794521315	 0.331066
C	-2.5294074864	 0.3072419685	 0.8046977004	-0.394248
O	-1.8866685704	-0.5498177659	-1.2997190874	-0.455903
C	-1.4733462159	-2.0055657445	 0.6318707849	-0.312422
C	-2.8308110021	-2.7040448748	 0.5806171343	 0.389041
C	-3.2037603802	-3.3922597336	-0.7167234015	-0.485477
O	-3.5742416638	-2.6858488673	 1.5363367662	-0.306924
H	 1.1666479597	 1.732966453	-0.3513739754	 0.11228
H	-0.2654376399	 1.5107401518	-1.3725437022	 0.124657
H	-0.4269168709	 2.192904238	 0.2495002999	 0.123438
H	 0.6261601759	-0.6461743748	-0.3057483555	 0.082812
H	 0.2291422203	 0.009538831	 1.2692629393	 0.102568
H	-2.5642688584	 1.3082021874	 0.3700330791	 0.122867
H	-3.5239284391	-0.1347817443	 0.7227551979	 0.137821
H	-2.2856920307	 0.3904283393	 1.8673726584	 0.119083
H	-1.1856589229	-0.9722830636	-1.8090110175	 0.275981
H	-0.7320644344	-2.5796601755	 0.0611777698	 0.087265
H	-1.1571515932	-1.9839641021	 1.678666445	 0.119821
H	-2.4679839422	-4.1664143184	-0.9642359926	 0.127907
H	-4.194959837	-3.8394394506	-0.6328589876	 0.135879
H	-3.1830381938	-2.6542992699	-1.525230281	 0.155076
30.1811	89.3295	115.2837	146.6254	171.5077	198.2239	233.2277	261.1455	307.9668	334.8296	365.7656	382.6812	414.2588	434.9787	487.885	545.7204	625.8921	750.5713	787.4638	798.39	888.171	906.1807	931.2534	967.2246	1007.625	1033.8728	1048.4477	1074.1978	1136.4232	1152.0058	1175.8964	1222.7052	1254.6564	1284.1017	1320.2491	1368.6772	1373.5137	1392.5201	1410.6646	1429.609	1460.5729	1472.115	1477.5761	1480.9312	1487.2675	1494.9906	1506.557	1514.3033	1804.4835	2999.4144	3024.2787	3036.3976	3046.129	3055.3875	3059.5202	3098.3107	3103.3235	3111.4888	3122.5621	3133.1572	3142.3316	3153.3432	3794.9759
CCC(C)(O)CC(C)=O	CC[C@@](C)(O)CC(=O)C	
InChI=1S/C7H14O2/c1-4-7(3,9)5-6(2)8/h9H,4-5H2,1-3H3	InChI=1S/C7H14O2/c1-4-7(3,9)5-6(2)8/h9H,4-5H2,1-3H3/t7-/m1/s1
