14
gdb 131080	4.75109	0.86529	0.79012	2.248	64.09	-0.2701	-0.015	0.2551	1362.7136	0.101739	-470.017076	-470.009164	-470.00822	-470.05206	26.986	
O	 0.2633069163	 0.1273977438	-0.3635527399	-0.267846
C	 0.3147252082	 1.3187815124	-0.3519810276	 0.174699
O	 0.8315573638	 2.0125677884	 0.6850150213	-0.176401
C	 0.92401271	 3.4352019143	 0.5467956498	-0.200945
C	 2.3069545446	 3.8368237351	 0.1429623833	 0.292266
C	 3.48469349	 3.133026506	 0.2304329473	-0.152707
N	 4.4041462625	 3.9944890345	-0.2635722522	-0.148943
N	 3.8466468802	 5.1593421356	-0.6364646287	-0.106283
N	 2.5719162152	 5.0634846585	-0.3906937908	-0.249851
H	-0.0569315606	 1.9745631935	-1.1631174299	 0.088576
H	 0.196845195	 3.8090285953	-0.1841461061	 0.139473
H	 0.6541695406	 3.8500416947	 1.5224728771	 0.148779
H	 3.7243595751	 2.1439345308	 0.5799787535	 0.170218
H	 5.3955186391	 3.8610402071	-0.386675007	 0.288965
21.5354	42.79	137.4717	213.2012	262.9733	359.0857	400.9128	591.6923	666.7167	680.0914	728.1444	738.565	807.7431	989.668	1004.0054	1034.6187	1043.6315	1057.5444	1065.9969	1130.9593	1152.3734	1260.8273	1291.3952	1309.1457	1345.345	1402.2347	1430.0545	1493.0658	1497.2949	1595.9762	1871.1697	2953.6041	3038.3091	3086.9211	3296.8796	3656.2919
O=COCC1=CNN=N1	O=COCc1c[nH]nn1	
InChI=1S/C4H5N3O2/c8-3-9-2-4-1-5-7-6-4/h1,3H,2H2,(H,5,6,7)	InChI=1S/C4H5N3O2/c8-3-9-2-4-1-5-7-6-4/h1,3H,2H2,(H,5,6,7)
