19
gdb 16753	5.32587	1.32045	1.18739	1.3666	77.51	-0.2221	0.0205	0.2425	1072.6161	0.166937	-327.915906	-327.908307	-327.907363	-327.947972	29.269	
C	-0.3132837057	 1.4756413807	-0.029622922	-0.374916
C	 0.1586472596	 0.0119650634	 0.0234941026	-0.285613
C	 0.8589423417	-0.4423845616	-1.2225605238	 0.332512
C	 2.1063414219	-0.9197776087	-1.3132665404	-0.170495
C	 2.4174442325	-1.3714506953	-2.6984360198	-0.073585
N	 1.5315354073	-2.4916574315	-3.1433244039	-0.33629
C	 1.1969900712	-1.0960110659	-3.5035156466	-0.041703
C	 0.1683171247	-0.4515637129	-2.5826822405	-0.302887
H	 0.53222565	 2.1539966641	-0.1825037634	 0.119074
H	-1.0245797397	 1.6393365963	-0.8453062595	 0.119082
H	-0.8094514891	 1.7574154435	 0.9041058065	 0.113034
H	 0.8248705629	-0.1278796215	 0.8822222063	 0.101335
H	-0.7141380903	-0.6322075231	 0.2029189462	 0.106535
H	 2.7953853538	-1.0238323337	-0.482757426	 0.086591
H	 3.4214869547	-1.3127944727	-3.1051562544	 0.083719
H	 1.9559909851	-2.9299938986	-3.9600660697	 0.222801
H	 1.2477617762	-0.8025033834	-4.5464749021	 0.083347
H	-0.7695395879	-1.02041832	-2.5550798145	 0.114794
H	-0.0837235789	 0.5633912407	-2.9170247451	 0.102665
65.4087	133.1514	211.4977	242.4022	346.8019	367.0005	485.2059	519.3673	610.7244	708.0461	777.0636	803.907	829.7147	847.8379	872.4684	917.3235	950.6623	964.4059	965.5908	1001.0455	1060.5358	1074.5024	1102.0187	1128.6259	1163.2609	1181.2501	1200.4224	1257.341	1269.1934	1299.2487	1342.6266	1354.5831	1377.8617	1406.9339	1411.714	1464.7307	1477.7158	1498.0786	1506.8578	1696.8069	3005.9525	3019.3358	3036.2024	3053.9683	3059.4398	3107.1962	3107.7839	3160.4685	3170.1683	3195.3122	3466.9434
CCC1=CC2NC2C1	CCC1=C[C@H]2N[C@H]2C1	
InChI=1S/C7H11N/c1-2-5-3-6-7(4-5)8-6/h3,6-8H,2,4H2,1H3	InChI=1S/C7H11N/c1-2-5-3-6-7(4-5)8-6/h3,6-8H,2,4H2,1H3/t6-,7+/m1/s1
