17
gdb 82800	3.86081	1.66069	1.52954	1.8	70.83	-0.2376	-0.0004	0.2373	889.7883	0.138883	-421.800604	-421.794412	-421.793468	-421.830755	26.769	
O	 0.132378529	 1.4275695488	-0.0860291652	-0.455279
C	 0.0241076133	 0.0381567521	-0.0283025864	 0.178137
C	 0.1310070223	-0.6480264421	 1.3524516802	 0.016871
O	-0.826196845	 0.0999727217	 2.0963605926	-0.301317
C	-2.0474387354	-0.1636928719	 1.2824030779	 0.030834
C	-2.6318602728	-1.4115694999	 1.897961793	-0.084994
C	-1.7867332089	-2.4105538193	 1.6088244114	-0.073438
C	-0.7141822644	-1.8665008879	 0.7248740741	-0.097519
C	-1.3635080185	-0.6544740055	-0.0211888755	-0.125375
H	-0.1985074317	 1.7473836686	 0.7643575184	 0.288909
H	 0.6842785435	-0.3956741183	-0.7828568844	 0.089102
H	 1.047119891	-0.7795795635	 1.9251369012	 0.085494
H	-2.6535430742	 0.7400058489	 1.2544023669	 0.081046
H	-3.4679908475	-1.4277080622	 2.584433968	 0.10429
H	-1.805280195	-3.417051571	 2.0080367592	 0.105684
H	-0.1116736826	-2.5554179719	 0.1358809332	 0.078203
H	-1.9927449432	-0.7864618565	-0.8999659948	 0.079351
208.5277	266.6384	412.7149	423.7165	495.3493	525.8434	604.4958	697.5758	717.2591	753.2659	774.5311	796.3213	808.7842	856.7889	891.4077	907.4062	938.9977	961.955	976.1172	985.2584	1025.8531	1040.7572	1086.5225	1127.2086	1130.3897	1160.9391	1179.0887	1196.3116	1237.5389	1274.0365	1279.168	1287.5133	1320.8908	1336.3578	1365.3303	1443.9508	1631.5939	3094.6336	3131.015	3135.6143	3139.4221	3146.7604	3202.756	3230.0186	3755.9308
OC1C2OC3C=CC2C13	O[C@H]1[C@H]2O[C@@H]3C=C[C@H]2[C@H]13	
InChI=1S/C7H8O2/c8-6-5-3-1-2-4(5)9-7(3)6/h1-8H	InChI=1S/C7H8O2/c8-6-5-3-1-2-4(5)9-7(3)6/h1-8H/t3-,4+,5-,6+,7-/m0/s1
