18
gdb 55537	3.73868	0.90927	0.76391	3.825	75.89	-0.2384	-0.0158	0.2226	1481.6397	0.147145	-435.266908	-435.25723	-435.256286	-435.30333	33.624	
C	-0.1196557489	 1.5509960585	-0.4124367818	-0.500571
C	 0.2036753277	 0.0872414289	-0.1360154849	 0.407843
O	 1.3258029263	-0.3371385616	-0.0363858776	-0.29623
N	-0.9496037689	-0.6959443675	-0.0170089973	-0.356653
C	-1.0727571891	-2.0667695543	 0.2431904318	 0.328429
N	-0.0770686022	-2.7934813471	 0.5535840748	-0.45826
C	-2.5085206166	-2.5043598198	 0.1093028533	-0.091614
C	-3.0561820859	-3.6004630937	 0.9354117567	-0.240466
N	-3.4612580592	-2.2088052548	 1.2092256687	-0.317348
H	 0.8166712246	 2.0971500096	-0.5178681969	 0.156542
H	-0.7074852104	 1.6595343643	-1.3302966269	 0.138441
H	-0.7002298915	 1.9844240986	 0.4091252069	 0.14104
H	-1.8240800124	-0.2108167511	-0.1469312999	 0.25771
H	-0.3858201447	-3.7591618484	 0.6630726587	 0.220026
H	-2.9415808985	-2.3332715543	-0.8755289942	 0.113405
H	-3.8381452592	-4.235284913	 0.5302730598	 0.130345
H	-2.3932298503	-4.0902047554	 1.6431773994	 0.125732
H	-2.9394347807	-1.8725589089	 2.0171250895	 0.241629
38.2259	48.0193	78.1574	109.8062	146.8925	231.6308	289.4676	354.2073	407.5027	538.8727	556.7918	598.4755	626.266	730.2044	813.1441	848.2785	888.3151	902.2531	931.9948	969.7888	1007.7201	1034.8239	1049.3733	1102.3855	1127.4109	1152.7272	1195.5913	1230.5013	1266.1328	1300.9477	1312.3907	1384.3644	1421.7833	1470.0872	1483.8278	1506.3705	1535.7472	1723.979	1839.3856	3040.264	3102.4955	3113.0535	3118.1671	3167.138	3204.1407	3480.789	3484.5125	3624.8325
CC(=O)NC(=N)C1CN1	CC(=O)NC(=N)[C@H]1CN1	
InChI=1S/C5H9N3O/c1-3(9)8-5(6)4-2-7-4/h4,7H,2H2,1H3,(H2,6,8,9)	InChI=1S/C5H9N3O/c1-3(9)8-5(6)4-2-7-4/h4,7H,2H2,1H3,(H2,6,8,9)/t4-/m1/s1
