23
gdb 92534	2.15993	1.68347	1.35389	1.3528	83.49	-0.2542	0.0617	0.316	1101.3754	0.207746	-388.292192	-388.283517	-388.282573	-388.324964	34.766	
C	 0.533008822	 1.5249967622	-0.3188298849	-0.38328
C	 0.0379657364	 0.102267583	-0.0238261729	-0.037467
C	 0.3621162825	-0.9272604352	-1.1354922758	-0.238162
C	 1.6985801013	-1.592219935	-0.7503480319	 0.000583
C	 3.0115212238	-0.8036195396	-1.0423216395	-0.226052
C	 3.1960456075	-0.5320545895	 0.4790432303	-0.224954
C	 1.8984034485	-1.3364382555	 0.7801582875	-0.009135
C	 0.6679690891	-0.5453494288	 1.2475681937	 0.108985
O	 1.0355452197	 0.3615427929	 2.2760000014	-0.430356
H	 1.6050833737	 1.567843259	-0.5227049052	 0.125959
H	 0.0116937694	 1.9292947243	-1.1927966352	 0.10588
H	 0.3404420342	 2.1914979052	 0.5267217863	 0.103746
H	-1.0493699964	 0.1646388706	 0.1108100085	 0.059888
H	-0.423341399	-1.6914244627	-1.1659529295	 0.092047
H	 0.391468462	-0.4681434184	-2.1300915436	 0.093606
H	 1.7347807706	-2.6339093458	-1.0767313902	 0.059146
H	 3.8026583823	-1.415572546	-1.4830941176	 0.093459
H	 2.8874508089	 0.0810384847	-1.6730579535	 0.094162
H	 4.097044693	-0.9790249484	 0.9052228709	 0.093976
H	 3.1629285735	 0.5127958419	 0.7905241258	 0.115378
H	 2.0604913116	-2.2143021261	 1.4085813364	 0.061143
H	-0.0610526439	-1.2730639069	 1.6403725056	 0.059659
H	 0.2341436195	 0.769602494	 2.6180210133	 0.281791
105.0614	149.6222	212.6549	238.5257	268.5786	284.5478	318.8597	367.2489	439.4632	517.7131	599.7678	711.4457	721.2407	749.8996	770.1538	833.8623	846.4261	878.3884	908.1194	936.4341	966.7749	998.8952	1031.7897	1051.5219	1080.0298	1094.4602	1100.3023	1137.8901	1162.8471	1181.1355	1217.0573	1222.6566	1248.1426	1258.262	1270.0224	1272.8936	1285.1425	1321.6123	1338.9216	1347.8218	1364.3575	1387.8022	1417.9104	1427.6184	1478.6328	1484.4185	1494.75	1505.3232	1506.7968	2952.8951	3012.518	3031.8324	3044.5431	3054.682	3066.0408	3069.2771	3073.103	3086.1482	3100.4582	3105.433	3126.2799	3132.7059	3820.3205
CC1CC2CCC2C1O	C[C@H]1C[C@H]2CC[C@H]2[C@H]1O	
InChI=1S/C8H14O/c1-5-4-6-2-3-7(6)8(5)9/h5-9H,2-4H2,1H3	InChI=1S/C8H14O/c1-5-4-6-2-3-7(6)8(5)9/h5-9H,2-4H2,1H3/t5-,6+,7+,8-/m0/s1
