23
gdb 64047	2.47806	1.46687	1.17288	0.5228	93.57	-0.2104	-0.0209	0.1896	1186.4595	0.206565	-351.178169	-351.169003	-351.168059	-351.211755	36.239	
C	-0.2710177708	 1.6003004062	 0.0185634073	-0.403107
C	-0.0611571932	 0.0755969621	 0.0042590291	 0.218384
C	-1.4371157112	-0.6187885533	 0.057638516	-0.397686
C	 0.6230050818	-0.3612947702	-1.3130511965	-0.260132
C	 1.9630223456	 0.22540616	-1.6631444303	-0.08116
C	 2.9509291094	 0.6244066356	-0.8483455331	-0.069237
C	 3.0129847658	 0.6123175588	 0.6084755417	-0.069566
C	 2.09629567	 0.2041026827	 1.4985568193	-0.080617
C	 0.7273299051	-0.3707220987	 1.258247073	-0.259993
H	 0.6782720432	 2.1383149796	-0.0161065399	 0.132163
H	-0.8719543556	 1.9152906388	-0.8418186654	 0.103554
H	-0.8033847357	 1.9080812224	 0.9254516642	 0.103521
H	-2.0559801954	-0.333916427	-0.8000072043	 0.107404
H	-1.3330857359	-1.7098948572	 0.0470784584	 0.106662
H	-1.9824167998	-0.3440106189	 0.9669582577	 0.107378
H	 0.707674579	-1.4590034799	-1.3204027132	 0.107779
H	-0.0670854712	-0.1302947215	-2.1354405027	 0.097578
H	 2.148731544	 0.310693839	-2.7322125807	 0.085807
H	 3.8492555516	 1.0067906518	-1.3287647493	 0.080017
H	 3.9509045666	 0.9833723851	 1.0167145384	 0.079996
H	 2.3741787699	 0.270826153	 2.5488495521	 0.085823
H	 0.1097305782	-0.1379227777	 2.1360433786	 0.097757
H	 0.8041491186	-1.4690581307	 1.2557647698	 0.107675
46.7524	154.4607	207.1312	253.1812	264.5157	311.5782	338.1633	379.0033	394.6259	421.1812	421.5223	530.1669	618.3999	667.2433	785.7946	802.1461	848.085	854.7529	902.011	907.2626	915.9496	946.0106	1001.7346	1005.8211	1012.4221	1013.9328	1035.7323	1070.3658	1156.8985	1189.686	1195.5349	1257.5671	1285.8674	1305.884	1324.6725	1353.9995	1394.1321	1398.7927	1423.5809	1425.5026	1458.6576	1463.3488	1471.6358	1484.0282	1493.2566	1504.7315	1508.5544	1684.9411	1714.8646	2985.0793	2994.6531	3022.4373	3026.348	3029.2313	3034.0073	3088.2273	3090.5942	3096.8779	3125.0176	3131.3439	3132.5895	3148.296	3160.8054
CC1(C)CC=CC=CC1	CC1(C)CC=CC=CC1	
InChI=1S/C9H14/c1-9(2)7-5-3-4-6-8-9/h3-6H,7-8H2,1-2H3	InChI=1S/C9H14/c1-9(2)7-5-3-4-6-8-9/h3-6H,7-8H2,1-2H3
