18
gdb 11078	2.15419	2.123	1.83537	2.216	68.11	-0.2177	0.0734	0.291	890.1105	0.151933	-384.902889	-384.894305	-384.893361	-384.935263	32.354	
C	-0.0363910195	 1.5333076566	 0.0267830362	-0.421621
C	 0.1354391512	 0.0288660176	 0.0964989998	-0.156403
C	 1.4041741449	-0.7664963215	-0.2014705631	 0.296884
O	 1.4248580248	-1.7831246014	-1.1422648854	-0.462371
C	 2.6515518259	-0.0538750293	 0.3263325211	-0.293555
C	 2.0171371718	-0.0567155382	 1.7595773973	-0.270044
C	 0.7877897534	-0.7633669624	 1.2033861601	 0.359161
O	 0.1588160959	-1.7179591315	 1.9822782068	-0.461105
H	 0.8380743377	 2.0640598385	 0.4133945969	 0.122813
H	-0.1936333137	 1.8681523801	-1.005000373	 0.11163
H	-0.9021564551	 1.8577912748	 0.6147125307	 0.11972
H	-0.7171924069	-0.5261703674	-0.3012946424	 0.074119
H	 1.333797673	-1.3928675163	-2.018987321	 0.282566
H	 3.5338825817	-0.6948150914	 0.2687946526	 0.110873
H	 2.8931819379	 0.923017911	-0.1062932744	 0.089233
H	 2.5659453872	-0.7018631021	 2.448528198	 0.115797
H	 1.8524947553	 0.9139894951	 2.2367447832	 0.096876
H	-0.6085604256	-2.050436982	 1.5056929568	 0.285428
136.5138	163.7314	193.2334	224.6034	240.619	249.2904	285.2579	374.704	404.0767	513.3471	574.1441	617.529	699.6272	735.1683	764.6602	826.42	936.755	950.0881	996.0092	1038.4908	1088.4342	1100.609	1121.4066	1129.0854	1191.5784	1212.5186	1222.272	1239.2141	1264.5637	1322.5549	1342.001	1399.4364	1418.331	1469.099	1474.8213	1498.219	1505.3555	1529.4701	3028.4082	3041.4934	3057.7077	3084.1294	3085.2879	3103.683	3111.6727	3121.9892	3780.5438	3822.6309
CC1C2(O)CCC12O	C[C@H]1[C@@]2(O)CC[C@@]12O	
InChI=1S/C6H10O2/c1-4-5(7)2-3-6(4,5)8/h4,7-8H,2-3H2,1H3	InChI=1S/C6H10O2/c1-4-5(7)2-3-6(4,5)8/h4,7-8H,2-3H2,1H3/t4-,5-,6+
