23
gdb 80609	2.1063	1.81636	1.44917	1.2997	84.51	-0.2581	0.0783	0.3364	1066.8849	0.206689	-388.283277	-388.274504	-388.273559	-388.315712	35.842	
C	-0.05739998	 1.5319944253	-0.0065614964	-0.430495
C	 0.0349068768	-0.0010156448	-0.0110875532	 0.301902
C	-1.3946396925	-0.5618118311	-0.0736481614	-0.448657
C	 0.9510357858	-0.5447247301	-1.1464672961	-0.030658
C	 1.2330621949	-2.0105437767	-0.6967204397	-0.246944
C	 1.9973089404	-1.2935252146	 0.4483199272	-0.057081
C	 2.3838047094	-0.2324130213	-0.6170809226	-0.235562
C	 0.8526373362	-0.5877154812	 1.2059369114	 0.105614
O	 1.2871286531	 0.4520467422	 2.0693135111	-0.44016
H	 0.9184824494	 2.017651673	 0.014062162	 0.120772
H	-0.5898052607	 1.8701703349	-0.9028514103	 0.099078
H	-0.6116962787	 1.8847391721	 0.8676358735	 0.118781
H	-1.9057254226	-0.2173291198	-0.9799958112	 0.108867
H	-1.4243640538	-1.6543426473	-0.0711891236	 0.109399
H	-1.9796848299	-0.2154928667	 0.785602665	 0.114498
H	 0.6500322142	-0.3044075766	-2.1679835725	 0.052555
H	 0.3946200122	-2.6626889572	-0.4405649282	 0.088834
H	 1.9083221061	-2.5331753566	-1.3782940886	 0.095752
H	 2.7426057053	-1.8088888425	 1.0592059777	 0.04581
H	 3.1626897824	-0.5894153808	-1.2949894415	 0.090671
H	 2.6176882362	 0.7755456993	-0.272499425	 0.102719
H	 0.2462202953	-1.3118385743	 1.7703709235	 0.054341
H	 1.8232349003	 0.0538088549	 2.7620225389	 0.279962
146.4986	181.2788	234.3603	238.5283	258.1324	304.447	317.8488	371.9778	417.2005	491.8855	502.5158	532.5275	612.5092	753.9605	794.6069	845.0139	858.4899	879.443	903.6782	946.699	954.882	971.3895	993.9756	1029.9893	1036.2741	1056.4467	1077.0882	1079.1044	1104.3715	1124.3233	1177.4706	1216.2685	1221.3174	1226.2399	1241.264	1251.9844	1276.6147	1292.0624	1311.2428	1357.5484	1401.1689	1411.6943	1434.3349	1477.812	1484.7112	1501.385	1502.2407	1510.7125	1533.6309	2980.4783	3028.8815	3039.7273	3061.862	3069.4612	3083.3919	3088.9949	3097.2192	3104.5542	3109.2931	3120.0124	3130.4151	3143.2376	3819.4204
CC1(C)C2CC(C2)C1O	CC1(C)[C@@H]2C[C@@H](C2)[C@H]1O	
InChI=1S/C8H14O/c1-8(2)6-3-5(4-6)7(8)9/h5-7,9H,3-4H2,1-2H3	InChI=1S/C8H14O/c1-8(2)6-3-5(4-6)7(8)9/h5-7,9H,3-4H2,1-2H3/t5-,6+,7-/m1/s1
