15
gdb 98013	4.72832	0.63102	0.55869	0.3077	76.67	-0.2646	-0.0591	0.2055	1887.1327	0.110826	-453.97309	-453.962627	-453.961683	-454.011785	34.185	
C	-0.0084043571	 1.4354166695	 0.0859915161	-0.34108
N	 0.1267252619	-0.00294576	-0.0359525208	-0.308861
C	 0.5210287114	-0.6061656528	-1.191618266	 0.259291
O	 0.7964556457	-0.0198289202	-2.2231389885	-0.354636
C	 0.587004304	-2.0614003799	-1.0835764793	-0.060506
C	 0.6558334254	-3.2643295071	-1.0410219303	 0.133925
C	 0.7193123175	-4.7190801224	-0.924921777	 0.262606
N	 1.1120580834	-5.3384632774	-2.0718743873	-0.517962
O	 0.4441043668	-5.302032396	 0.1051100747	-0.329605
H	 0.6622260623	 1.8310457011	 0.8563430993	 0.134368
H	 0.2562613748	 1.8723905442	-0.8771175224	 0.175705
H	-1.0371662176	 1.7154312916	 0.3368891607	 0.134368
H	-0.075442194	-0.5912756482	 0.7563551573	 0.264537
H	 1.3311906506	-4.819265669	-2.9042725843	 0.276569
H	 1.1814992649	-6.3430326534	-2.075464922	 0.271281
9.2611	61.0585	68.4631	81.4861	166.0698	174.8035	183.4877	305.1718	336.5609	343.0719	502.8143	522.4129	574.7862	586.115	621.9589	762.7941	776.7316	787.9234	934.7272	1092.3947	1094.9482	1150.9558	1173.9286	1250.4216	1345.2721	1440.7421	1489.8437	1497.8858	1559.5134	1610.3246	1759.7612	1777.6127	2341.0261	3032.3227	3086.5309	3158.4313	3600.7344	3642.477	3742.2572	9.2632	61.0589	68.4644	81.4868	166.0701	174.803	183.489	305.1716	336.5609	343.0746	502.8149	522.4131	574.7867	586.1147	621.9587	762.7946	776.7324	787.9233	934.7273	1092.3948	1094.9483	1150.9554	1173.9282	1250.4211	1345.2726	1440.7417	1489.8433	1497.8855	1559.5127	1610.3247	1759.7607	1777.6133	2341.0262	3032.3228	3086.5309	3158.4314	3600.7343	3642.4773	3742.2572
CNC(=O)C#CC(N)=O	CNC(=O)C#CC(=O)N	
InChI=1S/C5H6N2O2/c1-7-5(9)3-2-4(6)8/h1H3,(H2,6,8)(H,7,9)	InChI=1S/C5H6N2O2/c1-7-5(9)3-2-4(6)8/h1H3,(H2,6,8)(H,7,9)
