15
gdb 45653	3.36354	1.63482	1.29333	3.2714	71.97	-0.2113	-0.0173	0.1941	948.2355	0.114719	-416.76068	-416.754024	-416.75308	-416.791729	26.564	
O	-0.1727103025	-0.0525787763	-0.0297207811	-0.360395
C	-0.015060922	 1.1382806775	 0.0696699457	 0.399646
N	-1.0478640074	 2.0774888663	 0.2455242251	-0.312552
C	-0.5712931292	 3.3728630241	 0.4684417888	-0.056562
C	 0.7397989809	 3.4264703194	 0.1782139388	 0.072052
C	 2.0025167573	 3.7513218758	 0.9518223848	-0.128753
N	 1.9370170401	 2.8246145416	 2.1281069534	-0.322321
C	 2.420966422	 2.3212139165	 0.8244643227	-0.069598
C	 1.2238030675	 2.023851479	-0.1234641422	-0.168714
H	-2.009842846	 1.7882927896	 0.3278427715	 0.261345
H	-1.2210795358	 4.1073894332	 0.9259671441	 0.130736
H	 2.6019457392	 4.6513474656	 0.9780859463	 0.103731
H	 2.7711076959	 2.9920004839	 2.6946101306	 0.229376
H	 3.4110467753	 1.8948778079	 0.7242098489	 0.102571
H	 1.6031403946	 1.8684552358	-1.1395954374	 0.11944
124.6804	162.012	319.924	344.4977	506.7644	524.0777	545.8846	630.7516	655.5221	717.8818	738.4977	806.9709	819.2423	852.329	877.2319	909.5481	936.2727	998.8631	1020.0523	1070.3714	1092.8026	1104.4614	1122.9208	1160.1576	1166.7529	1221.4041	1289.1379	1301.4369	1320.7152	1361.8879	1394.5832	1654.6792	1841.347	3056.2388	3192.7641	3208.0601	3217.8445	3442.5144	3644.6044
O=C1NC=C2C3NC3C12	O=C1N[CH][C]2[C@H]3N[C@H]3[C@@H]12	
InChI=1S/C6H6N2O/c9-6-3-2(1-7-6)4-5(3)8-4/h1,3-5,8H,(H,7,9)	InChI=1S/C6H6N2O/c9-6-3-2(1-7-6)4-5(3)8-4/h1,3-5,8H,(H,7,9)/t3-,4+,5-/m0/s1
