19
gdb 40322	3.19461	1.2697	1.07168	2.0565	74.64	-0.2426	0.0696	0.3121	1170.1423	0.160169	-419.121402	-419.113028	-419.112084	-419.154905	31.56	
C	 0.5485881315	 1.501712104	 0.312027308	-0.228059
N	 1.2114562364	 0.350184957	-0.3218696328	-0.317869
C	-0.1728816023	 0.2130667508	 0.1412535391	-0.096021
C	-0.4226274063	-0.7120689765	 1.3062694798	 0.376027
C	 0.5204360286	-1.8053226637	 1.5936830516	-0.210297
O	 0.5150058885	-0.6032079336	 2.379223205	-0.275144
C	-1.8629062657	-0.8081044207	 1.7289949971	-0.066946
C	-2.2210121612	-1.2020377156	 3.1095817246	-0.246404
N	-2.4120277746	 0.1920024459	 2.6649522142	-0.325416
H	 0.9427369171	 1.7540413503	 1.2908675205	 0.135357
H	 0.2493097705	 2.3448508242	-0.3043651757	 0.113664
H	 1.2312284601	 0.4646405247	-1.3312321787	 0.234781
H	-0.9613648375	 0.1888843826	-0.6088575797	 0.086591
H	 0.1655281447	-2.6950668172	 2.1103437212	 0.110581
H	 1.3938005523	-1.91977306	 0.9572919567	 0.135458
H	-2.5463038627	-1.0615803729	 0.9201432475	 0.089721
H	-3.1374974591	-1.7556596339	 3.2914261512	 0.115576
H	-1.4049287236	-1.4068331946	 3.795462624	 0.127612
H	-1.6396926467	 0.7479149692	 3.0287406266	 0.240787
69.0369	78.6279	176.518	206.5518	262.0655	287.5535	397.2308	414.5761	540.0942	596.5882	690.4939	813.3935	843.4455	863.305	875.9162	897.7764	928.0008	943.2031	958.7444	975.535	1001.6108	1028.0559	1107.268	1115.3556	1125.343	1132.6748	1146.4192	1164.5726	1178.6258	1196.7467	1208.5905	1254.0145	1274.4737	1287.7723	1305.979	1387.4458	1423.1867	1447.494	1497.4111	1501.0178	1512.0523	3096.764	3114.7217	3117.0817	3120.0132	3126.9567	3199.5107	3208.7807	3211.8179	3483.7182	3511.8706
C1NC1C1(CO1)C1CN1	C1N[C@H]1[C@]1(CO1)[C@H]1CN1	
InChI=1S/C6H10N2O/c1-4(7-1)6(3-9-6)5-2-8-5/h4-5,7-8H,1-3H2	InChI=1S/C6H10N2O/c1-4(7-1)6(3-9-6)5-2-8-5/h4-5,7-8H,1-3H2/t4-,5-/m1/s1
