17
gdb 45259	3.18182	1.65953	1.35333	3.6701	71.67	-0.2245	-0.0156	0.2089	956.4952	0.138211	-417.976984	-417.970147	-417.969203	-418.008236	27.422	
O	 0.1435962812	 0.1986619499	-1.0502232916	-0.29358
C	 0.067647082	 1.1597009411	-0.3483783942	 0.422903
C	-1.0235424029	 1.8023897993	 0.5187700443	-0.296525
N	-0.1363237735	 2.9862011195	 0.6885506509	-0.10143
C	 0.2365884392	 3.4102301079	 2.0461897523	-0.181866
C	 1.5382720127	 2.694863334	 2.3752304248	-0.032394
N	 1.4225878486	 1.2315698165	 2.2438557677	-0.34159
C	 2.024447944	 2.0159048919	 1.1418535819	-0.048781
C	 1.0288161862	 2.307995012	 0.0349890184	-0.130465
H	-1.9718652766	 2.0171031545	 0.0133375456	 0.122147
H	-1.2120977976	 1.2299410234	 1.4355909462	 0.137043
H	 0.3941097903	 4.4961666654	 2.0764968174	 0.105491
H	-0.5657357012	 3.1686179442	 2.7513936896	 0.114306
H	 2.2263143601	 3.1145143388	 3.1030948624	 0.093375
H	 2.1583380094	 0.7738300596	 2.7753085433	 0.238294
H	 3.0789106234	 1.9020128469	 0.9164623814	 0.097183
H	 1.4903076646	 2.8546803452	-0.7951701103	 0.095889
103.8363	178.21	283.4817	379.909	401.3121	443.2666	570.9983	597.3555	694.3418	700.3338	777.634	807.271	853.9481	886.4405	892.1571	947.022	966.2353	991.9474	1024.7775	1044.839	1071.1238	1094.1004	1117.2157	1135.6724	1157.3085	1185.8944	1217.2743	1233.9675	1256.0321	1282.6888	1299.4808	1340.1073	1358.9375	1414.7736	1461.6534	1496.5279	1917.1349	3018.5914	3024.0704	3046.0738	3073.4343	3074.9455	3156.4335	3177.5802	3511.0795
O=C1CN2CC3NC3C12	O=C1CN2C[C@H]3N[C@H]3[C@@H]12	
InChI=1S/C6H8N2O/c9-4-2-8-1-3-5(7-3)6(4)8/h3,5-7H,1-2H2	InChI=1S/C6H8N2O/c9-4-2-8-1-3-5(7-3)6(4)8/h3,5-7H,1-2H2/t3-,5-,6-/m1/s1
