16
gdb 71452	4.2483	1.44965	1.29549	4.0669	69.33	-0.2361	0.0235	0.2596	973.693	0.126569	-434.013564	-434.006645	-434.005701	-434.044621	28.006	
N	-0.0275697011	 1.4169405643	 0.0700984794	-0.605406
C	 0.0416225052	 0.0044745374	-0.0303013336	 0.247254
C	 0.7090281095	-0.8908841244	-1.0721217272	-0.243986
N	-0.3003260517	-1.9954003413	-0.7515625012	-0.175747
C	-1.1170020197	-0.9943737654	 0.0119866152	-0.105536
C	-0.2555422479	-0.8498020151	 1.2048659379	 0.050348
O	 0.4691982438	-2.0475400919	 1.4195438693	-0.242084
C	 0.3292157642	-2.7962441696	 0.2618512841	 0.429667
N	 0.7419770478	-3.9713276561	 0.0971324159	-0.54343
H	 0.8437983553	 1.8105426901	 0.4112442629	 0.239868
H	-0.2343532738	 1.846082475	-0.826561055	 0.237518
H	 0.5438600847	-0.546621238	-2.0967345536	 0.118579
H	 1.7580878402	-1.1775378822	-0.9426271205	 0.122464
H	-2.1909635881	-0.9178346219	-0.0914490153	 0.11268
H	-0.568911168	-0.3536533953	 2.1123196906	 0.128224
H	 1.1990624994	-4.3045291854	 0.9466568511	 0.229587
127.3832	219.8935	288.9266	347.4338	361.4418	456.0858	488.2099	572.0617	701.9816	727.8938	749.3401	785.0996	812.7409	849.4692	871.695	882.8596	919.3148	932.516	967.6405	1009.0954	1015.3067	1051.1631	1081.1205	1082.5666	1159.8331	1179.0489	1227.2638	1251.2351	1264.4468	1294.3896	1336.8647	1441.8471	1509.807	1657.7243	1794.7657	3042.2416	3101.2037	3206.0044	3231.6396	3490.4282	3494.7531	3572.5277
NC12CN3C1C2OC3=N	N[C@]12CN3[C@H]1[C@H]2O[C]3[NH]	
InChI=1S/C5H7N3O/c6-4-8-1-5(7)2(8)3(5)9-4/h2-3,6H,1,7H2	InChI=1S/C5H7N3O/c6-4-8-1-5(7)2(8)3(5)9-4/h2-3,6H,1,7H2/t2-,3+,5+/m0/s1
