27
gdb 116493	2.55068	1.06886	0.83356	0.0459	95.55	-0.2906	0.0808	0.3713	1535.9123	0.254668	-353.58337	-353.573478	-353.572534	-353.618077	38.412	
C	 0.2016846629	 1.5629631129	 0.064475652	-0.391587
C	 0.0579498358	 0.0435143484	-0.0689004454	-0.178062
C	-1.3932320447	-0.4771756634	 0.0039360664	 0.057443
C	-2.1894130535	-0.0913980072	-1.2633691456	-0.189252
C	-3.7091333299	 0.0959157433	-1.09793599	-0.198181
C	-4.4456248377	-0.941387466	-0.22620328	-0.178499
C	-3.9275515903	-2.3871619974	-0.3166228096	-0.182713
C	-2.7212866841	-2.6628789636	 0.5966367648	-0.197511
C	-1.3880240965	-2.0065166866	 0.2091120228	-0.188164
H	 1.253889455	 1.8618559498	 0.0202622345	 0.110746
H	-0.3229581022	 2.1019587762	-0.7309379341	 0.117271
H	-0.2025058454	 1.9126890234	 1.0212351997	 0.112122
H	 0.5095600515	-0.289609712	-1.0140444952	 0.09045
H	 0.6434366687	-0.4322360453	 0.7278365845	 0.087762
H	-1.8654013219	-0.0084891069	 0.8811043004	 0.060742
H	-1.7913736433	 0.8380629418	-1.6850627543	 0.087382
H	-1.9965619785	-0.8588450037	-2.0246248247	 0.090321
H	-3.9056763392	 1.0924889055	-0.682771556	 0.092046
H	-4.1532679833	 0.1014794816	-2.1013980843	 0.091188
H	-4.4018123315	-0.6338301445	 0.8267268786	 0.091739
H	-5.508407786	-0.9146508532	-0.4938690615	 0.087511
H	-4.7347709358	-3.0666329964	-0.0178172713	 0.088606
H	-3.6879431822	-2.6456306679	-1.3570182669	 0.089256
H	-2.9905832363	-2.3478687241	 1.6148673672	 0.089869
H	-2.5572449971	-3.7463805131	 0.6533748439	 0.086987
H	-1.01153405	-2.4702523093	-0.7144058684	 0.088241
H	-0.6566111242	-2.2575941022	 0.9880712028	 0.084289
76.2216	96.5796	131.5408	167.4147	224.0796	263.8714	286.7901	338.2275	354.1824	400.6794	453.822	499.3018	533.054	735.0968	756.1936	778.7672	837.1126	852.2643	860.9288	884.838	938.7927	960.8219	1007.8724	1018.1448	1020.7946	1046.3295	1064.6048	1097.0322	1099.6354	1133.909	1152.8659	1206.3957	1225.5515	1231.2117	1268.1257	1278.8549	1306.0135	1310.2043	1324.988	1349.4726	1372.1303	1378.6377	1383.4294	1386.0167	1387.5207	1400.6287	1408.7136	1413.5884	1476.5716	1481.5667	1485.5598	1488.5782	1492.6055	1498.127	1502.6288	1505.1985	1511.4684	2983.4962	2998.7756	3002.2011	3008.6057	3011.7034	3013.5608	3017.4388	3023.1619	3030.5693	3037.1176	3041.1867	3046.0793	3049.4084	3054.5104	3059.0647	3066.8313	3096.0927	3101.0903
CCC1CCCCCC1	CCC1CCCCCC1	
InChI=1S/C9H18/c1-2-9-7-5-3-4-6-8-9/h9H,2-8H2,1H3	InChI=1S/C9H18/c1-2-9-7-5-3-4-6-8-9/h9H,2-8H2,1H3
