18
gdb 37765	2.97017	2.21646	2.08767	1.6699	77.28	-0.2005	0.0061	0.2065	793.0896	0.15216	-364.755061	-364.749507	-364.748562	-364.784503	24.989	
C	-0.0343965595	 1.538117702	 0.0576501847	-0.236973
C	 1.5107814415	 1.5503749622	-0.0580622508	-0.06765
C	 2.2192018713	 0.9524670797	 1.2255951807	-0.042018
C	 1.4559180628	 1.018663711	 2.5183071493	-0.074157
C	 0.519342732	 0.0647887454	 2.5210547123	-0.074158
C	 0.5957789193	-0.7009471774	 1.2303593277	-0.042018
C	-0.0186928859	-0.0073586164	-0.053575966	-0.06765
C	 1.4472317461	 0.0815406366	-0.5767600476	 0.011211
N	 1.9992056922	-0.4566695161	 0.7257249164	-0.143864
H	-0.488809699	 1.9868438129	 0.9457543731	 0.094806
H	-0.4844832301	 1.9774602192	-0.8376960599	 0.099899
H	 1.9968125948	 2.3848277148	-0.5641721322	 0.064435
H	 3.2777954338	 1.2183810314	 1.2934988722	 0.072461
H	 1.6213828007	 1.7626789014	 3.2882046359	 0.100797
H	-0.2192976921	-0.1120013908	 3.2936056565	 0.100797
H	 0.3494860371	-1.7640254827	 1.3020940788	 0.072461
H	-0.8455595032	-0.5100622004	-0.5558360063	 0.064435
H	 1.8301970381	-0.2972043626	-1.523691155	 0.067187
302.3533	324.788	465.3348	535.3148	615.176	671.224	686.4681	739.0688	786.3288	789.4225	820.948	857.0635	860.092	920.359	945.3745	951.431	970.7269	980.2231	987.8507	988.1894	1026.2398	1052.9218	1063.1713	1107.3872	1132.4008	1143.3015	1194.9812	1195.7632	1219.1148	1224.5984	1255.3556	1256.0666	1281.2891	1301.2581	1317.5794	1333.5407	1361.8691	1475.5221	1648.7025	3047.4151	3060.0859	3062.6534	3095.8014	3101.1783	3101.3839	3119.9208	3194.4778	3218.9196
C1C2C3C=CC4C1C2N34	C1[C@H]2[C@H]3C=C[C@H]4[C@@H]1[C@@H]2N34	
InChI=1S/C8H9N/c1-2-7-5-3-4-6(1)9(7)8(4)5/h1-2,4-8H,3H2	InChI=1S/C8H9N/c1-2-7-5-3-4-6(1)9(7)8(4)5/h1-2,4-8H,3H2/t4-,5+,6+,7-,8+
