17
gdb 92999	3.02707	1.17571	0.94098	3.8425	71.58	-0.2672	-0.0103	0.2569	1230.9108	0.135554	-458.990074	-458.98158	-458.980636	-459.024562	30.839	
O	-0.0050014365	 0.9095297603	-0.8111516884	-0.432855
C	-0.1026986962	-0.2113915657	 0.0284445024	 0.122462
C	 0.3025399404	-0.0005613687	 1.5106453054	-0.293586
C	-0.5955608825	-0.9657009049	 2.2399879243	-0.055532
C	-1.5905076943	-1.4190156115	 1.4758645944	-0.082429
C	-1.5348482106	-0.8219631153	 0.0989567757	 0.032271
O	-2.5068089973	 0.2486173322	-0.0055452512	-0.212974
C	-3.2313471296	 0.3448919782	-1.1393627691	 0.171275
O	-3.9880020788	 1.2453327334	-1.3436170657	-0.27522
H	-0.6718557356	 1.544272218	-0.5219573512	 0.29402
H	 0.5565677991	-0.9685955929	-0.4077610535	 0.105185
H	 1.3683809264	-0.1849879338	 1.678159781	 0.115975
H	 0.1103326667	 1.0340100534	 1.8255712802	 0.120724
H	-0.4400559466	-1.2393555759	 3.2778863821	 0.109217
H	-2.3775144727	-2.0950456447	 1.7872106659	 0.108465
H	-1.7242125146	-1.5339571673	-0.7121053432	 0.088993
H	-3.0540109971	-0.4961961349	-1.8363971391	 0.084009
28.8368	79.7035	142.682	203.6233	283.4907	332.9758	393.2	426.308	446.2894	547.2188	603.7603	729.4548	746.2932	793.6162	848.0447	944.0044	973.0835	986.118	1016.6778	1026.7281	1045.5549	1093.0132	1124.1212	1140.3521	1151.1231	1179.9402	1260.5963	1293.7092	1314.5432	1336.5374	1365.3502	1384.5449	1434.4051	1438.9294	1480.5824	1678.901	1863.895	2957.8773	3023.7519	3042.9987	3062.6666	3081.3251	3189.4252	3215.9881	3788.9223
OC1CC=CC1OC=O	O[C@H]1CC=C[C@H]1OC=O	
InChI=1S/C6H8O3/c7-4-9-6-3-1-2-5(6)8/h1,3-6,8H,2H2	InChI=1S/C6H8O3/c7-4-9-6-3-1-2-5(6)8/h1,3-6,8H,2H2/t5-,6+/m0/s1
