17
gdb 91150	2.39871	1.87061	1.31377	1.9433	73.31	-0.2443	-0.0575	0.1868	989.0776	0.136664	-421.843383	-421.835804	-421.83486	-421.875614	28.999	
C	-0.5887839707	 1.3994184081	-0.0367356832	-0.40384
C	 0.0108180042	 0.0085403726	-0.0266425208	 0.149476
O	 1.1991458499	-0.1113851214	-0.8528804236	-0.311957
C	 1.9710797455	-0.6326601429	 0.2609086546	 0.079229
C	 2.9929121383	 0.3542136966	 0.7693104432	-0.065253
C	 2.5837898829	 0.9712667103	 1.8849446889	-0.178468
C	 1.2171976576	 0.5230438539	 2.2710907008	 0.386754
O	 0.5654747018	 0.9075999002	 3.2138632276	-0.335748
C	 0.7856970169	-0.5075612113	 1.2278982502	-0.238696
H	 0.1391113137	 2.1526541149	 0.2749290309	 0.127562
H	-0.9268658099	 1.6486066145	-1.0473323195	 0.127364
H	-1.449718065	 1.4461173066	 0.6376720657	 0.133238
H	-0.7360470346	-0.7270973452	-0.3513061712	 0.088215
H	 2.3835776314	-1.6221838045	 0.0381169548	 0.090005
H	 3.9240289568	 0.5404237924	 0.2452413557	 0.125366
H	 3.117806696	 1.7284068018	 2.4458250008	 0.123167
H	 0.3724424553	-1.4023064565	 1.6911259749	 0.103587
80.0115	141.733	219.3583	235.601	347.9797	391.6603	421.4095	514.1572	586.0679	703.9372	714.5897	789.6981	808.5181	857.1423	886.5612	910.9838	935.4265	981.3591	1002.8095	1013.6478	1056.7627	1092.5017	1103.7661	1147.2968	1184.7445	1209.2587	1251.8458	1270.159	1312.1779	1328.4436	1358.5465	1388.3787	1411.056	1478.6728	1497.6443	1640.6101	1812.8518	3017.9774	3042.9112	3053.0343	3114.2174	3126.2032	3128.6564	3194.4667	3223.721
CC1OC2C=CC(=O)C12	C[C@H]1O[C@H]2C=CC(=O)[C@@H]12	
InChI=1S/C7H8O2/c1-4-7-5(8)2-3-6(7)9-4/h2-4,6-7H,1H3	InChI=1S/C7H8O2/c1-4-7-5(8)2-3-6(7)9-4/h2-4,6-7H,1H3/t4-,6+,7-/m1/s1
