18
gdb 77712	2.77182	1.7272	1.56851	1.4057	74.31	-0.2217	0.0104	0.2321	948.8079	0.148854	-401.907356	-401.900011	-401.899067	-401.938652	29.477	
C	-0.0900208377	 1.4846685695	-8.4238*^-6	-0.421553
C	 0.0831064331	-0.0156910619	 0.0648783272	-0.100364
C	 1.3841895416	-0.7127219326	-0.2120025138	 0.272087
C	 2.6574406916	-0.0535094674	 0.3378422543	-0.290747
C	 2.010048412	-0.0323904696	 1.7732953346	-0.285752
C	 0.7751623815	-0.7446997509	 1.1910495117	 0.21499
N	 0.4237505073	-2.128740324	 1.4388022127	-0.303481
C	 0.741099242	-2.7419223535	 0.3661066383	 0.075976
O	 1.3292897373	-2.0562106807	-0.673476674	-0.249319
H	 0.7880751955	 2.0204738725	 0.369625063	 0.123998
H	-0.2626012234	 1.8057941908	-1.0324840075	 0.125752
H	-0.9486013781	 1.7990078643	 0.6020898999	 0.127537
H	-0.7666828587	-0.577706935	-0.3124751486	 0.108053
H	 3.5085495473	-0.7338572003	 0.2808804484	 0.12317
H	 2.943804284	 0.9046190659	-0.1056064272	 0.107595
H	 2.5441609487	-0.6639698616	 2.4843495372	 0.12237
H	 1.8421996787	 0.9473068272	 2.2291842315	 0.106024
H	 0.5825991073	-3.7958275327	 0.1678139161	 0.143665
176.4483	220.5746	234.0084	255.4392	282.741	391.469	453.4228	544.2549	585.7668	690.696	700.0263	755.0263	772.3539	802.7165	888.9961	935.7223	940.854	957.4146	963.1581	984.1894	1046.3414	1069.1902	1109.3787	1117.7293	1172.1462	1200.5141	1227.7413	1235.5578	1263.4451	1283.5574	1317.5277	1323.5216	1414.2257	1437.2206	1469.0834	1491.2459	1494.437	1500.0538	1626.9221	3037.7476	3056.2198	3063.3067	3100.8576	3112.3396	3118.1066	3135.523	3157.1929	3222.8349
CC1C23CCC12N=CO3	C[C@H]1[C@@]23CC[C@@]12N=CO3	
InChI=1S/C7H9NO/c1-5-6-2-3-7(5,6)9-4-8-6/h4-5H,2-3H2,1H3	InChI=1S/C7H9NO/c1-5-6-2-3-7(5,6)9-4-8-6/h4-5H,2-3H2,1H3/t5-,6-,7+/m1/s1
