18
gdb 80087	2.28519	1.76743	1.37834	3.0951	77.79	-0.2355	-0.0264	0.2091	1009.4248	0.148204	-401.944937	-401.937002	-401.936057	-401.977405	30.631	
C	-0.1509296487	 1.4575178554	-0.0233892795	-0.324692
N	 0.0471136132	 0.0151860972	 0.0204119138	-0.095928
C	 1.3388220813	-0.6107803892	-0.2659964759	-0.080323
C	 2.5678442825	 0.1964391925	-0.4664181745	-0.057885
C	 3.0835571124	 0.989246956	 0.4744190571	-0.073209
C	 2.503963213	 1.1120446515	 1.8562948746	-0.389782
C	 1.467228068	 0.0517114213	 2.2237296989	 0.40919
O	 1.2663339186	-0.2456940481	 3.3812924868	-0.327298
C	 0.7374969594	-0.6564796954	 1.1217453136	-0.141798
H	 0.7611906859	 2.0611405436	 0.0627722471	 0.116557
H	-0.6220183127	 1.7023832601	-0.9806482792	 0.130345
H	-0.8428405594	 1.7398240891	 0.7755006892	 0.134008
H	 1.253443846	-1.5045042116	-0.880249808	 0.102663
H	 3.032990646	 0.1401208583	-1.4463912363	 0.098792
H	 3.9650629097	 1.5872698626	 0.258955318	 0.103835
H	 3.2828440313	 1.0827716528	 2.6258161751	 0.142096
H	 2.0213074746	 2.0949963961	 1.9763820439	 0.143408
H	 0.2415110088	-1.5576401322	 1.4737623554	 0.110021
76.8874	135.0504	219.1985	231.2672	333.6356	379.5951	439.7964	479.4925	515.9107	564.5647	609.174	693.1447	726.4993	740.5915	850.4271	920.5717	933.2638	961.6455	963.2672	995.2237	1040.9216	1081.1668	1123.4439	1156.4622	1171.7918	1189.1669	1195.1902	1247.5901	1313.2844	1338.6311	1354.7546	1388.1711	1417.9312	1434.4124	1449.4549	1482.8513	1515.4562	1714.3766	1788.7688	2995.2806	3017.1778	3071.0871	3081.1322	3109.8678	3127.4691	3144.1631	3156.1015	3178.8666
CN1C2C=CCC(=O)C12	CN1[C@H]2C=CCC(=O)[C@@H]12	
InChI=1S/C7H9NO/c1-8-5-3-2-4-6(9)7(5)8/h2-3,5,7H,4H2,1H3	InChI=1S/C7H9NO/c1-8-5-3-2-4-6(9)7(5)8/h2-3,5,7H,4H2,1H3/t5-,7-,8?/m0/s1
