22
gdb 103347	3.39904	1.24523	1.07902	0.9946	83.83	-0.2099	0.0941	0.304	1228.3529	0.192153	-404.257516	-404.248032	-404.247088	-404.291486	36.215	
C	-0.185079216	 1.6451532034	 0.4545044138	-0.252544
O	 0.0533152439	 0.2804303261	 0.1796416648	-0.295069
C	 0.6841775089	-0.4444550648	 1.2093536922	 0.485409
C	 2.1308357415	-0.0138939481	 1.3993004293	-0.476985
C	-0.1903249472	-0.8067700625	 2.473687655	-0.091026
C	-1.1232631071	-1.62095617	 1.531223837	-0.260016
C	 0.3464274995	-1.9690278757	 1.1573259548	-0.082761
N	 0.7359329763	-2.0000011123	 2.6248244638	-0.113946
C	 0.3081211927	-3.1250579706	 3.4454161373	-0.327215
H	 0.7428853628	 2.2270191976	 0.5359060722	 0.112879
H	-0.7675757941	 2.0383439669	-0.3823460033	 0.126437
H	-0.7630227357	 1.781776416	 1.3804453053	 0.106134
H	 2.1939005846	 1.007275806	 1.788869648	 0.110048
H	 2.6342312127	-0.6786854902	 2.0984294824	 0.144594
H	 2.6460958823	-0.0345151725	 0.4335455056	 0.116559
H	-0.4502775086	-0.1801543558	 3.3301548094	 0.071386
H	-1.707532655	-2.4136524086	 1.9948051152	 0.097082
H	-1.7089828606	-1.0722311391	 0.7965270436	 0.115335
H	 0.7214761968	-2.709401239	 0.4472989257	 0.076141
H	 0.9638071005	-3.9757828325	 3.2309381702	 0.120636
H	 0.4512545068	-2.8569250231	 4.4977057319	 0.119753
H	-0.7316035351	-3.4648122309	 3.3248181557	 0.097169
61.8242	150.7928	171.1	180.2048	210.9962	255.9862	283.5614	320.3512	399.8874	429.9144	480.4195	555.1216	569.0649	675.1372	749.798	779.3006	810.8824	887.6146	898.418	910.2039	1007.7925	1017.4043	1075.7169	1088.3774	1103.8929	1121.1349	1133.8574	1154.9511	1174.4197	1180.5377	1188.3486	1196.0567	1213.3194	1229.2143	1243.9144	1275.1545	1305.6648	1387.6204	1441.3006	1475.0447	1478.8191	1485.3848	1489.5147	1501.8904	1507.3021	1512.548	1523.2589	2982.8311	2989.2047	3039.4772	3047.7262	3059.7666	3083.3776	3090.9388	3093.5401	3100.2848	3112.6021	3113.6216	3169.1245	3169.7378
COC1(C)C2CC1N2C	CO[C@@]1(C)[C@H]2C[C@@H]1N2C	
InChI=1S/C7H13NO/c1-7(9-3)5-4-6(7)8(5)2/h5-6H,4H2,1-3H3	InChI=1S/C7H13NO/c1-7(9-3)5-4-6(7)8(5)2/h5-6H,4H2,1-3H3/t5-,6+,7+
