15
gdb 5368	5.21261	1.54252	1.19923	2.3222	74.22	-0.2135	-0.0243	0.1891	965.8414	0.120221	-362.682031	-362.674995	-362.674051	-362.713455	26.055	
C	-0.1312378523	 1.4244818869	 0.0215633199	-0.321622
N	-0.048963149	-0.0254395211	 0.0054175234	-0.310539
C	 0.6184141997	-0.5901868788	-0.937433173	 0.300086
C	 1.3378518425	 0.0500813524	-2.0439614203	-0.249946
C	 1.9935392746	-0.6816813352	-2.957162875	 0.070839
O	 2.0563898504	-2.0350295208	-2.9515942233	-0.201559
C	 1.4020118008	-2.6775893684	-1.9406719624	 0.058192
C	 0.7184344562	-2.0462604361	-0.9791126118	-0.192597
H	 0.8550842621	 1.905206806	 0.1134233434	 0.109265
H	-0.6103300003	 1.8332577685	-0.881620526	 0.109253
H	-0.7299562429	 1.7389574005	 0.8805657376	 0.118521
H	 1.3537042397	 1.1269993796	-2.1452721449	 0.113227
H	 2.5429145604	-0.272856208	-3.796315269	 0.138263
H	 1.5140955463	-3.7500880068	-2.0280268317	 0.138803
H	 0.2211598418	-2.6171439288	-0.204864127	 0.119814
100.0855	126.9291	239.086	252.9389	416.3317	443.9796	463.1193	558.3416	654.8412	725.3843	789.2135	825.6113	852.7745	933.596	961.2733	966.6789	1008.0091	1044.0582	1062.2708	1095.6509	1164.2279	1225.7704	1264.6991	1329.9042	1418.4601	1426.8084	1435.4151	1490.2446	1506.3964	1631.2455	1665.6113	1723.0182	2969.9134	3016.8647	3093.9594	3210.0617	3212.4708	3229.9318	3235.7239
CN=C1C=COC=C1	CN=c1ccocc1	
InChI=1S/C6H7NO/c1-7-6-2-4-8-5-3-6/h2-5H,1H3	InChI=1S/C6H7NO/c1-7-6-2-4-8-5-3-6/h2-5H,1H3
