14
gdb 25093	3.27009	1.42177	1.04798	2.7524	76.98	-0.2399	-0.0831	0.1568	1073.5613	0.103573	-432.90189	-432.89468	-432.893736	-432.934034	27.087	
N	 0.0068183741	 1.2741992865	 0.4568256184	-0.485678
C	-0.0179402862	 0.0365246793	 0.1107888989	 0.23643
C	-1.2879399652	-0.6605926292	-0.0008380747	-0.119851
C	-1.4935349697	-1.9818302035	-0.157142299	 0.006598
N	-0.5811973469	-3.0155585571	-0.1632416381	-0.346194
C	 0.7858887382	-2.980414676	 0.1461215984	 0.423912
O	 1.3057705087	-3.9291878752	 0.6813483799	-0.329037
N	 1.547191003	-1.895849879	-0.3087763247	-0.242057
C	 1.2296534123	-0.6664809358	-0.3159187447	-0.026558
H	 0.9618880708	 1.6409173503	 0.4228606897	 0.222937
H	-2.1612723944	-0.0201519724	 0.0287062664	 0.12191
H	-2.5133105648	-2.3377097779	-0.2604041027	 0.135986
H	-0.9592770722	-3.9425863426	-0.0197886312	 0.268864
H	 1.9933294224	 0.0187713026	-0.7023114164	 0.132739
67.4321	128.9418	279.1616	326.5635	378.9397	415.5285	468.2081	543.3785	612.1762	659.5288	701.8238	762.8191	788.7393	814.3518	857.5968	891.9478	915.5597	979.9245	1000.688	1074.7465	1160.9233	1213.7697	1301.374	1382.3489	1418.0741	1454.4632	1491.6205	1645.5524	1703.385	1736.8419	1804.8703	3060.6842	3186.6012	3210.5847	3431.9001	3592.1936
N=C1C=CNC(=O)N=C1	[NH][C]1C=CNC(=O)N=C1	
InChI=1S/C5H5N3O/c6-4-1-2-7-5(9)8-3-4/h1-3,6H,(H,7,9)	InChI=1S/C5H5N3O/c6-4-1-2-7-5(9)8-3-4/h1-3,6H,(H,7,9)
