21
gdb 92495	2.60728	1.55521	1.391	1.0673	77.29	-0.2453	0.0797	0.3251	1066.6154	0.182439	-424.228458	-424.219887	-424.218943	-424.261184	33.54	
C	 0.4121518098	 1.4436935157	 0.2252885067	-0.402572
C	-0.0297605043	 0.0065826509	-0.0542108793	 0.120357
C	 0.6270971328	-0.6179566597	-1.3031632815	-0.288665
C	 1.808737112	-1.4118343094	-0.7492936561	 0.406331
C	 2.2593255398	-2.5993551303	-1.5763616807	-0.462541
O	 2.9381508654	-0.5500962575	-0.401416502	-0.332356
C	 2.8042179587	-0.8614028989	 1.0043252598	-0.116118
C	 1.4755919812	-1.6000640666	 0.7551624627	 0.035349
O	 0.2986856439	-0.8795657294	 1.0344097868	-0.280413
H	 1.4997891993	 1.5394944344	 0.1826610427	 0.138592
H	-0.0158667838	 2.1173733483	-0.5253935215	 0.109829
H	 0.0600826111	 1.7623910046	 1.2104136147	 0.119147
H	-1.1223911865	-0.0177506408	-0.1295764934	 0.080842
H	-0.0676806965	-1.2979024888	-1.8062673768	 0.101548
H	 0.958196305	 0.1321718458	-2.025819158	 0.115728
H	 2.6289781043	-2.2657721322	-2.5514995494	 0.129003
H	 3.0710421601	-3.135593687	-1.0760087059	 0.121624
H	 1.4316943142	-3.2965256212	-1.7428898242	 0.118432
H	 3.6245890833	-1.5007701921	 1.3557008777	 0.098269
H	 2.7368392056	 0.0316495399	 1.6335598697	 0.106894
H	 1.3780556346	-2.6068752656	 1.168015878	 0.08072
112.9335	132.4614	208.8276	231.5654	262.3301	314.9459	366.1471	378.9207	398.6073	443.6051	597.2512	650.1159	736.0162	796.6474	828.3209	866.5639	896.7643	912.269	929.7825	955.8029	1007.7998	1022.9651	1052.331	1062.9273	1105.8573	1124.5214	1164.6874	1169.3839	1185.2371	1233.1509	1235.4481	1254.8653	1325.4938	1331.1363	1344.2294	1378.1635	1392.9857	1403.4192	1407.5754	1470.3326	1482.302	1489.0909	1491.5299	1500.874	1513.3496	3013.6944	3033.991	3036.9321	3040.4079	3057.7936	3077.699	3085.2617	3104.6226	3106.6826	3109.4656	3112.6181	3132.9171
CC1CC2(C)OCC2O1	C[C@H]1C[C@@]2(C)OC[C@H]2O1	
InChI=1S/C7H12O2/c1-5-3-7(2)6(9-5)4-8-7/h5-6H,3-4H2,1-2H3	InChI=1S/C7H12O2/c1-5-3-7(2)6(9-5)4-8-7/h5-6H,3-4H2,1-2H3/t5-,6+,7+/m0/s1
