16
gdb 24719	4.102	1.54517	1.31902	2.1733	75.64	-0.2093	0.0254	0.2347	956.413	0.127251	-400.716652	-400.710235	-400.709291	-400.747616	25.569	
C	 0.2071528463	 1.5632366372	-0.0509950707	-0.087158
O	 1.5817329907	 1.4137106364	 0.356300333	-0.278038
C	 1.4588935268	-0.0307653655	 0.4555106404	-0.063395
C	-0.0498252939	 0.0408296454	 0.0240164089	-0.065151
N	 0.3409240859	-0.7180938871	-1.1699611451	 0.030365
C	 0.1400336613	-1.0295323714	-2.4847642234	-0.158087
C	 1.394653778	-1.3485106932	-2.9867101502	-0.1235
C	 2.3821947786	-1.1551534628	-1.9707961654	-0.311021
C	 1.6764447277	-0.7649602314	-0.8543992842	 0.299914
H	-0.3610943418	 2.1410947497	 0.6874231949	 0.111847
H	 0.0982746522	 2.0148399471	-1.0427985705	 0.119204
H	 1.8537558793	-0.4138115194	 1.3963924866	 0.098149
H	-0.9092391325	-0.3346851588	 0.5776427948	 0.105987
H	-0.8358459782	-1.0740354169	-2.9405215983	 0.12071
H	 1.5828053158	-1.7203781296	-3.9836754197	 0.09683
H	 3.4459021138	-1.2997532597	-2.0729711812	 0.103343
101.5119	162.0866	296.558	440.2604	479.8353	607.8576	687.2892	713.6643	722.1652	750.8141	782.96	807.568	847.4299	887.4789	905.1105	942.3762	969.8214	1002.8965	1031.9408	1047.5597	1076.3823	1128.0111	1158.2498	1177.1405	1182.3054	1241.6756	1278.1531	1281.6266	1304.1667	1342.9789	1395.4508	1444.2492	1464.5872	1508.2028	1571.8451	3026.5921	3080.8995	3115.7489	3126.9503	3234.5669	3260.852	3268.771
C1OC2C1N1C=CC=C21	C1O[C@H]2[C@@H]1n1cccc21	
InChI=1S/C7H7NO/c1-2-5-7-6(4-9-7)8(5)3-1/h1-3,6-7H,4H2	InChI=1S/C7H7NO/c1-2-5-7-6(4-9-7)8(5)3-1/h1-3,6-7H,4H2/t6-,7-/m1/s1
