16
gdb 19466	4.89011	1.62056	1.59239	2.2549	65.08	-0.2453	-0.0328	0.2124	840.8337	0.131521	-383.718936	-383.712338	-383.711393	-383.750091	25.092	
O	-0.8742982852	 1.1012065935	 0.3243800074	-0.251805
C	 0.2168280993	 0.9253718844	-0.1632356205	 0.118255
C	 1.3708477016	 1.8843346879	-0.1301151117	-0.085582
C	 1.2993805276	 3.0833815301	-1.169083215	-0.083098
C	 0.3773448844	 3.8031328127	-0.1381224156	-0.24772
C	 1.3356571753	 3.098545274	 0.8459741153	 0.111203
O	 2.6028463684	 3.7252479775	 0.5993076207	-0.280097
C	 2.6381821861	 3.7565819941	-0.8474407426	-0.084751
H	 0.4435491633	-0.024817154	-0.6992816721	 0.081941
H	 2.3100944595	 1.3215549258	-0.1453316479	 0.086687
H	 1.0350255318	 2.9359852213	-2.2154556246	 0.084041
H	 0.3821795846	 4.8955406983	-0.1328454087	 0.101477
H	-0.632686813	 3.4015899063	-0.1061920309	 0.142634
H	 1.1633703465	 3.0018196974	 1.9156446942	 0.093957
H	 3.5130632265	 3.2077549496	-1.2137618757	 0.104642
H	 2.6888123731	 4.7922154811	-1.2038541722	 0.108217
61.8641	194.3407	245.458	349.9587	387.0381	485.4269	648.2793	692.9296	782.5254	851.6178	871.9821	913.4869	926.404	939.6322	971.9487	981.8467	1018.3836	1037.2985	1061.7777	1089.1446	1118.4332	1131.4594	1178.4544	1216.4231	1236.9989	1251.1424	1265.6624	1274.9655	1351.8771	1373.7039	1432.7745	1493.643	1524.638	1810.4295	2865.7174	3025.8246	3059.7361	3068.5936	3080.4023	3129.0673	3153.1367	3176.4827
O=CC1C2CC1OC2	O=C[C@H]1[C@H]2C[C@@H]1OC2	
InChI=1S/C6H8O2/c7-2-5-4-1-6(5)8-3-4/h2,4-6H,1,3H2	InChI=1S/C6H8O2/c7-2-5-4-1-6(5)8-3-4/h2,4-6H,1,3H2/t4-,5-,6-/m0/s1
