17
gdb 24287	4.00198	1.55214	1.22093	1.4008	78.96	-0.1724	0.0502	0.2226	999.1313	0.140148	-380.879559	-380.87282	-380.871876	-380.910252	28.225	
C	 0.0126742362	 1.4973587542	 0.0922022605	-0.304552
C	 1.3186602616	 0.740475999	-0.0089916909	 0.001446
N	 2.0649018583	 0.3748795118	 1.1907060178	-0.41855
C	 1.1932983939	-0.4150325002	 1.9736181771	 0.243748
C	 1.1742247988	-1.0406719905	 3.1937540372	-0.224644
N	-0.0148880542	-1.7588741235	 3.231613997	-0.245781
C	-0.7288547901	-1.5896934194	 2.0668398845	-0.248411
C	 0.0036088649	-0.7450921047	 1.2712040228	 0.297464
C	-0.0032637181	-0.0212907525	-0.0225102598	-0.210243
H	-0.2709354906	 1.933896796	 1.0440571928	 0.111464
H	-0.2879456742	 2.0662361695	-0.7817188732	 0.106631
H	 1.9178308134	 0.8549598507	-0.9059499336	 0.09108
H	 2.4866110986	 1.1625675674	 1.6674020964	 0.229078
H	 1.8654312793	-1.0632247261	 4.0192997175	 0.109662
H	-0.3026273159	-2.3387694366	 3.9986396607	 0.256077
H	-1.6810223719	-2.0750122969	 1.9258465749	 0.115918
H	-0.38315946	-0.477055448	-0.9294391118	 0.089612
158.2365	249.1324	314.8603	388.4279	431.9003	459.409	587.8851	608.6363	639.3081	658.8684	697.016	732.1244	742.2608	799.5094	804.5389	841.1726	931.6957	951.7125	984.6618	1025.2438	1047.783	1057.5897	1093.1289	1119.8561	1146.3895	1180.9053	1195.1342	1231.5542	1302.833	1337.6595	1352.6079	1376.6807	1445.9862	1465.4193	1470.5704	1575.213	1659.8373	3124.5374	3159.5284	3174.6909	3216.4677	3260.5225	3270.6667	3547.3203	3698.1748
C1C2NC3=CNC=C3C12	C1[C@H]2Nc3c[nH]cc3[C@@H]12	
InChI=1S/C7H8N2/c1-4-5-2-8-3-7(5)9-6(1)4/h2-4,6,8-9H,1H2	InChI=1S/C7H8N2/c1-4-5-2-8-3-7(5)9-6(1)4/h2-4,6,8-9H,1H2/t4-,6-/m1/s1
