22
gdb 119430	2.94096	1.13839	0.95212	2.4681	84.12	-0.2112	0.076	0.2873	1348.5291	0.193369	-404.301817	-404.292121	-404.291176	-404.336342	36.009	
C	 0.9143602527	 1.3132404437	-0.3677983463	-0.223417
O	 1.0448765121	-0.0633233242	-0.6369924724	-0.238784
C	-0.1910152095	-0.6961679012	-0.9050924634	-0.20218
C	 0.0424152833	-2.1590536004	-1.1249002042	 0.3017
C	-0.9996642752	-3.1854384436	-1.5847302368	-0.281822
C	 0.1609050555	-3.9921152695	-2.2649917788	-0.251993
C	 1.1482680897	-2.9151688033	-1.7844688981	 0.298223
C	 2.4092198931	-2.4796382516	-2.4646672592	-0.510707
N	 1.0158287886	-2.9141179942	-0.2975167914	-0.420378
H	 0.4889005372	 1.8570336358	-1.2254315212	 0.107836
H	 0.2730244198	 1.4962136768	 0.5081661706	 0.109496
H	 1.9143225435	 1.7024872029	-0.1628325659	 0.130002
H	-0.8857552135	-0.5475399455	-0.058195354	 0.094715
H	-0.668952896	-0.2490986774	-1.7939976835	 0.091856
H	-1.5415666718	-3.6887532742	-0.7800516559	 0.102209
H	-1.7112672899	-2.7847144839	-2.3116348981	 0.095026
H	 0.3455498863	-4.9979920349	-1.8797150517	 0.102022
H	 0.0615835885	-4.0282662893	-3.352827135	 0.094559
H	 2.2455252391	-2.3387132642	-3.5389512995	 0.115172
H	 2.7652022117	-1.5332582064	-2.0490135455	 0.134837
H	 3.1995098216	-3.231370861	-2.347091018	 0.121181
H	 1.675951343	-2.2119188145	 0.0412691483	 0.230447
78.9638	98.3532	129.7911	212.7846	214.1627	228.8336	238.9349	328.2361	354.5143	369.1711	460.9163	500.8376	644.1878	693.7784	733.8146	781.1741	868.0553	924.9178	936.4201	974.5804	983.1365	1038.2332	1061.0294	1098.2638	1118.1243	1142.4932	1162.4626	1169.9913	1187.274	1216.301	1225.802	1229.4197	1238.8831	1263.6528	1321.657	1353.7052	1408.4839	1426.7712	1459.3129	1465.8769	1481.34	1485.5472	1491.1321	1495.7556	1502.2925	1511.7358	1526.2099	2936.1793	2964.5982	2976.7444	3022.6013	3023.3669	3054.3629	3062.6646	3079.5768	3104.9808	3117.947	3118.2662	3122.505	3458.1558
COCC12CCC1(C)N2	COC[C@@]12CC[C@]1(C)N2	
InChI=1S/C7H13NO/c1-6-3-4-7(6,8-6)5-9-2/h8H,3-5H2,1-2H3	InChI=1S/C7H13NO/c1-6-3-4-7(6,8-6)5-9-2/h8H,3-5H2,1-2H3/t6-,7-/m0/s1
