18
gdb 10254	2.15572	2.01053	1.09254	0.602	79.34	-0.2603	0.0336	0.294	1095.7846	0.149826	-310.604445	-310.594878	-310.593934	-310.638237	35.326	
C	 0.003732174	 1.5563289413	 0.0181534145	-0.400829
C	 0.0308540608	 0.0244423967	 0.0312685526	 0.038614
C	 0.7729630122	-0.5036610003	 1.2633219969	-0.400834
C	-1.4234357038	-0.5572644245	-0.0326066529	-0.342247
C	-2.1652299606	-0.0653140939	-1.1994376771	 0.326332
C	-2.7654445514	 0.3402200732	-2.1577602242	-0.441719
C	-1.4334861888	-2.0246893063	-0.0144420816	 0.326327
C	-1.4336070604	-3.2259039956	-0.000999849	-0.441715
H	 1.0233316004	 1.953554186	 0.0285570773	 0.113321
H	-0.5059219683	 1.9430674531	-0.8672750945	 0.132579
H	-0.5122613941	 1.945746692	 0.9042935367	 0.111871
H	 0.546647356	-0.3277756474	-0.8700602224	 0.094478
H	 0.2800839399	-0.1759169712	 2.1867896338	 0.111868
H	 0.8152298068	-1.5951962682	 1.2714837108	 0.13259
H	 1.7976570601	-0.1200781702	 1.2818681596	 0.113313
H	-1.9448969422	-0.205268889	 0.8714359504	 0.131361
H	-3.303171253	 0.6922041054	-3.0030676691	 0.197345
H	-1.4434023477	-4.287693131	 0.0087620883	 0.197345
67.3876	136.8889	155.7265	170.998	218.5609	249.0458	331.8517	347.7449	354.1075	414.1339	485.9587	528.0624	570.3678	629.3466	630.4565	640.3552	642.5613	816.0243	895.2631	935.5954	964.1393	984.0649	1030.0386	1120.9284	1146.6908	1187.2001	1265.5612	1306.9574	1352.4825	1353.7918	1402.1981	1422.7597	1488.7109	1490.321	1501.5154	1512.6419	2235.9611	2241.8206	2982.4357	3028.7156	3030.7163	3041.7913	3093.6239	3101.1442	3125.336	3125.8731	3503.5984	3504.4542
CC(C)C(C#C)C#C	CC(C)C(C#C)C#C	
InChI=1S/C8H10/c1-5-8(6-2)7(3)4/h1-2,7-8H,3-4H3	InChI=1S/C8H10/c1-5-8(6-2)7(3)4/h1-2,7-8H,3-4H3
