20
gdb 84745	2.09877	1.82423	1.08042	3.5215	81.83	-0.2344	0.014	0.2484	1155.4337	0.171547	-403.199642	-403.190568	-403.189624	-403.233794	33.649	
C	-0.2216484963	 1.5195726018	 0.0359880162	-0.385646
C	 0.0462465656	-0.0004048696	-0.0084959599	-0.007627
C	 0.7353162847	-0.3690992177	-1.2881941438	-0.063482
C	 1.9686349024	-0.8542094671	-1.3460181016	-0.073137
C	 2.783649415	-1.0971073265	-0.1165355067	-0.379595
C	 2.0436299421	-0.9591299809	 1.20792187	 0.409043
O	 2.5913164942	-1.2967483834	 2.2452697481	-0.39303
N	 0.7659651205	-0.4612352884	 1.1810375006	-0.104739
C	 0.0459353831	-0.3791458567	 2.4448392673	-0.34591
H	 0.722630594	 2.071830411	 0.0403010601	 0.127228
H	-0.7963934376	 1.8253033886	-0.8436708416	 0.119864
H	-0.7953283357	 1.7985382125	 0.9237759735	 0.122075
H	-0.9360192303	-0.5010203376	 0.0038196924	 0.091088
H	 0.1608036369	-0.185834547	-2.1915718679	 0.096257
H	 2.4242345149	-1.0880649308	-2.3047218655	 0.096943
H	 3.2222806393	-2.102060023	-0.1170820959	 0.140935
H	 3.6458172466	-0.4169547785	-0.0758934894	 0.14058
H	 0.5637374685	-1.0036906978	 3.1707821172	 0.167782
H	 0.008624552	 0.6455524802	 2.8332763333	 0.125515
H	-0.9817588599	-0.734787829	 2.3093740736	 0.115859
61.9039	85.1945	119.73	198.2595	240.7984	281.9864	365.1607	396.5845	441.2502	478.4975	543.4042	554.9666	595.288	685.7788	735.6777	825.1172	892.8122	952.4791	972.8229	998.3928	1008.4889	1049.5008	1089.605	1125.75	1140.2454	1153.8144	1196.39	1210.5007	1263.8895	1337.3422	1348.6095	1353.1878	1398.6352	1420.5567	1426.0723	1448.8136	1462.3924	1490.8323	1491.4104	1506.3754	1528.2517	1751.71	1755.5653	2960.1795	3021.3314	3023.4512	3041.9756	3057.5062	3074.017	3115.134	3123.5525	3153.8813	3166.4278	3178.9204
CC1C=CCC(=O)N1C	C[C@H]1C=CCC(=O)N1C	
InChI=1S/C7H11NO/c1-6-4-3-5-7(9)8(6)2/h3-4,6H,5H2,1-2H3	InChI=1S/C7H11NO/c1-6-4-3-5-7(9)8(6)2/h3-4,6H,5H2,1-2H3/t6-/m0/s1
