18
gdb 118614	1.99308	1.20247	0.89398	2.5829	76.73	-0.2568	0.0126	0.2694	1360.3778	0.143923	-439.022976	-439.012511	-439.011567	-439.059895	35.592	
C	 0.3975763284	 0.647514893	 0.5301387076	-0.238184
O	-0.255734832	 0.269524185	-0.6718140903	-0.227247
C	 0.493051686	-0.534010431	-1.5375779507	-0.089232
C	 0.5332802227	-2.0312031489	-1.1726918589	-0.089774
O	 1.4105491454	-2.1756210061	-0.0415722933	-0.190095
C	 1.7743373595	-3.4359140274	 0.2868488464	 0.134783
N	 2.5324627969	-3.6257383857	 1.2759151449	-0.439251
C	-0.7932139334	-2.5845550839	-0.9081860758	 0.360686
C	-1.877419446	-3.0578708415	-0.700641797	-0.467928
H	 0.5488644555	-0.2006230933	 1.2051273966	 0.139655
H	 1.3754834934	 1.1064660098	 0.3221819866	 0.106913
H	-0.2462016157	 1.3876084804	 1.0112476679	 0.124711
H	 0.0218208354	-0.453558384	-2.5230044346	 0.119095
H	 1.5356749506	-0.1886560306	-1.6168597084	 0.104562
H	 0.9796294029	-2.5559811607	-2.0316580388	 0.111762
H	 1.3532973916	-4.2018654056	-0.3765391869	 0.098781
H	 2.7221196509	-4.6200991616	 1.3829394126	 0.231821
H	-2.8403229221	-3.4651374579	-0.511998658	 0.208942
43.2737	72.1764	86.319	93.6853	126.0886	189.0074	225.3674	244.3043	320.6139	375.4482	444.777	502.4285	629.8634	634.081	685.4708	719.0738	820.1437	843.3594	914.237	971.2009	1029.6885	1040.5369	1083.9196	1116.7662	1173.9928	1182.5318	1226.8737	1282.3212	1306.9012	1338.2939	1359.8127	1409.6415	1425.9486	1464.4302	1482.0511	1494.2378	1510.7409	1747.1481	2239.2532	2982.7004	2993.0586	2998.3221	3042.9868	3077.6541	3080.7583	3124.1685	3500.9181	3518.3034
COCC(OC=N)C#C	COC[C@@H](O[CH][NH])C#C	
InChI=1S/C6H9NO2/c1-3-6(4-8-2)9-5-7/h1,5-7H,4H2,2H3	InChI=1S/C6H9NO2/c1-3-6(4-8-2)9-5-7/h1,5-7H,4H2,2H3/t6-/m0/s1
