18
gdb 97606	3.36536	0.63598	0.56703	2.526	79.68	-0.2503	0.0175	0.2678	1921.5172	0.14532	-439.074573	-439.06385	-439.062906	-439.113173	36.14	
C	-0.0235103612	 1.6338307974	 0.0802932251	-0.381992
C	 0.0829017063	 0.0983431463	 0.0091953099	-0.116232
N	 0.7565706022	-0.3429108424	-1.2156064967	-0.274947
C	 0.0684999448	-0.6211588853	-2.3525859574	 0.159461
O	-1.1325010626	-0.5004121405	-2.4808942587	-0.327972
C	 0.7629342349	-0.4551180499	 1.1787740154	 0.018946
C	 1.3561693105	-0.8816950446	 2.1370573916	 0.087563
C	 2.017140276	-1.45266647	 3.3112387121	-0.194157
O	 2.0031282123	-2.8721136932	 3.3360830623	-0.399544
H	 0.9701023195	 2.0898500807	 0.1037603967	 0.120944
H	-0.5645537521	 1.9973550572	-0.7964715225	 0.143166
H	-0.5645629673	 1.9347379103	 0.9814245218	 0.128719
H	-0.9328847577	-0.3080690369	-0.0557946329	 0.145077
H	 1.7519888036	-0.4957605691	-1.1859079631	 0.255109
H	 0.7340036867	-0.9752428332	-3.1641506142	 0.082376
H	 3.0744773431	-1.1657580178	 3.325893782	 0.141439
H	 1.5626859026	-1.027844924	 4.2206920296	 0.122291
H	 1.0892483285	-3.154376505	 3.224144539	 0.289752
19.6461	24.2218	82.0634	112.5388	186.8405	203.2388	220.1135	261.3266	282.1527	344.8076	405.1839	482.486	504.6954	547.041	578.2808	699.1354	833.7108	893.5307	983.5385	1017.8569	1030.7574	1054.8021	1085.0634	1105.0141	1178.4431	1201.3918	1215.9078	1330.518	1359.2233	1360.6322	1401.6778	1418.402	1423.6618	1484.6904	1490.7545	1493.1442	1514.2204	1796.5903	2359.1725	2942.4726	2977.4876	3046.8487	3053.732	3063.101	3125.9075	3135.674	3640.2702	3816.3253
CC(NC=O)C#CCO	C[C@@H](NC=O)C#CCO	
InChI=1S/C6H9NO2/c1-6(7-5-9)3-2-4-8/h5-6,8H,4H2,1H3,(H,7,9)	InChI=1S/C6H9NO2/c1-6(7-5-9)3-2-4-8/h5-6,8H,4H2,1H3,(H,7,9)/t6-/m1/s1
