18
gdb 90853	3.02056	1.83085	1.50801	0.921	74.13	-0.2168	0.002	0.2188	913.1573	0.15049	-401.924211	-401.917394	-401.91645	-401.955047	28.376	
O	-0.0156969373	 1.4293677988	-0.0907786318	-0.437365
C	-0.0002960531	 0.0183844835	 0.0027346899	 0.144544
C	 0.5861466813	-0.5519316966	 1.3216547574	-0.204323
N	-0.0399753302	-1.8766287564	 1.5071154798	-0.12312
C	-1.4542704428	-1.9062305018	 2.0192774076	-0.058842
C	-2.1793809356	-0.6233833137	 2.2586025795	-0.087077
C	-2.2110226736	 0.1191334864	 1.1489757414	-0.071917
C	-1.4393634701	-0.5539269206	 0.0240410318	-0.126059
C	-1.1681065853	-1.9698153152	 0.5616830973	-0.063617
H	 0.8925663889	 1.7377451993	-0.1644626382	 0.287186
H	 0.5364526616	-0.4198770608	-0.8535116133	 0.070259
H	 1.6713284334	-0.6861917659	 1.2747247918	 0.095936
H	 0.3608630632	 0.1359768634	 2.1425926092	 0.11186
H	-1.66420231	-2.7837702706	 2.6219460891	 0.090083
H	-2.5841982456	-0.3443858684	 3.2240453271	 0.09682
H	-2.5993406412	 1.1262205525	 1.0645906897	 0.11066
H	-1.9235960793	-0.5041983702	-0.9532050343	 0.077246
H	-1.2546057144	-2.8582159138	-0.0558122741	 0.087727
144.3675	242.3941	280.4483	331.2822	401.0017	497.9331	537.7434	624.1344	644.2972	715.8796	752.4962	800.5697	821.9501	839.5059	883.2647	906.9122	929.4563	956.5603	967.2186	1025.7201	1031.2312	1046.3657	1065.4747	1105.3118	1123.3862	1128.8759	1192.5645	1216.171	1236.6715	1264.6857	1282.991	1302.6001	1323.1745	1351.9281	1359.6204	1372.9276	1428.728	1498.2877	1658.0006	2974.1438	3046.0405	3089.4278	3092.3178	3152.2652	3165.0842	3197.535	3223.8799	3824.827
OC1CN2C3C=CC1C23	O[C@H]1CN2[C@H]3C=C[C@@H]1[C@@H]23	
InChI=1S/C7H9NO/c9-6-3-8-5-2-1-4(6)7(5)8/h1-2,4-7,9H,3H2	InChI=1S/C7H9NO/c9-6-3-8-5-2-1-4(6)7(5)8/h1-2,4-7,9H,3H2/t4-,5-,6-,7+,8?/m0/s1
