17
gdb 7482	3.68459	1.51222	1.44292	3.5137	64.57	-0.2536	0.0206	0.2742	935.9809	0.141297	-401.001943	-400.993569	-400.992625	-401.035241	29.75	
C	-0.0362331028	 1.6543523546	 0.2032197781	-0.442889
C	-0.0104021622	 0.1344801646	 0.0588095799	 0.28357
C	 1.0974715579	-0.4019311638	-0.8824833452	-0.085228
O	 1.864924063	-0.8881834035	 0.2435788628	-0.271349
C	 0.7892823085	-0.6106710301	 1.1527408146	-0.119482
N	-1.3397755476	-0.4133144208	-0.1758073408	-0.328535
C	-1.98441579	-0.2739440756	-1.3619549936	 0.148837
O	-1.5150260345	 0.2759153904	-2.338081329	-0.330746
H	 0.9725397371	 2.0361979155	 0.3869438686	 0.126756
H	-0.4214079098	 2.107732752	-0.7131574009	 0.153974
H	-0.6757876353	 1.9531999749	 1.0405468892	 0.111002
H	 0.7736672058	-1.2121146244	-1.5433521449	 0.112794
H	 1.6423946815	 0.3494630743	-1.4614563614	 0.114122
H	 1.1106991877	-0.0092264282	 2.0112697119	 0.107151
H	 0.3063220603	-1.5298150822	 1.5169326966	 0.089179
H	-1.824538792	-0.857440735	 0.5884480394	 0.248139
H	-2.9930671774	-0.7326426425	-1.3490288154	 0.082706
64.3488	76.4581	163.9537	195.6396	262.459	307.2804	366.5283	401.4369	409.8987	516.3488	620.5136	821.7979	849.9638	918.3103	926.6104	949.7127	1007.1475	1016.4756	1029.9943	1039.376	1150.8888	1162.7153	1167.4169	1211.7175	1240.25	1277.7511	1310.2227	1380.2947	1407.3154	1425.2382	1480.0995	1500.1876	1505.9027	1512.182	1529.927	1793.1257	2937.8401	2986.9055	3037.0039	3044.6159	3053.6549	3097.2653	3108.4636	3131.8655	3624.9742
CC1(COC1)NC=O	CC1(COC1)NC=O	
InChI=1S/C5H9NO2/c1-5(6-4-7)2-8-3-5/h4H,2-3H2,1H3,(H,6,7)	InChI=1S/C5H9NO2/c1-5(6-4-7)2-8-3-5/h4H,2-3H2,1H3,(H,6,7)
