23
gdb 116374	2.90269	1.08183	0.84121	1.5788	87.37	-0.2313	0.026	0.2572	1421.725	0.207306	-388.301146	-388.291809	-388.290864	-388.335289	35.734	
O	 0.0400390117	 1.4363158031	-0.0623988484	-0.423122
C	 0.0582828771	 0.0160763054	-0.0090306219	-0.090894
C	-1.3843625442	-0.4953590458	 0.0128638663	 0.044288
C	-1.3877036076	-2.0281849638	-0.1081985525	-0.193878
C	-2.7550207541	-2.6855827322	-0.3411963366	-0.193055
C	-3.7484615521	-2.5784479723	 0.830804177	-0.243494
C	-4.3215950767	-1.1998460005	 1.0607791974	-0.0479
C	-3.6174036923	-0.0833162096	 1.2458093882	-0.061707
C	-2.1119422551	 0.0257219234	 1.2721725565	-0.249347
H	 0.9439669425	 1.7528530338	 0.0188024619	 0.286115
H	 0.5804878278	-0.4005776917	-0.8850826495	 0.081809
H	 0.5895766307	-0.3397292983	 0.8899854747	 0.080778
H	-1.8840464773	-0.0714192546	-0.8686981878	 0.081266
H	-0.727665084	-2.3139279858	-0.9379569562	 0.087079
H	-0.935431807	-2.4580644848	 0.7982815526	 0.087106
H	-3.2165711398	-2.2622434843	-1.2421717392	 0.09621
H	-2.586038219	-3.7493710395	-0.5496318059	 0.087864
H	-4.5711345769	-3.2793953727	 0.6543935716	 0.094447
H	-3.2489566083	-2.931398342	 1.7462974148	 0.102934
H	-5.4070548855	-1.1292128497	 1.0800330591	 0.080047
H	-4.1641955987	 0.8437002134	 1.4045512785	 0.081722
H	-1.7157284794	-0.5175114061	 2.1451934436	 0.094957
H	-1.8286579617	 1.0717222345	 1.4099836259	 0.116774
78.3643	106.3978	132.9465	215.3707	240.4694	278.3907	288.543	346.6728	411.4488	429.2516	487.2197	514.0108	670.2755	706.4345	787.8306	848.1482	854.5946	904.9043	926.028	947.2478	995.8991	1005.762	1028.0667	1053.1801	1074.8151	1093.7435	1108.5273	1134.568	1169.1904	1214.803	1239.679	1256.5365	1266.0122	1281.4717	1306.2809	1319.8002	1346.563	1365.5502	1381.9064	1382.1301	1405.9762	1423.6643	1453.5539	1478.5874	1480.9241	1484.3685	1495.2999	1517.9107	1724.5546	2954.8794	2979.2606	2985.2754	2990.4199	2995.0228	3015.824	3022.8032	3040.9807	3059.5746	3062.4868	3097.4794	3134.0524	3158.8489	3835.9706
OCC1CCCC=CC1	OC[C@H]1CCCC=CC1	
InChI=1S/C8H14O/c9-7-8-5-3-1-2-4-6-8/h1,3,8-9H,2,4-7H2	InChI=1S/C8H14O/c9-7-8-5-3-1-2-4-6-8/h1,3,8-9H,2,4-7H2/t8-/m1/s1
