16
gdb 28154	5.05551	1.22687	0.99948	2.3183	77.72	-0.2028	-0.0118	0.191	1147.676	0.125983	-400.785241	-400.778012	-400.777068	-400.816844	27.71	
C	-0.0201971911	 1.4455974007	 0.059838134	-0.485301
C	-0.0011082933	-0.047297255	-0.0193158288	 0.294173
C	-0.0412580267	-0.8154703043	-1.1323680812	-0.296221
C	 0.0000947995	-2.2181633477	-0.7200706512	 0.258266
C	 0.0642379902	-2.2713251257	 0.6291502789	 0.287767
C	 0.0720119158	-0.9189801773	 1.2494408593	-0.460166
O	 0.1026585666	-3.5690371617	 1.0207374223	-0.195754
C	 0.0574450404	-4.2455123061	-0.1736794601	 0.026531
N	-0.0042590972	-3.5051690031	-1.237820592	-0.344715
H	 0.8802034576	 1.8384331135	 0.5495899338	 0.1265
H	-0.0788358606	 1.8882089127	-0.938142182	 0.129842
H	-0.876669376	 1.8111459773	 0.6408993804	 0.126376
H	-0.0947983131	-0.4498580321	-2.1491395629	 0.106644
H	 0.977838746	-0.7030621036	 1.8299407258	 0.139769
H	-0.7821559861	-0.7307470083	 1.9120797804	 0.139784
H	 0.0774636379	-5.3215210394	-0.1059741766	 0.146506
136.4139	156.9367	214.9212	269.7143	312.2879	453.5914	467.8784	516.0673	637.5296	732.2887	735.1177	789.346	796.1047	844.1551	854.3162	924.3428	949.5836	1008.1847	1056.585	1066.1802	1112.7806	1141.048	1144.1447	1214.6904	1280.4417	1294.0075	1381.5487	1413.718	1431.4284	1444.6347	1477.0418	1487.8896	1515.4077	1599.7225	1652.7397	3013.7102	3034.6965	3056.4475	3066.6901	3111.1288	3223.6494	3280.9216
CC1=CC2=C(C1)OC=N2	CC1=Cc2c(C1)ocn2	
InChI=1S/C7H7NO/c1-5-2-6-7(3-5)9-4-8-6/h2,4H,3H2,1H3	InChI=1S/C7H7NO/c1-5-2-6-7(3-5)9-4-8-6/h2,4H,3H2,1H3
