15
gdb 44156	4.13596	0.98013	0.94539	2.8491	71.25	-0.2803	-0.0051	0.2753	1235.4962	0.112866	-416.787576	-416.779824	-416.778879	-416.820768	28.541	
N	 0.1163623134	 1.1648484454	-0.009957646	-0.546193
C	 0.0121784695	-0.0791156657	 0.0629876616	 0.447412
O	 0.9852773795	-1.0589461558	 0.2980964496	-0.269808
C	 0.0069157613	-2.0952980619	 0.0321321751	 0.084024
C	-1.0751772051	-2.0570244427	 1.0509744378	-0.044315
C	-0.8547363574	-1.6466321636	 2.5002608607	-0.367927
C	-0.5711152721	-2.803180439	 3.3498174831	 0.261782
N	-0.357453081	-3.7301091272	 4.0054583808	-0.300884
C	-1.0964923487	-1.0641816603	-0.1178127729	-0.241837
H	 1.0787266551	 1.4715675052	 0.1407805365	 0.238423
H	 0.3198887196	-2.926692609	-0.5836741687	 0.137177
H	-1.8164846588	-2.8410850585	 0.9160954508	 0.129809
H	-0.0179507295	-0.9457052267	 2.5694901662	 0.175391
H	-1.7416993115	-1.1338431495	 2.887810542	 0.163475
H	-1.9256139543	-0.9818687608	-0.8046811366	 0.133472
50.5432	95.3161	167.1217	243.9668	350.6152	384.9661	427.3414	505.1786	596.6385	681.2446	732.1542	784.804	835.9429	868.2282	893.2073	915.0532	944.9691	969.1344	987.9477	1012.1823	1042.0486	1057.193	1088.2082	1165.3693	1193.817	1251.1403	1289.4643	1312.9145	1342.852	1438.0953	1456.9423	1837.071	2364.9469	3056.7291	3103.1903	3152.3082	3222.5369	3236.9316	3484.0871
N=C1OC2C(CC#N)C12	[NH][C]1O[C@H]2[C@@H](CC#N)[C@@H]12	
InChI=1S/C6H6N2O/c7-2-1-3-4-5(3)9-6(4)8/h3-5,8H,1H2	InChI=1S/C6H6N2O/c7-2-1-3-4-5(3)9-6(4)8/h3-5,8H,1H2/t3-,4+,5-/m0/s1
