17
gdb 50844	2.52916	1.11292	0.83028	2.3636	71.14	-0.2555	-0.0314	0.2241	1357.6258	0.135112	-455.137128	-455.128103	-455.127159	-455.172321	31.585	
N	 0.3132550362	 1.3389689203	-1.5006097087	-0.476004
C	-0.1224273949	 0.3595935916	-0.8375909429	 0.40158
C	-1.5591852481	-0.0856196137	-0.8553888343	-0.296498
C	-2.2647084996	 0.2115838469	 0.4569543532	 0.020667
C	-3.2909551788	-0.7190615003	 0.9862663491	-0.244336
N	-1.9881532562	-0.5879751115	 1.6598020317	-0.310513
O	 0.639048806	-0.4748737545	-0.0149440916	-0.206899
C	 1.5927596695	 0.0740417647	 0.7972661228	 0.162268
O	 2.3691296815	-0.5987738842	 1.3961130653	-0.246597
H	 1.3188761563	 1.4779332207	-1.4004812269	 0.234444
H	-2.056737682	 0.4274909446	-1.6814384595	 0.14118
H	-1.584407891	-1.1645216701	-1.0506978539	 0.123977
H	-2.3780117086	 1.2739563241	 0.6646903928	 0.107069
H	-4.1388289217	-0.3343970688	 1.5453440953	 0.1253
H	-3.4972153874	-1.6217029996	 0.4160706335	 0.11479
H	-1.389380286	-1.3750251594	 1.4216735723	 0.239903
H	 1.5266199049	 1.1737097891	 0.8409467917	 0.109669
52.5748	62.9183	101.9194	149.3554	195.5334	250.4888	326.4902	347.2367	442.5294	558.5816	612.4048	675.2205	807.7683	830.5507	897.4973	914.5554	934.9635	947.7046	986.3035	1044.6193	1054.0837	1067.8176	1113.6123	1128.3721	1152.0165	1175.3505	1243.6449	1265.0224	1292.8922	1318.0308	1328.5462	1414.5075	1418.8275	1461.1948	1512.8035	1755.6212	1877.8201	3007.9702	3042.1229	3108.3765	3113.6482	3129.8677	3194.4894	3487.3033	3503.9505
N=C(CC1CN1)OC=O	[NH][C](C[C@H]1CN1)OC=O	
InChI=1S/C5H8N2O2/c6-5(9-3-8)1-4-2-7-4/h3-4,6-7H,1-2H2	InChI=1S/C5H8N2O2/c6-5(9-3-8)1-4-2-7-4/h3-4,6-7H,1-2H2/t4-/m0/s1
