21
gdb 107709	3.38606	1.33215	1.14314	1.1734	83.62	-0.243	0.0981	0.3411	1166.0565	0.181544	-387.015608	-387.006944	-387.006	-387.048612	33.624	
C	-0.0246878238	 1.3469386714	 0.0436216807	-0.262766
O	-0.0907441542	-0.0629287022	-0.0651523373	-0.294837
C	-1.3723933237	-0.5634655137	-0.0587125743	 0.461334
C	-2.5185045345	-0.3336808676	-1.0652444545	-0.378574
C	-3.0729521199	-1.3585652655	-0.0463729304	 0.351566
C	-4.4270246776	-2.0098008039	-0.0365587943	-0.515406
C	-1.6778016847	-2.0791374224	 0.1009700821	-0.140543
C	-1.7126731126	-1.9899760801	 1.6406200723	-0.277887
C	-2.3555731969	-0.668347552	 1.1725676633	-0.151866
H	 1.0328265062	 1.6194597453	 0.0359402329	 0.127857
H	-0.5267899521	 1.8430228663	-0.7987042741	 0.11367
H	-0.4798268425	 1.7011509659	 0.979352299	 0.110749
H	-2.9964170868	 0.6521815165	-1.0722049738	 0.086296
H	-2.356862844	-0.6949664599	-2.0868739146	 0.090254
H	-4.5973872062	-2.5788787108	-0.9571927849	 0.119963
H	-4.5314392296	-2.7001405111	 0.8075440322	 0.121375
H	-5.2233953377	-1.2613581385	 0.0432025521	 0.118766
H	-1.2999176322	-2.8738315008	-0.544993903	 0.067974
H	-2.362798113	-2.6987907057	 2.1628844261	 0.088133
H	-0.746109265	-1.9122723939	 2.1453269804	 0.100676
H	-2.7603227693	 0.1568599329	 1.7619146397	 0.063266
82.095	164.0535	174.6145	219.8318	249.4382	278.089	312.3065	395.9089	462.8197	505.9536	590.7017	649.5348	711.1899	775.6855	856.6608	863.052	908.5748	928.0683	979.0827	990.1284	1018.6852	1040.1116	1050.5207	1098.7704	1110.0073	1122.8	1128.6995	1148.7207	1153.1281	1182.1184	1189.4306	1207.3186	1222.3955	1246.6274	1275.2109	1299.7671	1373.3734	1412.8488	1482.6003	1487.1592	1488.6877	1492.6172	1505.5747	1506.7376	1518.4606	2992.2221	3024.6587	3029.2557	3045.8317	3046.6859	3087.0645	3089.4117	3091.7104	3093.1801	3099.7823	3106.3226	3122.2456
COC12CC3(C)C1CC23	CO[C@@]12C[C@@]3(C)[C@@H]1C[C@@H]23	
InChI=1S/C8H12O/c1-7-4-8(9-2)5(7)3-6(7)8/h5-6H,3-4H2,1-2H3	InChI=1S/C8H12O/c1-7-4-8(9-2)5(7)3-6(7)8/h5-6H,3-4H2,1-2H3/t5-,6+,7-,8-
