18
gdb 94912	2.11319	1.74518	1.39192	4.3561	75.05	-0.2502	0.0261	0.2763	1023.5868	0.149011	-401.953219	-401.945187	-401.944243	-401.985728	30.599	
C	-0.0862068501	 1.5520494874	-0.0582602333	-0.417466
C	-0.0107293307	 0.0267085908	 0.0356293149	-0.012536
C	 0.6579035029	-0.6425668882	-1.1915565314	-0.116688
O	 1.3308920415	-1.8224378047	-0.7202867535	-0.249646
C	 1.5374720523	-1.7068364888	 0.6471128769	 0.100699
C	 2.319463109	-0.5024251675	 1.1907711062	-0.244998
C	 3.0921642559	 0.3601918708	 0.3476235208	 0.320931
N	 3.7339012339	 1.0529810668	-0.3224746749	-0.361677
C	 0.7823165701	-0.5493728091	 1.2043923109	-0.11517
H	 0.9094647487	 1.9947316991	-0.1472942526	 0.150993
H	-0.6696813118	 1.8568893524	-0.9333226039	 0.12164
H	-0.5716878856	 1.9757510806	 0.8261999097	 0.11881
H	-1.0275541875	-0.3713889767	 0.143485328	 0.090268
H	-0.0609383658	-0.9550934667	-1.9536234124	 0.115808
H	 1.3844914378	 0.0331875399	-1.6552105519	 0.135165
H	 1.6654014166	-2.6655843302	 1.1357060641	 0.120527
H	 2.7744378959	-0.6635711901	 2.1637243007	 0.136497
H	 0.3165950068	-0.5773158657	 2.1824557918	 0.106841
111.5804	133.9458	181.883	233.4354	240.1533	337.8509	385.4673	456.7843	566.7376	636.8543	679.2764	708.198	744.8936	772.9493	871.8932	914.1613	942.0121	959.8022	990.523	1008.3202	1033.8576	1078.5294	1098.8899	1135.6637	1151.2018	1178.9922	1200.8417	1242.07	1311.4738	1318.4058	1342.5672	1365.6357	1396.1907	1416.6734	1421.4486	1500.049	1503.7558	1527.1309	2343.3746	3023.8948	3040.126	3049.8675	3097.7037	3103.5106	3125.6865	3154.7907	3178.6937	3190.6384
CC1COC2C(C#N)C12	C[C@H]1CO[C@H]2[C@@H](C#N)[C@@H]12	
InChI=1S/C7H9NO/c1-4-3-9-7-5(2-8)6(4)7/h4-7H,3H2,1H3	InChI=1S/C7H9NO/c1-4-3-9-7-5(2-8)6(4)7/h4-7H,3H2,1H3/t4-,5-,6+,7-/m0/s1
