17
gdb 72000	1.95808	1.80905	1.73493	1.3044	68.08	-0.2093	0.0508	0.2601	948.6945	0.134694	-458.888675	-458.880457	-458.879513	-458.920726	32.487	
O	 0.0006620959	 1.3160630798	 0.0669564851	-0.480713
C	 0.0290802315	-0.0575901501	-0.0251429835	 0.282578
C	 0.9098093579	-0.9006186685	-0.9214277883	-0.279924
C	 0.0529397289	-2.1070010866	-0.4192951805	-0.139005
C	 0.4092532228	-2.2601717421	 1.0925315002	-0.300051
C	-0.2855854397	-0.9186167542	 1.2474930097	 0.25805
O	-0.6793207658	-0.232541498	 2.3859805154	-0.47444
C	-1.1001341281	-1.07163089	-0.0087788955	 0.250306
O	-2.45531692	-1.0450174704	-0.1895506499	-0.452117
H	-0.3374849259	 1.5261668034	 0.9495331148	 0.281159
H	 0.7489005254	-0.6926631541	-1.9836800787	 0.100571
H	 1.9849279891	-0.9373265153	-0.7111058888	 0.090065
H	-0.0888603438	-2.984376885	-1.0440904736	 0.082242
H	-0.152417785	-3.0692258172	 1.5681530932	 0.110128
H	 1.4736138739	-2.3417589991	 1.3439828494	 0.086368
H	 0.1137153813	-0.0089779698	 2.888971145	 0.289747
H	-2.6435140386	-0.6145996227	-1.031499084	 0.295038
155.3293	190.5347	242.6401	253.7574	264.1084	309.2215	371.9487	452.9696	461.1158	466.0593	575.0435	623.2515	649.9763	691.1622	710.7124	814.3494	839.3612	916.573	955.8438	978.4478	1040.4925	1053.3967	1098.7409	1109.7425	1128.1698	1178.884	1198.1098	1230.9171	1243.467	1275.7244	1307.6922	1335.2553	1363.3223	1414.5695	1489.2122	1503.1185	1540.2239	3026.5462	3034.8942	3089.543	3096.8733	3157.2637	3729.2316	3771.3228	3784.8139
OC12CC3CC1(O)C23O	O[C@@]12C[C@H]3C[C@]1(O)[C@@]23O	
InChI=1S/C6H8O3/c7-4-1-3-2-5(4,8)6(3,4)9/h3,7-9H,1-2H2	InChI=1S/C6H8O3/c7-4-1-3-2-5(4,8)6(3,4)9/h3,7-9H,1-2H2/t3-,4-,5+,6-
