17
gdb 29593	3.07105	1.2343	0.97379	2.0022	80.73	-0.1767	0.0467	0.2234	1207.4822	0.136414	-380.86586	-380.856961	-380.856017	-380.89933	33.894	
N	 0.1925941204	 1.3543141726	 0.2386187758	-0.616415
C	 0.0608533752	-0.0408755985	 0.101167346	 0.163853
C	-1.0943200609	-0.7800787341	-0.0328556373	-0.159773
N	-0.7264157366	-2.0977252754	-0.2263313389	-0.245755
C	 0.6341715713	-2.2049973784	-0.2062471235	-0.175994
C	 1.1618066691	-0.9474111075	-0.0111180902	 0.244966
C	 2.6208595478	-0.5763450341	 0.0388256352	-0.476737
C	 3.0151427401	 0.084681575	 1.2859624855	 0.312804
C	 3.3133033485	 0.6496765915	 2.3053307172	-0.471467
H	 0.9210255322	 1.5951767779	 0.90251018	 0.24682
H	-0.6715857491	 1.7948127136	 0.5280162302	 0.233398
H	-2.1304614757	-0.4840047396	-0.0108741103	 0.104099
H	-1.3658101718	-2.860405435	-0.3537134471	 0.258928
H	 1.1264111369	-3.1564104942	-0.3320108576	 0.113828
H	 3.2328086374	-1.4755709464	-0.1002467725	 0.131088
H	 2.8707340634	 0.0930743447	-0.7968591435	 0.142168
H	 3.5931503518	 1.129444928	 3.210178651	 0.19419
62.9669	107.9035	218.3175	254.1533	260.9207	305.5514	339.2399	385.3021	423.4464	462.0062	611.711	621.6612	623.9346	630.8545	659.73	710.5006	732.6598	766.5804	816.0996	900.7375	932.1368	949.1046	1078.6213	1092.3525	1152.0498	1199.9905	1234.0194	1285.2455	1325.5479	1361.6104	1438.2709	1457.7522	1481.5368	1569.7599	1634.9793	1662.82	2229.4522	3003.1412	3052.698	3256.4823	3262.7703	3505.5834	3511.059	3605.9134	3701.4998
NC1=CNC=C1CC#C	Nc1c[nH]cc1CC#C	
InChI=1S/C7H8N2/c1-2-3-6-4-9-5-7(6)8/h1,4-5,9H,3,8H2	InChI=1S/C7H8N2/c1-2-3-6-4-9-5-7(6)8/h1,4-5,9H,3,8H2
