25
gdb 58298	3.52432	0.77404	0.74005	1.3293	89.17	-0.2537	0.067	0.3207	1709.1369	0.226814	-389.484204	-389.473081	-389.472137	-389.52112	41.01	
C	 0.1725967054	 1.5463117958	-0.1091430238	-0.405705
C	 0.0057854476	 0.0293434813	 0.0669902587	 0.034751
C	 0.644808205	-0.4363725053	 1.3820206298	-0.394408
C	-1.4726014678	-0.4248623064	 0.0034422137	 0.138817
O	-2.248837979	 0.154586767	 1.0512901958	-0.434422
C	-2.123074537	-0.2191313062	-1.3735757919	-0.249097
C	-3.500203661	-0.8376918436	-1.4911191299	 0.050656
C	-4.734712308	-0.0631092037	-1.1129591311	-0.241325
C	-4.4598000375	-0.381027918	-2.5622150577	-0.285729
H	 1.230670723	 1.8228562673	-0.0686377702	 0.116047
H	-0.2220115774	 1.9037666685	-1.0653153409	 0.112808
H	-0.3320253496	 2.0938312338	 0.6956124535	 0.110173
H	 0.5231497462	-0.4686336191	-0.7651733973	 0.067663
H	 0.0993341724	-0.0215501856	 2.2348214297	 0.128453
H	 0.6203507824	-1.5278672833	 1.4701041078	 0.106829
H	 1.6896380935	-0.1169090717	 1.4510685413	 0.103163
H	-1.4907991081	-1.5006761758	 0.2250661094	 0.078785
H	-2.4090279498	 1.0762208842	 0.8239564133	 0.277889
H	-2.1897018597	 0.8555337164	-1.5953723599	 0.08392
H	-1.4583957201	-0.6455686281	-2.1374192724	 0.096803
H	-3.526397968	-1.90014227	-1.2595172799	 0.08036
H	-5.5402166871	-0.585557625	-0.6094063181	 0.11168
H	-4.6095191459	 0.9647755029	-0.7886656258	 0.09701
H	-4.1459576982	 0.431898862	-3.2096188078	 0.105756
H	-5.0767276114	-1.1240121875	-3.0556276865	 0.109122
32.1526	70.3497	97.5949	131.9857	203.358	226.8162	252.3388	267.9503	284.5555	294.6332	333.8903	383.7011	434.6229	525.8644	609.1367	767.7286	794.483	802.4087	844.9365	878.4056	915.4982	932.2984	944.9681	965.1675	978.637	1034.93	1047.4437	1062.591	1074.1848	1091.8566	1123.1649	1137.4884	1167.2469	1196.2865	1201.5109	1229.6528	1244.2447	1286.4157	1314.7453	1347.3427	1364.1305	1379.1254	1397.8013	1415.383	1418.7635	1425.8958	1468.2419	1478.9604	1488.4209	1494.5914	1505.6143	1507.5195	1513.8438	2999.4365	3007.9417	3016.2726	3028.2759	3034.0416	3043.2934	3093.3209	3097.0595	3103.6845	3114.8025	3126.8875	3130.1714	3134.7179	3204.5637	3220.331	3814.2707
CC(C)C(O)CC1CC1	CC(C)[C@@H](O)CC1CC1	
InChI=1S/C8H16O/c1-6(2)8(9)5-7-3-4-7/h6-9H,3-5H2,1-2H3	InChI=1S/C8H16O/c1-6(2)8(9)5-7-3-4-7/h6-9H,3-5H2,1-2H3/t8-/m0/s1
