18
gdb 34404	2.55876	1.58238	1.30293	4.9301	75.41	-0.2701	0.0208	0.2909	1038.6024	0.149295	-401.960089	-401.952338	-401.951394	-401.992693	29.714	
N	 0.1256848355	-1.1893689487	-0.3955256456	-0.342495
C	 0.0770835794	-0.0607234793	-0.1518697842	 0.247644
C	 0.0486862886	 1.3773727001	 0.1008319454	 0.275444
C	-0.4638326345	 2.2733353021	-1.0739133973	-0.271947
C	 0.8325624843	 3.1258569438	-0.9919025794	-0.237167
C	 1.4133054199	 2.164479379	 0.0865050494	-0.073528
C	 1.5277900799	 2.6976765186	 1.5150585797	-0.237349
C	 0.0639896786	 2.7365312689	 1.9742198156	-0.09614
O	-0.5647675093	 1.6118039575	 1.3548964073	-0.294712
H	-0.5820459307	 1.7270884824	-2.0111458659	 0.127711
H	-1.4026116865	 2.7777411663	-0.8367768869	 0.12312
H	 1.4111631178	 3.1705977604	-1.9157847736	 0.115693
H	 0.6801591496	 4.1480662453	-0.6353088797	 0.106991
H	 2.2820879147	 1.5917749779	-0.2360639734	 0.098299
H	 2.1002856194	 2.0011083782	 2.1348382972	 0.121851
H	 2.0087666859	 3.6785272685	 1.5647369767	 0.111891
H	-0.0672568168	 2.6300579493	 3.05335089	 0.123377
H	-0.4259294758	 3.6697542596	 1.6587980347	 0.101317
61.5587	152.92	179.1205	211.8014	345.0478	378.3005	514.1659	534.8898	563.7416	623.6966	650.0677	746.0256	800.6855	839.7396	896.0564	911.1452	955.03	963.7384	1004.5893	1025.7789	1033.7783	1082.0436	1106.274	1138.2633	1158.2919	1220.1183	1227.3171	1239.0857	1253.2148	1272.3618	1299.4783	1311.9298	1338.1034	1385.3917	1465.5731	1483.9226	1492.4291	1523.6626	2357.9549	2994.2053	3057.2139	3066.9551	3077.9317	3101.8302	3109.7978	3112.748	3124.7088	3140.3007
N#CC12CCC1CCO2	N#C[C@]12CC[C@H]1CCO2	
InChI=1S/C7H9NO/c8-5-7-3-1-6(7)2-4-9-7/h6H,1-4H2	InChI=1S/C7H9NO/c8-5-7-3-1-6(7)2-4-9-7/h6H,1-4H2/t6-,7+/m0/s1
