21
gdb 90118	2.91261	1.57534	1.40887	1.7143	83.18	-0.2285	0.0659	0.2944	1035.2235	0.184302	-386.99009	-386.982573	-386.981629	-387.02164	31.191	
C	-0.2440721756	 1.6201450591	-0.1216850033	-0.410229
C	-0.064866751	 0.1082352878	-0.0428016422	-0.043701
C	 0.9418097311	-0.6206311345	-1.0581734876	-0.354139
C	 1.9296295503	-0.7836899304	 0.1364862765	 0.239791
C	 2.5739757368	-1.7251281389	 1.2264600075	-0.333861
C	 1.9455667148	-0.5768694222	 2.1505071147	 0.043666
O	 2.7425269404	 0.5534348489	 1.8430791195	-0.261243
C	 2.7985599587	 0.465632642	 0.4054688218	-0.097184
C	 0.7717680858	-0.613802482	 1.0966496426	 0.006125
H	 0.6834643353	 2.1861579464	-0.0264674894	 0.130369
H	-0.7062599701	 1.8965730457	-1.0763836527	 0.11491
H	-0.9128801187	 1.9575148159	 0.6774357076	 0.121564
H	-1.0640624687	-0.3353265296	-0.093593677	 0.078793
H	 0.5172363887	-1.5614541271	-1.4158880241	 0.10867
H	 1.2973450021	-0.0451368809	-1.9186072114	 0.099845
H	 2.0914264171	-2.6967103053	 1.3277473968	 0.105244
H	 3.6638647474	-1.8159433362	 1.2740691901	 0.097877
H	 1.8256780471	-0.6704558049	 3.2305180728	 0.080397
H	 3.8341622854	 0.311983101	 0.0759207729	 0.097408
H	 2.4331727701	 1.3921178863	-0.0408609817	 0.096436
H	 0.2813703032	-1.5821286911	 1.2342088369	 0.079261
132.2401	180.4029	223.248	331.7617	350.22	396.2024	454.6576	493.5352	603.4341	650.9799	715.94	752.3269	775.1342	834.6059	858.9668	861.6365	931.1573	944.3661	957.358	979.0961	998.8886	1017.9101	1046.3072	1081.2614	1093.8536	1110.7095	1122.9588	1161.085	1167.7627	1187.8687	1196.9417	1219.686	1225.3221	1255.9311	1260.1913	1290.9617	1361.5702	1380.3512	1402.1252	1423.8342	1480.1109	1488.2768	1493.1562	1496.404	1541.0903	3022.5899	3033.9167	3038.8872	3049.0162	3052.9023	3058.5064	3091.5286	3102.718	3113.172	3118.3535	3139.7838	3146.1239
CC1CC23CC(OC2)C13	C[C@H]1C[C@@]23C[C@@H](OC2)[C@@H]13	
InChI=1S/C8H12O/c1-5-2-8-3-6(7(5)8)9-4-8/h5-7H,2-4H2,1H3	InChI=1S/C8H12O/c1-5-2-8-3-6(7(5)8)9-4-8/h5-7H,2-4H2,1H3/t5-,6+,7+,8+/m0/s1
