22
gdb 22202	1.80653	0.96615	0.64194	1.1135	83.19	-0.2394	0.019	0.2584	1789.258	0.190442	-441.438799	-441.427452	-441.426508	-441.476414	39.391	
C	-0.2379610691	 1.3517214118	-0.8206034571	-0.388045
C	-0.0100754439	-0.0433750701	-0.2322220676	-0.164541
C	 0.4834134581	-1.0376751128	-1.2851077375	-0.240104
C	 0.7318160752	-2.4359643253	-0.7843838457	 0.306433
C	 1.2210830405	-3.493752611	-1.746252631	-0.136003
O	 1.3688509096	-2.9431793988	-3.0334802839	-0.238173
C	 1.8237014697	-3.8847548317	-3.9755029616	-0.226382
N	 0.5203867058	-2.6911158599	 0.4491351113	-0.170822
O	 0.8020095795	-4.0407658321	 0.7462470283	-0.411406
H	 0.6856103095	 1.7613667609	-1.2452472878	 0.111737
H	-0.9860975986	 1.329747301	-1.6211814259	 0.111735
H	-0.5904477455	 2.0511024675	-0.0561399122	 0.110286
H	 0.7151778423	 0.007325626	 0.5869102575	 0.10671
H	-0.9363117267	-0.4190728018	 0.2155276048	 0.106706
H	-0.2291985022	-1.0988973743	-2.1187605631	 0.119656
H	 1.4103768805	-0.6755853082	-1.7500466872	 0.119672
H	 2.1746397252	-3.9070744058	-1.37595829	 0.117041
H	 0.5090828287	-4.336533214	-1.7508667039	 0.117025
H	 2.809306869	-4.2926915128	-3.7009571053	 0.10709
H	 1.1224881815	-4.7276322409	-4.0806957533	 0.107087
H	 1.9075367881	-3.3712069015	-4.9361022918	 0.128526
H	 0.6024365316	-4.086248964	 1.6866287648	 0.305771
60.9265	70.5049	80.8754	108.1412	110.8938	177.7801	230.0933	243.7091	290.3054	297.4676	326.7174	367.8402	389.5367	524.9563	540.7056	652.0359	734.6113	826.9859	860.4894	919.9133	989.6989	1000.3699	1016.2191	1050.331	1117.7589	1127.9715	1159.9959	1185.7284	1216.7401	1234.1144	1241.2329	1261.1545	1316.6173	1321.4986	1380.9173	1398.4724	1408.7944	1411.3128	1462.7794	1475.0838	1484.8507	1487.7416	1491.7548	1498.8694	1508.2077	1515.7196	1733.0151	2958.1143	2973.8432	2978.8101	3016.782	3020.3368	3027.1527	3040.254	3047.7381	3073.8561	3099.4143	3101.2702	3117.222	3828.2798
CCCC(COC)=NO	CCCC(=NO)COC	
InChI=1S/C6H13NO2/c1-3-4-6(7-8)5-9-2/h8H,3-5H2,1-2H3	InChI=1S/C6H13NO2/c1-3-4-6(7-8)5-9-2/h8H,3-5H2,1-2H3
