23
gdb 75140	3.1532	1.16986	1.07071	1.1275	88.08	-0.2329	0.0299	0.2628	1285.6426	0.204607	-388.316896	-388.307256	-388.306312	-388.350449	37.624	
C	-0.0921778837	 1.5447368446	 0.0824863635	-0.479655
C	-0.0494420868	 0.0470158909	-0.0281771801	 0.298583
C	-0.033791908	-0.6135796631	-1.1856403979	-0.164228
C	 0.0368174616	-2.1148652023	-1.2655225229	-0.270306
C	 0.4971851005	-2.7405306351	 0.0671139934	 0.361091
C	 0.0845257497	-4.2091579662	 0.1526174604	-0.418271
C	 2.0176650198	-2.6016187248	 0.2520742483	-0.42516
O	-0.2088928842	-2.1061549813	 1.1448230751	-0.290063
C	-0.0060042858	-0.7144985853	 1.2725644101	-0.156595
H	 0.7659811767	 1.9288669878	 0.6494874728	 0.122679
H	-0.0837147159	 2.0177185526	-0.9030514757	 0.122804
H	-0.991446695	 1.8811603041	 0.6147402417	 0.123577
H	-0.0776503849	-0.063422882	-2.1234200081	 0.076817
H	-0.9473547114	-2.5215181159	-1.5376208999	 0.105074
H	 0.7196558491	-2.4184581247	-2.069525983	 0.09813
H	 0.5028757665	-4.7776329935	-0.6837715694	 0.108895
H	 0.4380559706	-4.6541689331	 1.0872947405	 0.116107
H	-1.0052004343	-4.2947474	 0.1240144625	 0.11971
H	 2.354269768	-1.5718658122	 0.1037097656	 0.119125
H	 2.3028461595	-2.9204023359	 1.2591814313	 0.11832
H	 2.547557863	-3.2309128564	-0.469646287	 0.11169
H	 0.9464141822	-0.4968003877	 1.7908999135	 0.091814
H	-0.8025720273	-0.3600052505	 1.9399937653	 0.109861
97.3398	167.4212	204.1431	221.2347	245.1709	263.4353	281.9444	322.7443	329.4617	404.7075	434.3306	457.051	471.3637	552.4066	685.1167	737.7122	806.7822	862.1512	887.995	915.543	940.8555	979.4663	983.9479	1005.3505	1029.6081	1074.5816	1093.7396	1120.071	1148.2592	1182.4976	1218.2335	1242.3302	1275.4559	1288.4807	1353.7119	1364.7761	1395.7579	1406.5126	1412.2641	1415.9216	1469.3325	1478.4792	1480.6088	1484.8742	1489.2304	1493.9083	1497.7594	1513.6019	1749.203	2930.3727	3005.204	3013.093	3031.2039	3037.701	3039.9907	3043.6875	3058.0061	3108.6032	3110.8173	3115.2095	3118.356	3119.2162	3143.7413
CC1=CCC(C)(C)OC1	CC1=CCC(C)(C)OC1	
InChI=1S/C8H14O/c1-7-4-5-8(2,3)9-6-7/h4H,5-6H2,1-3H3	InChI=1S/C8H14O/c1-7-4-5-8(2,3)9-6-7/h4H,5-6H2,1-3H3
