20
gdb 5823	2.72263	1.66166	1.36137	1.3056	76.24	-0.2622	0.0313	0.2935	1022.8977	0.172966	-348.976539	-348.966519	-348.965575	-349.01022	37.652	
C	-0.0165295827	 1.5452783452	 0.0017540062	-0.413673
C	-0.008965475	 0.0078729529	 0.0586373234	 0.252846
C	 0.7054777209	-0.4634920447	 1.3361206715	-0.425354
C	-1.4531057161	-0.5194943711	 0.0352016346	-0.41555
C	 0.7477364287	-0.5115250237	-1.2059292827	-0.040789
O	 2.0743549443	 0.0079847604	-1.2958693458	-0.430976
C	 0.7596574652	-1.9742723852	-1.3089029832	 0.292764
C	 0.8189306639	-3.1738410121	-1.3750142959	-0.447771
H	 1.0010146198	 1.9387205445	-0.053238576	 0.129489
H	-0.5656766712	 1.9053811487	-0.8757107732	 0.106283
H	-0.5025041985	 1.9584142488	 0.891540169	 0.105455
H	 0.1769767197	-0.1025893428	 2.2241402582	 0.1139
H	 0.7475283081	-1.5559276009	 1.3895966732	 0.121473
H	 1.7282805872	-0.0751160201	 1.384741075	 0.107737
H	-1.9699875616	-0.2189329605	-0.883417288	 0.109757
H	-1.4840593418	-1.6107535358	 0.0978904449	 0.125085
H	-2.0187596861	-0.1143386014	 0.8806766953	 0.111454
H	 0.2283815339	-0.1057824814	-2.0839634749	 0.111179
H	 2.642681567	-0.5514596448	-0.7564848045	 0.287568
H	 0.8613252344	-4.2326534062	-1.4494273572	 0.199124
80.459	149.2204	204.2881	214.7439	245.0973	258.5768	271.8683	290.208	311.0273	347.736	378.1954	396.1143	473.1122	551.6982	603.4421	627.6892	667.0022	762.2699	860.7546	938.8184	941.0415	962.1711	977.5761	1029.639	1044.5264	1078.6206	1212.6626	1241.4677	1262.9571	1272.0729	1337.6876	1394.3149	1396.5292	1415.5517	1427.8679	1478.9221	1488.7213	1492.5617	1503.6158	1506.7785	1523.5436	2226.6916	3023.4981	3027.8403	3030.2296	3036.7155	3091.4219	3096.0631	3099.4733	3106.8575	3113.6017	3126.4832	3501.2329	3821.9095
CC(C)(C)C(O)C#C	CC(C)(C)[C@@H](O)C#C	
InChI=1S/C7H12O/c1-5-6(8)7(2,3)4/h1,6,8H,2-4H3	InChI=1S/C7H12O/c1-5-6(8)7(2,3)4/h1,6,8H,2-4H3/t6-/m0/s1
