20
gdb 6377	4.69237	1.02127	0.94408	3.4016	73.61	-0.2369	0.0651	0.302	1329.0091	0.175727	-382.370706	-382.360463	-382.359519	-382.406349	35.728	
C	 0.0414655301	 1.4414373752	-0.0170797915	-0.320989
N	-0.0361240483	-0.0047221902	 0.0824761261	-0.36201
C	-1.2677340446	-0.6306049334	 0.0124617176	 0.499361
O	-2.3261605202	-0.0241615972	 0.0489908687	-0.413303
N	-1.1891228112	-2.0064566002	-0.1042936114	-0.37206
C	-2.3970649292	-2.8204563376	 0.0407896631	 0.078843
C	-2.1799031689	-4.1692930152	-0.6469420034	-0.398686
C	-2.818531197	-2.9768286342	 1.5083983256	-0.385035
H	 0.9095534572	 1.8075692605	 0.538804252	 0.11718
H	 0.1120418647	 1.7957559622	-1.054589708	 0.117522
H	-0.8677320015	 1.8546656679	 0.4197814081	 0.165712
H	 0.7552691156	-0.5218212414	-0.267463036	 0.232923
H	-0.333780469	-2.4397356066	 0.2137328624	 0.225189
H	-3.1814278801	-2.2671453378	-0.4824416277	 0.116968
H	-1.377831882	-4.7375286021	-0.1587842494	 0.105359
H	-3.0881149138	-4.7767912425	-0.5958965747	 0.120141
H	-1.9100325868	-4.0346004789	-1.6980190132	 0.120989
H	-3.7467126841	-3.5525330062	 1.5874272029	 0.111839
H	-2.0472512561	-3.502261044	 2.0846565653	 0.099542
H	-2.983825505	-1.9947931085	 1.9576051533	 0.140516
53.7338	67.5238	85.7154	151.7682	159.0084	232.6233	261.7841	292.9549	320.7155	377.9722	422.9415	465.0701	495.8878	511.3479	742.844	767.9098	850.3064	927.9226	939.306	955.1871	992.3938	1135.202	1148.0112	1151.6245	1166.8888	1186.1404	1209.1787	1244.7658	1342.5739	1378.2697	1393.9848	1415.8013	1440.9659	1479.13	1486.4615	1488.9956	1492.6685	1502.0926	1509.8794	1519.1539	1557.2031	1778.7877	3010.2705	3024.0043	3028.2946	3077.0602	3083.4686	3090.159	3105.3268	3119.5498	3127.2617	3156.6851	3591.1039	3619.3178
CNC(=O)NC(C)C	CNC(=O)NC(C)C	
InChI=1S/C5H12N2O/c1-4(2)7-5(8)6-3/h4H,1-3H3,(H2,6,7,8)	InChI=1S/C5H12N2O/c1-4(2)7-5(8)6-3/h4H,1-3H3,(H2,6,7,8)
