21
gdb 90664	4.11828	1.02025	1.01488	2.0673	82.72	-0.2398	0.0769	0.3167	1291.9426	0.18277	-387.036528	-387.02812	-387.027176	-387.069659	32.354	
C	-0.1537298245	 1.4470315131	 0.019149862	-0.408391
C	 0.0116261433	-0.0657033522	 0.0843616637	 0.028918
C	 1.0961429394	-0.6380795981	-0.8944883379	-0.257033
C	 1.9130664576	-1.1258135702	 0.3075549517	-0.127942
C	 0.8508361466	-0.5685469783	 1.2720359495	-0.135812
C	 1.0927453151	-2.0370291894	 1.1606381599	 0.30458
C	 0.1608354518	-3.1964885478	 0.8078738833	-0.145959
O	 0.7188848827	-3.9909847067	 1.8793766602	-0.277783
C	 1.6282562846	-2.9404778799	 2.2693128741	-0.156454
H	 0.8151404539	 1.9512801031	 0.1099578373	 0.115349
H	-0.6048772909	 1.7523174155	-0.9312323781	 0.114561
H	-0.7963378571	 1.8109446117	 0.8285772887	 0.114281
H	-0.9713207013	-0.5458336069	 0.0024718235	 0.067712
H	 0.7740559858	-1.406841421	-1.6052167152	 0.095164
H	 1.5926776479	 0.1605719699	-1.4516542049	 0.103897
H	 2.9945180976	-1.1059844596	 0.3891115993	 0.083884
H	 0.9810022078	-0.0419964104	 2.2124019931	 0.081197
H	-0.9128900971	-3.0153508446	 0.9498803158	 0.100081
H	 0.319587759	-3.6636992933	-0.1730591809	 0.10045
H	 2.6781363943	-3.2494449497	 2.1749123995	 0.099582
H	 1.4472213934	-2.6012384652	 3.2982614954	 0.09972
82.2919	117.955	168.1242	214.9413	261.5538	282.1839	374.5695	420.914	457.3034	583.3135	710.6945	822.6537	844.2344	854.9299	865.0475	893.7592	939.5185	956.8791	977.2019	992.2573	1004.0878	1020.7295	1031.2325	1060.6242	1100.5865	1116.5721	1138.814	1151.5248	1153.7222	1173.718	1207.8497	1242.626	1248.0268	1262.3117	1285.2363	1309.7431	1359.266	1371.9526	1408.6286	1461.946	1490.1484	1493.4007	1500.3634	1510.0178	1534.5922	2992.3477	3004.287	3020.6091	3023.6511	3035.2257	3040.5736	3042.455	3090.6683	3095.0735	3099.4272	3155.3627	3168.8826
CC1CC2C1C21COC1	C[C@H]1C[C@H]2[C@@H]1C12COC1	
InChI=1S/C8H12O/c1-5-2-6-7(5)8(6)3-9-4-8/h5-7H,2-4H2,1H3	InChI=1S/C8H12O/c1-5-2-6-7(5)8(6)3-9-4-8/h5-7H,2-4H2,1H3/t5-,6-,7+/m0/s1
