16
gdb 27891	2.04245	1.82102	0.96884	1.1711	76.31	-0.2197	-0.0092	0.2105	1167.9896	0.126134	-434.162373	-434.154175	-434.153231	-434.195194	31.142	
C	-0.0532341787	 1.5035207436	 0.0615560278	-0.467752
C	-0.0193844752	 0.0017363912	-0.0151108631	 0.338298
C	-0.0405114026	-0.6647671195	-1.2332862268	-0.289102
C	 0.0037746817	-2.0591338145	-1.1668761067	 0.438764
O	-0.0023901334	-2.7716030777	-2.3062012807	-0.413009
N	 0.0555237567	-2.7342433742	-0.028156417	-0.415782
C	 0.0600960733	-1.9849252314	 1.0898341245	 0.420911
N	 0.0621297194	-2.6635874938	 2.2751054847	-0.555345
N	 0.0332193514	-0.649956283	 1.1566333234	-0.378825
H	 0.8263073925	 1.8716578887	 0.599056405	 0.140589
H	-0.0810356037	 1.9608211185	-0.9298189544	 0.120681
H	-0.9313839638	 1.8296779811	 0.6279222381	 0.142247
H	-0.0804040059	-0.1509238017	-2.1834268594	 0.101944
H	 0.0288896379	-3.7016498317	-2.039805844	 0.296696
H	 0.3352374675	-3.6311775486	 2.2469221145	 0.258586
H	 0.3021210829	-2.130442947	 3.0938089141	 0.261099
71.2592	180.8126	203.492	231.9395	295.4889	336.2618	394.0896	491.2457	526.99	550.7212	555.8944	567.2566	614.7031	647.3885	731.2003	817.2506	835.4994	977.4638	980.2434	1013.1619	1058.1716	1093.9057	1124.5377	1192.2584	1239.5851	1328.6975	1401.7287	1446.874	1472.535	1474.2955	1490.8776	1502.5117	1616.2845	1630.6309	1657.0379	3043.5223	3104.4639	3131.858	3227.0395	3610.2224	3739.2038	3757.6752
CC1=CC(O)=NC(N)=N1	Cc1cc(O)nc(N)n1	
InChI=1S/C5H7N3O/c1-3-2-4(9)8-5(6)7-3/h2H,1H3,(H3,6,7,8,9)	InChI=1S/C5H7N3O/c1-3-2-4(9)8-5(6)7-3/h2H,1H3,(H3,6,7,8,9)
