18
gdb 6721	5.81246	0.74664	0.71339	4.0008	66.35	-0.2744	0.0108	0.2852	1563.7283	0.151217	-422.100121	-422.090597	-422.089653	-422.135726	32.696	
C	-0.1845202582	 1.5082502562	 0.3406560423	-0.407287
C	-0.0676209992	 0.0165241697	 0.0346013529	 0.132727
O	 0.6970298751	-0.6635213284	 1.0306218244	-0.429668
C	-1.4374565392	-0.6478630153	-0.1589770129	-0.198512
C	-1.3101139525	-2.1244823037	-0.5143060461	-0.087464
O	-2.6089342639	-2.703951771	-0.7007438899	-0.176106
C	-3.0079751626	-3.6581468514	 0.1581796696	 0.168514
O	-4.07950425	-4.1815817091	 0.0951577962	-0.276363
H	 0.8077005424	 1.942525194	 0.488633648	 0.129539
H	-0.6815681826	 2.0433025991	-0.4744624491	 0.123741
H	-0.7721897897	 1.6728652239	 1.2527474344	 0.111255
H	 0.5182922577	-0.1122674249	-0.884817627	 0.094506
H	 0.3102969696	-0.4549545213	 1.8887302238	 0.279204
H	-2.0269019494	-0.5470558427	 0.7627706741	 0.096934
H	-1.9947697525	-0.1308588125	-0.9482127362	 0.116559
H	-0.7673157388	-2.2540387707	-1.4564164988	 0.122775
H	-0.7602631319	-2.6583503924	 0.2683425735	 0.124658
H	-2.2365236544	-3.8999212296	 0.9165955308	 0.074988
37.0953	54.7658	120.4852	138.3489	201.2203	249.9043	297.4019	317.7682	344.8572	416.6429	471.5089	488.7667	676.9695	791.0821	855.5752	939.6856	970.9655	1032.2656	1046.8289	1053.422	1085.5408	1122.1604	1158.4586	1165.2516	1260.9409	1292.1667	1313.7328	1339.4385	1381.6745	1402.5066	1408.4129	1421.8845	1433.3	1480.856	1493.1274	1496.6281	1512.7309	1865.9265	2935.8466	3017.3015	3024.1977	3033.5572	3043.5838	3070.2535	3094.5686	3099.7937	3122.4468	3794.7367
CC(O)CCOC=O	C[C@@H](O)CCOC=O	
InChI=1S/C5H10O3/c1-5(7)2-3-8-4-6/h4-5,7H,2-3H2,1H3	InChI=1S/C5H10O3/c1-5(7)2-3-8-4-6/h4-5,7H,2-3H2,1H3/t5-/m1/s1
