16
gdb 33065	4.81556	0.79013	0.71026	4.7569	67.33	-0.2156	0.0236	0.2392	1516.1538	0.124286	-475.070843	-475.062121	-475.061177	-475.10517	31.112	
O	-0.0780075423	 1.4496269879	-0.0917659132	-0.41394
C	 0.0373894409	 0.0393547271	-0.0706259378	-0.064184
C	-1.3750939133	-0.5228066741	 0.1269279542	-0.307087
C	-1.4246618685	-2.0103011959	 0.1226746405	 0.284312
C	-1.677554375	-2.8939965742	 1.0984468478	-0.118661
O	-1.594689456	-4.1846898819	 0.6184466896	-0.20746
C	-1.2771234666	-4.1303039503	-0.7264582624	 0.486214
O	-1.1399039641	-5.0868000791	-1.4376564886	-0.400927
N	-1.1658194629	-2.7870511485	-1.0152546863	-0.423395
H	 0.8023872777	 1.8263684395	-0.1793051981	 0.292269
H	 0.4671077733	-0.3442575405	-1.0102721327	 0.087118
H	 0.6840149395	-0.30886651	 0.7489451387	 0.101328
H	-1.7681652106	-0.1554542475	 1.0793336668	 0.131868
H	-2.0201721657	-0.1121195814	-0.6602338227	 0.125819
H	-1.9260155329	-2.774766057	 2.1383383973	 0.152299
H	-0.9787104936	-2.4565806842	-1.9454192831	 0.274428
68.1001	83.7935	96.7041	201.1863	259.0643	293.9437	339.9991	376.7413	427.0531	528.0782	624.9945	698.8246	726.6582	771.7175	778.2685	799.219	923.5582	998.6149	1013.2272	1061.6836	1087.2299	1099.6159	1182.4847	1214.3892	1236.858	1243.9052	1303.608	1334.0423	1352.0175	1425.1657	1457.9878	1481.9735	1527.0373	1711.8962	1899.2241	2967.7151	3003.7132	3034.4133	3097.5808	3296.8243	3692.7408	3833.5885
OCCC1=COC(=O)N1	OCCc1coc(=O)[nH]1	
InChI=1S/C5H7NO3/c7-2-1-4-3-9-5(8)6-4/h3,7H,1-2H2,(H,6,8)	InChI=1S/C5H7NO3/c7-2-1-4-3-9-5(8)6-4/h3,7H,1-2H2,(H,6,8)
