18
gdb 53016	4.43142	0.88593	0.82494	1.501	82.46	-0.2376	0.0413	0.2789	1447.6717	0.148118	-401.90344	-401.894759	-401.893815	-401.938011	31.503	
C	 0.0221804613	 1.4834403739	 0.099824563	-0.508257
C	-0.0228127691	 0.0307390958	 0.0304051425	 0.247856
C	-0.0675859995	-1.1722028129	-0.0120884173	-0.112232
C	-0.0749729749	-2.6017548261	-0.1054963318	 0.129976
C	 0.9084204425	-3.2870626199	-1.0561253185	-0.166498
O	 0.4474947126	-4.6277211955	-1.1752201448	-0.261674
C	-0.9753502201	-4.6069696867	-1.0832903377	-0.110112
C	-1.2879104938	-3.4804574842	-0.1161126268	-0.096724
N	-0.4549178029	-3.3987751614	 1.0829809096	-0.363866
H	 0.8357489976	 1.8843108751	-0.51478229	 0.149425
H	-0.9131422996	 1.9306741612	-0.2546882165	 0.149276
H	 0.1850198961	 1.8244824833	 1.1281516833	 0.153533
H	 0.9038542067	-2.7637412101	-2.0244406488	 0.105608
H	 1.935269508	-3.3207594305	-0.6790332994	 0.119019
H	-1.4441591025	-4.4067063142	-2.0601896469	 0.102159
H	-1.2950352537	-5.5964283163	-0.7396223324	 0.116944
H	-2.2965056256	-3.0897661801	-0.0367483257	 0.107143
H	 0.1478788968	-4.2200624813	 1.1378455783	 0.238424
31.4136	93.4739	97.4418	247.8455	265.4729	300.3212	356.5841	398.4035	449.2247	514.0941	552.9113	691.5087	746.1645	856.1385	871.2665	933.0577	944.668	982.8354	1025.8726	1050.5132	1053.9013	1058.6712	1097.9383	1113.5982	1140.7475	1182.2995	1212.9655	1257.5783	1276.0062	1319.3463	1339.3514	1374.0711	1413.4118	1447.6549	1476.6304	1478.1635	1505.0804	1517.936	2372.8539	2979.7755	2993.2796	3027.0207	3071.4254	3081.6553	3087.4832	3089.6091	3177.8938	3460.8922
CC#CC12COCC1N2	CC#C[C@]12COC[C@H]1N2	
InChI=1S/C7H9NO/c1-2-3-7-5-9-4-6(7)8-7/h6,8H,4-5H2,1H3	InChI=1S/C7H9NO/c1-2-3-7-5-9-4-6(7)8-7/h6,8H,4-5H2,1H3/t6-,7+/m1/s1
