19
gdb 111132	3.51687	1.26048	1.16417	1.1415	73.9	-0.2404	0.0758	0.3163	1118.8936	0.160736	-422.959862	-422.952315	-422.951371	-422.991909	30.252	
O	-0.0054595355	 1.4025329454	-0.3019359689	-0.429435
C	 0.0431296272	 0.027549687	 0.0660456116	-0.122088
C	-1.3885218567	-0.4716663292	 0.1030423297	 0.024907
C	-2.0192704513	-0.7187471349	-1.2894595456	 0.061826
O	-1.230688391	-1.9673058099	-1.3537211425	-0.310168
C	-1.5453086426	-2.0114714765	 0.086550507	 0.033782
C	-3.0638111829	-2.2812630601	 0.0559413173	-0.043375
C	-4.0387646409	-1.169900302	 0.3543315981	-0.310269
C	-3.433106133	-1.2726550371	-1.0227819356	-0.042505
H	 0.8977210739	 1.7170665367	-0.4007309066	 0.287404
H	 0.6248053076	-0.5636270301	-0.6513413366	 0.108543
H	 0.4974935801	-0.0972784204	 1.0630117623	 0.079705
H	-1.9471437224	 0.1136275984	 0.8340154331	 0.074361
H	-1.8610740229	-0.0523447505	-2.1357481421	 0.085712
H	-0.9063596367	-2.6881776133	 0.6551695112	 0.074079
H	-3.4014087069	-3.3099510215	 0.0273087435	 0.096917
H	-5.0785094056	-1.4772054543	 0.4243995566	 0.112118
H	-3.7934197043	-0.3584885478	 1.0281448727	 0.121564
H	-4.0522560362	-1.5349242097	-1.8717821754	 0.096921
91.8979	157.1244	227.9863	281.8291	334.9454	378.3016	460.1354	562.1563	609.2617	667.8016	770.6239	805.4892	814.2909	846.3909	859.5274	889.689	915.6581	926.9449	990.6265	1023.9758	1035.7282	1052.8718	1067.9475	1086.5928	1090.5858	1100.4342	1120.9002	1176.9148	1190.6351	1197.0866	1235.1063	1250.5941	1272.4773	1286.4381	1288.8252	1313.5	1358.3516	1411.5312	1454.9418	1500.3791	1527.7783	2963.9591	3048.0349	3101.7156	3115.6475	3131.7264	3140.3633	3183.564	3191.0054	3212.6147	3832.1506
OCC1C2OC1C1CC21	OC[C@H]1[C@H]2O[C@@H]1[C@H]1C[C@@H]21	
InChI=1S/C7H10O2/c8-2-5-6-3-1-4(3)7(5)9-6/h3-8H,1-2H2	InChI=1S/C7H10O2/c8-2-5-6-3-1-4(3)7(5)9-6/h3-8H,1-2H2/t3-,4+,5+,6+,7-
