18
gdb 107694	3.26904	1.33083	1.12084	2.7194	72.16	-0.2389	0.0523	0.2912	1122.7331	0.146393	-438.96897	-438.960684	-438.95974	-439.00176	31.778	
C	 0.1363058633	 1.3870268363	-0.1192362056	-0.532898
C	 0.0470708025	-0.1043961512	-0.0441455231	 0.301273
N	 0.6001065833	-1.0459117111	-1.0820004105	-0.42545
C	-0.0037231862	-1.9794113343	-0.0669201088	 0.289158
C	 0.1029503304	-3.4656859447	-0.2191729255	-0.202385
O	 1.4589780287	-3.8548854955	-0.3471382905	-0.416105
C	 0.4505158194	-1.069436893	 1.1135534327	 0.026815
O	-0.8574967421	-1.0445680149	 1.7569896208	-0.332043
C	-1.174209395	-1.0232464299	 0.3364781414	-0.029377
H	 1.1782175949	 1.7072320874	-0.2154833798	 0.137407
H	-0.4213283832	 1.7765538947	-0.9777138593	 0.124423
H	-0.2841031797	 1.8265234065	 0.7906322724	 0.142419
H	 0.0185590961	-1.0192814252	-1.9247772746	 0.20742
H	-0.3018885561	-3.9599163644	 0.6704576697	 0.126455
H	-0.4966844674	-3.7959992772	-1.0847899319	 0.08717
H	 1.8750474761	-3.2066890996	-0.9291959335	 0.294074
H	 1.3483124259	-1.1064895012	 1.7281391973	 0.1082
H	-2.220700351	-0.9949952429	 0.0264373189	 0.093445
92.7846	129.5404	217.6108	223.331	255.0643	286.7819	376.9667	433.1438	496.0553	567.0776	641.6591	713.4738	747.4781	788.9345	811.177	848.9119	867.8714	916.186	964.1092	1031.4138	1051.9419	1068.9282	1088.5543	1096.8044	1105.8026	1157.3281	1161.9071	1205.0756	1233.0292	1266.5538	1284.7525	1321.6797	1359.2373	1395.02	1422.5315	1454.8885	1482.695	1490.0185	1502.3881	2957.6046	3035.3582	3073.4512	3102.9633	3103.1873	3116.1182	3142.7948	3391.8635	3777.0144
CC12NC3(CO)C1OC23	C[C@@]12N[C@@]3(CO)[C@@H]1O[C@@H]23	
InChI=1S/C6H9NO2/c1-5-3-6(2-8,7-5)4(5)9-3/h3-4,7-8H,2H2,1H3	InChI=1S/C6H9NO2/c1-5-3-6(2-8,7-5)4(5)9-3/h3-4,7-8H,2H2,1H3/t3-,4+,5-,6+
