18
gdb 67159	2.89813	1.49906	1.459	1.649	74.86	-0.2346	-0.0174	0.2172	998.9579	0.148521	-401.936706	-401.929205	-401.92826	-401.968484	29.677	
C	-0.1817775014	 1.5071130875	-0.1038293194	-0.514969
C	 0.0728221674	 0.0389520114	 0.0199150068	 0.337436
C	 0.7982981206	-0.8561965184	-0.9131439632	-0.071748
C	 1.7843606961	-1.7489496426	-0.1864977065	-0.364672
C	 1.4435453001	-1.5330687768	 1.302775691	 0.423132
O	 2.1025249982	-1.8813610199	 2.2455031469	-0.322621
C	 0.1014197165	-0.8179756034	 1.319270873	-0.225282
C	-0.9001259403	-1.7407385417	 0.5617306071	-0.167693
N	-0.6816054165	-1.0264129584	-0.7367602959	-0.187144
H	 0.6497044146	 2.0867644662	 0.3130570617	 0.1276
H	-0.2967636735	 1.7813187627	-1.1566488314	 0.135585
H	-1.0953504033	 1.8016339007	 0.423824294	 0.127647
H	 1.0372996499	-0.5075436359	-1.9116926019	 0.102551
H	 1.7140039732	-2.8115865336	-0.4439088357	 0.138044
H	 2.8170864973	-1.4414718714	-0.3797470535	 0.136116
H	-0.1907096925	-0.4026750544	 2.2809699798	 0.090686
H	-0.7000147024	-2.8181361081	 0.5486353318	 0.110639
H	-1.931077504	-1.574898524	 0.8798446154	 0.124692
103.609	187.3834	214.7341	278.7017	315.5041	432.6623	451.3855	520.102	577.5212	643.5749	685.9129	731.3403	771.062	804.9183	880.8245	910.6599	939.7549	946.2177	968.4865	1029.4191	1055.0068	1096.1466	1103.2203	1151.5045	1168.6665	1176.7675	1188.1584	1225.8306	1250.4152	1276.6623	1303.9264	1314.7904	1407.2946	1445.2686	1448.7793	1481.3956	1492.5784	1507.49	1853.8235	3029.2464	3039.523	3051.4505	3091.4698	3091.6755	3111.0159	3111.6245	3147.8187	3177.6412
CC12C3CC(=O)C1CN23	C[C@@]12[C@H]3CC(=O)[C@@H]1CN23	
InChI=1S/C7H9NO/c1-7-4-3-8(7)6(7)2-5(4)9/h4,6H,2-3H2,1H3	InChI=1S/C7H9NO/c1-7-4-3-8(7)6(7)2-5(4)9/h4,6H,2-3H2,1H3/t4-,6+,7-,8?/m0/s1
