19
gdb 31058	2.36416	1.30623	0.85629	1.0018	81.49	-0.1579	0.0549	0.2127	1359.4691	0.158561	-419.231032	-419.220946	-419.220002	-419.266382	36.215	
C	-0.1603875822	 1.4301783362	 0.0303392633	-0.315179
N	 0.196864546	 0.0315559797	-0.1444244531	-0.402608
C	 0.7278120884	-0.6350412076	 0.9747970982	 0.216296
C	 0.7663756873	-2.0010028269	 1.1326020317	 0.20485
O	 0.2440308255	-3.0004818498	 0.3571120593	-0.44401
N	 1.4130557459	-2.2857100117	 2.3188710399	-0.344377
C	 1.784595099	-1.1158483575	 2.9350598566	 0.316201
C	 2.4821545012	-1.0980643005	 4.2543014726	-0.500862
C	 1.3787852642	-0.0785595177	 2.1197461424	-0.318563
H	 0.7432118638	 2.0255398865	 0.1993034971	 0.127429
H	-0.6273391896	 1.7961707494	-0.8880092739	 0.114093
H	-0.8476275763	 1.6177562577	 0.8722573976	 0.103928
H	-0.566604765	-0.5013428395	-0.5420277879	 0.22695
H	 0.8033658628	-3.1203048168	-0.4200791756	 0.300311
H	 1.5182258211	-3.2138966131	 2.6897922677	 0.254234
H	 3.4406116281	-1.6328186261	 4.2290832313	 0.121224
H	 2.6904992117	-0.0660901544	 4.5467201181	 0.133951
H	 1.8797330907	-1.550462147	 5.0531489518	 0.121852
H	 1.5329272073	 0.9689275891	 2.3279516929	 0.08428
45.0461	88.6456	152.1564	179.5458	207.4078	233.5703	263.5086	273.8188	305.1503	344.869	395.2769	531.804	573.3179	632.7508	644.2319	668.2763	721.0736	768.0603	833.5407	998.0821	1017.4383	1059.4573	1069.7083	1127.0333	1154.1167	1183.193	1204.7596	1221.6195	1272.6186	1356.7469	1417.5247	1426.1106	1458.5687	1478.3816	1479.4136	1488.011	1505.6187	1515.8681	1525.3066	1563.5947	1676.0196	2963.3357	3008.3742	3048.7041	3062.2078	3108.8388	3118.0614	3248.2408	3550.2329	3681.3952	3749.6125
CNC1=C(O)NC(C)=C1	CNc1c(O)[nH]c(C)c1	
InChI=1S/C6H10N2O/c1-4-3-5(7-2)6(9)8-4/h3,7-9H,1-2H3	InChI=1S/C6H10N2O/c1-4-3-5(7-2)6(9)8-4/h3,7-9H,1-2H3
