19
gdb 44875	2.89742	1.51788	1.35296	3.1045	79.68	-0.2288	-0.0033	0.2256	1029.8684	0.160717	-385.882626	-385.87533	-385.874386	-385.914165	29.879	
O	 0.0234527461	 0.0600298662	 0.0040932757	-0.338703
C	 0.0219475597	 1.2609570466	 0.008058432	 0.443203
C	-1.1908371134	 2.2238819534	 0.0258919264	-0.331851
C	-0.4026926387	 3.5503590253	 0.0380141295	-0.114984
C	 0.6919393948	 3.2823028344	-1.0384674156	-0.236713
C	 1.2004277959	 2.2297218113	 0.0076204857	-0.214065
C	 0.6995343733	 3.2419058	 1.0688994144	 0.439988
C	 1.5287883361	 4.2101514984	 1.844471897	-0.365213
C	 0.6741631781	 3.1718075666	 2.5591555548	-0.365467
H	-1.8210134544	 2.0866797874	-0.858471235	 0.120561
H	-1.8041857285	 2.0610174176	 0.9169282719	 0.123858
H	-0.9689826893	 4.4811843572	 0.0630904447	 0.071013
H	 0.3720652571	 2.9158201143	-2.0180837262	 0.10124
H	 1.3924926774	 4.1115659813	-1.1461462004	 0.113287
H	 2.2020502587	 1.8050411739	 0.0021868738	 0.080543
H	 2.6059671581	 4.0782409875	 1.8615968583	 0.118251
H	 1.2077584964	 5.2465658017	 1.8868164957	 0.116138
H	-0.2146088408	 3.517318627	 3.0781413749	 0.115879
H	 1.1826961036	 2.3475568899	 3.0490454724	 0.123037
109.5318	193.9004	232.7308	286.9098	390.0102	448.6962	530.7044	544.2098	608.002	647.6649	769.9473	773.8895	807.069	826.9544	889.899	916.4731	927.3506	937.8301	968.9992	987.839	1002.5346	1014.3831	1051.8523	1076.9011	1081.6995	1102.7731	1145.2127	1155.2176	1182.6253	1203.8526	1215.4057	1224.5636	1242.4568	1282.9039	1295.9745	1397.072	1456.4391	1462.6598	1497.0971	1512.9466	1869.8155	3056.0114	3060.4	3104.2377	3115.1446	3121.1939	3125.5209	3131.9805	3146.6262	3199.1416	3213.3877
O=C1CC2CC1C21CC1	O=C1C[C@@H]2C[C@H]1C12CC1	
InChI=1S/C8H10O/c9-7-4-5-3-6(7)8(5)1-2-8/h5-6H,1-4H2	InChI=1S/C8H10O/c9-7-4-5-3-6(7)8(5)1-2-8/h5-6H,1-4H2/t5-,6+/m0/s1
