20
gdb 36799	7.7182	0.49843	0.4895	4.6566	81.4	-0.2574	0.0356	0.293	2196.8103	0.169646	-403.140797	-403.130923	-403.129979	-403.177211	34.631	
N	-0.0445308597	-1.0907433253	-0.0993628111	-0.301706
C	 0.0224034505	 0.044169884	 0.1069020809	 0.259097
C	 0.1215002539	 1.4796376473	 0.3598322911	-0.34243
C	 1.3967544157	 2.0989664392	-0.2418602406	-0.196325
C	 1.478898364	 3.593249985	 0.0435960345	-0.059969
O	 2.6676512169	 4.0814364005	-0.5438230542	-0.249351
C	 2.8597582537	 5.4488024281	-0.3504146661	 0.144844
C	 3.4872940564	 5.9300641115	 0.9339831913	-0.288259
C	 4.2729986296	 5.9274307953	-0.3637052075	-0.285873
H	-0.7713566286	 1.9645792618	-0.0527188238	 0.153871
H	 0.0923848126	 1.6414080526	 1.4440464266	 0.15368
H	 2.2808003695	 1.6039995486	 0.1712894682	 0.131776
H	 1.4150484964	 1.9361858979	-1.3235851912	 0.133342
H	 0.6001400773	 4.1132852257	-0.3754694825	 0.089413
H	 1.4787013938	 3.7828067626	 1.1294549475	 0.093234
H	 2.0941092937	 6.075789268	-0.8098169805	 0.084575
H	 3.1650199119	 6.8774254362	 1.3518198932	 0.114949
H	 3.7489803429	 5.1737021862	 1.6656818361	 0.119484
H	 5.0364556414	 5.1663043866	-0.4756105493	 0.128559
H	 4.4952097282	 6.8719774484	-0.8467108827	 0.11709
38.8971	68.8221	84.2753	109.7807	150.7065	179.3768	288.4182	333.883	397.4142	434.5388	479.1514	567.5055	756.2907	757.4425	818.3881	832.2079	868.929	934.257	972.8863	976.9376	1038.0813	1049.5617	1072.9727	1081.947	1110.0414	1122.6676	1129.9972	1193.4344	1203.1919	1220.2636	1245.1485	1277.7074	1297.6044	1312.6631	1365.9334	1386.0626	1442.8764	1453.5867	1470.7553	1498.4358	1499.9728	1528.0508	2364.5785	2954.6064	2988.2741	3036.7427	3063.3201	3070.8729	3089.4816	3111.0592	3135.5711	3143.8655	3220.3329	3236.0569
N#CCCCOC1CC1	N#CCCCOC1CC1	
InChI=1S/C7H11NO/c8-5-1-2-6-9-7-3-4-7/h7H,1-4,6H2	InChI=1S/C7H11NO/c8-5-1-2-6-9-7-3-4-7/h7H,1-4,6H2
