19
gdb 11829	3.79768	1.60671	1.33364	2.3533	72.12	-0.2383	0.0642	0.3025	985.1576	0.165243	-365.019249	-365.011029	-365.010084	-365.051569	31.422	
C	-0.8358646396	 1.1162717056	-0.0560698705	-0.428102
C	 0.1545760396	-0.0344436482	 0.0124133369	 0.027473
C	 1.5003711193	 0.0882279424	-0.7685692444	-0.335173
C	 2.1870395552	-0.5355356393	 0.4493688486	 0.386589
C	 3.0041140833	-1.769781449	 0.4465917458	-0.311652
N	 3.5746811877	-0.4764926842	 0.8734755449	-0.358009
C	 0.9789943603	-0.2281162333	 1.3362614007	 0.017231
O	 1.2094390574	 0.9701395349	 2.0515142658	-0.422084
H	-0.3656717002	 2.0513199133	 0.2631211643	 0.125579
H	-1.204962689	 1.2558760196	-1.0776238256	 0.117566
H	-1.7076485989	 0.9366109338	 0.5847342601	 0.107264
H	-0.336542265	-0.9794890469	-0.2426180817	 0.071664
H	 1.5828245727	-0.4341991119	-1.7253878166	 0.09598
H	 1.7871929187	 1.1362941613	-0.9066427739	 0.108462
H	 2.8992230272	-2.5035310254	 1.2421350016	 0.116746
H	 3.2924426601	-2.1835848586	-0.5172416153	 0.107584
H	 4.1494687868	-0.0789300672	 0.134012462	 0.229569
H	 0.642335823	-1.0309040814	 2.0066105528	 0.058679
H	 0.3925424515	 1.2054562446	 2.5034041345	 0.284635
73.5878	200.925	212.3386	244.2954	256.1669	302.3561	337.4425	372.616	453.3821	542.6721	607.9591	730.7824	826.8434	861.9369	871.7144	909.3319	926.4533	967.3976	975.6727	1002.9064	1013.1907	1097.799	1109.8348	1135.1529	1151.4913	1166.7105	1204.7423	1249.0825	1261.9433	1266.6049	1283.0924	1317.2057	1358.1839	1384.8868	1407.315	1445.7991	1485.4698	1495.5392	1505.0547	1516.5459	3000.5616	3025.3386	3043.6375	3050.1812	3087.3967	3096.3945	3099.4244	3109.445	3180.6037	3493.7894	3813.9338
CC1CC2(CN2)C1O	C[C@H]1C[C@]2(CN2)[C@H]1O	
InChI=1S/C6H11NO/c1-4-2-6(3-7-6)5(4)8/h4-5,7-8H,2-3H2,1H3	InChI=1S/C6H11NO/c1-4-2-6(3-7-6)5(4)8/h4-5,7-8H,2-3H2,1H3/t4-,5-,6-/m0/s1
