16
gdb 74590	2.60914	2.11998	1.43385	1.8601	73.86	-0.2416	-0.0239	0.2176	916.2721	0.125508	-396.893266	-396.886241	-396.885297	-396.924548	27.786	
C	 0.0320720013	 1.4683327289	 0.1039449357	-0.487012
C	-0.0370092696	-0.012932265	-0.0036745923	 0.319478
N	 0.0580023458	-0.7011696002	-1.0723572137	-0.242034
C	 0.0047468019	-2.0873489226	-0.6438734469	-0.021177
C	-0.5510083616	-2.1627352621	 0.720724743	-0.045026
C	 0.919970009	-2.5449569301	 0.540821005	-0.158194
C	 1.2360494636	-1.374385044	 1.3768483672	 0.40064
N	 2.2162836793	-1.0178616743	 2.0743868945	-0.548564
N	-0.1454661423	-0.8019445467	 1.232852464	-0.246204
H	 0.8852544921	 1.7642344638	 0.7245827267	 0.143962
H	 0.1385671031	 1.91379541	-0.8854780678	 0.152024
H	-0.8677765213	 1.853842561	 0.5941005842	 0.146971
H	-0.1899939832	-2.8406944573	-1.3962510373	 0.116151
H	-1.3847021664	-2.7072039748	 1.1434444611	 0.1205
H	 1.4050572268	-3.510897653	 0.5307883238	 0.119255
H	 2.0070767516	-0.1609444236	 2.5899041129	 0.229228
149.8511	154.8518	185.1721	330.6349	412.3791	432.7677	569.8366	616.2213	679.0332	730.1496	761.1091	800.8574	827.2373	837.1762	857.3903	891.4655	937.2111	962.7769	992.1899	1000.772	1033.3576	1050.3612	1069.4528	1077.3711	1126.8085	1192.5365	1204.3181	1280.1203	1303.7843	1354.7807	1409.1094	1469.9311	1472.8132	1705.272	1808.079	3042.8733	3098.3086	3155.9695	3202.5746	3210.8762	3225.7792	3468.156
CC1=NC2C3C2C(=N)N13	C[C]1[N][C@@H]2[C@H]3[C@@H]2[C]([NH])N13	
InChI=1S/C6H7N3/c1-2-8-4-3-5(4)9(2)6(3)7/h3-5,7H,1H3	InChI=1S/C6H7N3/c1-2-8-4-3-5(4)9(2)6(3)7/h3-5,7H,1H3/t3-,4+,5-/m1/s1
