17
gdb 38749	2.57356	2.37094	1.88707	1.6276	70.24	-0.2396	0.002	0.2416	813.5887	0.139724	-421.821772	-421.815908	-421.814964	-421.85162	25.404	
C	-0.0262202034	 1.569356528	-0.0077408516	-0.246143
C	 1.5192999768	 1.5333081694	 0.0109195539	 0.079908
O	 2.0987376182	 1.4571153961	 1.3141315886	-0.279122
C	 2.1763095168	 0.0699233578	 1.6619435792	 0.12024
O	 2.3921552164	-0.6089763859	 0.4288299375	-0.244022
C	 1.479372734	 0.0416946034	-0.4127944176	 0.078379
C	-0.0440096009	 0.0011839321	 0.0388522093	-0.131316
C	-0.1677784935	-0.5290611717	 1.4387566504	-0.075156
C	 0.8834499397	-0.4518979485	 2.2549565808	-0.053096
H	-0.5122948271	 2.0929225741	 0.8166155784	 0.112116
H	-0.4001293675	 1.9559474457	-0.9606525418	 0.102006
H	 2.0742742686	 2.2733190478	-0.5690607298	 0.082043
H	 3.0470901523	-0.0733245211	 2.3035473876	 0.092436
H	 1.669814215	-0.227990813	-1.4498933998	 0.092936
H	-0.7394057448	-0.4848778356	-0.6485306466	 0.071971
H	-1.118313397	-0.9434461629	 1.7617466269	 0.099196
H	 0.8643991265	-0.7860215757	 3.2860637945	 0.097624
240.775	298.3131	408.6872	468.8632	527.351	575.7546	669.4033	707.1181	718.1541	768.0958	814.8257	849.5052	860.3842	892.2796	907.8762	938.4385	960.4813	975.5744	984.9404	1026.8117	1069.3146	1088.1581	1114.8213	1144.426	1159.223	1188.1459	1217.1485	1257.4935	1265.3735	1295.1542	1330.6723	1336.5083	1360.9272	1373.0206	1400.1663	1468.6604	1694.8738	3057.6573	3082.8241	3089.1742	3110.5107	3129.4362	3139.9144	3165.1965	3199.3662
C1C2OC3OC2C1C=C3	C1[C@H]2O[C@@H]3O[C@H]2[C@H]1C=C3	
InChI=1S/C7H8O2/c1-2-6-8-5-3-4(1)7(5)9-6/h1-2,4-7H,3H2	InChI=1S/C7H8O2/c1-2-6-8-5-3-4(1)7(5)9-6/h1-2,4-7H,3H2/t4-,5+,6+,7-/m0/s1
