21
gdb 57467	2.47567	1.34515	1.10296	3.916	77.55	-0.2696	0.0099	0.2795	1202.3323	0.180794	-424.264933	-424.255283	-424.254338	-424.299085	36.236	
C	-0.10481431	 1.5504795699	 0.1674395817	-0.428842
C	-0.0413064275	 0.0158461144	 0.0531823617	 0.238318
C	 0.7907433204	-0.5455227422	 1.2224648131	-0.413257
C	-1.4640319004	-0.5696562704	 0.0951806619	-0.407844
C	 0.6384702303	-0.423563537	-1.2619818249	-0.194338
C	 0.1605510955	 0.1033498651	-2.6317454792	-0.115281
O	 1.4802554208	 0.6904092473	-2.8775251596	-0.241272
C	 1.9469838632	 0.2724048466	-1.6570629595	 0.460501
O	 3.0212775199	 0.4709739991	-1.1849316074	-0.333462
H	 0.8958678075	 1.9930016816	 0.1503380705	 0.138247
H	-0.6918041721	 2.0011918352	-0.639511196	 0.112506
H	-0.5792895029	 1.8369772091	 1.1113398671	 0.116692
H	 0.3593754718	-0.2388956567	 2.1809630684	 0.111036
H	 0.8134085465	-1.6407235831	 1.2009582647	 0.108846
H	 1.8223956151	-0.1854232432	 1.1775610987	 0.14662
H	-2.0834666455	-0.1839844986	-0.7222008481	 0.110858
H	-1.4474690276	-1.6624016809	 0.0192527671	 0.11229
H	-1.9592117925	-0.3081423472	 1.0362985556	 0.118034
H	 0.7635884837	-1.5112752522	-1.2589573562	 0.109293
H	-0.0739647014	-0.6479307107	-3.3881948123	 0.125313
H	-0.6048996249	 0.8809596638	-2.6164297975	 0.125742
74.9618	122.7152	144.1616	220.9367	264.0018	273.9285	275.3994	290.7666	338.0228	380.2023	406.3702	464.6266	542.3511	645.3725	746.0598	781.009	856.5937	927.8179	936.0709	940.9951	961.6325	963.3109	1006.3033	1050.3138	1068.6641	1089.4498	1123.0972	1160.1008	1199.696	1228.4041	1256.8876	1278.0687	1329.0608	1358.0879	1400.3489	1403.3113	1434.7055	1481.1479	1485.6379	1489.2148	1504.7985	1505.6405	1519.6809	1524.1394	1923.7817	3023.0689	3030.1478	3037.0216	3062.0721	3077.5534	3090.9538	3094.6188	3097.8805	3102.911	3110.6014	3118.6054	3136.2664
CC(C)(C)C1COC1=O	CC(C)(C)[C@H]1COC1=O	
InChI=1S/C7H12O2/c1-7(2,3)5-4-9-6(5)8/h5H,4H2,1-3H3	InChI=1S/C7H12O2/c1-7(2,3)5-4-9-6(5)8/h5H,4H2,1-3H3/t5-/m0/s1
