17
gdb 67280	3.20066	1.90547	1.72451	2.9874	69.81	-0.2237	0.0346	0.2583	857.7318	0.137031	-421.736555	-421.73022	-421.729276	-421.766912	26.526	
C	-0.0241505373	 1.5809218748	 0.0121533401	-0.538009
C	-0.0423418807	 0.0802375889	 0.0022045884	 0.326402
C	 0.7397014482	-0.8600156788	-0.9712106548	 0.008924
O	 1.6246870473	-1.3102737138	 0.0697277826	-0.270472
C	 0.6484447114	-0.8721791339	 1.0312427484	 0.008925
C	-0.6154356508	-1.8402968443	 0.9667796619	 0.07421
O	-0.3788988387	-2.8506907808	-0.0309373057	-0.271419
C	-0.5242697355	-1.8281439525	-1.0337084755	 0.074211
C	-1.2806811364	-0.8790779832	-0.0600558357	-0.18533
H	 1.0023752109	 1.9603561004	 0.0611181788	 0.131623
H	-0.4907283012	 1.9899356909	-0.891385209	 0.12218
H	-0.5709909592	 1.9792002331	 0.8745392649	 0.12218
H	 1.250542754	-0.5763923568	-1.8931115224	 0.078201
H	 1.0731626215	-0.600033367	 1.9991547127	 0.078201
H	-1.0471582638	-2.226098643	 1.8908856467	 0.080985
H	-0.8699415296	-2.2024744436	-1.9978594056	 0.080985
H	-2.3356322603	-0.6183508506	-0.1065480459	 0.078203
217.5438	233.2404	235.3301	410.2674	496.6246	538.2425	674.4469	681.0299	727.1334	792.7841	820.3962	834.0775	846.152	850.0569	864.5069	878.0205	966.0812	988.042	995.1306	1025.3718	1069.0052	1086.8458	1147.8271	1155.7853	1157.0994	1170.3695	1178.7911	1188.5143	1243.6691	1257.8322	1264.7588	1308.2842	1328.6131	1374.4231	1414.091	1489.324	1490.5986	3022.5533	3085.513	3093.6681	3094.9315	3094.9826	3107.5325	3109.8657	3140.4698
CC12C3OC1C1OC3C21	C[C@@]12[C@H]3O[C@@H]1[C@@H]1O[C@H]3[C@H]21	
InChI=1S/C7H8O2/c1-7-2-3-5(7)9-6(7)4(2)8-3/h2-6H,1H3	InChI=1S/C7H8O2/c1-7-2-3-5(7)9-6(7)4(2)8-3/h2-6H,1H3/t2-,3-,4+,5-,6+,7+
