19
gdb 34998	2.24299	1.59915	1.52663	0.8856	85.43	-0.2309	0.0359	0.2668	1026.6988	0.160365	-348.725365	-348.71732	-348.716375	-348.757872	31.776	
C	 0.2677180973	-1.3040847595	 0.161147018	-0.486598
C	 0.1834179373	-0.10410236	 0.1211815718	 0.361189
C	 0.0468133264	 1.3190412342	 0.0490039289	-0.216271
C	 0.4156557448	 2.2282088452	 1.2198681817	-0.053087
C	 0.9652781902	 1.6527638979	 2.5129621059	-0.281442
C	 2.3371651457	 1.0492617057	 2.3961537634	-0.040478
C	 3.081891438	 1.0649104143	 1.2945313804	-0.040477
C	 2.6709563512	 1.6886485619	-0.0100728138	-0.28144
C	 1.2586940484	 2.2459018511	-0.0271770564	-0.053077
H	 0.3516579682	-2.3613876988	 0.2027851997	 0.192227
H	-0.8138315734	 1.6464756207	-0.5282080259	 0.108003
H	-0.2639106646	 3.0639167814	 1.3557658056	 0.088343
H	 0.994969881	 2.4533935961	 3.2653532569	 0.108361
H	 0.270028905	 0.9022839825	 2.9153875977	 0.117341
H	 2.721910056	 0.5743971946	 3.2954684103	 0.081683
H	 4.0659797454	 0.6026325633	 1.3072676935	 0.081682
H	 3.3695123757	 2.5034189475	-0.2470453818	 0.108364
H	 2.7951589432	 0.9554789683	-0.8197437647	 0.117336
H	 1.1204270241	 3.0929689238	-0.6920440412	 0.088342
96.8005	110.0985	138.4173	314.0467	327.5849	385.1536	499.5878	510.895	576.4024	578.7347	614.1457	644.55	683.3128	731.1998	785.4447	810.2691	886.0179	919.3993	939.9695	964.9661	968.8553	1012.9026	1041.4663	1043.5611	1094.8546	1104.0856	1139.6801	1202.7643	1235.5795	1237.7524	1249.1064	1354.1095	1365.184	1370.1881	1377.3666	1424.5601	1433.5236	1471.7215	1474.4404	1740.9987	2231.6936	3002.3885	3002.7701	3022.6971	3023.2151	3133.9426	3142.6786	3143.4524	3156.8232	3166.8152	3506.1173
C#CC1C2CC=CCC12	C#C[C@H]1[C@H]2CC=CC[C@@H]12	
InChI=1S/C9H10/c1-2-7-8-5-3-4-6-9(7)8/h1,3-4,7-9H,5-6H2	InChI=1S/C9H10/c1-2-7-8-5-3-4-6-9(7)8/h1,3-4,7-9H,5-6H2/t7-,8+,9-
