14
gdb 129580	5.10401	1.08084	0.89319	5.4881	71.69	-0.2268	-0.0227	0.2042	1209.3271	0.103068	-466.209771	-466.201977	-466.201033	-466.242598	29.009	
N	 0.188863353	 1.2691488179	 0.5817244187	-0.542522
C	 0.0033303908	 0.03494587	 0.0397370419	 0.460673
N	 1.1405525796	-0.7195139275	-0.1017340762	-0.543891
N	-1.1163505774	-0.5088604758	-0.350849994	-0.422148
C	-2.3253555535	 0.0548815822	-0.1775536999	 0.514779
N	-3.4827826413	-0.4855898278	-0.4834165531	-0.354218
C	-4.3662547683	 0.4849974114	-0.1194896317	 0.048889
N	-3.8612626861	 1.5803720316	 0.3825483514	-0.145303
O	-2.4777897493	 1.3081984913	 0.3483536269	-0.247899
H	 1.0271203932	 1.4420483026	 1.1115145502	 0.262187
H	-0.6335151691	 1.7968254365	 0.830477472	 0.296325
H	 2.0096955787	-0.2354510098	-0.2644132956	 0.259649
H	 1.0013063785	-1.5497076433	-0.6571439962	 0.276589
H	-5.4366634486	 0.3790253907	-0.2305259944	 0.136889
51.3974	122.69	197.596	337.37	367.9793	396.2557	406.2604	433.4234	536.374	580.6394	588.8041	641.3808	741.5328	775.7584	785.366	904.6769	941.9103	961.172	975.4631	1029.6534	1089.4348	1158.915	1196.5246	1295.433	1304.5296	1482.9078	1530.6942	1599.9667	1633.4261	1647.1443	1708.3941	3246.9719	3578.909	3586.7565	3701.1686	3704.7418
NC(N)=NC1=NC=NO1	NC(=Nc1ncno1)N	
InChI=1S/C3H5N5O/c4-2(5)8-3-6-1-7-9-3/h1H,(H4,4,5,6,7,8)	InChI=1S/C3H5N5O/c4-2(5)8-3-6-1-7-9-3/h1H,(H4,4,5,6,7,8)
