18
gdb 7221	4.07787	1.00903	0.93992	2.4651	73.21	-0.248	0.033	0.281	1321.047	0.150486	-384.914155	-384.903995	-384.90305	-384.950072	35.2	
C	 0.0281228563	 1.4904356372	 0.1086110202	-0.499441
C	-0.0006626381	 0.0389247818	 0.0064925575	 0.079451
C	-0.0101442079	-1.1616217753	-0.0916163205	 0.055765
C	-0.0637575159	-2.6184466733	-0.1816206071	-0.07998
O	-1.3963861432	-3.0779332444	-0.4621096713	-0.440582
C	 0.814504944	-3.1820804021	-1.32488139	 0.159324
C	 0.9270129852	-4.7067666005	-1.2391484086	-0.410785
O	 0.2962194078	-2.764218932	-2.5722216319	-0.439051
H	 0.9342001998	 1.8981096738	-0.352588236	 0.155997
H	-0.8314492394	 1.9389486136	-0.4012869546	 0.152262
H	 0.0068818476	 1.8207742932	 1.1528338877	 0.148948
H	 0.2795547221	-3.0516887773	 0.7707343317	 0.093564
H	-2.0090551516	-2.4513308344	-0.0657926998	 0.293141
H	 1.8096131714	-2.7328196622	-1.2367419703	 0.090959
H	-0.0651368061	-5.1671363258	-1.2605248595	 0.129457
H	 1.5018653277	-5.0785905535	-2.090883082	 0.121528
H	 1.4305580968	-5.0166368347	-0.3167469229	 0.106246
H	-0.6583452766	-2.901963134	-2.5106762525	 0.283198
29.6214	72.6173	89.1155	152.7935	231.9476	244.9197	266.4455	289.4647	312.9362	344.5389	397.261	451.1629	487.0858	557.7767	679.1799	814.396	840.2432	927.9063	987.1322	1050.3953	1054.8408	1068.8396	1097.8102	1133.9838	1169.8223	1217.123	1309.9512	1342.2726	1343.6258	1399.427	1404.3641	1414.5637	1435.6515	1476.5525	1478.0204	1491.7583	1498.8789	2367.3333	2979.4009	3029.4779	3037.2058	3056.5381	3090.9776	3092.5631	3109.3389	3127.7555	3764.7031	3835.8219
CC#CC(O)C(C)O	CC#C[C@@H](O)[C@@H](C)O	
InChI=1S/C6H10O2/c1-3-4-6(8)5(2)7/h5-8H,1-2H3	InChI=1S/C6H10O2/c1-3-4-6(8)5(2)7/h5-8H,1-2H3/t5-,6-/m1/s1
