21
gdb 71779	2.90323	1.88114	1.70387	0.1161	84.74	-0.2456	0.0874	0.333	932.2405	0.185133	-349.89662	-349.889898	-349.888953	-349.927065	29.533	
C	 0.0088699857	 1.5349923263	 0.017749266	-0.50806
C	-0.0392818095	 0.0265185093	-0.0180447863	 0.363918
C	 0.4375707415	-0.7449502284	-1.2735535299	-0.284116
C	-0.5496830574	-1.8661465026	-0.8818298516	-0.048999
C	-0.1283475072	-2.601160395	 0.4529335892	-0.038739
C	 1.1755245017	-2.0271417239	 1.0510228593	-0.244369
C	 0.391810215	-0.7219099383	 1.3150355779	-0.089595
C	-0.9486231755	-1.5410243012	 1.2740311824	-0.037577
C	-1.366593106	-0.8262753063	-0.0349811671	-0.089415
H	 1.045112062	 1.8940707274	 0.0603949029	 0.113805
H	-0.4586507223	 1.9705269181	-0.8727082193	 0.109924
H	-0.5124330856	 1.9315122141	 0.8970340127	 0.112908
H	 0.0902062963	-0.2341901792	-2.1787487574	 0.08943
H	 1.5011149925	-0.9780525323	-1.3902975734	 0.08847
H	-0.9871789096	-2.4958339491	-1.6568150648	 0.058277
H	-0.3153924556	-3.6749379025	 0.4866467549	 0.057622
H	 1.408199717	-2.5251770662	 1.998191885	 0.093739
H	 2.0825847914	-1.9979174629	 0.4387766369	 0.090426
H	 0.6853070775	-0.0690810748	 2.1391054049	 0.05424
H	-1.5680625333	-1.7659349729	 2.1411246228	 0.055636
H	-2.3479912986	-0.4341567195	-0.3011494751	 0.052474
226.5754	230.788	283.743	408.5465	414.2218	457.467	551.0645	666.6081	690.178	719.8447	781.0463	811.6717	828.8566	846.4264	866.6952	892.6542	916.9304	940.939	958.7112	969.2189	986.7692	1009.3895	1031.775	1054.6194	1093.4885	1106.3001	1121.4196	1150.4533	1160.9754	1181.0296	1187.8819	1207.3186	1229.0476	1232.8146	1248.1739	1263.6795	1275.634	1295.7357	1307.8176	1350.9974	1410.1966	1477.5754	1489.5072	1492.5721	1512.4187	3013.1747	3032.0898	3040.0256	3075.3892	3079.0448	3083.6587	3086.9455	3088.7445	3091.8857	3102.9645	3107.3648	3122.8712
CC12CC3C4CC1C4C23	C[C@@]12C[C@H]3[C@H]4C[C@@H]1[C@H]4[C@@H]23	
InChI=1S/C9H12/c1-9-3-5-4-2-6(9)7(4)8(5)9/h4-8H,2-3H2,1H3	InChI=1S/C9H12/c1-9-3-5-4-2-6(9)7(4)8(5)9/h4-8H,2-3H2,1H3/t4-,5+,6-,7+,8+,9-/m1/s1
