20
gdb 109516	1.9499	1.46449	1.08185	4.2209	81.38	-0.2563	0.0311	0.2874	1237.5599	0.168328	-403.148997	-403.13875	-403.137805	-403.183866	36.874	
C	 0.3580940475	 1.1188425345	 0.3630001028	-0.245713
O	-0.327902122	 0.0666548966	-0.3009850013	-0.231713
C	 0.4148974	-0.5362534762	-1.2923521104	 0.102756
C	 1.3990168859	-1.6658985902	-0.9283092965	-0.293189
C	 1.5594451289	-2.048058894	 0.4415666609	 0.316239
N	 1.7024138747	-2.3566999822	 1.5484728593	-0.358964
C	 0.0735042518	-1.9397585876	-1.6697760367	 0.235396
C	-1.04134441	-2.6426318349	-0.9214240168	-0.449988
C	 0.2086360406	-2.3278055438	-3.1297910463	-0.452396
H	 1.2524696454	 0.7498661579	 0.8794784105	 0.134975
H	 0.6503300717	 1.9087969419	-0.3438720596	 0.109995
H	-0.33623361	 1.5330719005	 1.0960237073	 0.138255
H	 0.7626539003	 0.1386362679	-2.0777450124	 0.09384
H	 2.3096789036	-1.7319559217	-1.5154558842	 0.125125
H	-1.1087674089	-2.3092395124	 0.1141515895	 0.154381
H	-2.0015855906	-2.4367441815	-1.406045235	 0.122071
H	-0.883266378	-3.7259428381	-0.9295088635	 0.124331
H	 0.4199592742	-3.3979325538	-3.2292903299	 0.129134
H	-0.7211792871	-2.1167226378	-3.6692647145	 0.128314
H	 1.0155454021	-1.7788124654	-3.6250961632	 0.117152
96.4643	124.9592	134.9307	173.4088	179.1566	192.1464	226.4058	253.9168	313.4746	351.7841	384.7512	420.7633	517.4252	560.6604	672.0631	699.7769	822.4365	840.239	961.5299	976.3206	994.9998	1011.9964	1053.4541	1082.4872	1114.8025	1153.9511	1179.0479	1186.9385	1220.8699	1271.0393	1325.1343	1353.8032	1411.8864	1419.9021	1439.2181	1480.9791	1485.8727	1488.1661	1489.8154	1499.8402	1503.3257	1514.513	2344.2265	2997.7375	3029.1887	3041.8646	3066.2026	3074.8657	3096.657	3101.4287	3103.202	3135.645	3152.2837	3159.4848
COC1C(C#N)C1(C)C	CO[C@H]1[C@@H](C#N)C1(C)C	
InChI=1S/C7H11NO/c1-7(2)5(4-8)6(7)9-3/h5-6H,1-3H3	InChI=1S/C7H11NO/c1-7(2)5(4-8)6(7)9-3/h5-6H,1-3H3/t5-,6+/m1/s1
