22
gdb 94704	3.23292	1.18493	1.01502	2.4466	81.49	-0.2325	0.0706	0.3031	1255.32	0.195869	-404.346026	-404.337272	-404.336327	-404.378852	34.968	
C	 0.0249688186	 1.531209131	-0.0308256768	-0.445129
C	 0.0105184924	 0.0185560916	 0.0309717669	 0.330952
C	-1.230457295	-0.6258974055	-0.5729164548	-0.277319
C	-1.3535698792	-2.1288319886	-0.288998233	-0.259065
C	-1.1815752969	-2.4105599389	 1.205289244	 0.145695
O	-1.3527221452	-3.7855324106	 1.5235576931	-0.440792
C	 0.2184226055	-2.0235985873	 1.687373612	-0.232266
C	 0.7116079896	-0.6873299958	 1.1460611909	-0.057581
N	 1.3259587182	-0.606470465	-0.198826224	-0.37047
H	 0.9636720745	 1.9222771025	 0.3686945002	 0.12598
H	-0.0690179088	 1.8787231311	-1.0664512387	 0.114596
H	-0.8055584462	 1.9576040624	 0.5434814174	 0.109088
H	-2.1119043151	-0.1139843395	-0.1636445738	 0.101113
H	-1.2479273327	-0.4377340278	-1.6543744597	 0.101322
H	-2.3364784425	-2.4830017852	-0.6246285706	 0.086441
H	-0.6120280768	-2.7108180059	-0.850871964	 0.102782
H	-1.9210311732	-1.7995994697	 1.7518105618	 0.062604
H	-2.2394422278	-4.045598936	 1.2538674164	 0.278415
H	 0.2255208699	-2.0043754931	 2.7814603618	 0.10824
H	 0.9076687605	-2.8259860296	 1.3934033089	 0.11378
H	 1.2361247901	-0.0710355856	 1.8735392174	 0.083666
H	 1.2189094502	-1.5015594945	-0.6720398455	 0.217946
94.5263	194.5981	227.1058	250.0302	290.2842	307.3249	344.9361	355.9396	397.7768	445.7247	483.1456	543.0772	623.0536	688.1156	777.3532	831.9043	858.0713	901.5011	922.308	961.666	1012.8568	1031.8696	1041.5536	1062.154	1096.4129	1110.4585	1111.9752	1133.9891	1175.66	1207.8173	1236.5656	1247.9425	1287.8679	1301.9585	1331.266	1344.4257	1354.6678	1381.5181	1403.9953	1413.9442	1433.7339	1448.422	1483.554	1487.7401	1491.4548	1499.9415	1503.5307	2944.9879	3011.0057	3021.3908	3026.9645	3029.1175	3042.2839	3060.4278	3079.4779	3086.1221	3118.7592	3122.1724	3483.8228	3814.089
CC12CCC(O)CC1N2	C[C@]12CC[C@@H](O)C[C@H]1N2	
InChI=1S/C7H13NO/c1-7-3-2-5(9)4-6(7)8-7/h5-6,8-9H,2-4H2,1H3	InChI=1S/C7H13NO/c1-7-3-2-5(9)4-6(7)8-7/h5-6,8-9H,2-4H2,1H3/t5-,6-,7+/m1/s1
