22
gdb 71396	3.18089	1.37909	1.30403	1.6918	85.9	-0.2173	0.086	0.3033	1126.1579	0.193334	-367.149878	-367.141098	-367.140154	-367.182351	35.332	
C	-0.0418127073	 1.4865398078	 0.0631471118	-0.508402
C	-0.0027995787	-0.0077312095	-0.0616892698	 0.305939
C	-0.6697174244	-0.9022603364	-1.0967059804	-0.233807
N	-0.4523667605	-2.090602559	-0.1847914738	-0.203656
C	-0.3122717424	-1.0629187926	 0.9633369667	-0.077411
C	 1.1186009773	-0.8735595381	 0.5643275281	-0.157844
C	 1.0818172023	-2.2290663032	-0.1377968312	 0.34457
C	 1.4045680848	-3.3923470858	 0.7982822602	-0.427235
C	 1.7991472066	-2.4118536103	-1.4719539645	-0.463532
H	 0.5641340685	 1.9683356443	-0.7130103303	 0.121611
H	-1.0663293122	 1.8643237206	-0.0315218843	 0.120548
H	 0.3442622145	 1.8160535795	 1.0337019031	 0.120255
H	-1.7450124339	-0.7059966646	-1.160645405	 0.10041
H	-0.2654913616	-0.999049547	-2.1090211111	 0.092684
H	-0.8517263395	-1.0775131787	 1.8998715124	 0.09235
H	 1.9179135836	-0.4145169334	 1.1360216888	 0.078729
H	 0.8430311748	-3.3160223852	 1.7329953716	 0.116789
H	 1.1417492772	-4.3419594916	 0.3215294564	 0.118518
H	 2.4728893711	-3.4134340741	 1.0400985943	 0.10479
H	 2.851041626	-2.661921045	-1.2979882765	 0.113829
H	 1.3494008893	-3.2386484863	-2.0337775882	 0.124332
H	 1.7762639144	-1.5161347814	-2.0953041583	 0.116534
154.1227	185.9326	201.9323	218.8525	247.1484	291.4832	325.5724	364.2695	401.6161	485.8155	528.2591	588.4072	649.9697	766.35	786.0616	829.7866	851.7654	890.7882	900.7449	920.9109	946.1222	956.7053	971.0334	1012.3642	1018.5614	1044.8307	1071.6469	1123.2572	1139.3637	1166.6043	1180.8255	1192.7507	1240.9619	1258.1043	1299.0916	1307.7975	1398.4269	1405.2085	1414.9627	1430.5279	1478.4056	1483.2921	1487.3154	1496.2826	1498.7682	1504.3018	1529.885	3022.1316	3031.6261	3036.132	3041.8589	3081.8607	3086.0551	3092.4301	3095.6664	3102.8162	3117.1732	3126.3093	3169.0995	3213.5345
CC12CN3C1C2C3(C)C	C[C@]12CN3[C@H]1[C@H]2C3(C)C	
InChI=1S/C8H13N/c1-7(2)5-6-8(5,3)4-9(6)7/h5-6H,4H2,1-3H3	InChI=1S/C8H13N/c1-7(2)5-6-8(5,3)4-9(6)7/h5-6H,4H2,1-3H3/t5-,6-,8+/m0/s1
