18
gdb 5251	6.52975	1.01072	0.93105	0.8359	73.82	-0.218	0.0241	0.2421	1270.0968	0.154544	-347.840014	-347.832062	-347.831118	-347.873096	29.069	
C	 0.0259687058	 1.5855434208	-0.0412024703	-0.379316
C	 0.1116453135	 0.0577992626	-0.0586445259	-0.151859
C	 0.6113371992	-0.5273987844	 1.2754070546	-0.312755
C	 0.7195179287	-2.0233046183	 1.2703705289	 0.253082
C	-0.0367408723	-2.9091277241	 1.9733561971	-0.103591
O	 0.3325659772	-4.1925219844	 1.7081065584	-0.142763
C	 1.3512275784	-4.1258603686	 0.8122032479	 0.005619
C	 1.6327924763	-2.8343485514	 0.5062367062	-0.278361
H	 1.0051590279	 2.0355049001	 0.1579998109	 0.11351
H	-0.3307704165	 1.9755281602	-0.9994843407	 0.112426
H	-0.66135861	 1.9357358772	 0.7371696029	 0.113807
H	-0.8714008846	-0.3710412747	-0.2875879018	 0.10105
H	 0.779016566	-0.2666196384	-0.8666443386	 0.099073
H	 1.5895338225	-0.0861380398	 1.5105543982	 0.103873
H	-0.0643133631	-0.2153615902	 2.0811495601	 0.098867
H	-0.8419631948	-2.7902978087	 2.680159269	 0.129435
H	 1.7618814191	-5.0718879667	 0.4996955025	 0.132501
H	 2.3964970969	-2.4885395511	-0.1737107795	 0.105401
59.0812	90.0955	119.9505	239.6452	306.5523	319.7201	373.7469	622.3171	640.4841	717.9707	736.086	746.146	785.6095	832.3864	873.3839	893.0328	896.8168	987.3187	1042.9286	1059.7792	1090.5825	1100.1421	1112.8138	1203.611	1245.9944	1270.1279	1283.3466	1316.3884	1325.0443	1385.6688	1409.8959	1413.1512	1482.401	1493.18	1498.2421	1510.3652	1537.4119	1636.2225	3011.0636	3027.3121	3029.889	3045.6932	3066.8902	3096.1375	3102.5281	3247.2302	3269.963	3282.5679
CCCC1=COC=C1	CCCc1cocc1	
InChI=1S/C7H10O/c1-2-3-7-4-5-8-6-7/h4-6H,2-3H2,1H3	InChI=1S/C7H10O/c1-2-3-7-4-5-8-6-7/h4-6H,2-3H2,1H3
