22
gdb 81782	2.09045	1.71814	1.29056	2.4425	81.7	-0.2199	0.0656	0.2855	1124.9351	0.191579	-404.314629	-404.304664	-404.303719	-404.348304	38.454	
C	-0.2674298787	 1.5120696638	-0.1569493583	-0.416558
C	 0.0966388182	 0.0437772133	-0.0153299711	 0.020168
N	 1.0747743402	-0.5193571955	-1.020572998	-0.183605
C	 2.390103808	 0.0815361235	-0.7129410661	-0.30327
C	 1.9216827128	-1.03077622	 0.136554451	 0.326144
C	 2.5409140411	-2.3966025908	 0.1594423886	-0.49315
C	 0.9300762628	-0.5135797256	 1.1927335019	 0.312922
C	 1.4378713009	 0.4281097299	 2.2777144768	-0.461287
O	 0.3023641164	-1.6434147698	 1.7864868159	-0.473706
H	 0.5942786908	 2.1791808864	-0.065577167	 0.114402
H	-0.7234421787	 1.6883203438	-1.1367383861	 0.130553
H	-0.9947223595	 1.8042884017	 0.6085025698	 0.113343
H	-0.8083928875	-0.5655468369	-0.0928622934	 0.084546
H	 3.1381692651	-0.152154526	-1.4649871788	 0.117882
H	 2.4521787774	 1.0980779117	-0.3349652314	 0.10338
H	 2.933001384	-2.6487470164	-0.8301241359	 0.122779
H	 3.3703588632	-2.4392130935	 0.8751573993	 0.115698
H	 1.8044441673	-3.1497013497	 0.4484269597	 0.141698
H	 1.9716591289	 1.2891168057	 1.8689557009	 0.118165
H	 0.600830034	 0.81564802	 2.8727548425	 0.106058
H	 2.1115070709	-0.1094701406	 2.9521666372	 0.127682
H	-0.3785135977	-1.322869305	 2.3874447925	 0.276158
139.5058	173.7954	191.1924	199.3824	211.5949	228.4715	251.2054	258.6472	321.9266	387.5973	404.2216	460.3913	497.6943	553.8669	627.7136	656.686	730.7676	793.221	837.2562	892.2736	946.7286	966.6934	1002.6754	1018.8222	1073.5922	1095.1767	1104.0611	1116.5753	1123.2623	1144.894	1187.101	1215.6322	1259.2953	1285.419	1361.3972	1364.459	1398.5722	1405.0348	1408.2245	1420.4122	1478.3898	1483.5278	1488.4732	1491.7687	1498.3569	1499.4096	1512.6462	3024.7306	3034.2125	3034.8433	3062.273	3091.7557	3099.1321	3099.9482	3108.2709	3114.525	3123.8356	3129.8932	3193.5332	3808.4215
CC1N2CC2(C)C1(C)O	C[C@H]1N2C[C@@]2(C)[C@]1(C)O	
InChI=1S/C7H13NO/c1-5-7(3,9)6(2)4-8(5)6/h5,9H,4H2,1-3H3	InChI=1S/C7H13NO/c1-5-7(3,9)6(2)4-8(5)6/h5,9H,4H2,1-3H3/t5-,6+,7-,8?/m1/s1
