17
gdb 122800	3.02088	0.7805	0.65844	2.5574	67.91	-0.2633	-0.0829	0.1804	1683.1942	0.13221	-496.112399	-496.102246	-496.101301	-496.150038	33.242	
C	-0.170012492	 1.3325435048	-0.1673199339	-0.22827
O	 0.0099110267	-0.060379098	-0.0583617586	-0.227539
C	 0.5333069995	-0.6392741394	-1.2270409059	-0.065694
C	 0.6076713188	-2.1364719007	-1.0357900079	-0.081943
O	-0.738235563	-2.655019224	-1.0592312947	-0.212434
C	-0.8707276042	-3.9406714481	-0.7500079194	 0.344828
O	 0.0178783561	-4.704163921	-0.4611905078	-0.342888
C	-2.3301163055	-4.4090111082	-0.7984309363	 0.093612
O	-3.2567823067	-3.7256864688	-1.1295300579	-0.210764
H	 0.7808119861	 1.853163601	-0.3636254653	 0.104833
H	-0.8761613118	 1.5901913858	-0.9717426663	 0.111234
H	-0.574890733	 1.6832010022	 0.7845126366	 0.133332
H	-0.0946359176	-0.4068669836	-2.1026855877	 0.105056
H	 1.5491900416	-0.2616357081	-1.437473433	 0.093398
H	 1.184540806	-2.6063460288	-1.8386510333	 0.1255
H	 1.0741252586	-2.3866276974	-0.079420519	 0.142499
H	-2.4193584495	-5.4716485377	-0.4956436597	 0.11524
22.1495	52.8559	84.8682	115.2355	146.7116	183.3034	230.3997	270.3322	282.6573	339.0022	500.3849	544.6409	602.3047	705.4384	851.5105	877.3582	964.9374	1029.948	1055.8344	1064.2763	1127.878	1171.937	1188.0786	1228.0233	1261.3147	1298.1715	1310.1004	1377.8436	1397.8256	1434.9199	1480.3965	1486.3708	1490.6125	1497.9651	1521.1761	1806.1238	1843.5767	2945.2626	2955.1577	2974.1803	2994.25	3019.5545	3060.8718	3116.2875	3121.2816
COCCOC(=O)C=O	COCCOC(=O)C=O	
InChI=1S/C5H8O4/c1-8-2-3-9-5(7)4-6/h4H,2-3H2,1H3	InChI=1S/C5H8O4/c1-8-2-3-9-5(7)4-6/h4H,2-3H2,1H3
