20
gdb 62837	2.57987	1.78835	1.49801	0.282	79.69	-0.2232	0.0284	0.2516	989.223	0.169827	-402.967257	-402.959188	-402.958243	-402.999055	33.044	
C	-0.0905807246	 1.4821714414	 0.0671991548	-0.484863
C	 0.0359299968	-0.0433723676	 0.0380725423	 0.335428
C	-1.2639703684	-0.607627543	-0.5392760793	-0.476266
N	 1.2858976206	-0.6208771149	-0.6717376361	-0.200181
C	 2.1194124657	-0.0979122257	 0.5346086548	-0.256111
C	 0.8479279379	-0.7549616874	 1.1768994383	 0.329411
O	 0.1968223763	-1.4949687477	 2.2345862013	-0.357531
C	 0.0047859785	-2.5752342086	 1.2291019237	-0.145447
C	 1.0963614191	-1.91328677	 0.305042804	-0.06943
H	 0.598144013	 1.9821357598	 0.7490865478	 0.120695
H	 0.0627853196	 1.8897116996	-0.9387504544	 0.130127
H	-1.1036783749	 1.7520083486	 0.3798928933	 0.124788
H	-1.6029911804	 0.0423296953	-1.3524015893	 0.119925
H	-1.1515359923	-1.6095256547	-0.9526288831	 0.129862
H	-2.0522020114	-0.6195658667	 0.2210375552	 0.128817
H	 3.0593126758	-0.6314446897	 0.6776915378	 0.115422
H	 2.2690491208	 0.9797126743	 0.510621278	 0.115522
H	 0.3543106829	-3.5338380823	 1.6224279119	 0.123002
H	-1.0383308086	-2.6461877605	 0.9261110308	 0.12469
H	 2.0456953935	-2.4426725102	 0.3584629081	 0.092139
156.6767	176.7347	228.712	268.6513	340.0588	347.2141	381.0171	445.9395	505.1327	529.6865	580.0145	617.7007	695.1432	745.3516	764.9904	836.4013	857.6875	922.0307	931.8358	971.6301	985.9271	1000.2708	1002.7503	1014.4544	1093.3115	1109.2788	1125.1307	1137.8956	1148.505	1200.1592	1227.2559	1250.4385	1267.4049	1315.1759	1362.8208	1402.9556	1414.0195	1481.0706	1485.532	1497.1862	1506.7059	1519.0089	1541.0433	3037.1764	3042.1324	3065.8223	3094.2627	3097.5223	3102.2291	3118.0357	3131.0265	3142.9869	3153.4278	3170.1143
CC1(C)N2CC11OCC21	CC1(C)N2C[C@]31OC[C@@H]23	
InChI=1S/C7H11NO/c1-6(2)7-4-8(6)5(7)3-9-7/h5H,3-4H2,1-2H3	InChI=1S/C7H11NO/c1-6(2)7-4-8(6)5(7)3-9-7/h5H,3-4H2,1-2H3/t5-,7+/m1/s1
