18
gdb 13377	6.38787	1.1354	0.99232	1.5521	70.18	-0.2124	0.0641	0.2765	1204.4301	0.155491	-381.143066	-381.134922	-381.133978	-381.176261	29.182	
C	-0.1362471989	 1.4990869474	-0.0123521793	-0.391923
C	-0.0043699405	-0.0112528153	-0.0366892569	-0.036063
O	-1.3256809363	-0.563914148	 0.1030889343	-0.272261
C	-1.3959025704	-1.8956498364	 0.1005258536	 0.47955
N	-0.4207233943	-2.7121650119	-0.0228977759	-0.364858
C	-1.0238404608	-4.0507218268	 0.0589768518	-0.152728
C	-2.5578712844	-3.8333205559	-0.0924711545	-0.180551
N	-2.6709962582	-2.419595584	 0.2872493218	-0.362356
H	 0.8513394522	 1.9586300057	-0.1139309482	 0.121927
H	-0.7659639544	 1.8504259598	-0.8348534514	 0.126072
H	-0.5791232587	 1.8371793686	 0.9287952424	 0.129177
H	 0.4330661777	-0.3723438874	-0.9731725508	 0.121198
H	 0.6219929574	-0.3838367676	 0.7800717553	 0.123376
H	-0.6202271371	-4.7125307073	-0.7129481597	 0.104949
H	-0.7878888694	-4.5044588245	 1.0311415479	 0.104982
H	-2.8854041866	-4.0014654806	-1.1283227093	 0.099434
H	-3.1514478657	-4.4749723267	 0.5640112565	 0.109611
H	-3.4343758417	-1.8787625291	-0.0938323875	 0.240463
51.2502	108.4589	162.0631	186.4648	245.3427	288.7727	352.9013	468.3197	557.6746	706.6626	743.1033	765.1725	807.1875	867.3746	904.6207	926.3156	999.6487	1050.1099	1056.0527	1104.9342	1117.6067	1141.0471	1184.833	1209.4502	1240.3628	1287.7161	1301.9747	1315.1969	1351.8924	1394.7578	1417.7166	1483.8929	1485.0705	1497.8663	1505.3504	1523.2768	1534.3484	1715.858	2997.4917	3011.5108	3045.5133	3049.7056	3072.1084	3085.7507	3086.9409	3120.6055	3124.4897	3597.8429
CCOC1=NCCN1	CCO[C]1[N]CCN1	
InChI=1S/C5H10N2O/c1-2-8-5-6-3-4-7-5/h2-4H2,1H3,(H,6,7)	InChI=1S/C5H10N2O/c1-2-8-5-6-3-4-7-5/h2-4H2,1H3,(H,6,7)
