17
gdb 102946	2.66325	0.91601	0.73792	4.7231	71.5	-0.2657	0.0018	0.2674	1504.5896	0.13447	-455.166917	-455.156924	-455.15598	-455.203515	33.666	
C	-0.4845972248	 1.4802798018	-0.0548336926	-0.252274
O	-0.096424901	 0.1261811473	-0.232364254	-0.241516
C	-1.1429592738	-0.8040889134	-0.0720733546	-0.028725
C	-0.6052838415	-2.1709358691	-0.5274794181	-0.17833
N	-0.1742432099	-2.1218282236	-1.9054904257	-0.277753
C	-0.8372391609	-2.7683269512	-2.9061410037	 0.153361
O	-1.8047465792	-3.4811972167	-2.7529428912	-0.314671
C	-1.6052050231	-0.866751153	 1.3318614263	 0.275374
N	-1.9567936211	-0.9090771885	 2.4316273553	-0.315863
H	 0.4022672299	 2.0873072672	-0.2442278832	 0.141575
H	-1.2762359032	 1.7634978404	-0.7631704019	 0.119344
H	-0.8378894916	 1.6662681545	 0.9674665163	 0.141232
H	-2.0057329422	-0.5296301855	-0.6994620351	 0.127381
H	 0.2255826894	-2.4537220719	 0.1268578043	 0.137815
H	-1.3891726562	-2.9263603141	-0.4543999076	 0.169229
H	 0.571925828	-1.4870723982	-2.1410119741	 0.260275
H	-0.3758926488	-2.574133546	-3.8937308703	 0.083545
29.005	69.8071	102.0959	134.468	168.2677	204.9763	254.0061	277.3171	301.1517	376.7483	485.8693	542.7029	564.9377	595.2708	745.7014	867.886	959.2445	998.9306	1032.7972	1048.0967	1100.7098	1146.9429	1184.5265	1207.6274	1222.2184	1281.474	1310.9239	1362.9783	1398.1158	1429.184	1470.3008	1480.8225	1488.6046	1507.7318	1527.5019	1808.1267	2355.2663	2949.823	2989.5772	2999.2234	3060.4171	3062.4337	3136.2569	3141.7161	3643.6076
COC(CNC=O)C#N	CO[C@@H](CNC=O)C#N	
InChI=1S/C5H8N2O2/c1-9-5(2-6)3-7-4-8/h4-5H,3H2,1H3,(H,7,8)	InChI=1S/C5H8N2O2/c1-9-5(2-6)3-7-4-8/h4-5H,3H2,1H3,(H,7,8)/t5-/m1/s1
