17
gdb 107772	2.68869	1.72153	1.29176	3.1803	71.48	-0.2268	-0.0024	0.2244	1010.5471	0.134699	-421.780678	-421.772803	-421.771858	-421.813216	30.088	
C	-0.0370819737	 1.5331416889	-0.0101969186	-0.390912
C	 0.0339005067	 0.0014984542	 0.0767599119	-0.326265
C	-1.3245977314	-0.6176131107	-0.0063467019	 0.298988
O	-2.2689514004	-0.2361335251	 1.0491806074	-0.326248
C	-2.9157565827	-1.4872126371	 0.8183221025	 0.10584
C	-3.0569055565	-1.6998894992	-0.691553893	-0.260492
C	-1.7831760215	-2.1261418744	 0.1254159527	-0.216622
C	-2.2243340317	-0.6039781031	-1.2768842775	 0.455589
O	-2.1144470311	-0.104083766	-2.3607197965	-0.34501
H	 0.9620024127	 1.9686370878	 0.0765315763	 0.114233
H	-0.4680582709	 1.8439476998	-0.9654306034	 0.147051
H	-0.6582622658	 1.9368960625	 0.7937912448	 0.138715
H	 0.6385238036	-0.3976345201	-0.7463535423	 0.117622
H	 0.5127690172	-0.3090730778	 1.0123912737	 0.112909
H	-3.6379215459	-1.8533261131	 1.5363265106	 0.126637
H	-3.8005918663	-2.3366247055	-1.1489923728	 0.119055
H	-1.2776391222	-3.0799454512	 0.144466336	 0.128912
78.2738	141.0734	186.1483	199.8132	276.5792	376.4965	447.1535	513.9155	646.036	684.693	730.5656	754.6089	779.1069	805.9836	835.6031	858.9335	897.7132	909.0466	931.7723	982.0306	996.7471	1032.7057	1050.5116	1097.5202	1106.2154	1149.5888	1174.9074	1256.4359	1301.8264	1321.0517	1343.1681	1401.0762	1411.5033	1475.0152	1499.0442	1512.2279	1878.4012	3035.2823	3049.9227	3073.487	3122.6007	3131.1307	3205.9732	3227.4117	3236.9049
CCC12OC3C(C13)C2=O	CC[C@]12O[C@H]3[C@H]([C@@H]13)C2=O	
InChI=1S/C7H8O2/c1-2-7-4-3(6(7)8)5(4)9-7/h3-5H,2H2,1H3	InChI=1S/C7H8O2/c1-2-7-4-3(6(7)8)5(4)9-7/h3-5H,2H2,1H3/t3-,4+,5-,7-/m0/s1
