19
gdb 128837	5.63814	0.66574	0.64195	2.1632	78.43	-0.2364	0.0233	0.2597	1755.4911	0.160459	-419.216416	-419.207276	-419.206332	-419.252016	32.087	
C	 0.0217588259	 1.3993361426	 0.1030947707	-0.228057
O	-0.0253262554	-0.0039117663	 0.0206350552	-0.22756
C	 0.6465489067	-0.5109978698	-1.1103446342	-0.038004
C	 0.5406232341	-2.0374518952	-1.0907454023	-0.341151
C	 1.2430352511	-2.6771066227	-2.2507062532	 0.200976
C	 0.6919252066	-3.1508176111	-3.4261656339	-0.129246
N	 1.718649097	-3.6131976079	-4.1807443915	-0.175576
N	 2.9167370715	-3.4794056499	-3.5831802312	-0.224562
C	 2.6307300862	-2.9111439723	-2.4156953413	-0.078792
H	 1.0566383538	 1.7712367566	 0.173039056	 0.103207
H	-0.4532946737	 1.8778314774	-0.7685454535	 0.102004
H	-0.5201277682	 1.6940866365	 1.0052375689	 0.125797
H	 0.2033826246	-0.1122963913	-2.0390835333	 0.084891
H	 1.7062998419	-0.203288866	-1.1039153489	 0.088318
H	 0.958873682	-2.39533179	-0.1433775046	 0.116084
H	-0.5200395193	-2.3093299087	-1.086923712	 0.109275
H	-0.3308070543	-3.1967988273	-3.7671059273	 0.131321
H	 1.6730612681	-4.0378387683	-5.0911301856	 0.273891
H	 3.4283238214	-2.6911093661	-1.7199548478	 0.107184
33.1808	80.0308	92.0377	107.661	224.689	256.7509	319.6546	338.677	454.1505	512.8718	659.9663	697.817	739.4313	793.235	800.3013	888.4124	952.2953	993.6392	1014.5054	1046.9897	1059.6666	1071.9826	1162.0849	1169.006	1180.1774	1223.5321	1225.5991	1247.5976	1295.6162	1308.8751	1342.2909	1391.103	1415.2828	1420.2992	1480.0802	1484.2811	1490.1556	1494.7763	1505.3463	1530.6521	1613.5637	2948.8369	2968.8053	2978.5474	3008.9906	3042.5462	3085.7566	3111.547	3236.5821	3255.9378	3677.6931
COCCC1=CNN=C1	COCCc1c[nH]nc1	
InChI=1S/C6H10N2O/c1-9-3-2-6-4-7-8-5-6/h4-5H,2-3H2,1H3,(H,7,8)	InChI=1S/C6H10N2O/c1-9-3-2-6-4-7-8-5-6/h4-5H,2-3H2,1H3,(H,7,8)
