18
gdb 23172	2.3951	1.61765	1.05192	1.2392	83.73	-0.2133	-0.0253	0.188	1141.1605	0.148032	-401.914922	-401.906816	-401.905872	-401.947577	31.568	
O	-0.068360705	 1.3049114528	 0.0058361835	-0.396423
N	 0.0388489822	-0.0994625508	 0.0013203243	-0.266018
C	-1.111876414	-0.6600197437	 0.0081445275	 0.324356
C	-2.450765111	-0.0712023374	 0.0194440523	-0.143874
C	-3.378434779	-1.0384650894	 0.0237364552	-0.080018
C	-2.7777245077	-2.4213840132	 0.0158379918	-0.361169
C	-1.2683803191	-2.1505398286	 0.0052772534	 0.274382
C	-0.2896303592	-3.0183432209	-0.754983448	-0.298388
C	-0.2782983109	-3.0225252524	 0.7457666927	-0.298413
H	 0.8550103516	 1.5764853488	-0.0000943437	 0.304396
H	-2.6240439661	 0.9950037474	 0.0234692622	 0.122934
H	-4.4501799225	-0.8741913099	 0.0320029817	 0.106318
H	-3.0942308678	-2.9979502535	 0.8953703507	 0.116857
H	-3.1073198362	-2.9936832708	-0.861663092	 0.116849
H	-0.6857248094	-3.8872586497	-1.270963933	 0.108935
H	 0.5147954366	-2.501764821	-1.2668138601	 0.130167
H	 0.5337925607	-2.5087851408	 1.2482650069	 0.130174
H	-0.6665806033	-3.8943271268	 1.2628154745	 0.108934
72.9508	177.2763	191.3412	293.1902	299.8493	301.4718	382.3863	439.1039	498.7828	533.359	656.5712	734.247	788.5965	802.1869	813.2271	859.3481	890.7744	957.7995	957.9986	984.5197	988.1266	994.2238	1021.1062	1063.9276	1088.6321	1110.3677	1176.0904	1183.6095	1200.0376	1276.5318	1288.0274	1351.5313	1378.2289	1416.3022	1455.6641	1478.0814	1489.9518	1645.5466	1720.3703	3012.2475	3036.3509	3125.8963	3128.4028	3197.1845	3213.3176	3227.7554	3250.7562	3825.0884
ON=C1C=CCC11CC1	ON=C1C=CCC21CC2	
InChI=1S/C7H9NO/c9-8-6-2-1-3-7(6)4-5-7/h1-2,9H,3-5H2	InChI=1S/C7H9NO/c9-8-6-2-1-3-7(6)4-5-7/h1-2,9H,3-5H2
