13
gdb 132220	1.91755	1.82021	0.93381	5.3571	63.93	-0.222	-0.0049	0.2171	1115.5275	0.089261	-497.907074	-497.899646	-497.898701	-497.938954	28.391	
O	-0.1622475394	 1.331456276	 0.0109424266	-0.422086
C	 0.0381833125	-0.0041352699	 0.0026650656	 0.522227
C	 1.220375869	-0.6625703044	-0.0073236832	-0.436586
C	 1.2820130854	-2.127026819	-0.0152297937	 0.429043
O	 2.3357637118	-2.7516780497	-0.0254512932	-0.404233
C	-0.0336559076	-2.7876372267	-0.0123102775	-0.454606
C	-1.1559399588	-2.0525134319	-0.0022219474	 0.428808
F	-2.3831775872	-2.5541391226	 0.0014675414	-0.059056
N	-1.1540063225	-0.6836598868	 0.0054339075	-0.437013
H	 0.6937676159	 1.7737705228	 0.0087360371	 0.319246
H	 2.1556351127	-0.1155871887	-0.0095857662	 0.10333
H	-0.0855263607	-3.8673123206	-0.0182190454	 0.128935
H	-2.0238189513	-0.1745692684	 0.0129280185	 0.281992
165.7553	179.9123	226.9701	327.4694	353.582	364.2034	414.8541	496.767	508.4035	577.1758	615.548	622.6141	677.819	711.9136	827.3072	857.62	933.1867	1025.9653	1041.8249	1181.7941	1197.0383	1239.4685	1263.0114	1321.8458	1454.621	1560.1605	1652.6907	1723.3954	1735.4762	3202.8699	3238.0307	3652.192	3829.4579
OC1=CC(=O)C=C(F)N1	Oc1cc(=O)cc(F)[nH]1	
InChI=1S/C5H4FNO2/c6-4-1-3(8)2-5(9)7-4/h1-2H,(H2,7,8,9)	InChI=1S/C5H4FNO2/c6-4-1-3(8)2-5(9)7-4/h1-2H,(H2,7,8,9)
