17
gdb 24194	4.10399	1.61652	1.38988	0.3904	78.55	-0.1805	0.047	0.2275	938.093	0.140327	-380.821927	-380.815536	-380.814592	-380.852993	26.523	
C	-0.0330768014	 1.5070335595	-0.0626648474	-0.164442
C	 1.5238762841	 1.341686937	 0.0198236705	-0.194386
C	 1.1294694196	 0.1511472121	 0.9607264901	-0.164441
N	-0.0869840268	-0.0379197522	 0.0218862759	-0.248243
C	 0.6735451633	-0.3004807668	-1.18991361	 0.392202
C	 1.7406871812	 0.5495134381	-1.2760179099	 0.31387
C	 2.430185533	 0.2378182526	-2.4723734088	-0.382837
C	 1.7295725096	-0.8072100743	-3.0611055665	-0.080283
N	 0.6432596795	-1.132919711	-2.2585418418	-0.437312
H	-0.4985104218	 1.9437978522	 0.8267921693	 0.102565
H	-0.4633833246	 1.9192647201	-0.9770779752	 0.109973
H	 2.1982274955	 2.1440308509	 0.3168019454	 0.069321
H	 1.793863439	-0.713378039	 1.0099830754	 0.109972
H	 0.7864135056	 0.4451814119	 1.9579129025	 0.102566
H	 3.3200005312	 0.6917812098	-2.8817748641	 0.092751
H	 1.9097935705	-1.3444231269	-3.9776434447	 0.114649
H	-0.0312888475	-1.8540303038	-2.4476172205	 0.264074
50.8558	301.4428	412.966	473.5725	507.813	542.7848	617.2665	639.6051	673.0013	711.4975	743.7806	804.217	814.8108	819.7418	825.5185	897.7619	933.3405	999.5539	1009.4655	1023.7076	1064.3258	1091.2128	1094.451	1132.7992	1181.6552	1189.5335	1222.631	1236.6608	1274.8603	1294.1526	1324.0012	1441.8481	1456.2563	1484.8208	1521.6563	1543.3492	1571.5044	3041.2138	3053.6131	3125.3041	3125.8717	3130.9092	3241.1818	3273.2526	3676.6094
C1C2CN1C1=C2C=CN1	C1[C@H]2CN1c1c2cc[nH]1	
InChI=1S/C7H8N2/c1-2-8-7-6(1)5-3-9(7)4-5/h1-2,5,8H,3-4H2	InChI=1S/C7H8N2/c1-2-8-7-6(1)5-3-9(7)4-5/h1-2,5,8H,3-4H2
