21
gdb 39578	3.21851	1.48624	1.07202	0.1283	88.22	-0.2344	0.0252	0.2596	1144.329	0.186216	-349.983653	-349.97639	-349.975446	-350.015005	30.353	
C	-0.0202132262	 1.5834948641	-0.0465080932	-0.311996
C	 1.4652199161	 1.8995614688	-0.0342945174	-0.071652
C	 2.1796442286	 0.8959099802	 0.479642434	-0.112197
C	 1.2740576057	-0.2278155391	 0.9308134491	 0.017715
C	 1.6812203587	-1.6926414283	 0.7768030722	-0.290411
C	 0.4667965435	-2.5715526643	 0.9929063261	-0.047228
C	-0.7935746279	-2.1284261797	 0.9936858236	-0.047719
C	-1.1935270452	-0.6940286838	 0.715826257	-0.295551
C	-0.0065621831	 0.0508460682	 0.1150634456	 0.063529
H	-0.5268506729	 2.0760750611	 0.7984548128	 0.100305
H	-0.5311818988	 1.9180039893	-0.9560097219	 0.098383
H	 1.8666315579	 2.8500568379	-0.3685774412	 0.089392
H	 3.2536715875	 0.8997968772	 0.6326944819	 0.087501
H	 1.044233349	-0.0755413235	 2.0003117631	 0.077797
H	 2.1089807837	-1.8755262862	-0.2205395147	 0.105408
H	 2.4668856486	-1.9647736202	 1.4935182989	 0.097562
H	 0.6553867262	-3.6282307935	 1.1695002473	 0.0809
H	-1.6008860647	-2.8317351823	 1.1858813524	 0.080831
H	-2.0585347161	-0.6769191767	 0.0399476069	 0.098598
H	-1.531586359	-0.2089559304	 1.6443393504	 0.10232
H	 0.1753100185	-0.3687174887	-0.8852304728	 0.076514
153.5328	168.427	277.9862	341.8043	397.0173	423.0412	467.1564	522.1917	548.643	678.4515	723.5049	755.7865	800.2376	805.0191	900.069	924.4922	943.0988	949.8569	964.8854	980.6034	1003.3095	1045.9664	1061.7088	1084.1047	1103.5109	1111.1706	1145.0689	1158.1428	1171.2257	1215.0112	1236.3816	1280.9954	1292.8441	1322.4604	1328.5575	1344.0768	1368.9131	1385.3941	1398.6849	1407.1982	1478.3892	1480.9159	1488.3652	1664.885	1707.955	2942.2224	2986.1391	2990.1392	2996.5433	3004.0621	3034.5813	3036.2908	3059.8286	3137.4906	3161.4523	3176.886	3202.5153
C1C=CC2CC=CCC12	C1C=C[C@@H]2CC=CC[C@@H]12	
InChI=1S/C9H12/c1-2-5-9-7-3-6-8(9)4-1/h1-3,6,8-9H,4-5,7H2	InChI=1S/C9H12/c1-2-5-9-7-3-6-8(9)4-1/h1-3,6,8-9H,4-5,7H2/t8-,9-/m0/s1
