13
gdb 28628	5.3365	1.05645	0.88187	3.0126	72.17	-0.2563	-0.0747	0.1816	1196.4048	0.09077	-452.813806	-452.80677	-452.805826	-452.845573	26.053	
O	 0.0895787547	 1.3259534476	 0.0907131979	-0.39869
C	 0.0661728101	-0.0072909638	-0.0197636881	 0.424037
C	-0.4395492473	-0.5855980035	-1.2018130727	-0.087269
N	-0.4787333963	-1.8962340922	-1.3474070849	-0.276367
C	-0.0194087738	-2.6458124656	-0.3281981935	 0.189295
C	-0.0660480443	-4.1167281537	-0.4977217633	 0.099487
O	 0.3125579681	-4.9070227345	 0.3352782138	-0.262075
C	 0.4778059923	-2.0585280958	 0.8347784138	-0.038596
N	 0.522336362	-0.7348290282	 0.9931648549	-0.340045
H	 0.4656818764	 1.5288523664	 0.9601193554	 0.309866
H	-0.8037355545	 0.0433062713	-2.0084338355	 0.136225
H	-0.4871664	-4.4327346615	-1.4747752325	 0.092192
H	 0.8438638727	-2.6795357564	 1.6460158048	 0.15194
98.4721	180.537	195.1801	338.5696	392.0613	442.2633	469.7005	520.9933	593.8849	614.5703	668.7093	804.476	807.253	899.6141	931.4211	989.0573	1034.0369	1049.0753	1171.1726	1260.7606	1289.6942	1303.6455	1357.6076	1396.6791	1448.9924	1518.9372	1590.1397	1623.9937	1801.6282	2926.6656	3179.6552	3193.3892	3750.4068
OC1=CN=C(C=O)C=N1	Oc1cnc(C=O)cn1	
InChI=1S/C5H4N2O2/c8-3-4-1-7-5(9)2-6-4/h1-3H,(H,7,9)	InChI=1S/C5H4N2O2/c8-3-4-1-7-5(9)2-6-4/h1-3H,(H,7,9)
