16
gdb 52084	2.84327	1.10422	0.90271	5.4088	67.59	-0.2669	-0.0436	0.2233	1272.5616	0.122112	-475.018971	-475.009917	-475.008972	-475.054122	31.222	
O	 0.3149292804	 0.01707927	 0.1482913749	-0.269628
C	 0.4915115164	 1.1072547597	-0.3004924004	 0.174043
O	 0.7146713298	 2.1824825949	 0.4943336987	-0.190892
C	 0.9139996198	 3.4551660911	-0.1300461882	-0.190345
C	 2.3608161336	 3.8718149688	-0.0300247075	 0.220752
C	 2.684959478	 5.2761238594	 0.3942059819	-0.276128
N	 2.9669054332	 4.1647335341	 1.2861284776	-0.329115
C	 3.3053441752	 3.1983757023	-0.9728250318	 0.14271
O	 2.9507909664	 2.5094785561	-1.8972807551	-0.266767
H	 0.4934604395	 1.3611461757	-1.3748916855	 0.103843
H	 0.6120023212	 3.4155643066	-1.182511023	 0.137286
H	 0.2686113629	 4.1648252	 0.3957290738	 0.118213
H	 3.5589491527	 5.7740780252	-0.0166332604	 0.137763
H	 1.8384512802	 5.929748619	 0.5901593174	 0.131941
H	 2.2614212495	 4.0731489847	 2.0133594971	 0.255545
H	 4.3760043111	 3.3901568722	-0.7491850594	 0.100779
39.8491	69.1375	130.2268	150.0536	204.1753	267.9109	303.7541	343.0921	391.8022	464.8617	544.4613	681.1929	792.3892	826.7016	898.7086	932.0405	973.2902	1014.2797	1033.8147	1050.6686	1058.9131	1093.0442	1138.3703	1148.0905	1245.5265	1293.8759	1332.4695	1377.292	1396.8366	1424.7078	1433.4434	1483.5279	1509.1338	1817.0432	1870.1956	2920.3007	2993.9613	3043.5988	3097.1887	3107.7037	3194.6792	3508.5139
O=COCC1(CN1)C=O	O=COC[C@]1(CN1)C=O	
InChI=1S/C5H7NO3/c7-2-5(1-6-5)3-9-4-8/h2,4,6H,1,3H2	InChI=1S/C5H7NO3/c7-2-5(1-6-5)3-9-4-8/h2,4,6H,1,3H2/t5-/m0/s1
