17
gdb 17616	3.68869	1.56159	1.17988	3.7217	65.84	-0.2558	-0.0097	0.2462	1015.2008	0.140871	-400.996105	-400.987599	-400.986655	-401.029821	30.517	
C	 0.0735613583	 1.5260818409	-0.2451347473	-0.400575
C	 0.0088250382	 0.0344469102	 0.1017524308	 0.066434
O	 0.4368725741	-0.1597624354	 1.4252109677	-0.437868
C	-1.38595776	-0.5867936541	-0.0599768287	 0.343495
O	-1.9062800641	-1.1673044728	 0.874489648	-0.356224
N	-1.9327242016	-0.5846476494	-1.3326912582	-0.081929
C	-2.543543774	 0.5458366008	-2.0196195908	-0.230221
C	-3.3587581729	-0.6251280952	-1.5642525559	-0.221192
H	 1.0745588468	 1.892961128	-0.0045445628	 0.136872
H	-0.1118475613	 1.7060594421	-1.3071575623	 0.117586
H	-0.6451515833	 2.0963451724	 0.3515784451	 0.121257
H	 0.6656239556	-0.5128041652	-0.5956368002	 0.097739
H	-0.2531646039	-0.7035717323	 1.838309427	 0.292659
H	-2.6538233016	 1.4754867973	-1.4691045932	 0.140567
H	-2.2814854401	 0.6588086034	-3.0678449809	 0.134232
H	-3.6955928256	-1.3596093328	-2.2894413248	 0.132956
H	-3.9992312247	-0.4965505279	-0.6965036334	 0.144212
33.2613	102.3448	184.2826	196.9534	259.0556	283.9014	358.2963	393.2181	452.3349	492.3332	589.5629	698.1196	779.5544	822.7066	900.8967	934.0265	968.7076	1045.5231	1047.9418	1104.2876	1124.43	1138.7124	1139.7119	1171.478	1178.676	1199.4892	1282.3967	1357.8964	1385.3624	1405.8878	1445.3939	1494.0791	1495.0714	1499.1613	1523.3423	1758.3248	2961.8101	3043.4598	3115.3362	3119.4168	3122.1363	3128.13	3201.5744	3216.1062	3680.6405
CC(O)C(=O)N1CC1	C[C@@H](O)C(=O)N1CC1	
InChI=1S/C5H9NO2/c1-4(7)5(8)6-2-3-6/h4,7H,2-3H2,1H3	InChI=1S/C5H9NO2/c1-4(7)5(8)6-2-3-6/h4,7H,2-3H2,1H3/t4-/m1/s1
