19
gdb 112104	2.55804	1.43391	1.0724	1.8556	78.38	-0.2288	-0.0219	0.2069	1177.4725	0.159149	-423.044268	-423.035406	-423.034462	-423.078393	32.407	
C	-0.6052205475	 1.0220284645	-0.2468450388	-0.24302
O	 0.4817220916	 0.1630693061	 0.0554943757	-0.260278
C	 1.0619175054	-0.4609709981	-1.0937798044	-0.002476
C	 2.4543823178	-0.8985384453	-0.7395796919	-0.074285
C	 2.8261799301	-2.1757182105	-0.6605379422	-0.052474
C	 1.8948104098	-3.3381653574	-0.8738798997	-0.268137
C	 0.4162839486	-2.9198421705	-0.7476815917	-0.304819
C	 0.1607816392	-1.6354719712	-1.5071531387	 0.384265
O	-0.709206127	-1.5022848827	-2.3373946433	-0.324163
H	-0.2878837575	 1.8522496331	-0.8953193963	 0.108799
H	-1.428151195	 0.4925558331	-0.7430177798	 0.130693
H	-0.9576080635	 1.426754363	 0.7048204412	 0.126906
H	 1.0815788066	 0.2540744822	-1.9305679078	 0.084991
H	 3.1673991365	-0.100715236	-0.5509417118	 0.099759
H	 3.8608570163	-2.4157178437	-0.4271773845	 0.097484
H	 2.0743578128	-3.7801981605	-1.8641520128	 0.126852
H	 2.1195009784	-4.1323882803	-0.1527202436	 0.115547
H	-0.2666899529	-3.6948075107	-1.1009461931	 0.116517
H	 0.2008648005	-2.7128045952	 0.3083675636	 0.137839
50.2801	109.8252	139.0784	165.6195	236.7539	253.1741	358.1558	420.9598	465.2129	483.4621	534.327	655.5161	717.3351	748.8221	799.8914	885.3546	957.5304	983.7807	990.2141	1006.5368	1037.0753	1063.9027	1114.3267	1135.8429	1179.316	1186.1161	1212.5088	1246.8317	1257.4644	1318.7318	1333.5181	1354.035	1374.4938	1416.9927	1463.4023	1475.291	1483.712	1484.5279	1513.506	1722.9502	1814.4015	2987.6717	2992.9069	3013.2058	3036.382	3056.7513	3057.0864	3118.5078	3120.2136	3150.2973	3174.547
COC1C=CCCC1=O	CO[C@H]1C=CCCC1=O	
InChI=1S/C7H10O2/c1-9-7-5-3-2-4-6(7)8/h3,5,7H,2,4H2,1H3	InChI=1S/C7H10O2/c1-9-7-5-3-2-4-6(7)8/h3,5,7H,2,4H2,1H3/t7-/m0/s1
