17
gdb 77257	2.30873	1.14057	0.92032	4.8283	74.07	-0.2567	-0.0331	0.2237	1302.5273	0.133234	-417.993538	-417.983993	-417.983049	-418.029228	33.001	
C	-0.1626685914	 1.4460613281	 0.6520060805	-0.425766
C	 0.1182741322	 0.0123414742	 0.2657192966	 0.008539
C	 0.3194267285	-0.4101912564	-1.168907776	-0.180241
C	 0.3010801356	 0.5951181335	-2.2015842168	 0.29576
N	 0.3059179537	 1.3979323765	-3.0349595453	-0.33495
N	 1.4187932766	-0.4532554967	-0.188802684	-0.111148
C	 2.5454423124	 0.4631600888	-0.3103426929	-0.24923
C	 3.7666697716	-0.2810660435	-0.8417831703	 0.158778
O	 4.7578563723	 0.2705532669	-1.2361977646	-0.231409
H	 0.2593590776	 1.662232392	 1.6389673427	 0.13493
H	 0.2430014598	 2.1634634679	-0.0638320407	 0.149908
H	-1.2433281036	 1.6063782368	 0.7114510758	 0.140137
H	-0.3880026572	-0.7225489454	 0.8905652309	 0.113494
H	-0.0346290241	-1.3829217611	-1.4993116138	 0.140769
H	 2.3739418892	 1.3450925369	-0.9410872643	 0.151811
H	 2.8033036805	 0.824422289	 0.6937280059	 0.145049
H	 3.6679238766	-1.3887575377	-0.8132036138	 0.09357
39.1807	66.2394	126.6516	149.67	160.2927	186.8095	279.2171	357.8608	383.0803	483.0038	516.4948	591.2219	621.4739	720.4464	757.0742	819.5524	878.3786	972.5073	1029.3345	1040.4788	1049.7931	1107.3298	1126.6398	1160.7049	1175.0472	1258.7977	1323.0789	1340.4338	1362.8157	1401.0907	1408.6072	1424.9146	1450.4752	1488.3443	1499.9122	1844.344	2347.5236	2896.3892	3019.105	3046.3372	3065.5714	3108.6051	3110.232	3140.0488	3148.0529
CC1C(C#N)N1CC=O	C[C@H]1[C@@H](C#N)N1CC=O	
InChI=1S/C6H8N2O/c1-5-6(4-7)8(5)2-3-9/h3,5-6H,2H2,1H3	InChI=1S/C6H8N2O/c1-5-6(4-7)8(5)2-3-9/h3,5-6H,2H2,1H3/t5-,6+,8?/m0/s1
