17
gdb 29188	3.19343	1.3287	0.94536	6.5951	80.59	-0.206	-0.0003	0.2056	1205.6637	0.137709	-418.076794	-418.068293	-418.067348	-418.10955	32.472	
C	-0.0074121838	 1.5152648759	 0.0144017898	-0.47305
C	-0.0106414289	 0.0167309675	-0.0210496801	 0.135696
C	-0.0563379147	-0.6891670672	-1.1707685197	-0.074124
N	-0.0405947894	-2.0691761181	-1.1864272861	-0.37912
C	 0.0044734203	-2.791597409	-0.0225414942	 0.417764
N	-0.0672562873	-4.176335422	-0.1946277279	-0.587691
H	 0.5850500906	-4.5379504039	-0.8808375214	 0.250239
H	 0.0389297523	-4.6750629521	 0.6781132424	 0.261624
C	 0.0594425849	-2.1459066144	 1.1749444882	-0.325682
C	 0.03998817	-0.6962412583	 1.2744067526	 0.326512
O	 0.0819843127	-0.0864356121	 2.3425847064	-0.404518
H	 0.8953335089	 1.8853821967	 0.5118919475	 0.139754
H	-0.0621951	 1.9484151998	-0.9885435435	 0.100967
H	-0.849544264	 1.8841875557	 0.6089800368	 0.141332
H	-0.1011462498	-0.224865198	-2.1494797708	 0.120465
H	-0.2501983085	-2.5544695543	-2.0432368593	 0.258498
H	 0.1344865468	-2.7138614863	 2.0949498892	 0.091334
119.3817	136.173	181.8491	275.348	280.5063	320.7764	343.9886	412.452	444.0725	473.0607	526.0386	583.6937	637.9517	734.7523	738.8181	763.5339	788.6588	855.5442	876.7667	957.2032	1026.3804	1064.3469	1127.522	1158.8306	1214.9832	1243.6165	1282.3714	1388.6982	1407.5813	1413.2476	1464.0865	1487.2365	1551.2955	1635.5023	1665.1103	1699.6004	1718.5226	3034.6939	3092.0907	3112.8944	3191.3104	3199.433	3531.8648	3636.4048	3649.2301
CC1=CNC(=[NH2+])C=C1[O-]	Cc1c[nH]c(N)cc1=O	
InChI=1S/C6H8N2O/c1-4-3-8-6(7)2-5(4)9/h2-3H,1H3,(H3,7,8,9)	InChI=1S/C6H8N2O/c1-4-3-8-6(7)2-5(4)9/h2-3H,1H3,(H3,7,8,9)
