17
gdb 8812	3.78159	1.35057	1.00832	1.6129	69.65	-0.2323	-0.0167	0.2155	1160.0852	0.141479	-397.227079	-397.217538	-397.216594	-397.261526	32.907	
C	 0.0017059519	 1.3850416992	 0.0939986174	-0.334561
N	 0.1077447644	-0.0505451984	-0.0328346878	-0.307195
C	 0.6409264963	-0.6603156661	-1.1069759735	 0.392797
O	 1.1074831773	-0.1040286801	-2.093634557	-0.408941
C	 0.618929906	-2.1815794022	-1.0092300729	 0.288367
N	 1.2469498229	-2.763109175	-2.067011606	-0.54736
N	 0.067214169	-2.7342816563	 0.005085789	-0.310113
C	 0.072287902	-4.1836600635	 0.0642540998	-0.341103
H	 0.5399178239	 1.7462073676	 0.9774741202	 0.128638
H	 0.4429341367	 1.8313692886	-0.7985369255	 0.165571
H	-1.0444830213	 1.702449542	 0.1712916403	 0.128403
H	-0.2413904674	-0.6801317805	 0.6784448873	 0.262178
H	 1.4916751565	-2.1322127322	-2.8167824653	 0.274778
H	 1.1128120639	-3.7369981454	-2.2722897096	 0.25896
H	 1.0928312313	-4.5967301032	 0.0320091814	 0.115799
H	-0.3959613658	-4.5165955085	 0.9935635399	 0.12492
H	-0.4902754178	-4.6367674856	-0.7687835477	 0.108861
89.3382	93.0989	118.6775	137.659	170.4172	214.816	278.3959	293.8086	353.6336	407.7382	500.3537	561.3806	619.4423	666.9608	713.9644	816.8542	858.8003	994.0349	1080.7472	1106.3366	1114.5221	1153.4659	1184.5436	1200.2937	1245.2508	1367.5192	1434.1221	1442.2646	1490.2834	1497.598	1499.0829	1502.0484	1583.4719	1592.5349	1734.5716	1778.9144	2962.2862	3007.7914	3026.6914	3077.6109	3103.1182	3146.6572	3575.6258	3578.918	3726.5879
CNC(=O)C(N)=NC	CNC(=O)C(=NC)N	
InChI=1S/C4H9N3O/c1-6-3(5)4(8)7-2/h1-2H3,(H2,5,6)(H,7,8)	InChI=1S/C4H9N3O/c1-6-3(5)4(8)7-2/h1-2H3,(H2,5,6)(H,7,8)
