20
gdb 30733	2.89232	1.23465	0.92637	1.3956	84.08	-0.1665	0.0594	0.2259	1304.6499	0.171436	-399.352458	-399.342286	-399.341342	-399.387555	37.067	
C	 0.3711173672	 0.9920010843	-0.5117836173	-0.323684
N	-0.3866401003	 0.2753837893	 0.5217569014	-0.388517
C	 0.3601235152	-0.6175449397	 1.3166591741	 0.198011
C	 0.676378067	-1.9576387542	 1.175155915	 0.19447
C	 0.293852857	-2.8676339893	 0.0497978788	-0.522807
C	 1.4441298925	-2.3218604995	 2.3268304458	 0.159159
N	 1.8958903102	-3.6322081492	 2.5974544597	-0.606809
C	 1.5817546748	-1.2023722799	 3.1166813683	-0.176568
N	 0.9135913725	-0.1696565024	 2.4871616113	-0.275785
H	 0.8609973347	 0.3319308541	-1.2442427033	 0.106838
H	-0.3018926942	 1.6702887694	-1.0455697	 0.114169
H	 1.1484714674	 1.5955446266	-0.0344488873	 0.125323
H	-1.1796438916	-0.1990001376	 0.1077585467	 0.229196
H	 1.1680507284	-3.2544981675	-0.4922241695	 0.112196
H	-0.2697716989	-3.7397468895	 0.4036352291	 0.129321
H	-0.328481922	-2.3477466175	-0.6858768406	 0.104959
H	 2.2993929832	-4.070810174	 1.7772486213	 0.235087
H	 2.5889829615	-3.6487097586	 3.3357587935	 0.232913
H	 2.0893258961	-1.0563953792	 4.0561439061	 0.099074
H	 0.7284149893	 0.7396866743	 2.871313127	 0.253452
52.1958	118.5358	127.1522	178.5685	189.8125	221.6351	245.6739	286.3161	302.7954	356.1781	473.5637	503.0434	564.7031	621.5805	657.2787	677.2873	705.2955	747.8191	785.0909	812.254	938.8276	1033.4347	1063.4515	1086.6345	1090.7663	1142.016	1162.5621	1172.1369	1226.5819	1290.7784	1345.7882	1415.7325	1434.4455	1446.2995	1466.242	1482.6883	1489.9733	1502.2363	1513.4988	1518.8318	1575.192	1640.6767	1662.7302	2982.6297	3003.9791	3049.6443	3071.4966	3090.2245	3110.7191	3261.7676	3512.0499	3549.3145	3601.5484	3689.9233
CNC1=C(C)C(N)=CN1	CNc1c(C)c(N)c[nH]1	
InChI=1S/C6H11N3/c1-4-5(7)3-9-6(4)8-2/h3,8-9H,7H2,1-2H3	InChI=1S/C6H11N3/c1-4-5(7)3-9-6(4)8-2/h3,8-9H,7H2,1-2H3
