19
gdb 71694	3.46144	1.4915	1.38591	1.2683	77.88	-0.2118	0.0736	0.2855	1010.3777	0.159649	-385.846364	-385.838864	-385.83792	-385.877619	31.197	
C	-0.0391302093	 1.5036196969	 0.087439718	-0.515615
C	-0.0284968695	 0.0105145162	-0.0261139591	 0.354666
C	 1.1216076107	-0.8343531336	-0.5569094684	-0.126852
C	 0.6224149569	-1.9188610089	-1.4850400912	-0.298731
C	-0.7246407121	-2.1735533121	-0.8248946319	 0.381974
O	-1.6456145707	-3.0692566517	-1.3534179351	-0.478551
C	-0.6348833525	-1.9532801327	 0.6812901649	-0.1552
C	 0.601011148	-1.0481800804	 0.8627924547	-0.145117
C	-1.2698501707	-0.902461642	-0.2192820931	-0.18165
H	 0.953860395	 1.8808342773	 0.3545322605	 0.116814
H	-0.3298133212	 1.9759662241	-0.8591516123	 0.118887
H	-0.7416903687	 1.8442422845	 0.8570205593	 0.119012
H	 2.0907454239	-0.3681032647	-0.6911853164	 0.08158
H	 0.504962725	-1.5769076718	-2.519161377	 0.103313
H	 1.2621350609	-2.8104264841	-1.4808457914	 0.087478
H	-1.3213888815	-3.9617609902	-1.1897992332	 0.283305
H	-1.1046289863	-2.5997439169	 1.4099665321	 0.084059
H	 1.2027345842	-0.9316846271	 1.7548437027	 0.081522
H	-2.3057284221	-0.6021949526	-0.3006754135	 0.089108
196.2818	205.6552	234.3593	289.8734	333.1936	372.2144	438.9669	520.4194	558.1673	616.8057	705.9768	743.7368	776.0865	791.8748	845.2478	871.4827	882.3592	897.6671	937.8189	966.5566	973.3528	987.2952	1022.6196	1044.0935	1064.3738	1108.2091	1124.7596	1165.1658	1181.7838	1198.0707	1222.4791	1261.7784	1287.2324	1304.049	1327.8142	1408.4457	1420.0959	1448.2305	1482.9268	1493.1563	1500.1601	3016.5573	3026.6618	3073.4514	3075.1485	3091.3324	3182.3221	3193.0618	3202.8135	3212.0151	3793.6239
CC12C3CC4(O)C(C13)C24	C[C@@]12[C@@H]3C[C@@]4(O)[C@@H]([C@H]13)[C@@H]24	
InChI=1S/C8H10O/c1-7-3-2-8(9)5(4(3)7)6(7)8/h3-6,9H,2H2,1H3	InChI=1S/C8H10O/c1-7-3-2-8(9)5(4(3)7)6(7)8/h3-6,9H,2H2,1H3/t3-,4-,5+,6+,7-,8-/m1/s1
