22
gdb 103701	2.78264	1.13884	0.94698	4.3064	87.66	-0.2727	0.0378	0.3105	1343.8365	0.192219	-367.232414	-367.221883	-367.220938	-367.267577	38.822	
C	 0.2247685564	 1.508685375	 0.2553052654	-0.38247
C	-0.1670710127	 0.0783150467	-0.1420382639	-0.248527
C	 0.6167945666	-0.4598908906	-1.3346510945	 0.313909
C	 0.3953443827	 0.3112187815	-2.6252605607	-0.469338
C	 1.9824063963	-1.0455106994	-1.0990955313	-0.350503
C	 0.8285889269	-1.984787747	-1.4431383086	 0.102967
C	 0.3098403799	-2.9695028035	-0.4009632476	-0.462319
C	 0.831132227	-2.5494186075	-2.7718143174	 0.251878
N	 0.8198537061	-3.0266812847	-3.826460306	-0.362933
H	 1.2964025425	 1.5783378245	 0.4703479136	 0.11971
H	-0.0058490703	 2.2313295318	-0.5322858383	 0.124546
H	-0.3182106712	 1.8172926169	 1.1535872449	 0.117118
H	-0.0252904031	-0.5703153424	 0.7264170906	 0.098043
H	-1.2388323536	 0.0456841702	-0.3777216971	 0.104566
H	 0.7509170401	 1.3411597507	-2.5254835337	 0.122309
H	 0.9224249095	-0.1425232753	-3.4669506959	 0.14339
H	-0.669648803	 0.3462132458	-2.8805122132	 0.123974
H	 2.7522539605	-0.8913983856	-1.8470417128	 0.131009
H	 2.3533073046	-1.1100535957	-0.0807642811	 0.118957
H	 0.4423583984	-2.5875831359	 0.612150598	 0.126767
H	-0.7523158551	-3.1849907719	-0.552089319	 0.137004
H	 0.8578789017	-3.9135618237	-0.4733456216	 0.139941
69.1793	110.1541	141.3061	159.7059	185.7013	224.9268	245.1506	258.3527	311.6554	367.707	382.7655	423.1512	435.5602	580.4436	610.4698	674.2646	695.814	791.2205	848.8746	910.9832	926.424	958.9075	986.8314	1021.5858	1057.4215	1064.9171	1079.5212	1109.4234	1125.4198	1187.9145	1229.0612	1284.633	1321.4103	1359.2081	1389.0864	1410.5049	1418.474	1425.0863	1476.3941	1484.6388	1489.0982	1495.3197	1497.5566	1503.1903	1506.7162	1513.3736	2341.9072	3026.0555	3037.7696	3040.1373	3046.566	3083.845	3100.3062	3106.6029	3110.0977	3117.6759	3128.0379	3130.2737	3137.8472	3217.7637
CCC1(C)CC1(C)C#N	CC[C@@]1(C)C[C@]1(C)C#N	
InChI=1S/C8H13N/c1-4-7(2)5-8(7,3)6-9/h4-5H2,1-3H3	InChI=1S/C8H13N/c1-4-7(2)5-8(7,3)6-9/h4-5H2,1-3H3/t7-,8+/m0/s1
