17
gdb 88646	3.23282	1.17734	1.02852	4.3153	69.07	-0.2749	0.0081	0.283	1189.5399	0.13477	-458.969965	-458.961578	-458.960634	-459.003723	30.547	
C	 0.5343841196	 1.4992841398	-0.3404455154	-0.436248
C	-0.0471272584	 0.2046290183	 0.1633019246	 0.082744
O	 0.7832766542	-0.9712092097	 0.1476443116	-0.258154
C	 0.3151273258	-0.499716031	 1.4064429155	 0.030782
C	 1.3474074725	-0.1085578467	 2.4291969589	 0.084516
C	 2.393902354	-1.1933092724	 2.771962515	-0.432696
C	 3.3878314946	-0.1732080611	 2.2230105882	 0.460657
O	 4.5577546132	-0.073850295	 2.0560038604	-0.309161
O	 2.4185691568	 0.7634292777	 1.9395580428	-0.24193
H	 1.5448640019	 1.6609506363	 0.0293374448	 0.164701
H	 0.5499957633	 1.4908545034	-1.4353217711	 0.129652
H	-0.0978127409	 2.3368401146	-0.0253349646	 0.121632
H	-1.0589085047	 0.0020081595	-0.1966945762	 0.094101
H	-0.4596788288	-1.1246142682	 1.8629349101	 0.095751
H	 0.8651710601	 0.3538749462	 3.2955553778	 0.105812
H	 2.5275837056	-1.4329917374	 3.8274358834	 0.145915
H	 2.3296108714	-2.1073468843	 2.1797442843	 0.161925
62.9727	78.2776	161.5846	204.9635	237.5458	283.3081	390.3406	483.8655	520.5053	529.0794	655.8434	704.5453	777.1004	804.7387	874.0089	917.6934	955.8121	974.4117	1023.3645	1039.1481	1078.4955	1091.7862	1118.6941	1147.0779	1177.4875	1187.6895	1227.234	1284.932	1302.8458	1377.7072	1400.6629	1422.163	1450.2766	1471.7957	1497.7283	1512.6089	1950.142	3042.468	3052.1834	3073.4348	3080.6313	3095.0221	3098.7051	3156.6726	3179.6449
CC1OC1C1CC(=O)O1	C[C@H]1O[C@H]1[C@H]1CC(=O)O1	
InChI=1S/C6H8O3/c1-3-6(8-3)4-2-5(7)9-4/h3-4,6H,2H2,1H3	InChI=1S/C6H8O3/c1-3-6(8-3)4-2-5(7)9-4/h3-4,6H,2H2,1H3/t3-,4-,6-/m1/s1
