20
gdb 117501	2.31874	0.78467	0.61273	4.0562	89.16	-0.264	0.0228	0.2868	1873.3779	0.168415	-366.011786	-366.000648	-365.999704	-366.050548	37.622	
C	-0.0147516896	 1.5839975811	 0.0472284239	-0.388113
C	-0.01228179	 0.0534682519	 0.0038026732	-0.184205
C	 0.6990968084	-0.4923636898	-1.2368512723	-0.165736
C	 0.7304419399	-2.0461999182	-1.3033400806	-0.338207
C	-0.6366129388	-2.5965040651	-1.3479874491	 0.298705
N	-1.715365875	-3.0095519171	-1.3704655861	-0.334123
C	 1.5212392738	-2.5332746337	-2.4349270981	 0.041295
C	 2.1826865989	-2.9044277878	-3.3684046587	 0.135658
C	 2.9772901437	-3.3656865695	-4.4970404675	-0.500218
H	 1.0051366718	 1.9841926526	 0.0516278865	 0.116081
H	-0.5317698465	 2.0032346198	-0.8226374616	 0.12136
H	-0.5213522606	 1.951617345	 0.944363036	 0.119739
H	 0.4772793674	-0.3396483088	 0.9048455243	 0.098733
H	-1.0433163703	-0.3181604371	 0.0264335325	 0.127456
H	 0.2229954211	-0.1172044664	-2.1490168278	 0.12326
H	 1.7402635288	-0.1532941809	-1.2596321991	 0.114566
H	 1.1816325404	-2.4118512679	-0.369452663	 0.149104
H	 3.0187435764	-4.4596352593	-4.5292406133	 0.156572
H	 2.5540415417	-3.0196732934	-5.4459997846	 0.155649
H	 4.0058613285	-2.9943620456	-4.4350732548	 0.152424
14.4628	70.1176	77.3727	85.9922	108.0758	187.162	233.1821	250.141	274.7577	312.6311	361.304	393.4494	474.6709	545.3608	587.4183	746.5893	798.7452	841.4979	905.9839	935.1015	1018.3208	1052.7472	1053.4441	1061.0271	1111.4507	1124.112	1182.5298	1243.8684	1275.999	1320.8292	1334.9451	1342.9859	1394.1047	1414.3173	1415.2764	1476.2345	1477.2969	1483.856	1493.9167	1500.8563	1510.479	2359.5787	2380.9194	3005.5413	3019.7837	3031.7948	3032.8016	3047.1263	3060.7287	3092.0727	3094.5463	3095.7495	3103.6399	3108.6824
CCCC(C#N)C#CC	CCC[C@@H](C#N)C#CC	
InChI=1S/C8H11N/c1-3-5-8(7-9)6-4-2/h8H,3,5H2,1-2H3	InChI=1S/C8H11N/c1-3-5-8(7-9)6-4-2/h8H,3,5H2,1-2H3/t8-/m1/s1
