17
gdb 83083	2.47159	1.72452	1.5452	2.4613	72.35	-0.228	-0.0188	0.2092	941.1964	0.137405	-421.833989	-421.826751	-421.825807	-421.865312	29.202	
O	 0.1210527706	 1.4144474146	 0.1565808618	-0.438099
C	 0.0187834639	 0.0318650681	 0.0142302797	 0.154252
C	-1.4029150836	-0.6438818526	-0.0608521062	-0.208417
C	-2.3306651676	 0.2211775616	-0.9480331093	-0.265526
C	-1.6183293682	 0.5948373561	-2.2295481355	-0.089881
C	-0.369111653	 0.1712769184	-2.4499984257	-0.07719
C	 0.3314905392	-0.6430154529	-1.372517054	-0.238794
C	-0.7048998233	-1.6967660535	-0.9310723995	 0.44625
O	-0.8350904059	-2.8730000913	-1.1033177398	-0.320078
H	-0.1994737539	 1.8157367866	-0.6620178231	 0.284751
H	 0.6202705187	-0.4160219806	 0.8081844049	 0.107181
H	-1.8917811922	-0.9709789294	 0.8579817098	 0.090669
H	-3.2487368883	-0.3353290958	-1.1746555892	 0.130987
H	-2.6441671842	 1.1187868408	-0.3976003712	 0.12255
H	-2.1518018544	 1.191200511	-2.9638837181	 0.104255
H	 0.1604498038	 0.3891437077	-3.371357073	 0.108957
H	 1.3467953283	-0.9428704287	-1.6267650017	 0.088132
144.3935	212.4364	222.6836	298.62	405.3915	441.0229	476.0434	526.4233	574.8183	605.7766	691.4845	700.8064	790.6449	821.4255	829.9294	901.0797	928.1692	976.891	986.2517	1018.6946	1045.214	1085.8391	1102.902	1130.9323	1137.6664	1190.1848	1214.4338	1237.8614	1264.1435	1284.0857	1320.4685	1359.6784	1388.6076	1441.7317	1477.347	1682.0323	1895.2932	3013.8009	3047.3387	3091.8535	3106.6815	3130.1844	3168.1329	3192.7369	3751.8669
OC1C2CC=CC1C2=O	O[C@H]1[C@H]2CC=C[C@@H]1C2=O	
InChI=1S/C7H8O2/c8-6-4-2-1-3-5(6)7(4)9/h1-2,4-6,8H,3H2	InChI=1S/C7H8O2/c8-6-4-2-1-3-5(6)7(4)9/h1-2,4-6,8H,3H2/t4-,5+,6+/m0/s1
