17
gdb 61425	2.7368	1.20279	0.92308	6.405	66.92	-0.2499	0.0148	0.2647	1255.2373	0.134889	-492.340622	-492.331361	-492.330417	-492.374848	34.02	
C	 0.6320388016	 1.6797920692	 0.1631057975	-0.390676
C	 0.1399966808	 0.248788813	 0.2400778683	-0.025693
O	-1.2772848567	 0.3131738762	 0.5673544115	-0.251186
C	-1.846763656	-0.7174939591	 1.2063538682	 0.489046
N	-3.0365201457	-0.3338166549	 1.7670925415	-0.546529
N	-1.2829558451	-1.8682350735	 1.2687716374	-0.595455
H	-0.4248629618	-2.0162786642	-0.1963830872	 0.330921
H	-1.8098838163	-2.5422370322	 1.8134306836	 0.225929
C	 0.3655783218	-0.5169875102	-1.0881605562	 0.406753
O	 0.8840637469	 0.0064902063	-2.040884441	-0.328156
O	-0.0251692993	-1.7867829767	-1.0844950711	-0.378558
H	 1.6992975596	 1.6858756467	-0.065776042	 0.142754
H	 0.1175704388	 2.2187289562	-0.6349286721	 0.143343
H	 0.4644312897	 2.1891658213	 1.1154141755	 0.114179
H	 0.6349415975	-0.3065050034	 1.0446041972	 0.125851
H	-3.3947812095	 0.5601350341	 1.4692188795	 0.271486
H	-3.7278958862	-1.0499659287	 1.9164592193	 0.265991
67.9195	97.9875	155.4745	204.9373	237.6697	273.5395	312.4052	350.5482	403.6633	463.0193	481.9681	518.5963	582.7858	654.2658	739.4754	744.5355	767.897	838.2815	870.7167	948.7964	1026.67	1059.3003	1099.5731	1125.7616	1132.3558	1161.1797	1251.2734	1344.143	1375.429	1412.9222	1466.639	1480.4542	1486.553	1521.2404	1633.9041	1707.4497	1852.8684	3055.7802	3060.3425	3088.9873	3139.1371	3148.1843	3554.8562	3596.798	3713.1992
CC(OC(N)=[NH2+])C([O-])=O	C[C@@H](OC(=N)N)C(=O)O	
InChI=1S/C4H8N2O3/c1-2(3(7)8)9-4(5)6/h2H,1H3,(H3,5,6)(H,7,8)	InChI=1S/C4H8N2O3/c1-2(3(7)8)9-4(5)6/h2H,1H3,(H3,5,6)(H,7,8)/t2-/m1/s1
