20
gdb 73928	2.67838	1.21562	0.8562	3.3874	87.61	-0.2046	0.003	0.2076	1353.7059	0.171489	-403.20381	-403.194443	-403.193498	-403.238938	33.782	
C	-0.1237808851	 1.4975724595	 0.0729226565	-0.510433
C	 0.0066172447	 0.0079748133	 0.0140381028	 0.193941
C	-0.0602294699	-0.797050054	-1.059299571	 0.328492
C	 0.1807282503	-2.2519426917	-0.7250803601	-0.286298
C	 0.1033378735	-2.2608438955	 0.8200895619	-0.218545
C	 0.3185033128	-0.7927426119	 1.2586899616	-0.281739
N	-0.2829107318	-0.3597784719	-2.3724749511	-0.395426
C	-0.3178053088	-1.1002653588	-3.5239792258	 0.143387
O	-0.1593790894	-2.2959948112	-3.6241410213	-0.309581
H	-0.3278310409	 1.9602738936	-0.8987059684	 0.103973
H	-0.9342287184	 1.7980347991	 0.7496596278	 0.131649
H	 0.7932061006	 1.9592718418	 0.4627915413	 0.131967
H	-0.544382594	-2.9171504502	-1.1964363943	 0.130145
H	 1.1621050788	-2.5689746148	-1.0991265409	 0.117627
H	-0.8927509539	-2.5908825111	 1.1306999175	 0.105715
H	 0.8242345859	-2.9474240252	 1.2704398144	 0.098621
H	 1.3529997515	-0.6078998754	 1.5868568523	 0.098979
H	-0.3193123705	-0.5132508187	 2.106917946	 0.09583
H	-0.4255365813	 0.6315884995	-2.4952532671	 0.245668
H	-0.5164386242	-0.4456700664	-4.3964102621	 0.076029
32.8422	108.9899	128.0402	165.9358	181.5858	237.9318	263.1481	347.6558	393.1321	551.815	577.8054	594.277	602.0233	705.2678	836.644	849.3931	895.513	921.6687	945.6621	1006.5171	1019.7245	1026.8463	1073.1727	1089.9945	1131.8081	1161.9065	1226.453	1229.8006	1247.5507	1289.5325	1327.1388	1336.1134	1371.1541	1422.9199	1449.4924	1471.7226	1481.2754	1490.6245	1496.3037	1506.5824	1514.8505	1739.6179	1810.7906	2930.0302	2986.5518	3009.7371	3030.3897	3036.0382	3054.8262	3057.3706	3081.7054	3100.0048	3115.1619	3611.8218
CC1=C(CCC1)NC=O	CC1=C(CCC1)NC=O	
InChI=1S/C7H11NO/c1-6-3-2-4-7(6)8-5-9/h5H,2-4H2,1H3,(H,8,9)	InChI=1S/C7H11NO/c1-6-3-2-4-7(6)8-5-9/h5H,2-4H2,1H3,(H,8,9)
