19
gdb 105315	2.37454	1.51636	1.15176	3.0483	79.41	-0.2366	0.0193	0.2559	1136.8762	0.159432	-382.03889	-382.030213	-382.029269	-382.072054	33.103	
C	 0.0293450271	 1.5430765782	-0.1233354711	-0.39882
C	 0.0271235853	 0.0389264923	 0.1608600442	-0.223319
C	-1.3636745908	-0.5942614434	 0.0484827554	 0.155742
N	-1.9864813994	-0.5251816624	-1.3334826388	-0.366206
C	-2.2714274651	-1.9797680862	-1.2719255248	 0.012444
C	-0.9663596096	-2.7026569717	-1.2757819013	-0.292777
C	-1.4967818854	-2.1363533456	 0.0230231032	-0.121242
C	-2.2743728606	-0.0392697954	 1.0565421031	 0.267558
N	-2.9966900531	 0.4097020984	 1.8406758645	-0.349354
H	 1.0452578098	 1.9439887268	-0.0696630476	 0.118697
H	-0.3623432388	 1.7419221968	-1.1253886734	 0.133621
H	-0.5852861046	 2.0878103018	 0.6002320942	 0.136998
H	 0.6780916166	-0.4762580393	-0.5515888505	 0.109452
H	 0.4195967639	-0.1654640383	 1.164268375	 0.111926
H	-2.8369947118	 0.0283666254	-1.3152783969	 0.239328
H	-3.2165524984	-2.3964326646	-1.5953234837	 0.107592
H	-1.0246206294	-3.7852111832	-1.3278506862	 0.122429
H	-0.1143961534	-2.2626756222	-1.7847414014	 0.123085
H	-1.6803722324	-2.7427391076	 0.8991767761	 0.112847
100.7868	140.4438	168.7909	179.0618	208.2368	279.062	374.382	417.7579	492.8369	507.2355	578.2226	639.8493	759.7662	770.3389	784.3335	826.6494	878.3707	940.5648	952.4744	963.2851	1003.0124	1012.5894	1046.9876	1054.0586	1071.6371	1087.8077	1131.1291	1149.0353	1190.4426	1206.2999	1282.2699	1296.3816	1327.6077	1363.8698	1400.8762	1409.7006	1471.9395	1483.191	1498.6038	1509.8388	2342.5604	3040.1218	3042.3088	3086.8443	3115.4369	3118.7237	3124.6089	3195.5155	3206.4628	3217.5271	3532.5924
CCC1(NC2CC12)C#N	CC[C@]1(N[C@H]2C[C@@H]12)C#N	
InChI=1S/C7H10N2/c1-2-7(4-8)5-3-6(5)9-7/h5-6,9H,2-3H2,1H3	InChI=1S/C7H10N2/c1-2-7(4-8)5-3-6(5)9-7/h5-6,9H,2-3H2,1H3/t5-,6+,7+/m1/s1
