15
gdb 11490	5.54799	1.14171	1.00403	3.5785	69.83	-0.2538	-0.0256	0.2283	1140.7403	0.117495	-362.636548	-362.628283	-362.627338	-362.670073	29.545	
O	 0.3301437044	 0.6235059358	 1.3794820073	-0.352805
C	 0.1536091062	 1.3870487568	 0.4503560795	 0.286122
N	 1.1244649136	 1.7407474217	-0.4464750788	-0.328758
C	 2.4280306154	 1.1480328847	-0.4278367286	 0.054079
C	 3.5963349405	 2.0107078647	-0.8220970173	-0.29575
C	 3.4165228483	 1.5930099717	 0.6157154292	-0.237148
C	-1.1315686459	 2.0301699022	 0.1909422293	 0.211038
C	-2.2048338181	 2.5387708791	 0.0030908105	-0.403268
H	 0.8466652213	 2.2849657613	-1.2485357755	 0.255936
H	 2.4556457963	 0.0992656765	-0.7129486543	 0.109395
H	 4.3859701784	 1.554959104	-1.4081028688	 0.121783
H	 3.3909342229	 3.0461022377	-1.0722942314	 0.116901
H	 3.0813245259	 2.3433967174	 1.3209808867	 0.129188
H	 4.0791038479	 0.8425968523	 1.0300803489	 0.124204
H	-3.159091277	 2.9808002239	-0.1501087567	 0.209083
46.3899	80.5999	122.2917	205.7654	269.8754	365.6308	398.2738	471.2106	541.057	599.267	658.0699	676.4177	764.5132	767.9974	828.5114	851.0275	898.7514	1003.7395	1022.4192	1063.8143	1079.6629	1123.1671	1184.1617	1193.2573	1224.6577	1269.6633	1398.1039	1462.6329	1498.7654	1510.7898	1765.767	2224.4973	3131.2955	3137.252	3151.8263	3220.9906	3242.6379	3496.3517	3623.0213
O=C(NC1CC1)C#C	O=C(NC1CC1)C#C	
InChI=1S/C6H7NO/c1-2-6(8)7-5-3-4-5/h1,5H,3-4H2,(H,7,8)	InChI=1S/C6H7NO/c1-2-6(8)7-5-3-4-5/h1,5H,3-4H2,(H,7,8)
