20
gdb 105501	1.96491	1.68479	1.10225	4.1714	75.27	-0.2339	0.0382	0.2721	1160.6084	0.17121	-440.307683	-440.298311	-440.297366	-440.342035	35.428	
N	-0.0014878162	 1.4189143871	 0.454886435	-0.534812
C	 0.1683375562	 0.1332917237	 0.0431419697	 0.326522
O	 1.2610766387	-0.3241746796	-0.246568406	-0.376247
C	-1.1107737002	-0.7069948462	-0.0710195632	 0.240145
C	-2.2103893396	-0.3458591412	 0.9236479809	-0.174478
O	-2.7365537513	 0.9514128753	 0.6201363615	-0.421378
C	-1.6545343549	-0.829323649	-1.5395575863	-0.247023
C	-1.7547524883	-2.3663096935	-1.3553960381	-0.216904
C	-0.8589818178	-2.2439737677	-0.0948085176	-0.263949
H	 0.8019665932	 2.0254034924	 0.4275951642	 0.250903
H	-0.9305695152	 1.7989394116	 0.5618465665	 0.265903
H	-3.0124086688	-1.0944636723	 0.8571216782	 0.099842
H	-1.8083915778	-0.3737772087	 1.9473487617	 0.104079
H	-3.4109681647	 1.1642587017	 1.2720163583	 0.294982
H	-2.5696880877	-0.2739970397	-1.7536196926	 0.108445
H	-0.8891773566	-0.5508287284	-2.2669572618	 0.117983
H	-2.7717991626	-2.6950649292	-1.1246748199	 0.097487
H	-1.3748794252	-2.9859883245	-2.170358333	 0.102581
H	 0.1939464442	-2.4344279328	-0.3044327131	 0.137817
H	-1.1572799153	-2.801954859	 0.7978379456	 0.088103
41.043	117.3098	165.5832	212.3441	261.1346	273.3403	307.3227	338.1258	395.0041	418.0233	439.2369	590.3906	640.3835	664.2625	707.5203	763.3247	812.4055	858.5765	895.8186	920.296	946.7341	984.3223	1036.9557	1056.2377	1082.7698	1131.1414	1164.8086	1196.3817	1214.0433	1244.1078	1260.4307	1267.0422	1278.2864	1289.4448	1306.0502	1383.4645	1450.5871	1475.672	1485.0641	1503.843	1513.9047	1617.6637	1778.3619	2987.4558	3025.0838	3055.4197	3062.6917	3072.8713	3104.6887	3130.5746	3140.5538	3549.9762	3702.6329	3831.8586
NC(=O)C1(CO)CCC1	NC(=O)C1(CO)CCC1	
InChI=1S/C6H11NO2/c7-5(9)6(4-8)2-1-3-6/h8H,1-4H2,(H2,7,9)	InChI=1S/C6H11NO2/c7-5(9)6(4-8)2-1-3-6/h8H,1-4H2,(H2,7,9)
