18
gdb 58550	2.11306	1.46805	1.43749	2.4505	68.03	-0.2444	0.0107	0.2551	1059.2852	0.14578	-476.237197	-476.227587	-476.226643	-476.271418	35.407	
C	-0.0145647927	 1.5666615342	 0.0086643237	-0.424038
C	-0.0128310332	 0.040017783	 0.0064707336	 0.08813
O	 0.7133315782	-0.4965456599	 1.1077851081	-0.438949
C	-1.4366538819	-0.5386178522	-0.0084121209	 0.264107
O	-2.1049833629	-0.0082104438	-1.1226371712	-0.476997
C	-1.5293015624	-2.0909994298	 0.2049481857	-0.226176
N	-2.2492016259	-1.8079669959	 1.4538206175	-0.313621
C	-2.1526616218	-0.4431706821	 1.3854589984	 0.326712
O	-2.4665890936	 0.4438543796	 2.1384194465	-0.369182
H	 1.0142931392	 1.9356162067	 0.0391927788	 0.117508
H	-0.5068426151	 1.9532126314	-0.8855385127	 0.13899
H	-0.5571954476	 1.9449013933	 0.8818953279	 0.140111
H	 0.5024859392	-0.3285331396	-0.8889550491	 0.097982
H	 0.4619121829	 0.0051507023	 1.892123238	 0.292105
H	-3.0464509749	-0.1944607715	-1.0453006167	 0.29229
H	-2.1268858291	-2.6115994725	-0.5491472575	 0.105278
H	-0.5661130814	-2.5855995402	 0.349820225	 0.132603
H	-2.453659367	-2.4012381131	 2.2448856249	 0.253145
63.8779	119.0051	142.1486	223.1184	242.9656	255.9579	288.2704	337.5481	357.6593	376.4625	444.1249	461.4804	522.9424	566.7868	699.3173	756.2301	779.1513	891.5282	926.5357	942.269	993.9229	1057.0283	1072.7817	1115.2289	1155.9646	1160.4211	1182.8177	1226.1748	1277.3115	1308.2413	1358.5355	1374.8536	1390.2732	1400.9232	1416.5186	1489.5332	1503.3594	1512.3129	1873.0994	3037.8097	3043.8745	3052.0948	3115.7055	3116.6449	3141.0304	3606.8849	3793.9963	3815.2161
CC(O)C1(O)CNC1=O	C[C@@H](O)[C@@]1(O)CNC1=O	
InChI=1S/C5H9NO3/c1-3(7)5(9)2-6-4(5)8/h3,7,9H,2H2,1H3,(H,6,8)	InChI=1S/C5H9NO3/c1-3(7)5(9)2-6-4(5)8/h3,7,9H,2H2,1H3,(H,6,8)/t3-,5+/m1/s1
