21
gdb 63132	2.27571	1.84292	1.33704	2.9592	81.72	-0.2291	-0.0006	0.2285	1053.1335	0.183079	-387.103398	-387.094975	-387.094031	-387.13567	33.756	
C	-0.1297178763	 1.5865179555	-0.0003635974	-0.469947
C	-0.0137015439	 0.0634885018	 0.0068325659	 0.319906
C	-1.3820967006	-0.5558167229	-0.3001369497	-0.463845
C	 1.1533271994	-0.6093807106	-0.8222518332	-0.161318
C	 2.4269573477	 0.0663595557	-0.2644420598	-0.239467
C	 2.0903910188	 0.0479902923	 1.2729228867	-0.239464
C	 0.7035904221	-0.6339276053	 1.2320722355	-0.161319
C	 1.0116289666	-1.7450873836	 0.2096949621	 0.430224
O	 1.0348507836	-2.9398206795	 0.2005061489	-0.335884
H	 0.8083164855	 2.1021246306	 0.2110416759	 0.118328
H	-0.4844935829	 1.9340879517	-0.9770295486	 0.119281
H	-0.8616375205	 1.9135071269	 0.7465758998	 0.119282
H	-1.7438074174	-0.2252944829	-1.2800319065	 0.116516
H	-1.3564112671	-1.6495799154	-0.3075258834	 0.139399
H	-2.1217590361	-0.2458323255	 0.4462427459	 0.116515
H	 1.0813100491	-0.7789272761	-1.8956825963	 0.075697
H	 3.3262996136	-0.5077828897	-0.5015342011	 0.112812
H	 2.5672828204	 1.0769217972	-0.654504702	 0.107388
H	 2.8113059372	-0.5358740953	 1.8508950728	 0.112813
H	 2.0498660208	 1.0486870035	 1.7088594334	 0.107387
H	 0.1905508902	-0.8275473584	 2.173075801	 0.075697
150.0868	180.3171	205.1454	222.9061	278.5913	312.0242	353.3002	376.6047	470.4104	489.5317	605.0452	655.7416	667.1863	744.1622	777.9812	852.8813	892.8761	917.9605	944.9411	960.7822	974.33	982.4469	1011.8256	1015.7944	1066.7741	1098.4954	1133.9296	1157.6285	1188.8486	1204.3408	1212.1796	1247.5825	1253.9417	1285.1881	1313.5271	1329.554	1408.2976	1427.7423	1479.5327	1487.3268	1494.0275	1506.042	1515.4874	1520.1127	1900.6608	3027.7319	3036.6565	3061.1633	3069.1242	3087.9759	3093.3908	3097.5452	3106.2843	3113.589	3130.3953	3130.8622	3133.6202
CC1(C)C2CCC1C2=O	CC1(C)[C@H]2CC[C@@H]1C2=O	
InChI=1S/C8H12O/c1-8(2)5-3-4-6(8)7(5)9/h5-6H,3-4H2,1-2H3	InChI=1S/C8H12O/c1-8(2)5-3-4-6(8)7(5)9/h5-6H,3-4H2,1-2H3/t5-,6+
