21
gdb 72721	2.56581	1.94698	1.53804	1.8966	81.92	-0.2303	0.0627	0.293	968.9166	0.183957	-386.977538	-386.970213	-386.969269	-387.0085	31.585	
C	-0.0973174215	 1.5139249425	-0.1013845557	-0.446108
C	-0.0844327573	-0.0227811155	-0.0534103004	 0.273294
C	-1.2842842999	-0.4247248833	 0.890400553	-0.210448
O	-0.3314956994	-0.4276886397	 2.034813119	-0.374297
C	 0.6981338797	-0.6971110859	 1.0301207586	 0.416505
C	 2.0191660173	-0.2225142073	 0.3375406899	-0.334416
C	 1.0984420399	-0.6037214389	-0.9499065265	-0.114117
C	 1.0212907758	-2.1263267981	-0.8388493249	-0.213499
C	 0.7601377482	-2.217713116	 0.6890234875	-0.258019
H	 0.788947231	 1.9492335573	-0.5675664858	 0.112412
H	-0.9584674999	 1.8320463357	-0.7011480863	 0.112194
H	-0.211509988	 1.9469290137	 0.8977219688	 0.132633
H	-2.0525331361	 0.3397581814	 1.0279700792	 0.111189
H	-1.7453436814	-1.4061757734	 0.7587415084	 0.109527
H	 2.2405354159	 0.8382624564	 0.4100829802	 0.119038
H	 2.9274909788	-0.8159306996	 0.4812080148	 0.094576
H	 1.3214515691	-0.1623231169	-1.9228555402	 0.070222
H	 0.2057873852	-2.545502689	-1.4349938279	 0.099398
H	 1.950424419	-2.611629522	-1.1512832572	 0.098176
H	 1.5801311091	-2.6913563004	 1.2355933011	 0.099336
H	-0.1538064355	-2.754194291	 0.9437462142	 0.102404
211.6666	218.9223	279.4079	329.3319	391.8117	435.4535	472.398	490.0255	513.3315	600.2179	634.4317	734.2752	795.8361	831.6129	836.9056	867.6611	885.0774	916.8604	944.8164	954.6579	961.4806	996.4318	1014.8346	1050.558	1070.4077	1080.5224	1134.6386	1138.5075	1155.03	1175.701	1191.3899	1219.3292	1237.5827	1252.5607	1266.1494	1278.4022	1311.5592	1333.9932	1403.8854	1483.9743	1489.2753	1500.5981	1508.1583	1517.6196	1533.4424	3029.2406	3051.3281	3059.1591	3059.3372	3068.7326	3087.5158	3092.5655	3100.5144	3117.1709	3122.1461	3130.3946	3179.1214
CC12COC11CC2CC1	C[C@]12CO[C@@]31C[C@H]2CC3	
InChI=1S/C8H12O/c1-7-5-9-8(7)3-2-6(7)4-8/h6H,2-5H2,1H3	InChI=1S/C8H12O/c1-7-5-9-8(7)3-2-6(7)4-8/h6H,2-5H2,1H3/t6-,7-,8-/m1/s1
