21
gdb 40935	3.2061	1.3721	1.22406	1.0517	83.14	-0.2389	0.0246	0.2634	1118.7533	0.184115	-387.09	-387.082091	-387.081147	-387.122196	31.829	
C	 0.1618270323	 1.386902091	-0.5627835999	-0.218681
C	 1.4291456534	 1.6109395824	 0.306832221	-0.27926
C	 1.3254140936	 0.1471682513	 0.7915070104	 0.426634
C	-0.1483910425	 0.1151879841	 0.2728856136	-0.274189
C	 2.2613199078	-0.8271957226	 0.0691495129	-0.296816
C	 2.170475754	-2.1999720577	 0.6828045201	-0.070456
C	 1.6545349648	-2.3801157334	 1.8955647352	-0.06261
C	 1.1638539461	-1.2278690184	 2.7249054054	-0.128152
O	 1.5082831675	 0.0391911577	 2.1933663448	-0.302668
H	-0.5895310859	 2.178751426	-0.5579397321	 0.100509
H	 0.4058571026	 1.1526279301	-1.6022309354	 0.102501
H	 2.3547001709	 1.9047837631	-0.1952928386	 0.092349
H	 1.2426774758	 2.2911464194	 1.1413303779	 0.110167
H	-0.8426191394	 0.3287698163	 1.0902856609	 0.104256
H	-0.4823787445	-0.7812077841	-0.2551952709	 0.095946
H	 2.0136449858	-0.8674911787	-0.9989388414	 0.101771
H	 3.2924262867	-0.4506801549	 0.1296446299	 0.111207
H	 2.5356801497	-3.0444738432	 0.1045922726	 0.087633
H	 1.5611037749	-3.3704164304	 2.3335438198	 0.088976
H	 0.0697026904	-1.3079428124	 2.8622715282	 0.096114
H	 1.6045811859	-1.2623194258	 3.7289128556	 0.11477
122.8365	130.8051	175.0673	270.7487	347.7628	389.9277	423.6824	460.274	531.042	631.3722	670.7702	712.6509	794.3605	823.9886	863.2951	888.0278	910.9763	934.907	935.6252	971.6694	990.7622	996.091	1031.0997	1048.9447	1090.5163	1114.8971	1138.1443	1188.2514	1199.8046	1214.0257	1239.614	1250.6675	1266.6608	1277.8992	1280.4983	1297.8355	1361.2762	1398.7031	1410.3686	1465.1945	1474.4514	1483.4788	1489.7136	1504.9777	1727.5639	2934.5328	3006.1036	3042.9812	3047.3056	3056.431	3059.5203	3067.4058	3103.9035	3114.8114	3127.1058	3151.3776	3174.642
C1CC2(C1)CC=CCO2	C1CC2(C1)CC=CCO2	
InChI=1S/C8H12O/c1-2-7-9-8(4-1)5-3-6-8/h1-2H,3-7H2	InChI=1S/C8H12O/c1-2-7-9-8(4-1)5-3-6-8/h1-2H,3-7H2
