27
gdb 59353	2.77512	1.01652	0.84521	0.1114	96.03	-0.2731	0.0759	0.349	1545.6532	0.25096	-353.56426	-353.553351	-353.552407	-353.59955	41.796	
C	-0.2621163097	 1.5236382172	-0.8792149877	-0.388649
C	-0.0505541894	 0.1181152927	-0.2974264339	 0.011674
C	 0.6305734553	 0.1981416236	 1.07701091	-0.390867
C	-1.3750530021	-0.6409943394	-0.2155356755	 0.072386
C	-2.2192398959	-0.8741554283	-1.4977231326	-0.267835
C	-2.6651417708	-2.2379572724	-0.9078689044	 0.045988
C	-2.8967395749	-3.4181824762	-1.8403440778	-0.41571
C	-1.4209607535	-2.1886965253	 0.0437450643	-0.031496
C	-0.2068476741	-2.9804928398	-0.4419478642	-0.400748
H	 0.686634256	 2.0650339624	-0.9585786595	 0.105986
H	-0.7095328578	 1.4831548748	-1.8772237958	 0.113955
H	-0.9285576203	 2.1151215014	-0.2395177259	 0.108392
H	 0.617211654	-0.4278261991	-0.9780028753	 0.066108
H	 0.80186594	-0.7941763307	 1.5057393715	 0.113965
H	 1.5989211955	 0.7056912097	 1.0111066775	 0.107106
H	 0.0097361249	 0.7609053303	 1.7848300045	 0.109109
H	-2.0072934312	-0.1485130574	 0.5356865513	 0.060172
H	-2.9943375104	-0.1442585891	-1.7462345649	 0.089792
H	-1.5814964377	-1.0105959269	-2.3791607337	 0.091279
H	-3.565181632	-2.0819641349	-0.3014833763	 0.067596
H	-2.0310766385	-3.6082412973	-2.4831162317	 0.11185
H	-3.1059927264	-4.3380426913	-1.2821760671	 0.110621
H	-3.7550164917	-3.2285948286	-2.4950326147	 0.111318
H	-1.6318411882	-2.4724413214	 1.0801709277	 0.057521
H	 0.0672342748	-2.738634786	-1.4740706481	 0.114697
H	 0.6703137242	-2.7852414867	 0.1833020833	 0.114508
H	-0.4052950402	-4.0567782114	-0.4004750311	 0.111281
84.1524	91.8865	144.3296	211.614	216.8552	238.2007	251.0993	259.2671	271.1411	304.029	339.0768	378.5159	446.8543	483.1976	512.6873	639.8463	744.7212	788.1782	876.3249	881.309	910.0082	927.0204	941.3127	967.1815	984.8651	1003.3478	1022.1894	1042.2436	1070.6012	1124.3389	1143.8906	1169.474	1178.6813	1190.3353	1212.6337	1245.7666	1262.1346	1279.7641	1295.6228	1317.4619	1346.1646	1369.6831	1371.7253	1398.0105	1401.9572	1413.5074	1414.9884	1422.7101	1486.2973	1488.8092	1492.1089	1493.5471	1495.0964	1503.3687	1505.8384	1508.3516	1511.287	3002.2959	3015.4942	3022.0163	3023.3085	3026.0852	3027.5189	3031.7916	3037.8102	3044.3256	3084.7895	3085.8468	3090.7267	3091.7248	3095.6909	3096.4664	3100.7566	3102.2269	3104.1374
CC(C)C1CC(C)C1C	CC(C)[C@H]1C[C@@H](C)[C@H]1C	
InChI=1S/C9H18/c1-6(2)9-5-7(3)8(9)4/h6-9H,5H2,1-4H3	InChI=1S/C9H18/c1-6(2)9-5-7(3)8(9)4/h6-9H,5H2,1-4H3/t7-,8-,9-/m1/s1
