18
gdb 53908	1.94378	1.53113	0.94867	2.9797	78.44	-0.2404	0.0241	0.2645	1248.9082	0.14597	-401.934496	-401.924918	-401.923974	-401.969505	35.346	
N	 0.2424523409	 0.8261020516	-0.3519728801	-0.523453
C	-0.40748959	 0.1048912292	 0.5987990081	 0.410641
O	-0.0568996233	 0.0441663864	 1.7596428632	-0.362968
C	-1.611902604	-0.7326292849	 0.0958792167	-0.324014
C	-2.2546840249	-0.1920769977	-1.0986613841	 0.306512
C	-2.7513241981	 0.2549187558	-2.099384412	-0.43183
C	-1.1633773513	-2.180798263	-0.1165563469	 0.03395
C	-0.8932834459	-3.0527459485	 1.078721972	-0.263513
C	-2.1011521353	-3.3134078123	 0.2129106391	-0.27527
H	 1.0014146099	 1.4179924522	-0.0560654384	 0.261219
H	-0.1777526844	 0.9787128552	-1.2537526044	 0.266925
H	-2.3217532747	-0.7144846132	 0.9304712566	 0.128989
H	-3.2161170743	 0.6441674093	-2.9715639553	 0.200073
H	-0.5205888808	-2.3116060925	-0.9816153724	 0.093557
H	-0.0591661206	-3.7430571484	 1.0249092637	 0.113346
H	-1.0414480879	-2.61078317	 2.0568063888	 0.136041
H	-3.0783711472	-3.0609585629	 0.6115232677	 0.115485
H	-2.0993479381	-4.1823324265	-0.4355333024	 0.114308
46.4875	70.7997	139.0819	160.7602	180.2943	314.8426	341.3638	355.7947	386.0758	478.66	509.6176	566.8766	613.1202	629.5666	647.7532	726.6004	769.6197	824.4596	861.9266	885.8452	934.1866	978.4979	1039.9926	1059.6016	1076.9027	1107.0795	1133.7915	1149.1809	1193.9085	1225.4005	1261.206	1292.1323	1346.6951	1399.1052	1473.1003	1505.8436	1610.82	1803.5721	2226.5288	3050.5331	3132.9401	3144.8664	3155.6248	3213.782	3233.3994	3500.582	3590.7021	3724.0694
NC(=O)C(C#C)C1CC1	NC(=O)[C@@H](C#C)C1CC1	
InChI=1S/C7H9NO/c1-2-6(7(8)9)5-3-4-5/h1,5-6H,3-4H2,(H2,8,9)	InChI=1S/C7H9NO/c1-2-6(7(8)9)5-3-4-5/h1,5-6H,3-4H2,(H2,8,9)/t6-/m0/s1
