19
gdb 116348	3.01506	1.32654	1.02196	3.17	71.04	-0.2572	0.0782	0.3355	1175.6823	0.160441	-460.142662	-460.134558	-460.133613	-460.175455	31.143	
O	 0.0344246267	 1.3839394941	-0.0404688405	-0.427194
C	 0.033025233	-0.0263662204	 0.0288883742	-0.069876
C	-1.3910671908	-0.5802331741	 0.0411993479	 0.065663
O	-2.0040193301	-0.0825102251	-1.1409628803	-0.271009
C	-3.316191775	-0.5789030499	-1.3414117487	-0.077763
C	-3.3023898987	-2.0748435506	-1.6751752548	-0.239032
C	-2.3835616696	-2.8345435194	-0.733318602	 0.041503
O	-0.9855517678	-2.7934136182	-1.0474100603	-0.246553
C	-1.4322901506	-2.0929507617	 0.112150483	 0.01979
H	-0.5487942569	 1.6093591989	-0.7749608063	 0.290908
H	 0.5723693609	-0.4816527211	-0.8148667561	 0.109401
H	 0.5467461554	-0.3059535166	 0.9545381476	 0.104792
H	-1.9236020975	-0.1832266157	 0.9240471353	 0.073008
H	-3.9243726052	-0.3995406123	-0.4395213565	 0.092811
H	-3.747161761	 0.005287521	-2.1589293757	 0.112046
H	-4.3203546277	-2.4741475779	-1.6079828901	 0.103169
H	-2.9550072745	-2.231591584	-2.7018037916	 0.126874
H	-2.7250998322	-3.8127639949	-0.3965057613	 0.095975
H	-1.1106660486	-2.5203413521	 1.0631468562	 0.095486
92.1753	130.1608	167.8873	266.673	295.9352	370.7603	401.259	435.6172	464.549	507.5158	616.298	737.997	791.4937	805.2013	857.8513	914.7486	937.6453	953.5187	1016.0753	1055.5643	1079.9942	1087.0102	1104.5471	1111.9338	1143.4184	1166.1794	1232.8944	1254.7121	1281.722	1297.3775	1308.2455	1357.7626	1363.8711	1379.0544	1393.3076	1421.2376	1442.3535	1463.1329	1472.3157	1499.9285	1502.7895	2950.2614	2972.9754	3003.3736	3044.1179	3079.7137	3085.2204	3094.4587	3099.8815	3117.0653	3795.496
OCC1OCCC2OC12	OC[C@H]1OCC[C@H]2O[C@@H]12	
InChI=1S/C6H10O3/c7-3-5-6-4(9-6)1-2-8-5/h4-7H,1-3H2	InChI=1S/C6H10O3/c7-3-5-6-4(9-6)1-2-8-5/h4-7H,1-3H2/t4-,5-,6-/m1/s1
