19
gdb 42094	3.80796	1.27188	1.24534	1.1978	77.05	-0.2452	0.0138	0.2591	1096.9773	0.160829	-423.045762	-423.03809	-423.037145	-423.078619	29.682	
C	 0.053191251	 1.6863496178	 0.3050825705	-0.210835
C	 1.522863888	 1.8930599168	-0.0742069912	-0.08705
O	 2.1473793056	 0.6548526202	 0.2492073786	-0.277308
C	 1.2658037218	-0.4041029113	-0.0986676606	 0.483015
C	-0.1605507894	 0.2085420899	-0.0680106461	-0.309439
O	 1.5325071752	-0.8866611652	-1.4147539426	-0.297345
C	 2.2326218334	-2.1230498511	-1.3555590066	-0.136621
C	 2.1428043932	-2.5483303323	 0.0830807386	-0.103008
C	 1.5703214824	-1.5832486948	 0.7898308398	-0.141814
H	-0.0778580208	 1.8404388347	 1.3806135815	 0.105034
H	-0.6234894143	 2.3653216538	-0.2197830297	 0.101958
H	 1.6300116559	 2.1102091089	-1.1475090781	 0.099411
H	 2.0259485237	 2.6802028279	 0.492992128	 0.104189
H	-0.8046336496	-0.3202074085	 0.6379728802	 0.107896
H	-0.5934447151	 0.0969183986	-1.0642606756	 0.123483
H	 1.7534125629	-2.8321657355	-2.0443168242	 0.110251
H	 3.2780675608	-2.0028731785	-1.6806224782	 0.111883
H	 2.5173876103	-3.4961215262	 0.4480151613	 0.108942
H	 1.3820325749	-1.5606388351	 1.8547113943	 0.107359
44.4903	105.4773	198.0795	262.4715	360.7927	432.696	468.1289	523.8981	607.4799	735.5317	747.9731	781.774	828.4489	838.4696	891.3016	932.5594	950.5002	954.449	960.685	1008.2727	1018.4185	1040.2059	1056.9003	1076.8893	1119.0065	1162.9918	1172.3771	1201.7178	1214.2378	1254.006	1263.1792	1314.5895	1335.3841	1371.1715	1373.6413	1383.9994	1481.9169	1495.7655	1510.11	1518.5686	1691.693	2983.8458	2995.2958	3024.6697	3054.0533	3075.102	3094.9019	3104.1443	3125.7773	3210.7946	3236.9496
C1COC2(C1)OCC=C2	C1CO[C@@]2(C1)OCC=C2	
InChI=1S/C7H10O2/c1-3-7(8-5-1)4-2-6-9-7/h1,3H,2,4-6H2	InChI=1S/C7H10O2/c1-3-7(8-5-1)4-2-6-9-7/h1,3H,2,4-6H2/t7-/m0/s1
