21
gdb 98464	2.17992	1.26799	0.93531	3.4157	79.58	-0.2628	-0.0232	0.2396	1333.1606	0.180647	-424.236232	-424.226357	-424.225413	-424.271136	36.702	
C	 0.5992955342	 0.0680802651	 1.2153206331	-0.381131
C	-0.0921612784	-0.0384891245	-0.1510786573	-0.288364
C	-1.4696282272	-0.686236715	-0.099923328	 0.252081
C	-1.869320975	-1.6429557901	-1.2326745281	-0.290545
C	-1.550961256	-2.1878527687	 0.1177815241	-0.283134
C	-2.6325099257	 0.0980408105	 0.4150620084	 0.295521
O	-3.6877417688	-0.4277399699	 0.7253849417	-0.351489
C	-2.5508233352	 1.6219040614	 0.4903478615	-0.149806
O	-3.75486493	 2.1633197427	 0.9407552793	-0.423633
H	 1.5863465997	 0.5296478595	 1.1162177082	 0.11926
H	 0.0210708154	 0.6715429904	 1.9219039058	 0.124327
H	 0.7333004287	-0.9213363276	 1.6637681024	 0.12328
H	-0.1574300528	 0.9522012043	-0.6167430982	 0.107735
H	 0.5391573999	-0.6350579971	-0.8195442815	 0.100732
H	-2.9088537409	-1.6285746032	-1.5383960744	 0.136945
H	-1.1508575044	-1.7663652678	-2.0356606402	 0.120411
H	-0.6081163373	-2.7054124073	 0.2566484709	 0.117514
H	-2.3760554169	-2.5423786419	 0.7233746903	 0.142065
H	-1.7176582149	 1.9114352343	 1.1489457191	 0.119009
H	-2.2921384908	 1.9969699683	-0.5149757843	 0.116108
H	-4.3360343936	 1.3946644465	 1.0687003873	 0.293112
55.7978	107.481	139.2157	178.1299	214.7294	226.8405	270.3093	320.4421	355.2092	419.4431	433.4228	473.9624	560.743	596.0863	760.2735	786.5693	799.431	851.6063	866.8105	935.7783	953.6084	1016.6575	1027.0845	1051.1888	1082.9237	1087.4822	1098.9868	1114.4769	1152.2996	1204.319	1252.6493	1270.3463	1294.1084	1309.4802	1364.0064	1377.8352	1415.9819	1454.3702	1455.239	1480.2015	1488.4085	1496.8973	1498.8711	1507.8	1758.5826	2965.4414	3002.3587	3031.5885	3040.1601	3061.9718	3109.649	3110.8263	3136.7488	3142.0975	3226.4728	3241.3697	3659.989
CCC1(CC1)C(=O)CO	CCC1(CC1)C(=O)CO	
InChI=1S/C7H12O2/c1-2-7(3-4-7)6(9)5-8/h8H,2-5H2,1H3	InChI=1S/C7H12O2/c1-2-7(3-4-7)6(9)5-8/h8H,2-5H2,1H3
