16
gdb 23231	2.722	1.57894	1.14905	1.5169	72.58	-0.2271	0.0236	0.2507	1050.5641	0.123495	-437.776744	-437.768974	-437.76803	-437.808752	30.439	
O	-0.2172277049	 1.4002979395	-0.0042356017	-0.402261
N	-0.0146497207	 0.0002300812	-0.0791013671	-0.313639
C	-1.1177477256	-0.6180477656	-0.0559650733	 0.406999
C	-2.5942372095	-0.2903043219	 0.1406523199	-0.167979
C	-3.2609599202	-0.8432458819	-1.1577234417	-0.237369
C	-2.8345393678	-2.2220893165	-0.6526928299	-0.13888
C	-2.7264362145	-1.7436664455	 0.7705164827	-0.121127
C	-1.4405276418	-2.0682492781	 0.0244884227	 0.304052
O	-0.6180602183	-3.137732792	 0.2636363447	-0.452392
H	 0.6876558312	 1.7289069783	 0.0057933977	 0.30409
H	-2.8933212404	 0.6464430599	 0.5988114985	 0.101916
H	-4.3482441068	-0.7261837347	-1.1352681984	 0.107017
H	-2.8652951834	-0.4814357008	-2.1126516915	 0.103454
H	-3.1330365834	-3.2060658085	-0.9932987367	 0.096758
H	-3.0881677652	-2.1081466453	 1.7197494814	 0.112713
H	-0.1708243888	-3.3704843278	-0.5578964073	 0.296647
126.3279	165.9025	249.3226	272.4396	302.8499	326.3132	381.0366	480.6862	523.4045	598.0738	694.0486	705.3533	755.1673	831.5037	847.561	872.6957	899.7331	931.1722	943.7936	973.0326	1004.1486	1017.6475	1074.4702	1101.0123	1130.1672	1170.2093	1193.6295	1222.5898	1274.3724	1295.2606	1309.3833	1401.4754	1467.524	1497.6572	1797.2539	3041.4562	3099.267	3180.3125	3192.6564	3238.721	3794.8011	3823.5827
ON=C1C2CC3C2C13O	ON=C1[C@H]2C[C@@H]3[C@H]2[C@]13O	
InChI=1S/C6H7NO2/c8-6-3-1-2(4(3)6)5(6)7-9/h2-4,8-9H,1H2	InChI=1S/C6H7NO2/c8-6-3-1-2(4(3)6)5(6)7-9/h2-4,8-9H,1H2/t2-,3+,4-,6-/m0/s1
