21
gdb 59844	3.2376	0.84463	0.73953	0.2842	79.88	-0.2384	-0.0813	0.1571	1625.3967	0.177832	-424.273346	-424.26222	-424.261276	-424.311088	38.72	
C	 0.2238031961	 1.7350870337	-0.1665776759	-0.389751
C	 0.0706898581	 0.212350744	-0.0420720214	 0.041248
C	 0.6785807791	-0.5034952589	-1.2550396148	-0.395997
C	 0.6968022154	-0.3114486257	 1.257304233	-0.290261
C	-0.0481057637	 0.0687955684	 2.5172275901	 0.26255
O	-1.1308709604	 0.6095269415	 2.5408819241	-0.287228
C	 0.6429096169	-0.2957388331	 3.8585545186	 0.311549
C	-0.1324125385	 0.0286734215	 5.1114294434	-0.473942
O	 1.7388441146	-0.8060017589	 3.8501771547	-0.274963
H	 1.2826941894	 2.0196664019	-0.2014474337	 0.107894
H	-0.2458346217	 2.0981508736	-1.0863993269	 0.112666
H	-0.2438930538	 2.2532356688	 0.674163441	 0.128653
H	-1.0017662187	-0.0150327163	-0.0039640311	 0.090211
H	 1.7566092492	-0.3151605908	-1.3248704715	 0.113705
H	 0.5333723048	-1.5875427045	-1.1969912102	 0.109989
H	 0.2208284171	-0.1528867728	-2.185635473	 0.113403
H	 0.752437557	-1.4102664741	 1.2539702485	 0.132001
H	 1.7417683235	 0.0059699935	 1.3661295717	 0.135576
H	-1.094805077	-0.4931072723	 5.1023880716	 0.155338
H	 0.4480364817	-0.2588416913	 5.9881779551	 0.140692
H	-0.368502679	 1.0969877617	 5.1402910664	 0.156668
31.4856	43.9329	90.257	104.0695	130.8383	228.2143	238.1403	255.7496	298.3411	344.6292	353.8585	396.6116	421.8919	528.7533	583.5553	610.2882	784.5322	831.928	864.7953	915.6629	928.6412	970.2513	973.06	1014.4802	1058.2668	1115.4979	1153.2733	1195.053	1237.3679	1240.5964	1323.849	1361.6883	1382.1626	1391.6692	1398.8538	1418.9299	1432.4847	1452.2575	1459.7108	1488.4269	1493.7994	1505.2898	1513.1172	1796.7921	1808.2142	3015.3044	3024.0082	3027.4096	3033.6809	3049.8527	3058.4514	3088.9677	3095.3137	3100.6815	3111.2143	3121.0474	3161.8897
CC(C)CC(=O)C(C)=O	CC(C)CC(=O)C(=O)C	
InChI=1S/C7H12O2/c1-5(2)4-7(9)6(3)8/h5H,4H2,1-3H3	InChI=1S/C7H12O2/c1-5(2)4-7(9)6(3)8/h5H,4H2,1-3H3
