17
gdb 112493	2.37864	1.1912	0.96498	1.0793	76.11	-0.2514	-0.0392	0.2122	1286.9364	0.132575	-421.788363	-421.779019	-421.778075	-421.823282	33.428	
C	 0.4073318127	 1.3306101602	 0.2784620006	-0.386253
C	 0.1191457853	-0.1540212118	 0.0379149361	-0.19003
C	 0.5115115179	-0.5946083205	-1.3665803134	 0.018132
O	 1.940457715	-0.5246740592	-1.6216766252	-0.297972
C	 2.0807670113	-1.9399513382	-1.9070265465	-0.174487
C	 2.9839904568	-2.6505252104	-1.0274655275	 0.335228
C	 3.7100942045	-3.256719814	-0.2859779956	-0.433537
C	 0.5525270812	-2.1003856258	-1.6383707336	 0.334239
O	-0.2217998628	-3.0018522689	-1.6349493592	-0.267667
H	 1.4686775654	 1.5445954475	 0.1256272387	 0.141999
H	-0.1676766535	 1.9619455526	-0.4075093465	 0.117538
H	 0.1444150743	 1.6172557347	 1.3006402847	 0.119617
H	 0.6636398204	-0.7673699219	 0.7646820862	 0.11547
H	-0.948098762	-0.370707233	 0.1685485746	 0.117129
H	-0.0524750412	-0.0324699104	-2.1252993242	 0.10735
H	 2.3399859254	-2.1106737139	-2.9612299131	 0.133954
H	 4.3586128092	-3.7904109469	 0.3644856841	 0.20929
45.3792	96.9813	123.7143	146.6062	209.8612	234.9696	292.1289	355.2189	429.4826	499.4929	547.3523	607.0737	619.4682	684.2223	707.1327	780.7788	870.8733	910.9291	932.7063	962.1028	1027.1212	1063.4546	1071.7869	1108.999	1137.6283	1197.2269	1255.848	1277.0107	1309.8905	1342.2145	1388.1565	1410.3192	1474.6694	1496.172	1508.3005	1931.3077	2234.6384	3003.882	3013.4736	3035.8568	3039.5933	3076.7623	3109.0908	3122.9577	3500.9632
CCC1OC(C#C)C1=O	CC[C@H]1O[C@@H](C#C)C1=O	
InChI=1S/C7H8O2/c1-3-5-7(8)6(4-2)9-5/h1,5-6H,4H2,2H3	InChI=1S/C7H8O2/c1-3-5-7(8)6(4-2)9-5/h1,5-6H,4H2,2H3/t5-,6+/m0/s1
