17
gdb 33158	5.10878	0.78392	0.71762	2.8982	71.1	-0.1982	0.0298	0.228	1525.837	0.136755	-455.171336	-455.162481	-455.161537	-455.205753	31.936	
O	-0.1108144671	 1.443338767	 0.0055084879	-0.413209
C	 0.018232599	 0.0379003876	 0.1082841387	-0.070143
C	-1.3869921063	-0.5393249141	-0.0741605539	-0.169785
N	-1.4070392105	-1.9858135117	 0.0015597882	 0.023629
C	-1.4924597553	-2.8508813286	-1.0390263065	 0.001589
N	-1.4308443013	-4.1109300915	-0.6493623944	-0.360575
C	-1.2947097581	-4.0509205507	 0.706466192	 0.343612
O	-1.2034499845	-5.1712766051	 1.4563155103	-0.436091
C	-1.2728348434	-2.7539031827	 1.1527075307	-0.239398
H	 0.7560337567	 1.8394967803	 0.1305943157	 0.295093
H	 0.682010203	-0.3758193889	-0.6662462659	 0.101576
H	 0.4185170816	-0.2685984199	 1.0863266062	 0.102135
H	-2.0526724553	-0.1202247026	 0.6867894102	 0.133615
H	-1.7747231048	-0.2387603171	-1.0511640093	 0.132336
H	-1.605568129	-2.5100647722	-2.057476984	 0.129133
H	-1.2608907021	-5.9100826675	 0.8382905684	 0.299463
H	-1.1954242326	-2.3192681622	 2.1334551656	 0.12702
61.7239	84.6769	86.9961	232.2446	267.0766	301.6912	337.3484	379.5751	399.6166	458.7547	637.4362	649.796	677.9056	729.8266	795.391	800.7095	806.1207	1008.8895	1014.7723	1050.1498	1090.4627	1105.7529	1162.7157	1213.1332	1217.5289	1246.3428	1276.7256	1301.1566	1363.0328	1373.9873	1412.6092	1453.7035	1462.5479	1491.1378	1528.4193	1543.3029	1657.1978	2982.103	3015.4003	3059.3318	3112.1427	3248.0366	3288.9167	3803.0637	3839.1684
OCCN1C=NC(O)=C1	OCCn1cnc(O)c1	
InChI=1S/C5H8N2O2/c8-2-1-7-3-5(9)6-4-7/h3-4,8-9H,1-2H2	InChI=1S/C5H8N2O2/c8-2-1-7-3-5(9)6-4-7/h3-4,8-9H,1-2H2
