22
gdb 91334	2.61998	1.59995	1.21471	0.4339	81.92	-0.2064	0.0818	0.2882	1127.1679	0.194957	-404.3232	-404.314753	-404.313809	-404.355588	34.116	
C	 0.2029580017	 1.5253584739	 0.1250661522	-0.406242
C	 0.0253654802	 0.0200435395	 0.0031525214	 0.144602
C	 0.6450780712	-0.5660077419	-1.2968580851	-0.195948
N	 1.1343402119	-1.9472514921	-1.1291030638	-0.126181
C	 0.242510488	-2.6319933533	-0.1202474321	-0.236024
C	 1.0455191828	-1.9253686833	 1.0035276365	 0.4162
C	 1.220641486	-2.5335327064	 2.3748195439	-0.468597
C	 2.184278444	-1.9115042169	-0.0436065642	-0.208207
O	 0.5882100176	-0.5825319579	 1.177175635	-0.323532
H	 1.2661081352	 1.7857309062	 0.1357097204	 0.119152
H	-0.2725905573	 2.0366329439	-0.7185704887	 0.114105
H	-0.2500102665	 1.892366021	 1.050355337	 0.124479
H	-1.0527748159	-0.2015926333	-0.0020674337	 0.071967
H	-0.1094671685	-0.5458118225	-2.092092138	 0.10179
H	 1.4897964786	 0.0453341991	-1.6349129447	 0.10333
H	-0.8291900241	-2.4412430666	-0.2148676116	 0.105581
H	 0.4214448578	-3.7107343281	-0.144131732	 0.104103
H	 1.6227274185	-3.548132044	 2.2985841718	 0.112219
H	 1.9096379105	-1.9291822123	 2.9730756838	 0.126897
H	 0.2630251512	-2.5738980541	 2.9030530069	 0.12308
H	 2.7765915858	-2.831792642	-0.0700865139	 0.098274
H	 2.8416269614	-1.0378399992	-0.0523777211	 0.098951
115.6522	206.4589	215.4113	232.2124	262.9669	344.6632	398.0816	431.6036	449.9842	463.6567	487.7166	583.6194	656.129	794.4681	832.4939	835.0842	887.1434	895.6423	923.7503	949.9152	972.8472	984.9892	1002.7212	1027.7116	1083.669	1117.5857	1152.9148	1173.0841	1188.1077	1221.085	1236.3804	1249.7965	1271.7135	1289.5294	1339.7163	1347.0834	1382.6764	1394.8431	1405.7952	1414.2534	1480.1319	1481.5353	1482.7312	1492.2388	1493.9406	1498.8999	1514.6924	2972.3021	3025.1359	3036.4081	3037.3105	3041.1835	3057.1381	3069.7813	3105.4187	3108.9018	3110.0966	3112.2173	3116.2026	3116.7441
CC1CN2CC(C)(C2)O1	C[C@H]1CN2C[C@@](C)(C2)O1	
InChI=1S/C7H13NO/c1-6-3-8-4-7(2,5-8)9-6/h6H,3-5H2,1-2H3	InChI=1S/C7H13NO/c1-6-3-8-4-7(2,5-8)9-6/h6H,3-5H2,1-2H3/t6-/m0/s1
