23
gdb 13717	5.56657	0.78346	0.73302	1.1511	83.56	-0.2193	0.0906	0.3099	1651.588	0.210699	-330.306366	-330.296452	-330.295508	-330.341754	35.66	
C	-0.0911905031	 1.6405834176	-0.2695651237	-0.378145
C	-0.0170193036	 0.1498738224	 0.0722592162	-0.164637
C	-1.3742923195	-0.5539340073	-0.020858369	-0.154742
C	-1.3031397337	-2.0441969736	 0.3169907915	-0.141523
N	-2.6328313961	-2.6408751101	 0.2527914084	-0.080816
C	-3.0480532609	-3.2473670865	-1.008672789	-0.25418
C	-2.7887490926	-4.0953028098	 0.1905066559	 0.031526
C	-1.626225606	-5.0638791954	 0.2372550763	-0.411131
H	 0.890577978	 2.1184814612	-0.1931251593	 0.109321
H	-0.4581464824	 1.7943337489	-1.2905299109	 0.11301
H	-0.7724279766	 2.167752221	 0.4074822116	 0.114763
H	 0.6980741643	-0.3437610728	-0.5995254048	 0.092081
H	 0.3875282681	 0.027358924	 1.0859788726	 0.093881
H	-2.0948208258	-0.076377231	 0.653996917	 0.103623
H	-1.7806702154	-0.4379625203	-1.0347503804	 0.093433
H	-0.5759065062	-2.5318477182	-0.3549971112	 0.077132
H	-0.9259446195	-2.1720497096	 1.3399242926	 0.097327
H	-4.0603072864	-3.0299761026	-1.340725836	 0.109581
H	-2.3114986692	-3.2999683948	-1.8115968511	 0.10011
H	-3.6565236446	-4.4373340646	 0.7544479389	 0.086575
H	-0.7987294388	-4.7588902408	-0.4074703073	 0.120402
H	-1.2406356987	-5.1714847878	 1.257432568	 0.121509
H	-1.9561062512	-6.05399799	-0.0951077762	 0.1209
49.7185	81.9719	102.657	130.034	181.0301	225.8685	250.5951	296.3084	361.4647	393.7792	442.3883	534.3265	740.4376	754.6793	805.7834	812.5863	901.3467	914.8592	942.805	955.8965	1017.4257	1040.1722	1056.5084	1072.4771	1113.1431	1129.1621	1147.4369	1153.2334	1190.9608	1202.3996	1256.9321	1289.2352	1322.2686	1323.7797	1339.1085	1380.085	1398.7446	1408.5191	1414.2691	1422.5313	1483.6557	1487.6014	1493.02	1498.773	1500.0168	1502.9782	1510.7756	1517.8868	2948.4449	3009.5225	3018.0539	3029.2503	3034.1852	3036.1014	3036.8528	3069.7391	3078.0044	3091.1491	3096.0928	3096.2935	3100.7977	3124.6424	3165.4497
CCCCN1CC1C	CCCCN1C[C@H]1C	
InChI=1S/C7H15N/c1-3-4-5-8-6-7(8)2/h7H,3-6H2,1-2H3	InChI=1S/C7H15N/c1-3-4-5-8-6-7(8)2/h7H,3-6H2,1-2H3/t7-,8?/m1/s1
