19
gdb 121773	2.71837	0.7899	0.63747	4.4173	82.92	-0.254	0.0024	0.2564	1752.0531	0.157147	-382.033192	-382.022711	-382.021766	-382.069654	36.72	
C	 0.5912706068	 1.2135502537	 0.616609956	-0.381518
C	-0.1015188809	 0.1443625969	-0.2318347349	-0.186074
C	 0.8745668232	-0.6122398044	-1.1313722561	-0.11495
N	 0.1602145555	-1.5918531959	-1.9540498606	-0.283138
C	 1.0301672306	-2.3670790609	-2.8396842886	-0.29009
C	 2.0101260842	-3.2361053027	-2.1612191931	 0.343889
C	 2.7930610678	-3.9187843463	-1.5579923926	-0.451816
C	 0.196883356	-3.166713993	-3.7606336413	 0.299263
N	-0.4554601674	-3.7930534079	-4.4780969963	-0.315747
H	 1.3568618902	 0.7742596153	 1.2652958417	 0.118688
H	 1.0810477037	 1.9640262687	-0.0134008509	 0.119052
H	-0.1273264393	 1.7344834719	 1.2557084025	 0.119799
H	-0.6113675512	-0.5723818437	 0.4263211853	 0.097788
H	-0.8788216912	 0.5966871843	-0.8575848204	 0.115286
H	 1.3701634777	 0.0925816617	-1.8127706122	 0.105946
H	 1.6682952512	-1.0722396572	-0.5188004549	 0.098821
H	-0.3563398625	-2.2330746049	-1.358522776	 0.232368
H	 1.5808581808	-1.6444449948	-3.4587589304	 0.159952
H	 3.4882952446	-4.5307018308	-1.0371641371	 0.212479
55.5347	70.8321	101.0315	126.6339	145.5948	214.1088	219.7286	244.4939	349.909	365.7755	392.8511	514.7917	577.3582	620.7804	655.0042	674.2038	761.7058	764.2142	879.4683	900.3425	934.7272	1016.2781	1033.8543	1063.4071	1126.973	1146.2055	1187.8433	1259.8508	1298.6101	1306.3851	1327.2599	1345.3602	1411.4421	1417.3085	1490.537	1494.6877	1501.1879	1505.2495	1521.955	2233.2162	2370.7258	2963.3537	3015.2646	3016.0297	3031.3581	3034.8212	3068.8879	3101.318	3110.1641	3499.6826	3511.2387
CCCNC(C#C)C#N	CCCN[C@@H](C#C)C#N	
InChI=1S/C7H10N2/c1-3-5-9-7(4-2)6-8/h2,7,9H,3,5H2,1H3	InChI=1S/C7H10N2/c1-3-5-9-7(4-2)6-8/h2,7,9H,3,5H2,1H3/t7-/m0/s1
