19
gdb 87862	3.2794	1.28156	1.16511	0.6226	74.38	-0.2597	0.0859	0.3457	1128.4149	0.159026	-423.00814	-423.000141	-422.999197	-423.040745	31.161	
C	-0.2665889251	 1.5378418619	 0.3364943964	-0.422709
C	-0.1663708017	 0.0357284788	 0.312609382	 0.006592
O	 0.9838636647	-0.534964581	-0.3342005169	-0.310964
C	 0.8217270884	-0.751266978	 1.0673445325	 0.445596
C	 1.8571161814	-0.1443815886	 2.0239914535	-0.344546
C	 1.7426758297	-0.9987552539	 3.2680771324	 0.048231
O	 0.3941025165	-1.1326761422	 3.7401600429	-0.260997
C	 0.9581640599	-2.2062061226	 2.9722857477	 0.046963
C	 0.5369246712	-2.1908737387	 1.5203679197	-0.337897
H	 0.7006827259	 1.9997105518	 0.5457161988	 0.127178
H	-0.6147008015	 1.9092297157	-0.6329787932	 0.128651
H	-0.9844399411	 1.8610004801	 1.0982081835	 0.12774
H	-1.0990449189	-0.4757416893	 0.0631255363	 0.085188
H	 2.8613747491	-0.2375264042	 1.5929253159	 0.117602
H	 1.6803412616	 0.9146584219	 2.2288010016	 0.11654
H	 2.5071140852	-0.964308952	 4.0397813413	 0.09693
H	 1.092731091	-3.1427729976	 3.5068341986	 0.096978
H	-0.5088775359	-2.4765383187	 1.3748991133	 0.11519
H	 1.1577412097	-2.8876454434	 0.9435821737	 0.117735
69.1928	164.4245	202.8809	240.3427	326.3662	365.589	386.133	460.875	478.2145	555.7646	674.7962	768.6022	794.5496	822.8169	860.822	878.7303	929.1188	931.2908	976.0003	1002.7607	1020.7824	1036.4387	1095.0298	1101.5164	1126.5412	1156.3837	1180.8451	1213.1862	1217.8969	1265.0615	1295.1019	1300.3954	1339.3054	1365.7415	1408.6187	1441.1335	1466.1308	1471.3981	1480.8766	1492.6284	1513.0275	3038.7576	3039.4527	3043.9043	3079.0428	3091.2496	3098.7313	3101.2748	3131.9876	3145.1423	3157.3576
CC1OC11CC2OC2C1	C[C@H]1O[C@]21C[C@H]1O[C@H]1C2	
InChI=1S/C7H10O2/c1-4-7(9-4)2-5-6(3-7)8-5/h4-6H,2-3H2,1H3	InChI=1S/C7H10O2/c1-4-7(9-4)2-5-6(3-7)8-5/h4-6H,2-3H2,1H3/t4-,5-,6+,7-/m1/s1
