17
gdb 74110	2.48281	1.66983	1.10454	5.4245	78.43	-0.2214	-0.0257	0.1957	1080.9338	0.13801	-418.017347	-418.009642	-418.008698	-418.049311	30.436	
N	 0.0931138892	 1.3453533427	-0.2254214978	-0.557431
C	-0.0065763645	-0.0121042421	-0.0692532853	 0.369123
C	-1.1817166818	-0.686736527	-0.0835565382	-0.332918
C	-1.2441271245	-2.1342563863	 0.029999927	 0.407183
O	-2.2804107164	-2.7540394385	 0.2130120939	-0.374054
C	 0.0581951219	-2.8750410693	-0.1052303322	-0.13111
C	 0.8517339035	-2.6640817111	-1.3595062048	-0.248697
N	 1.3432946481	-2.1611818257	-0.088645399	-0.108516
C	 1.3164632943	-0.7222400769	 0.1348711545	-0.245703
H	 0.9284336666	 1.8030669675	 0.1039416832	 0.260471
H	-0.7485022839	 1.8931464291	-0.1326726215	 0.262998
H	-2.1304542091	-0.1620609832	-0.1479598603	 0.085712
H	 0.0595198423	-3.8549492832	 0.3630410646	 0.110695
H	 1.4169416476	-3.4911410776	-1.7798415759	 0.124556
H	 0.447302231	-1.9600145009	-2.0836391817	 0.123135
H	 2.0751943677	-0.2645276368	-0.5125798344	 0.123703
H	 1.6397080681	-0.5369499409	 1.1695890378	 0.130854
109.5795	165.5155	258.8292	323.9328	362.865	390.5816	452.2979	463.6141	469.2919	521.9647	552.5636	627.1193	730.5652	759.2251	851.3508	882.4077	889.4077	910.027	990.8332	1029.2851	1057.6476	1094.0715	1110.249	1114.5643	1164.0342	1255.7027	1277.9541	1302.4928	1314.0478	1358.548	1378.1843	1415.4483	1476.0344	1503.4619	1645.8719	1680.3308	1748.4587	3002.0466	3046.157	3102.2612	3157.9476	3171.764	3192.7994	3578.8329	3689.1133
NC1=CC(=O)C2CN2C1	NC1=CC(=O)[C@H]2CN2C1	
InChI=1S/C6H8N2O/c7-4-1-6(9)5-3-8(5)2-4/h1,5H,2-3,7H2	InChI=1S/C6H8N2O/c7-4-1-6(9)5-3-8(5)2-4/h1,5H,2-3,7H2/t5-,8?/m1/s1
