18
gdb 10991	2.8476	2.34663	1.71722	1.3634	66.88	-0.2371	0.0598	0.2969	829.8584	0.154093	-384.914409	-384.90701	-384.906066	-384.945505	29.257	
C	-0.1659309915	 1.5412300563	 0.0318392339	-0.437676
C	 0.0166976801	 0.0300765749	 0.0202170288	 0.005281
C	 1.1529634067	-0.6014085918	-0.8352279788	 0.091712
C	 2.1517716922	-0.2384993777	 0.2875401824	-0.319192
C	 0.8919332808	-0.6026531037	 1.1491256725	 0.355379
O	 0.6852858281	-0.207439162	 2.4647644986	-0.484085
C	 0.7482725699	-2.0925324444	 0.7811288376	-0.135351
O	 0.9479658037	-2.0175914748	-0.6446922955	-0.277511
H	 0.7730623093	 2.0923805323	 0.1239096494	 0.118567
H	-0.6565421442	 1.8728279864	-0.8893835797	 0.116855
H	-0.8011186574	 1.8356400004	 0.8732080375	 0.132403
H	-0.9514083193	-0.460576378	-0.1262034143	 0.074779
H	 1.3124002354	-0.3875755837	-1.8899613875	 0.081591
H	 3.0412756945	-0.8673037661	 0.3755158397	 0.094701
H	 2.4135572907	 0.8169075635	 0.3370769236	 0.109074
H	 1.3260406471	-0.6551946859	 3.0281989073	 0.283505
H	 1.5133407141	-2.7319187863	 1.2425264287	 0.08702
H	-0.2444242703	-2.4939466995	 1.016670336	 0.102947
157.2641	196.8382	235.2985	262.2474	342.7224	374.9863	421.9386	482.2145	545.47	610.6344	662.4057	796.8023	817.1774	877.3718	906.9736	941.6356	958.957	1004.514	1029.3744	1055.1081	1094.5803	1098.1712	1123.9599	1148.3071	1171.6343	1186.1195	1231.8936	1249.0501	1265.8609	1294.9448	1341.003	1369.4964	1405.943	1412.1971	1486.8052	1496.9316	1504.3504	1528.366	3004.2115	3039.6467	3049.8255	3056.0711	3075.3813	3101.0364	3118.1698	3146.0594	3157.5132	3801.5672
CC1C2CC1(O)CO2	C[C@H]1[C@H]2C[C@]1(O)CO2	
InChI=1S/C6H10O2/c1-4-5-2-6(4,7)3-8-5/h4-5,7H,2-3H2,1H3	InChI=1S/C6H10O2/c1-4-5-2-6(4,7)3-8-5/h4-5,7H,2-3H2,1H3/t4-,5+,6-/m0/s1
