21
gdb 58992	3.2348	1.17639	1.10943	1.8996	83.47	-0.2241	0.0092	0.2333	1227.4223	0.182476	-387.049976	-387.041376	-387.040432	-387.083418	33.425	
C	-0.0465523824	 1.5513560635	 0.0251580566	-0.388533
C	-0.0440462162	 0.0102510802	 0.0298944712	-0.116831
C	 0.7481766458	-0.5323598048	 1.2354455402	-0.385914
C	-1.4366476638	-0.5355249947	 0.0058062552	 0.408375
C	-2.0905887674	-1.3096114857	-0.8661529292	-0.246159
C	-3.4683903742	-1.447592571	-0.1961577675	 0.030281
C	-3.7763252017	 0.0279176339	 0.1994841639	-0.217334
C	-2.5397741559	-0.3257581964	 1.0781228798	-0.036744
O	-3.0940901535	-1.6765835044	 1.2066976165	-0.286829
H	 0.9775941006	 1.9383660122	 0.0161487078	 0.114155
H	-0.5685313528	 1.9446503414	-0.8522443803	 0.117217
H	-0.5425130543	 1.9479916972	 0.9182949294	 0.116288
H	 0.4581290566	-0.3294734681	-0.8851564285	 0.078775
H	 1.7787487767	-0.1626712476	 1.2157041589	 0.110917
H	 0.2977069769	-0.2115841849	 2.18113761	 0.117344
H	 0.7730688083	-1.6255180312	 1.2309359847	 0.125204
H	-1.7675657512	-1.7426833357	-1.8018159979	 0.10371
H	-4.2079376174	-2.1436959889	-0.5894730635	 0.078643
H	-3.6813691444	 0.8069761972	-0.5599026703	 0.095147
H	-4.6933441951	 0.1288611227	 0.7853144353	 0.10509
H	-2.3055004246	 0.1605757648	 2.0245005977	 0.077201
57.1014	112.5457	174.4643	225.3905	259.2313	321.5021	324.7934	476.808	492.1265	552.2081	629.2964	674.6656	785.2014	794.7397	840.8263	846.4027	873.2179	891.3581	916.5609	929.2738	934.1634	963.5994	1011.798	1026.6177	1073.3042	1087.3388	1113.9163	1157.5537	1175.4951	1210.5786	1220.2676	1235.215	1256.9444	1295.1201	1303.9931	1339.937	1357.8669	1394.8482	1417.4391	1484.7437	1487.3876	1489.6832	1501.179	1509.4482	1679.0343	3019.5982	3029.172	3033.3258	3060.432	3095.1365	3100.8332	3108.1297	3114.5469	3127.9843	3132.1645	3135.6468	3235.3873
CC(C)C1=CC2CC1O2	CC(C)C1=C[C@@H]2C[C@H]1O2	
InChI=1S/C8H12O/c1-5(2)7-3-6-4-8(7)9-6/h3,5-6,8H,4H2,1-2H3	InChI=1S/C8H12O/c1-5(2)7-3-6-4-8(7)9-6/h3,5-6,8H,4H2,1-2H3/t6-,8-/m1/s1
