13
gdb 13757	3.72975	1.42853	1.2281	5.2615	56.45	-0.2526	-0.0425	0.2101	964.7016	0.093291	-435.74582	-435.73769	-435.736746	-435.77958	27.817	
N	 0.1745440359	 1.0297060521	-0.9857381957	-0.530818
C	 0.0054695751	 0.162871202	 0.0499706711	 0.41553
O	 0.8691569003	-0.0803535811	 0.8675370651	-0.357534
C	-1.3769388771	-0.4582586929	 0.1028542039	-0.037313
O	-1.4504010984	-1.7962723661	 0.5563363986	-0.218469
C	-2.0245021186	-0.8005257595	 1.3985854059	-0.05597
C	-1.3607002991	-0.5708182356	 2.7287109097	 0.138035
O	-1.9444549119	-0.0246000069	 3.6309749762	-0.250377
H	 1.0747740183	 1.4678180754	-1.0958054095	 0.273183
H	-0.5137324231	 1.1569573593	-1.7065257622	 0.267825
H	-2.0463378704	-0.2261119054	-0.7278857328	 0.10089
H	-3.1137694968	-0.771451854	 1.4308080808	 0.121744
H	-0.3284712642	-0.9508831472	 2.8050916289	 0.133274
35.9076	64.3164	212.3965	215.1675	238.2474	309.7635	355.3053	422.2433	499.3859	582.5152	649.9069	767.375	795.0972	892.1313	911.8461	1006.3509	1034.4068	1091.3313	1119.5109	1145.8546	1265.3018	1297.7677	1347.6804	1414.8089	1464.9622	1621.9053	1805.7356	1815.8601	3011.278	3088.1191	3124.1802	3604.376	3738.8213
NC(=O)C1OC1C=O	NC(=O)[C@H]1O[C@H]1C=O	
InChI=1S/C4H5NO3/c5-4(7)3-2(1-6)8-3/h1-3H,(H2,5,7)	InChI=1S/C4H5NO3/c5-4(7)3-2(1-6)8-3/h1-3H,(H2,5,7)/t2-,3-/m0/s1
