12
gdb 24809	3.68074	1.29501	0.95796	4.9427	72.87	-0.256	-0.0739	0.1821	1114.2862	0.077337	-435.491447	-435.484205	-435.483261	-435.523525	26.644	
O	-0.02656054	-0.063743359	 0.0035895829	-0.332753
C	-0.041159367	 1.1450898199	 0.0097058348	 0.371396
C	-1.2661848617	 1.9532067518	 0.0312124138	-0.240512
C	-1.1827885659	 3.2879014455	 0.0366172789	 0.060368
O	 0.0049959746	 3.9452491366	 0.022816084	-0.202691
C	 1.1319902446	 3.1657795058	 0.0026850501	 0.241002
N	 1.1710443608	 1.8904861954	-0.0039575852	-0.344274
C	 2.3130038136	 3.9659278326	-0.0097285451	 0.244736
C	 3.3123943886	 4.6324726889	-0.0203053294	-0.30864
H	-2.2265046562	 1.4550027351	 0.0425215315	 0.138142
H	-2.0148392385	 3.980621832	 0.0519800266	 0.15485
H	 4.203180227	 5.2125548656	-0.0298496429	 0.218376
107.9882	130.4815	148.6757	342.622	407.5165	436.7334	502.1739	527.9174	578.042	677.8339	680.3263	718.1641	738.8973	783.899	863.0646	912.185	938.7021	975.9791	1039.115	1169.7163	1239.5457	1300.8597	1411.5527	1618.8344	1695.7935	1802.5813	2248.1344	3216.6829	3236.3596	3496.5467
O=C1C=COC(=N1)C#C	O=c1ccoc(n1)C#C	
InChI=1S/C6H3NO2/c1-2-6-7-5(8)3-4-9-6/h1,3-4H	InChI=1S/C6H3NO2/c1-2-6-7-5(8)3-4-9-6/h1,3-4H
