18
gdb 89936	3.11792	1.36756	1.1174	2.3424	79.32	-0.2306	0.0194	0.25	1129.0705	0.146482	-401.867882	-401.859404	-401.85846	-401.900746	32.699	
C	 0.2891722475	 1.5975925208	-0.0418193229	-0.413615
C	 0.0340561266	 0.116439163	 0.1007271357	 0.160582
O	 0.8030711979	-0.6910819078	-0.8457288596	-0.348866
C	 1.2497798811	-1.5941637866	 0.1906243149	 0.268376
C	 2.6385676015	-1.2057937483	 0.7627002635	-0.221484
N	 1.9981407474	-0.1930590046	 1.6510096396	-0.319102
C	 0.6423135676	-0.6611545626	 1.2879759659	-0.143713
C	 0.9395209742	-2.9791946258	-0.0489586607	 0.245274
C	 0.6931649557	-4.1426262521	-0.2284301044	-0.415731
H	 1.3294389061	 1.8260326977	 0.1984677568	 0.140305
H	 0.0745406955	 1.9171261363	-1.0662423004	 0.125563
H	-0.3623023509	 2.1624572474	 0.634156436	 0.111839
H	-1.0338969134	-0.1160386168	-0.0176562547	 0.07795
H	 3.1164552632	-2.0356672944	 1.2950253666	 0.108545
H	 3.3325658067	-0.7864235843	 0.0283110791	 0.118953
H	 2.2171572649	-0.323303784	 2.6302783562	 0.226855
H	-0.0100445161	-0.9831837047	 2.1000104148	 0.082969
H	 0.4715489647	-5.1676456831	-0.3969274664	 0.195301
90.8219	141.2494	176.9032	214.2925	251.897	329.362	388.8934	434.9895	509.9291	551.498	612.2531	624.2345	660.5896	670.2033	721.8267	813.3127	866.9792	889.5757	954.6804	983.8412	1013.3473	1038.8079	1053.9588	1085.474	1098.8784	1147.0645	1150.062	1174.0899	1240.942	1282.3145	1312.7534	1353.704	1368.9801	1397.9946	1408.2049	1480.8352	1491.3532	1496.6338	2233.0386	3000.6649	3033.5751	3039.9231	3093.9713	3105.8015	3108.6313	3139.0711	3500.0658	3560.7978
CC1OC2(CNC12)C#C	C[C@H]1O[C@]2(CN[C@@H]12)C#C	
InChI=1S/C7H9NO/c1-3-7-4-8-6(7)5(2)9-7/h1,5-6,8H,4H2,2H3	InChI=1S/C7H9NO/c1-3-7-4-8-6(7)5(2)9-7/h1,5-6,8H,4H2,2H3/t5-,6+,7+/m1/s1
