17
gdb 131802	6.34825	0.65384	0.59938	4.9064	70.95	-0.2684	-0.0338	0.2346	1749.4924	0.134934	-455.120156	-455.111171	-455.110227	-455.155557	31.144	
O	 0.0783020363	 1.3135949554	-0.5412619337	-0.420044
C	 0.0276411045	 0.0394596444	 0.0758555535	-0.076666
C	-1.3286138555	-0.573298664	-0.2506851734	-0.173571
C	-1.5015850779	-1.9636539183	 0.3677827537	-0.331782
C	-2.8218186028	-2.5856067675	 0.0626962763	 0.417347
C	-3.9137279452	-2.1873638863	-0.6484844341	-0.197906
N	-4.8382060711	-3.2017689292	-0.5709446631	-0.113094
N	-4.3990945005	-4.1561069952	 0.1144011528	-0.014649
O	-3.0739117501	-3.7987201101	 0.5547475506	-0.221694
H	 0.9302381819	 1.7133081426	-0.3437985442	 0.289947
H	 0.8316053264	-0.6187630275	-0.2931089654	 0.090262
H	 0.1472448362	 0.1166920682	 1.1692415105	 0.090261
H	-2.111874169	 0.1020348306	 0.111104551	 0.121972
H	-1.4327402898	-0.6279882111	-1.3400125587	 0.12197
H	-0.7112711421	-2.640013898	 0.016499647	 0.13801
H	-1.386289883	-1.9145966863	 1.4585398336	 0.138015
H	-4.1050368582	-1.2803050379	-1.1941847765	 0.14162
36.0964	78.2701	98.5998	114.7234	258.4263	268.2275	269.2904	316.7207	483.9522	639.407	655.435	702.3407	725.169	763.6456	822.3199	877.3577	988.8861	1022.932	1044.6984	1059.1093	1089.3452	1123.9165	1125.2838	1208.8124	1214.6225	1243.1693	1298.8071	1303.1407	1315.825	1353.4442	1407.957	1460.9377	1467.8185	1474.8963	1501.5838	1528.4374	1604.4723	2958.0343	2983.8665	3022.2119	3044.5932	3049.0271	3091.1003	3298.4397	3833.6677
OCCCC1=CN=NO1	OCCCc1cnno1	
InChI=1S/C5H8N2O2/c8-3-1-2-5-4-6-7-9-5/h4,8H,1-3H2	InChI=1S/C5H8N2O2/c8-3-1-2-5-4-6-7-9-5/h4,8H,1-3H2
