18
gdb 82146	3.25642	1.11165	0.96438	4.724	74.62	-0.253	0.0213	0.2743	1256.2257	0.146097	-439.036996	-439.028202	-439.027257	-439.071635	31.698	
C	-0.0711055577	 1.6131327115	-0.1564030659	-0.401325
C	-0.0009027935	 0.0996446233	-0.0278542492	-0.074678
C	 0.6814947217	-0.6743894148	-1.1699036315	 0.020836
O	 2.0184565102	-0.1818170695	-1.2608883941	-0.230313
C	 1.744630232	-1.1871275807	-0.2832989753	-0.010855
C	 1.1054988493	-0.513630319	 0.9276671478	 0.106107
O	 1.9485005715	 0.3780346122	 1.6270731265	-0.183013
C	 1.7386408095	 0.5350862791	 2.950121449	 0.127324
N	 2.405098251	 1.3851592888	 3.6007443656	-0.440096
H	 0.9025683117	 2.016891252	-0.4396804302	 0.152236
H	-0.8058783357	 1.901880013	-0.9152303928	 0.114253
H	-0.3674976493	 2.0742674233	 0.7907865612	 0.121353
H	-0.9782729657	-0.3270382869	 0.2194446042	 0.077821
H	 0.2470832164	-1.1186188864	-2.0574277655	 0.10954
H	 2.3368902965	-2.0937842278	-0.3215556547	 0.109977
H	 0.6706004397	-1.250509986	 1.6135717396	 0.088408
H	 0.9708229707	-0.1414902121	 3.3531336854	 0.082932
H	 2.1368245216	 1.3586743601	 4.5821947	 0.229495
36.5504	97.3952	108.1115	197.7062	217.191	228.8326	321.7741	433.0722	462.6815	613.9492	672.9425	731.7551	814.2642	825.1025	854.4663	860.0069	899.0841	936.6143	1000.8721	1019.4418	1041.5013	1042.3132	1063.5503	1089.5328	1143.742	1158.3127	1201.3067	1239.138	1249.0308	1283.9324	1294.6011	1353.84	1378.7957	1390.1196	1412.3718	1426.6228	1489.3023	1500.5118	1746.0254	3006.9028	3033.5435	3041.799	3061.3459	3103.8796	3141.2296	3184.9898	3199.9346	3519.358
CC1C2OC2C1OC=N	C[C@H]1[C@H]2O[C@H]2[C@H]1O[CH][NH]	
InChI=1S/C6H9NO2/c1-3-4(8-2-7)6-5(3)9-6/h2-7H,1H3	InChI=1S/C6H9NO2/c1-3-4(8-2-7)6-5(3)9-6/h2-7H,1H3/t3-,4+,5-,6+/m1/s1
