19
gdb 57318	3.08736	0.91136	0.84739	4.5896	72.69	-0.2444	-0.0295	0.215	1435.4863	0.153324	-460.192185	-460.181298	-460.180354	-460.22964	38.048	
C	 0.1314292313	 1.5609631804	 0.222116682	-0.410116
C	-0.0212536502	 0.0520946944	-0.016909832	 0.251228
C	 0.549919122	-0.7637740714	 1.15487628	-0.413802
O	-1.3849766243	-0.2907037729	-0.2544853627	-0.463385
C	 0.762696508	-0.3334534295	-1.2873741563	 0.364444
O	 1.9325700931	-0.0421573795	-1.3899871786	-0.32215
C	 0.0239223767	-1.1013236498	-2.3729294114	-0.387613
C	 0.8998587513	-1.4005503674	-3.5718437101	 0.166743
O	 0.9821269802	-2.486438456	-4.084095368	-0.24154
H	 1.1876515678	 1.8338497901	 0.2692866367	 0.146353
H	-0.3427868712	 2.1247500031	-0.5862538641	 0.124819
H	-0.3476905366	 1.8435158968	 1.1660073385	 0.107715
H	 0.0440820777	-0.4856833268	 2.0864281001	 0.110273
H	 0.3993686161	-1.8344405714	 0.989007466	 0.129316
H	 1.6191151951	-0.5713834818	 1.2698861546	 0.145846
H	-1.8835447961	-0.0997324452	 0.5463511067	 0.28418
H	-0.3974339509	-2.02635847	-1.9678375455	 0.155753
H	-0.8388428629	-0.4980864657	-2.6884883213	 0.157931
H	 1.4593831029	-0.5281320676	-3.9681325747	 0.094005
21.4631	51.5741	68.4324	181.1829	213.2756	233.1528	241.7499	262.9427	287.7792	294.4624	358.3331	419.9137	452.3025	506.7603	571.8007	596.7446	735.7547	807.0033	863.6264	927.6549	975.7218	994.8154	1026.6824	1048.2217	1080.8484	1140.3179	1164.8728	1204.4657	1224.1379	1306.2276	1373.8259	1387.5716	1407.6659	1409.8069	1429.9277	1478.2019	1482.3516	1496.754	1511.0072	1797.9571	1837.4319	2920.4545	3032.6614	3034.4402	3037.6764	3097.7153	3104.1069	3107.9896	3132.8205	3139.4987	3819.5611
CC(C)(O)C(=O)CC=O	CC(C)(O)C(=O)CC=O	
InChI=1S/C6H10O3/c1-6(2,9)5(8)3-4-7/h4,9H,3H2,1-2H3	InChI=1S/C6H10O3/c1-6(2,9)5(8)3-4-7/h4,9H,3H2,1-2H3
