20
gdb 116768	3.9266	0.61911	0.55956	2.8899	82.07	-0.2436	-0.0186	0.225	1979.3914	0.166965	-440.28908	-440.278097	-440.277152	-440.327199	36.659	
C	-0.0619123599	 1.3959291394	-0.0383927775	-0.249548
O	-0.0662994353	-0.0268921803	-0.0395542261	-0.192844
C	 0.655913386	-0.6099411737	-1.0150767994	 0.131276
N	 0.7116478609	-1.8629702985	-1.1119032761	-0.220443
C	 1.515893862	-2.4146814156	-2.1859223903	-0.158767
C	 2.5554741436	-3.3983869225	-1.6306150191	-0.070503
C	 1.921918776	-4.5996115472	-0.9048998738	-0.398626
C	 3.4941222034	-3.889645664	-2.7114919097	 0.152336
O	 3.4423784358	-3.5779284022	-3.8747998038	-0.248841
H	 0.9517276901	 1.7950950646	 0.0888650336	 0.127609
H	-0.4963234688	 1.7997242559	-0.9608842859	 0.129502
H	-0.6752224998	 1.7037927106	 0.8090947253	 0.147699
H	 1.1673937865	 0.094836076	-1.6903624784	 0.075614
H	 0.8575904537	-2.9597492296	-2.8742914196	 0.115854
H	 2.0266729228	-1.643546688	-2.7836528732	 0.095532
H	 3.1881581831	-2.8685563853	-0.9002321324	 0.096476
H	 1.3004822364	-5.18470299	-1.5914826891	 0.124658
H	 2.6868470156	-5.2633042878	-0.4890656829	 0.113562
H	 1.2863487238	-4.2422737505	-0.0931063317	 0.153537
H	 4.2725201439	-4.6009374013	-2.3465730998	 0.075918
36.9596	49.7443	64.9101	110.2618	143.2575	158.837	213.4283	229.839	237.1767	318.0553	390.4265	408.2714	467.4957	564.5854	704.3095	810.7797	909.5988	921.9764	940.5314	991.1074	1038.037	1070.5839	1099.4551	1148.3853	1167.4477	1177.005	1179.4457	1266.1646	1279.0484	1298.36	1326.164	1384.6049	1397.6818	1415.5692	1429.5486	1483.9525	1485.6263	1494.8055	1496.2157	1500.8032	1506.8891	1774.8411	1824.5613	2852.8651	2979.4368	2986.2135	2987.8787	3016.2939	3037.6524	3045.0117	3078.3272	3102.321	3140.7553	3145.8432
COC=NCC(C)C=O	COC=NC[C@@H](C)C=O	
InChI=1S/C6H11NO2/c1-6(4-8)3-7-5-9-2/h4-6H,3H2,1-2H3	InChI=1S/C6H11NO2/c1-6(4-8)3-7-5-9-2/h4-6H,3H2,1-2H3/t6-/m1/s1
