16
gdb 42932	3.28317	1.14258	0.93178	1.8355	75.41	-0.2479	-0.0307	0.2172	1227.3987	0.122742	-400.678602	-400.670349	-400.669405	-400.712066	30.732	
O	 0.0069583169	 0.0372812632	-0.058799361	-0.309429
C	-0.0789765299	 1.2248841071	 0.0560469856	 0.396625
C	-1.1702152667	 2.2372500696	-0.1329426234	-0.158864
C	-1.1326554582	 3.18859045	 1.0178880848	-0.241968
N	-0.1564426029	 3.3807157458	-0.045753616	-0.112816
C	 0.9491304171	 2.375709687	 0.1928270293	-0.084293
C	 1.8477985632	 2.5252025818	 1.4223625507	-0.383073
C	 2.6985590694	 3.7074602052	 1.3609291292	 0.307522
C	 3.3914442757	 4.6863169376	 1.2910375204	-0.43643
H	-1.9822126411	 2.2103983646	-0.8498772056	 0.128258
H	-1.9078874596	 3.9482564714	 1.0378248594	 0.142277
H	-0.8224222567	 2.8396318959	 1.9990755021	 0.127779
H	 1.5736144444	 2.3643447615	-0.7073822638	 0.132946
H	 1.2533776603	 2.5425433537	 2.3428134576	 0.13449
H	 2.465084328	 1.6196182564	 1.4824143007	 0.155804
H	 4.0056403802	 5.5506854492	 1.2349844001	 0.201174
50.4842	111.2073	165.012	209.2	284.8667	343.628	397.5538	493.3054	560.7537	625.3904	630.143	645.4371	674.9026	742.4758	788.015	864.2667	889.1537	957.5355	983.2026	1020.9151	1037.3722	1094.9091	1097.537	1123.4858	1143.9971	1207.1321	1224.5904	1231.9331	1297.3541	1321.0259	1374.2604	1463.3325	1506.1366	1892.8065	2242.8967	3032.296	3055.2589	3070.3669	3118.3768	3192.8201	3206.2098	3506.0585
O=C1C2CN2C1CC#C	O=C1[C@H]2CN2[C@H]1CC#C	
InChI=1S/C7H7NO/c1-2-3-5-7(9)6-4-8(5)6/h1,5-6H,3-4H2	InChI=1S/C7H7NO/c1-2-3-5-7(9)6-4-8(5)6/h1,5-6H,3-4H2/t5-,6+,8?/m0/s1
