22
gdb 87190	3.63049	0.87144	0.84896	3.7382	83.42	-0.2328	-0.0141	0.2187	1512.2246	0.190688	-404.354813	-404.343992	-404.343048	-404.391336	38.865	
C	-0.0979846444	 1.4957995227	-0.1969587197	-0.401118
C	 0.1284828247	 0.0063870871	-0.0896208648	-0.049639
N	 1.5184337322	-0.4734515546	-0.1470370515	-0.355455
C	 0.7413818711	-0.6909636048	 1.0848224498	 0.359475
C	 1.2281534986	 0.0633547095	 2.3066903377	-0.460443
C	 0.2317407235	-2.0934825025	 1.3763041546	-0.397485
C	 1.2955603943	-3.0963427831	 1.8276741695	 0.384768
C	 0.7705503598	-4.4169135298	 2.3660438407	-0.473218
O	 2.4794937576	-2.8637205398	 1.7521872414	-0.287152
H	 0.6832350629	 2.0582390089	 0.3175093371	 0.128545
H	-0.0892015486	 1.8049257982	-1.2479687027	 0.119973
H	-1.0683152025	 1.777236804	 0.2272693188	 0.111676
H	-0.6156855315	-0.5826872552	-0.6281248252	 0.068379
H	 1.6014049842	-1.3323056305	-0.6837433552	 0.225033
H	 1.6131315767	 1.0469147338	 2.0349199689	 0.127638
H	 0.4190647805	 0.1958529148	 3.0348538069	 0.102882
H	 2.0404758893	-0.488712562	 2.78718051	 0.140427
H	-0.5644574757	-2.0678575281	 2.1335218077	 0.117527
H	-0.2412645738	-2.5235482982	 0.4810868066	 0.117619
H	 0.2693710815	-4.2498061586	 3.3269216693	 0.142818
H	 0.0244732632	-4.850399845	 1.6912820975	 0.133653
H	 1.5968943365	-5.1141506868	 2.5086449431	 0.144096
37.0651	73.5137	119.1033	129.4446	165.3487	175.419	235.6863	267.7935	302.7911	348.5492	408.6676	470.629	473.2351	500.5997	598.9053	737.6061	768.565	819.1757	844.6084	871.6723	951.1172	965.8068	987.1425	1008.5744	1037.5309	1081.6583	1099.7765	1110.2022	1150.7872	1178.0922	1216.0967	1237.128	1282.6487	1362.0651	1366.9871	1383.4264	1409.6104	1416.573	1440.2635	1458.4929	1463.639	1477.1921	1480.1835	1491.9871	1500.0273	1515.7141	1813.5322	3005.5207	3033.7449	3035.53	3036.1289	3040.226	3083.8829	3091.9149	3096.097	3107.8549	3132.8184	3144.3187	3152.4334	3507.3325
CC1NC1(C)CC(C)=O	C[C@H]1N[C@]1(C)CC(=O)C	
InChI=1S/C7H13NO/c1-5(9)4-7(3)6(2)8-7/h6,8H,4H2,1-3H3	InChI=1S/C7H13NO/c1-5(9)4-7(3)6(2)8-7/h6,8H,4H2,1-3H3/t6-,7-/m1/s1
