21
gdb 40245	2.69327	1.58835	1.2171	2.16	82.25	-0.2325	0.0664	0.2989	1094.7001	0.186443	-383.236847	-383.229205	-383.22826	-383.268726	31.337	
C	 0.0980193659	 1.4948190369	-0.0401239043	-0.301718
N	 1.2843649717	 0.6161278213	 0.0231165019	-0.360461
C	-0.0701815916	 0.022782856	 0.0046214057	 0.394948
C	-0.4660993567	-0.6925689464	 1.2829587265	-0.271816
C	 0.0192380659	-2.1487263292	 1.230314325	-0.205467
C	-0.6430202939	-2.9459312989	 0.0904983857	-0.20019
C	-0.7555045235	-2.1583859078	-1.2105898596	-0.031612
N	-1.871033541	-1.1933612874	-1.2839686968	-0.340021
C	-0.4875143055	-0.6906762297	-1.2469431159	-0.114043
H	-0.077775928	 2.0874913631	 0.8539923205	 0.115214
H	-0.1206324731	 2.0118114699	-0.9718464758	 0.104122
H	 1.7104742514	 0.5493398388	-0.8993820166	 0.222053
H	-0.0164655057	-0.1696337137	 2.1317073243	 0.099797
H	-1.5552946366	-0.6565488447	 1.397600535	 0.111772
H	 1.106770262	-2.1373521156	 1.0872109818	 0.106793
H	-0.1675478146	-2.6503928276	 2.1854668458	 0.090171
H	-0.0738863735	-3.8643817907	-0.0908044914	 0.093051
H	-1.6525913852	-3.2537378974	 0.3864100911	 0.109048
H	-0.5333884903	-2.7134836551	-2.1195246849	 0.081694
H	-2.2373360279	-1.1405899358	-2.2303893589	 0.22948
H	-0.0777590398	-0.2716478762	-2.1664957791	 0.067185
96.2929	200.9244	235.0131	300.2926	356.6583	380.2236	440.8896	465.7794	515.2708	644.701	713.4469	777.8672	813.3291	850.9244	869.0307	890.9532	918.9464	931.4189	936.6283	960.4623	980.1483	999.552	1063.7465	1068.5236	1081.8741	1124.7028	1132.777	1161.6293	1174.3988	1203.5875	1233.0632	1256.7676	1268.8858	1286.2844	1328.2332	1333.5824	1373.4194	1379.6354	1395.2337	1418.9599	1461.6989	1478.2423	1480.5914	1498.0051	1514.9439	3029.7931	3033.5051	3044.7174	3067.4976	3081.3091	3095.0408	3097.258	3099.7762	3125.8058	3182.742	3478.1989	3506.0224
C1NC11CCCC2NC12	C1N[C@]21CCC[C@H]1N[C@@H]21	
InChI=1S/C7H12N2/c1-2-5-6(9-5)7(3-1)4-8-7/h5-6,8-9H,1-4H2	InChI=1S/C7H12N2/c1-2-5-6(9-5)7(3-1)4-8-7/h5-6,8-9H,1-4H2/t5-,6-,7+/m1/s1
