14
gdb 130223	3.51433	1.15365	0.87602	1.8394	67.84	-0.2156	-0.0089	0.2067	1232.6289	0.102408	-466.176523	-466.168136	-466.167192	-466.210284	29.525	
N	 0.012689896	 1.3765790592	 0.2314665227	-0.599382
C	 0.0426791438	 0.0044751927	 0.0502294388	 0.258078
N	-1.0290399563	-0.7819553751	 0.1123115695	-0.273213
N	-0.5224313146	-2.0101126315	-0.042183887	-0.097241
N	 0.7916630579	-2.0911653231	-0.2177881261	-0.288071
C	 1.1692798645	-0.8224573433	-0.1540452137	 0.354735
O	 2.4382593293	-0.3680371881	-0.3114178718	-0.226461
C	 3.4719833093	-1.2040091584	 0.0042151401	 0.112963
N	 4.6431153017	-0.838344787	-0.2721089712	-0.430205
H	 0.7610209037	 1.8597629405	-0.2455193799	 0.264623
H	-0.8891096155	 1.7850861942	 0.0284196768	 0.260581
H	-1.1064345505	-2.8276738383	-0.0349971889	 0.294431
H	 3.1400876965	-2.1272723001	 0.4852399996	 0.130791
H	 5.3082589342	-1.5427576816	 0.0408911411	 0.238369
58.0901	94.9957	153.1032	238.8292	262.1684	279.0391	304.0219	419.7098	476.7661	539.7265	652.2315	684.9499	715.6065	770.055	827.25	867.0726	977.6764	1043.6259	1049.5612	1099.1408	1192.0645	1232.7583	1276.906	1299.9911	1406.6102	1423.4336	1472.3407	1584.6305	1606.1526	1654.2616	1748.5482	3104.8309	3520.0331	3558.8972	3659.5507	3697.5055
NC1=NNN=C1OC=N	Nc1n[nH]nc1O[CH][NH]	
InChI=1S/C3H5N5O/c4-1-9-3-2(5)6-8-7-3/h1,4H,(H3,5,6,7,8)	InChI=1S/C3H5N5O/c4-1-9-3-2(5)6-8-7-3/h1,4H,(H3,5,6,7,8)
