18
gdb 35550	2.52473	1.58967	1.44465	3.9501	73.89	-0.271	0.0186	0.2897	998.1464	0.14971	-401.957141	-401.949541	-401.948597	-401.989572	29.176	
N	 0.7483088655	-0.9284813728	 0.3971160211	-0.335225
C	 0.3661271156	 0.1510000239	 0.2393870439	 0.282354
C	-0.1393207759	 1.527426952	 0.0274251003	-0.045111
C	-0.8320854954	 2.1022440171	 1.2889668862	-0.258136
C	 0.2987808842	 2.8514764175	 2.000795384	-0.029451
C	 1.328362882	 2.0109696391	 2.8173561587	-0.244798
C	 2.4148608285	 2.2876396013	 1.7365717101	-0.24207
C	 1.3723494834	 3.0707775308	 0.892182385	 0.109656
O	 0.9066256743	 2.4272074672	-0.2944899189	-0.248974
H	-0.8154932141	 1.4907627166	-0.8325199022	 0.133968
H	-1.6104766294	 2.7987879999	 0.9658593205	 0.118677
H	-1.2972801079	 1.3255929108	 1.8997738774	 0.129788
H	-0.0618256728	 3.7473784244	 2.5074188938	 0.079596
H	 1.5512662393	 2.4183923606	 3.8054121064	 0.105883
H	 1.0604237142	 0.9584292858	 2.9346066934	 0.122473
H	 3.2441391907	 2.909467022	 2.0820681346	 0.105084
H	 2.8235662976	 1.4092920526	 1.234029985	 0.130644
H	 1.6435579901	 4.0893053812	 0.6077040708	 0.085641
83.9524	99.6273	184.0354	256.837	343.8876	401.9629	477.9814	569.1663	624.9729	735.1545	740.5111	751.5736	807.4887	843.6019	881.2608	908.5903	950.8358	961.9757	986.2281	993.6237	1051.3551	1073.3136	1116.4253	1131.7111	1198.8197	1213.2698	1221.4142	1250.2065	1263.9744	1278.1955	1286.3611	1322.4736	1337.3408	1360.2957	1372.8017	1469.5652	1483.0402	1493.9708	2349.0974	3061.0557	3068.5124	3070.9249	3072.4348	3088.0956	3102.4158	3117.1896	3122.0084	3135.4748
N#CC1CC2CCC2O1	N#C[C@H]1C[C@H]2CC[C@H]2O1	
InChI=1S/C7H9NO/c8-4-6-3-5-1-2-7(5)9-6/h5-7H,1-3H2	InChI=1S/C7H9NO/c8-4-6-3-5-1-2-7(5)9-6/h5-7H,1-3H2/t5-,6-,7-/m1/s1
