18
gdb 89617	3.99107	1.11805	0.95688	2.3883	73.03	-0.2497	0.0092	0.2589	1244.8379	0.146668	-439.090313	-439.081461	-439.080517	-439.123842	33.265	
C	-0.0241445706	 1.5797362261	 0.094553569	-0.406166
C	 0.0381165532	 0.0655324463	 0.2298305798	 0.003463
C	 0.6501771401	-0.7741901362	-0.955603276	-0.322096
C	 1.7069265088	-1.3044482772	 0.0139756768	 0.354507
O	 2.4079618609	-0.1740191753	 0.5675210701	-0.298441
C	 1.1397039168	-0.5172520539	 1.1343739712	-0.05243
C	 2.3625832108	-2.6474720067	 0.0134579804	 0.281838
N	 3.4885142875	-2.7138069803	 0.7745720198	-0.539758
O	 1.8833411915	-3.582935477	-0.5997284822	-0.364831
H	 0.9652638481	 1.9828953952	-0.1392557623	 0.133175
H	-0.7103155336	 1.8715199212	-0.7071625525	 0.11934
H	-0.3745953848	 2.0477242693	 1.0209633385	 0.115533
H	-0.9353438247	-0.3446221542	 0.5153519748	 0.087088
H	-0.0123822847	-1.5629204822	-1.3126453437	 0.136073
H	 1.048058605	-0.2084939992	-1.801347053	 0.109614
H	 1.1201288827	-0.7342316962	 2.1971053223	 0.108521
H	 3.9031424748	-1.8650851058	 1.1214129324	 0.271717
H	 4.0163275182	-3.570606884	 0.7750755748	 0.262853
79.1278	109.141	152.6954	231.1659	237.7937	303.692	326.397	386.8324	412.9326	499.9449	581.6761	606.2954	654.6658	712.4791	756.8498	805.7737	859.2188	906.897	916.3329	928.3125	1001.2089	1043.0852	1092.6216	1097.9297	1113.1668	1156.9879	1189.6141	1227.7132	1245.0213	1272.9448	1344.5436	1358.0676	1404.155	1447.7935	1476.5328	1492.6246	1503.0181	1599.1707	1794.2611	3033.9629	3064.0832	3076.9844	3098.0472	3117.3164	3146.8705	3178.4997	3598.092	3737.1867
CC1CC2(OC12)C(N)=O	C[C@H]1C[C@]2(O[C@@H]12)C(=O)N	
InChI=1S/C6H9NO2/c1-3-2-6(5(7)8)4(3)9-6/h3-4H,2H2,1H3,(H2,7,8)	InChI=1S/C6H9NO2/c1-3-2-6(5(7)8)4(3)9-6/h3-4H,2H2,1H3,(H2,7,8)/t3-,4-,6+/m0/s1
