13
gdb 5294	5.16926	1.62643	1.23717	4.2402	61.13	-0.2369	-0.0012	0.2357	896.2905	0.098289	-394.860525	-394.853547	-394.852603	-394.891941	25.442	
N	-0.1019957004	 1.3167178196	 0.0088627156	-0.540171
C	 0.0540145885	-0.0342514029	 0.0025102774	 0.316292
O	 1.1354008754	-0.6002784272	-0.0088835435	-0.379909
C	-1.2279287296	-0.7780142152	 0.0110947161	 0.208775
C	-1.3733430326	-2.1421698662	 0.0079689041	-0.152521
N	-2.7269147586	-2.359003716	 0.0187623728	-0.241168
C	-3.3398734963	-1.1368405188	 0.0278704139	 0.011626
N	-2.4643426896	-0.1625406959	 0.0235519202	-0.325592
H	 0.714680944	 1.9023818788	 0.0024102988	 0.25718
H	-1.0259264817	 1.7156702585	 0.0169455556	 0.271319
H	-0.6485345663	-2.937337543	-0.0007308492	 0.161363
H	-3.184166401	-3.2557011211	 0.0197758343	 0.274201
H	-4.4142629819	-1.0304755708	 0.0373171639	 0.138603
85.4797	183.3899	195.7833	223.0804	400.1886	511.715	554.8487	599.9671	654.1025	665.3339	691.9959	768.0833	809.4817	848.7057	948.5114	968.9061	1085.983	1089.4323	1130.5116	1219.072	1253.751	1348.6299	1391.3006	1445.4117	1532.3904	1579.4642	1612.8669	1781.903	3253.8952	3297.0854	3601.7149	3663.7527	3746.9495
NC(=O)C1=CNC=N1	NC(=O)c1c[nH]cn1	
InChI=1S/C4H5N3O/c5-4(8)3-1-6-2-7-3/h1-2H,(H2,5,8)(H,6,7)	InChI=1S/C4H5N3O/c5-4(8)3-1-6-2-7-3/h1-2H,(H2,5,8)(H,6,7)
