18
gdb 66119	2.61247	1.47669	1.31618	3.3457	74.96	-0.2876	0.015	0.3027	1046.4953	0.14869	-401.960203	-401.952126	-401.951182	-401.992576	31.602	
O	-0.0431342112	 1.3754404935	-0.0221830015	-0.459459
C	 0.0138311467	-0.041873044	 0.0050658932	 0.251977
C	 0.6739278922	-0.613353161	 1.2974447959	-0.298719
C	-0.0277616725	-1.9600226463	 1.5610925647	-0.226068
C	-1.422549409	-1.7908399739	 0.9701257631	-0.020397
C	-2.1661533405	-0.5221489347	 1.2969853208	-0.312921
C	-1.3937223925	-0.6256782383	 0.0057763547	-0.031491
C	 0.7405829775	-0.5298067673	-1.1913155069	 0.235884
N	 1.3345126636	-0.8948144358	-2.113566799	-0.34088
H	 0.8564310618	 1.7169650563	-0.0844349164	 0.290037
H	 1.7579629223	-0.7063414162	 1.202603114	 0.117936
H	 0.4727298354	 0.1079999218	 2.0939495588	 0.122463
H	 0.4920675329	-2.7691042851	 1.0366392036	 0.121067
H	-0.0366275585	-2.2157269337	 2.6257299925	 0.108218
H	-1.9964476616	-2.6807198974	 0.7390671092	 0.092348
H	-3.2460720012	-0.5422718406	 1.2049465182	 0.120606
H	-1.8051246496	 0.1318809774	 2.0827870003	 0.123138
H	-1.9295050657	-0.6352679248	-0.9349554853	 0.106262
99.8557	145.8311	207.6966	269.2749	303.3408	340.5516	395.6326	453.8236	483.4366	555.9689	639.0378	652.9788	706.1649	808.0778	826.9824	843.6938	910.7477	952.9163	960.1105	988.8512	1021.5618	1057.2116	1072.697	1084.4244	1113.5544	1133.1896	1148.8023	1207.5824	1224.0331	1226.3968	1307.893	1318.632	1340.949	1385.2252	1399.9472	1484.532	1492.1165	1509.6504	2347.4291	3043.4908	3067.5529	3082.2069	3118.0669	3141.3536	3176.7121	3193.2044	3224.0344	3799.7664
OC1(CCC2CC12)C#N	O[C@]1(CC[C@H]2C[C@@H]12)C#N	
InChI=1S/C7H9NO/c8-4-7(9)2-1-5-3-6(5)7/h5-6,9H,1-3H2	InChI=1S/C7H9NO/c8-4-7(9)2-1-5-3-6(5)7/h5-6,9H,1-3H2/t5-,6+,7+/m0/s1
