18
gdb 119824	4.81752	0.74377	0.6745	2.8857	75.87	-0.2103	-0.0007	0.2096	1613.038	0.147336	-439.12785	-439.118672	-439.117728	-439.162653	33.109	
O	-0.1077877732	 1.4615783782	-0.0692981133	-0.417295
C	 0.0236269364	 0.0505451087	-0.1171220761	-0.064279
C	-1.3620823022	-0.5481051631	 0.1426876848	-0.293792
C	-1.3866118734	-2.0417604363	 0.095266914	 0.252802
C	-1.6338906041	-2.8821095711	 1.1084650851	-0.117806
N	-1.5841645549	-4.2242385813	 0.6981220571	-0.320381
C	-1.3024205923	-4.3335450173	-0.6517556203	 0.422019
O	-1.202757863	-5.3612156818	-1.2801811423	-0.368817
C	-1.1486141502	-2.8822774337	-1.1416081219	-0.452626
H	 0.755903876	 1.851588913	-0.2317620042	 0.287463
H	 0.3976886111	-0.2823187559	-1.098564224	 0.08723
H	 0.7286691404	-0.3178937376	 0.6446513226	 0.089089
H	-1.70727819	-0.1989956438	 1.1221961719	 0.109671
H	-2.0494051944	-0.1238787626	-0.6019084272	 0.112056
H	-1.8600675351	-2.649134456	 2.1398535059	 0.125671
H	-1.7522142591	-5.0252211579	 1.2832158186	 0.260289
H	-1.8720273004	-2.6882676558	-1.9427778041	 0.145052
H	-0.1541968817	-2.7553376256	-1.5847351567	 0.143654
66.3244	81.2467	88.6274	152.0108	260.9256	285.7882	327.9115	349.4477	429.2369	490.5173	497.4543	582.5457	635.1409	766.753	796.9365	845.3877	863.8032	912.8664	948.9426	1007.8324	1046.4654	1079.722	1094.9616	1148.463	1182.4709	1206.1108	1225.7517	1238.402	1296.1909	1306.9879	1342.3944	1365.6659	1401.4628	1433.552	1455.4906	1482.3362	1527.0551	1708.0238	1838.5499	2967.4098	2995.1401	3017.5518	3042.431	3073.2335	3074.8542	3231.7607	3668.6296	3832.4373
OCCC1=CNC(=O)C1	OCCC1=CNC(=O)C1	
InChI=1S/C6H9NO2/c8-2-1-5-3-6(9)7-4-5/h4,8H,1-3H2,(H,7,9)	InChI=1S/C6H9NO2/c8-2-1-5-3-6(9)7-4-5/h4,8H,1-3H2,(H,7,9)
