17
gdb 16629	2.99047	2.32655	1.52999	3.9115	67.49	-0.2378	-0.0123	0.2256	850.5603	0.143155	-363.874449	-363.867264	-363.86632	-363.905816	27.708	
C	 0.1814635673	 1.6205774662	-0.0275061138	-0.396584
C	 0.0872761094	 0.094981115	-0.0136955406	-0.086074
C	 0.7167913799	-0.6292602844	-1.1868774055	-0.051169
N	 2.1911390811	-0.5346182853	-1.1790100291	-0.334379
C	 1.5399610095	-1.7731304109	-0.703071422	-0.044378
C	 1.4840875939	-1.8388211527	 0.8056323079	-0.316889
C	 0.7898929357	-0.5281149753	 1.2134254918	 0.388755
O	 0.7831902937	-0.056838764	 2.319672755	-0.313829
H	 1.2127186503	 1.9290710294	-0.219325645	 0.13698
H	-0.460218122	 2.0514418524	-0.8018868479	 0.106529
H	-0.1233285164	 2.0198369827	 0.9432025984	 0.136451
H	-0.9691935441	-0.2068719586	 0.0601066097	 0.098464
H	 0.1979712721	-0.6723214213	-2.139131488	 0.088291
H	 2.551220839	-0.6727331149	-2.1194830278	 0.234707
H	 1.6422015963	-2.6808495784	-1.2879765413	 0.091302
H	 0.8741611694	-2.6836272165	 1.1507882101	 0.124532
H	 2.4618940151	-1.9129171235	 1.288176308	 0.137292
84.0597	207.2581	214.3083	250.4587	361.8517	465.5149	477.5515	560.546	617.8679	673.5813	741.4335	819.0262	850.6055	863.0903	915.1319	935.5336	975.1146	1017.4883	1062.8191	1085.9068	1108.9984	1125.5444	1152.4588	1163.7849	1194.986	1234.0919	1289.9762	1296.6793	1324.8198	1378.1442	1399.5825	1427.524	1444.8524	1492.989	1504.5403	1848.9824	2995.4138	3038.7022	3044.6869	3105.7774	3116.4185	3129.5552	3158.4857	3170.8649	3510.8255
CC1C2NC2CC1=O	C[C@H]1[C@H]2N[C@H]2CC1=O	
InChI=1S/C6H9NO/c1-3-5(8)2-4-6(3)7-4/h3-4,6-7H,2H2,1H3	InChI=1S/C6H9NO/c1-3-5(8)2-4-6(3)7-4/h3-4,6-7H,2H2,1H3/t3-,4+,6-/m1/s1
