19
gdb 63416	3.48383	0.9941	0.95006	3.3579	78.54	-0.2442	-0.029	0.2151	1302.0153	0.157187	-423.047362	-423.03807	-423.037126	-423.082627	34.325	
C	 0.3081352188	 1.4641300409	-0.0905633078	-0.444268
C	-0.029332867	-0.0265110923	 0.0276370919	 0.372928
O	-1.4516399362	-0.193124081	 0.1149002811	-0.467326
C	 0.4443572426	-0.8677609833	-1.1918648556	-0.297091
C	 1.4726451751	-1.9130472504	-0.6755579534	-0.109777
C	 2.872824021	-1.6408782165	-1.2041438318	 0.156924
O	 3.6240995338	-2.4725742118	-1.6391482409	-0.248285
C	 1.4476905323	-1.7108313097	 0.8257399391	-0.10109
C	 0.6728831909	-0.6943884346	 1.1921752136	-0.111549
H	 1.3829197922	 1.618840424	-0.2255569085	 0.121977
H	-0.2211013903	 1.9021512832	-0.9423531998	 0.128137
H	 0.0077228096	 2.0055297629	 0.8149741784	 0.106114
H	-1.7766381157	 0.3750219686	 0.8219798182	 0.274822
H	-0.4244302784	-1.3679126173	-1.6221850383	 0.133999
H	 0.8720735341	-0.2299333049	-1.9717203815	 0.104749
H	 1.2219351354	-2.9418924088	-0.9534440191	 0.100594
H	 3.1716408343	-0.5668294117	-1.1389076436	 0.070804
H	 2.0287158507	-2.3388308714	 1.4921991972	 0.113123
H	 0.5141346969	-0.3643299857	 2.2144111806	 0.095215
20.2292	67.1151	159.789	255.2265	259.7585	284.3939	322.0255	339.1115	385.4691	407.9006	473.7053	545.1949	635.3178	763.4299	791.3558	812.0259	856.9488	923.9635	930.9423	953.7851	984.6684	995.1156	1028.8631	1067.4315	1102.6709	1134.2702	1153.9292	1192.2021	1243.0641	1263.7021	1299.5241	1302.7412	1354.4431	1385.9671	1402.5285	1419.7975	1479.1688	1489.9526	1493.1128	1685.3379	1834.1203	2841.6515	3024.5028	3057.9548	3060.5807	3092.7602	3115.2517	3124.4887	3173.5524	3203.4001	3802.7022
CC1(O)CC(C=O)C=C1	C[C@@]1(O)C[C@@H](C=O)C=C1	
InChI=1S/C7H10O2/c1-7(9)3-2-6(4-7)5-8/h2-3,5-6,9H,4H2,1H3	InChI=1S/C7H10O2/c1-7(9)3-2-6(4-7)5-8/h2-3,5-6,9H,4H2,1H3/t6-,7-/m0/s1
