19
gdb 120716	2.97949	0.84467	0.79307	1.6313	73.59	-0.2503	-0.0277	0.2226	1536.8029	0.155123	-460.142237	-460.131929	-460.130985	-460.17898	35.174	
C	-1.1235632888	 1.0165542803	-0.724015034	-0.227589
O	-0.5628521351	-0.2499151199	-0.4656205958	-0.232953
C	 0.6769434232	-0.4410595602	-1.1050757775	-0.094454
C	 1.1967946078	-1.795820089	-0.7058823374	 0.067531
O	 0.8202256482	-2.9382428912	-1.4744096078	-0.24283
C	 2.1942724652	-2.5538184748	-1.4869501621	-0.058668
C	 2.8043054504	-2.0476215397	-2.7769498779	 0.336326
C	 1.9828095371	-2.1749555684	-4.0405707511	-0.477745
O	 3.9363388153	-1.6214498225	-2.7589363669	-0.297403
H	-0.4651834678	 1.83123642	-0.3833024464	 0.107484
H	-1.3243337254	 1.1632748792	-1.7968560456	 0.107966
H	-2.0675639073	 1.0713377031	-0.1774105285	 0.133416
H	 0.5748055153	-0.3660133125	-2.198290752	 0.095826
H	 1.4034833871	 0.3281163973	-0.7881533455	 0.10383
H	 1.1803986151	-1.9634700112	 0.371662505	 0.112453
H	 2.8725793432	-3.1981661144	-0.9264116216	 0.121244
H	 0.9554103199	-1.8343306191	-3.8973563706	 0.15094
H	 2.4699052752	-1.6339003798	-4.8524473131	 0.140676
H	 1.9143637612	-3.2383997172	-4.3026646512	 0.153952
52.0165	67.8892	84.9725	96.4444	128.9739	202.0949	226.4642	241.0433	350.2246	425.4742	464.8195	483.4945	521.0706	619.9946	755.9801	830.5266	907.7981	975.9701	986.4744	994.8945	1024.6163	1075.4435	1112.6167	1141.5432	1167.2018	1186.0549	1228.505	1238.6171	1267.873	1287.7305	1356.4918	1383.8003	1398.9125	1457.1507	1462.9262	1474.0982	1484.8605	1486.5583	1496.6691	1519.3217	1806.6822	2954.175	2973.3873	3008.3287	3018.2615	3040.9422	3105.8908	3113.1056	3118.1677	3120.8514	3163.5197
COCC1OC1C(C)=O	COC[C@H]1O[C@H]1C(=O)C	
InChI=1S/C6H10O3/c1-4(7)6-5(9-6)3-8-2/h5-6H,3H2,1-2H3	InChI=1S/C6H10O3/c1-4(7)6-5(9-6)3-8-2/h5-6H,3H2,1-2H3/t5-,6+/m1/s1
