19
gdb 35284	3.39384	0.91607	0.81587	3.2455	81.01	-0.2559	0.013	0.2689	1440.7272	0.159325	-382.035566	-382.026719	-382.025775	-382.070022	32.543	
N	-0.3809288095	-1.0276863057	-0.4503814251	-0.337882
C	-0.2309334476	 0.1040143314	-0.2620045389	 0.285459
C	-0.0558123406	 1.5230887154	-0.0630296444	-0.150003
C	 0.7119837644	 1.9959332894	 1.1387365742	-0.231982
N	 1.2660041363	 2.1479200092	-0.1892409333	-0.073844
C	 2.4098986358	 1.3067345791	-0.557907314	-0.175669
C	 3.7038133719	 2.0072497518	-0.2215463873	 0.029719
C	 4.3551152392	 1.8206227063	 1.1274296191	-0.256357
C	 4.9753552046	 1.2076252756	-0.1027966899	-0.275656
H	-0.8794600217	 2.1213954543	-0.4428545741	 0.139261
H	 0.3956026612	 2.9056376802	 1.6408616225	 0.133272
H	 1.1210455928	 1.2230828834	 1.786708307	 0.132608
H	 2.3785320903	 0.3197805512	-0.067218232	 0.103981
H	 2.342360295	 1.1307953867	-1.637849508	 0.120431
H	 3.7927423848	 2.995149744	-0.6636320555	 0.096031
H	 4.8445697246	 2.673483477	 1.5839267866	 0.115838
H	 3.8812785187	 1.1497410872	 1.8366546012	 0.110396
H	 4.9101145426	 0.1304793506	-0.2174794742	 0.117438
H	 5.8896453572	 1.6392747429	-0.4937148541	 0.11696
55.3598	88.1247	99.0744	191.8888	217.8904	311.0279	352.7208	376.507	441.6655	557.5229	628.2061	755.8272	776.3902	812.2362	828.5943	849.607	906.0583	916.9762	961.3435	1013.0499	1026.776	1050.5078	1061.6934	1082.9156	1118.4035	1122.1889	1137.0254	1143.3958	1198.0486	1200.6597	1227.6945	1297.7098	1315.5785	1358.1371	1369.961	1429.5288	1469.3723	1488.0985	1503.9974	1513.9544	2348.6699	2970.9146	3057.9623	3102.1609	3131.6597	3136.2595	3147.7521	3154.7184	3194.3806	3210.2036	3225.0271
N#CC1CN1CC1CC1	N#C[C@H]1CN1CC1CC1	
InChI=1S/C7H10N2/c8-3-7-5-9(7)4-6-1-2-6/h6-7H,1-2,4-5H2	InChI=1S/C7H10N2/c8-3-7-5-9(7)4-6-1-2-6/h6-7H,1-2,4-5H2/t7-,9?/m0/s1
