17
gdb 65647	3.14959	1.39144	1.21568	2.7215	68.43	-0.2515	-0.0324	0.2191	1046.2365	0.134986	-458.931883	-458.923942	-458.922998	-458.964726	30.041	
O	 0.1007643702	 1.3252479582	 0.6637619565	-0.482124
C	 0.1505797835	 0.0200639345	 0.1698529351	 0.301447
C	 0.396816097	-1.1584967439	 1.1707970605	-0.307931
C	-1.0200111726	-1.7198438934	 0.8996816392	-0.064103
C	-2.1357495783	-1.0354865214	 1.7098939638	-0.090792
O	-2.2479712778	 0.0440291686	 0.7320629885	-0.302996
C	-1.2808938887	-0.5873409438	-0.1256340464	 0.039422
C	 1.0377679716	 0.0010282125	-1.0548791759	 0.120958
O	 1.6088637526	-0.9761909974	-1.4686587406	-0.25802
H	-0.8034876529	 1.4430141653	 0.997237028	 0.293128
H	 1.193061361	-1.8138752547	 0.812269911	 0.134487
H	 0.6047424592	-0.8441670192	 2.1960404172	 0.107665
H	-1.1278845569	-2.7797863697	 0.6804788201	 0.091867
H	-3.0777749161	-1.5910517589	 1.7678178921	 0.119222
H	-1.867772672	-0.663752673	 2.7051866925	 0.114222
H	-1.6241839356	-0.6869225505	-1.1572428244	 0.089976
H	 1.0882240557	 0.9853741868	-1.5690078573	 0.093571
74.9211	91.6527	223.831	229.5034	310.2996	370.2	391.954	468.4428	557.5762	595.6866	663.2501	768.6278	798.2777	845.7745	872.3527	901.6437	916.3494	976.5218	997.9224	1016.8178	1049.2917	1067.8128	1141.0249	1158.6725	1167.4171	1207.4385	1217.2587	1236.7877	1257.7531	1281.6278	1316.5069	1354.6749	1379.9288	1413.5674	1458.6755	1519.4684	1822.4655	2906.0826	3031.1204	3068.5815	3082.5667	3092.1627	3131.064	3140.0088	3678.5403
OC1(CC2COC12)C=O	O[C@]1(C[C@H]2CO[C@@H]12)C=O	
InChI=1S/C6H8O3/c7-3-6(8)1-4-2-9-5(4)6/h3-5,8H,1-2H2	InChI=1S/C6H8O3/c7-3-6(8)1-4-2-9-5(4)6/h3-5,8H,1-2H2/t4-,5+,6+/m0/s1
