14
gdb 27218	3.51821	1.64543	1.12899	1.5713	70.56	-0.2107	-0.0225	0.1882	1002.4513	0.10291	-436.713936	-436.707109	-436.706164	-436.745361	25.793	
C	 0.0831770317	 1.5093387149	-0.0003315242	-0.499431
C	-0.072349253	 0.0347728634	 0.0321651656	 0.213439
C	-1.0981038123	-0.8481065716	-0.0479800822	 0.203177
O	-2.4597748669	-0.9151760387	-0.191125606	-0.227818
C	-2.6904986318	-2.277097307	-0.1704522888	 0.046642
N	-1.6788166707	-3.0607920492	-0.0363678135	-0.341814
C	-0.6002859762	-2.1725585637	 0.049230671	 0.18849
C	 0.7491020465	-2.0628161863	 0.1896499216	-0.12289
O	 1.0650677324	-0.7304400876	 0.1790560118	-0.190174
H	 0.7193680483	 1.8305633939	-0.8327936491	 0.143319
H	-0.8969043983	 1.9765826126	-0.120376475	 0.142409
H	 0.5320086531	 1.8891162441	 0.9244663007	 0.143319
H	-3.7277289838	-2.5616610981	-0.2717249543	 0.154067
H	 1.5742973309	-2.7435347867	 0.3004151123	 0.147266
104.4395	175.4439	247.6522	284.4415	373.067	540.6409	596.6352	599.24	619.7772	699.705	700.0378	766.5248	817.2385	883.3204	915.0607	943.6657	1053.4057	1063.1969	1104.4249	1139.7088	1149.6404	1250.1849	1288.4155	1331.8317	1414.0147	1424.266	1472.1045	1492.961	1567.6272	1623.9757	1730.735	3029.877	3080.837	3128.3797	3263.8235	3295.7656
CC1=C2OC=NC2=CO1	Cc1c2ocnc2co1	
InChI=1S/C6H5NO2/c1-4-6-5(2-8-4)7-3-9-6/h2-3H,1H3	InChI=1S/C6H5NO2/c1-4-6-5(2-8-4)7-3-9-6/h2-3H,1H3
