19
gdb 31762	5.20094	1.02805	0.88077	1.4587	86.53	-0.1675	0.0506	0.2181	1337.4032	0.161318	-382.060122	-382.051796	-382.050851	-382.093119	31.602	
C	 0.0648299188	 1.4196590161	 0.0893019094	-0.316317
N	 0.0342306903	-0.0256024885	 0.2056638457	-0.373403
C	-1.1866478953	-0.6681319825	-0.0221134167	 0.322033
C	-2.4481124709	-0.0797320317	-0.0058592243	-0.246717
N	-3.3433009018	-1.1297862354	-0.0714610862	 0.005273
C	-4.6078953482	-1.6246636261	-0.6505267575	-0.169951
C	-3.9312339105	-3.0443817246	-0.7043152748	-0.359466
C	-2.6832881952	-2.310314929	-0.2438397972	 0.331322
C	-1.3284948297	-2.0890558072	-0.2182527436	-0.436063
H	 1.0940034161	 1.7701626243	 0.2002441146	 0.115572
H	-0.3357524172	 1.7957087658	-0.8674978208	 0.10299
H	-0.5272546428	 1.8682935477	 0.8954247789	 0.127225
H	 0.7965424202	-0.4730189295	-0.2833789419	 0.228231
H	-2.7476278956	 0.9377015127	 0.1790044228	 0.105878
H	-5.4774965276	-1.5044035432	 0.0022844215	 0.116053
H	-4.8285545415	-1.2088565877	-1.6387732037	 0.122137
H	-4.3470267579	-3.7828135117	-0.013174094	 0.118389
H	-3.8861597965	-3.4808382275	-1.705312679	 0.121023
H	-0.5233444848	-2.8028224819	-0.3014148434	 0.085792
84.1232	116.1978	175.9508	216.5741	230.0251	315.1333	377.3068	503.3049	538.5859	617.5405	642.1841	671.1367	693.2477	746.0601	798.1365	821.507	831.443	923.9366	988.8222	1050.6021	1071.1199	1075.3391	1130.9419	1142.8662	1157.0336	1178.9643	1180.9184	1210.5025	1238.2152	1275.2391	1339.9333	1394.8174	1428.5708	1459.126	1479.381	1487.0177	1492.2545	1511.7583	1525.7726	1549.8083	1617.1967	2958.8293	3042.8872	3052.6134	3058.5398	3089.7398	3108.3874	3111.8574	3245.1311	3272.8568	3581.0878
CNC1=CN2CCC2=C1	CNc1cn2CCc2c1	
InChI=1S/C7H10N2/c1-8-6-4-7-2-3-9(7)5-6/h4-5,8H,2-3H2,1H3	InChI=1S/C7H10N2/c1-8-6-4-7-2-3-9(7)5-6/h4-5,8H,2-3H2,1H3
