22
gdb 101457	3.32812	0.98095	0.80939	1.4654	82.76	-0.2456	0.0234	0.269	1469.5127	0.19464	-404.37258	-404.362999	-404.362055	-404.407543	35.102	
C	-0.1256259178	 1.5762771638	-0.0308909402	-0.390478
C	-0.0661047114	 0.0463200679	-0.0913358471	-0.174432
C	 0.7663843157	-0.5182095258	-1.2594071972	 0.028319
C	 2.2454596144	-0.1220115488	-1.1633740133	-0.398509
C	 0.6190329077	-2.0503352655	-1.327942086	 0.018832
C	-0.8270000502	-2.5478183075	-1.6117256092	-0.125797
O	-0.6830367687	-3.4584905902	-2.729586825	-0.223428
C	 0.6171441005	-3.365483866	-3.0928276303	 0.115617
N	 1.4140527152	-2.6424004671	-2.4270847409	-0.276504
H	 0.8591179204	 2.0175648869	 0.1468187999	 0.122653
H	-0.5130724861	 1.9938131919	-0.9671129508	 0.114551
H	-0.7845262341	 1.9081348317	 0.7775536781	 0.1125
H	 0.3419515845	-0.3426020993	 0.852232546	 0.094626
H	-1.0929464655	-0.3362097111	-0.1553297191	 0.093493
H	 0.3597003011	-0.1149262174	-2.1993596086	 0.069222
H	 2.8161719347	-0.5754139983	-1.975629236	 0.141755
H	 2.3735831428	 0.9626364171	-1.2133770449	 0.109415
H	 2.6784036674	-0.4664192393	-0.2159161695	 0.106845
H	 0.9951802636	-2.4685721245	-0.3838216604	 0.084315
H	-1.2839088549	-3.0953846382	-0.7849460451	 0.122212
H	-1.5014437623	-1.742211663	-1.9220047091	 0.114642
H	 0.879038113	-3.9539319474	-3.9656429112	 0.14015
66.4014	80.9982	105.417	174.7225	209.9757	229.4943	295.3618	312.1309	380.7439	406.3747	455.0587	572.766	722.6262	777.106	834.8112	867.9649	886.7839	962.1051	965.5304	968.8325	984.4589	995.3029	1002.1325	1043.7333	1059.9488	1132.1644	1152.337	1177.7371	1185.3867	1231.0666	1273.7736	1306.5574	1310.6208	1325.8157	1351.685	1375.0617	1380.5156	1393.649	1409.1919	1416.9384	1484.0147	1493.832	1500.9143	1507.8564	1512.6748	1514.894	1710.061	2988.3206	3003.9676	3011.8684	3032.5152	3035.2592	3040.5543	3047.4895	3098.8518	3100.1674	3107.915	3113.5342	3137.6665	3211.5371
CCC(C)C1COC=N1	CC[C@@H](C)[C@H]1COC=N1	
InChI=1S/C7H13NO/c1-3-6(2)7-4-9-5-8-7/h5-7H,3-4H2,1-2H3	InChI=1S/C7H13NO/c1-3-6(2)7-4-9-5-8-7/h5-7H,3-4H2,1-2H3/t6-,7-/m1/s1
