17
gdb 124196	5.05976	0.80401	0.71181	2.9733	83.04	-0.2362	0.0247	0.2609	1573.0816	0.136567	-380.864154	-380.855199	-380.854255	-380.900479	30.883	
C	 0.2366947176	 1.3691373592	-0.667454012	-0.499
C	 0.0857678836	-0.0171022332	-0.2504789747	 0.091157
C	-0.0413918613	-1.1596127507	 0.1051357499	 0.034091
C	-0.1609262936	-2.5477050408	 0.5305664635	-0.27954
N	-1.4825261671	-3.1144360518	 0.278546933	 0.049818
C	-2.3591320618	-2.8167909361	-0.7116432714	-0.014846
C	-3.4094004151	-3.7034606836	-0.5890300639	-0.240252
C	-3.0616072177	-4.5082516495	 0.5141098306	-0.003163
N	-1.8899248019	-4.1522254976	 1.0365789197	-0.263648
H	 0.8604987827	 1.9262476613	 0.0397906641	 0.155711
H	 0.7044155617	 1.442139564	-1.655104794	 0.152243
H	-0.7348590868	 1.8721814352	-0.7189924121	 0.155552
H	 0.5985929098	-3.1617189177	 0.0279421604	 0.149913
H	 0.0129876108	-2.6470813852	 1.6063018598	 0.161478
H	-2.1705759872	-2.0068517325	-1.3967539952	 0.137736
H	-4.2968213262	-3.7496939707	-1.198951138	 0.102414
H	-3.6150367175	-5.3247848401	 0.9546153302	 0.110336
21.3097	30.7814	76.5539	185.5696	200.7464	266.1644	352.9346	377.8145	457.1673	622.563	667.5658	751.275	770.0258	790.283	837.9723	889.4512	934.2918	984.0061	992.104	1052.0282	1055.1126	1070.5637	1103.6923	1171.9327	1205.8118	1238.7307	1294.4784	1351.1575	1376.3897	1414.5351	1432.6708	1473.0595	1475.9255	1478.0993	1504.6542	1555.0436	2379.5671	3014.6072	3030.7473	3080.7872	3093.3261	3094.2433	3241.7456	3265.2283	3283.4692
CC#CCN1C=CC=N1	CC#CCn1cccn1	
InChI=1S/C7H8N2/c1-2-3-6-9-7-4-5-8-9/h4-5,7H,6H2,1H3	InChI=1S/C7H8N2/c1-2-3-6-9-7-4-5-8-9/h4-5,7H,6H2,1H3
