17
gdb 105556	1.95112	1.54145	1.28345	3.6838	73.94	-0.2639	-0.0019	0.2621	1105.202	0.133968	-421.819376	-421.810264	-421.80932	-421.853284	33.129	
C	-0.1193048273	 1.6026054777	-0.0168703043	-0.393283
C	 0.0733007723	 0.0855452667	 0.0383077345	-0.242598
C	 0.7693311334	-0.4885922519	-1.2163300616	-0.089127
C	 0.6473511108	-2.0276537577	-1.3953397423	-0.119122
O	-0.2428433376	-1.8411480785	-2.53953532	-0.2391
C	-0.1508761114	-0.4790108006	-2.4702327085	 0.454057
O	-0.670881755	 0.3288445524	-3.1665546188	-0.321922
C	 2.0955434532	 0.0578983711	-1.432369987	 0.302063
C	 3.1997953736	 0.4992267485	-1.6070048172	-0.449875
H	 0.8439523399	 2.1165908937	-0.076531794	 0.134585
H	-0.7101119225	 1.8896943824	-0.8908207422	 0.149086
H	-0.6379788719	 1.9522980824	 0.8802032697	 0.117285
H	 0.672674309	-0.1931708096	 0.912513884	 0.114502
H	-0.8976894444	-0.4133471549	 0.1438292969	 0.111224
H	 1.5608329323	-2.5429790428	-1.692897002	 0.138198
H	 0.1365650201	-2.5576186809	-0.5890152423	 0.128238
H	 4.1717246554	 0.8958469018	-1.7696371549	 0.205789
103.5434	113.6661	121.7049	162.5829	185.9904	267.0531	295.3671	373.7163	403.5467	518.0547	569.5754	634.9453	650.0546	669.1499	740.9435	782.2965	798.9812	906.8077	922.7512	973.4385	1013.0619	1050.447	1107.6307	1130.359	1156.5926	1179.057	1233.116	1309.733	1348.7403	1362.6803	1417.4522	1484.6758	1497.8747	1510.5409	1512.8184	1936.391	2236.4623	3028.9171	3048.7239	3070.1702	3077.8524	3120.0712	3129.0906	3148.3545	3500.1
CCC1(COC1=O)C#C	CC[C@]1(COC1=O)C#C	
InChI=1S/C7H8O2/c1-3-7(4-2)5-9-6(7)8/h1H,4-5H2,2H3	InChI=1S/C7H8O2/c1-3-7(4-2)5-9-6(7)8/h1H,4-5H2,2H3/t7-/m0/s1
