16
gdb 28815	3.46163	1.277	0.9433	4.4384	86.5	-0.2358	-0.0835	0.1523	1199.2305	0.12504	-400.785253	-400.777279	-400.776335	-400.818512	29.385	
C	-0.200431236	 1.5047038717	 0.0476670563	-0.486966
C	-0.0452435568	 0.0033003312	-0.0139036067	 0.257447
C	-0.1766156838	-0.6227339349	-1.2226427505	-0.05619
N	 0.0046205418	-1.9263546453	-1.5893888524	-0.232724
C	 0.1797795439	-2.9524316157	-0.8333022727	-0.048121
C	 0.187409617	-3.1292423374	 0.6449131873	 0.306144
O	 0.1370046968	-4.2664010034	 1.0963916768	-0.350954
C	 0.3328605735	-1.9708373888	 1.5266532115	-0.166746
C	 0.2433113971	-0.6513367136	 1.2327066951	-0.113341
H	 0.7249453601	 1.9798482583	 0.3945728058	 0.141425
H	-0.450496033	 1.9245368782	-0.9287185183	 0.135865
H	-0.9879406781	 1.7886461762	 0.7552463272	 0.140738
H	-0.4186862203	 0.0120929209	-2.0733033799	 0.108902
H	 0.3284118652	-3.9088472931	-1.3413369993	 0.132176
H	 0.5299178299	-2.2547013832	 2.5572711391	 0.12312
H	 0.3773896626	 0.0283213889	 2.0727867509	 0.109224
36.8778	135.3708	183.6283	283.2274	324.6464	342.7885	391.1126	418.3392	508.8777	608.9249	641.5479	655.6279	735.3622	840.8728	878.3118	923.8601	934.4827	980.2932	1014.7966	1045.1908	1066.2983	1118.0923	1209.3517	1248.2977	1306.571	1406.0966	1413.5959	1416.7903	1462.9138	1479.003	1495.3426	1551.5747	1657.7465	1660.2717	1717.5536	3028.8318	3080.7214	3102.4907	3127.2903	3138.7558	3140.5038	3174.0688
CC1=CN=CC(=O)C=C1	Cc1cncc(=O)cc1	
InChI=1S/C7H7NO/c1-6-2-3-7(9)5-8-4-6/h2-5H,1H3	InChI=1S/C7H7NO/c1-6-2-3-7(9)5-8-4-6/h2-5H,1H3
