18
gdb 99342	5.24787	0.65024	0.61718	7.2131	74.76	-0.2458	0.0156	0.2614	1780.1594	0.147049	-435.296263	-435.285896	-435.284952	-435.333494	34.874	
C	-0.0847620261	 1.1996782111	 0.5710460333	-0.334875
N	-0.1412259473	-0.1160728419	-0.0404678476	-0.308996
C	-1.2992650773	-0.8100528853	-0.1970657435	 0.401633
O	-2.3872046004	-0.4130392441	 0.1869962175	-0.375557
C	-1.1602391752	-2.1563048257	-0.9372234117	-0.289138
N	-2.3413672911	-2.9947534605	-0.86127001	-0.272079
C	-2.5716361206	-3.5315050576	 0.4817159089	-0.272239
C	-3.7363551172	-4.4212667567	 0.4931019923	 0.262697
N	-4.6621206512	-5.1113496554	 0.516584923	-0.301349
H	 0.569682412	 1.2007729212	 1.4491539815	 0.130707
H	 0.2757161969	 1.9535356053	-0.1373164064	 0.131219
H	-1.0980654249	 1.4571548613	 0.8803897579	 0.175286
H	 0.7113807591	-0.5187369722	-0.3947062755	 0.249779
H	-0.9535594081	-1.9390556006	-1.9930694167	 0.137154
H	-0.2930999727	-2.7114914207	-0.5579839791	 0.118081
H	-3.1454849171	-2.4262774993	-1.1130580574	 0.243447
H	-1.6940190639	-4.1196126103	 0.7782940759	 0.147633
H	-2.7240438449	-2.7570082286	 1.2491264474	 0.156598
34.8038	50.2488	81.2158	101.2576	149.9004	175.2296	214.4469	287.2405	360.8963	394.1859	450.9279	454.5377	573.268	605.1542	678.4926	792.4265	889.8916	919.9999	982.5946	997.7502	1047.2417	1106.2624	1154.3177	1169.2431	1174.2632	1225.5485	1250.2841	1304.3079	1356.2529	1387.5	1440.5248	1463.3299	1487.8963	1494.6941	1499.7231	1520.5833	1565.8083	1774.9972	2368.7794	2994.6781	3022.7674	3032.3683	3051.127	3063.8674	3086.5158	3157.6255	3515.428	3636.6
CNC(=O)CNCC#N	CNC(=O)CNCC#N	
InChI=1S/C5H9N3O/c1-7-5(9)4-8-3-2-6/h8H,3-4H2,1H3,(H,7,9)	InChI=1S/C5H9N3O/c1-7-5(9)4-8-3-2-6/h8H,3-4H2,1H3,(H,7,9)
