21
gdb 39470	2.28524	2.0198	1.50031	1.1002	82.08	-0.2353	0.0241	0.2594	983.8251	0.186824	-387.102895	-387.095811	-387.094867	-387.133896	29.893	
C	-0.0087420909	 1.525846747	-0.1587043553	-0.244122
C	 1.48751857	 1.8941044077	-0.017707994	-0.033128
C	 1.9248211377	 2.1338328164	 1.4534493224	-0.216145
C	 1.142729717	 1.3365578733	 2.5144651122	-0.062836
O	 1.0373665095	-0.0542161196	 2.2648285565	-0.237626
C	-0.0715415193	-0.4562349208	 1.4857579662	-0.086722
C	-0.0163674164	-0.0142429069	 0.0034429752	-0.058717
C	 1.3146529357	-0.3839775791	-0.6177764619	-0.056047
C	 2.1455409564	 0.6557753945	-0.6037082876	-0.064543
H	-0.6613023496	 2.0445193166	 0.5500039019	 0.087721
H	-0.3500674555	 1.7804149664	-1.1668740676	 0.097076
H	 1.7366619462	 2.790821824	-0.596078003	 0.067145
H	 2.9927056396	 1.9056762575	 1.5483076832	 0.101585
H	 1.8102679938	 3.1959253911	 1.7085066878	 0.090263
H	 1.6600441538	 1.4351858361	 3.4758742024	 0.10061
H	 0.1377572155	 1.7669913513	 2.6474255502	 0.086621
H	-0.0843406762	-1.5501881549	 1.5454250686	 0.102668
H	-1.0082914788	-0.0853479805	 1.9353338332	 0.084473
H	-0.8756947786	-0.4740967913	-0.4998986503	 0.064933
H	 1.5624982545	-1.3930373203	-0.9277354128	 0.089052
H	 3.1863090456	 0.6422718814	-0.9095391871	 0.087739
177.7189	216.4185	313.2231	317.0675	357.9132	400.1075	497.3651	509.3009	637.488	723.8798	762.8946	770.4822	806.5659	832.3053	856.1539	905.3826	924.2782	955.9445	976.8002	989.423	1001.8363	1027.426	1054.7856	1084.4539	1106.2947	1134.404	1160.9484	1195.1286	1227.3763	1237.7856	1265.7147	1294.9049	1315.3515	1328.5524	1336.0093	1343.8415	1362.9905	1389.6212	1403.7956	1423.0298	1479.0252	1486.1307	1486.7636	1510.6243	1680.5357	2960.4893	2981.6511	3015.5693	3030.0983	3036.0513	3051.8238	3055.2798	3065.4527	3067.2755	3091.5236	3177.9928	3204.8017
C1C2CCOCC1C=C2	C1[C@H]2CCOC[C@@H]1C=C2	
InChI=1S/C8H12O/c1-2-8-5-7(1)3-4-9-6-8/h1-2,7-8H,3-6H2	InChI=1S/C8H12O/c1-2-8-5-7(1)3-4-9-6-8/h1-2,7-8H,3-6H2/t7-,8-/m1/s1
