13
gdb 129420	5.06045	1.05316	1.01884	4.1063	60.51	-0.2665	-0.0182	0.2482	1145.4081	0.089857	-486.062403	-486.054665	-486.053721	-486.096043	27.519	
N	-0.1547606589	 1.3028583182	 0.0192651936	-0.55516
C	 0.0690005053	-0.0449317575	 0.1256669048	 0.456149
N	 1.0788886558	-0.7103238869	 0.4825602773	-0.528317
O	-1.1168191947	-0.6985780516	-0.1875328587	-0.27975
C	-1.1141804577	-2.0354237505	-0.1361062169	 0.573867
N	-1.6498753488	-2.7842796888	 0.7723387015	-0.343081
C	-1.4343622294	-4.0294501766	 0.2364973927	 0.060547
N	-0.8221898994	-4.0517760547	-0.916626114	-0.113911
O	-0.6065407413	-2.6900765703	-1.1802698572	-0.190273
H	 0.6596132715	 1.8886686802	-0.0595685092	 0.26737
H	-0.9467177928	 1.5865524449	-0.5362102668	 0.272724
H	 1.8801286008	-0.1229880468	 0.6943962227	 0.227714
H	-1.7447138604	-4.9444581396	 0.7197199802	 0.15212
38.8847	66.8816	124.6546	328.3788	368.8421	393.7774	450.1271	454.8597	583.811	655.1905	702.9953	711.687	781.2143	839.106	923.4067	932.0148	955.1368	976.1003	1053.0415	1071.3892	1114.8307	1207.7478	1275.1263	1334.6699	1390.6979	1529.647	1628.2239	1648.8691	1782.6314	3260.7622	3545.4113	3597.5933	3715.0828
NC(=N)OC1=NC=NO1	NC(=N)Oc1ncno1	
InChI=1S/C3H4N4O2/c4-2(5)8-3-6-1-7-9-3/h1H,(H3,4,5)	InChI=1S/C3H4N4O2/c4-2(5)8-3-6-1-7-9-3/h1H,(H3,4,5)
