16
gdb 131614	4.21548	0.96094	0.86895	2.5201	66.13	-0.2555	-0.0189	0.2367	1298.0974	0.126204	-471.197012	-471.188703	-471.187758	-471.231033	30.049	
O	 0.0257855341	 1.4444757135	 0.026671775	-0.420921
C	-0.0081574758	 0.0585246197	 0.2680942735	-0.056747
C	-1.4013757758	-0.5082048944	-0.0650445733	-0.02497
O	-1.7464491079	-0.1127213377	-1.3889275523	-0.441735
C	-1.4528154325	-1.9969154886	 0.1032144649	 0.319087
N	-1.2175805285	-2.8000255738	-0.9377508638	-0.299991
N	-1.3017508426	-4.0164559124	-0.416080635	-0.064502
N	-1.5704427733	-4.085991153	 0.8776388241	-0.189257
C	-1.6700335518	-2.8045383494	 1.2344340335	-0.137812
H	-0.391384362	 1.5610433897	-0.8373384862	 0.288672
H	 0.7407605882	-0.4858826353	-0.3325988083	 0.085121
H	 0.2288754276	-0.1022789252	 1.325567127	 0.107582
H	-2.1317359542	-0.0305567171	 0.59815396	 0.103975
H	-1.4407096759	-0.8112109388	-1.9816802807	 0.300569
H	-1.1862462192	-4.8441938135	-0.978563717	 0.297899
H	-1.8914651205	-2.5278431336	 2.2526907987	 0.13303
34.1371	117.5099	124.0135	234.498	296.4265	344.0766	369.0235	434.672	522.8101	527.6274	531.228	719.8055	735.2732	807.1638	882.9348	889.3094	999.9761	1033.7973	1074.0756	1080.2949	1099.8467	1161.9178	1202.9302	1209.7557	1233.9239	1281.6016	1312.5561	1355.6718	1381.5543	1412.4568	1428.4849	1437.6833	1493.854	1501.2621	1561.3735	2959.9462	3049.7183	3072.4061	3272.6195	3667.2184	3765.1903	3776.6081
OCC(O)C1=NNN=C1	OC[C@@H](O)c1n[nH]nc1	
InChI=1S/C4H7N3O2/c8-2-4(9)3-1-5-7-6-3/h1,4,8-9H,2H2,(H,5,6,7)	InChI=1S/C4H7N3O2/c8-2-4(9)3-1-5-7-6-3/h1,4,8-9H,2H2,(H,5,6,7)/t4-/m1/s1
