14
gdb 20566	4.71292	1.40227	1.38012	3.0156	59.63	-0.2774	-0.0436	0.2338	924.8796	0.106135	-415.834972	-415.827416	-415.826472	-415.867365	26.962	
C	 0.0221202536	 1.5860528838	 0.1008249314	-0.406448
C	 0.0298378247	 0.061931217	-0.0615818332	 0.010587
O	 0.8084733116	-0.5792633614	 0.9376858016	-0.417902
C	-1.3638497068	-0.5004611652	-0.0889457723	 0.433725
C	-2.1037727747	-1.1552875037	-1.0236077822	-0.224035
N	-3.3239499828	-1.4296535896	-0.4509766432	-0.102437
N	-3.3751406066	-1.0066696328	 0.7264331901	-0.006415
O	-2.1014265606	-0.3776722622	 1.0139532031	-0.238537
H	 1.0518700706	 1.9498973268	 0.1312262861	 0.135089
H	-0.5011072342	 2.0687906638	-0.7301752796	 0.130061
H	-0.4816989888	 1.8709778821	 1.0298996208	 0.133029
H	 0.5080116535	-0.2023948885	-1.0098595843	 0.114772
H	 0.3922869345	-0.4088918242	 1.7908292249	 0.293811
H	-1.8639637839	-1.4470522558	-2.0313286831	 0.144702
50.6477	139.4968	186.3417	249.934	318.0002	346.0185	413.7541	490.6811	584.7997	694.4651	700.9118	754.6717	828.5279	900.6352	985.3326	1013.4593	1042.8266	1087.5052	1111.3698	1119.3602	1243.4897	1279.879	1327.1752	1386.9722	1402.6162	1421.6102	1467.6123	1488.0165	1494.2474	1603.744	3041.6999	3071.1076	3116.4862	3131.9357	3293.339	3799.2541
CC(O)C1=CN=NO1	C[C@@H](O)c1cnno1	
InChI=1S/C4H6N2O2/c1-3(7)4-2-5-6-8-4/h2-3,7H,1H3	InChI=1S/C4H6N2O2/c1-3(7)4-2-5-6-8-4/h2-3,7H,1H3/t3-/m1/s1
