23
gdb 37796	2.28231	1.98646	1.54431	0.0746	86.98	-0.2554	0.0736	0.329	1007.2992	0.211586	-351.176439	-351.169392	-351.168447	-351.207345	30.569	
C	-0.0196662514	 1.5063717523	 0.0280107403	-0.226427
C	 1.4203026278	 1.994966828	 0.0564381247	-0.049446
C	 2.2986674074	 0.815052732	 0.4284975112	-0.05791
C	 1.3828309727	-0.3645568273	 0.7302322666	-0.231783
C	 0.0497829564	-0.0467192726	 0.0071305548	-0.004704
C	-0.0148589209	-0.6531142748	-1.4113547785	-0.201185
C	 1.2943803885	-0.5933488266	-2.2096943452	-0.189873
C	 1.9465247161	 0.7919639294	-2.2869301343	-0.223323
C	 2.3748126458	 1.422505086	-0.9635395112	-0.016067
H	-0.5273270626	 1.8441072334	 0.9394589502	 0.092027
H	-0.5966125783	 1.9003501507	-0.8173379501	 0.089899
H	 1.6126766564	 2.9908723168	 0.4421224109	 0.070479
H	 3.1648197704	 0.9485063057	 1.0688342458	 0.07244
H	 1.7937215788	-1.3379757345	 0.4422958319	 0.093161
H	 1.222596682	-0.4005963232	 1.8150016483	 0.090477
H	-0.7955714234	-0.4533773681	 0.5711590143	 0.066078
H	-0.3180144294	-1.7048619478	-1.3327687534	 0.087808
H	-0.8129956512	-0.1499488394	-1.973033592	 0.089049
H	 2.018694945	-1.295149775	-1.7794020025	 0.099434
H	 1.1019481593	-0.9506537624	-3.2285161536	 0.086031
H	 2.8367893953	 0.7071980359	-2.9216789314	 0.092756
H	 1.2747148318	 1.4856221256	-2.8126103654	 0.093833
H	 3.2639161134	 2.0381831262	-1.0806324017	 0.077247
163.0491	236.1821	303.7945	349.8659	382.2253	440.285	474.7207	592.5228	656.5289	702.6361	751.9732	766.9308	786.6682	851.1057	867.4291	889.4879	904.5959	906.3139	988.7146	993.1724	1001.7352	1019.8887	1041.8352	1052.82	1076.3676	1111.0238	1129.6164	1140.7726	1185.5051	1193.1004	1213.7065	1216.0803	1253.8326	1256.913	1305.4919	1318.5149	1326.4382	1352.2824	1362.7611	1365.898	1380.1673	1396.427	1402.5941	1440.4591	1480.0202	1485.2161	1491.6337	1498.7609	1511.9082	3002.9893	3011.3087	3022.9235	3023.8363	3025.7355	3043.9154	3046.2467	3052.2223	3059.43	3064.4822	3071.25	3121.7327	3148.4967	3160.9552
C1C2C3CC1CCCC23	C1[C@H]2[C@H]3C[C@@H]1CCC[C@@H]23	
InChI=1S/C9H14/c1-2-6-4-8-7(3-1)9(8)5-6/h6-9H,1-5H2	InChI=1S/C9H14/c1-2-6-4-8-7(3-1)9(8)5-6/h6-9H,1-5H2/t6-,7+,8-,9+
