21
gdb 116942	4.07444	0.5547	0.50461	3.0817	89.18	-0.2349	-0.0124	0.2226	2204.6675	0.178759	-387.096115	-387.084791	-387.083847	-387.135414	38.549	
C	-0.0649990272	 1.019448602	 1.1373933972	-0.381956
C	-0.4785409143	-0.4211562301	 0.8312285298	-0.15536
C	-1.2420666111	-0.5406935364	-0.5039081516	-0.334193
C	-1.6409613229	-1.9073500439	-0.8230036707	 0.022434
C	-1.9589285447	-3.0418577938	-1.0754410374	 0.105523
C	-2.3640612061	-4.4072414723	-1.3794559008	-0.443809
C	-2.6880671384	-5.2977154488	-0.1609677055	 0.395341
C	-1.8326087747	-5.1189292891	 1.0742539208	-0.472691
O	-3.5690360993	-6.1188013403	-0.2340972384	-0.289043
H	 0.4749160077	 1.0817998347	 2.0868502254	 0.116088
H	 0.5895434057	 1.4195428247	 0.3550432461	 0.117136
H	-0.9381779337	 1.6776005868	 1.2067888965	 0.117437
H	 0.4055254193	-1.0674387827	 0.7925111629	 0.107941
H	-1.1110124723	-0.8106191113	 1.6371081671	 0.107237
H	-2.1313220064	 0.1033116673	-0.4703527665	 0.127017
H	-0.6153493249	-0.1438383078	-1.31417779	 0.126688
H	-3.2421241261	-4.4329959832	-2.0324323194	 0.152273
H	-1.558628908	-4.9239095284	-1.92415138	 0.148681
H	-2.0021039823	-4.1240475964	 1.4979459225	 0.155291
H	-2.0800515972	-5.8864464859	 1.8079507198	 0.139355
H	-0.7689991232	-5.1681074752	 0.8161339022	 0.13861
20.3977	33.6205	57.5509	85.145	134.26	150.7048	228.1049	237.2173	306.1981	333.2913	369.7508	417.8477	470.9664	514.493	578.4962	744.3247	756.0796	815.0936	842.9758	873.0059	897.5333	1003.3014	1042.3835	1048.9271	1108.3115	1122.8331	1161.506	1191.8955	1232.5537	1260.8697	1300.2838	1309.2053	1322.9632	1381.3373	1383.1185	1412.0009	1443.3155	1458.5534	1471.3816	1474.8309	1491.9643	1498.2153	1509.1488	1822.0458	2365.0868	2999.4711	3009.6268	3030.6299	3036.1946	3039.5037	3044.0546	3072.2092	3079.1989	3100.6472	3106.7062	3106.9518	3157.95
CCCC#CCC(C)=O	CCCC#CCC(=O)C	
InChI=1S/C8H12O/c1-3-4-5-6-7-8(2)9/h3-4,7H2,1-2H3	InChI=1S/C8H12O/c1-3-4-5-6-7-8(2)9/h3-4,7H2,1-2H3
