17
gdb 49202	3.45479	1.23267	0.95337	3.632	88.43	-0.2325	-0.0703	0.1622	1202.0909	0.137251	-384.726572	-384.718921	-384.717977	-384.758717	29.455	
O	 0.0078672913	-0.0313298061	-0.2440402932	-0.274455
C	 0.0948001268	 1.1700359242	-0.3557873658	 0.10156
C	 1.3155253717	 1.9614855699	-0.0780014298	 0.13716
C	 1.1823406694	 3.3232180572	-0.1068677652	-0.16066
C	 2.1675374346	 4.288511603	 0.2982291983	-0.053388
C	 3.503108465	 4.1131411295	 0.2372978063	-0.077113
C	 4.134796613	 2.9335063172	-0.4548170902	-0.317658
C	 3.7548695613	 1.6767147648	 0.2918274067	-0.088324
C	 2.4879485478	 1.2390483385	 0.3732832995	-0.097124
H	-0.7779664585	 1.7807828973	-0.6814721857	 0.066806
H	 0.1908992265	 3.7088924419	-0.3429251824	 0.099277
H	 1.7841540235	 5.2235116304	 0.7005431336	 0.100968
H	 4.156487441	 4.8613642436	 0.6778600063	 0.105699
H	 3.7694608191	 2.8735094792	-1.4890528728	 0.125809
H	 5.2201301369	 3.0460621078	-0.4980791606	 0.10938
H	 4.5497063752	 1.1009640145	 0.7576741677	 0.103509
H	 2.2828546554	 0.266403457	 0.8114171272	 0.118554
100.4268	173.464	216.5019	270.2756	322.2361	344.2112	399.1962	482.4923	561.846	628.3069	680.6753	751.9975	766.2505	811.5482	891.6603	915.4157	934.5988	973.1225	988.0513	1008.0599	1033.8693	1040.9631	1091.2886	1176.1511	1226.8109	1228.1001	1267.0447	1327.9289	1354.5922	1420.8847	1425.1178	1459.9396	1480.8184	1587.6948	1662.4767	1675.4462	1791.3865	2870.0319	3008.5023	3100.3897	3128.1024	3149.6845	3162.1252	3173.3765	3183.0025
O=CC1=CC=CCC=C1	O=CC1=CC=CCC=C1	
InChI=1S/C8H8O/c9-7-8-5-3-1-2-4-6-8/h1,3-7H,2H2	InChI=1S/C8H8O/c9-7-8-5-3-1-2-4-6-8/h1,3-7H,2H2
