18
gdb 10951	5.34211	1.25864	1.14896	0.7399	68.21	-0.245	0.0787	0.3237	1075.7599	0.15231	-384.902023	-384.893709	-384.892765	-384.93468	30.764	
C	 0.0647933348	 1.5409300263	-0.0176205295	-0.499347
C	-0.0941226777	 0.0620309654	 0.1163151748	 0.422333
C	-1.3855014446	-0.7764844243	 0.0741447096	-0.300323
C	-0.6815358521	-1.8293517	 1.0040971143	 0.00895
C	-0.5305638044	-3.2466345359	 0.4891220022	-0.090828
O	-1.8312282351	-3.8164263296	 0.4051731839	-0.424771
C	 0.5728423277	-0.9398125589	 0.9692519361	-0.07397
O	 0.946673911	-0.7821685054	-0.4086436035	-0.288113
H	 1.0911734825	 1.8385880041	 0.2131166455	 0.132654
H	-0.162537489	 1.8648154865	-1.0397780087	 0.130502
H	-0.6160808899	 2.0672286886	 0.6592412693	 0.12369
H	-2.2387421087	-0.2944294422	 0.5565973877	 0.104353
H	-1.6781605191	-1.1263540012	-0.9185049603	 0.109198
H	-1.1407658645	-1.8392759722	 1.9971066386	 0.082018
H	-0.0369885057	-3.2192996216	-0.4922430348	 0.1029
H	 0.1135093046	-3.8241768714	 1.1733761821	 0.080267
H	-1.7540046346	-4.6765028399	-0.01764819	 0.286121
H	 1.3621451449	-0.8380948883	 1.7069813827	 0.094366
85.9113	131.846	178.7382	200.4515	253.727	306.626	324.2078	411.5303	452.5079	543.8463	661.4293	723.1431	819.8227	856.5147	891.0155	919.7688	943.9053	1000.4103	1016.3926	1049.4695	1071.9537	1078.5793	1135.8956	1170.4474	1196.9339	1210.9285	1250.8309	1259.5992	1263.8194	1289.2785	1361.769	1402.9242	1445.7984	1464.1799	1477.4086	1486.0541	1497.6278	1524.2422	2960.3778	3022.6488	3032.865	3067.1422	3072.8233	3094.5659	3119.6093	3126.0181	3170.9944	3829.9249
CC12CC(CO)C1O2	C[C@]12C[C@@H](CO)[C@H]1O2	
InChI=1S/C6H10O2/c1-6-2-4(3-7)5(6)8-6/h4-5,7H,2-3H2,1H3	InChI=1S/C6H10O2/c1-6-2-4(3-7)5(6)8-6/h4-5,7H,2-3H2,1H3/t4-,5+,6-/m0/s1
