18
gdb 109552	2.16986	1.48271	0.96816	2.8008	69.97	-0.2443	0.0244	0.2687	1209.29	0.145863	-476.229529	-476.219436	-476.218492	-476.264947	34.805	
C	-0.0765283456	 1.419636682	 0.0055472943	-0.342769
N	-0.0374824517	-0.0229512415	-0.0186461522	-0.074463
C	-1.1014515229	-1.0406920371	-0.0635941114	 0.003997
C	-1.9425356175	-1.0376604947	-1.3263981153	-0.078053
O	-2.7452765197	 0.1366590787	-1.292021241	-0.427862
C	 0.0338498917	-2.1116410941	-0.0015169655	-0.041933
O	 0.0942969977	-3.0029752988	-1.0887242224	-0.432317
C	 1.0035262531	-0.9064422133	-0.0562561151	 0.369669
O	 2.2004992704	-0.77753688	-0.1439665437	-0.390604
H	 0.9520011383	 1.7809959888	-0.0663690578	 0.154156
H	-0.6644807438	 1.8062971731	-0.8307588075	 0.14518
H	-0.5193635857	 1.7884794178	 0.9386433851	 0.12984
H	-1.7554215281	-1.0118163893	 0.8159729743	 0.087706
H	-1.2849779543	-1.0578665621	-2.2049355975	 0.099694
H	-2.5564503278	-1.9507453686	-1.34667777	 0.104109
H	-3.2649593483	 0.1696266989	-2.1004929096	 0.291956
H	 0.0632972784	-2.645165291	 0.9575008497	 0.09824
H	 1.0207230157	-3.0714315288	-1.3468750844	 0.303454
73.2223	112.8465	123.7126	127.1241	169.3843	172.9377	245.6649	258.6064	267.9636	337.9763	430.2072	488.3348	580.303	661.4659	775.5547	814.1398	872.0981	923.4982	1034.3242	1055.84	1074.6516	1106.6902	1141.8488	1158.5668	1181.6574	1222.8756	1251.8364	1271.4827	1280.4263	1345.9045	1370.6213	1382.0413	1421.4089	1453.1449	1462.7411	1479.3492	1509.9251	1520.9544	1870.9277	2993.0753	3020.2428	3027.7473	3034.8985	3052.7092	3096.5178	3137.9959	3800.0982	3830.7429
CN1C(CO)C(O)C1=O	CN1[C@@H](CO)[C@@H](O)C1=O	
InChI=1S/C5H9NO3/c1-6-3(2-7)4(8)5(6)9/h3-4,7-8H,2H2,1H3	InChI=1S/C5H9NO3/c1-6-3(2-7)4(8)5(6)9/h3-4,7-8H,2H2,1H3/t3-,4+/m0/s1
