20
gdb 53729	3.23212	0.72105	0.67829	3.9805	86.94	-0.2483	-0.0145	0.2338	1758.4707	0.167489	-403.167501	-403.156137	-403.155193	-403.206599	39.769	
C	-0.1449207522	 1.4897997307	-0.1444117247	-0.392427
C	 0.0298557398	-0.0359075116	 0.037052129	 0.060622
C	 0.8106850698	-0.3198980445	 1.3413494596	-0.392494
C	-1.3551190949	-0.7186063869	 0.0965825339	-0.393501
C	 0.7921291304	-0.5663851543	-1.0981593129	 0.128272
C	 1.4290199874	-0.99545392	-2.0287426265	-0.032213
C	 2.2546317579	-1.4599075482	-3.1337554536	 0.258434
N	 1.6783625748	-2.4558240818	-3.871407566	-0.520084
O	 3.3595447344	-1.0105184283	-3.3712395765	-0.336364
H	 0.825183973	 1.9914567731	-0.1920260815	 0.130682
H	-0.6907269927	 1.7154187253	-1.0647505672	 0.123315
H	-0.7075624793	 1.9016681	 0.6999890535	 0.113853
H	 0.2566367081	 0.0763988344	 2.1987796079	 0.113955
H	 0.9509770452	-1.3943461033	 1.4885943691	 0.123625
H	 1.7963142232	 0.1523386613	 1.3176072679	 0.130621
H	-1.9238103156	-0.5323052489	-0.818919053	 0.120441
H	-1.2538840922	-1.8003754392	 0.2220571787	 0.120785
H	-1.9289200217	-0.3268348435	 0.9429323377	 0.11532
H	 0.7334915723	-2.7531613011	-3.7034309328	 0.263318
H	 2.1653818022	-2.7833731831	-4.6894444227	 0.263842
4.8148	75.3028	87.2281	109.9084	183.6008	213.4935	235.7021	270.1675	271.245	287.8228	351.4061	357.1763	475.6535	526.4809	546.9701	579.9657	595.7792	655.1287	773.9375	802.629	932.784	932.8536	966.8555	986.235	1048.5624	1049.7879	1088.8813	1221.1968	1222.9213	1276.5513	1346.8899	1395.7048	1395.9198	1428.729	1474.2865	1485.2614	1485.4143	1498.087	1498.6079	1518.1914	1606.2742	1771.9983	2338.5454	3033.8257	3035.0416	3040.6527	3106.5551	3108.2419	3113.4541	3115.5594	3120.7942	3123.1934	3602.0673	3744.7728	4.8252	75.3025	87.2272	109.9098	183.6009	213.4922	235.7022	270.1664	271.2442	287.8228	351.406	357.1763	475.6533	526.4809	546.9701	579.9659	595.7789	655.1285	773.9373	802.6289	932.7841	932.8538	966.8561	986.2346	1048.563	1049.7885	1088.881	1221.197	1222.9216	1276.5518	1346.8895	1395.7056	1395.9203	1428.7297	1474.2874	1485.2625	1485.4152	1498.088	1498.609	1518.1925	1606.2741	1771.9988	2338.5459	3033.8256	3035.0416	3040.6527	3106.5551	3108.2418	3113.4541	3115.5594	3120.7941	3123.1934	3602.0674	3744.7729
CC(C)(C)C#CC(N)=O	CC(C)(C)C#CC(=O)N	
InChI=1S/C7H11NO/c1-7(2,3)5-4-6(8)9/h1-3H3,(H2,8,9)	InChI=1S/C7H11NO/c1-7(2,3)5-4-6(8)9/h1-3H3,(H2,8,9)
