13
gdb 132369	1.96037	1.79952	0.94373	0.1806	62.98	-0.282	-0.0387	0.2433	1113.9465	0.088227	-502.0719	-502.064426	-502.063482	-502.10547	26.773	
C	-0.0224743384	 1.4769387682	 0.0102375968	-0.458748
C	-0.0132804513	-0.0236640025	 0.0020974397	 0.354959
N	-0.007391412	-0.6339037792	-1.1903646916	-0.331961
C	 0.0226818658	-1.9491263844	-1.1666631298	 0.364475
F	 0.0300010296	-2.5587468408	-2.33977138	-0.053919
C	 0.0467122709	-2.7192397273	-0.012972051	-0.440664
C	 0.0351153132	-1.9618213091	 1.1492423145	 0.364502
F	 0.054947565	-2.5841900616	 2.3154887657	-0.053912
N	 0.0053584456	-0.6468971715	 1.1876525961	-0.331956
H	 1.0089362857	 1.8495188042	 0.0022685666	 0.151342
H	-0.5214680138	 1.8590007257	-0.8814858267	 0.14711
H	-0.5046169337	 1.849384948	 0.9151502381	 0.147057
H	 0.0680498634	-3.7991294296	-0.0190031484	 0.141717
20.4705	192.2674	202.8631	245.1797	302.7706	356.8892	520.2985	558.7507	587.6876	610.6192	630.4569	711.7508	784.1487	858.2057	977.7428	996.0053	1038.224	1064.5592	1085.2703	1177.7221	1291.6023	1387.2573	1433.8575	1443.6824	1456.7251	1478.2361	1490.9714	1612.5701	1642.6326	3044.6992	3117.0674	3162.3741	3243.6617
CC1=NC(F)=CC(F)=N1	Cc1nc(F)cc(F)n1	
InChI=1S/C5H4F2N2/c1-3-8-4(6)2-5(7)9-3/h2H,1H3	InChI=1S/C5H4F2N2/c1-3-8-4(6)2-5(7)9-3/h2H,1H3
