12
gdb 125729	3.14474	1.51231	1.02775	4.5837	59.85	-0.2957	-0.093	0.2026	1057.3321	0.0754	-509.777036	-509.769326	-509.768381	-509.809885	27.245	
C	-0.1599635861	 1.534856968	 0.0888774598	-0.459552
C	-0.0385930087	 0.0578478231	-0.0753998699	 0.444995
N	 0.167269818	-0.4425793961	-1.229117007	-0.158693
O	 0.2725007696	-1.8485169597	-1.3168201585	-0.238708
C	 0.1638720649	-2.6626141548	-0.2330628099	 0.342936
O	 0.2594507853	-3.8443161743	-0.3505861761	-0.266894
C	-0.0827558994	-1.9958561308	 1.1194278478	 0.304243
O	-0.1966309543	-2.5888028932	 2.1403873354	-0.253164
O	-0.1703115307	-0.622682948	 1.0993574629	-0.213802
H	 0.6089634725	 1.8971340042	 0.7779911568	 0.163531
H	-0.048053912	 2.0224455509	-0.8784836197	 0.171589
H	-1.1352964192	 1.7826325906	 0.5186220283	 0.163519
71.4822	105.2847	169.5851	296.3686	298.1712	352.401	451.0959	469.8088	502.8055	595.6708	616.9497	658.6938	784.9471	805.4848	949.0198	1012.2477	1042.348	1067.3938	1100.2788	1258.6254	1297.1255	1416.8729	1469.1618	1470.553	1718.7263	1869.795	1903.2025	3053.9415	3115.8738	3172.8449
CC1=NOC(=O)C(=O)O1	Cc1noc(=O)c(=O)o1	
InChI=1S/C4H3NO4/c1-2-5-9-4(7)3(6)8-2/h1H3	InChI=1S/C4H3NO4/c1-2-5-9-4(7)3(6)8-2/h1H3
