22
gdb 117491	1.87422	1.1709	0.84013	1.3456	82.13	-0.24	0.0278	0.2678	1508.817	0.190986	-441.491968	-441.480593	-441.479649	-441.529262	39.865	
C	 0.4069212791	 1.3744114202	 0.2344189622	-0.394359
C	 0.0761562962	-0.0966476626	 0.0650051383	-0.02959
O	 0.9092420936	-0.6099248013	-0.9842264187	-0.280069
C	 0.7897228356	-1.9278057716	-1.2921102066	 0.391352
N	-0.0467344609	-2.654040437	-0.6853056071	-0.309453
C	-0.2193485608	-4.0574341398	-0.9915805664	-0.3291
C	 1.7546647513	-2.2456038183	-2.4336105054	 0.056764
C	 1.1229458595	-1.873046344	-3.7830277369	-0.396082
O	 3.0008236959	-1.598272986	-2.2431799359	-0.436845
H	 1.4567603302	 1.5111902998	 0.510030156	 0.126355
H	 0.2187355774	 1.9277021212	-0.6903347643	 0.126182
H	-0.2139771446	 1.8058497634	 1.0251684599	 0.122914
H	 0.2619398568	-0.6688005839	 0.9797148398	 0.119078
H	-0.973218899	-0.2543910952	-0.2050347885	 0.116696
H	-0.1965795746	-4.6314924686	-0.058669277	 0.128277
H	-1.2115063568	-4.2142306693	-1.4323230643	 0.126727
H	 0.5225479839	-4.4927643724	-1.6745802763	 0.108233
H	 1.9740736469	-3.3161820788	-2.423018045	 0.097793
H	 0.8559628426	-0.8117985737	-3.796754342	 0.122079
H	 1.8413734679	-2.0632300609	-4.5845901179	 0.126459
H	 0.2172249098	-2.4582116745	-3.9730835945	 0.118601
H	 2.7991888601	-0.7105163868	-1.9246255697	 0.287987
41.6058	71.8895	100.8198	111.6633	145.0299	219.2394	241.1388	247.736	260.2246	287.1701	330.415	366.225	381.1301	425.6101	568.2267	617.7157	711.6067	778.5875	811.3301	889.8512	930.0987	1021.4655	1069.8887	1084.9617	1094.7988	1121.6664	1135.9413	1145.1175	1164.7238	1184.6094	1270.4111	1287.4341	1307.5872	1342.7627	1391.764	1398.1711	1420.8129	1428.7632	1459.26	1486.7497	1487.2071	1488.4927	1496.775	1497.3334	1508.8968	1522.2415	1767.1463	3001.6845	3037.3629	3043.9954	3048.5247	3060.4838	3075.3751	3083.6386	3084.0578	3113.0931	3118.9801	3121.826	3125.0485	3796.6411
CCOC(=NC)C(C)O	CCOC(=NC)[C@@H](C)O	
InChI=1S/C6H13NO2/c1-4-9-6(7-3)5(2)8/h5,8H,4H2,1-3H3	InChI=1S/C6H13NO2/c1-4-9-6(7-3)5(2)8/h5,8H,4H2,1-3H3/t5-/m1/s1
