21
gdb 75569	2.30717	1.75434	1.1458	1.1328	84.96	-0.2273	0.0213	0.2487	1135.0058	0.183704	-387.081719	-387.07344	-387.072496	-387.114087	32.985	
C	 0.0502215193	 1.4704661846	 0.1250640072	-0.475261
C	-0.0261176199	-0.0269799227	 0.0018084504	 0.325684
C	-0.0420802815	-0.6599478209	-1.1757998208	-0.144005
C	-0.1631399163	-2.1598867642	-1.2947089587	-0.287338
C	 1.0663400011	-2.9243197026	-0.7592807183	-0.05662
O	 1.6125238853	-2.38927404	 0.4371284247	-0.241573
C	 0.6877362593	-2.0773648832	 1.4301258812	 0.107324
C	 1.040383942	-0.8744425022	 2.2482426069	-0.321221
C	-0.1255478019	-0.8106695265	 1.2735217216	-0.153745
H	 0.9338951618	 1.777263808	 0.6979109504	 0.124443
H	 0.0899982833	 1.9546999499	-0.8545566534	 0.117035
H	-0.8197486128	 1.8658341007	 0.6659397018	 0.119128
H	 0.0337394752	-0.0809673226	-2.0934147484	 0.077544
H	-1.053455299	-2.4983813664	-0.7522493799	 0.112424
H	-0.3104548056	-2.4578521682	-2.338048494	 0.098725
H	 0.7993774148	-3.9843196566	-0.621128949	 0.085753
H	 1.8880478144	-2.8799640824	-1.4809000649	 0.108349
H	 0.2264227677	-2.9361705036	 1.9204380266	 0.079092
H	 0.8288188337	-0.8808102606	 3.3114961327	 0.109463
H	 1.9572577751	-0.3701033799	 1.9637041426	 0.12493
H	-1.1106902257	-0.8071588706	 1.7403540714	 0.089869
126.8209	181.7727	196.3866	239.4693	273.9678	337.6828	354.8897	389.1788	448.3897	563.4596	627.2169	659.1096	745.5964	782.9445	818.3618	851.1844	888.254	911.0554	948.7699	989.396	1018.875	1045.9437	1062.432	1076.7647	1099.8178	1106.2162	1119.0896	1127.6138	1171.3311	1187.3769	1226.6888	1267.9067	1279.2852	1323.4192	1358.6452	1380.4344	1403.7735	1412.3812	1424.2073	1475.461	1479.6288	1486.1602	1490.8953	1508.1188	1723.7063	2976.643	3015.1695	3034.5118	3062.2684	3067.594	3082.132	3085.2311	3099.5667	3108.6957	3137.2994	3149.8837	3227.7088
CC1=CCCOC2CC12	CC1=CCCO[C@H]2C[C@@H]12	
InChI=1S/C8H12O/c1-6-3-2-4-9-8-5-7(6)8/h3,7-8H,2,4-5H2,1H3	InChI=1S/C8H12O/c1-6-3-2-4-9-8-5-7(6)8/h3,7-8H,2,4-5H2,1H3/t7-,8-/m0/s1
