16
gdb 81639	4.50675	0.91446	0.83554	2.9826	68.26	-0.2662	0.0122	0.2784	1348.816	0.12323	-474.93505	-474.927029	-474.926085	-474.969036	29.576	
O	 0.0968876816	 1.4602972918	-0.0498274667	-0.444455
C	 0.0867655994	 0.0773046249	-0.0761014817	 0.194674
C	 0.0634439485	-0.6826699351	 1.2867876259	-0.063637
O	-1.3271616693	-0.1890475133	 1.4805529683	-0.337537
C	-1.2881533514	-0.6505352143	 0.0642687417	-0.06687
C	-0.5686494762	-1.9091912325	 0.5805731053	 0.164778
O	 0.184892567	-2.6460385999	-0.3493365134	-0.202343
C	 0.5182954302	-3.9140132143	-0.0171465805	 0.126952
N	 1.2775104165	-4.5789083601	-0.7706493298	-0.436774
H	-0.5253219992	 1.7135629981	 0.6472347859	 0.29067
H	 0.7718830915	-0.2774698563	-0.8448665729	 0.125015
H	 0.7374921593	-0.6303874511	 2.1417188496	 0.104984
H	-2.2035776281	-0.5602801859	-0.5197456164	 0.107061
H	-1.177596253	-2.5348767487	 1.2373365897	 0.110202
H	 0.0578255677	-4.2520623588	 0.9211223817	 0.0929
H	 1.4127921056	-5.5142357743	-0.3927971769	 0.234379
28.3876	104.5551	130.6585	271.0911	320.2985	345.8529	418.1755	458.2982	569.9399	683.4324	710.165	763.9756	807.937	823.9613	856.4972	906.3065	916.9746	940.0985	1041.169	1043.4916	1068.8014	1118.9646	1133.2463	1145.9198	1168.2013	1183.8798	1209.1196	1250.9388	1260.9844	1293.1964	1322.3249	1376.0729	1424.8964	1455.7332	1750.2969	3027.1062	3093.027	3126.2865	3132.3651	3143.614	3521.5707	3744.0664
OC1C2OC1C2OC=N	O[C@H]1[C@H]2O[C@@H]1[C@H]2O[CH][NH]	
InChI=1S/C5H7NO3/c6-1-8-5-3-2(7)4(5)9-3/h1-7H	InChI=1S/C5H7NO3/c6-1-8-5-3-2(7)4(5)9-3/h1-7H/t2-,3+,4-,5-
