12
gdb 130734	2.74322	1.73684	1.06682	2.4158	69.12	-0.2663	-0.1174	0.1489	1002.9431	0.078037	-468.781162	-468.773896	-468.772952	-468.814767	25.695	
O	-0.0451325645	-0.0594620206	-0.0937825476	-0.289152
C	 0.0435517172	 1.1373833114	-0.0225744937	 0.348026
N	-1.1602566824	 1.8837651303	-0.0051413049	-0.264626
N	-1.6087486831	 3.1558273966	 0.1444081226	-0.057377
N	-0.8844363217	 4.1838561782	 0.1440920902	-0.191294
C	 0.4970796887	 4.2309372992	 0.0030432011	 0.035814
C	 1.4735077054	 3.2968406869	-0.0240547872	-0.150499
C	 1.398277359	 1.8443239373	 0.0510161027	 0.27556
O	 2.3865355891	 1.1497609237	 0.1311041544	-0.282283
H	-1.9548108729	 1.2523906766	-0.0156817648	 0.28834
H	 0.8158583777	 5.2676978982	-0.0617483236	 0.145779
H	 2.4951952877	 3.6574141723	-0.0999216492	 0.141713
17.1067	88.3201	266.5894	332.3327	368.0351	410.3265	432.7219	530.1042	633.0947	643.404	768.9255	801.6767	814.0765	884.2164	919.006	942.4745	1036.5711	1077.055	1110.8358	1275.7041	1316.247	1424.7345	1454.1028	1568.6646	1640.3376	1769.1967	1813.6239	3168.9223	3187.83	3558.1005
O=C1NN=NC=CC1=O	O=C1N[N]N=C[CH]C1=O	
InChI=1S/C4H3N3O2/c8-3-1-2-5-7-6-4(3)9/h1-2H,(H,5,6,8,9)	InChI=1S/C4H3N3O2/c8-3-1-2-5-7-6-4(3)9/h1-2H,(H,5,6,8,9)
