19
gdb 85253	2.81839	1.33649	0.99974	3.6923	76.14	-0.2384	-0.0317	0.2067	1213.7105	0.158615	-423.042176	-423.033716	-423.032772	-423.075331	32.276	
C	-0.0156671833	 1.5391917194	 0.028391882	-0.401709
C	 0.0802360985	 0.0159131419	 0.0185591003	 0.015554
C	 0.8851826188	-0.5686231706	-1.162083624	-0.338917
C	 1.3303191816	-1.9496820578	-0.690510432	 0.342906
O	 1.7207344972	-2.8676262248	-1.3637758515	-0.314594
C	 1.1765506401	-1.9749473396	 0.8241250029	 0.352713
C	 0.7968951656	-3.2380468811	 1.4866344817	-0.234767
O	 2.1242432286	-2.7360541869	 1.5663791513	-0.268406
C	 0.7746135434	-0.5822208467	 1.2673881832	-0.331117
H	 0.9811133191	 1.9930681382	 0.0733236432	 0.117901
H	-0.5126703496	 1.9117517517	-0.8731541453	 0.118998
H	-0.5836861203	 1.894702952	 0.8945862836	 0.117719
H	-0.9355230083	-0.3992840231	-0.0301455061	 0.084408
H	 0.3482684727	-0.6170980581	-2.1120686972	 0.128527
H	 1.7942278148	 0.0271917837	-1.3322002507	 0.131693
H	 0.2156073353	-3.1903466249	 2.4069300546	 0.118015
H	 0.676873328	-4.1340197269	 0.8803549303	 0.135116
H	 1.680062101	-0.007534331	 1.5028459153	 0.116413
H	 0.1380060569	-0.5731722553	 2.1555352983	 0.109548
75.4712	114.3939	238.6915	245.6032	260.1376	282.5966	357.2899	412.9901	457.7349	495.4633	566.4234	637.9152	695.9995	828.5743	840.6666	877.338	910.5846	929.9508	943.7118	970.6184	1047.3445	1072.4179	1099.6289	1132.9938	1155.9645	1166.5614	1172.9907	1229.5579	1253.1039	1266.2913	1289.4086	1345.278	1380.8356	1406.7561	1416.8741	1448.586	1490.3958	1497.3173	1500.2011	1508.8009	1848.461	3007.8402	3018.4652	3027.1526	3032.7823	3081.5618	3094.3601	3099.132	3101.2159	3109.2499	3180.414
CC1CC(=O)C2(CO2)C1	C[C@H]1CC(=O)[C@]2(CO2)C1	
InChI=1S/C7H10O2/c1-5-2-6(8)7(3-5)4-9-7/h5H,2-4H2,1H3	InChI=1S/C7H10O2/c1-5-2-6(8)7(3-5)4-9-7/h5H,2-4H2,1H3/t5-,7+/m0/s1
