18
gdb 79271	2.66587	1.63378	1.31543	2.6563	76.24	-0.223	-0.0378	0.1852	1018.6575	0.146777	-401.88128	-401.87334	-401.872396	-401.913864	30.448	
C	-0.0703743189	 1.5345474752	-0.0477822366	-0.339417
N	 0.0938309747	 0.0852184478	-0.004581001	-0.124988
C	 0.7738063279	-0.5800005568	-1.1091767176	-0.007839
C	 2.3104206651	-0.5841270077	-0.8429569537	-0.094337
C	 2.5128016224	 0.1043506675	 0.5036001473	-0.288751
C	 1.1310909709	-0.502304673	 0.8931467405	 0.237236
C	 0.7436278182	-0.7762370035	 2.3107364992	 0.051921
O	 1.5350067069	-0.9164405198	 3.2100188941	-0.252787
C	 1.3831742015	-1.6123033908	-0.2281791123	-0.15242
H	 0.8364699917	 2.0912463184	-0.3270295024	 0.109117
H	-0.8512382643	 1.774957006	-0.776541752	 0.12536
H	-0.4082444884	 1.8893787457	 0.9315443146	 0.1233
H	 0.3446372859	-0.6761833891	-2.0992397286	 0.100702
H	 3.0312769075	-0.7406587744	-1.6354632554	 0.092237
H	 3.2972913949	-0.3798683791	 1.0875210213	 0.128207
H	 2.6291652967	 1.1910474018	 0.5541973648	 0.096911
H	-0.3531907223	-0.8683519987	 2.4709815555	 0.085919
H	 1.3539889498	-2.6913671994	-0.2096763676	 0.109631
69.9705	170.6605	185.7296	212.3574	262.5815	314.9407	440.506	531.6524	592.0097	666.4798	698.7374	747.3608	792.3245	795.932	809.5249	898.3097	951.3936	969.5779	978.3378	1007.1756	1031.5351	1066.6052	1074.1147	1098.7009	1132.7882	1153.2101	1158.5143	1179.8975	1232.045	1236.719	1289.7833	1303.069	1352.0278	1404.7322	1444.0407	1479.7809	1496.7028	1518.5148	1816.7519	2893.8161	2990.7895	3058.517	3070.1637	3102.229	3128.5968	3187.6288	3198.2414	3232.6852
CN1C2C3CC1(C=O)C23	CN1[C@H]2[C@H]3C[C@]1(C=O)[C@@H]23	
InChI=1S/C7H9NO/c1-8-6-4-2-7(8,3-9)5(4)6/h3-6H,2H2,1H3	InChI=1S/C7H9NO/c1-8-6-4-2-7(8,3-9)5(4)6/h3-6H,2H2,1H3/t4-,5+,6-,7-/m0/s1
