19
gdb 95173	2.64172	1.41793	1.07439	1.7812	70.37	-0.2223	0.0652	0.2875	1140.4106	0.159111	-460.135904	-460.127471	-460.126526	-460.168515	33.387	
O	-0.1118128169	 1.428379479	 0.0779465593	-0.427877
C	 0.0223516259	 0.0172832391	 0.0038685388	 0.100404
C	 0.7712091529	-0.5350429404	 1.2215704942	-0.114308
O	 0.9744051993	-1.9338369623	 1.1196324958	-0.250696
C	-0.178392636	-2.6817677786	 0.8458873547	 0.051558
C	-1.4604854415	-2.5553576102	 1.6413720809	-0.355445
C	-1.4044151904	-2.0733386188	 0.2105728674	 0.348689
O	-2.1451044812	-2.8597471644	-0.6861297534	-0.464887
C	-1.389279998	-0.5693921892	-0.0679931065	-0.293785
H	 0.7656605937	 1.8196607962	 0.0153447178	 0.28485
H	 0.5856436214	-0.2809075734	-0.8951940408	 0.069657
H	 1.7718618548	-0.0951938257	 1.2906651854	 0.098508
H	 0.2256749624	-0.2653462899	 2.1396176843	 0.100625
H	 0.1016033572	-3.680804683	 0.5298594607	 0.106284
H	-2.0064062209	-3.4723631868	 1.8314078129	 0.123639
H	-1.5359256949	-1.8057812182	 2.421604265	 0.118138
H	-1.6902213648	-2.8510710196	-1.5359481613	 0.277878
H	-2.0202336129	-0.0272597203	 0.6454262456	 0.118605
H	-1.8155146502	-0.3918897834	-1.0596413007	 0.108162
92.5521	185.3834	269.9915	295.4328	302.0815	321.7797	378.155	380.6877	403.8879	437.5408	488.1856	511.4763	613.3011	759.7799	803.3519	876.74	918.6059	922.246	942.1797	1004.6681	1009.0436	1032.7266	1063.0303	1090.4697	1097.7524	1117.2064	1192.0204	1195.827	1232.754	1255.7072	1281.6949	1301.7421	1326.8661	1337.3818	1356.9362	1400.6216	1416.3946	1438.9628	1472.8151	1493.1024	1510.6153	2968.5179	2991.0393	3043.8131	3070.0292	3092.5538	3138.0608	3173.8957	3229.7524	3789.2738	3813.1678
OC1COC2CC2(O)C1	O[C@H]1CO[C@H]2C[C@@]2(O)C1	
InChI=1S/C6H10O3/c7-4-1-6(8)2-5(6)9-3-4/h4-5,7-8H,1-3H2	InChI=1S/C6H10O3/c7-4-1-6(8)2-5(6)9-3-4/h4-5,7-8H,1-3H2/t4-,5+,6+/m1/s1
