18
gdb 66938	2.55714	1.96199	1.41649	2.3951	75.22	-0.2395	0.0876	0.3271	962.0981	0.147581	-401.860542	-401.85305	-401.852106	-401.89213	29.744	
C	-0.009993728	 1.5256434204	 0.105054316	-0.516136
C	-0.0839285669	 0.0339073788	 0.0550590437	 0.236061
C	 0.1204950537	-1.0081464965	 1.10406166	-0.102321
C	-0.4827873125	-2.0589340011	 0.0917765126	-0.219168
C	 0.9200837685	-2.0671464747	-0.5367503178	-0.151164
N	 1.2101725454	-0.745773069	 0.1255910949	-0.194771
C	-1.1077241345	-0.852474906	-0.6130696074	 0.494813
C	-2.5043523342	-0.5756685652	-0.9247043872	-0.296757
O	-1.5290948887	-0.8096184073	-1.9622832848	-0.289453
H	 0.8077691067	 1.8432574604	 0.756628808	 0.138385
H	 0.1742658226	 1.9369303504	-0.8929882145	 0.137196
H	-0.9435476095	 1.9550000567	 0.4837373518	 0.119322
H	 0.216690292	-0.9536016733	 2.1800862491	 0.103059
H	-1.0590040658	-2.9564705795	 0.3060965459	 0.079837
H	 1.5904784283	-2.8157900146	-0.1082251282	 0.108936
H	 0.9895551781	-2.0723085326	-1.6298767261	 0.115446
H	-3.2529612596	-1.3579130222	-0.8056851266	 0.117838
H	-2.8880640456	 0.4424482452	-0.8720248093	 0.118878
155.9665	177.7731	215.558	233.7396	294.4926	374.1736	492.5534	509.7083	618.766	636.339	745.5749	782.1346	820.9276	836.3794	891.4391	908.5199	935.9377	963.8268	973.356	1020.2077	1025.6552	1051.5163	1084.3715	1116.847	1121.5339	1145.1439	1162.0219	1169.8677	1195.8653	1228.7005	1260.5471	1304.0745	1391.0538	1431.4942	1460.1438	1484.5457	1494.048	1506.3603	1547.623	3036.9414	3046.3716	3081.0951	3099.0822	3111.9974	3122.8842	3140.2828	3166.203	3207.111
CC12C3C(CN13)C21CO1	C[C@]12[C@H]3[C@H](CN13)[C@]12CO1	
InChI=1S/C7H9NO/c1-6-5-4(2-8(5)6)7(6)3-9-7/h4-5H,2-3H2,1H3	InChI=1S/C7H9NO/c1-6-5-4(2-8(5)6)7(6)3-9-7/h4-5H,2-3H2,1H3/t4-,5+,6+,7-,8?/m0/s1
