18
gdb 66116	2.67318	1.47109	1.32133	3.3589	75.06	-0.2467	0.021	0.2677	1041.6317	0.149845	-398.114937	-398.10686	-398.105916	-398.147318	31.393	
N	-0.0545695892	 1.4345990527	 0.0804936795	-0.53426
C	 0.0023766002	-0.0301865603	 0.0196525152	 0.11476
C	 0.6543576352	-0.6209318844	 1.302259973	-0.281302
C	-0.1034891699	-1.9447439179	 1.5359897101	-0.163057
N	-1.4425222181	-1.8217748028	 0.9281449626	-0.088651
C	-2.1534677442	-0.5893543415	 1.2963314974	-0.261981
C	-1.3967859106	-0.663191724	 0.022966323	-0.024595
C	 0.728902646	-0.501059437	-1.1837921115	 0.2415
N	 1.3054921125	-0.8229273273	-2.1335186808	-0.342218
H	 0.8875953803	 1.816197691	 0.0464634726	 0.242614
H	-0.533456112	 1.7963144311	-0.740350156	 0.243001
H	 1.7307186946	-0.7667097133	 1.1934452146	 0.124984
H	 0.4932375521	 0.0976584336	 2.1088657682	 0.127165
H	 0.402878863	-2.7742050751	 1.0322714345	 0.127985
H	-0.1895261447	-2.2002111363	 2.5960756252	 0.116264
H	-3.2356442394	-0.672556639	 1.2750850957	 0.123991
H	-1.7634297661	 0.0413501564	 2.0899270348	 0.125897
H	-1.9064430799	-0.7569336959	-0.9313187581	 0.107903
101.6297	149.5553	207.3161	251.0253	271.9155	356.689	399.8075	462.2423	484.5716	561.1339	641.9174	664.8314	703.9343	791.1073	829.2052	872.4365	901.6977	941.3749	953.9424	971.5001	1005.8623	1072.6453	1108.7438	1111.351	1127.4602	1157.1975	1182.8055	1222.1049	1242.7483	1272.6995	1309.3845	1321.8722	1353.8165	1387.0422	1486.5093	1499.3224	1517.9428	1661.6629	2339.557	3053.5371	3075.7162	3097.3906	3119.3472	3127.9562	3155.1393	3204.5934	3482.6032	3559.5031
NC1(CCN2CC12)C#N	N[C@]1(CCN2C[C@@H]12)C#N	
InChI=1S/C6H9N3/c7-4-6(8)1-2-9-3-5(6)9/h5H,1-3,8H2	InChI=1S/C6H9N3/c7-4-6(8)1-2-9-3-5(6)9/h5H,1-3,8H2/t5-,6+,9?/m0/s1
