18
gdb 74206	2.32398	1.58855	1.00561	4.1726	82.77	-0.2294	-0.0466	0.1828	1181.4099	0.149087	-401.997889	-401.989511	-401.988567	-402.03088	31.777	
C	-0.1483199962	 1.5346363773	 0.044114073	-0.477852
C	 0.0649481194	 0.0393676045	-0.0025527337	 0.272463
C	 0.0941607896	-0.6000974232	-1.1914805154	-0.255261
C	 0.0882883035	-2.057682865	-1.4872348703	 0.373994
O	-0.4443557388	-2.4787754195	-2.5041037001	-0.385532
N	 0.6761114679	-2.9052189145	-0.5856882779	-0.314576
C	 1.569529732	-2.4948057503	 0.4867372004	-0.240993
C	 0.8427401906	-1.7355204582	 1.5675917729	-0.068814
C	 0.1749992644	-0.6063906265	 1.3084518033	-0.099173
H	 0.6700100455	 2.0315996152	 0.5785448327	 0.133125
H	-0.2203713958	 1.9651214418	-0.9566628813	 0.131581
H	-1.070027914	 1.7749433244	 0.5884285187	 0.134778
H	-0.0532821821	-0.0180508648	-2.0962489274	 0.109075
H	 0.6447436137	-3.8769910129	-0.8547130001	 0.246679
H	 2.0300451257	-3.3966836158	 0.8947380151	 0.117418
H	 2.3826056846	-1.8711833931	 0.0838569434	 0.124884
H	 0.8733631482	-2.1247822019	 2.5807968199	 0.103618
H	-0.3019793981	-0.0791575874	 2.1322038868	 0.094584
79.7289	144.704	181.4446	224.3569	284.5455	342.2977	361.8148	400.1956	485.1187	510.991	577.4341	638.987	692.1119	731.5918	800.402	856.5156	896.0984	908.086	944.3046	997.757	1026.7392	1063.4041	1076.3883	1120.3299	1165.4929	1234.0726	1296.9986	1331.8872	1354.7779	1396.9364	1411.0792	1433.3423	1464.8402	1478.8838	1486.2451	1488.4324	1652.3959	1704.0375	1754.9396	2984.5069	3024.834	3075.3519	3106.4324	3127.5361	3144.2721	3177.5628	3179.4063	3622.067
CC1=CC(=O)NCC=C1	CC1=CC(=O)NCC=C1	
InChI=1S/C7H9NO/c1-6-3-2-4-8-7(9)5-6/h2-3,5H,4H2,1H3,(H,8,9)	InChI=1S/C7H9NO/c1-6-3-2-4-8-7(9)5-6/h2-3,5H,4H2,1H3,(H,8,9)
