14
gdb 24820	3.03592	1.4952	1.00181	6.5692	81.84	-0.215	-0.0331	0.1818	1098.3181	0.102255	-399.574695	-399.567144	-399.566199	-399.606691	29.	
O	-0.001262173	-0.0676130537	 0.0034464481	-0.372533
C	-0.0123180468	 1.1542984059	 0.0097100415	 0.305376
C	-1.2441245795	 1.9465384442	 0.0301241151	-0.226413
C	-1.2353690367	 3.2976275258	 0.03696796	 0.019476
N	-0.0534546652	 3.9927812015	 0.0249333375	-0.322501
C	 1.1450247348	 3.3424288834	 0.0058012286	-0.043334
C	 1.226028638	 1.9796815084	-0.0022813385	-0.086693
C	 2.4924761013	 1.341054129	-0.0222236084	 0.263925
C	 3.566482332	 0.796763076	-0.039167354	-0.399942
H	-2.1817103277	 1.4049088438	 0.0397397566	 0.118581
H	-2.1336055053	 3.9030557109	 0.0519607486	 0.137153
H	-0.06695124	 4.9986216274	 0.0303312414	 0.272554
H	 2.0261156969	 3.9718804051	-0.0025563438	 0.14193
H	 4.5051511314	 0.3011003923	-0.0541127728	 0.19242
104.7614	140.441	201.6655	383.713	386.8991	435.2522	449.6655	511.4453	563.07	573.7242	585.5521	586.74	648.8795	706.1365	763.8993	854.5487	887.9597	903.8761	961.2992	1027.3318	1121.1494	1172.1314	1251.4235	1269.2992	1365.0862	1422.6744	1539.458	1617.9665	1675.4041	1739.0993	2226.6275	3202.2322	3213.248	3222.7243	3504.6977	3664.714
O=C1C=CNC=C1C#C	O=c1cc[nH]cc1C#C	
InChI=1S/C7H5NO/c1-2-6-5-8-4-3-7(6)9/h1,3-5H,(H,8,9)	InChI=1S/C7H5NO/c1-2-6-5-8-4-3-7(6)9/h1,3-5H,(H,8,9)
