18
gdb 124472	3.21399	1.17509	1.04678	2.9775	72.79	-0.2585	-0.0137	0.2448	1193.0719	0.146242	-439.082869	-439.073998	-439.073054	-439.116654	33.325	
C	 0.0098306394	 1.5729273329	 0.0953736419	-0.428305
C	 0.0047340134	 0.040532281	 0.002748135	 0.218118
C	 0.6247513907	-0.5800302015	 1.2616132484	-0.388543
O	-1.343859688	-0.4465315924	-0.017703708	-0.452269
C	 0.7212228712	-0.4423965306	-1.2373456018	 0.136173
C	 1.600936333	 0.1839824471	-2.0639681785	-0.034979
O	 1.9889277159	-0.6290096601	-3.0588397599	-0.170835
N	 1.3465751409	-1.8553595163	-2.9131150785	-0.132025
C	 0.6081908643	-1.7320813676	-1.8405080152	-0.048604
H	 1.0269120933	 1.9665382707	 0.1906371347	 0.118887
H	-0.444500486	 2.0206961992	-0.7951199937	 0.111636
H	-0.5639581499	 1.8871426036	 0.9709072471	 0.128421
H	 0.0632691402	-0.2624648831	 2.144805354	 0.123947
H	 0.5892175845	-1.6708057466	 1.2044977617	 0.126904
H	 1.6674020443	-0.2712307522	 1.3712223849	 0.1189
H	-1.7738463862	-0.0876415703	-0.8021007628	 0.279269
H	 2.0334955124	 1.1721052341	-2.076006709	 0.150851
H	-0.0052286733	-2.5615584676	-1.5191411302	 0.142455
42.225	149.3621	181.3611	225.7622	271.7159	322.9533	330.5451	356.0588	367.8583	464.5445	497.6317	604.8531	625.4407	695.7833	847.5171	858.6464	898.2218	922.2584	931.6304	938.7137	962.4098	1004.5934	1018.2561	1119.9704	1141.9032	1160.2124	1198.5897	1230.7858	1300.5206	1362.7648	1378.8105	1398.5134	1417.0221	1476.3028	1480.8625	1482.9674	1498.8769	1506.878	1641.1177	3033.687	3047.8463	3101.8096	3121.0156	3126.2785	3130.9895	3251.3282	3266.4428	3799.1132
CC(C)(O)C1=CON=C1	CC(C)(O)c1conc1	
InChI=1S/C6H9NO2/c1-6(2,8)5-3-7-9-4-5/h3-4,8H,1-2H3	InChI=1S/C6H9NO2/c1-6(2,8)5-3-7-9-4-5/h3-4,8H,1-2H3
