20
gdb 124635	4.20335	0.90423	0.86014	1.4879	82.43	-0.1892	0.0348	0.2241	1432.6511	0.172265	-399.353145	-399.343964	-399.34302	-399.387576	34.446	
C	 0.0645639163	 1.5206120483	-0.2024206467	-0.382696
C	-0.0364646742	 0.000954698	 0.0065756266	 0.058614
C	-1.489947741	-0.4764990873	 0.0031987891	-0.39452
N	 0.7112105032	-0.7730992648	-0.9866010691	-0.379359
C	 2.0949251802	-0.6709046281	-1.046682391	 0.411396
N	 2.7223518428	-0.7710013911	-2.2190714315	-0.33508
N	 4.0400379819	-0.7167086764	-1.8973346568	-0.183938
C	 4.2544028012	-0.5671798466	-0.573925606	-0.018286
C	 3.0145404343	-0.532383667	 0.0282095451	-0.284252
H	 1.109769425	 1.8419559502	-0.2164823911	 0.126252
H	-0.3926999352	 1.8093534709	-1.1560767286	 0.109815
H	-0.4507426755	 2.0635274779	 0.5972317672	 0.108548
H	 0.3967694751	-0.2432564717	 0.984516171	 0.088793
H	-1.9642303853	-0.265984228	-0.963389567	 0.111166
H	-1.5442780046	-1.5538012069	 0.1799593572	 0.124294
H	-2.0707958341	 0.037907244	 0.7742409103	 0.114561
H	 0.3076540969	-0.7205300508	-1.9145306715	 0.229045
H	 4.7203400881	-0.7758145	-2.6335990912	 0.271315
H	 5.2493772875	-0.5018344757	-0.1618897375	 0.126711
H	 2.8079330374	-0.4357777048	 1.0806503715	 0.097621
49.3314	73.3464	139.1472	229.9731	262.8376	297.6772	323.8216	386.1563	411.9342	445.2249	470.0422	627.6553	648.3008	729.3342	755.8226	772.3195	820.2795	850.8471	926.6451	940.0069	948.0067	964.8371	1013.4323	1068.547	1118.7159	1144.415	1171.2233	1196.8102	1220.0759	1321.4876	1333.1314	1355.4595	1393.0269	1397.8941	1417.2777	1473.9556	1484.7736	1486.656	1496.6257	1506.641	1510.1311	1524.843	1606.3068	3026.3215	3026.6155	3034.1832	3092.857	3101.5594	3113.4797	3123.5048	3254.5717	3278.3234	3554.8084	3694.5867
CC(C)NC1=NNC=C1	CC(C)Nc1n[nH]cc1	
InChI=1S/C6H11N3/c1-5(2)8-6-3-4-7-9-6/h3-5H,1-2H3,(H2,7,8,9)	InChI=1S/C6H11N3/c1-5(2)8-6-3-4-7-9-6/h3-5H,1-2H3,(H2,7,8,9)
