17
gdb 53251	3.98027	0.79211	0.77097	5.0982	85.23	-0.2381	0.0106	0.2487	1535.3795	0.13423	-380.841411	-380.831329	-380.830385	-380.877714	35.073	
C	-0.0440004769	 1.4402643186	 0.0433880838	-0.500067
C	-0.0261350323	-0.0152863316	 0.053343108	 0.121645
C	 0.0129691097	-1.2205947081	 0.0619405626	 0.041515
C	 0.0302746317	-2.6507157235	 0.0578550467	-0.264452
C	-0.4553140579	-3.4310329338	 1.2662930159	-0.306259
C	-1.3412953587	-3.3973665695	 0.0515013431	 0.15579
N	-2.5984885283	-2.7022214498	 0.116843445	-0.553361
C	-1.3850952983	-4.5835136819	-0.7720257187	 0.283171
N	-1.3964027526	-5.5189521131	-1.4520477578	-0.34166
H	 0.9497167814	 1.8414478617	-0.1838218465	 0.156923
H	-0.7377120807	 1.8287227379	-0.710406615	 0.151544
H	-0.3481755564	 1.8426583273	 1.0158653286	 0.151255
H	 0.8197316289	-3.1191160474	-0.5220300994	 0.133399
H	 0.0511828108	-4.35772672	 1.5068825224	 0.145797
H	-0.7993917809	-2.8620444281	 2.1229890674	 0.135934
H	-2.5024467064	-1.8869587552	 0.7143571849	 0.242852
H	-2.8480845929	-2.3542566434	-0.805539141	 0.245975
27.7272	74.9785	83.5241	163.0375	176.237	206.3654	247.4509	311.0754	367.788	380.3166	471.8268	511.3566	578.5625	601.0707	686.7503	724.2227	813.9531	885.0908	923.2419	963.1698	1006.583	1050.0536	1053.6226	1072.5542	1093.9193	1140.531	1210.3131	1313.569	1334.4668	1411.4279	1417.0393	1475.5289	1476.0306	1478.2928	1661.3516	2353.6557	2363.0833	3028.1877	3088.5138	3091.6664	3143.871	3155.2909	3238.2486	3490.4942	3574.1953
CC#CC1CC1(N)C#N	CC#C[C@H]1C[C@]1(N)C#N	
InChI=1S/C7H8N2/c1-2-3-6-4-7(6,9)5-8/h6H,4,9H2,1H3	InChI=1S/C7H8N2/c1-2-3-6-4-7(6,9)5-8/h6H,4,9H2,1H3/t6-,7-/m0/s1
