21
gdb 37361	2.72956	1.79401	1.55325	1.972	79.15	-0.251	0.08	0.331	963.8365	0.187431	-387.102109	-387.095426	-387.094482	-387.132668	28.985	
C	 0.0058153721	 1.5274218909	-0.0073748324	-0.221015
C	 1.5160597239	 1.8556645629	-0.0202898842	-0.049186
C	 2.0993930376	 1.5271396068	 1.373424789	-0.205969
C	 1.8791155735	 0.045078696	 1.7598165443	-0.192768
C	 0.4848608169	-0.5071657556	 1.3784976264	-0.205969
C	 0.0290718159	-0.0179379066	-0.0156190573	-0.049185
C	 1.1304120017	-0.305099342	-1.0324685205	 0.060211
O	 1.174621336	 0.5944564329	-2.1493296014	-0.275917
C	 2.0433460089	 0.8451980411	-1.0353375766	 0.060211
H	-0.4998614436	 1.9309506648	 0.874347088	 0.085087
H	-0.4851565077	 1.9148569188	-0.9003254445	 0.111384
H	 1.725627042	 2.8942550272	-0.2939259498	 0.06556
H	 3.1716431334	 1.7546062964	 1.4114796996	 0.092393
H	 1.6185170166	 2.1862235432	 2.1066260332	 0.097019
H	 2.6438954577	-0.5631258664	 1.2646743812	 0.102248
H	 2.0455431209	-0.084325667	 2.8346122701	 0.093006
H	 0.5069184257	-1.6029361892	 1.4198525183	 0.092393
H	-0.2644224961	-0.1862714995	 2.1125403654	 0.097019
H	-0.935456378	-0.4587071942	-0.2855696197	 0.06556
H	 1.4567611382	-1.3220709574	-1.2368373438	 0.088961
H	 3.1073594144	 0.7576834167	-1.2420225454	 0.08896
234.2761	246.26	318.7367	335.8728	427.4896	458.4318	486.832	595.0865	724.3326	747.6126	798.5394	820.6019	858.4216	868.7125	873.6851	879.2183	884.1251	948.7707	964.2444	1014.8756	1020.0013	1054.4795	1057.7598	1066.6484	1108.2074	1120.1472	1122.7736	1177.1311	1203.0384	1244.4357	1264.618	1281.3506	1301.4568	1308.6539	1333.0318	1340.9322	1344.5309	1375.555	1379.5667	1390.3498	1429.9025	1483.1618	1489.6913	1497.1616	1510.5385	3022.0308	3022.4695	3037.586	3054.678	3058.1858	3059.5738	3060.2769	3071.9783	3081.0208	3127.776	3136.4449	3149.2282
C1C2CCCC1C1OC21	C1[C@H]2CCC[C@@H]1[C@H]1O[C@@H]21	
InChI=1S/C8H12O/c1-2-5-4-6(3-1)8-7(5)9-8/h5-8H,1-4H2	InChI=1S/C8H12O/c1-2-5-4-6(3-1)8-7(5)9-8/h5-8H,1-4H2/t5-,6+,7+,8-
