17
gdb 22395	6.2527	0.70105	0.65113	3.5388	77.46	-0.2539	-0.0076	0.2463	1624.3081	0.134784	-417.971146	-417.962119	-417.961175	-418.006213	32.45	
O	-0.1392088411	 1.2513364518	-0.4015545925	-0.392778
N	 0.0145921567	-0.1233935866	-0.1486755276	-0.223817
C	-1.0982536891	-0.6582671908	 0.1276019993	 0.425923
C	-2.5230631648	-0.1724804356	 0.3026258224	-0.353555
C	-2.8632301617	-1.5830247564	 0.885938725	 0.027448
C	-4.0528490979	-2.3057902341	 0.2446485186	-0.361113
C	-4.2007227242	-3.6774597625	 0.72983737	 0.262102
N	-4.2962679341	-4.7585810344	 1.1265080729	-0.303213
C	-1.4295817539	-2.086534372	 0.5053355913	-0.330411
H	 0.7663835897	 1.5281776769	-0.5782110642	 0.309396
H	-2.6554477274	 0.6846878507	 0.967295245	 0.135752
H	-3.0235762868	 0.0522280264	-0.646302221	 0.126198
H	-2.9992388057	-1.5496290227	 1.968911418	 0.104714
H	-4.9822336425	-1.7607499795	 0.4479657861	 0.155813
H	-3.9351342322	-2.3334292149	-0.8456412414	 0.151062
H	-1.4219154602	-2.7774443026	-0.3451903309	 0.129488
H	-0.8373530348	-2.5292684137	 1.3090687489	 0.136991
28.1288	66.3383	137.026	185.7127	251.0944	334.0828	338.7018	385.1615	398.52	471.1171	501.75	548.1173	706.0606	781.4425	799.2482	870.1054	914.9502	939.1233	976.4649	990.6844	1046.6022	1061.2916	1110.1697	1164.2355	1183.3909	1220.0913	1249.4102	1257.867	1277.0095	1324.325	1376.0508	1406.6444	1451.0633	1462.5224	1473.6022	1786.8574	2362.3461	3034.6721	3045.0766	3049.5847	3069.9971	3088.6553	3107.144	3113.1599	3817.6358
ON=C1CC(CC#N)C1	ON=C1C[C@@H](CC#N)C1	
InChI=1S/C6H8N2O/c7-2-1-5-3-6(4-5)8-9/h5,9H,1,3-4H2	InChI=1S/C6H8N2O/c7-2-1-5-3-6(4-5)8-9/h5,9H,1,3-4H2/t5-
