20
gdb 100434	3.99215	0.66128	0.57543	1.2	85.15	-0.249	0.0249	0.2739	1893.6258	0.166984	-403.12325	-403.112206	-403.111262	-403.161485	38.005	
C	-0.173535738	 1.373458792	-0.0837063951	-0.225528
O	 0.1275241522	-0.0133046116	 0.0636483153	-0.238716
C	 0.5361085856	-0.6581072518	-1.0506536418	 0.412131
C	 0.8209362559	-2.1101115225	-0.7641088822	-0.489813
N	 0.6388636357	-0.0454236917	-2.155780183	-0.311568
C	 1.0796979335	-0.7730416785	-3.3309397434	-0.14053
C	 1.187397544	 0.2009595937	-4.5190560118	-0.345611
C	 1.6216202799	-0.4524168855	-5.74675565	 0.294218
C	 1.9813427052	-1.0202354887	-6.7435731021	-0.449798
H	 0.7039004314	 1.9281518897	-0.4281106374	 0.131836
H	-0.9780023033	 1.5224603883	-0.8095281157	 0.13195
H	-0.4803998206	 1.7154308611	 0.9057676137	 0.123713
H	 0.6373345908	-2.3389206124	 0.28542882	 0.142305
H	 0.1899927203	-2.7516677744	-1.3878048897	 0.145744
H	 1.8615444741	-2.3487770478	-1.007005395	 0.146045
H	 2.0579006913	-1.2521274949	-3.1767893078	 0.106655
H	 0.3783402727	-1.5777168456	-3.5965460581	 0.108316
H	 0.2122921926	 0.6797951844	-4.6676469685	 0.133793
H	 1.8831200935	 1.0046435956	-4.250074102	 0.133107
H	 2.2980164032	-1.5066658696	-7.6324136054	 0.191752
17.444	59.892	86.6669	90.2293	169.9219	174.443	180.4459	276.8685	287.8027	352.5749	360.8198	459.7839	514.7922	584.2587	615.4591	639.3603	644.4101	773.645	830.7634	963.6003	987.2774	1048.9121	1049.7342	1064.608	1079.3396	1107.9606	1181.2912	1202.2771	1221.1791	1283.6056	1313.6832	1315.7422	1389.0007	1407.4195	1466.4223	1470.4355	1474.7342	1483.8518	1485.3474	1487.1564	1500.2932	1739.78	2238.1909	2981.5887	3014.8204	3034.4089	3043.1133	3045.7865	3070.5477	3102.3791	3113.2618	3146.914	3155.3608	3508.0271
COC(C)=NCCC#C	COC(=NCCC#C)C	
InChI=1S/C7H11NO/c1-4-5-6-8-7(2)9-3/h1H,5-6H2,2-3H3	InChI=1S/C7H11NO/c1-4-5-6-8-7(2)9-3/h1H,5-6H2,2-3H3
