14
gdb 29539	3.24345	1.62072	1.09382	1.5301	64.04	-0.1738	0.0442	0.2181	1012.4764	0.102014	-473.80458	-473.797025	-473.796081	-473.836411	28.402	
O	 0.1640458734	 1.379160347	-0.0865501463	-0.44811
C	 0.08161404	 0.0207374831	-0.0081517581	 0.179425
C	 0.0904620502	-0.8290957191	-1.1009753506	-0.169235
N	-0.046710103	-2.1533323758	-0.6502861752	-0.388051
C	-0.0468525779	-2.1037561337	 0.7021979537	 0.336981
C	 0.0108076037	-0.8182777527	 1.13276553	 0.11661
O	-0.353080851	-0.7660330086	 2.4758078484	-0.289319
C	-0.2256513437	-2.1385863556	 2.8569549123	 0.004241
O	-0.4447393097	-2.9665017943	 1.6885891904	-0.277945
H	 0.1207478131	 1.7377345021	 0.8045310483	 0.304711
H	 0.3032856334	-0.6148084458	-2.1341059868	 0.12309
H	 0.1130116244	-2.965318927	-1.220453841	 0.268921
H	 0.799297913	-2.3226393151	 3.2164225307	 0.104469
H	-0.974102286	-2.3832537943	 3.6112302842	 0.134213
153.5741	180.2601	220.168	256.515	277.6344	331.1408	404.0119	531.7713	569.1595	614.2034	634.9586	656.2856	661.4668	775.4369	814.7604	899.4178	1048.0529	1067.7573	1103.1452	1137.6654	1141.2461	1218.9513	1243.0114	1318.5936	1352.5745	1418.4882	1489.8903	1516.7946	1565.2441	1594.2913	1671.4455	2974.3387	3131.575	3280.4266	3679.1372	3845.6201
OC1=CNC2=C1OCO2	Oc1c[nH]c2c1OCO2	
InChI=1S/C5H5NO3/c7-3-1-6-5-4(3)8-2-9-5/h1,6-7H,2H2	InChI=1S/C5H5NO3/c7-3-1-6-5-4(3)8-2-9-5/h1,6-7H,2H2
