20
gdb 85440	2.55035	1.43583	1.08942	3.84	79.23	-0.2358	0.038	0.2737	1168.7202	0.171947	-403.190389	-403.181887	-403.180943	-403.223455	33.232	
C	 0.5020700027	 1.6313333275	-0.2512207619	-0.384165
C	 0.0405662742	 0.2129821453	 0.1078055547	-0.052689
N	 0.3309131866	-0.7457702009	-0.9518385275	-0.308273
C	 1.4118528178	-1.5609739167	-0.7368907617	 0.414227
O	 1.8810043335	-2.344777939	-1.5316712833	-0.38148
C	 1.905431063	-1.2640304836	 0.6839122175	-0.433422
C	 0.7929630685	-0.4227253879	 1.2915924792	 0.377058
C	 0.9189953437	 0.2676343645	 2.6185364768	-0.323249
C	 0.0197395952	-0.9384702308	 2.4788320718	-0.313253
H	 1.583808846	 1.6618739748	-0.414815429	 0.124213
H	 0.0106799425	 1.9769414301	-1.1669604283	 0.113498
H	 0.2535798189	 2.3366641549	 0.5475085892	 0.119681
H	-1.0376926072	 0.2308244924	 0.3098469999	 0.084636
H	-0.0659234907	-0.6759865178	-1.8762436222	 0.246396
H	 2.1063321637	-2.1931780063	 1.2214139026	 0.129646
H	 2.8552321266	-0.720773892	 0.6045512351	 0.1278
H	 1.8504767644	 0.1553563249	 3.1636694461	 0.116322
H	 0.4494819675	 1.2378184384	 2.7457936556	 0.112866
H	-1.0532494458	-0.7768054017	 2.5028675573	 0.113445
H	 0.3399849089	-1.8732529061	 2.9272559678	 0.116743
85.3445	97.5375	222.7905	255.9879	281.2966	306.4338	376.5554	477.1837	486.8399	504.5609	520.5685	603.3455	684.1486	746.0742	783.8024	856.405	863.9807	927.2518	932.0693	975.1555	988.0403	1014.5195	1045.4413	1060.5084	1086.0092	1106.8831	1125.6935	1175.6967	1189.4873	1235.9232	1257.8853	1278.1983	1327.9673	1377.7702	1384.6896	1407.7102	1436.4069	1466.1806	1471.338	1492.6519	1496.19	1507.136	1832.1029	3019.9754	3034.8521	3039.3274	3104.0354	3108.1817	3115.6509	3123.1884	3128.4819	3201.7022	3216.3747	3632.4323
CC1NC(=O)CC11CC1	C[C@H]1NC(=O)CC21CC2	
InChI=1S/C7H11NO/c1-5-7(2-3-7)4-6(9)8-5/h5H,2-4H2,1H3,(H,8,9)	InChI=1S/C7H11NO/c1-5-7(2-3-7)4-6(9)8-5/h5H,2-4H2,1H3,(H,8,9)/t5-/m1/s1
