17
gdb 64985	3.36736	1.08209	0.89871	5.9839	71.67	-0.245	-0.0294	0.2155	1290.1293	0.135122	-455.173414	-455.164304	-455.16336	-455.207837	32.466	
C	-0.0920412808	 1.5023605594	-0.7238059257	-0.467465
C	-0.0719125871	 0.1587415308	-0.0316887958	 0.187207
C	 0.865857575	-0.9037196033	-0.5079137309	-0.252256
N	 1.0868900732	-0.2484631674	 0.7874377503	-0.364477
C	-1.4240744931	-0.2855192583	 0.5043069273	 0.401603
O	-2.4572651937	 0.0443406155	-0.0227249351	-0.324041
N	-1.3177726254	-1.0986184776	 1.6321735349	-0.359089
C	-2.3363385618	-1.742809313	 2.3226787597	 0.163079
O	-3.5013223461	-1.7576996569	 2.0347060777	-0.256932
H	 0.8682570837	 1.705942253	-1.2071318613	 0.110898
H	-0.8804630343	 1.5192308589	-1.4788759972	 0.162082
H	-0.3000379506	 2.3064411069	-0.0102786679	 0.13454
H	 0.582947658	-1.9506982625	-0.4499756464	 0.134553
H	 1.5163912287	-0.6512569406	-1.3406957287	 0.130011
H	 1.8256805207	 0.446712594	 0.7267408688	 0.243185
H	-0.3717633612	-1.1759860737	 1.9923619901	 0.272431
H	-1.9208561752	-2.2686201153	 3.2069885103	 0.08467
57.5472	88.8578	162.262	185.3125	212.2393	254.6722	292.0745	314.0115	367.9586	474.5136	504.9197	647.1308	750.7376	779.0416	831.1808	855.6732	933.9702	948.3352	980.2241	1001.0024	1032.565	1048.912	1086.8232	1128.827	1141.0149	1173.0407	1259.8256	1345.9457	1359.9671	1412.8308	1444.6155	1479.6553	1500.3872	1505.4699	1519.5153	1799.5741	1866.3331	2921.1016	3041.5572	3106.9272	3114.1784	3137.7892	3203.0761	3512.5912	3527.3446
CC1(CN1)C(=O)NC=O	C[C@]1(CN1)C(=O)NC=O	
InChI=1S/C5H8N2O2/c1-5(2-7-5)4(9)6-3-8/h3,7H,2H2,1H3,(H,6,8,9)	InChI=1S/C5H8N2O2/c1-5(2-7-5)4(9)6-3-8/h3,7H,2H2,1H3,(H,6,8,9)/t5-/m0/s1
