20
gdb 12666	3.09878	1.79696	1.30347	2.7682	74.22	-0.2324	-0.0134	0.219	998.0659	0.177144	-349.050489	-349.042127	-349.041183	-349.08315	31.774	
C	-0.256801186	 1.523598701	-0.068893128	-0.412198
C	 0.0556825477	 0.0303281906	 0.0039222178	 0.026222
C	 0.9064318425	-0.4974110632	-1.1759647698	-0.221018
C	 1.3668161084	-1.8864688799	-0.7152972764	-0.322119
C	 1.4856790715	-1.7677029731	 0.8077127562	 0.403981
O	 2.0339374583	-2.5554306824	 1.535692275	-0.324713
C	 0.8163346357	-0.4580658188	 1.2634017383	-0.099472
C	 1.9017467264	 0.4921025515	 1.8021608564	-0.399562
H	 0.6561504398	 2.1272650864	-0.0867227521	 0.118505
H	-0.8214572923	 1.7541984884	-0.9786514561	 0.113731
H	-0.858304164	 1.851524194	 0.785655905	 0.114934
H	-0.8987763171	-0.5145888676	-0.0202748976	 0.074994
H	 0.3453134571	-0.5145136915	-2.1142576871	 0.100564
H	 1.773162069	 0.1569438156	-1.3318531119	 0.103289
H	 0.6022923398	-2.6465918538	-0.9257382767	 0.128806
H	 2.3007692621	-2.2458088914	-1.1537058535	 0.125719
H	 0.1314865913	-0.6882992201	 2.0864675966	 0.092977
H	 2.6173158448	 0.7817115782	 1.0250713702	 0.117413
H	 1.4594990902	 1.4056424052	 2.2085821409	 0.119648
H	 2.4586495949	-0.0079956191	 2.5989217029	 0.138297
59.1682	173.0547	229.85	237.3398	249.3412	275.8577	299.6587	450.7705	499.2084	528.4723	567.4506	634.7364	750.9911	795.2955	824.3929	903.0792	943.9255	981.2455	996.0844	1014.7265	1028.8566	1084.7612	1097.8996	1163.7661	1169.6957	1196.8685	1236.7318	1264.1107	1298.8127	1314.7355	1329.2278	1355.3645	1380.1038	1402.902	1415.4775	1450.7522	1491.2071	1496.3443	1499.7321	1506.6607	1508.3991	1840.2509	2997.1604	3028.6264	3030.9922	3034.5523	3039.7793	3052.5252	3089.553	3095.5605	3103.5772	3106.5746	3108.1902	3122.9194
CC1CCC(=O)C1C	C[C@H]1CCC(=O)[C@H]1C	
InChI=1S/C7H12O/c1-5-3-4-7(8)6(5)2/h5-6H,3-4H2,1-2H3	InChI=1S/C7H12O/c1-5-3-4-7(8)6(5)2/h5-6H,3-4H2,1-2H3/t5-,6-/m0/s1
