14
gdb 130265	5.13349	0.92774	0.86823	1.7914	69.34	-0.2409	-0.0139	0.227	1304.2705	0.100717	-432.838914	-432.830665	-432.82972	-432.872905	30.025	
N	-0.1829413715	 1.3350000874	-0.4412165489	-0.584975
C	-0.0797670209	-0.0088217681	-0.2013383579	 0.408598
N	-1.1123179424	-0.7900812556	 0.0229711272	-0.208445
O	-0.5109558909	-2.0658727528	 0.1315633574	-0.197047
C	 0.7972778152	-1.8832478419	-0.0263541285	 0.441798
C	 1.7004002819	-3.0798906152	 0.0275358909	-0.452418
C	 1.6455947583	-3.7893234976	 1.3022381521	 0.304717
C	 1.6070431424	-4.3742607307	 2.3494766903	-0.43917
N	 1.142319703	-0.6499479568	-0.2355251591	-0.35522
H	 0.6477764356	 1.8597502513	-0.2149548706	 0.26905
H	-1.042097349	 1.7610997981	-0.1284020714	 0.268792
H	 1.427984164	-3.761834619	-0.7884824292	 0.165856
H	 2.7148137079	-2.7242216864	-0.1746019583	 0.17128
H	 1.5677043265	-4.8912955427	 3.2762885562	 0.207185
22.6407	97.6422	218.6337	264.7854	322.2654	329.7419	365.0569	421.0045	479.9926	561.3534	629.527	635.2496	661.885	746.7512	768.4745	811.8523	911.6986	953.0506	963.1505	1028.9698	1064.112	1129.2874	1204.4491	1328.9378	1342.1772	1446.5054	1453.983	1581.1591	1636.7504	1662.3747	2250.5917	3031.8125	3095.5968	3505.8955	3586.1788	3696.0952
NC1=NOC(CC#C)=N1	Nc1noc(CC#C)n1	
InChI=1S/C5H5N3O/c1-2-3-4-7-5(6)8-9-4/h1H,3H2,(H2,6,8)	InChI=1S/C5H5N3O/c1-2-3-4-7-5(6)8-9-4/h1H,3H2,(H2,6,8)
