22
gdb 120877	4.9471	0.81043	0.76686	2.1515	84.49	-0.2213	0.0786	0.2999	1601.1096	0.19286	-404.302321	-404.292639	-404.291695	-404.337249	35.952	
C	-0.0581076863	 1.4944275655	-0.0412663207	-0.384268
C	-0.1181007772	-0.001714547	 0.2164464231	-0.034121
O	-1.3405407085	-0.4960381512	-0.2954495504	-0.250684
C	-1.4953636704	-1.8754585951	-0.143237168	 0.188607
C	-1.8427188761	-2.4804852243	 1.2739566415	-0.316986
C	-3.0925937905	-3.1063835105	 0.6326861505	 0.344354
C	-3.7025699394	-4.4345133681	 0.9546592689	-0.504425
N	-3.898523225	-1.9453197582	 0.1901593095	-0.356034
C	-2.799357318	-2.4484377015	-0.6776189198	-0.162469
H	 0.8756971002	 1.9125347977	 0.3467897382	 0.110673
H	-0.1136334259	 1.7012156438	-1.1138315777	 0.124673
H	-0.8960917769	 1.99910209	 0.4475417591	 0.130312
H	 0.7311279975	-0.5136228021	-0.2691643018	 0.080373
H	-0.042308359	-0.208839807	 1.2964130446	 0.089228
H	-0.6343877758	-2.4113753121	-0.5739107136	 0.061928
H	-1.102606653	-3.2035092322	 1.6243936779	 0.095539
H	-2.0590786296	-1.7482279784	 2.0549827084	 0.107888
H	-4.2107707667	-4.4115874828	 1.9261357506	 0.128889
H	-4.4406800278	-4.7237512048	 0.198177209	 0.116374
H	-2.9400516583	-5.2197973336	 0.9979811137	 0.123239
H	-4.7621812026	-2.3156167386	-0.2088707029	 0.220916
H	-3.0048634006	-2.7742903596	-1.6906839201	 0.08599
57.6436	88.6227	102.5709	184.6202	217.0707	249.385	282.7189	304.9032	375.5047	415.6588	475.3671	555.3237	654.0103	689.5436	818.8555	822.3825	853.0926	906.9729	924.1897	955.0326	964.2897	990.17	1028.4834	1050.5078	1076.272	1095.8087	1141.8623	1150.7448	1166.2239	1182.3351	1192.9272	1222.0169	1250.9121	1296.4741	1320.3908	1336.2644	1379.274	1403.0827	1407.1763	1439.4833	1443.1476	1476.5382	1483.0478	1483.2344	1498.4664	1499.6943	1528.6693	2950.0133	2972.3924	2982.9011	3021.3394	3044.3304	3064.6279	3082.7793	3093.606	3118.0533	3122.4139	3126.3435	3180.2554	3455.7625
CCOC1CC2(C)NC12	CCO[C@H]1C[C@@]2(C)N[C@@H]12	
InChI=1S/C7H13NO/c1-3-9-5-4-7(2)6(5)8-7/h5-6,8H,3-4H2,1-2H3	InChI=1S/C7H13NO/c1-3-9-5-4-7(2)6(5)8-7/h5-6,8H,3-4H2,1-2H3/t5-,6-,7+/m0/s1
