17
gdb 63365	2.74488	1.24659	1.11973	1.1097	75.97	-0.2482	-0.0367	0.2114	1169.9992	0.131406	-421.795489	-421.785876	-421.784932	-421.830052	34.801	
C	-0.5957100209	 1.5368118857	 0.0596015617	-0.423017
C	-0.1352550111	 0.0838152716	 0.0118544738	 0.289926
C	-1.2425204812	-0.8882598252	-0.3737150805	-0.431343
O	 1.0445608785	-0.0742628193	-0.8401632853	-0.331609
C	 1.9260153017	-0.4678357365	 0.2385944267	-0.17339
C	 3.0424655078	 0.4253418859	 0.4696438767	 0.327479
C	 3.9570147207	 1.1744912314	 0.6867913137	-0.434098
C	 0.7182623599	-0.3481492406	 1.2148255802	 0.307916
O	 0.5390731325	-0.5275376355	 2.3763105355	-0.27388
H	 0.2310871266	 2.2000490145	 0.3255398353	 0.136905
H	-0.9749324736	 1.8353294919	-0.9226424712	 0.133259
H	-1.3958602117	 1.6581981364	 0.7958105292	 0.133636
H	-1.6308173368	-0.6317979878	-1.3643567818	 0.134485
H	-0.8725163348	-1.9164033865	-0.4052572077	 0.127477
H	-2.0636361866	-0.8344439523	 0.347171648	 0.135826
H	 2.2713428138	-1.5040580534	 0.1180537263	 0.132504
H	 4.770694205	 1.8317155696	 0.8722525094	 0.207925
49.2885	119.7646	152.2499	179.697	208.732	215.6155	274.8164	329.8783	375.4272	404.891	474.4683	560.1001	616.8733	632.5506	681.8229	698.7691	771.1634	854.137	922.2231	943.452	964.6876	1003.7856	1020.757	1054.6171	1175.6225	1183.3166	1222.181	1273.9331	1325.8378	1392.1459	1409.6538	1470.3309	1478.5866	1493.325	1502.1925	1928.0163	2233.6974	3012.1103	3039.7708	3043.5019	3114.5237	3119.0087	3123.4494	3127.9114	3501.6733
CC1(C)OC(C#C)C1=O	CC1(C)O[C@@H](C#C)C1=O	
InChI=1S/C7H8O2/c1-4-5-6(8)7(2,3)9-5/h1,5H,2-3H3	InChI=1S/C7H8O2/c1-4-5-6(8)7(2,3)9-5/h1,5H,2-3H3/t5-/m0/s1
