18
gdb 69467	5.13561	0.87528	0.82822	3.0198	74.86	-0.2451	0.0294	0.2746	1404.5715	0.146705	-439.080789	-439.072044	-439.0711	-439.114911	32.12	
C	 0.2222550469	 1.5589883255	 0.0073460916	-0.499986
C	-0.0659759864	 0.0987349584	 0.1176794341	 0.420415
C	-1.4037563023	-0.6368208386	-0.0600560193	-0.319906
C	-0.8627785496	-1.753299895	 0.9144462012	 0.02955
N	-0.7082975096	-3.0890206485	 0.4012073258	-0.275563
C	-1.3371357349	-4.1750698245	 0.9248437316	 0.153368
O	-2.10611679	-4.1548014818	 1.8630067624	-0.32691
C	 0.4380537869	-0.9449037838	 1.0300838653	-0.068112
O	 0.9502402678	-0.8322078599	-0.3091603649	-0.300326
H	 1.2425642751	 1.7741886498	 0.3351201997	 0.137401
H	 0.1178839545	 1.8977691415	-1.0294297745	 0.134602
H	-0.475341664	 2.1375670285	 0.6211313059	 0.129362
H	-2.2614600487	-0.1051146561	 0.3588303315	 0.116794
H	-1.628461555	-0.9549396354	-1.0808563532	 0.107463
H	-1.4369782827	-1.8179948029	 1.8380782519	 0.125549
H	-0.0752091924	-3.2083136337	-0.3751436479	 0.255991
H	-1.0641307405	-5.1045111025	 0.3869774962	 0.075169
H	 1.1589227749	-0.9116937508	 1.8398372527	 0.105141
44.3107	89.1651	185.9017	200.199	222.4312	286.4834	315.6497	412.6883	435.1699	566.8847	600.9446	657.9021	702.0588	765.6356	848.1439	879.4125	912.3102	943.285	971.7469	1011.2492	1030.3369	1040.3554	1058.0653	1115.2765	1163.0549	1199.0691	1212.7358	1228.2875	1261.4217	1285.6479	1345.6495	1404.443	1430.1053	1452.6293	1476.5064	1485.0152	1495.6562	1528.619	1802.2964	2937.7101	3036.7631	3066.0243	3099.4868	3122.8719	3123.9851	3137.913	3179.5402	3625.0283
CC12CC(NC=O)C1O2	C[C@]12C[C@@H](NC=O)[C@H]1O2	
InChI=1S/C6H9NO2/c1-6-2-4(7-3-8)5(6)9-6/h3-5H,2H2,1H3,(H,7,8)	InChI=1S/C6H9NO2/c1-6-2-4(7-3-8)5(6)9-6/h3-5H,2H2,1H3,(H,7,8)/t4-,5-,6+/m1/s1
