18
gdb 8075	3.66028	2.24297	1.78185	1.6301	71.43	-0.2314	0.0102	0.2416	804.1798	0.15499	-347.799616	-347.792863	-347.791919	-347.8299	27.756	
C	-0.004287921	 1.5400148068	 0.060911228	-0.470998
C	 0.0059170326	 0.0343858673	-0.047569703	 0.403284
C	 0.7313408214	-0.6516302226	-1.2347439633	-0.275934
C	 1.1260465052	-1.654618282	-0.1271929164	 0.043617
O	 0.9726678599	-0.5887557678	 0.8603699475	-0.324582
C	 0.0046452555	-2.6540299647	 0.0687917244	-0.056198
C	-1.2096792795	-2.1334287479	 0.2405026734	-0.065891
C	-1.3642247845	-0.6271817669	 0.2157554627	-0.284158
H	 0.999687579	 1.942643028	-0.0979850685	 0.121778
H	-0.6797776215	 1.9752096842	-0.6837179637	 0.116614
H	-0.3476263705	 1.8510891924	 1.0535879502	 0.124984
H	 0.1458756423	-1.0171094492	-2.0803877759	 0.09718
H	 1.5783715686	-0.0513079212	-1.5737771808	 0.100892
H	 2.1285043548	-2.0863913019	-0.1154335571	 0.072047
H	 0.2018052707	-3.7205770919	 0.0619040724	 0.089537
H	-2.0911270368	-2.7457051313	 0.4072136632	 0.092751
H	-1.7645236565	-0.2682608254	 1.174059037	 0.111256
H	-2.0879094599	-0.3233434358	-0.5533647102	 0.103822
192.3069	232.1387	293.713	340.1541	380.8361	469.1083	491.3992	524.3091	658.8908	695.9474	736.4131	832.5938	864.2573	883.9153	919.9327	943.2313	949.8331	963.149	979.1227	1007.242	1024.8432	1086.2092	1114.0833	1163.6222	1211.9749	1228.2627	1237.0807	1247.8	1294.9457	1337.0627	1367.3607	1388.2098	1409.5553	1461.0076	1479.7922	1486.7336	1492.7052	1697.2765	3007.8078	3032.5592	3037.5429	3066.4856	3094.8456	3100.2858	3117.0546	3131.9839	3164.1299	3192.8482
CC12CC(O1)C=CC2	C[C@@]12C[C@@H](O1)C=CC2	
InChI=1S/C7H10O/c1-7-4-2-3-6(5-7)8-7/h2-3,6H,4-5H2,1H3	InChI=1S/C7H10O/c1-7-4-2-3-6(5-7)8-7/h2-3,6H,4-5H2,1H3/t6-,7+/m0/s1
