15
gdb 23430	2.88782	1.34599	1.13072	1.6409	72.1	-0.2422	-0.0506	0.1916	1081.5108	0.110936	-453.84786	-453.839652	-453.838708	-453.881584	29.68	
O	-0.2474545856	 1.3953733047	-0.0119433763	-0.382447
N	-0.0395027006	 0.012302745	-0.0789581973	-0.252639
C	-1.1413646324	-0.6096288704	-0.0932784748	 0.458317
C	-2.6118085485	-0.3095531636	 0.106131487	-0.258648
N	-2.8812122127	-1.8016183594	 0.2470856603	-0.148731
C	-2.4786522658	-2.4845346184	-1.0030463164	-0.091122
C	-2.5770139457	-1.9609955519	-2.3993404797	 0.147458
O	-2.5250074602	-0.8054445014	-2.7433840173	-0.259174
C	-1.4143401295	-2.0666871062	-0.0236380431	-0.155574
H	 0.6524036736	 1.7395755011	-0.0074602547	 0.312157
H	-2.8156104922	 0.1736147675	 1.0649384019	 0.140975
H	-3.1483539821	 0.1889406612	-0.6976380547	 0.159994
H	-2.7217866047	-3.5434046375	-0.9404448933	 0.115362
H	-2.7016451326	-2.7729940945	-3.1501666085	 0.09064
H	-0.8327359412	-2.8123585762	 0.5074106569	 0.123432
39.5349	85.7812	203.2622	225.0601	253.359	339.5942	386.0373	440.1167	488.0313	550.2145	685.5885	714.1164	769.0215	828.2959	877.28	890.0446	969.0375	1008.2448	1010.8257	1033.3174	1049.3289	1089.8406	1161.0832	1185.1939	1229.3351	1266.0186	1314.9424	1401.1648	1421.1203	1435.6377	1468.9322	1796.6075	1811.9702	2882.2848	3083.1134	3136.732	3169.8133	3180.1168	3815.2345
ON=C1CN2C(C=O)C12	ON=C1CN2[C@@H](C=O)[C@@H]12	
InChI=1S/C5H6N2O2/c8-2-4-5-3(6-9)1-7(4)5/h2,4-5,9H,1H2	InChI=1S/C5H6N2O2/c8-2-4-5-3(6-9)1-7(4)5/h2,4-5,9H,1H2/t4-,5+,7?/m0/s1
