18
gdb 79653	2.6167	1.51815	1.17342	1.5685	83.94	-0.2155	0.0257	0.2411	1101.8599	0.146341	-364.682297	-364.673966	-364.673021	-364.714849	32.69	
C	-0.0369866824	 1.5768999219	-0.0345734069	-0.445747
C	 0.159325648	 0.063607011	 0.0106605732	-0.065105
C	 1.3071071021	-0.8481958291	-0.3438714255	-0.082834
N	 2.7262120588	-0.5496529033	 0.0659464776	-0.133332
C	 2.8189468658	 0.7661930711	 0.7305975432	-0.256304
C	 2.229790354	-0.3699591805	 1.4715215689	-0.084449
C	 0.7821037463	-0.7864019469	 1.1031911126	 0.110502
C	 0.0652677659	-1.7471689387	 1.8645933136	 0.203266
C	-0.530904513	-2.5540184224	 2.5312031191	-0.413838
H	 0.4527835869	 2.0305100844	-0.9023752103	 0.132942
H	-1.1056355949	 1.7969436602	-0.1137027136	 0.121933
H	 0.3254355212	 2.0748967611	 0.8668676176	 0.137091
H	-0.7379904052	-0.4556467847	-0.324466404	 0.111275
H	 1.1881254037	-1.6462023442	-1.0663301383	 0.115591
H	 3.8490655293	 1.0069751502	 0.9819146387	 0.126383
H	 2.243183633	 1.6069098236	 0.3782580517	 0.12801
H	 2.7379533493	-0.8567987952	 2.2969782755	 0.107627
H	-1.0588818286	-3.2692864186	 3.1112544769	 0.186989
127.8169	131.4587	154.5453	215.8682	294.4424	392.7842	410.7186	484.4153	500.5983	547.1851	566.3714	652.4228	668.4026	679.8748	724.3741	765.3682	836.0319	896.6393	923.6222	965.6768	996.8558	1044.6921	1065.7795	1091.9277	1098.2617	1106.0654	1118.4046	1142.2024	1203.0497	1227.619	1262.7539	1319.3967	1359.0493	1412.5214	1459.5707	1493.3072	1502.2751	1516.2705	2227.1365	3040.2731	3098.1731	3114.7014	3126.6915	3133.5851	3171.4554	3190.1518	3271.9102	3503.4803
CC1C2N3CC3C12C#C	C[C@H]1[C@H]2N3C[C@H]3[C@@]12C#C	
InChI=1S/C8H9N/c1-3-8-5(2)7(8)9-4-6(8)9/h1,5-7H,4H2,2H3	InChI=1S/C8H9N/c1-3-8-5(2)7(8)9-4-6(8)9/h1,5-7H,4H2,2H3/t5-,6-,7+,8+,9?/m0/s1
