15
gdb 44538	3.64746	1.58298	1.50806	5.7868	65.2	-0.2411	0.056	0.2971	898.8727	0.114989	-453.907672	-453.901325	-453.900381	-453.938511	25.484	
N	-0.0746560769	 0.954246148	 0.6830483973	-0.574116
C	-0.0085978953	-0.1016353228	 0.0090769055	 0.513759
O	 1.1363095576	-0.7207383424	-0.432799105	-0.255727
C	 0.7978693383	-1.9319619967	-1.0806699114	 0.060511
C	 0.7974476431	-3.2187982041	-0.2342544348	-0.080694
N	 0.0543697887	-2.8932043254	 0.9952942798	-0.32239
C	-0.7051919196	-3.2359861873	-0.2193987443	-0.079809
C	-0.7515240849	-1.9524840652	-1.0697959986	 0.071768
O	-1.1228899885	-0.7512140967	-0.4274587044	-0.230431
H	 0.8609203825	 1.2922681569	 0.8938700136	 0.230444
H	 1.3065977806	-2.0034150223	-2.0424278723	 0.103512
H	 1.5062756778	-4.0354023335	-0.2738583809	 0.106414
H	 0.0682348997	-3.7146132497	 1.5968538921	 0.244031
H	-1.3950297473	-4.0691951058	-0.2438052233	 0.107284
H	-1.2697862058	-2.045686933	-2.0245460034	 0.105443
110.2836	189.9143	306.8493	411.4547	517.3276	608.4416	664.0702	704.4343	738.463	766.3105	797.3673	817.8782	872.1885	881.2954	908.5884	913.9502	952.3442	975.0165	1008.3818	1013.9449	1086.9111	1098.2992	1119.1349	1132.9562	1192.0203	1217.925	1261.5193	1266.7154	1331.454	1367.5167	1378.5173	1380.4589	1804.4627	3108.3594	3117.4546	3199.6725	3212.1269	3498.9457	3541.5347
N=C1OC2C3NC3C2O1	[NH][C]1O[C@H]2[C@H]3N[C@H]3[C@H]2O1	
InChI=1S/C5H6N2O2/c6-5-8-3-1-2(7-1)4(3)9-5/h1-4,6-7H	InChI=1S/C5H6N2O2/c6-5-8-3-1-2(7-1)4(3)9-5/h1-4,6-7H/t1-,2+,3-,4+
