23
gdb 64503	3.78577	1.06685	1.04159	0.214	89.91	-0.2393	0.0887	0.3281	1299.5949	0.206491	-351.111026	-351.102254	-351.10131	-351.144455	34.949	
C	 0.0502101996	 1.6068270315	 0.0381035462	-0.496382
C	 0.0563559319	 0.0899288413	 0.0257253056	 0.350384
C	-1.1734689541	-0.5793936173	-0.5472297638	-0.018282
C	-2.5761395455	-0.0558563579	-0.3561217415	-0.286171
C	-1.9445185946	-0.0419970933	-1.7282649244	-0.286203
C	 1.3077651058	-0.7160417705	-0.2528213337	-0.08652
C	 2.5747147796	-0.0714246036	 0.3231276909	-0.252216
C	 1.9208571018	-0.0855604671	 1.7431106888	-0.252231
C	 0.6645174097	-0.7300497752	 1.1442441204	-0.086506
H	 0.9671382529	 2.0183085504	 0.4635217965	 0.120876
H	-0.0426729566	 2.0131753018	-0.9748314817	 0.116826
H	-0.7818944013	 1.9970783961	 0.6340033104	 0.116825
H	-1.0947781781	-1.6639618409	-0.5220160175	 0.076794
H	-3.3652777693	-0.7721025333	-0.1545737056	 0.1076
H	-2.7110774808	 0.8973969131	 0.1420913527	 0.111445
H	-1.6611693809	 0.9204349177	-2.1388233917	 0.111446
H	-2.2990581517	-0.7487158193	-2.4707055816	 0.107603
H	 1.3031346638	-1.4904565547	-1.0121123736	 0.076951
H	 3.4401287738	-0.7356535624	 0.2678385215	 0.101209
H	 2.8647177911	 0.9002420085	-0.0896698809	 0.094193
H	 2.4466064927	-0.7569395177	 2.4257731113	 0.10121
H	 1.7882250701	 0.8770214473	 2.2475797027	 0.094197
H	 0.0905065699	-1.5168768846	 1.6213890489	 0.076953
48.8944	153.8368	186.6365	204.7799	280.1905	312.8259	352.5313	355.9208	475.8781	487.8252	656.6413	711.6696	779.5026	787.8057	811.1487	827.0647	855.8295	904.7228	931.6262	934.9589	964.2884	978.7713	998.3722	1004.2768	1030.8277	1059.4154	1079.8948	1095.1218	1096.8728	1116.321	1123.7135	1150.101	1178.8395	1200.5111	1223.2102	1236.5704	1252.4132	1260.6646	1289.2836	1321.159	1379.4927	1415.8191	1435.5614	1464.3619	1478.8517	1498.3761	1505.9669	1507.5171	1512.062	3036.2326	3043.9265	3051.4813	3090.7818	3091.4	3109.8861	3125.0708	3127.3416	3135.093	3139.8282	3159.9299	3171.4299	3211.5098	3226.2528
CC1(C2CC2)C2CCC12	C[C@@]1(C2CC2)[C@H]2CC[C@@H]12	
InChI=1S/C9H14/c1-9(6-2-3-6)7-4-5-8(7)9/h6-8H,2-5H2,1H3	InChI=1S/C9H14/c1-9(6-2-3-6)7-4-5-8(7)9/h6-8H,2-5H2,1H3/t7-,8+,9+
