19
gdb 90655	4.09116	1.01878	0.98843	2.5815	78.71	-0.2492	-0.0306	0.2186	1272.8722	0.157894	-423.012141	-423.003461	-423.002517	-423.04528	33.235	
C	-0.0909674242	 1.4706582475	-0.071448035	-0.413426
C	 0.0174043109	-0.0427063536	 0.061750996	 0.026359
C	 1.0751436531	-0.7058917742	-0.8845436794	-0.25786
C	 1.8788652374	-1.1502676174	 0.3434028769	-0.133209
C	 0.84797213	-0.5099337596	 1.2716933637	-0.142093
C	 0.9912886897	-2.0190380401	 1.2171082611	 0.366144
O	 0.0014107296	-2.8240757054	 0.6765200972	-0.480773
C	 1.6680129731	-2.6251944284	 2.3813410393	 0.094159
O	 1.3598916662	-3.7213237168	 2.7965751991	-0.298463
H	 0.8941789977	 1.9471892525	-0.0096068545	 0.114159
H	-0.5371195511	 1.7438148419	-1.0336282955	 0.11929
H	-0.7175314135	 1.8941827864	 0.721176915	 0.116999
H	-0.9738956313	-0.5014756455	 0.0155824806	 0.093887
H	 0.7239199141	-1.5098036433	-1.5347352443	 0.119088
H	 1.6084899232	 0.0381068588	-1.4809041014	 0.105284
H	 2.9600379133	-1.1856296281	 0.4211173505	 0.092225
H	 0.9868718966	 0.0474529165	 2.1926524976	 0.089349
H	 0.0071693863	-3.6254223887	 1.2246594633	 0.296359
H	 2.4705803888	-2.0223388425	 2.8522795598	 0.092522
89.4122	124.9339	184.0547	251.6995	285.5211	303.8066	305.5269	394.2402	410.6195	432.2253	548.1811	620.1399	717.1052	812.0259	829.2021	854.8795	879.057	902.1229	937.0059	989.3576	1012.2716	1027.9152	1044.4781	1057.8492	1112.4905	1123.5644	1137.7538	1198.1959	1240.1837	1248.7342	1284.8347	1294.5324	1349.1163	1364.51	1383.3331	1410.6207	1461.1838	1481.0757	1494.4052	1499.7116	1788.6546	2930.9349	3024.7362	3066.116	3068.8708	3094.6535	3098.354	3122.8208	3156.0235	3169.2229	3688.978
CC1CC2C1C2(O)C=O	C[C@H]1C[C@H]2[C@@H]1[C@]2(O)C=O	
InChI=1S/C7H10O2/c1-4-2-5-6(4)7(5,9)3-8/h3-6,9H,2H2,1H3	InChI=1S/C7H10O2/c1-4-2-5-6(4)7(5,9)3-8/h3-6,9H,2H2,1H3/t4-,5-,6+,7-/m0/s1
