18
gdb 69973	2.55166	1.86146	1.37207	2.1538	71.32	-0.2258	0.0588	0.2846	978.5374	0.146796	-439.002466	-438.994474	-438.99353	-439.034362	31.713	
C	 0.0050530878	 1.5614278035	 0.0561038111	-0.513445
C	 0.1140192826	 0.0701559428	 0.0091896267	 0.290429
N	-0.8178754746	-0.8343780159	 0.7078352732	-0.363514
C	 0.6386266318	-0.9418302153	 0.9837740356	-0.129586
C	 1.2625988639	-1.7747727836	-0.1633290138	 0.03181
O	 0.4599064996	-2.8317530129	-0.7181568202	-0.284661
C	-0.1188983989	-1.9522177577	-1.7151831134	-0.144171
C	 0.699029351	-0.7479266136	-1.1795820946	 0.31513
O	 1.4466998509	 0.0513653076	-2.0369674515	-0.478079
H	 0.9035875069	 2.0255033459	-0.3587242449	 0.144326
H	-0.8538129166	 1.9147482042	-0.5264453761	 0.129814
H	-0.1208881525	 1.9080027136	 1.0876467813	 0.11527
H	-1.2246888297	-0.308278701	 1.4811825717	 0.228361
H	 1.0158194629	-0.8162402841	 1.992308291	 0.090927
H	 2.3225417202	-2.0216001238	-0.0589183455	 0.076589
H	 0.1728189271	-2.2540812746	-2.7317632423	 0.081261
H	-1.2067637773	-1.8929275266	-1.6332076957	 0.122368
H	 1.942315725	-0.5182268584	-2.6352217128	 0.28717
153.6472	194.6281	233.1805	258.8897	275.7816	326.6307	373.1448	399.6145	477.0321	553.9149	596.9526	676.4973	778.5538	795.0932	836.3199	880.2	899.9327	949.9459	991.3077	1004.5738	1012.6975	1027.4225	1066.706	1068.4284	1099.2388	1115.8722	1149.5735	1182.8998	1255.7869	1270.7613	1286.1571	1330.0075	1342.8303	1380.8015	1410.5642	1449.1688	1477.6331	1490.0677	1500.9337	2995.0211	3028.4704	3078.9054	3088.9241	3101.0726	3118.159	3176.2425	3468.5899	3807.1142
CC12NC1C1OCC21O	C[C@]12N[C@H]1[C@H]1OC[C@@]21O	
InChI=1S/C6H9NO2/c1-5-3(7-5)4-6(5,8)2-9-4/h3-4,7-8H,2H2,1H3	InChI=1S/C6H9NO2/c1-5-3(7-5)4-6(5,8)2-9-4/h3-4,7-8H,2H2,1H3/t3-,4+,5-,6-/m0/s1
