20
gdb 112304	2.95227	1.25843	0.96441	3.2376	80.02	-0.2163	-0.014	0.2023	1257.8797	0.171217	-403.152975	-403.144474	-403.14353	-403.186192	32.595	
C	-0.0665271559	 1.5177679159	 0.0845717782	-0.386248
C	 0.0548871698	-0.0049494209	 0.0654525773	-0.113732
N	 0.687400615	-0.4956619609	-1.1525354948	-0.068338
C	 2.0949623893	-0.1414351994	-1.3266665801	-0.300856
C	 2.7017846779	-1.2787972505	-2.1638354471	 0.418493
O	 3.7024786672	-1.2003879998	-2.8293691473	-0.326513
C	 1.7825555157	-2.4488138241	-2.044946791	-0.176292
C	 1.4301389317	-2.8666015457	-0.613121358	-0.310321
C	 0.5426985243	-1.9211912113	-1.3708002901	 0.008697
H	 0.9157166709	 2.0005747346	 0.08820903	 0.121855
H	-0.6145736108	 1.8703337876	-0.7940429455	 0.126235
H	-0.5984505073	 1.8450201126	 0.9828987965	 0.115233
H	 0.5955650889	-0.3458524945	 0.9699863076	 0.077236
H	-0.9457053333	-0.4503598824	 0.1147053619	 0.1015
H	 2.2285719661	 0.8136030042	-1.8425019166	 0.136623
H	 2.6493238186	-0.0748727205	-0.3718502116	 0.109182
H	 1.779075786	-3.1910150845	-2.8320377731	 0.112829
H	 1.1075597568	-3.8953263854	-0.4970393703	 0.126098
H	 2.0398435158	-2.4919376953	 0.2018837681	 0.124977
H	-0.4473918766	-2.24481813	-1.6756609243	 0.103343
100.0725	105.7006	160.7368	210.5711	245.7699	316.5739	371.6341	461.5105	466.0658	555.3016	585.3322	661.9551	772.1508	799.5056	810.5653	850.0065	878.5705	925.3674	963.1443	992.7415	1018.4677	1046.6813	1053.047	1095.0927	1105.5233	1132.792	1170.9758	1196.3628	1199.8884	1212.0222	1246.2606	1299.1485	1323.5039	1341.6388	1378.7982	1400.6014	1418.0457	1478.8725	1488.2371	1490.9458	1497.8848	1513.9067	1844.404	2912.2618	2933.7213	3041.2512	3048.8239	3078.0633	3110.8219	3118.4811	3135.9915	3158.7856	3206.6329	3224.1919
CCN1CC(=O)C2CC12	CCN1CC(=O)[C@H]2C[C@@H]12	
InChI=1S/C7H11NO/c1-2-8-4-7(9)5-3-6(5)8/h5-6H,2-4H2,1H3	InChI=1S/C7H11NO/c1-2-8-4-7(9)5-3-6(5)8/h5-6H,2-4H2,1H3/t5-,6+/m0/s1
