16
gdb 73386	2.91021	1.74647	1.40422	4.046	68.05	-0.2396	-0.0135	0.2261	943.3357	0.12454	-437.863361	-437.856094	-437.855149	-437.894885	28.189	
C	-0.0221723785	 1.4605162625	 0.0436200627	-0.482071
C	-0.0381271256	-0.0440124367	 0.0661173326	 0.285912
C	-1.3094520855	-0.7911177244	-0.340712835	-0.14167
O	-1.2399678709	-2.0682744587	 0.2990977376	-0.254732
C	 0.1204796668	-2.2548063115	 0.6525796496	-0.064191
C	 0.6723283714	-0.8678409524	 1.0412647198	-0.097458
N	 1.2747192206	-0.6766693951	-0.3735845392	-0.240514
C	 1.0217620208	-2.0920063231	-0.5966874201	 0.405838
O	 1.496931365	-2.8070446838	-1.4204582651	-0.304579
H	 0.9572043444	 1.836542807	 0.3452325992	 0.144976
H	-0.2310632979	 1.8327530054	-0.9642702607	 0.138863
H	-0.7820540494	 1.8621744221	 0.7217997788	 0.129513
H	-2.2052032732	-0.2719227909	 0.0153636843	 0.120723
H	-1.3770648369	-0.9044470324	-1.4313073877	 0.123416
H	 0.2256866854	-3.1288453914	 1.2919940187	 0.114064
H	 1.2184788833	-0.5606743766	 1.9221879444	 0.121909
129.961	199.2989	221.5929	256.958	304.4238	407.3732	479.3236	538.6195	612.8723	660.339	737.6633	793.1814	833.6769	868.0027	879.6696	939.7899	957.4848	983.4692	1012.3843	1032.7723	1056.1146	1092.3647	1121.1177	1189.6348	1212.7293	1223.2816	1264.5994	1308.7097	1349.2427	1413.1571	1427.2071	1488.0585	1493.6497	1513.1489	1914.762	3015.1377	3042.8064	3076.1315	3107.8625	3136.965	3150.2694	3220.8563
CC12COC3C1N2C3=O	C[C@]12CO[C@@H]3[C@H]1N2C3=O	
InChI=1S/C6H7NO2/c1-6-2-9-3-4(6)7(6)5(3)8/h3-4H,2H2,1H3	InChI=1S/C6H7NO2/c1-6-2-9-3-4(6)7(6)5(3)8/h3-4H,2H2,1H3/t3-,4-,6+,7?/m1/s1
