21
gdb 103428	2.33252	1.4556	1.25067	1.5572	77.74	-0.2356	0.0521	0.2877	1138.3541	0.180863	-424.19359	-424.184077	-424.183133	-424.227308	36.731	
C	 0.1136903144	 1.5739460633	-0.1564000022	-0.408601
C	 0.0623464723	 0.0428272755	-0.0716073101	-0.216341
C	-1.3512688144	-0.5270232266	 0.0371894874	 0.355325
O	-2.1929044966	-0.074664972	-1.0164886419	-0.490185
C	-1.5178054884	-2.0464498257	 0.1077406545	-0.072671
C	-0.9205199038	-2.6119821883	 1.3627227327	-0.299882
C	-2.2639626316	-1.9431876403	 1.4419153932	-0.054198
C	-2.1004029378	-0.4312107507	 1.4389762181	 0.032746
O	-1.4146371187	 0.0624883468	 2.5720175125	-0.427756
H	 1.1479124819	 1.9281261693	-0.1903899223	 0.123238
H	-0.3813456164	 1.9477745477	-1.0594539378	 0.11525
H	-0.360623375	 2.046415417	 0.7116614717	 0.09867
H	 0.5374935909	-0.3873788631	-0.9616064377	 0.101998
H	 0.6438929183	-0.2859301751	 0.7943659354	 0.108901
H	-2.2485553774	 0.8853812711	-0.9660870815	 0.273211
H	-1.760486459	-2.6502507369	-0.7574750702	 0.091065
H	-0.9480513894	-3.6947092604	 1.4315880763	 0.111971
H	-0.0533684955	-2.1625118599	 1.8352294225	 0.122278
H	-3.1488802325	-2.4717841855	 1.7731027813	 0.084404
H	-3.0579952678	 0.0823050587	 1.2840230612	 0.067643
H	-1.4617724734	 1.0231734451	 2.5653030769	 0.282932
91.8823	124.8223	166.7059	236.5004	243.8361	272.9161	292.433	304.5887	341.7605	392.981	463.9383	512.8977	590.9856	631.4127	754.0443	777.8664	798.9821	843.6737	925.839	948.8133	968.5017	992.8493	1006.9716	1032.2495	1036.332	1067.5553	1088.1276	1100.395	1111.5272	1167.0002	1185.8109	1189.7113	1234.2402	1258.0511	1286.1684	1313.2159	1336.9319	1367.8759	1394.7031	1407.6212	1414.4336	1471.5365	1496.9255	1500.7495	1513.4991	3019.8711	3028.7132	3037.1935	3079.915	3100.1407	3106.6992	3130.0282	3185.1399	3196.5839	3211.8483	3808.0214	3825.6989
CCC1(O)C2CC2C1O	CC[C@@]1(O)[C@H]2C[C@H]2[C@H]1O	
InChI=1S/C7H12O2/c1-2-7(9)5-3-4(5)6(7)8/h4-6,8-9H,2-3H2,1H3	InChI=1S/C7H12O2/c1-2-7(9)5-3-4(5)6(7)8/h4-6,8-9H,2-3H2,1H3/t4-,5+,6-,7-/m1/s1
