15
gdb 5741	3.83626	2.18069	1.41977	0.8806	68.84	-0.1755	0.0612	0.2367	839.2757	0.12059	-362.657494	-362.650607	-362.649663	-362.688691	25.93	
O	-0.0239264476	 1.394435709	-0.1015791604	-0.435314
C	 0.0871013077	 0.0462699245	 0.0246861077	 0.312027
C	 1.1587859799	-0.828977576	-0.0393383782	-0.282597
C	 0.6709082761	-2.168748898	 0.177003478	-0.304955
C	-0.6846570588	-2.041914737	 0.3201967452	 0.308064
C	-2.0784134693	-2.4344824311	 0.7856326738	-0.368797
C	-2.3886478411	-0.8890118614	 0.7358036533	-0.168989
N	-1.0261042563	-0.7133540243	 0.2019234495	-0.034298
H	 0.8569493814	 1.7543109772	-0.2423919375	 0.304717
H	 2.1787679674	-0.5497453665	-0.2607269922	 0.082272
H	 1.2699019205	-3.0650895791	 0.2131610373	 0.092641
H	-2.6725973993	-3.038696599	 0.0941116004	 0.119187
H	-2.1479673604	-2.8719082426	 1.7851078352	 0.12195
H	-3.1780550874	-0.5675029967	 0.0515707978	 0.124938
H	-2.5366430329	-0.4253525489	 1.7149252402	 0.129154
78.9082	190.5265	226.1555	283.3015	333.9831	544.5139	616.6234	639.4499	657.2904	713.8681	727.3052	773.6901	807.0561	832.1803	906.8367	1019.9044	1050.6907	1054.032	1112.9272	1141.1458	1181.5721	1221.3314	1239.2784	1258.2478	1270.2815	1311.2542	1389.2087	1485.2719	1502.097	1530.9403	1580.6464	1599.8374	3053.9786	3058.9115	3095.5365	3113.8885	3229.6441	3255.7595	3844.9209
OC1=CC=C2CCN12	Oc1ccc2CCn12	
InChI=1S/C6H7NO/c8-6-2-1-5-3-4-7(5)6/h1-2,8H,3-4H2	InChI=1S/C6H7NO/c8-6-2-1-5-3-4-7(5)6/h1-2,8H,3-4H2
