18
gdb 38467	3.02401	2.18548	1.80063	1.3657	75.34	-0.2298	0.0254	0.2552	823.3961	0.150024	-401.761693	-401.755777	-401.754833	-401.791452	26.543	
C	-0.028244358	 1.6396118414	-0.0380112723	-0.289494
C	 1.5859896925	 1.6667511995	-0.0702488039	 0.042968
O	 2.4402980173	 1.5812104056	 1.136959579	-0.374374
C	 1.7016770445	 0.3178695023	 1.4048982789	 0.323445
C	 1.2897934249	-1.2450281572	 1.6961697437	-0.248685
N	-0.09903342	-0.6357521657	 1.5012794642	-0.151015
C	 0.4549474422	 0.5394484441	 2.2579931639	-0.182651
C	-0.0520460169	 0.0406126647	 0.0797478878	-0.031249
C	 1.4318087669	 0.1763803059	-0.1191755052	-0.016244
H	-0.6198912018	 2.2767871557	 0.6212329806	 0.116385
H	-0.3141526254	 1.8667139407	-1.0703216583	 0.115237
H	 2.0423252944	 2.3306086332	-0.8029279538	 0.090527
H	 1.6057118651	-1.9903135912	 0.9650472513	 0.114742
H	 1.3736513694	-1.6094761243	 2.7186473389	 0.125523
H	 0.6335822294	 0.269442634	 3.302260348	 0.099913
H	-0.1207596126	 1.4587622236	 2.2292392347	 0.106249
H	-0.7234085975	-0.4793825585	-0.6012979619	 0.078531
H	 2.1069082358	-0.5009786839	-0.6395333156	 0.080191
251.8619	333.0679	448.3337	482.6721	537.7238	594.285	630.2231	701.8649	716.3881	749.804	775.1087	802.5414	845.8184	863.7494	885.0741	902.9182	937.2914	949.4284	965.4777	983.161	995.7165	1043.3184	1077.5921	1090.1492	1118.5383	1159.9039	1164.9476	1173.4974	1190.659	1201.5867	1218.1186	1258.7426	1271.8783	1293.1842	1299.9998	1345.8024	1473.1726	1501.4599	1568.652	3057.6277	3068.7122	3086.3983	3111.4927	3115.8612	3126.7919	3135.006	3171.3048	3175.8564
C1C2OC34CN(C3)C1C24	C1[C@H]2O[C@@]34CN(C3)[C@@H]1[C@@H]24	
InChI=1S/C7H9NO/c1-4-6-5(1)9-7(6)2-8(4)3-7/h4-6H,1-3H2	InChI=1S/C7H9NO/c1-4-6-5(1)9-7(6)2-8(4)3-7/h4-6H,1-3H2/t4-,5+,6-/m0/s1
