18
gdb 82674	2.7429	1.61605	1.23234	2.1138	83.21	-0.2352	0.0335	0.2687	1055.2915	0.147066	-364.712522	-364.704568	-364.703623	-364.74466	31.493	
C	 0.029600118	 1.6194453062	-0.0346371758	-0.431467
C	 0.09511274	 0.099609494	-0.0038546961	-0.042729
C	 1.1295141789	-0.7039204135	-0.8471881968	-0.123843
C	 2.4877870192	-0.2261186316	-0.309300831	-0.154455
N	 2.179661731	-0.8627758957	 1.0144459486	-0.182861
C	 1.1955971551	-1.7420245075	 0.3362457132	-0.114919
C	 0.6800655568	-0.6471861834	 1.208862377	 0.229983
C	 0.1624810326	-0.6811579218	 2.5322268263	 0.133049
C	-0.3204438868	-0.6852918953	 3.6341064996	-0.357168
H	 0.9967746736	 2.0856319718	 0.1696080735	 0.123704
H	-0.3201940016	 1.974392638	-1.0102853425	 0.117039
H	-0.6739428142	 1.9804077093	 0.7228334681	 0.131109
H	-0.8993797091	-0.3207349539	-0.1887497704	 0.088302
H	 0.9485578224	-0.9043463406	-1.9014630409	 0.077155
H	 3.3308991153	-0.7679609294	-0.7457062116	 0.11435
H	 2.7121533747	 0.844827934	-0.2847788114	 0.102864
H	 1.1585447258	-2.8193854476	 0.4292917718	 0.107695
H	-0.7331295517	-0.694523233	 4.6121834284	 0.182191
123.9448	152.5349	171.4161	237.5032	286.4323	425.0592	495.233	505.6977	550.4356	594.7076	608.9515	651.818	657.9849	754.2686	787.919	834.4388	872.8467	924.1296	949.378	969.7079	1005.343	1031.9958	1063.8891	1087.7508	1124.1618	1135.8791	1150.0739	1164.7824	1210.855	1222.122	1285.6389	1302.8131	1355.0938	1396.96	1411.7252	1490.2561	1494.787	1520.1858	2239.0399	3036.032	3049.1572	3052.2702	3099.4673	3104.9647	3120.0205	3134.3831	3206.3221	3503.991
CC1C2CN3C2C13C#C	C[C@H]1[C@H]2CN3[C@H]2[C@]13C#C	
InChI=1S/C8H9N/c1-3-8-5(2)6-4-9(8)7(6)8/h1,5-7H,4H2,2H3	InChI=1S/C8H9N/c1-3-8-5(2)6-4-9(8)7(6)8/h1,5-7H,4H2,2H3/t5-,6+,7+,8-,9?/m0/s1
