19
gdb 58977	3.61959	0.95323	0.86098	4.6715	80.26	-0.2307	-0.0383	0.1924	1383.583	0.158246	-423.069009	-423.059742	-423.058798	-423.103755	33.919	
C	-0.2502763182	 1.4488151582	 0.1089191758	-0.407947
C	 0.0393670247	-0.0525509612	-0.0471174406	 0.025646
O	 0.9025934538	-0.3012925566	-1.1527491868	-0.435911
C	 0.7174963219	-0.6046982725	 1.1759686923	 0.363494
C	 0.1145594147	-1.1861489096	 2.2232901832	-0.325181
C	 1.0974623607	-1.5567002402	 3.2627798737	 0.400164
O	 0.8745790409	-2.0920089284	 4.3244705257	-0.339192
C	 2.4799596902	-1.1324848198	 2.7367516197	-0.344767
C	 2.2192590766	-0.5139372681	 1.3516432181	-0.306629
H	 0.6767882717	 2.007653067	 0.2657909968	 0.131563
H	-0.7351495434	 1.8342482745	-0.7955920696	 0.112315
H	-0.919755861	 1.6313780935	 0.9541083157	 0.132161
H	-0.9178101705	-0.5791468422	-0.184258255	 0.08166
H	 0.5213252798	 0.1230445681	-1.9277706841	 0.286991
H	-0.945112194	-1.3837323968	 2.3315127912	 0.104258
H	 2.9315027439	-0.4283935405	 3.4419102705	 0.131267
H	 3.1369782549	-2.006160908	 2.7008568006	 0.133299
H	 2.7205450702	-1.0475430782	 0.5384684724	 0.139884
H	 2.5588279933	 0.526023401	 1.2785390706	 0.116926
42.7376	96.0221	115.9513	192.6464	247.3954	260.2265	271.7647	338.6934	449.8589	515.9523	543.3486	566.2079	626.7449	643.2147	826.9477	835.3122	857.2588	899.5108	909.5387	991.5077	1009.4828	1019.5237	1079.761	1118.7661	1136.9358	1157.0938	1185.2274	1227.4434	1230.2548	1260.5653	1304.5395	1351.7452	1358.5922	1397.3341	1416.7998	1450.3329	1477.4178	1489.6661	1498.2143	1680.703	1811.8259	2979.8921	3031.265	3042.4963	3066.1772	3081.0774	3102.2494	3107.2921	3125.5182	3209.5609	3823.2745
CC(O)C1=CC(=O)CC1	C[C@@H](O)C1=CC(=O)CC1	
InChI=1S/C7H10O2/c1-5(8)6-2-3-7(9)4-6/h4-5,8H,2-3H2,1H3	InChI=1S/C7H10O2/c1-5(8)6-2-3-7(9)4-6/h4-5,8H,2-3H2,1H3/t5-/m1/s1
