23
gdb 105483	1.87593	1.48331	1.17947	2.6416	85.35	-0.2355	-0.0074	0.2281	1241.5352	0.203842	-388.309782	-388.299463	-388.298519	-388.345312	37.929	
C	 0.6042439311	 1.7166686611	 0.0315134475	-0.393293
C	 0.1411452288	 0.2586944407	-0.0609970218	-0.25433
C	 0.6183426882	-0.475866964	-1.32640163	 0.264981
C	 2.1371513183	-0.8166034458	-1.3264884122	-0.269273
C	 1.8016699213	-2.2769218432	-0.9244403008	-0.210748
C	 0.3107375075	-2.0175033465	-1.268552937	-0.27621
C	 0.1001190975	 0.1825696893	-2.6003467392	 0.322058
C	-1.4092152413	 0.336211679	-2.732121206	-0.486243
O	 0.8418317804	 0.5445773039	-3.4864371009	-0.309777
H	 1.695486862	 1.7917079806	-0.0044703747	 0.127768
H	 0.2097991043	 2.3212898046	-0.792182357	 0.123246
H	 0.2694326055	 2.1728216517	 0.9679859752	 0.115264
H	 0.5082814564	-0.2966700589	 0.8112430147	 0.100409
H	-0.9536234167	 0.2120550497	-0.0057333461	 0.097607
H	 2.5580015345	-0.7256118587	-2.3289139005	 0.124863
H	 2.7619118312	-0.246894702	-0.6344005261	 0.094627
H	 2.2987471074	-3.0680662928	-1.4898475943	 0.102136
H	 1.9562190486	-2.4717193381	 0.1397951465	 0.102436
H	-0.4364474774	-2.3273448168	-0.5322766082	 0.09758
H	 0.0276026686	-2.4271141151	-2.2425413543	 0.105905
H	-1.9393077469	-0.5588721052	-2.3925176829	 0.135097
H	-1.7536663712	 1.1695299391	-2.1091576175	 0.145343
H	-1.6610567481	 0.5515636872	-3.7713461943	 0.140552
56.1168	87.6538	116.7847	140.5395	183.1619	207.8368	210.0766	284.7213	340.0904	377.6058	442.618	515.8786	591.0856	631.5135	703.8413	780.5298	795.7092	847.0304	858.035	925.4707	951.5286	953.4576	990.7039	1002.0237	1026.1297	1033.5418	1067.0817	1124.9104	1145.4634	1194.418	1215.2559	1235.8236	1256.1725	1272.3607	1279.6896	1282.3842	1342.2196	1361.5823	1381.3321	1416.1148	1463.7126	1474.9905	1478.0368	1485.2894	1491.7224	1499.3065	1504.4628	1507.6288	1798.325	3022.3205	3036.3766	3040.9072	3047.4692	3054.0467	3063.1052	3073.123	3094.309	3102.0026	3104.1303	3108.7932	3113.116	3134.4214	3150.1019
CCC1(CCC1)C(C)=O	CCC1(CCC1)C(=O)C	
InChI=1S/C8H14O/c1-3-8(7(2)9)5-4-6-8/h3-6H2,1-2H3	InChI=1S/C8H14O/c1-3-8(7(2)9)5-4-6-8/h3-6H2,1-2H3
