18
gdb 95107	2.45681	1.57428	1.16306	2.8493	76.74	-0.241	0.0136	0.2546	1087.607	0.150732	-398.129267	-398.121225	-398.120281	-398.161708	31.227	
N	 0.1207693213	 1.4672927141	 0.0060554317	-0.515663
C	 0.0120041664	 0.0192221236	-0.0240317892	-0.03131
C	 0.6986094448	-0.631619109	 1.2031159745	-0.219717
C	-0.0120804498	-1.9797535518	 1.4448712879	-0.224143
C	-1.4253905398	-1.7545861146	 0.9370248064	-0.075772
N	-2.0108043172	-0.4773385291	 1.3786909058	-0.370153
C	-1.4099877554	-0.5766703726	 0.0207013939	 0.20294
C	-2.2570495859	-0.4816188743	-1.1318218267	 0.181893
N	-2.922317231	-0.3673022453	-2.0724530094	-0.342151
H	-0.2772351358	 1.873804593	-0.8355545789	 0.236765
H	-0.4173175621	 1.8263415885	 0.7909573595	 0.237244
H	 0.4822446723	-0.3338290814	-0.9496739592	 0.096558
H	 1.7733648392	-0.7384509253	 1.0466776042	 0.112164
H	 0.5560886448	 0.0258841698	 2.0639792428	 0.123818
H	 0.446145585	-2.783996203	 0.8581082236	 0.111921
H	 0.0085055964	-2.2839045899	 2.4956513657	 0.115487
H	-2.0882263485	-2.5940448967	 0.7535953847	 0.110413
H	-3.0246410145	-0.521716526	 1.3018864628	 0.249706
108.6551	142.6378	176.7555	247.3812	330.4984	355.9638	394.1591	487.9623	502.2124	571.0971	603.0791	637.15	677.3008	825.7217	848.1329	880.1316	890.8724	922.2612	967.6277	992.7654	1028.6187	1064.6751	1066.1445	1128.9601	1142.4032	1175.2161	1242.3893	1246.2347	1275.6068	1283.4114	1329.8693	1343.541	1349.9607	1416.9238	1424.659	1479.8903	1493.6585	1661.0134	2342.1902	3041.6536	3045.5496	3077.3613	3091.2446	3127.0936	3170.3713	3483.3041	3503.7236	3565.7526
NC1CCC2NC12C#N	N[C@H]1CC[C@H]2N[C@@]12C#N	
InChI=1S/C6H9N3/c7-3-6-4(8)1-2-5(6)9-6/h4-5,9H,1-2,8H2	InChI=1S/C6H9N3/c7-3-6-4(8)1-2-5(6)9-6/h4-5,9H,1-2,8H2/t4-,5+,6-/m0/s1
