19
gdb 79927	2.52157	1.4164	1.19232	3.0089	77.24	-0.2216	0.0112	0.2328	1129.3528	0.158014	-423.019938	-423.011155	-423.010211	-423.052686	34.418	
C	 0.0631528673	 1.4674709979	 0.0326847557	-0.487984
C	 0.0327439006	-0.0275185771	-0.0225742401	 0.286312
C	 0.0020426545	-0.8019301101	-1.1195494236	-0.191631
C	 0.0047895813	-2.2545198575	-0.8016334307	-0.227872
C	 1.2227435957	-2.7603727694	-0.0242671878	 0.093445
O	 2.436249284	-2.0799897787	 0.0113723797	-0.427299
C	 0.0167045585	-2.3210711	 0.7389488724	 0.341963
O	-0.654129674	-3.2970540885	 1.4704173493	-0.467024
C	 0.0136418925	-0.8738011045	 1.2373901408	-0.383503
H	 0.9592533622	 1.8358369279	 0.5476855431	 0.12901
H	 0.0434248984	 1.9071665975	-0.9683424146	 0.125323
H	-0.7961938876	 1.8571221604	 0.5937033133	 0.127036
H	-0.0041516169	-0.4225987237	-2.1364236668	 0.09328
H	-0.5395995046	-2.9639546974	-1.4156591697	 0.088525
H	 1.3734454711	-3.8351344156	-0.0547227506	 0.113343
H	 2.2841829638	-1.2006395497	-0.3588567496	 0.282669
H	-1.59903539	-3.110174564	 1.4258548582	 0.278769
H	 0.8822470913	-0.6752837851	 1.8786173348	 0.125818
H	-0.8778048179	-0.6688233025	 1.8475047562	 0.099818
125.1128	176.6927	202.6185	253.0423	270.4572	301.0316	323.1273	345.9779	403.3421	433.112	531.2305	542.0059	598.0903	664.2852	756.9504	833.3142	863.4719	868.497	905.29	947.4343	961.0396	1003.1962	1051.749	1057.8532	1072.4607	1121.8019	1160.0856	1188.1275	1208.0901	1238.4881	1285.017	1309.2194	1327.1334	1345.3117	1387.2527	1416.6445	1452.8576	1476.9275	1480.3894	1491.2706	1689.8973	3006.789	3017.4731	3045.564	3062.2253	3109.6856	3162.7333	3171.0385	3183.0822	3751.5957	3780.165
CC1=CC2C(O)C2(O)C1	CC1=C[C@H]2[C@@H](O)[C@@]2(O)C1	
InChI=1S/C7H10O2/c1-4-2-5-6(8)7(5,9)3-4/h2,5-6,8-9H,3H2,1H3	InChI=1S/C7H10O2/c1-4-2-5-6(8)7(5,9)3-4/h2,5-6,8-9H,3H2,1H3/t5-,6+,7+/m0/s1
