21
gdb 122379	4.01631	0.82615	0.79147	1.2773	79.26	-0.2263	0.0711	0.2974	1562.5011	0.181364	-424.168546	-424.159227	-424.158282	-424.203895	33.783	
C	 0.1839702089	 1.0768883354	 0.4354902851	-0.38279
C	-0.2264781312	-0.1059088739	-0.4451419289	-0.183357
C	-1.4548801265	-0.8263234431	 0.0905849015	-0.037037
O	-1.7599223823	-1.9061879339	-0.7848974114	-0.252878
C	-2.8663790034	-2.6416279561	-0.394533224	 0.105808
C	-2.8678077669	-4.1322695573	-0.5799121004	-0.195447
C	-1.4954270113	-4.6710590358	-0.1818396382	-0.079651
O	-1.5496043162	-4.000050766	 1.1074197603	-0.283063
C	-2.8616087175	-3.5244847888	 0.821756719	 0.041714
H	 1.0721427753	 1.5748647014	 0.036097389	 0.116519
H	-0.6147189668	 1.8243216423	 0.4990824112	 0.114784
H	 0.4156342725	 0.7524956422	 1.4559440375	 0.118797
H	-0.4360936935	 0.2338200158	-1.4659740044	 0.104081
H	 0.5942484537	-0.8286533328	-0.5176672401	 0.108577
H	-1.269083818	-1.2129051153	 1.1027107659	 0.107473
H	-2.3109192422	-0.1333070566	 0.1488649247	 0.080297
H	-3.8331078908	-2.1694313223	-0.5888682922	 0.086231
H	-3.6255335611	-4.6699481451	-1.1337351051	 0.100741
H	-1.477808577	-5.7568165523	-0.0419407045	 0.107513
H	-0.6411577859	-4.3453269929	-0.7822231454	 0.1194
H	-3.5838594599	-3.5060939549	 1.6310411806	 0.102288
49.1722	59.2355	116.3426	128.4128	229.3023	238.0081	259.2688	365.414	376.9375	529.9133	692.3602	730.0914	765.8361	800.6399	822.6308	901.3988	913.2444	926.6395	966.7468	972.6697	1015.3389	1042.0569	1049.8008	1054.8336	1074.4891	1097.6989	1127.3225	1154.2586	1171.6104	1188.4778	1224.9378	1260.7581	1267.06	1312.1191	1316.6543	1332.5841	1352.5531	1408.1829	1413.8993	1456.1449	1491.3899	1500.3672	1503.6679	1506.677	1521.752	2963.9798	3020.7336	3031.6529	3038.7443	3041.8257	3072.3083	3072.6262	3099.3743	3100.4038	3107.8491	3168.4169	3202.8397
CCCOC1C2COC12	CCCO[C@H]1[C@H]2CO[C@@H]12	
InChI=1S/C7H12O2/c1-2-3-8-6-5-4-9-7(5)6/h5-7H,2-4H2,1H3	InChI=1S/C7H12O2/c1-2-3-8-6-5-4-9-7(5)6/h5-7H,2-4H2,1H3/t5-,6+,7-/m1/s1
