21
gdb 36481	3.85351	1.012	0.87989	0.812	87.3	-0.2527	0.0596	0.3123	1359.6286	0.183524	-349.927366	-349.918842	-349.917898	-349.96061	33.667	
C	-0.0284307012	-1.2247038121	-0.0471737647	-0.451912
C	-0.0360937006	-0.0235650897	 0.0074967207	 0.307097
C	-0.014550056	 1.4333712409	 0.0749445247	-0.371964
C	 1.4073156883	 2.0288413129	 0.0048701311	 0.031076
C	 2.1622569466	 1.7089113274	-1.3084255017	-0.232351
C	 3.1899063798	 2.8505988328	-1.476706409	-0.219925
C	 2.5461467395	 4.05593012	-0.8028737254	-0.032333
C	 1.1031880157	 4.3501094717	-1.1316280358	-0.291898
C	 1.44725164	 3.5496914182	 0.1042117016	-0.042184
H	-0.0333012929	-2.2852924816	-0.0960897097	 0.191604
H	-0.6175038476	 1.8485331891	-0.7433156597	 0.126661
H	-0.4992646148	 1.759673684	 1.0042103441	 0.125038
H	 1.9797289857	 1.6230502703	 0.8491508529	 0.081052
H	 2.6249244787	 0.7202289544	-1.2870998295	 0.108836
H	 1.4575672035	 1.7018190448	-2.1475138495	 0.10245
H	 4.1225180435	 2.6045767413	-0.9545759909	 0.098963
H	 3.4474427237	 3.0259279725	-2.5270280815	 0.095867
H	 3.1804919915	 4.8826332418	-0.5021467952	 0.079355
H	 0.7579706584	 5.3663560943	-0.9755284841	 0.108435
H	 0.6387852315	 3.8589256551	-1.9812067404	 0.107958
H	 1.2639219367	 4.0034883618	 1.072718462	 0.078173
70.0214	106.4268	166.4329	244.3056	303.8604	351.3372	373.0752	433.0355	498.4209	616.3344	621.1886	631.4533	642.3448	771.5123	819.7002	826.7602	848.6898	898.7271	932.9047	954.5035	965.6233	984.7737	1001.6319	1046.0002	1060.5344	1080.1709	1098.2239	1109.4282	1133.8129	1178.8192	1204.5155	1222.4268	1248.4435	1293.6079	1313.5503	1327.4634	1344.5674	1354.3305	1379.572	1398.2814	1470.7598	1484.4368	1493.2888	1510.7381	2235.637	3014.534	3019.5802	3030.3309	3043.7034	3051.801	3069.9013	3109.3779	3127.6703	3155.875	3168.1066	3209.0883	3505.9777
C#CCC1CCC2CC12	C#CC[C@H]1CC[C@H]2C[C@@H]12	
InChI=1S/C9H12/c1-2-3-7-4-5-8-6-9(7)8/h1,7-9H,3-6H2	InChI=1S/C9H12/c1-2-3-7-4-5-8-6-9(7)8/h1,7-9H,3-6H2/t7-,8-,9-/m0/s1
