17
gdb 72774	2.7808	1.77128	1.48951	1.7146	73.34	-0.2472	-0.0111	0.2361	933.369	0.136401	-421.777712	-421.770511	-421.769567	-421.808907	29.26	
O	-0.2705399918	 1.4593799753	-0.1567348123	-0.483601
C	-0.0096170364	 0.0698331715	-0.067060812	 0.361923
C	-1.1886437338	-0.627707533	 0.6841187254	-0.261863
C	-0.3464195247	-0.5686700384	 2.0177762698	-0.315003
C	 0.840190843	-0.3995120646	 1.0954174316	 0.181046
C	 1.9560379671	-1.0281565843	 0.7105847397	-0.229902
C	 2.0084087096	-1.0305843717	-0.7883379513	 0.006548
O	 0.9478816738	-1.859106094	-1.3407026984	-0.24946
C	 0.7317417671	-0.4565272779	-1.2885212598	-0.076535
H	 0.5775800782	 1.9173729515	-0.1717248194	 0.280116
H	-2.1261055403	-0.069404596	 0.6718244696	 0.116409
H	-1.333759559	-1.6517117191	 0.3394634525	 0.130333
H	-0.5900592333	 0.3282834057	 2.5926720054	 0.122929
H	-0.3565098664	-1.440320396	 2.6744967737	 0.11419
H	 2.6099704862	-1.6388938929	 1.3223067766	 0.106259
H	 2.9300543286	-1.0449848434	-1.3620967103	 0.100254
H	 0.639878452	 0.0580355574	-2.2423133509	 0.096357
165.1693	199.7324	236.5661	315.1171	353.5018	440.8164	453.9571	526.2659	605.3063	678.7903	715.9237	770.1731	809.1697	821.1832	855.4325	868.0173	898.8149	936.878	960.2962	985.8609	1031.8503	1064.6066	1103.0087	1112.2402	1161.4217	1176.2865	1204.0942	1235.4135	1241.5248	1254.9948	1290.7331	1322.8113	1346.6103	1379.439	1455.4524	1475.7599	1685.1059	3068.2114	3082.3256	3124.152	3142.7444	3157.4512	3164.1426	3198.7644	3796.9139
OC12CCC1=CC1OC21	O[C@]12CC[C]1[CH][C@H]1O[C@@H]21	
InChI=1S/C7H8O2/c8-7-2-1-4(7)3-5-6(7)9-5/h3,5-6,8H,1-2H2	InChI=1S/C7H8O2/c8-7-2-1-4(7)3-5-6(7)9-5/h3,5-6,8H,1-2H2/t5-,6-,7-/m1/s1
