17
gdb 79052	3.77628	1.59065	1.36883	0.8208	71.2	-0.2442	0.0611	0.3054	939.1909	0.137707	-421.723326	-421.716883	-421.715939	-421.75383	27.002	
O	 0.3124299815	 1.4246468084	-0.1908422228	-0.43549
C	 0.0756612492	 0.0532405271	-0.0716570693	 0.052657
C	 0.0819158499	-0.6418509143	 1.3307380414	-0.160032
C	-1.3749897176	-0.1737951096	 1.6473633933	-0.105775
C	-2.0291163634	-1.5586625623	 1.7176185313	 0.080721
O	-3.2054492746	-1.5206192152	 0.8782470633	-0.294713
C	-2.796913708	-0.7797830972	-0.3052339832	-0.19056
C	-1.3686401726	-0.492183183	 0.1008837804	 0.214687
C	-0.8204618438	-1.7912307485	 0.8033685502	-0.070079
H	-0.1766158745	 1.8812457089	 0.502876442	 0.284626
H	 0.6752013592	-0.4299813888	-0.8488606379	 0.094158
H	 0.9131984558	-0.7265827041	 2.0302058465	 0.078416
H	-1.7064927093	 0.7615306628	 2.1009462639	 0.073566
H	-2.2694472843	-2.1156753959	 2.6225564612	 0.080448
H	-2.8967570524	-1.4140835615	-1.1927058755	 0.109111
H	-3.4271755201	 0.1084728195	-0.4196055812	 0.108431
H	-0.5086103052	-2.6899837862	 0.2711750064	 0.079828
197.0263	238.4782	327.4508	346.6248	411.0711	533.7527	545.2622	691.0198	733.8409	748.9477	813.8885	850.557	869.5036	895.9687	899.8699	927.7338	944.0216	962.2444	996.5122	1002.2331	1096.4926	1107.6653	1121.2405	1129.3006	1137.0224	1171.2928	1182.7888	1199.6716	1208.5111	1218.7456	1252.4863	1289.8014	1297.1715	1318.7201	1360.2572	1446.121	1521.9195	3034.2449	3075.6027	3078.1571	3097.1226	3111.5864	3120.0519	3133.4095	3800.8498
OC1C2C3C4OCC13C24	O[C@H]1[C@H]2[C@@H]3[C@H]4OC[C@@]13[C@@H]24	
InChI=1S/C7H8O2/c8-6-2-3-5-4(2)7(3,6)1-9-5/h2-6,8H,1H2	InChI=1S/C7H8O2/c8-6-2-3-5-4(2)7(3,6)1-9-5/h2-6,8H,1H2/t2-,3+,4-,5+,6-,7+/m0/s1
