16
gdb 42482	4.43633	0.75074	0.67109	4.6751	72.06	-0.3058	-0.0663	0.2395	1615.7933	0.123213	-437.90213	-437.893163	-437.892219	-437.937552	31.028	
O	-0.0487627497	-0.0775387188	-0.3466986255	-0.333022
C	 0.0692464387	 1.0794030692	-0.0452645273	 0.363902
O	 1.194426638	 1.7819681801	 0.0212041593	-0.227477
C	 2.4110264689	 1.0549186495	-0.3240869223	-0.094054
C	 3.5644097066	 1.9996283575	-0.1977055389	-0.001864
C	 4.1770620524	 2.2608828347	 1.1550456466	-0.249703
C	 4.9255322712	 1.4389852872	 0.1399933462	-0.272134
C	-1.0760528497	 1.9282194596	 0.3149220801	 0.254488
N	-2.0102631877	 2.5488660482	 0.5896373165	-0.305759
H	 2.504672202	 0.2020125385	 0.3552386038	 0.131139
H	 2.2930459318	 0.6660891271	-1.339930643	 0.137962
H	 3.5392883261	 2.833142431	-0.8927304185	 0.102913
H	 4.5256019647	 3.2646346708	 1.3677438852	 0.125217
H	 3.7506002707	 1.7479267956	 2.0105226975	 0.121537
H	 5.0095343484	 0.3707318159	 0.310117378	 0.121666
H	 5.7862133676	 1.876666424	-0.3519497577	 0.125188
38.6925	56.5357	101.5122	156.9667	203.9509	267.1147	340.0869	358.8213	416.8567	546.5562	616.385	773.3361	777.529	813.9108	839.7804	895.7297	934.1156	954.7737	979.555	1040.8793	1064.3214	1086.0297	1135.5779	1196.151	1200.5392	1228.2588	1268.7297	1279.6693	1371.8347	1440.5446	1471.2913	1496.0827	1510.0572	1815.0869	2360.9733	3054.8727	3102.5842	3137.117	3141.7039	3161.1615	3216.9721	3231.5129
O=C(OCC1CC1)C#N	O=C(OCC1CC1)C#N	
InChI=1S/C6H7NO2/c7-3-6(8)9-4-5-1-2-5/h5H,1-2,4H2	InChI=1S/C6H7NO2/c7-3-6(8)9-4-5-1-2-5/h5H,1-2,4H2
