21
gdb 89497	3.01319	1.33442	1.13394	1.459	85.01	-0.2336	0.0066	0.2402	1183.643	0.182251	-387.068686	-387.060092	-387.059148	-387.101391	33.92	
C	-0.1261738255	 1.5720598243	 0.0146089168	-0.399787
C	 0.0340099639	 0.0506567827	 0.0742978518	-0.001551
C	 0.7837807517	-0.5492188168	-1.1666702585	-0.300158
C	 1.4304074758	-1.8252546776	-0.5960641506	 0.419704
C	 0.7217662807	-3.1179161125	-0.9708187273	-0.444175
O	 2.8990201657	-2.0223341007	-0.6834077599	-0.348099
C	 3.0076553706	-2.0649814985	 0.7722806859	-0.168711
C	 1.6261509757	-1.4696409918	 0.8476283456	 0.145545
C	 0.9239673884	-0.4136248132	 1.2363297049	-0.209878
H	 0.8506242003	 2.0666903049	-0.0284843023	 0.117514
H	-0.6936975205	 1.8713968484	-0.8727660456	 0.115768
H	-0.6577201267	 1.9513737352	 0.8938795977	 0.113484
H	-0.970362072	-0.3925831926	 0.1447981138	 0.080425
H	 0.12603986	-0.7210112293	-2.0249147565	 0.088702
H	 1.5760533192	 0.1433390742	-1.4702791787	 0.112035
H	 0.9029159059	-3.3463130488	-2.0264872667	 0.126365
H	 1.0834787436	-3.9596622022	-0.3736696439	 0.11704
H	-0.3594949215	-3.0270340913	-0.8221897114	 0.117311
H	 3.1203800081	-3.0966700326	 1.1307418157	 0.10545
H	 3.8320397721	-1.4545001756	 1.155148646	 0.117324
H	 1.0260237246	 0.1511652438	 2.1565005932	 0.095691
98.6831	182.0529	234.2946	238.8597	245.0565	282.2218	341.8995	361.7395	437.0924	490.2521	547.7391	615.6898	720.8158	803.291	812.9955	845.392	869.6616	902.1187	916.7001	942.2419	960.638	995.6647	1014.8133	1046.4725	1077.466	1126.7686	1137.8527	1148.3316	1177.1044	1216.0643	1237.8421	1275.6684	1295.2099	1312.1205	1336.2414	1360.5194	1404.5536	1408.9667	1478.3601	1487.1066	1489.4917	1497.555	1498.6123	1510.3023	1744.1379	2988.075	3010.6547	3027.3182	3032.5231	3043.2848	3073.0008	3093.2458	3098.2501	3099.3378	3102.0915	3113.1368	3191.3415
CC1CC2(C)OCC2=C1	C[C@H]1C[C@@]2(C)OC[C]2[CH]1	
InChI=1S/C8H12O/c1-6-3-7-5-9-8(7,2)4-6/h3,6H,4-5H2,1-2H3	InChI=1S/C8H12O/c1-6-3-7-5-9-8(7,2)4-6/h3,6H,4-5H2,1-2H3/t6-,8-/m1/s1
