18
gdb 126009	2.98542	1.59416	1.08595	3.0081	78.22	-0.1853	0.0266	0.2119	1097.5603	0.151885	-398.138691	-398.131124	-398.130179	-398.170651	29.497	
C	-0.2525169994	 1.5479952256	-0.0166119059	-0.399998
C	 0.0345568911	 0.044916726	 0.0372026172	-0.120188
C	 0.9514030758	-0.4540580282	-1.1341461939	-0.170692
N	 1.7356518616	-1.6062373672	-0.6062029841	-0.416629
C	 1.7924145598	-1.3729108588	 0.786980348	 0.211928
C	 0.8528010726	-0.4589611458	 1.1891802581	 0.349407
N	 0.9064084008	-0.4172898528	 2.5428247011	-0.336695
N	 1.8642638092	-1.2319910428	 3.0372740775	-0.229663
C	 2.4037562371	-1.834574203	 1.9674252439	-0.143914
H	 0.6753931557	 2.1257784855	 0.0420649865	 0.12212
H	-0.7630703939	 1.8140031042	-0.948131579	 0.120069
H	-0.8987706167	 1.8587059215	 0.8109387829	 0.11379
H	-0.923886361	-0.4944549845	-0.0026227516	 0.094657
H	 0.3730218987	-0.7513730076	-2.0131864589	 0.108272
H	 1.6152260106	 0.3746664139	-1.4255465708	 0.095963
H	 2.6398150076	-1.6887828562	-1.0552861268	 0.229954
H	 0.3819906782	 0.1509357963	 3.1848446071	 0.268053
H	 3.199369732	-2.5503955062	 2.1082924689	 0.103565
113.2361	157.3285	220.4953	259.8826	312.8425	422.7969	465.4104	482.4347	561.1175	640.6944	678.6659	695.0211	732.6546	811.9947	853.632	907.634	946.9584	975.2322	1008.2248	1049.7343	1102.4272	1110.4737	1129.0866	1148.8921	1220.3174	1244.4449	1293.784	1310.859	1335.3686	1358.3645	1381.148	1410.7972	1415.5583	1466.2789	1496.6172	1499.4315	1510.8159	1562.0256	1619.1377	2977.404	2985.9267	3031.685	3083.3528	3098.8758	3107.2605	3249.3294	3543.1492	3680.8517
CC1CNC2=C1NN=C2	C[C@H]1CNc2c1[nH]nc2	
InChI=1S/C6H9N3/c1-4-2-7-5-3-8-9-6(4)5/h3-4,7H,2H2,1H3,(H,8,9)	InChI=1S/C6H9N3/c1-4-2-7-5-3-8-9-6(4)5/h3-4,7H,2H2,1H3,(H,8,9)/t4-/m0/s1
