13
gdb 128917	7.17263	0.73444	0.69241	1.2861	64.15	-0.3328	-0.0871	0.2456	1485.566	0.088965	-448.8871	-448.879282	-448.878337	-448.921141	26.612	
N	 0.0180479999	-1.1658557961	 0.0986714608	-0.290477
C	-0.0003842447	-0.0112352564	 0.1266672567	 0.261018
C	 5.2073*^-6	 1.4487563404	 0.1553720716	-0.343261
C	 1.3887122488	 2.0273846466	-0.2097942527	-0.298072
C	 1.3966166514	 3.5149144557	-0.1322962222	 0.408275
N	 1.6351126725	 4.3233459298	-1.125011497	-0.139601
O	 1.5375360781	 5.5615446459	-0.5904916766	-0.132286
N	 1.2259039835	 5.4459729675	 0.7610042131	 0.055858
N	 1.1418692176	 4.222376861	 1.0322343721	-0.200881
H	-0.7579792891	 1.8171245655	-0.5441067275	 0.169724
H	-0.292900259	 1.7863111566	 1.1548752358	 0.181888
H	 2.1368125414	 1.6289899174	 0.4825794549	 0.163261
H	 1.6745869423	 1.7253506559	-1.2190275089	 0.164553
47.6496	64.0073	101.864	193.8553	320.7857	383.2561	402.79	509.9234	676.1323	693.7445	726.6214	763.7785	797.5436	953.5147	964.3271	1017.9069	1024.6778	1064.3815	1098.9549	1189.9638	1291.3317	1296.4525	1330.8629	1378.1629	1469.5898	1478.4014	1488.8594	1600.2735	2368.2289	3054.1594	3070.3854	3095.8565	3132.8431
N#CCCC1=NON=N1	N#CCCc1nonn1	
InChI=1S/C4H4N4O/c5-3-1-2-4-6-8-9-7-4/h1-2H2	InChI=1S/C4H4N4O/c5-3-1-2-4-6-8-9-7-4/h1-2H2
