23
gdb 90275	3.8804	1.09889	0.90235	0.0231	92.27	-0.2124	0.0403	0.2526	1377.7058	0.208431	-351.196013	-351.187471	-351.186527	-351.229163	33.518	
C	 0.0592947935	 1.5494540375	 0.0156780518	-0.401449
C	 0.0959340382	 0.0222221984	 0.0096209074	 0.05853
C	 0.8762586955	-0.5981219995	-1.1939722716	-0.362243
C	 1.485438875	-1.8298679337	-0.5869480381	 0.280816
C	 1.4071649501	-1.837028256	 0.7449559054	 0.280821
C	 2.116149791	-3.0089452167	 1.3638709323	-0.340668
C	 2.4030856213	-3.9116481838	 0.1240603832	-0.196026
C	 2.2627732685	-2.9955325542	-1.1310810854	-0.340669
C	 0.7303019861	-0.6114739828	 1.2896120835	-0.362242
H	 1.0716916146	 1.9657985515	 0.0774138999	 0.111524
H	-0.4058398916	 1.9417500986	-0.8953520331	 0.110596
H	-0.5095941731	 1.9322589702	 0.8701065352	 0.110596
H	-0.934644436	-0.3479841134	-0.0529350497	 0.075663
H	 0.2196171121	-0.7994595576	-2.0493774068	 0.09578
H	 1.6539170708	 0.0889723003	-1.5626529767	 0.095869
H	 3.0439273823	-2.6920267932	 1.8628762599	 0.09943
H	 1.5254217266	-3.5301175429	 2.1269578347	 0.097018
H	 3.3785630214	-4.4020108288	 0.1787513374	 0.094443
H	 1.6501732635	-4.70437196	 0.0755516074	 0.104115
H	 1.7658175982	-3.5081268723	-1.963645782	 0.097018
H	 3.2424123757	-2.673870619	-1.5145591058	 0.09943
H	 1.4589910575	 0.0711406306	 1.7541829907	 0.095869
H	-0.0218859513	-0.8215527132	 2.0600102804	 0.09578
74.0751	127.0133	192.8402	234.4526	244.9932	274.8577	408.1901	411.5559	497.3867	502.2231	635.9709	673.4627	749.4185	812.6217	850.8824	890.0118	902.0122	917.6384	919.3021	950.7558	994.6726	1008.7439	1020.6216	1072.8299	1119.178	1120.0249	1145.2395	1175.78	1193.5891	1196.3213	1217.0745	1237.9335	1242.1005	1289.2818	1308.8796	1320.5069	1339.3506	1341.7459	1367.9866	1388.5038	1413.0563	1483.3731	1487.456	1493.28	1493.807	1499.2048	1501.5079	1507.2899	1731.7384	2984.2318	2985.1528	2997.5253	2997.5264	3018.3732	3023.9378	3036.3657	3037.7441	3041.1715	3046.3055	3059.1583	3090.9528	3092.359	3099.0316
CC1CC2=C(CCC2)C1	C[C@H]1CC2=C(CCC2)C1	
InChI=1S/C9H14/c1-7-5-8-3-2-4-9(8)6-7/h7H,2-6H2,1H3	InChI=1S/C9H14/c1-7-5-8-3-2-4-9(8)6-7/h7H,2-6H2,1H3
