21
gdb 95414	3.06447	1.22496	0.9167	1.9584	82.23	-0.2384	0.0183	0.2567	1324.0984	0.181836	-424.233135	-424.223893	-424.222949	-424.267264	34.729	
C	-0.4993769726	 1.3778446678	-0.00466448	-0.402666
C	 0.0516719239	-0.0361242314	-0.0112151015	 0.211888
O	 0.6959410792	-0.232900313	-1.2428225789	-0.232172
C	 0.8879908136	-1.5760447908	-1.6362893592	-0.14151
C	 1.6952068324	-2.4701891128	-0.7313165034	-0.148522
C	 1.8431963711	-2.4440169318	 0.5949961669	 0.276758
C	 2.6380116939	-3.5096947415	 1.310268501	-0.470073
C	 1.2063448195	-1.447667677	 1.5422646402	-0.168068
O	 0.9489950506	-0.1459588469	 1.0651793242	-0.233446
H	 0.3260202051	 2.0849451956	-0.1199417271	 0.137131
H	-1.1994997278	 1.5130682607	-0.832008053	 0.120389
H	-1.0091975566	 1.579516715	 0.9399841869	 0.119726
H	-0.7575830461	-0.7825684021	 0.1071257952	 0.04782
H	-0.0936662325	-2.0554694437	-1.815796349	 0.098409
H	 1.3821177948	-1.5181309292	-2.6119921878	 0.116474
H	 2.1708664357	-3.290138715	-1.2692463769	 0.081052
H	 2.9869278788	-4.2836699528	 0.6227844334	 0.12322
H	 3.5118970107	-3.0794044134	 1.8159751341	 0.128814
H	 2.0365747443	-3.9961359516	 2.0898285902	 0.12351
H	 0.2739286249	-1.8991912025	 1.9326236943	 0.098832
H	 1.8628567773	-1.3073119936	 2.4081668207	 0.112435
43.8939	154.9477	197.3926	208.9816	228.6518	259.0875	298.5454	323.6464	376.221	407.8678	458.2895	556.8719	624.6483	696.7646	807.2871	821.095	864.2361	880.4393	955.8778	990.812	1027.8867	1054.8878	1079.4893	1088.1437	1108.0234	1129.7613	1172.478	1193.0929	1200.3014	1284.2234	1303.5187	1370.3647	1386.6514	1393.4965	1408.405	1419.8158	1422.8308	1423.5966	1475.9586	1481.0314	1481.8584	1485.0996	1491.7682	1493.5187	1751.5902	2913.1196	2920.1656	2925.7422	3013.884	3056.7389	3058.7421	3060.614	3064.1634	3116.6492	3126.0894	3138.0313	3139.6435
CC1OCC=C(C)CO1	C[C@H]1OCC=C(C)CO1	
InChI=1S/C7H12O2/c1-6-3-4-8-7(2)9-5-6/h3,7H,4-5H2,1-2H3	InChI=1S/C7H12O2/c1-6-3-4-8-7(2)9-5-6/h3,7H,4-5H2,1-2H3/t7-/m0/s1
