15
gdb 35298	3.33405	1.1397	0.99505	4.7755	78.03	-0.2574	-0.0102	0.2471	1183.5463	0.111924	-379.598238	-379.590286	-379.589342	-379.630874	30.099	
C	 0.0931935984	-1.1843978009	 0.0452904299	-0.379752
C	 0.0376660935	 0.0164483437	 0.0089753683	 0.190967
C	-0.0748517576	 1.4351920983	-0.0182241901	 0.178549
C	 0.2748409696	 2.2686694659	-1.1939595015	-0.262603
N	 1.1364669886	 2.3988773847	-0.009154681	-0.155405
C	 0.3553232955	 3.2888848989	 0.933088458	-0.099399
C	-0.8206636396	 2.2713542619	 1.0270891323	-0.323714
C	 1.0681714327	 3.52360735	 2.181864503	 0.291497
N	 1.6055250298	 3.7204762878	 3.1854716977	-0.316101
H	 0.1554966166	-2.2442912058	 0.0772211302	 0.201282
H	 0.7745566474	 1.7692931213	-2.0168356257	 0.146441
H	-0.3709900577	 3.0973109773	-1.4808410209	 0.120705
H	 0.1083473405	 4.2563066392	 0.4829163206	 0.129869
H	-1.815153928	 2.6287844378	 0.7511615012	 0.123763
H	-0.8631220998	 1.78324776	 1.9998291679	 0.153903
76.7804	162.1893	179.5946	206.2908	312.1816	428.6039	471.4624	501.5374	533.2609	546.3653	603.0813	616.2922	674.277	728.7768	781.3486	837.5008	891.1037	939.7296	975.8245	1042.8928	1072.5112	1119.6451	1133.2916	1156.6933	1217.3937	1241.6167	1272.99	1354.2987	1361.2341	1485.8645	1502.1267	2238.1203	2364.5383	3055.1069	3079.1786	3099.5926	3153.7446	3210.8412	3501.1269
C#CC12CN1C(C2)C#N	C#C[C@]12CN1[C@@H](C2)C#N	
InChI=1S/C7H6N2/c1-2-7-3-6(4-8)9(7)5-7/h1,6H,3,5H2	InChI=1S/C7H6N2/c1-2-7-3-6(4-8)9(7)5-7/h1,6H,3,5H2/t6-,7-,9?/m0/s1
