19
gdb 95707	3.09796	1.25436	0.9643	3.4122	72.38	-0.2608	0.0101	0.2709	1226.265	0.159613	-460.200047	-460.191549	-460.190605	-460.233286	32.093	
C	 0.3051920904	 1.6505896206	 0.0436817362	-0.403406
C	-0.0272262107	 0.1629441776	 0.0896161112	 0.107945
C	 0.4451815255	-0.543697467	-1.1858066205	-0.086631
O	-0.2085879454	-1.7898859321	-1.4558219418	-0.225683
C	-0.0351800358	-2.882688743	-0.6685853781	 0.398938
O	-0.5631698293	-3.9122174215	-0.9892038596	-0.315983
C	 0.7973340668	-2.7309133711	 0.594786703	-0.343639
C	 0.2642336501	-1.6812305698	 1.5861967054	-0.087859
O	 0.6009540852	-0.3515855856	 1.2539447519	-0.249065
H	 1.3793279404	 1.8020423267	-0.1039683141	 0.128035
H	-0.2332166451	 2.1464166929	-0.7684905163	 0.122335
H	 0.024431673	 2.118824013	 0.9895542965	 0.134773
H	-1.1189741553	 0.0230225325	 0.1643288206	 0.084294
H	 0.2010896562	 0.0712972426	-2.0550567641	 0.125669
H	 1.5338109898	-0.6728737655	-1.1519859003	 0.1184
H	 0.7986259857	-3.7150076154	 1.0676760809	 0.135331
H	 1.8337329405	-2.4764001804	 0.3436651378	 0.130968
H	-0.8265004899	-1.791201142	 1.6985555726	 0.106115
H	 0.7191887478	-1.8600751225	 2.5643617087	 0.119463
68.2904	142.2439	206.5451	235.5522	266.5822	319.3615	330.3799	369.8776	462.8491	486.9762	526.8357	616.7099	722.7265	758.8604	833.8172	886.102	929.2939	938.6124	978.4313	1062.6484	1088.8412	1096.3102	1136.8865	1142.0924	1153.0741	1193.422	1261.3944	1290.5542	1303.7244	1339.0909	1346.6013	1386.535	1408.8432	1416.2561	1420.0794	1458.8675	1484.0498	1492.5662	1497.2013	1503.4003	1844.4553	2967.5838	2981.473	3037.4684	3046.5784	3049.4763	3088.9546	3108.7766	3119.0226	3121.1906	3134.4572
CC1COC(=O)CCO1	C[C@H]1COC(=O)CCO1	
InChI=1S/C6H10O3/c1-5-4-9-6(7)2-3-8-5/h5H,2-4H2,1H3	InChI=1S/C6H10O3/c1-5-4-9-6(7)2-3-8-5/h5H,2-4H2,1H3/t5-/m0/s1
