22
gdb 103216	3.39889	1.29903	1.12675	1.6357	86.28	-0.2263	0.0806	0.307	1190.6763	0.193931	-367.118627	-367.110072	-367.109127	-367.151524	33.876	
C	-0.2358218285	 1.5563390254	 0.0012596017	-0.38413
C	 0.169152451	 0.0785202586	-0.0816547405	-0.253651
C	 0.8238956896	-0.4710568696	 1.1895167587	 0.336439
C	 2.1678935652	 0.1821380024	 1.5080050236	-0.471731
C	-0.1036868976	-0.7436708455	 2.3972371175	-0.041742
C	-0.7420553383	-2.0282498216	 1.7847268943	-0.080589
C	-0.3732077471	-2.7934571903	 3.0475597955	-0.192249
N	 0.8311898453	-1.8691453019	 2.9288704023	-0.168607
C	 0.7641912469	-2.0037209895	 1.3801825275	-0.058287
H	 0.629510603	 2.2099034269	 0.1447857139	 0.121016
H	-0.7373663663	 1.8729861199	-0.9184163241	 0.112961
H	-0.927127516	 1.7327691342	 0.832675728	 0.115655
H	-0.7182746538	-0.5173360026	-0.3241603064	 0.094846
H	 0.8650767351	-0.0602274019	-0.9198454561	 0.094146
H	 2.0556723268	 1.2528382319	 1.7069941049	 0.113415
H	 2.622234801	-0.2798651083	 2.3864614365	 0.143981
H	 2.8579492255	 0.0760211338	 0.6626317026	 0.107614
H	-0.5651774518	-0.0456708711	 3.1006775077	 0.074197
H	-1.621412953	-2.1119198485	 1.1387269221	 0.0668
H	-0.9675401909	-2.6196980331	 3.9511082579	 0.098278
H	-0.1184404399	-3.8548290239	 2.9556793212	 0.098191
H	 1.3290333638	-2.7927037454	 0.8761581114	 0.073445
74.1307	172.8841	201.4296	210.3108	258.3324	298.0808	346.9463	368.4407	489.3635	538.6331	623.8277	732.3094	782.2769	799.5503	842.2639	843.781	880.3448	892.388	910.0293	941.6104	1006.128	1015.023	1028.2756	1030.0525	1051.9088	1087.8816	1105.3743	1116.0324	1156.9961	1162.8129	1186.5921	1191.0386	1200.7132	1237.5224	1280.109	1282.3737	1297.8673	1357.0162	1378.8339	1404.4145	1413.1194	1481.855	1493.8301	1498.3647	1507.8395	1512.9402	1521.819	3018.5861	3030.5329	3032.5205	3036.1353	3048.6822	3059.8462	3075.3592	3083.9947	3089.3083	3091.5478	3100.6595	3111.6709	3133.2431
CCC1(C)C2C3CN2C13	CC[C@@]1(C)[C@H]2[C@@H]3CN2[C@H]13	
InChI=1S/C8H13N/c1-3-8(2)6-5-4-9(6)7(5)8/h5-7H,3-4H2,1-2H3	InChI=1S/C8H13N/c1-3-8(2)6-5-4-9(6)7(5)8/h5-7H,3-4H2,1-2H3/t5-,6+,7-,8-
