14
gdb 128716	6.98183	0.87667	0.78272	4.104	69.45	-0.2671	-0.0814	0.1857	1370.9904	0.099946	-473.814704	-473.806639	-473.805695	-473.847864	28.192	
C	-0.0132443001	 1.3989773273	 0.0086911355	-0.246844
O	 0.0039070543	-0.0339680944	-0.0016857098	-0.262358
C	 0.6004301398	-0.6003519013	-1.0475849116	 0.512964
N	 1.1512881365	 0.0843056511	-2.030217412	-0.224622
O	 1.6558930495	-0.8645670783	-2.908392859	-0.210365
C	 1.3917553924	-2.092551071	-2.4247951431	 0.365455
C	 1.8316819784	-3.271344577	-3.1855837824	 0.085698
O	 2.4251606324	-3.2313071773	-4.2341691856	-0.248809
C	 0.7213656779	-2.0042577492	-1.2417684176	-0.447012
H	 1.005995897	 1.796291393	 0.0096145392	 0.148341
H	-0.5431455541	 1.7841026277	-0.8674324029	 0.148343
H	-0.5335475704	 1.6806707364	 0.9237976533	 0.140202
H	 1.560063764	-4.2285733991	-2.6921796423	 0.09425
H	 0.3672833323	-2.7974270078	-0.6053040017	 0.144758
78.3395	131.258	152.1807	179.6589	261.0644	262.7031	385.2998	390.9997	574.4937	643.0282	690.5271	713.9257	780.9629	828.9564	969.2017	1002.7293	1020.8239	1031.3769	1068.7918	1163.3797	1179.2663	1225.587	1314.2954	1413.5339	1452.3582	1464.4996	1480.8952	1498.6831	1554.922	1636.0368	1806.5116	2909.8001	3043.4117	3116.1198	3160.4213	3285.2322
COC1=NOC(C=O)=C1	COc1noc(C=O)c1	
InChI=1S/C5H5NO3/c1-8-5-2-4(3-7)9-6-5/h2-3H,1H3	InChI=1S/C5H5NO3/c1-8-5-2-4(3-7)9-6-5/h2-3H,1H3
