20
gdb 88136	2.56559	1.47256	1.10989	3.8462	80.46	-0.2229	-0.0184	0.2045	1165.0062	0.171039	-403.152446	-403.143829	-403.142885	-403.185726	32.865	
C	-0.1147725668	 1.4576959423	-0.122097214	-0.315642
N	 0.0285446988	 0.0160935513	 0.0338061718	-0.111696
C	 1.3510863837	-0.5432199834	-0.1477000073	-0.285015
C	 0.7406026073	-0.4701234542	 1.2219813891	 0.242386
C	 1.280216483	 0.4063451291	 2.3469575287	-0.31122
C	 1.5943298947	-0.6028123529	 3.4772328703	-0.227848
C	 0.5039387171	-1.6800450264	 3.3487393604	-0.321905
C	 0.2152694238	-1.7480259528	 1.848996127	 0.359961
O	-0.3031691309	-2.6568264908	 1.2531833584	-0.318401
H	 0.771453874	 2.0388471766	 0.1780683349	 0.101509
H	-0.3207849414	 1.6703160511	-1.1754778649	 0.131008
H	-0.9708442043	 1.8041229703	 0.4650574338	 0.126761
H	 1.3888094132	-1.5036586265	-0.6550066098	 0.132415
H	 2.18139791	 0.1348042693	-0.3469745145	 0.106443
H	 2.1533918104	 0.9986341962	 2.0660151253	 0.108116
H	 0.5031447759	 1.1065442109	 2.6798596879	 0.10885
H	 2.5788789065	-1.0520621922	 3.3060875133	 0.111739
H	 1.6180058128	-0.1297673778	 4.4615596477	 0.105775
H	 0.765273708	-2.6602422097	 3.7521852538	 0.126838
H	-0.4221179759	-1.3584288905	 3.8452941382	 0.129927
70.672	156.4671	171.3072	200.4437	209.4942	302.9456	360.8708	430.2339	490.3471	537.0806	552.0941	643.6925	673.2025	753.3761	831.0363	887.4784	894.2509	920.6181	934.6577	1008.9397	1016.5548	1045.174	1072.7244	1118.0509	1144.1101	1146.6653	1178.8478	1188.8092	1205.8618	1249.4868	1264.9392	1301.4591	1323.9688	1341.0533	1391.9769	1448.738	1453.0023	1485.8438	1489.746	1495.6272	1498.6073	1505.5636	1843.6866	2977.5562	3025.297	3027.0146	3047.9366	3072.733	3079.2448	3099.1688	3105.0288	3107.2812	3115.9033	3180.6945
CN1CC11CCCC1=O	CN1C[C@]21CCCC2=O	
InChI=1S/C7H11NO/c1-8-5-7(8)4-2-3-6(7)9/h2-5H2,1H3	InChI=1S/C7H11NO/c1-8-5-7(8)4-2-3-6(7)9/h2-5H2,1H3/t7-,8?/m1/s1
