19
gdb 88652	4.25596	0.85587	0.77164	4.2484	76.87	-0.2348	-0.0132	0.2216	1463.5083	0.157541	-423.012837	-423.003929	-423.002985	-423.047337	33.419	
O	 0.0391629855	 1.4298257232	 0.229356878	-0.417741
C	 0.0004132479	 0.0450471207	 0.0348522437	 0.095437
C	-0.5306277822	-0.8447596739	 1.131302619	-0.34467
C	-1.359909387	-0.5758992465	-0.1127933195	-0.028509
C	-2.602960092	 0.2680232697	-0.0358893323	 0.025892
C	-3.1939571314	 0.7950823995	-1.3850831328	-0.360354
C	-4.5696578345	 0.2975806607	-0.9168345273	 0.399897
O	-5.6924130213	 0.4893568546	-1.2837558839	-0.291415
C	-3.9523504024	-0.4636888283	 0.2678781126	-0.367358
H	 0.743305604	 1.6225771424	 0.8569191914	 0.290076
H	 0.8011749482	-0.3474861323	-0.5918209327	 0.087652
H	-0.0923637789	-1.8264092422	 1.274660346	 0.112773
H	-0.8475450067	-0.3494562995	 2.0437455369	 0.115041
H	-1.4221616814	-1.3952238227	-0.8265032967	 0.083132
H	-2.4431543619	 1.0972616344	 0.6548967603	 0.090833
H	-3.1063505315	 1.8613395795	-1.6061446682	 0.133037
H	-2.8410465084	 0.2309057904	-2.2565620935	 0.125137
H	-3.9091319933	-1.5411769952	 0.0704202996	 0.125433
H	-4.4211566827	-0.3097558643	 1.2430627196	 0.125706
51.6658	57.6574	137.9527	202.8596	292.311	323.6086	343.3812	414.1104	440.5555	476.2921	566.0664	663.4081	681.0019	735.1939	799.2019	842.9169	894.8801	924.4167	950.8261	985.6759	1004.8005	1027.018	1041.156	1062.8013	1109.7716	1134.9001	1147.9365	1173.8547	1190.6957	1223.1312	1235.8516	1243.9103	1262.5376	1296.5099	1313.8178	1411.2562	1427.692	1433.8316	1449.698	1490.7457	1893.0225	3044.1779	3049.1201	3094.1099	3097.5768	3111.2281	3115.9822	3126.0168	3128.8592	3217.241	3809.2127
OC1CC1C1CC(=O)C1	O[C@H]1C[C@H]1C1CC(=O)C1	
InChI=1S/C7H10O2/c8-5-1-4(2-5)6-3-7(6)9/h4,6-7,9H,1-3H2	InChI=1S/C7H10O2/c8-5-1-4(2-5)6-3-7(6)9/h4,6-7,9H,1-3H2/t6-,7-/m0/s1
