18
gdb 47577	2.69062	1.64469	1.22348	4.913	71.79	-0.2468	0.0515	0.2983	1038.1715	0.150349	-439.103706	-439.095989	-439.095045	-439.136267	29.762	
O	 0.0836431375	-0.0076255829	-0.6369212353	-0.378922
C	 0.0009164691	 1.099583454	-0.1632015236	 0.439448
N	-1.2006423963	 1.7624315084	-0.0998341377	-0.35552
C	-1.5904835928	 3.1581254143	 0.0855044344	-0.16197
C	-0.4490041737	 4.1633686151	 0.2068601209	-0.227774
C	 0.5047544344	 3.9125955333	 1.3599292207	-0.052962
C	 0.2118246926	 2.8477577876	 2.4117612181	-0.34223
C	 1.253013124	 2.6184630226	 1.3564903889	 0.136955
O	 1.1331245905	 1.7051208161	 0.2901435445	-0.245454
H	-1.924600483	 1.1664264594	-0.4716319684	 0.256823
H	-2.2128241504	 3.4467702476	-0.7701888555	 0.11507
H	-2.2267189968	 3.2411652186	 0.9778026296	 0.114244
H	 0.1191998426	 4.1909831172	-0.731288144	 0.12314
H	-0.914141	 5.1482838086	 0.3221923358	 0.112842
H	 1.0551013196	 4.7884667159	 1.6903682311	 0.093085
H	 0.564291818	 3.0120703976	 3.4239578114	 0.119537
H	-0.7188024021	 2.2986026295	 2.3514746567	 0.138744
H	 2.2930856768	 2.614858667	 1.6606019725	 0.114943
74.8829	98.4486	228.6383	283.8091	290.8851	448.2123	457.6966	518.6186	592.038	604.1569	698.6554	733.233	758.6977	777.7297	821.0091	888.3326	919.7294	941.8029	995.0979	1046.6152	1070.0051	1103.4137	1119.633	1134.7395	1144.5647	1183.8516	1244.5784	1268.1576	1289.9858	1316.6326	1381.5884	1396.1072	1409.0932	1438.7409	1482.6641	1492.6107	1496.5522	1534.0185	1820.8377	3000.8316	3027.887	3045.0144	3074.4971	3146.5294	3150.5654	3181.366	3239.6621	3623.1494
O=C1NCCC2CC2O1	O=C1NCC[C@H]2C[C@H]2O1	
InChI=1S/C6H9NO2/c8-6-7-2-1-4-3-5(4)9-6/h4-5H,1-3H2,(H,7,8)	InChI=1S/C6H9NO2/c8-6-7-2-1-4-3-5(4)9-6/h4-5H,1-3H2,(H,7,8)/t4-,5+/m0/s1
