14
gdb 5751	4.99484	1.83225	1.42851	3.4715	64.12	-0.2262	0.0205	0.2467	830.6101	0.109592	-378.713593	-378.707141	-378.706196	-378.744402	24.153	
O	 0.353118885	 1.3270809742	 0.3527952661	-0.413751
C	 0.1078718012	-0.0086117641	 0.0263500611	 0.008856
C	-1.4006581612	-0.5343031287	 0.0707364324	-0.210908
N	-1.2258169958	-0.8708444462	-1.3562421962	 0.019669
C	-1.5389731115	-1.4830158511	-2.5411949612	-0.171538
C	-0.3823050664	-1.3301514529	-3.2909787704	-0.090869
N	 0.6247419949	-0.6867172671	-2.592967327	-0.364557
C	 0.0525384992	-0.4395786203	-1.4368337019	 0.302735
H	-0.0081606347	 1.8818359899	-0.3476541556	 0.291195
H	 0.7717295709	-0.6064493228	 0.6563917993	 0.121968
H	-1.5853393354	-1.4003414619	 0.7116641297	 0.133655
H	-2.144244504	 0.2447611377	 0.256790928	 0.128545
H	-2.4948564752	-1.9239398773	-2.7663587543	 0.134543
H	-0.2281241069	-1.6494181293	-4.3113821599	 0.110457
97.3903	149.6222	277.9338	352.5913	459.5725	508.7454	626.199	688.0501	730.3232	759.4562	784.1423	843.6987	854.0213	949.5984	1008.1727	1054.0281	1096.3652	1134.6521	1147.0145	1158.51	1206.8271	1245.7405	1276.7252	1300.6148	1393.7077	1413.5165	1452.3993	1463.3799	1508.3038	1564.9557	3059.191	3085.7853	3121.3432	3243.3567	3286.2717	3803.1084
OC1CN2C=CN=C12	O[C@H]1Cn2ccnc12	
InChI=1S/C5H6N2O/c8-4-3-7-2-1-6-5(4)7/h1-2,4,8H,3H2	InChI=1S/C5H6N2O/c8-4-3-7-2-1-6-5(4)7/h1-2,4,8H,3H2/t4-/m0/s1
