21
gdb 120643	3.67179	0.81967	0.77411	2.6073	76.01	-0.2341	0.0654	0.2995	1569.9004	0.179548	-461.330462	-461.319997	-461.319052	-461.366423	38.002	
C	 0.2528915894	 1.3583687787	-0.1384412806	-0.388235
C	 0.4658998432	-0.1445108616	-0.1194710192	-0.048285
O	 0.3020124381	-0.6386215035	-1.4498897473	-0.263009
C	 0.4819554338	-2.0229389449	-1.5380787423	 0.021831
C	 0.7396092675	-2.560721409	-2.9223603716	-0.385721
C	 1.8704925677	-2.4784186469	-1.9187212489	 0.389741
O	 2.8367715943	-1.4746599161	-2.0882575903	-0.491093
C	 2.507598799	-3.7154074271	-1.3453007279	-0.105438
O	 3.474643171	-4.2715991764	-2.2188900804	-0.419564
H	 0.9905495542	 1.8483948642	-0.7808980989	 0.12456
H	-0.7443471241	 1.6000555971	-0.5164201588	 0.132252
H	 0.3512473587	 1.7671012618	 0.8714367274	 0.12162
H	 1.4686246486	-0.3991461863	 0.2527951782	 0.105372
H	-0.2661080926	-0.6323316688	 0.5424868806	 0.098351
H	-0.1188150564	-2.6049551663	-0.8383700192	 0.087896
H	 0.3307773143	-3.531342542	-3.1807570786	 0.122559
H	 0.7451911972	-1.8350769503	-3.7289851891	 0.122747
H	 2.3554377253	-0.6392906247	-2.1566276771	 0.288904
H	 2.9521688664	-3.4645840912	-0.3685602856	 0.089347
H	 1.7487150574	-4.487274832	-1.1818747477	 0.10205
H	 4.068781057	-3.5512325147	-2.4580090728	 0.294116
59.4344	81.9626	99.876	105.3019	199.2744	236.3917	263.8919	311.8611	332.8892	382.1661	410.057	444.0386	465.4626	483.0582	667.537	751.4166	819.0323	825.0856	875.9103	912.1083	932.195	981.2409	1041.1986	1052.3034	1066.1361	1086.3753	1110.8395	1149.228	1178.8857	1186.0542	1194.0146	1210.0399	1295.6849	1322.0112	1339.1497	1379.9031	1403.7782	1416.2389	1432.6151	1447.4676	1483.8641	1490.7102	1493.7704	1499.4076	1527.2057	2975.3171	2985.01	3022.5073	3045.465	3078.1811	3094.3207	3118.2587	3124.1491	3132.9776	3224.5459	3758.6421	3806.1545
CCOC1CC1(O)CO	CCO[C@H]1C[C@]1(O)CO	
InChI=1S/C6H12O3/c1-2-9-5-3-6(5,8)4-7/h5,7-8H,2-4H2,1H3	InChI=1S/C6H12O3/c1-2-9-5-3-6(5,8)4-7/h5,7-8H,2-4H2,1H3/t5-,6-/m0/s1
