21
gdb 76176	2.05568	1.4173	1.18461	1.7141	86.29	-0.2348	0.0515	0.2863	1206.9224	0.177874	-387.053059	-387.042147	-387.041203	-387.08787	40.785	
C	-0.086184786	 1.516358628	-0.0420782494	-0.42946
C	 0.03456428	 0.010204282	 0.0080648612	-0.111114
C	 1.3465176311	-0.7001386989	-0.2354388698	 0.34914
C	 1.4063539276	-1.9543757579	-1.0749064672	-0.45493
O	 2.5029835255	 0.0939866527	-0.3297420356	-0.460601
C	 0.7459286572	-0.713469564	 1.1709295859	 0.057954
C	 1.4177015151	 0.0878226723	 2.2803570858	-0.461866
C	 0.1360064487	-1.934046226	 1.6312099848	 0.283052
C	-0.3739124065	-2.9419969203	 2.0475713396	-0.453395
H	 0.8702041933	 2.0042723733	 0.1547246287	 0.129617
H	-0.4251929501	 1.8368414843	-1.0338767479	 0.11487
H	-0.8157604761	 1.8837015062	 0.6871534626	 0.124021
H	-0.8414984538	-0.5214207571	-0.3537999159	 0.090922
H	 1.4559742418	-1.698463461	-2.140950042	 0.102548
H	 2.2974905596	-2.5381347959	-0.8235870492	 0.128619
H	 0.5270732262	-2.5814667423	-0.9165029553	 0.134511
H	 2.5595417664	 0.4228432326	-1.2340354655	 0.284042
H	 1.9754459139	 0.9332225741	 1.8801428793	 0.136932
H	 0.6714634076	 0.4543363224	 2.9920770666	 0.120154
H	 2.1185464405	-0.548481565	 2.828401375	 0.127728
H	-0.8222269318	-3.8327042693	 2.4115338983	 0.187256
123.0767	143.2753	152.3145	156.2581	205.1511	207.8289	230.262	250.4818	269.1692	293.431	372.5606	427.443	439.849	526.8847	534.9581	577.4825	601.2446	638.5113	673.2287	703.5967	787.9963	943.6115	975.0189	978.1122	1034.7166	1072.9896	1093.9835	1118.1622	1126.5061	1166.9606	1208.2996	1267.2214	1285.5615	1353.2332	1401.8639	1412.1882	1419.2754	1440.8321	1484.5227	1485.1878	1492.4229	1496.7049	1503.117	1514.7091	2226.8555	3024.7871	3034.0627	3048.17	3088.1753	3091.3882	3107.3367	3127.1126	3135.3378	3147.1876	3160.6416	3504.1049	3792.3011
CC1C(C)(O)C1(C)C#C	C[C@H]1[C@@](C)(O)[C@]1(C)C#C	
InChI=1S/C8H12O/c1-5-7(3)6(2)8(7,4)9/h1,6,9H,2-4H3	InChI=1S/C8H12O/c1-5-7(3)6(2)8(7,4)9/h1,6,9H,2-4H3/t6-,7-,8-/m1/s1
