20
gdb 30650	3.75555	0.9307	0.90608	2.1673	81.15	-0.2342	0.0084	0.2427	1402.2035	0.171334	-403.192818	-403.183677	-403.182733	-403.227429	33.275	
C	-0.0877202291	 1.5250466546	-0.0719014902	-0.394861
C	 0.0194467559	-0.0001856656	 0.0100564199	-0.166143
C	 0.7237768798	-0.5229624362	 1.2859006484	-0.102798
C	-0.0368436428	-0.1635194366	 2.5774092146	-0.395466
C	 0.9586170304	-1.9941132367	 1.1952807098	 0.363981
C	 2.0519417524	-2.7942264358	 1.1368252264	-0.217047
N	 1.6595872073	-4.1273732606	 1.0537841529	-0.25687
C	 0.3704917577	-4.0709381719	 1.06602089	 0.067832
O	-0.1412498459	-2.8199179018	 1.1496601277	-0.187923
H	 0.8980761952	 1.9972664787	 0.0091177778	 0.11473
H	-0.52190055	 1.8291770002	-1.0292285445	 0.116977
H	-0.7208329199	 1.9377135244	 0.7191646696	 0.121264
H	-0.979242139	-0.4494634687	-0.0496017848	 0.108781
H	 0.5738626885	-0.3699602969	-0.8603517038	 0.102806
H	 1.7199785633	-0.0638351136	 1.3330402014	 0.089592
H	-1.0394386167	-0.6024275905	 2.5702243077	 0.128292
H	 0.4909136169	-0.5434901946	 3.4568268964	 0.121769
H	-0.138188497	 0.9191704291	 2.6867109808	 0.118697
H	 3.0923191198	-2.5100405028	 1.148903308	 0.120229
H	-0.3390863669	-4.8820929147	 1.019071322	 0.146158
55.0391	83.0644	114.5338	180.2229	220.3284	271.8427	287.4275	347.0349	388.6341	475.7392	668.1858	693.547	723.9372	782.2384	831.0022	842.7801	856.9251	938.8767	959.7952	969.666	986.5028	1030.7298	1070.5921	1122.6383	1129.6278	1132.1359	1179.9132	1242.0269	1249.7231	1287.0118	1312.3189	1346.8774	1357.0004	1380.3209	1405.5446	1413.7717	1486.0376	1493.6721	1500.4192	1506.246	1511.6014	1552.8394	1634.8146	3023.8363	3031.7272	3034.3865	3043.479	3066.6657	3100.1762	3109.555	3114.3842	3122.5875	3261.5535	3275.2796
CCC(C)C1=CN=CO1	CC[C@@H](C)c1cnco1	
InChI=1S/C7H11NO/c1-3-6(2)7-4-8-5-9-7/h4-6H,3H2,1-2H3	InChI=1S/C7H11NO/c1-3-6(2)7-4-8-5-9-7/h4-6H,3H2,1-2H3/t6-/m1/s1
