19
gdb 109078	3.45676	1.21546	1.1547	1.261	76.33	-0.2299	0.0194	0.2493	1141.8236	0.161056	-423.016621	-423.00883	-423.007886	-423.049108	30.369	
O	 0.0118014133	 1.4213710097	-0.051967667	-0.414356
C	-0.0091086994	 0.0058552134	-0.0052878245	-0.211396
C	-1.4162109162	-0.468701256	 0.0951557804	 0.352136
C	-2.556470154	 0.2327474748	 0.084977201	-0.180297
C	-3.7007087632	-0.7662913746	 0.0198901577	-0.098272
C	-3.5803590628	-1.444763317	-1.3793736011	-0.067978
O	-2.3493277254	-2.1778612478	-1.3020305842	-0.278466
C	-1.8307865831	-1.9351615931	 0.038688395	-0.007405
C	-3.1149843888	-1.9198227676	 0.8779041206	-0.221476
H	 0.927799259	 1.7046477723	-0.1207444028	 0.289908
H	 0.4501364597	-0.4366771362	-0.9072526289	 0.106927
H	 0.5730275465	-0.3750974413	 0.8534471502	 0.09311
H	-2.6541184155	 1.3061375801	-0.001139075	 0.110535
H	-4.6978495139	-0.4011073596	 0.2635427785	 0.067233
H	-4.4074683458	-2.1415471924	-1.5670845308	 0.095006
H	-3.5353550684	-0.7163695217	-2.1966882895	 0.098283
H	-1.0720795192	-2.6907506925	 0.2420647262	 0.066833
H	-2.9584338858	-1.6348542707	 1.9190171123	 0.102206
H	-3.672438057	-2.8588228899	 0.8131083119	 0.097468
77.1652	158.8015	182.8098	235.8964	304.2014	373.9146	450.3241	513.8813	563.693	627.7534	749.8655	814.8083	833.7547	858.9381	870.7663	906.0876	929.0173	942.0188	969.7561	986.9507	1030.4621	1043.1425	1061.3522	1075.747	1127.0253	1153.6364	1198.6086	1206.4704	1225.4501	1246.9863	1263.3722	1275.6958	1287.2574	1298.294	1337.9196	1363.9798	1465.0345	1487.2351	1505.1759	1522.754	1695.1058	2935.7981	2951.6971	3013.937	3060.702	3064.004	3121.8574	3125.2358	3134.1268	3230.3202	3836.8422
OCC1=CC2COC1C2	OCC1=C[C@H]2CO[C@@H]1C2	
InChI=1S/C7H10O2/c8-3-6-1-5-2-7(6)9-4-5/h1,5,7-8H,2-4H2	InChI=1S/C7H10O2/c8-3-6-1-5-2-7(6)9-4-5/h1,5,7-8H,2-4H2/t5-,7-/m1/s1
