27
gdb 122416	4.93592	0.54595	0.52487	0.1107	97.83	-0.277	0.0886	0.3656	2279.4451	0.251471	-353.565529	-353.554581	-353.553637	-353.602365	40.523	
C	-0.1400068799	 1.5835325316	 0.0099467898	-0.379551
C	 0.086071164	 0.0713624563	-0.0700077299	-0.162188
C	 0.6920784567	-0.5176515491	 1.2084345987	-0.155672
C	 0.920546439	-2.0322109622	 1.1380492064	-0.210842
C	 1.5140112033	-2.6185688822	 2.4122376558	 0.052858
C	 0.6456443366	-2.6732610059	 3.7029725464	-0.236673
C	 1.2624426168	-4.0650399976	 4.0191746931	 0.059787
C	 0.3775271627	-5.1520126193	 4.6088025083	-0.40629
C	 1.6879827233	-4.1587740536	 2.5266153247	-0.258411
H	 0.8015884308	 2.1159328785	 0.1856605292	 0.112153
H	-0.5747182586	 1.973967901	-0.9157060045	 0.109333
H	-0.8198581836	 1.8390372516	 0.8305527466	 0.112358
H	-0.867059433	-0.4310746167	-0.2826166651	 0.092634
H	 0.7430608633	-0.1571719743	-0.9198686677	 0.092567
H	 1.6468935026	-0.0160118351	 1.4210589905	 0.088638
H	 0.0356024897	-0.2874355758	 2.0590117851	 0.09487
H	-0.0333772658	-2.5349805658	 0.9225692953	 0.084729
H	 1.5823956977	-2.2614451419	 0.2905488975	 0.088754
H	 2.4677760055	-2.1232357533	 2.6337478564	 0.063684
H	 0.7624723609	-1.8778339932	 4.4438063063	 0.090014
H	-0.4190620862	-2.7629166122	 3.4548646142	 0.089495
H	 2.1537599927	-3.9344487384	 4.6441378351	 0.067591
H	-0.5213590868	-5.2996797882	 3.9989886772	 0.108154
H	 0.9045700201	-6.1116245039	 4.6617800679	 0.111383
H	 0.0521845563	-4.8958652321	 5.6236911072	 0.111208
H	 0.9297982715	-4.6847582141	 1.9339585626	 0.090204
H	 2.6669964803	-4.5867302443	 2.2940297132	 0.089212
49.9567	68.0389	89.3158	118.3883	152.7141	225.0601	248.1613	264.6983	290.164	326.6096	385.7188	432.4516	460.999	602.1498	736.2475	776.7633	793.1772	809.7986	895.2788	896.4013	900.277	931.5156	954.8245	968.8603	1007.1982	1021.5125	1058.609	1067.8032	1082.6507	1129.4114	1141.8042	1154.4414	1199.1632	1230.5101	1231.9674	1254.3793	1263.6606	1272.8716	1283.5873	1303.6421	1321.0294	1332.7899	1354.6555	1371.3539	1393.7919	1401.597	1411.3992	1414.0514	1475.7231	1481.2357	1486.3172	1494.7607	1496.6292	1498.9369	1500.2473	1504.683	1512.9737	2996.0806	3003.003	3014.7783	3016.4225	3019.7086	3024.6018	3028.1478	3028.5308	3029.9339	3035.9993	3039.9079	3057.2151	3086.7332	3086.8552	3090.5965	3094.214	3098.0778	3099.4136
CCCCC1CC(C)C1	CCCC[C@H]1C[C@@H](C)C1	
InChI=1S/C9H18/c1-3-4-5-9-6-8(2)7-9/h8-9H,3-7H2,1-2H3	InChI=1S/C9H18/c1-3-4-5-9-6-8(2)7-9/h8-9H,3-7H2,1-2H3/t8-,9+
