20
gdb 30055	2.92758	1.37984	1.00174	2.0045	86.82	-0.1909	0.0449	0.2358	1217.5627	0.172276	-366.035721	-366.026985	-366.026041	-366.070007	32.595	
C	-0.4888785299	 1.2726496807	 0.2552849846	-0.340302
N	-0.1146234582	-0.1150264102	 0.0864008633	-0.036123
C	-0.1366438599	-0.8013367496	-1.1036041485	-0.111591
C	 0.3268102456	-2.0756947446	-0.8787293396	-0.162455
C	 0.6494518191	-2.1635662452	 0.5015474211	-0.238874
C	 0.3704121106	-0.9425933559	 1.082448592	 0.293813
C	 0.524418461	-0.4712643091	 2.474357928	-0.130809
C	-0.6573216125	-0.4626526544	 3.4340810265	-0.252739
C	 0.4604137256	-1.4540526861	 3.6145356926	-0.265937
H	 0.3885352955	 1.9199458823	 0.3736679209	 0.132471
H	-1.0434667092	 1.6021271626	-0.6254122921	 0.135876
H	-1.1264775956	 1.3936252105	 1.1350974635	 0.145518
H	-0.4830568814	-0.3193342052	-2.0045650912	 0.107556
H	 0.419142422	-2.8555086363	-1.6189630162	 0.089275
H	 1.0493432413	-3.0217539366	 1.019983818	 0.088435
H	 1.2229925274	 0.3522463621	 2.6144081883	 0.088881
H	-0.7383322076	 0.359574574	 4.1368636193	 0.107775
H	-1.6043401542	-0.8363500771	 3.0610866504	 0.117376
H	 0.2551540391	-2.4900047583	 3.3718949303	 0.121295
H	 1.1456091811	-1.3150093435	 4.4429274488	 0.11056
52.6653	60.8727	142.8424	173.3183	192.3724	310.0402	373.2744	487.3637	583.7566	619.3695	678.62	711.5629	716.5573	774.4203	797.827	827.8938	836.0631	888.7876	917.136	933.1053	1026.5675	1056.5073	1070.1449	1085.9467	1089.0718	1112.7929	1131.99	1150.6164	1175.5069	1200.3531	1227.1042	1261.5689	1329.9713	1383.4103	1398.6738	1448.6951	1464.1252	1471.0871	1483.7367	1499.7468	1511.7571	1529.0411	1597.2566	3026.565	3093.6153	3106.8138	3132.5434	3134.799	3143.6919	3216.4534	3232.3024	3237.6272	3248.5112	3263.947
CN1C=CC=C1C1CC1	Cn1cccc1C1CC1	
InChI=1S/C8H11N/c1-9-6-2-3-8(9)7-4-5-7/h2-3,6-7H,4-5H2,1H3	InChI=1S/C8H11N/c1-9-6-2-3-8(9)7-4-5-7/h2-3,6-7H,4-5H2,1H3
