18
gdb 15444	4.97278	0.85824	0.81104	2.1105	64.86	-0.2634	0.0716	0.335	1411.0015	0.152107	-422.04005	-422.030805	-422.029861	-422.074955	32.178	
O	 0.0463799961	 1.320955633	 0.3235946992	-0.421298
C	-0.096453301	-0.0878175242	 0.4033716964	-0.065262
C	-1.3267179228	-0.4715766042	-0.4145875633	-0.220513
C	-1.5339880885	-1.9659088315	-0.4367346942	 0.056951
O	-2.0247591922	-2.5881911973	 0.7605850028	-0.273641
C	-2.8343514246	-2.6560548217	-0.4266483626	 0.029411
C	-4.1825864571	-1.9865262906	-0.3298143367	-0.08549
O	-5.0585297986	-2.7421685864	 0.4910546791	-0.418406
H	 0.7892856968	 1.5803774805	 0.8761420748	 0.287686
H	 0.7924816676	-0.6043112479	 0.0044260846	 0.084889
H	-0.2332866765	-0.424514529	 1.4419468469	 0.105099
H	-2.19595667	 0.0432025422	 0.0015020678	 0.116696
H	-1.193078708	-0.1107943638	-1.4419281296	 0.113745
H	-0.7088591888	-2.5196962327	-0.8925492915	 0.090143
H	-2.8746836537	-3.6552816915	-0.864829241	 0.09726
H	-4.0786491595	-0.9575466172	 0.0383188079	 0.096209
H	-4.6493890783	-1.945133426	-1.3201242667	 0.113691
H	-4.6270117712	-2.8286727918	 1.3487507863	 0.29283
55.1524	86.8165	92.2014	129.3084	201.5274	260.3294	289.1998	345.4936	402.7757	473.8055	502.8674	570.4544	764.7012	818.7518	851.7358	918.6687	997.838	1020.6354	1062.2762	1068.28	1090.1727	1104.9036	1160.0575	1172.7196	1229.7656	1232.2261	1245.2823	1299.6559	1314.6268	1329.2711	1359.6445	1401.885	1434.3852	1463.3289	1476.6649	1494.5105	1498.2511	1529.6992	2963.7082	3006.0596	3018.2586	3043.9829	3069.2846	3074.6201	3098.2128	3111.0535	3800.8887	3831.4105
OCCC1OC1CO	OCC[C@H]1O[C@H]1CO	
InChI=1S/C5H10O3/c6-2-1-4-5(3-7)8-4/h4-7H,1-3H2	InChI=1S/C5H10O3/c6-2-1-4-5(3-7)8-4/h4-7H,1-3H2/t4-,5+/m1/s1
