17
gdb 55949	4.09289	1.00288	0.94299	2.5143	70.33	-0.2569	0.0167	0.2736	1286.4603	0.136202	-455.172006	-455.163458	-455.162514	-455.20647	30.334	
C	 0.006564039	 1.461229402	-0.0771325327	-0.461865
C	-0.0812286408	-0.0260510504	 0.1364438729	 0.402721
N	-0.3747667415	-0.6670954178	 1.1871605579	-0.51178
O	 0.2076838887	-0.6699134712	-1.0312683866	-0.252844
C	 0.2203676026	-2.0839745778	-1.0235220033	 0.210613
C	 0.1136490683	-2.5909245683	-2.4749789755	-0.209677
N	 1.4623349866	-3.0711598855	-2.8152699603	-0.258765
C	 2.1197029935	-3.0013198669	-1.7360302482	 0.115793
O	 1.5157438051	-2.5427949842	-0.6053439277	-0.220784
H	 1.0227426849	 1.7358197592	-0.3762685772	 0.153152
H	-0.662030424	 1.765550444	-0.8879888957	 0.149082
H	-0.2585391511	 2.002978724	 0.831920365	 0.129455
H	-0.5786995314	-0.0307597278	 1.9535775497	 0.226099
H	-0.5120167844	-2.4537623672	-0.3091758704	 0.129791
H	-0.6054160098	-3.4107749634	-2.5703005091	 0.125125
H	-0.1955817565	-1.7841213398	-3.1442799833	 0.13078
H	 3.1556780408	-3.2912112489	-1.6032757156	 0.143105
52.7046	75.459	112.2477	121.7005	215.2134	335.0432	397.521	457.0301	539.5853	574.289	633.1335	774.9886	852.2114	854.3156	889.0928	920.2367	955.7121	974.8135	992.3511	1020.1741	1057.9651	1069.2352	1070.9053	1094.1597	1133.6697	1218.8045	1299.1231	1320.9125	1336.8574	1362.3474	1398.9016	1425.1544	1470.2321	1480.5651	1480.8452	1709.0788	1741.887	3049.8715	3056.381	3104.7744	3113.9401	3145.8785	3149.8571	3221.5961	3524.9111
CC(=N)OC1CN=CO1	C[C]([NH])O[C@H]1CN=CO1	
InChI=1S/C5H8N2O2/c1-4(6)9-5-2-7-3-8-5/h3,5-6H,2H2,1H3	InChI=1S/C5H8N2O2/c1-4(6)9-5-2-7-3-8-5/h3,5-6H,2H2,1H3/t5-/m0/s1
