23
gdb 86552	4.29254	0.89558	0.87142	1.5101	85.82	-0.2412	0.084	0.3251	1468.4079	0.206277	-388.26699	-388.257828	-388.256884	-388.301511	34.437	
C	-0.3004903062	 1.4263947595	-0.0303513815	-0.389767
C	 0.0031744029	-0.0562653229	 0.1634314286	 0.031097
C	 1.0785120536	-0.6220674094	-0.8110016945	-0.250881
C	 2.1332376277	-0.5239639537	 0.3301329074	 0.021129
C	 0.9678037576	-0.3637951095	 1.3478655583	-0.246987
C	 3.0883159067	-1.6845198141	 0.4907712227	 0.12979
C	 3.8382214941	-1.8616978016	 1.8326341901	-0.295926
C	 3.2010182108	-3.2634425907	 1.8371105553	-0.058165
O	 2.4102816905	-2.9570220389	 0.6696056619	-0.292632
H	 0.6192199005	 2.0227837348	-0.0586262952	 0.10991
H	-0.8363334668	 1.6009316559	-0.9700232534	 0.111522
H	-0.9201438772	 1.81358915	 0.7862481211	 0.110664
H	-0.9338791735	-0.6205195914	 0.1835034654	 0.066233
H	 0.8851885751	-1.6639666307	-1.0785937791	 0.116369
H	 1.2715471807	-0.050152762	-1.7231986138	 0.088095
H	 2.725609514	 0.3947159232	 0.2484268084	 0.067589
H	 1.0690903312	 0.4100723087	 2.1143170495	 0.085443
H	 0.7332403945	-1.3171306593	 1.8278202523	 0.107922
H	 3.7556231961	-1.7356794712	-0.3833683172	 0.067918
H	 4.9273763876	-1.8170610117	 1.7925652237	 0.106574
H	 3.4773583002	-1.2033383281	 2.6257543477	 0.112277
H	 3.9009331154	-4.0880538298	 1.6475093588	 0.098732
H	 2.5759155643	-3.5212884872	 2.6996784836	 0.103093
71.051	82.2766	95.3056	166.9879	213.5345	252.5642	318.1943	367.7701	418.2189	560.2191	635.6921	748.5151	795.869	815.1501	830.6117	874.7719	902.3635	919.0523	942.4303	948.8788	963.8603	989.0488	1018.9732	1032.1404	1066.7595	1120.6809	1137.4566	1144.3216	1154.7905	1170.826	1216.4724	1230.6429	1242.8465	1250.5505	1265.6944	1272.1158	1282.8219	1290.3267	1345.9547	1364.7754	1383.4292	1386.1199	1409.8191	1466.3169	1487.7118	1490.8306	1497.0595	1499.2245	1530.8645	2979.4714	3010.2976	3021.2472	3039.1044	3047.6191	3049.9136	3055.0904	3058.3114	3077.0314	3089.2027	3090.4407	3109.6637	3113.0091	3133.0208
CC1CC(C1)C1CCO1	C[C@H]1C[C@@H](C1)[C@H]1CCO1	
InChI=1S/C8H14O/c1-6-4-7(5-6)8-2-3-9-8/h6-8H,2-5H2,1H3	InChI=1S/C8H14O/c1-6-4-7(5-6)8-2-3-9-8/h6-8H,2-5H2,1H3/t6-,7-,8-/m1/s1
