22
gdb 102088	2.11518	1.25278	0.95309	1.3828	82.71	-0.2412	-0.029	0.2122	1351.375	0.191689	-404.334227	-404.323759	-404.322815	-404.37028	37.85	
C	 0.1663720314	 1.4947458802	-0.2184231604	-0.39259
C	 0.0008861309	-0.0186273387	-0.3875497058	-0.193986
C	-1.3967492046	-0.539744567	 0.0356650605	-0.13401
C	-2.4223983988	-0.0023785533	-0.9418277846	 0.150096
O	-3.2628714104	 0.8202949141	-0.6848155858	-0.253332
C	-1.4263536423	-2.0723548917	 0.1568735873	 0.31674
C	-0.7571290067	-2.6087431754	 1.4078863686	-0.445156
C	-2.557760022	-2.8516303157	-0.4167812599	-0.290414
N	-1.2218570856	-2.9120332703	-1.0396941429	-0.346252
H	 1.160430266	 1.8148438497	-0.5441746573	 0.117793
H	-0.5734981164	 2.0538667513	-0.7997491437	 0.132421
H	 0.0463267627	 1.7876024435	 0.8299361322	 0.123584
H	 0.1855826731	-0.3002181832	-1.4329038716	 0.100378
H	 0.7629443144	-0.5400819073	 0.2000650826	 0.114047
H	-1.6550844573	-0.1160869506	 1.0130670354	 0.095155
H	-2.3259605944	-0.4009265838	-1.9821978819	 0.067266
H	-1.2879470876	-2.2727444265	 2.3053045698	 0.119701
H	-0.7573745907	-3.7011295101	 1.3901053528	 0.131321
H	 0.2837552416	-2.2792216817	 1.4867701212	 0.122058
H	-2.8774917895	-3.7702588467	 0.0681157982	 0.117923
H	-3.3559377132	-2.3260416046	-0.9349995781	 0.120298
H	-1.2046628906	-2.3473961221	-1.8859115467	 0.226958
56.4583	63.1089	82.1515	178.6588	190.6575	201.7767	259.8671	299.9844	319.8602	360.8121	396.5583	447.298	462.4153	521.9336	751.6337	768.4433	826.6818	879.902	919.1795	920.7227	971.4378	975.7338	1013.7498	1031.9435	1064.8394	1073.8695	1095.0344	1128.0392	1152.8901	1164.1231	1249.8729	1252.8999	1278.9194	1332.5662	1337.7429	1362.2485	1381.0216	1417.9581	1420.7026	1436.9368	1482.3488	1487.4169	1496.1698	1499.6961	1505.7951	1520.8882	1830.8199	2819.6739	3021.7433	3035.6896	3038.1884	3049.3236	3073.0422	3099.8065	3105.0749	3107.1246	3112.3605	3124.4115	3186.0928	3495.3253
CCC(C=O)C1(C)CN1	CC[C@@H](C=O)[C@@]1(C)CN1	
InChI=1S/C7H13NO/c1-3-6(4-9)7(2)5-8-7/h4,6,8H,3,5H2,1-2H3	InChI=1S/C7H13NO/c1-3-6(4-9)7(2)5-8-7/h4,6,8H,3,5H2,1-2H3/t6-,7+/m0/s1
