12
gdb 42385	3.32924	1.06365	0.92228	2.27	71.3	-0.2849	-0.0649	0.2201	1229.885	0.073624	-435.430285	-435.421386	-435.420442	-435.465023	30.812	
N	 0.2331447951	 1.5734650611	-1.1148292598	-0.44425
C	-0.0479828443	 0.4642248789	-0.58395866	 0.256624
O	-1.3519764331	 0.0027908197	-0.7511623539	-0.211576
C	-2.0773528904	-0.2867327165	 0.3680848229	 0.306182
O	-1.7118603422	-0.0740064242	 1.4907363222	-0.327318
C	-3.3465776972	-0.8640275643	 0.0005456555	 0.239573
C	-4.41846629	-1.3459311123	-0.2473781104	-0.363992
C	 0.8422429821	-0.4337085178	 0.0832185379	 0.331762
C	 1.6301702908	-1.1751222389	 0.6076772127	-0.481575
H	 1.2257936727	 1.7784381306	-1.0022976177	 0.24969
H	-5.3668029806	-1.7726780314	-0.4684782517	 0.220933
H	 2.3196380571	-1.8291460148	 1.0838524823	 0.223948
45.8417	62.8092	123.5402	169.1735	226.9164	270.6318	286.3858	464.9085	491.6091	597.2886	626.9885	666.4168	672.9761	682.3398	703.4966	711.4639	763.4421	828.245	904.3707	955.12	1045.1704	1204.905	1311.1141	1717.4244	1814.0404	2232.6265	2240.5922	3495.6661	3496.699	3504.8513
N=C(OC(=O)C#C)C#C	[NH][C](OC(=O)C#C)C#C	
InChI=1S/C6H3NO2/c1-3-5(7)9-6(8)4-2/h1-2,7H	InChI=1S/C6H3NO2/c1-3-5(7)9-6(8)4-2/h1-2,7H
