16
gdb 39846	2.99508	1.76821	1.40193	2.6283	67.51	-0.2545	0.0466	0.3011	927.9152	0.125281	-437.808051	-437.801374	-437.80043	-437.839023	26.912	
C	-0.1040424027	 1.470185292	-0.0054544973	-0.272708
N	 1.1958619299	 0.7823173729	 0.0606668351	-0.362776
C	-0.0435339227	-0.0111308689	 0.0069207133	 0.328781
C	-0.3262646312	-0.8721881929	 1.2168466594	-0.051153
O	-1.6826559483	-1.3032772639	 1.3516837679	-0.235479
C	-0.7524487023	-2.2067602834	 0.7562434507	 0.003814
C	-0.7733859076	-2.1917337123	-0.7682606114	 0.006902
O	-1.7215111696	-1.2779189352	-1.3205305408	-0.231078
C	-0.3629692476	-0.8467246006	-1.2117503765	-0.085386
H	-0.3857321665	 2.0050725136	 0.8967493563	 0.131005
H	-0.3980912252	 1.9549777954	-0.9326964129	 0.122412
H	 1.6492771151	 0.7905570687	-0.8508103888	 0.234626
H	 0.2159216498	-0.6776887555	 2.1384740691	 0.108752
H	-0.557186024	-3.1294179974	 1.2943212728	 0.103346
H	-0.5910420035	-3.1017590341	-1.3319990887	 0.103478
H	 0.1409888363	-0.6365039484	-2.1548665382	 0.095463
130.0096	214.9102	309.2275	318.2144	395.2299	472.8747	568.4905	593.7244	724.5005	808.6591	824.67	848.3161	881.5956	890.5107	910.5182	936.2072	941.0613	957.5605	987.3601	1025.8921	1046.4274	1080.4203	1088.0527	1109.4965	1136.9527	1232.299	1252.1233	1259.3771	1282.2091	1313.6023	1331.6431	1354.5248	1418.1565	1444.0812	1513.5599	3111.86	3113.3028	3150.6904	3157.7594	3170.7449	3198.9556	3486.4313
C1NC11C2OC2C2OC12	C1N[C@]21[C@H]1O[C@H]1[C@H]1O[C@@H]21	
InChI=1S/C6H7NO2/c1-6(7-1)4-2(8-4)3-5(6)9-3/h2-5,7H,1H2	InChI=1S/C6H7NO2/c1-6(7-1)4-2(8-4)3-5(6)9-3/h2-5,7H,1H2/t2-,3+,4-,5+,6+
