18
gdb 37695	3.5479	1.9882	1.52204	1.6559	80.22	-0.2225	0.009	0.2315	884.5004	0.150656	-364.727519	-364.72146	-364.720516	-364.757434	26.465	
C	-0.0894989971	 1.5758322934	 0.0253216027	-0.334584
C	 1.4118204467	 1.2313347456	 0.0283546117	-0.019579
C	 1.253124441	 0.0422299397	 1.0041929457	-0.090222
C	 1.8867508337	-0.932794916	 0.0060234282	-0.038637
C	 1.2310981546	-2.2870593077	-0.0403521244	-0.056118
C	-0.1019321022	-2.3720870152	-0.0573471914	-0.069876
C	-0.9509291469	-1.1161325526	-0.0214423099	-0.396234
C	-0.0056180141	 0.0480877634	 0.0720615955	 0.366058
N	 1.1807808967	 0.050727159	-0.9449074714	-0.184094
H	-0.4865991524	 2.0797427593	 0.9108701899	 0.097308
H	-0.4823384154	 2.0096597655	-0.8990661436	 0.107059
H	 2.2718123575	 1.8913641463	-0.0959227676	 0.078787
H	 1.2755415544	 0.0411229645	 2.0998433868	 0.061028
H	 2.9745520245	-0.9553023701	-0.1037038303	 0.061327
H	 1.8521029759	-3.1767871299	-0.0664905111	 0.090205
H	-0.6098362727	-3.33110535	-0.099389786	 0.092873
H	-1.571993303	-1.0411106913	-0.923929168	 0.122614
H	-1.6420361711	-1.1362696339	 0.8322861533	 0.112084
235.8113	310.2278	401.2972	409.0981	494.4464	532.2943	612.8199	699.3435	709.6468	747.078	839.1207	856.9853	873.4591	887.434	915.9908	930.7107	935.1739	973.8011	990.4232	1009.7093	1026.2992	1051.5094	1091.8038	1120.2402	1133.5879	1165.2902	1178.8523	1199.9906	1206.1047	1216.8913	1242.3823	1272.4484	1298.0491	1353.71	1376.3273	1397.9274	1465.2185	1493.6795	1691.2297	3014.1921	3036.653	3044.1732	3049.8101	3070.4783	3102.9607	3114.7129	3163.659	3187.4583
C1C2C3C4C=CCC13N24	C1[C@H]2[C@@H]3[C@H]4C=CC[C@@]13N24	
InChI=1S/C8H9N/c1-2-5-7-6-4-8(7,3-1)9(5)6/h1-2,5-7H,3-4H2	InChI=1S/C8H9N/c1-2-5-7-6-4-8(7,3-1)9(5)6/h1-2,5-7H,3-4H2/t5-,6+,7+,8-/m1/s1
