14
gdb 14639	7.19463	0.63365	0.58657	4.0855	77.36	-0.2616	-0.0607	0.2009	1798.4375	0.103611	-345.355166	-345.345592	-345.344647	-345.392806	30.231	
C	 0.0667297908	 1.5226298758	-0.0242753943	-0.496465
C	 0.030375329	 0.0689324024	 0.038365162	 0.078394
C	-0.001340515	-1.1319439501	 0.0899457124	 0.076483
C	-0.0324713382	-2.5934842205	 0.1534694833	-0.503769
C	-1.3732621291	-3.1661568802	 0.0455699978	 0.141228
C	-2.4700494117	-3.6620782272	-0.041437188	 0.004019
C	-3.7978886273	-4.2089521657	-0.1492138477	 0.025584
O	-4.0588180303	-5.3898164502	-0.1214609998	-0.229202
H	 0.6710271713	 1.8688077837	-0.8696525256	 0.152304
H	-0.9402199714	 1.9367706345	-0.1435949923	 0.154327
H	 0.4956098105	 1.948972757	 0.8889444689	 0.152304
H	 0.5936117916	-3.0202842235	-0.6432140801	 0.172177
H	 0.4200542859	-2.9411141932	 1.0932657513	 0.172178
H	-4.5925807158	-3.443760593	-0.2635191877	 0.100439
15.2522	28.8568	52.9765	141.1633	167.5976	198.9947	236.5515	366.5608	374.0536	395.3085	483.4844	611.1509	768.0299	831.	918.4946	1022.2299	1052.6636	1053.9799	1132.7021	1176.6672	1227.0786	1336.2392	1414.747	1422.0695	1439.9754	1477.1005	1477.8383	1768.4744	2337.1942	2384.5035	2918.4293	3004.3946	3027.782	3030.3592	3092.6852	3093.2718	15.2933	28.8646	52.9772	141.1635	167.5973	198.9934	236.5517	366.5659	374.0557	395.3135	483.4852	611.1515	768.0309	830.9999	918.4955	1022.2292	1052.663	1053.9794	1132.702	1176.6679	1227.0812	1336.2399	1414.7461	1422.0683	1439.9783	1477.0989	1477.8366	1768.4749	2337.1949	2384.5038	2918.4291	3004.3944	3027.7817	3030.3592	3092.6852	3093.2718
CC#CCC#CC=O	CC#CCC#CC=O	
InChI=1S/C7H6O/c1-2-3-4-5-6-7-8/h7H,4H2,1H3	InChI=1S/C7H6O/c1-2-3-4-5-6-7-8/h7H,4H2,1H3
