22
gdb 101228	2.85159	0.99923	0.87956	1.8271	79.1	-0.2344	0.0677	0.302	1412.8643	0.193338	-441.450934	-441.441079	-441.440135	-441.485798	36.907	
C	-0.0929819978	 1.5448522017	-0.0405356728	-0.391256
C	-0.0376890149	 0.0162844628	-0.0880503936	 0.021488
C	 0.7898886331	-0.4770716244	-1.2857022475	-0.052626
O	 2.1389630295	-0.0654167454	-1.1844473198	-0.423845
N	 0.5891624004	-0.5120134266	 1.1209926463	-0.100096
C	 0.4690389995	-1.9620471768	 1.415961059	-0.210354
C	 0.4031841363	-1.6088087062	 2.9238443941	 0.139767
O	 1.619355574	-1.7124759737	 3.6234387794	-0.434497
C	 0.0257835626	-0.1807464455	 2.4518535037	-0.208562
H	 0.9171362125	 1.9616673449	-0.0278123432	 0.131204
H	-0.6096618035	 1.9281896003	-0.9253392279	 0.11716
H	-0.6321583993	 1.901715606	 0.8414939552	 0.114826
H	-1.0679299564	-0.3790234672	-0.1937164282	 0.049933
H	 0.7127726807	-1.575000128	-1.3563136191	 0.083861
H	 0.3868647655	-0.0625149761	-2.215891836	 0.102654
H	 2.359774739	-0.1736342701	-0.2490054053	 0.276903
H	-0.4716320037	-2.4003485527	 1.045404876	 0.092347
H	 1.309031009	-2.5845573111	 1.0913136554	 0.109099
H	-0.3382995738	-2.1404371046	 3.5205715847	 0.096077
H	 2.2894186016	-1.2399714392	 3.116567294	 0.285534
H	 0.5025914563	 0.6550189438	 2.9737950489	 0.107802
H	-1.0642807708	-0.024023522	 2.4339509867	 0.092579
74.9149	88.1716	121.4449	178.1634	215.5186	240.2244	305.1623	341.5607	366.7206	412.4857	427.9222	471.4779	493.4111	601.4237	712.7269	849.1949	854.6517	864.2398	922.9213	937.5186	987.644	1003.8523	1020.8591	1062.32	1071.9285	1121.8748	1128.8461	1142.1613	1153.9623	1179.8015	1206.5721	1249.5314	1257.831	1278.698	1316.1049	1323.7935	1338.2407	1369.4028	1385.4477	1411.9265	1438.6288	1442.8997	1490.5822	1493.1699	1499.0835	1514.0304	1518.629	2898.5816	2964.0744	2973.7748	2983.2295	3046.839	3068.5764	3070.7254	3071.9697	3114.5211	3116.2068	3128.8051	3739.6139	3801.0193
CC(CO)N1CC(O)C1	C[C@@H](CO)N1C[C@@H](O)C1	
InChI=1S/C6H13NO2/c1-5(4-8)7-2-6(9)3-7/h5-6,8-9H,2-4H2,1H3	InChI=1S/C6H13NO2/c1-5(4-8)7-2-6(9)3-7/h5-6,8-9H,2-4H2,1H3/t5-/m0/s1
