17
gdb 73826	2.319	1.5356	1.32633	2.8738	75.85	-0.241	0.0023	0.2433	1066.6044	0.134258	-421.812547	-421.804051	-421.803106	-421.845729	31.273	
C	 0.0181259709	 1.4655252606	 0.1100773679	-0.518062
C	-0.0462746834	-0.0208582762	 0.0307184114	 0.233307
C	-0.0572978635	-0.8718899741	-1.0221179362	 0.233245
C	-0.0091137827	-0.6384690178	-2.4928242976	-0.518065
C	-0.0229247613	-2.2283032669	-0.3388810834	-0.155119
O	-0.898812294	-2.0489270689	 0.8087494043	-0.261918
C	-0.0063638422	-0.9736365779	 1.2132915264	-0.155155
C	 1.148172421	-1.933234637	 0.6933651271	 0.427653
O	 2.2359553229	-2.2990649397	 0.9774609072	-0.30134
H	 0.9131302497	 1.7947617136	 0.6525459848	 0.1398
H	 0.0450265561	 1.9221675844	-0.8828875497	 0.131189
H	-0.8456085384	 1.8749044505	 0.6479378696	 0.137766
H	 0.0259910788	 0.4278334905	-2.7315573031	 0.131192
H	 0.8753612274	-1.109246047	-2.9397863824	 0.139803
H	-0.8838958853	-1.0693949989	-2.9948010761	 0.137765
H	-0.1642801368	-3.1535506661	-0.8930487278	 0.098975
H	-0.1308920192	-0.6243623391	 2.2358682877	 0.098964
105.5052	127.2059	150.7899	160.3009	238.2426	271.4373	335.0735	437.2196	525.1719	596.7348	612.4012	632.4754	664.2906	799.017	876.6651	880.1671	922.3604	945.0249	955.0567	1039.4449	1058.3513	1063.1534	1085.9701	1153.5364	1155.883	1199.5927	1205.3966	1293.1587	1346.4196	1413.5461	1419.6168	1477.8933	1479.0614	1485.5438	1488.5658	1687.5086	1924.2476	3021.2879	3022.5099	3069.5468	3069.801	3109.6204	3112.5746	3155.9554	3159.1413
CC1=C(C)C2OC1C2=O	CC1=C(C)[C@@H]2O[C@H]1C2=O	
InChI=1S/C7H8O2/c1-3-4(2)7-5(8)6(3)9-7/h6-7H,1-2H3	InChI=1S/C7H8O2/c1-3-4(2)7-5(8)6(3)9-7/h6-7H,1-2H3/t6-,7+
