19
gdb 35545	2.49959	1.58667	1.43229	2.0667	79.23	-0.2397	0.0493	0.2889	1020.1345	0.160411	-385.851791	-385.843941	-385.842997	-385.884054	30.931	
C	 0.0470666151	-1.1859556102	 0.470066121	-0.503142
C	 0.0493580007	-0.0000516287	 0.2704360531	 0.366894
C	 0.0144956911	 1.433343595	-0.0052697098	-0.176829
C	-0.7556735297	 2.2457042191	 1.0826870007	-0.241255
C	 0.2917205934	 2.653149603	 2.127421852	-0.062452
C	 0.8295825431	 1.5453526634	 3.058215215	-0.080771
O	 2.0499176824	 1.4290949414	 2.2945211528	-0.289597
C	 1.6752362293	 2.5243618043	 1.4311438691	 0.1398
C	 1.4243620413	 2.0949414879	-0.0115578683	-0.239334
H	 0.0645201123	-2.2315633944	 0.6534033132	 0.195387
H	-0.4667482887	 1.5695482687	-0.9800798697	 0.104232
H	-1.1716648966	 3.1451999419	 0.6155961232	 0.101376
H	-1.589411473	 1.6788195022	 1.5047361112	 0.113828
H	 0.0556174445	 3.5977688125	 2.6184826684	 0.07421
H	 1.0284059659	 1.8677952901	 4.0883321434	 0.095111
H	 0.2652252572	 0.6065900199	 3.0724907469	 0.112025
H	 2.3813708233	 3.3582801793	 1.5164464918	 0.069297
H	 2.2055545451	 1.4282602808	-0.3830697564	 0.124036
H	 1.3993521334	 2.9847974739	-0.6519399374	 0.097185
106.369	122.0149	187.2059	243.1433	351.0816	364.0579	438.4747	520.0551	616.0126	624.6062	632.9046	745.2151	767.2453	791.1998	851.647	870.4439	898.1286	919.2291	959.3224	969.7267	1015.7409	1035.6069	1066.91	1087.5464	1118.9584	1156.003	1166.4425	1204.3506	1213.3355	1244.4146	1270.1353	1308.5351	1325.4181	1345.6862	1359.5648	1363.6485	1374.4436	1464.9549	1485.5385	1520.9149	2231.7161	3012.9443	3030.2715	3036.6722	3044.5463	3053.828	3069.4128	3100.6446	3104.8033	3116.315	3504.7258
C#CC1CC2COC2C1	C#C[C@H]1C[C@H]2CO[C@H]2C1	
InChI=1S/C8H10O/c1-2-6-3-7-5-9-8(7)4-6/h1,6-8H,3-5H2	InChI=1S/C8H10O/c1-2-6-3-7-5-9-8(7)4-6/h1,6-8H,3-5H2/t6-,7-,8-/m0/s1
