21
gdb 89568	4.23629	1.01036	0.96125	1.4928	82.81	-0.2379	0.0262	0.2641	1294.8038	0.183391	-387.089668	-387.081373	-387.080429	-387.122595	33.065	
O	 0.8395887184	 0.3377166488	-0.8866525611	-0.43537
C	 0.0285551185	-0.3661856199	 0.0192286101	 0.178912
C	 0.1473087292	-0.1014301388	 1.5422207969	-0.31478
C	-1.3969140545	-0.3124258611	 1.6529445693	 0.365305
C	-1.4863038422	-0.0509502498	 0.1223826216	-0.336266
C	-1.7647165755	-1.7526649319	 2.1064500081	-0.315291
C	-2.2197968409	-1.5640151697	 3.5334813962	-0.062108
C	-2.4389868276	-0.2815605639	 3.8180322032	-0.058175
C	-2.16371452	 0.6081237183	 2.6301362436	-0.338652
H	 0.7276194822	 1.2786793681	-0.7143786005	 0.274092
H	 0.1912874099	-1.4234153187	-0.2095229399	 0.092908
H	 0.8035379701	-0.7434262234	 2.1356503462	 0.100896
H	 0.4170515259	 0.9453396775	 1.7281522028	 0.083337
H	-1.6724178654	 1.0098133406	-0.0865202476	 0.085786
H	-2.1853553855	-0.6511104608	-0.4666857525	 0.096285
H	-2.5788055068	-2.1704597248	 1.495198014	 0.102944
H	-0.9235615885	-2.4499736605	 2.0110309184	 0.101455
H	-2.380366249	-2.395335485	 4.2111251302	 0.089688
H	-2.8073896063	 0.0985687717	 4.7645008387	 0.089878
H	-1.5882285877	 1.5068853003	 2.8835805272	 0.095905
H	-3.1061342543	 0.9640513927	 2.185927275	 0.103251
76.1987	91.9052	258.6242	278.0673	330.3358	342.9428	385.3267	424.5926	462.3605	475.9684	662.926	697.789	772.7179	776.53	827.7384	880.26	895.0873	939.4822	946.1508	975.2015	980.6703	984.8317	1010.0591	1051.2146	1077.4757	1094.1769	1096.9277	1129.3816	1163.4104	1175.0914	1213.3548	1240.5965	1250.3039	1276.428	1283.1145	1294.0113	1330.6982	1347.3835	1367.7746	1438.1858	1467.087	1480.5668	1486.7119	1498.1087	1687.1619	2988.7545	2993.4487	3025.875	3032.8493	3040.3954	3042.3015	3067.5865	3093.1701	3100.3473	3179.9234	3205.5141	3804.2816
OC1CC2(C1)CC=CC2	O[C@H]1C[C@@]2(C1)CC=CC2	
InChI=1S/C8H12O/c9-7-5-8(6-7)3-1-2-4-8/h1-2,7,9H,3-6H2	InChI=1S/C8H12O/c9-7-5-8(6-7)3-1-2-4-8/h1-2,7,9H,3-6H2
