23
gdb 104698	2.35787	1.14254	0.92168	3.0419	85.79	-0.2377	-0.0163	0.2215	1389.7331	0.203297	-388.312085	-388.30192	-388.300976	-388.347646	38.234	
C	-0.4061232836	 1.6014200994	 0.3829734678	-0.392491
C	-0.0673267403	 0.1491285025	 0.0306621887	-0.246935
C	 0.7627451612	-0.5950187744	 1.0853593474	 0.359835
C	 2.1229143692	 0.0568356213	 1.3876643538	-0.235361
C	 3.0516321884	 0.2148762268	 0.1795329371	-0.394837
C	-0.0198109169	-0.9149148731	 2.4104747837	-0.404062
C	 0.297988855	-2.3997882701	 2.194337398	 0.415236
O	 0.1715171483	-3.3804708176	 2.8689733333	-0.293356
C	 0.8953942634	-2.1363115589	 0.8064702504	-0.407561
H	 0.4890920136	 2.2283596841	 0.4382588513	 0.121259
H	-1.0666719465	 2.0388849095	-0.3717854715	 0.116345
H	-0.9178178859	 1.6688532367	 1.3494305102	 0.118812
H	-1.0010950771	-0.4079936176	-0.1222907869	 0.091354
H	 0.4568303901	 0.1178102625	-0.9325968708	 0.101301
H	 1.9561032064	 1.0365099215	 1.8520865257	 0.100959
H	 2.6295147362	-0.5484703787	 2.1513160948	 0.095944
H	 4.0256526655	 0.6049691721	 0.4899820495	 0.117103
H	 3.225034272	-0.7431319712	-0.3227577609	 0.118444
H	 2.6422805805	 0.9073333274	-0.5624496696	 0.121178
H	 0.3626606766	-0.480594462	 3.3389852734	 0.123634
H	-1.0957754809	-0.7149369391	 2.3546572983	 0.124206
H	 0.2495668436	-2.5039159458	 0.0013099474	 0.124071
H	 1.9013581509	-2.5353775654	 0.646805229	 0.124921
29.5339	100.2669	132.861	192.3914	211.4347	230.0177	288.712	340.1972	354.2568	370.47	413.7285	428.1119	536.3516	614.9107	680.4431	723.5009	772.0599	798.9499	844.7009	898.8212	923.7253	967.151	998.9043	1012.7378	1046.247	1048.1404	1085.6426	1092.5527	1140.8516	1168.3977	1180.2103	1202.6975	1249.5651	1271.1909	1319.2374	1332.249	1363.9854	1385.9872	1412.3344	1412.7679	1424.7972	1442.6061	1483.1552	1489.8007	1500.6012	1502.0248	1504.5646	1514.8615	1889.9601	3013.9036	3017.2338	3034.6899	3035.5958	3043.1823	3047.647	3048.4474	3050.6939	3098.7875	3100.0815	3100.7208	3102.572	3106.8418	3108.0695
CCC1(CC)CC(=O)C1	CCC1(CC)CC(=O)C1	
InChI=1S/C8H14O/c1-3-8(4-2)5-7(9)6-8/h3-6H2,1-2H3	InChI=1S/C8H14O/c1-3-8(4-2)5-7(9)6-8/h3-6H2,1-2H3
