19
gdb 112282	2.35448	1.26944	0.94381	2.8711	73.94	-0.2271	-0.0245	0.2026	1306.5305	0.155836	-460.135503	-460.125648	-460.124704	-460.170844	34.503	
C	 0.2286171486	 1.4133289859	 0.1524710144	-0.235273
O	-0.2411897005	 0.1400101153	-0.2317418714	-0.228344
C	 0.5522321813	-0.478267068	-1.2064790431	 0.056293
C	 1.8099346363	-1.1891146969	-0.6033331197	-0.377682
C	 0.9569733963	-2.474082011	-0.5413012921	 0.366173
O	 0.9939989717	-3.4731837026	 0.1142483225	-0.298123
C	-0.0519228741	-1.872762266	-1.5513417382	 0.048157
O	-1.4191788073	-2.0308985626	-1.4101977494	-0.235662
C	-1.8692394103	-3.3312315599	-1.7554550664	-0.24716
H	 1.2253778312	 1.3690779852	 0.6164475422	 0.106775
H	 0.2796192543	 2.0994534876	-0.7070319875	 0.108363
H	-0.4810736894	 1.8091265989	 0.882070251	 0.135485
H	 0.7305217401	 0.1897885062	-2.0587608552	 0.071854
H	 2.6542427334	-1.2748347954	-1.2940850814	 0.129534
H	 2.1650718444	-0.8114693392	 0.3570563868	 0.13906
H	 0.2976521094	-2.1583846863	-2.5628055223	 0.084951
H	-2.9528801142	-3.3359210253	-1.6214072757	 0.131489
H	-1.6377477691	-3.5671054409	-2.8062664533	 0.103063
H	-1.418520382	-4.096584285	-1.1131465412	 0.141046
72.5379	84.1904	120.5542	133.5675	165.9767	206.1508	235.0416	301.1368	336.634	402.7681	428.6701	554.498	577.3202	703.704	778.9064	830.9594	895.1045	972.9507	1022.5133	1054.3153	1062.0049	1089.5042	1145.5203	1174.5865	1182.3043	1185.8038	1192.0727	1230.5066	1246.5581	1260.6208	1272.986	1369.7347	1388.4945	1429.3425	1481.0986	1481.5846	1487.4876	1488.7146	1507.8609	1512.3736	1893.5969	2917.2813	2977.9638	2981.9604	3022.6308	3026.5188	3065.4007	3067.3883	3122.6576	3128.3532	3133.6665
COC1CC(=O)C1OC	CO[C@H]1CC(=O)[C@H]1OC	
InChI=1S/C6H10O3/c1-8-5-3-4(7)6(5)9-2/h5-6H,3H2,1-2H3	InChI=1S/C6H10O3/c1-8-5-3-4(7)6(5)9-2/h5-6H,3H2,1-2H3/t5-,6+/m0/s1
