23
gdb 123028	5.00989	0.54334	0.5205	1.0608	84.68	-0.251	0.0933	0.3443	2211.8353	0.202851	-425.406529	-425.395537	-425.394593	-425.444277	38.239	
C	 0.0296605789	 1.4677285416	-0.0347591915	-0.384267
C	 0.3143263257	-0.0237246902	-0.0922991078	-0.029298
O	 0.5189441209	-0.4947884333	 1.2236307112	-0.245417
C	 0.8040100054	-1.8740372344	 1.2850597795	-0.041807
C	 1.0384158241	-2.2513568137	 2.7452748395	-0.245345
C	 1.3109238406	-3.7270064855	 2.8993804889	 0.060698
O	 2.5851055636	-4.2134994517	 2.45056959	-0.265256
C	 2.2733686492	-4.3198669138	 3.8442810309	 0.076776
C	 3.129609162	-3.5450829556	 4.8129874343	-0.418507
H	 0.8714569446	 2.0014980249	 0.4154390776	 0.12604
H	-0.1355921626	 1.8642142455	-1.041023858	 0.113736
H	-0.8618128205	 1.6650592648	 0.567449048	 0.125197
H	-0.5278359594	-0.5603538304	-0.5624299278	 0.083474
H	 1.2056389765	-0.2243280284	-0.7109607305	 0.086161
H	-0.0326840717	-2.460742262	 0.8657807593	 0.080621
H	 1.6990491601	-2.1163437478	 0.6892479037	 0.103664
H	 1.8699724932	-1.6559920138	 3.129942913	 0.112531
H	 0.1474346088	-1.9851686999	 3.3272732605	 0.108612
H	 0.4782458484	-4.3662990875	 2.5929363923	 0.08471
H	 2.0640296687	-5.3449146441	 4.1600494408	 0.085317
H	 3.3146782136	-2.5256345545	 4.4702165664	 0.130699
H	 2.6489434818	-3.5030052324	 5.7965260472	 0.121928
H	 4.0982289284	-4.0409045278	 4.9360071924	 0.129733
40.6764	50.4673	87.1954	104.8176	136.3108	165.4815	208.4731	241.7945	248.5173	364.317	382.234	446.8855	504.9773	547.4092	755.8225	805.0769	821.4671	833.9626	902.4516	927.5318	991.1803	1031.8844	1045.2782	1059.6279	1102.7833	1134.5443	1151.0842	1168.0609	1177.5062	1182.3733	1194.081	1240.3125	1293.5131	1295.9306	1308.8643	1313.178	1387.3704	1399.3711	1408.8662	1419.9737	1450.7172	1469.6258	1476.0916	1483.6532	1491.3851	1499.6954	1513.2479	1517.3913	1539.6728	2942.7921	2955.411	2975.5754	2988.7415	3039.067	3042.5384	3044.6176	3062.6746	3079.5303	3099.485	3108.4773	3119.0026	3120.9386	3139.1044
CCOCCC1OC1C	CCOCC[C@H]1O[C@H]1C	
InChI=1S/C7H14O2/c1-3-8-5-4-7-6(2)9-7/h6-7H,3-5H2,1-2H3	InChI=1S/C7H14O2/c1-3-8-5-4-7-6(2)9-7/h6-7H,3-5H2,1-2H3/t6-,7+/m0/s1
