18
gdb 50468	4.33702	0.93412	0.80878	1.8892	73.65	-0.2466	-0.0375	0.2091	1362.2071	0.148751	-439.142026	-439.133444	-439.1325	-439.176291	31.088	
O	-0.1781017301	-0.0024504767	-0.0336141882	-0.240018
C	-0.051956867	 1.1923864946	 0.017343471	 0.149372
C	 1.2729958685	 1.9271230946	-0.0047697964	-0.072714
C	 1.3675149767	 2.8168704625	-1.2592323224	-0.23655
C	 2.7273825885	 3.5208080536	-1.2992210261	-0.317599
C	 3.130568012	 4.1959607958	 0.006643902	 0.398708
O	 3.9687801024	 5.076033501	 0.0489890524	-0.371865
N	 2.5358676035	 3.7171399252	 1.1441607724	-0.3149
C	 1.4073821817	 2.8045083756	 1.2479050444	-0.167209
H	-0.9431718614	 1.8630679714	 0.0684426989	 0.076241
H	 2.068026425	 1.1746097859	-0.0235842462	 0.106033
H	 1.2243218918	 2.2174304711	-2.1639590774	 0.120031
H	 0.5585406294	 3.5589925123	-1.238535405	 0.111903
H	 3.5172702966	 2.7961380853	-1.5337418347	 0.137138
H	 2.7668212516	 4.2840463379	-2.0798645363	 0.135838
H	 2.8188322456	 4.2080376913	 1.9807590928	 0.248589
H	 0.4698048346	 3.3647064923	 1.3974315005	 0.109805
H	 1.5444799406	 2.1720204861	 2.1320686883	 0.127197
50.7843	68.3191	139.4066	172.7236	274.7723	337.7788	374.6367	426.7846	494.6426	544.9749	556.5165	655.3504	705.4881	772.7494	842.9232	915.1895	930.8316	959.2507	1031.8122	1075.8483	1089.8221	1115.2933	1142.3383	1194.309	1228.393	1265.6561	1294.3463	1310.4529	1341.0898	1370.754	1385.8638	1396.3736	1429.1627	1463.1981	1485.8197	1499.8223	1529.2681	1793.7886	1838.7305	2845.5884	2967.4778	3023.4621	3041.482	3051.6281	3067.226	3081.3214	3109.7436	3601.0411
O=CC1CCC(=O)NC1	O=C[C@H]1CCC(=O)NC1	
InChI=1S/C6H9NO2/c8-4-5-1-2-6(9)7-3-5/h4-5H,1-3H2,(H,7,9)	InChI=1S/C6H9NO2/c8-4-5-1-2-6(9)7-3-5/h4-5H,1-3H2,(H,7,9)/t5-/m0/s1
