19
gdb 33725	3.17606	1.50375	1.27217	0.7753	85.5	-0.2464	0.0466	0.2931	1044.7545	0.160939	-348.683047	-348.675865	-348.674921	-348.714228	30.565	
C	 0.0145869914	-1.1902562651	-0.0310087125	-0.355996
C	 0.0293899853	 0.0127765752	-0.0219688562	 0.047333
C	 0.0478134453	 1.4534255475	-0.0008214143	 0.273603
C	-0.3005861675	 2.2875575915	 1.2976472093	-0.245086
C	 0.4650205864	 3.4069361287	 0.5129392332	-0.072392
C	 1.3846635737	 2.2622290561	 0.0170767446	-0.273288
C	-0.5177012166	 3.6445946368	-0.6513905104	-0.032464
C	-0.1961893221	 3.1386242707	-2.0373170946	-0.317812
C	-0.830282214	 2.2101863742	-1.0333452199	-0.079458
H	 0.0043640808	-2.2517551381	-0.0402349248	 0.177138
H	-1.3610877751	 2.4468301441	 1.5089520528	 0.095277
H	 0.2244568896	 1.9278169814	 2.1861766454	 0.101017
H	 0.8740408341	 4.2826426226	 1.015576875	 0.066253
H	 2.0431301388	 1.900264123	 0.8078574897	 0.107069
H	 1.9527962889	 2.3702264644	-0.9064617521	 0.100755
H	-1.2981707585	 4.3856085167	-0.5209433934	 0.087741
H	-0.861022256	 3.4862260289	-2.8224791825	 0.110563
H	 0.8242828356	 3.005129869	-2.3750831823	 0.115754
H	-1.8386852203	 1.8464646823	-1.189689847	 0.093993
138.5329	155.8372	327.2947	396.9272	484.7773	496.3258	518.2411	548.8888	566.9654	623.5064	628.2142	648.5154	776.9449	793.396	817.5685	847.273	909.3374	917.4963	931.7318	966.3111	984.1531	996.456	1024.2239	1067.0133	1075.8984	1081.9434	1106.2881	1118.1344	1164.3835	1179.4778	1193.7107	1213.5997	1223.7077	1247.8006	1291.4931	1326.1682	1367.2707	1476.5956	1499.6998	1539.2928	2233.7768	3057.2795	3088.2656	3119.9829	3124.203	3133.6234	3143.2953	3171.7492	3183.7963	3213.2351	3503.5341
C#CC12CC(C1)C1CC21	C#C[C@@]12C[C@@H](C1)[C@H]1C[C@@H]21	
InChI=1S/C9H10/c1-2-9-4-6(5-9)7-3-8(7)9/h1,6-8H,3-5H2	InChI=1S/C9H10/c1-2-9-4-6(5-9)7-3-8(7)9/h1,6-8H,3-5H2/t6-,7-,8-,9+/m1/s1
