15
gdb 20915	3.44239	1.94789	1.37051	1.4148	63.93	-0.2116	0.004	0.2156	895.4842	0.119613	-395.991823	-395.984273	-395.983329	-396.025028	26.879	
C	-0.0487645031	 1.5895116435	-0.0990573958	-0.38266
C	 0.0607777838	 0.0644239623	-0.0614616337	-0.138639
N	 0.7442247299	-0.4839776934	-1.2157981384	-0.057379
N	 0.1134790755	-0.6320920673	-2.4335593845	-0.221545
C	 1.0391222611	-1.048831113	-3.2122665125	 0.079565
O	 2.2597909928	-1.1836568587	-2.6243540086	-0.204963
C	 2.0811547049	-0.7885029187	-1.2978048942	 0.466189
N	 2.9488453904	-0.7267484037	-0.3789116618	-0.611364
H	 0.9444958615	 2.0467097569	-0.1119634453	 0.138853
H	-0.5969734326	 1.9162919012	-0.9872208036	 0.133717
H	-0.5816046009	 1.94948357	 0.7863489749	 0.121374
H	 0.6345887309	-0.2632578311	 0.8089964704	 0.152439
H	-0.92973396	-0.3975183587	-0.0161791742	 0.126841
H	 0.9451695714	-1.2991124624	-4.2557331252	 0.16651
H	 3.8618284445	-1.0266141268	-0.7065563776	 0.231062
24.8226	84.7497	217.5626	223.0815	308.5568	379.8546	496.967	628.2762	651.7621	693.644	726.1916	770.708	792.0127	811.0076	938.6507	955.5518	993.7726	1047.3994	1099.0377	1105.7537	1202.4134	1246.6433	1299.09	1361.5962	1393.9219	1410.269	1416.6762	1472.79	1491.8642	1503.7421	1644.9079	1789.4642	3044.0159	3063.7697	3110.7034	3119.0561	3133.9794	3293.7552	3556.168
CCN1N=COC1=N	CCN1N=CO[C@@H]1[NH]	
InChI=1S/C4H7N3O/c1-2-7-4(5)8-3-6-7/h3,5H,2H2,1H3	InChI=1S/C4H8N3O/c1-2-7-4(5)8-3-6-7/h3-5H,2H2,1H3/t4-/m1/s1
