16
gdb 49315	3.46115	1.23133	0.94488	3.4656	69.12	-0.2576	-0.0674	0.1902	1185.4635	0.124728	-475.026654	-475.018689	-475.017745	-475.059834	28.717	
O	-1.026431377	 1.3600817619	 0.2731343184	-0.242346
C	 0.1268707013	 1.0605062187	 0.426209231	 0.131074
C	 1.2962569216	 1.9228743671	 0.014990829	 0.281664
N	 2.4460878093	 1.4404513634	 0.2475381672	-0.280672
C	 3.6957711036	 2.1543851748	 0.0740099409	-0.160073
C	 3.8561823102	 3.0167439251	-1.1751010004	-0.102779
O	 2.9431747635	 4.1037461912	-1.2031329432	-0.211504
C	 1.6543526941	 3.7336556346	-1.5406630214	 0.008602
O	 0.9062929703	 3.1151730084	-0.4944258377	-0.243809
H	 0.4608981939	 0.1125575522	 0.891220654	 0.103767
H	 3.8314059913	 2.7987461315	 0.9547933573	 0.137346
H	 4.5091138035	 1.4196886393	 0.0935657015	 0.117613
H	 4.8584358489	 3.4549108279	-1.1864626337	 0.121556
H	 3.7357868927	 2.4026958214	-2.0812869617	 0.10363
H	 1.0984261363	 4.6435446939	-1.7676586064	 0.136227
H	 1.6571229964	 3.0489667687	-2.4040916547	 0.099704
70.188	104.1394	179.4542	206.2679	275.0111	346.3481	401.4843	446.0893	534.7358	595.8087	634.3731	765.4164	781.7382	876.2148	897.5765	1007.0517	1025.686	1040.2207	1080.3997	1103.5029	1138.6813	1190.5134	1255.5799	1274.2219	1310.3992	1341.6227	1375.3804	1385.1699	1405.6715	1454.4597	1467.7379	1485.8648	1505.7875	1731.0286	1831.2294	2953.9852	2976.1083	2990.3439	3013.4039	3062.2255	3092.0205	3136.3085
O=CC1=NCCOCO1	O=CC1=NCCOCO1	
InChI=1S/C5H7NO3/c7-3-5-6-1-2-8-4-9-5/h3H,1-2,4H2	InChI=1S/C5H7NO3/c7-3-5-6-1-2-8-4-9-5/h3H,1-2,4H2
