21
gdb 80474	2.05153	1.67864	1.56174	3.0307	77.15	-0.2185	0.0533	0.2717	1038.3991	0.183996	-424.222315	-424.213895	-424.212951	-424.254759	33.96	
C	-0.8581227581	 1.19956231	 0.0574996413	-0.394115
C	 0.0078632063	-0.0631820125	-0.0125596513	 0.007836
C	 0.7633264907	-0.256013704	-1.3285803046	-0.117599
C	 2.0349825748	 0.5118833383	-1.6034302719	 0.134078
O	 2.438817033	 1.6930465766	-0.9934643304	-0.441951
C	 2.1259175646	-0.8759694278	-1.0109055572	-0.116586
C	 2.210184451	-1.0429954314	 0.502396967	-0.251013
C	 1.067056542	-0.1971621451	 1.1118001591	 0.047457
O	 1.5073853769	 1.1164422555	 1.5022837454	-0.420308
H	-0.2582302145	 2.0976866973	-0.1001165024	 0.139162
H	-1.6279770359	 1.1673307852	-0.719896588	 0.109278
H	-1.3605699816	 1.2884048282	 1.0259586271	 0.109047
H	-0.6509429563	-0.9351924719	 0.0982399458	 0.078709
H	 0.1735367536	-0.5868509162	-2.1785657966	 0.075852
H	 2.2998026834	 0.5542776339	-2.6564784502	 0.096703
H	 2.1858645584	 1.6721238636	-0.0547495724	 0.294384
H	 2.5485996646	-1.6701181812	-1.618535618	 0.077687
H	 2.0605372213	-2.0985148931	 0.7573546993	 0.105569
H	 3.1807378858	-0.7508879517	 0.9238125441	 0.094744
H	 0.6353924754	-0.6794323633	 1.9973012574	 0.078881
H	 2.1995094948	 1.0115113796	 2.1633310764	 0.292186
107.5854	163.9274	231.5021	248.0223	292.2011	323.6059	348.24	408.8546	488.0211	517.854	595.1717	664.5733	693.095	730.0341	746.9572	769.1449	807.4645	882.1657	901.3391	968.8898	989.0724	1030.5191	1048.5317	1061.2893	1063.5259	1083.3293	1113.949	1133.9339	1163.5807	1205.5132	1223.8153	1241.638	1284.0145	1322.3064	1333.8761	1337.8091	1365.0174	1370.9104	1406.2487	1420.1492	1422.632	1480.8987	1493.8479	1503.6767	1508.4842	3004.4776	3018.8314	3030.9611	3042.1678	3062.8579	3103.0868	3136.7799	3139.3216	3142.9725	3157.5778	3609.6979	3818.9982
CC1C2C(O)C2CC1O	C[C@H]1[C@H]2[C@@H](O)[C@H]2C[C@H]1O	
InChI=1S/C7H12O2/c1-3-5(8)2-4-6(3)7(4)9/h3-9H,2H2,1H3	InChI=1S/C7H12O2/c1-3-5(8)2-4-6(3)7(4)9/h3-9H,2H2,1H3/t3-,4+,5-,6-,7+/m1/s1
