18
gdb 68253	2.39513	1.51938	1.45154	1.7908	78.83	-0.2433	0.0301	0.2734	1031.7091	0.145529	-401.832055	-401.823237	-401.822293	-401.864948	34.226	
C	-0.1146106625	 1.5155968775	-0.0104260247	-0.486193
C	 0.0363437622	-0.0054074117	 0.0552033351	 0.14176
C	-1.2420173525	-0.6013764811	-0.3161575021	 0.278776
C	-2.3291699778	-1.014254279	-0.6222826557	-0.434259
N	 1.2714612838	-0.6339559425	-0.6901042147	-0.167974
C	 2.1196079161	-0.1284448178	 0.4872563974	-0.250518
C	 0.8575877408	-0.6952773579	 1.1835273021	 0.318336
O	 0.4763518496	-0.6764177756	 2.5114556994	-0.463832
C	 1.0271602141	-1.8732996608	 0.1902158446	-0.252154
H	-0.2997981858	 1.8184280634	-1.0448420738	 0.140697
H	-0.9799820098	 1.8131795777	 0.5872504803	 0.14167
H	 0.7524303993	 2.0610133412	 0.3611026775	 0.122431
H	-3.2834021876	-1.3954944093	-0.8909274276	 0.193196
H	 3.0473637549	-0.6937030457	 0.6014989952	 0.100305
H	 2.3174193554	 0.9411057787	 0.488791979	 0.108152
H	 1.0925120526	-1.2134845707	 3.0219303625	 0.285018
H	 0.1492004911	-2.4525089432	-0.0915553721	 0.128954
H	 1.9180451762	-2.4974198231	 0.2904754275	 0.095638
121.5907	137.5774	178.045	192.9822	218.1575	334.9931	366.8149	386.7724	500.3427	521.8566	563.4268	620.2269	630.8203	649.384	658.8331	686.4923	748.4484	816.3571	889.1027	939.0423	961.2775	980.1572	1060.8191	1072.1858	1088.2398	1109.4351	1155.2921	1183.2686	1190.1202	1233.9722	1242.0187	1291.5119	1357.223	1408.8181	1483.9214	1488.4258	1517.8436	1558.1401	2227.6125	3057.5048	3071.6465	3082.3979	3124.2455	3142.4177	3158.5851	3165.3833	3500.9832	3805.3356
CC1(C#C)N2CC1(O)C2	C[C@@]1(C#C)N2C[C@]1(O)C2	
InChI=1S/C7H9NO/c1-3-6(2)7(9)4-8(6)5-7/h1,9H,4-5H2,2H3	InChI=1S/C7H9NO/c1-3-6(2)7(9)4-8(6)5-7/h1,9H,4-5H2,2H3/t6-/m0/s1
