19
gdb 95150	2.74212	1.79109	1.51017	0.8173	74.77	-0.2279	0.007	0.235	960.3013	0.161136	-423.026372	-423.019092	-423.018148	-423.057641	29.722	
C	-0.042967704	 1.5338184287	-0.0619459285	-0.41035
C	 0.0075947409	 0.0177049126	 0.0327018071	 0.143098
O	 0.6281534239	-0.4552533126	-1.1666070742	-0.273579
C	 0.9446759159	-1.8418788762	-1.174485333	-0.075537
C	 1.629231438	-2.2509931316	 0.1426418034	 0.009665
O	 0.6833801002	-1.9547353285	 1.1782484267	-0.264113
C	 0.7739474614	-0.5262980864	 1.2625014437	-0.00341
C	 2.2713046924	-0.2783684996	 1.1305020253	-0.071125
C	 2.781451423	-1.3079160368	 0.4630267901	-0.072828
H	 0.9656484779	 1.9531998315	-0.1180178807	 0.124183
H	-0.5855224155	 1.8356174119	-0.9616136109	 0.129387
H	-0.553779863	 1.9572090808	 0.8087530121	 0.113641
H	-1.0130316389	-0.3929337577	 0.1013640844	 0.072245
H	 0.0350270525	-2.4511608449	-1.2919705856	 0.0961
H	 1.5914903298	-2.0011779132	-2.0437050216	 0.104364
H	 1.8627326472	-3.3191381393	 0.1648622014	 0.08163
H	 0.3150392518	-0.1963804498	 2.1988962513	 0.08087
H	 2.7791126327	 0.6169132998	 1.4620789409	 0.10883
H	 3.7981596438	-1.4428892486	 0.1190854479	 0.10693
151.2998	215.5639	261.1868	284.5111	345.4096	407.3348	432.2808	502.0172	625.3992	656.1721	729.1277	793.6327	829.9644	842.8542	860.6763	898.4499	919.8221	939.9894	947.97	999.0781	1029.727	1046.5683	1082.6581	1102.8106	1126.5829	1137.5689	1163.8863	1250.4447	1275.8071	1292.5802	1297.6585	1313.9435	1350.6483	1368.822	1376.221	1404.2605	1409.276	1482.4018	1485.5001	1502.623	1667.3171	2971.0982	2986.6613	3043.1752	3072.8792	3074.2129	3078.6337	3116.4204	3122.9366	3214.544	3239.963
CC1OCC2OC1C=C2	C[C@H]1OC[C@@H]2O[C@H]1C=C2	
InChI=1S/C7H10O2/c1-5-7-3-2-6(9-7)4-8-5/h2-3,5-7H,4H2,1H3	InChI=1S/C7H10O2/c1-5-7-3-2-6(9-7)4-8-5/h2-3,5-7H,4H2,1H3/t5-,6-,7+/m1/s1
