15
gdb 45077	2.43269	1.77414	1.17081	6.2889	68.98	-0.2621	-0.0005	0.2616	1013.268	0.114576	-416.846598	-416.839205	-416.83826	-416.878792	28.054	
O	-0.052959526	-0.0040176424	 0.1996802588	-0.346003
C	-0.0391601148	 1.1920891561	 0.0647051248	 0.401155
N	-1.1172569089	 2.0216176171	-0.0970897257	-0.30938
C	-0.8172611356	 3.4229782715	-0.0460473755	-0.008626
C	-0.2018374193	 3.944052793	 1.2293836905	-0.301378
C	 0.6826327452	 3.5308277976	 0.0732619249	-0.047258
C	 1.2321755725	 2.1083745663	 0.0434279419	-0.299486
C	 2.1450128041	 1.7846664545	 1.1348192146	 0.306091
N	 2.8685351134	 1.559179625	 2.0067083971	-0.324192
H	-2.0437166151	 1.6530657065	 0.0562330077	 0.264364
H	-1.3911985121	 4.0639223102	-0.7044847246	 0.117533
H	-0.2676679464	 5.0078182748	 1.4285846133	 0.131374
H	-0.2435915003	 3.3106414182	 2.1094403857	 0.142013
H	 1.2262235295	 4.2963783071	-0.4640906562	 0.117922
H	 1.7501314139	 1.9164070647	-0.9036892172	 0.155868
78.9612	141.469	167.7253	334.1759	409.9267	439.1864	475.9877	509.4195	556.6129	635.8079	696.3508	714.578	789.0157	830.2615	858.9113	948.1653	958.9701	1029.3573	1043.2545	1068.0475	1089.0094	1093.4151	1135.7547	1204.7048	1228.0149	1253.8806	1312.642	1359.0879	1388.0678	1420.607	1481.1565	1851.0906	2364.8596	3050.5605	3135.6384	3181.5722	3199.6305	3228.329	3628.941
O=C1NC2CC2C1C#N	O=C1N[C@H]2C[C@H]2[C@H]1C#N	
InChI=1S/C6H6N2O/c7-2-4-3-1-5(3)8-6(4)9/h3-5H,1H2,(H,8,9)	InChI=1S/C6H6N2O/c7-2-4-3-1-5(3)8-6(4)9/h3-5H,1H2,(H,8,9)/t3-,4+,5-/m0/s1
