18
gdb 54791	3.61775	1.23091	1.11877	2.4794	72.29	-0.2405	0.0205	0.261	1121.4386	0.149302	-439.092248	-439.084287	-439.083343	-439.12556	30.449	
N	-0.0886556796	 1.3373835286	-0.3796579498	-0.528494
C	 0.0586485365	 0.0795530184	 0.1356387201	 0.386633
O	 1.1435878143	-0.3342078768	 0.5055132954	-0.365288
C	-1.2351183671	-0.7118810789	 0.1789675838	-0.107982
C	-1.1145491053	-2.2737169041	 0.2403346442	-0.070268
C	-0.8563763531	-2.119314639	 1.7732526324	-0.243992
C	-1.8846399244	-0.9868283918	 1.5826906764	 0.095254
O	-3.0917501563	-1.6709944302	 1.2237188853	-0.281181
C	-2.602716311	-2.6381178575	 0.2579814614	-0.093257
H	 0.7127557603	 1.9469212854	-0.3689973197	 0.260569
H	-0.9859586297	 1.7223614063	-0.6156347177	 0.259883
H	-1.949681548	-0.3185094138	-0.5506732348	 0.071452
H	-0.4481096329	-2.8270050357	-0.4184862888	 0.08525
H	-1.1547402689	-2.9408971946	 2.4288910829	 0.09338
H	 0.151219729	-1.7688242349	 1.9798333782	 0.149042
H	-2.1032508449	-0.2080169517	 2.3117747905	 0.08412
H	-3.1105226746	-2.4924851369	-0.7023273145	 0.099952
H	-2.7947425143	-3.656559603	 0.6145093148	 0.104929
30.7762	167.0647	173.3673	213.1491	346.0839	371.336	401.0763	498.8895	568.8434	640.1421	654.6725	733.3275	833.3559	854.4011	893.3078	906.6118	934.1523	942.8998	958.7773	995.5794	1025.1724	1048.9675	1075.5669	1091.0966	1106.058	1135.9326	1172.979	1214.1684	1230.7732	1247.4952	1260.2472	1280.5635	1304.6262	1364.5663	1412.6526	1487.7919	1527.2976	1615.7019	1780.7545	3026.1816	3057.2909	3068.0448	3077.4982	3135.6966	3142.1883	3185.4558	3602.8339	3740.4816
NC(=O)C1C2CC1OC2	NC(=O)[C@H]1[C@H]2C[C@@H]1OC2	
InChI=1S/C6H9NO2/c7-6(8)5-3-1-4(5)9-2-3/h3-5H,1-2H2,(H2,7,8)	InChI=1S/C6H9NO2/c7-6(8)5-3-1-4(5)9-2-3/h3-5H,1-2H2,(H2,7,8)/t3-,4-,5-/m0/s1
