21
gdb 81777	2.12701	1.69464	1.28843	2.279	77.94	-0.2224	0.0618	0.2842	1100.6269	0.18006	-424.200922	-424.191299	-424.190355	-424.234231	37.708	
C	-0.4178527914	 1.5624043881	 0.3591629914	-0.415679
C	-0.1166783348	 0.0753112313	 0.2020222608	-0.019723
C	 0.2514485754	-0.4660954231	-1.1890542214	-0.167539
C	 1.59742404	 0.0767494051	-1.6354631678	-0.345733
C	 1.5734395144	-1.0233722711	-0.6385832422	 0.432643
O	 2.247155595	-2.2028839542	-0.8577485185	-0.470449
C	 1.2257217424	-0.5406114138	 0.7742346261	 0.297465
C	 2.2127297236	 0.3401052117	 1.523972204	-0.467377
O	 0.9667071743	-1.7395603091	 1.5085878495	-0.495843
H	 0.3592933161	 2.1928960981	-0.0837594875	 0.114899
H	-1.3626841232	 1.8143360374	-0.1344963921	 0.117506
H	-0.5125037249	 1.8437839253	 1.4141097333	 0.108207
H	-0.9354967237	-0.5139463617	 0.6263349858	 0.073398
H	-0.4440182457	-0.8919871925	-1.9020673295	 0.085176
H	 1.8979638403	-0.2530883561	-2.6252764245	 0.122102
H	 1.9265286937	 1.0843196814	-1.3901350975	 0.100075
H	 1.9285690241	-2.8153488341	-0.1812154167	 0.293969
H	 2.4667605483	 1.2389288472	 0.9562327192	 0.122587
H	 1.7965888237	 0.6673175797	 2.485630868	 0.104729
H	 3.1341771651	-0.2159892284	 1.7207932352	 0.130301
H	 0.7178952574	-1.5013071412	 2.4072074043	 0.279285
130.8433	197.0775	209.0739	213.7713	228.2877	233.9529	252.547	300.0056	386.3927	415.1029	440.2029	475.8342	504.119	561.7236	619.3195	664.4895	769.8644	826.1057	862.069	919.263	953.6256	958.817	988.7942	998.7774	1036.9299	1065.5701	1097.5966	1113.5104	1113.5842	1173.2678	1189.4244	1195.3037	1260.3275	1275.4544	1323.4624	1352.1628	1401.5269	1403.6116	1411.1907	1441.3376	1483.6896	1489.6656	1498.0178	1500.8437	1516.2805	3023.1378	3029.1625	3054.7719	3089.7964	3093.1406	3100.6875	3104.9453	3122.6772	3182.2087	3197.046	3766.4383	3820.4824
CC1C2CC2(O)C1(C)O	C[C@H]1[C@H]2C[C@@]2(O)[C@]1(C)O	
InChI=1S/C7H12O2/c1-4-5-3-7(5,9)6(4,2)8/h4-5,8-9H,3H2,1-2H3	InChI=1S/C7H12O2/c1-4-5-3-7(5,9)6(4,2)8/h4-5,8-9H,3H2,1-2H3/t4-,5+,6+,7-/m0/s1
