15
gdb 18635	3.27505	2.0438	1.76526	4.1208	60.64	-0.2276	-0.0172	0.2104	786.9749	0.120028	-399.790043	-399.783206	-399.782262	-399.821243	26.207	
O	 0.0990511285	 1.3087158207	-0.1083253214	-0.424583
C	-0.0266510302	-0.0697525193	-0.0433021485	 0.126437
C	-0.473962308	-0.6872349848	 1.2310575864	-0.087148
N	-0.9772675552	 0.3190705867	 2.1685358115	-0.339192
C	-2.2836964005	 0.8079891138	 1.6879662854	-0.290992
C	-2.5822034862	 0.0861653879	 0.3622242093	 0.433348
O	-3.6186503618	 0.1719502419	-0.246391798	-0.327036
C	-1.4076223728	-0.7643310427	 0.0265569242	-0.234127
H	 0.1293556343	 1.6102693271	 0.8138676982	 0.298751
H	 0.6940818503	-0.6026252533	-0.6573060656	 0.11328
H	 0.0175566508	-1.5499848579	 1.6650104402	 0.104737
H	-1.0535978793	-0.0769182643	 3.0947612276	 0.238614
H	-3.092371145	 0.5956851089	 2.3949652442	 0.135541
H	-2.2764788619	 1.889270351	 1.5085095822	 0.139808
H	-1.565036163	-1.6476850455	-0.5783928257	 0.112562
89.7318	128.5909	246.1972	380.0005	438.7049	506.7507	598.3841	598.732	643.3992	669.4235	742.6998	779.4219	798.0476	866.7974	940.1042	958.7149	1010.0596	1017.0268	1053.0763	1082.1753	1122.2832	1180.5299	1211.4096	1214.0047	1280.3172	1304.5493	1344.8486	1376.9434	1409.2372	1465.103	1475.1408	1836.1683	3039.299	3081.1998	3146.9984	3179.7346	3203.7486	3585.4863	3680.9579
OC1C2NCC(=O)C12	O[C@H]1[C@H]2NCC(=O)[C@@H]12	
InChI=1S/C5H7NO2/c7-2-1-6-4-3(2)5(4)8/h3-6,8H,1H2	InChI=1S/C5H7NO2/c7-2-1-6-4-3(2)5(4)8/h3-6,8H,1H2/t3-,4+,5-/m1/s1
