14
gdb 17513	5.02321	1.78163	1.62536	2.9561	65.61	-0.2624	0.0051	0.2674	788.3729	0.109146	-341.528093	-341.522091	-341.521147	-341.558108	23.536	
N	-0.0068348357	-1.1897620739	-0.0321090043	-0.337969
C	 0.0047392882	-0.0329589756	-0.0210545817	 0.153376
C	 0.0309082023	 1.4032436391	 0.006002555	 0.174896
C	-0.5312961102	 2.2517597294	-1.1759085444	-0.279072
C	 0.4270070601	 3.3389835915	-0.6980117829	-0.038397
C	 1.294808139	 2.369963491	 0.0071324018	-0.086781
N	 0.5011406261	 3.3339914622	 0.8077818758	-0.140594
C	-0.4145478024	 2.232266332	 1.2346028818	-0.18118
H	-0.2171681116	 1.8517547339	-2.1419944064	 0.132793
H	-1.6087823778	 2.4407091797	-1.1754148499	 0.116213
H	 0.6942910334	 4.2660569525	-1.1854866936	 0.117031
H	 2.3608486317	 2.2072158543	 0.086704954	 0.120085
H	-1.4755177919	 2.4928556506	 1.3082665117	 0.115673
H	-0.0546672312	 1.8229583734	 2.1801203431	 0.133924
165.2524	168.6026	420.3227	436.0542	506.5516	547.1085	557.134	718.9095	745.0582	802.4952	857.3812	916.0047	936.0869	966.8907	980.6741	997.2973	1018.5541	1076.4058	1101.3353	1145.3625	1153.1952	1165.5682	1207.382	1245.6491	1270.1524	1307.8949	1338.0159	1491.4465	1513.8617	2349.3182	3050.7227	3060.7045	3125.7538	3128.9926	3211.6429	3225.9371
N#CC12CC3C1N3C2	N#C[C@]12C[C@@H]3[C@H]1N3C2	
InChI=1S/C6H6N2/c7-2-6-1-4-5(6)8(4)3-6/h4-5H,1,3H2	InChI=1S/C6H6N2/c7-2-6-1-4-5(6)8(4)3-6/h4-5H,1,3H2/t4-,5-,6+,8?/m1/s1
