20
gdb 70345	2.73182	1.86988	1.54603	0.3185	77.62	-0.2078	0.0883	0.2961	953.6805	0.172717	-403.088503	-403.081259	-403.080315	-403.119494	30.651	
C	-0.0379992036	 1.5022306679	-0.0334418848	-0.44809
C	-0.0253516427	-0.0077000047	 0.0235934194	 0.305698
C	-0.8175362446	-0.7069657418	 1.1038425205	-0.382078
C	 0.6996576623	-0.7462634131	 1.1266937963	 0.068269
O	 1.3897249742	-1.9203017802	 0.759624777	-0.272915
C	 1.4468436832	-2.1490340016	-0.6449154828	 0.118606
C	 1.6464121231	-0.8324293319	-1.4264919469	-0.201547
N	 0.1437332994	-0.6065253565	-1.3122609054	-0.173703
C	 0.0344619066	-2.1119085276	-1.264165117	-0.207708
H	 0.8483637223	 1.8860579235	-0.5503786059	 0.116666
H	-0.9194331866	 1.8524192416	-0.58003012	 0.126508
H	-0.0563911993	 1.9359427593	 0.970883814	 0.110445
H	-1.301430025	-0.0642480095	 1.8324776313	 0.109992
H	-1.3586935375	-1.6224771123	 0.9043836568	 0.121152
H	 1.2229456851	-0.21499119	 1.9160955175	 0.095172
H	 2.1129132425	-3.002575154	-0.7873496674	 0.075874
H	 2.2711701846	-0.0553582842	-0.9812062941	 0.111149
H	 1.9272091907	-0.9924388664	-2.4705733715	 0.106947
H	 0.0108718089	-2.4910078849	-2.2899565923	 0.109535
H	-0.8013658735	-2.5356937635	-0.7086043148	 0.110027
201.5462	216.4256	266.4759	324.8135	365.0853	455.2898	474.1691	489.2944	520.7393	594.0478	707.6972	783.6117	810.853	824.2351	852.4959	901.4506	921.867	936.3291	944.4357	962.4102	1004.9199	1023.1165	1036.1721	1063.1743	1091.6995	1108.7014	1134.4634	1142.8483	1178.5432	1219.7103	1236.1282	1249.7449	1278.4364	1298.5052	1311.8952	1353.1959	1404.4917	1420.55	1468.1109	1483.373	1493.8498	1498.7879	1527.0647	3032.0476	3059.8838	3065.0604	3091.7161	3096.8619	3109.6568	3126.0734	3132.2157	3140.959	3148.7181	3230.0905
CC12CC1OC1CN2C1	C[C@]12C[C@H]1O[C@@H]1CN2C1	
InChI=1S/C7H11NO/c1-7-2-6(7)9-5-3-8(7)4-5/h5-6H,2-4H2,1H3	InChI=1S/C7H11NO/c1-7-2-6(7)9-5-3-8(7)4-5/h5-6H,2-4H2,1H3/t6-,7+/m1/s1
