22
gdb 78515	2.36896	1.7811	1.18859	1.512	87.68	-0.2198	0.0974	0.3172	1139.2279	0.192569	-367.135792	-367.126617	-367.125673	-367.168925	35.769	
C	-0.3597501774	 1.5663879803	-0.0930492739	-0.43939
C	-0.0716258333	 0.0782785214	-0.1611477125	 0.072212
C	 0.8018392977	-0.5786041731	-1.2298912015	-0.176232
C	 2.1038778097	-0.2167296847	-0.4336846684	 0.368307
C	 3.0052188638	 0.9858739425	-0.4701320153	-0.524905
C	 2.588750041	-1.6699191108	-0.3825591027	-0.343893
C	 1.073656961	-1.7514139629	-0.2262489527	 0.383832
C	 0.2328924936	-2.9593566586	 0.0668492965	-0.520024
N	 1.0591436739	-0.4921697725	 0.704608455	-0.239321
H	 0.4898066245	 2.189116499	-0.3757351566	 0.119324
H	-1.190347826	 1.8158128606	-0.762968519	 0.115233
H	-0.6582170053	 1.8427389678	 0.9240788233	 0.126587
H	-1.0033068321	-0.4635816316	 0.046252477	 0.064682
H	 0.6746861955	-0.6444017046	-2.3179542598	 0.052643
H	 2.4690954344	 1.9360081889	-0.4871804878	 0.127579
H	 3.6586174529	 0.9819578469	 0.4090766373	 0.130668
H	 3.6426191428	 0.9424575351	-1.3606863056	 0.121372
H	 3.0147945766	-2.0806265557	-1.3030174562	 0.088302
H	 3.180857425	-1.9470775227	 0.4959397916	 0.096723
H	 0.5549095925	-3.4269635175	 1.0030128337	 0.13064
H	-0.8284908018	-2.7096402134	 0.1607793725	 0.124187
H	 0.3359845911	-3.6978774043	-0.7356099652	 0.121471
121.451	166.0249	186.9957	199.0275	220.798	243.2572	272.039	348.3621	385.5089	449.9423	535.8134	582.7871	653.675	674.4218	746.6418	818.9149	838.8939	843.7891	853.4644	932.1475	1004.7666	1011.0306	1028.1148	1043.3997	1078.8405	1089.4997	1115.3287	1142.6886	1149.423	1158.1025	1182.0578	1230.1287	1265.0064	1273.2048	1287.8284	1358.4546	1400.4955	1407.6826	1414.716	1427.335	1478.3007	1481.8454	1483.7046	1488.2771	1497.5665	1500.9907	1501.0552	3014.1062	3021.2343	3032.9199	3034.7823	3038.6803	3041.8052	3094.6732	3095.245	3099.878	3102.4324	3105.8341	3125.5098	3147.3242
CC1C2C3(C)CC2(C)N13	C[C@H]1[C@H]2[C@]3(C)C[C@@]2(C)N13	
InChI=1S/C8H13N/c1-5-6-7(2)4-8(6,3)9(5)7/h5-6H,4H2,1-3H3	InChI=1S/C8H13N/c1-5-6-7(2)4-8(6,3)9(5)7/h5-6H,4H2,1-3H3/t5-,6-,7-,8+/m0/s1
