17
gdb 86874	3.29994	1.06015	0.8748	0.8251	69.14	-0.2602	-0.0421	0.2181	1279.3439	0.134264	-458.997486	-458.988728	-458.987784	-459.032191	31.562	
O	 0.4168001194	 0.7772899978	 0.8179068077	-0.438075
C	-0.1917735289	-0.1769139557	-0.0001203301	 0.060232
C	-1.6198039572	 0.1588537622	-0.441655101	-0.27072
C	-1.855341281	-0.7090543551	-1.7258998674	-0.091352
C	-0.4478974315	-0.8922681949	-2.361032992	-0.365085
C	 0.5333781631	-0.3440158578	-1.333017697	 0.378941
O	 1.6747955762	 0.0012953577	-1.5078541271	-0.321549
C	-2.4785144475	-2.0411137837	-1.3600364356	 0.163258
O	-3.6098569299	-2.3594461084	-1.6130497223	-0.244664
H	 1.3116078043	 0.8962632119	 0.4635127616	 0.293828
H	-0.1908678	-1.1726529842	 0.4857023449	 0.096135
H	-2.3677351612	-0.0248746048	 0.3326813363	 0.129499
H	-1.663882373	 1.22143156	-0.7014587377	 0.129103
H	-2.550828786	-0.2104090678	-2.4028311493	 0.109442
H	-0.209525894	-1.9421949367	-2.5727411887	 0.143529
H	-0.3343443466	-0.3524271069	-3.3041016062	 0.152705
H	-1.7983557664	-2.7368196835	-0.8102962659	 0.074773
40.9516	57.002	115.1136	255.2974	287.8945	302.1026	350.2977	392.1581	416.9016	477.72	595.7396	608.4588	707.1504	743.6357	839.7637	908.4879	947.4333	964.0448	995.9923	1023.4143	1091.4254	1107.5709	1180.5021	1185.7554	1199.0315	1225.4811	1263.5256	1284.166	1314.8362	1322.2899	1378.4182	1419.0239	1432.0574	1441.5266	1498.6947	1838.1739	1843.3771	2834.1311	2913.5904	3040.2457	3059.7928	3098.9417	3111.4657	3114.7981	3706.7772
OC1CC(CC1=O)C=O	O[C@H]1C[C@@H](CC1=O)C=O	
InChI=1S/C6H8O3/c7-3-4-1-5(8)6(9)2-4/h3-5,8H,1-2H2	InChI=1S/C6H8O3/c7-3-4-1-5(8)6(9)2-4/h3-5,8H,1-2H2/t4-,5-/m0/s1
