16
gdb 19033	4.01535	2.15679	1.82988	3.383	67.56	-0.2308	-0.008	0.2228	758.6809	0.132887	-346.606957	-346.601065	-346.600121	-346.636804	24.194	
O	 0.0107780274	 0.0028992117	-0.1530322997	-0.332752
C	-0.0223191799	 1.1989820373	-0.0042142174	 0.407167
C	-1.2859518999	 2.0712589118	 0.0950457134	-0.324274
C	-0.7469920604	 3.4338115595	 0.5336860255	-0.054575
C	-0.0606554908	 3.322173324	 1.9359980578	-0.239605
C	 1.2694289891	 3.1257618436	 1.2150940192	-0.055058
C	 0.6805141147	 3.5563192483	-0.0995126916	-0.088266
C	 1.1516903847	 2.1282090448	 0.0455494266	-0.147104
H	-1.740581018	 2.1194664812	-0.9028136046	 0.125877
H	-2.0201948364	 1.631025473	 0.7752934573	 0.123673
H	-1.4341185255	 4.2672252051	 0.3986228221	 0.07891
H	-0.0761140784	 4.2772222527	 2.4673059736	 0.108051
H	-0.4160937292	 2.532422772	 2.6072427166	 0.100362
H	 2.2568150922	 3.321084986	 1.6161710091	 0.096895
H	 1.0328113859	 4.2517102429	-0.8491602475	 0.096287
H	 2.0917803246	 1.8011015859	-0.3808136904	 0.104411
125.9321	315.7966	375.1657	446.6891	563.4941	599.5726	648.1687	734.7402	761.6978	803.9604	845.1878	864.2496	876.2201	934.2157	958.9761	983.1172	1010.0521	1030.1968	1049.2928	1066.0818	1083.0213	1125.6678	1157.5461	1183.3697	1212.49	1235.2049	1256.3201	1301.1646	1303.6206	1331.8358	1370.5995	1452.4168	1498.4913	1835.1791	3035.6516	3039.1236	3098.068	3101.534	3126.4673	3180.9669	3198.6701	3210.4343
O=C1CC2CC3C2C13	O=C1C[C@H]2C[C@@H]3[C@H]2[C@H]13	
InChI=1S/C7H8O/c8-5-2-3-1-4-6(3)7(4)5/h3-4,6-7H,1-2H2	InChI=1S/C7H8O/c8-5-2-3-1-4-6(3)7(4)5/h3-4,6-7H,1-2H2/t3-,4-,6+,7+/m1/s1
