15
gdb 44019	4.72117	1.58169	1.38356	2.717	68.69	-0.2426	-0.0073	0.2353	892.6733	0.114722	-416.704629	-416.698686	-416.697742	-416.734677	24.988	
O	-0.0434198277	-0.014424577	 0.0547001247	-0.336788
C	 0.0137583779	 1.1783519423	-0.0588723004	 0.399566
N	-1.0969528391	 2.0638809704	-0.2586529729	-0.464287
C	-0.4133091777	 3.333531313	-0.0843674777	 0.294573
C	-0.3393010837	 4.862410377	-0.0673189259	-0.253948
N	 1.1564462804	 4.4643115969	 0.0604758206	-0.18478
C	 0.7459161199	 3.2618870219	 0.9364794848	-0.021096
C	 1.2611481469	 2.1153371149	 0.0277150398	-0.220467
C	 0.8850616891	 3.284618059	-0.8991773512	 0.008156
H	-1.9298673134	 1.8280769675	 0.266218966	 0.247809
H	-0.565171492	 5.4031984575	-0.9904309675	 0.122056
H	-0.7273780721	 5.3893853095	 0.8086534168	 0.117364
H	 0.7124753562	 3.3317365087	 2.0239678116	 0.095899
H	 2.2317951885	 1.6292792326	 0.0961586732	 0.097555
H	 0.9947090468	 3.3857589657	-1.9787808419	 0.098387
169.2693	353.7038	407.125	441.1223	473.5583	552.1938	635.6259	711.169	740.7178	795.577	813.5133	825.8911	859.8911	868.1405	889.023	920.6789	954.3158	977.9172	1032.7606	1088.2824	1089.5407	1106.2266	1150.1921	1172.0156	1187.6089	1200.104	1213.7882	1247.0744	1299.2201	1303.585	1345.162	1515.2174	1869.8046	3055.477	3115.8618	3121.5408	3123.6936	3152.1388	3578.5349
O=C1NC23CN4C2C1C34	O=C1N[C@@]23CN4[C@@H]2[C@@H]1[C@@H]34	
InChI=1S/C6H6N2O/c9-5-2-3-6(7-5)1-8(3)4(2)6/h2-4H,1H2,(H,7,9)	InChI=1S/C6H6N2O/c9-5-2-3-6(7-5)1-8(3)4(2)6/h2-4H,1H2,(H,7,9)/t2-,3-,4+,6+
