17
gdb 15811	5.77803	1.02941	0.93429	2.1398	66.6	-0.2637	0.0163	0.28	1258.0173	0.141082	-400.984661	-400.976131	-400.975187	-401.01842	29.878	
C	-0.1646378	 1.471120193	 0.3558966428	-0.390406
C	-0.0321644282	-0.0090096833	 0.0527819732	-0.033926
O	 0.7287972617	-0.6035137983	 1.1187774502	-0.250387
C	 0.963019906	-1.9226907767	 1.0225227236	 0.388876
N	 0.5526020445	-2.638218413	 0.0606923505	-0.540667
C	 1.7531150356	-2.3899364994	 2.209534187	-0.014399
C	 1.1898315722	-3.4024429382	 3.1200506903	-0.165158
O	 2.1872446193	-3.7434110275	 2.1583290905	-0.223065
H	 0.817977617	 1.9480675351	 0.4134696888	 0.12785
H	-0.7397011109	 1.9614717759	-0.4351369378	 0.122409
H	-0.6807412759	 1.6312769146	 1.3068513169	 0.127067
H	-1.0056136956	-0.5066810332	-0.0087064153	 0.121143
H	 0.483939901	-0.1926210715	-0.8951882233	 0.123778
H	 0.8806156777	-3.5947378453	 0.1993888818	 0.235439
H	 2.4741332613	-1.676102783	 2.6036379466	 0.115282
H	 1.5112392541	-3.427545981	 4.1596923413	 0.127431
H	 0.1954005903	-3.7954815682	 2.917761873	 0.128732
59.5523	97.2142	127.5657	153.9335	244.5181	286.9686	303.3547	362.895	439.2947	660.2638	715.2362	807.8337	843.0881	870.6391	901.5471	907.6011	946.5484	1030.4653	1057.6538	1094.6747	1127.4127	1137.7406	1162.3928	1166.8888	1183.1543	1266.2926	1288.8685	1339.2086	1389.5547	1416.0229	1463.023	1485.7159	1496.7415	1519.0264	1521.5018	1730.8813	3045.6106	3048.7972	3085.248	3091.6643	3120.3505	3124.0891	3134.7048	3186.4223	3485.6037
CCOC(=N)C1CO1	CCO[C]([NH])[C@H]1CO1	
InChI=1S/C5H9NO2/c1-2-7-5(6)4-3-8-4/h4,6H,2-3H2,1H3	InChI=1S/C5H9NO2/c1-2-7-5(6)4-3-8-4/h4,6H,2-3H2,1H3/t4-/m1/s1
