18
gdb 75913	2.79363	1.43755	1.13109	3.7961	71.75	-0.2432	0.0278	0.271	1104.3994	0.147949	-439.112435	-439.103997	-439.103053	-439.145934	31.589	
C	-0.1692333617	 1.5309951787	-0.0791955695	-0.400527
C	-0.0065235142	 0.0091771352	 0.044914753	-0.212629
C	 0.7938109224	-0.5312678423	-1.1513197237	 0.424942
O	 0.4707797428	-0.4782301976	-2.3173633965	-0.387577
N	 1.9593249333	-1.0593742246	-0.6634956161	-0.325488
C	 2.1761655617	-0.8924541034	 0.760661581	-0.234177
C	 0.7894156389	-0.4687869737	 1.2540544975	 0.411424
C	 0.5299754021	-0.0940671921	 2.6445562096	-0.24562
O	 0.1414430887	-1.3789830593	 2.1481775177	-0.266484
H	 0.7976048846	 2.0425907005	-0.0227985155	 0.117686
H	-0.6214357635	 1.7707527814	-1.044756165	 0.147504
H	-0.8088083404	 1.9262696782	 0.714845498	 0.118172
H	-0.9914939479	-0.4662644423	 0.0504611508	 0.122628
H	 2.6711604734	-1.3825844409	-1.2994636572	 0.253502
H	 2.4761393796	-1.8240830646	 1.2509102252	 0.130741
H	 2.936334809	-0.1271917129	 0.9726845902	 0.112855
H	 1.3455857319	-0.0983051789	 3.3679918847	 0.113997
H	-0.2880257007	 0.5851252987	 2.8799872156	 0.119052
41.8316	137.4947	209.2284	226.4709	242.7817	294.7087	353.0066	469.1324	488.2828	511.6439	542.3339	689.5613	721.2559	770.5124	820.4908	831.2365	899.5809	967.7127	1008.7271	1045.0822	1075.2837	1085.0465	1116.1186	1128.4442	1165.1525	1214.9042	1226.7054	1253.4913	1272.5195	1321.2071	1341.6756	1403.8139	1424.4259	1453.4447	1495.8191	1499.8748	1524.0474	1535.3371	1830.9396	2999.6892	3038.6191	3071.8693	3076.1706	3077.5783	3108.918	3126.9273	3162.5695	3640.3481
CC1C(=O)NCC11CO1	C[C@H]1C(=O)NC[C@]21CO2	
InChI=1S/C6H9NO2/c1-4-5(8)7-2-6(4)3-9-6/h4H,2-3H2,1H3,(H,7,8)	InChI=1S/C6H9NO2/c1-4-5(8)7-2-6(4)3-9-6/h4H,2-3H2,1H3,(H,7,8)/t4-,6+/m0/s1
