15
gdb 21279	6.98535	1.35918	1.15435	2.6809	64.36	-0.2246	0.0135	0.2381	1017.8932	0.120156	-395.999866	-395.992138	-395.991193	-396.032311	26.641	
C	-0.036930739	 1.3444537191	-0.0545494162	-0.229828
O	-0.0891079469	-0.0645720405	-0.2666265008	-0.250211
C	-1.2812500278	-0.6353023391	-0.0828833184	 0.463184
N	-1.4244271865	-1.9422115114	-0.2593600245	-0.357926
N	-2.7478307566	-2.1099469457	 0.0193937131	 0.061426
C	-3.3481237843	-3.4220472788	-0.0509355064	-0.317044
C	-3.3024450645	-0.9304131921	 0.336831751	 0.003913
N	-2.4024447915	 0.0400564732	 0.284374089	-0.365786
H	 0.9965639374	 1.6330392934	-0.2500064407	 0.130198
H	-0.7111547402	 1.8715920555	-0.736506952	 0.134209
H	-0.3114386881	 1.5993280094	 0.9737071755	 0.134066
H	-4.4058099155	-3.3380574764	 0.2057513165	 0.141099
H	-3.2498253756	-3.827732298	-1.0611662804	 0.155464
H	-2.8559221925	-4.0997907165	 0.6513961925	 0.15542
H	-4.3453490184	-0.8207562623	 0.5951801217	 0.141816
82.615	118.459	150.1512	193.2928	222.6276	343.2226	357.5905	528.1895	636.7658	674.4298	758.2254	771.8488	837.9218	1009.2372	1030.1772	1081.5736	1124.9252	1154.2464	1182.5782	1204.3442	1237.5694	1329.6322	1361.3346	1444.8578	1453.3102	1470.5892	1470.8593	1481.446	1501.0191	1522.1119	1542.625	1606.2696	3037.3531	3051.3731	3105.8612	3120.5118	3144.8574	3146.8088	3251.7559
COC1=NN(C)C=N1	COc1nn(C)cn1	
InChI=1S/C4H7N3O/c1-7-3-5-4(6-7)8-2/h3H,1-2H3	InChI=1S/C4H7N3O/c1-7-3-5-4(6-7)8-2/h3H,1-2H3
