16
gdb 125911	3.82052	1.28826	1.02883	3.9296	72.47	-0.2202	0.0092	0.2294	1137.2844	0.12557	-434.033138	-434.025444	-434.0245	-434.065481	28.964	
C	-0.3083274857	 1.6240914083	-0.1587732295	-0.400182
C	 0.0030842167	 0.1486787235	-0.0072650207	 0.054966
C	 0.7026525161	-0.5974443859	-1.2196000862	-0.41012
C	 1.8693365151	-0.8148406727	-0.2654310842	 0.255006
C	 3.0619197186	-1.2088619011	 0.3054013936	 0.203376
O	 4.0926600099	-1.8980289977	-0.2200166577	-0.426026
N	 3.0656683308	-0.7675665297	 1.592533144	-0.278999
N	 1.9408024937	-0.1218313162	 1.8767886377	-0.201811
N	 1.2541146264	-0.1669892761	 0.7400875627	 0.094138
H	 0.5489936395	 2.1645676314	-0.5702340953	 0.136817
H	-1.1612401132	 1.7564910076	-0.8317379355	 0.132123
H	-0.5646379272	 2.0670348007	 0.8077806415	 0.147079
H	-0.846799629	-0.4027184321	 0.4037268077	 0.118637
H	 0.1880855262	-1.4995459235	-1.5569089121	 0.135352
H	 0.9055139047	 0.0482607144	-2.0772631142	 0.132837
H	 4.7493536675	-1.9849729508	 0.4830460681	 0.306806
76.3629	167.5678	219.5904	268.359	316.4278	360.0066	389.7075	442.6401	536.1543	650.7668	682.7892	703.4457	712.0213	770.6255	883.9206	916.7615	1009.776	1067.3189	1090.1346	1100.0596	1128.6861	1182.6526	1196.2611	1217.8873	1250.6837	1306.1015	1313.7629	1364.9046	1384.7457	1413.4796	1477.1905	1486.9981	1496.3443	1516.1582	1670.331	3043.4007	3070.7488	3079.0932	3118.2126	3121.584	3126.3454	3788.8421
CC1CC2=C(O)N=NN12	C[C@H]1Cc2c(O)nnn12	
InChI=1S/C5H7N3O/c1-3-2-4-5(9)6-7-8(3)4/h3,9H,2H2,1H3	InChI=1S/C5H7N3O/c1-3-2-4-5(9)6-7-8(3)4/h3,9H,2H2,1H3/t3-/m0/s1
