17
gdb 67869	2.78715	1.61895	1.31605	2.5663	73.82	-0.2395	-0.0316	0.2079	998.8147	0.135954	-421.843883	-421.836145	-421.835201	-421.87595	30.231	
O	 0.3233545855	 1.2814339967	-0.4784336109	-0.481041
C	 0.1399750909	-0.0449208393	-0.0738914313	 0.294643
C	 0.8298739663	-1.0177817092	-0.9971873122	-0.124341
C	-0.0020516642	-1.9177712562	-1.5211812532	-0.057054
C	-1.424671049	-1.7632446747	-1.0377079341	-0.284105
C	-1.2971961217	-0.7227209356	 0.0834114908	-0.083054
C	-0.8685456087	-1.2704524713	 1.4837733974	-0.355504
C	 0.3038207351	-0.2879907584	 1.4328284884	 0.319106
O	 0.9021123293	 0.3477057216	 2.2570429475	-0.316387
H	 0.5303624968	 1.7936185991	 0.31445592	 0.292711
H	 1.8868967261	-0.918767953	-1.2143232716	 0.10871
H	 0.2889350214	-2.6875901694	-2.2279736781	 0.103591
H	-2.0861849489	-1.4392995787	-1.8513201148	 0.118031
H	-1.8395404784	-2.7063592623	-0.6594160214	 0.112344
H	-2.1142189096	-0.0046041256	 0.1472565921	 0.089006
H	-1.5513851527	-1.1227346919	 2.3227198622	 0.131584
H	-0.5569538581	-2.3185350619	 1.4542464792	 0.131762
90.7192	181.708	228.9422	258.7187	322.7545	338.6092	441.9179	470.2074	519.9175	648.3419	677.4775	736.571	751.9388	796.1988	815.2964	887.1657	929.999	960.0475	977.0505	1010.7964	1026.0991	1067.3627	1099.5253	1111.2847	1128.8916	1172.2765	1194.2788	1210.3775	1250.7178	1297.8335	1319.5113	1354.7267	1390.9842	1444.3236	1477.4824	1673.2179	1863.9161	3022.3801	3050.7786	3066.8782	3116.5011	3131.4773	3186.3363	3214.5089	3761.071
OC12C=CCC1CC2=O	O[C@]12C=CC[C@H]1CC2=O	
InChI=1S/C7H8O2/c8-6-4-5-2-1-3-7(5,6)9/h1,3,5,9H,2,4H2	InChI=1S/C7H8O2/c8-6-4-5-2-1-3-7(5,6)9/h1,3,5,9H,2,4H2/t5-,7+/m0/s1
