17
gdb 53359	3.25654	0.91564	0.84302	4.5911	77.	-0.2615	0.0141	0.2756	1433.809	0.135411	-421.85281	-421.843802	-421.842858	-421.888764	31.455	
C	-0.2408285031	 1.3681400603	 0.0922277407	-0.497689
C	-0.1107804115	-0.08002833	 0.0366919374	 0.019671
C	-0.0123125336	-1.2786900606	-0.017676138	 0.14132
C	 0.1193495796	-2.7308598314	-0.074975834	-0.086073
C	 0.8465230904	-3.3328981089	 1.1544691884	-0.237438
C	-0.31688054	-3.6011770888	 2.1091336744	-0.353325
C	-1.4979747958	-3.8357299804	 1.1728582401	 0.43335
O	-2.55225119	-4.3454852757	 1.4111837426	-0.331483
O	-1.1854684133	-3.3615862326	-0.0690527234	-0.210472
H	 0.2819547587	 1.7831526955	 0.9606174038	 0.151864
H	 0.1749502048	 1.8378797808	-0.8055463057	 0.154865
H	-1.2933788669	 1.6622794135	 0.1646395506	 0.159731
H	 0.5947557346	-3.0278490604	-1.0138777799	 0.122204
H	 1.3299743801	-4.2698485652	 0.8634572482	 0.119527
H	 1.6057317713	-2.6568860761	 1.5475517166	 0.125634
H	-0.1847283731	-4.4567733189	 2.7717706387	 0.140481
H	-0.547112832	-2.727890791	 2.7290756796	 0.147834
18.7668	60.8374	93.0653	158.259	184.4091	306.942	332.9725	447.1892	472.3133	517.5922	563.6982	668.6312	704.898	788.6531	813.5045	882.0052	934.1483	992.4612	1032.253	1050.4855	1051.1447	1058.6271	1134.3333	1158.8816	1181.041	1228.8746	1294.2904	1308.4404	1350.2033	1375.8437	1413.7504	1462.3425	1475.4895	1476.8642	1494.9028	1887.3354	2371.4701	3030.9199	3060.9	3064.9489	3074.8818	3093.4997	3095.227	3132.0227	3139.149
CC#CC1CCC(=O)O1	CC#C[C@H]1CCC(=O)O1	
InChI=1S/C7H8O2/c1-2-3-6-4-5-7(8)9-6/h6H,4-5H2,1H3	InChI=1S/C7H8O2/c1-2-3-6-4-5-7(8)9-6/h6H,4-5H2,1H3/t6-/m0/s1
