18
gdb 110735	2.60265	1.25771	1.07855	1.1915	73.18	-0.2466	-0.0277	0.2189	1185.6849	0.145906	-439.052005	-439.042884	-439.04194	-439.086163	33.299	
C	-0.0248847763	 1.6236999797	 0.1246218724	-0.497775
C	-0.1640759239	 0.1315907883	 0.0889868518	 0.177338
C	-0.1144496061	-0.7505656244	 1.2949283584	-0.063201
C	-1.1034980527	-1.8386263748	 1.6553673869	-0.103448
O	-0.5351209831	-2.7767514985	 2.5536156686	-0.412132
N	 0.9789791037	-0.8889295122	 0.3176027769	-0.178373
C	 0.4613756931	-1.730183819	-0.818357443	-0.298632
C	-0.6143939644	-0.6673708262	-1.1054462941	 0.355396
O	-1.3257076096	-0.4193398676	-2.0362515692	-0.303817
H	 0.6225338708	 1.9328565991	 0.9493587744	 0.137406
H	 0.3967596439	 2.001023	-0.811669359	 0.139102
H	-1.0051252672	 2.0914561495	 0.2640532908	 0.142072
H	 0.248873271	-0.2311356711	 2.181362619	 0.114292
H	-1.9426997094	-1.3811485947	 2.1896602429	 0.125589
H	-1.5247178289	-2.3278545504	 0.7672991371	 0.104443
H	 0.2658963417	-3.1268585615	 2.1491322019	 0.29139
H	 1.2001076703	-1.7616551548	-1.6240624327	 0.145675
H	 0.1630962672	-2.7509358214	-0.566681443	 0.124676
74.2879	97.6695	126.8646	172.2804	233.5431	271.2857	324.1976	338.2456	417.302	478.3185	546.5532	595.7192	641.8555	686.586	727.5749	832.5081	917.1245	926.3625	983.3694	1038.0241	1047.4328	1062.6369	1074.1164	1107.5341	1140.6418	1157.7556	1221.1523	1243.9963	1290.8755	1316.9316	1362.3654	1409.4094	1411.9423	1454.2136	1469.234	1480.3096	1488.8929	1512.6409	1884.8683	3018.9968	3041.2104	3063.7883	3076.6941	3108.0412	3117.336	3119.3199	3124.3305	3808.8102
CC12C(CO)N1CC2=O	C[C@]12[C@@H](CO)N1CC2=O	
InChI=1S/C6H9NO2/c1-6-4(3-8)7(6)2-5(6)9/h4,8H,2-3H2,1H3	InChI=1S/C6H9NO2/c1-6-4(3-8)7(6)2-5(6)9/h4,8H,2-3H2,1H3/t4-,6-,7?/m1/s1
