15
gdb 48573	5.91386	0.94817	0.93835	2.3243	74.9	-0.2564	-0.0474	0.209	1230.4464	0.109293	-420.524507	-420.516219	-420.515275	-420.55812	30.521	
O	-0.1679799231	 0.1708620654	-0.2947650015	-0.244874
C	 0.1238310318	 1.205357809	 0.2478566387	 0.034134
C	 1.4286118019	 1.9012198967	 0.0368367415	 0.298555
C	 2.8735182278	 1.3456267024	 0.0551497221	-0.283102
C	 2.923729922	 2.9002538898	-0.011794017	 0.329907
C	 1.8275459006	 2.8708393431	-1.1155252816	-0.282223
O	 1.829374883	 2.9407615991	 1.0103210293	-0.36393
C	 4.04356538	 3.7782163365	 0.1278046046	 0.069286
C	 4.9962235908	 4.5050445776	 0.2196980497	-0.342029
H	-0.5655346791	 1.7345508809	 0.9413608173	 0.102066
H	 3.1900472541	 0.9185207224	 1.0062275808	 0.126037
H	 3.2208516268	 0.7867217826	-0.8148442311	 0.11814
H	 2.0849018145	 2.4365910977	-2.0830469779	 0.118717
H	 1.2252957703	 3.7763574473	-1.1841492269	 0.126122
H	 5.8360608384	 5.1499027494	 0.3068704222	 0.193193
38.4597	112.2129	132.4976	212.8785	256.6624	410.0866	483.7315	490.3708	539.0878	573.9998	602.8741	635.8565	686.4162	692.1329	753.561	794.8484	936.4913	948.2517	984.6586	1017.8252	1076.342	1082.8593	1122.4493	1133.059	1149.6956	1162.9771	1238.8544	1353.6936	1405.9762	1464.6866	1511.7132	1824.6768	2242.9302	2900.9305	3077.8507	3085.9956	3166.1566	3171.2208	3498.9014
O=CC12CC(C1)(O2)C#C	O=C[C@@]12C[C@@](C1)(O2)C#C	
InChI=1S/C7H6O2/c1-2-6-3-7(4-6,5-8)9-6/h1,5H,3-4H2	InChI=1S/C7H6O2/c1-2-6-3-7(4-6,5-8)9-6/h1,5H,3-4H2/t6-,7+
