21
gdb 119563	2.98617	1.01089	0.86688	1.6871	78.52	-0.2465	0.076	0.3225	1406.4947	0.181014	-424.190053	-424.180471	-424.179527	-424.224842	35.549	
C	-0.1554475765	 1.5054351589	-0.1853729849	-0.412338
C	 0.0489599247	-0.0027833066	-0.2127777173	-0.038559
C	 1.3604835868	-0.5603467027	-0.8832212443	-0.264933
C	 1.7152079565	-1.2078209602	 0.4579066103	-0.049623
O	 1.7847672061	-0.1546166516	 1.4310064873	-0.297527
C	 0.4915919644	-0.6982700202	 1.101721192	 0.419597
C	-0.3466634016	-1.2261252642	 2.224938661	-0.340147
C	-0.9282219513	-0.118430132	 3.1155294322	-0.061977
O	-1.7329096394	-0.6353797836	 4.1624212631	-0.417258
H	 0.6952005514	 1.9927844339	 0.299179153	 0.133055
H	-0.2456276321	 1.9058083888	-1.2008518054	 0.114017
H	-1.0655409279	 1.779726767	 0.3592158559	 0.115984
H	-0.8283285048	-0.5087985311	-0.6296545409	 0.07505
H	 1.1573888651	-1.2808719818	-1.6790669162	 0.103717
H	 2.0784034401	 0.1840052961	-1.2376179269	 0.10809
H	 2.2980892566	-2.1002919119	 0.6592183101	 0.098618
H	-1.1713018956	-1.8273055869	 1.8242813343	 0.109948
H	 0.2741186698	-1.8906213866	 2.839863001	 0.098272
H	-0.1116323654	 0.5094680086	 3.5007543577	 0.107869
H	-1.5880543155	 0.5296043447	 2.5294667101	 0.116031
H	-1.1589606114	-1.1265453884	 4.758958638	 0.282114
64.8118	93.1475	105.9103	184.8884	238.8253	258.5951	300.2132	313.1203	350.2787	381.8223	474.4215	568.3055	701.3714	721.9647	764.439	806.0386	859.0235	887.0596	931.4867	955.0925	988.7251	1029.7664	1038.6042	1068.2969	1078.48	1110.6397	1114.1528	1128.6839	1189.9137	1220.8332	1225.6522	1250.4292	1279.3523	1310.1618	1323.3327	1359.3207	1396.6522	1402.8744	1420.8191	1452.9817	1470.6596	1482.4721	1494.4791	1504.7845	1512.8993	3002.2757	3022.2592	3032.0969	3050.6851	3062.4184	3063.7811	3085.4615	3094.2781	3116.4287	3120.2651	3175.3817	3815.0423
CC1CC2OC12CCO	C[C@H]1C[C@H]2O[C@@]12CCO	
InChI=1S/C7H12O2/c1-5-4-6-7(5,9-6)2-3-8/h5-6,8H,2-4H2,1H3	InChI=1S/C7H12O2/c1-5-4-6-7(5,9-6)2-3-8/h5-6,8H,2-4H2,1H3/t5-,6+,7-/m0/s1
