15
gdb 133766	2.11118	1.58728	1.22208	2.0386	53.99	-0.2706	0.0637	0.3343	1027.9054	0.108731	-585.419672	-585.4111	-585.410156	-585.453456	31.232	
O	 0.3454994744	 1.1460785088	 0.4793533155	-0.416941
C	 0.0356824653	-0.0152810977	-0.270209817	-0.169785
C	-1.3866366468	-0.4972627564	-0.0322002995	 0.122669
C	-1.6544213492	-1.9052381057	 0.3588662788	-0.279892
N	-1.8030323039	-0.8182100526	 1.333607357	-0.329811
C	-2.4314187866	 0.2529795151	-0.8268229038	 0.277421
F	-2.219285297	 0.1088300488	-2.1468871106	-0.080079
F	-3.6733016683	-0.1459177099	-0.5664595847	-0.059362
F	-2.3639027982	 1.5810840431	-0.5681524388	-0.09684
H	-0.2766957919	 1.8351284278	 0.2215729664	 0.29357
H	 0.1992311555	 0.1345262626	-1.3469088925	 0.114314
H	 0.7362526697	-0.7854317425	 0.0666842097	 0.113499
H	-2.5854760075	-2.3790833517	 0.0648690226	 0.139205
H	-0.7983336957	-2.571182907	 0.4251641349	 0.123138
H	-0.9941428699	-0.7478255925	 1.946971972	 0.248895
56.4936	95.5563	190.3224	226.9816	270.6189	307.0397	367.6621	401.5588	409.5	487.8897	548.0344	587.3309	635.4454	755.3147	866.3604	908.1088	932.8137	974.4672	1013.0985	1071.0464	1079.4455	1145.7298	1159.2426	1187.1547	1199.9245	1241.4355	1256.6677	1347.2003	1385.0548	1425.7132	1446.275	1500.3998	1512.1709	3009.476	3083.5834	3117.3456	3208.0427	3502.7389	3814.1703
OCC1(CN1)C(F)(F)F	OC[C@]1(CN1)C(F)(F)F	
InChI=1S/C4H6F3NO/c5-4(6,7)3(2-9)1-8-3/h8-9H,1-2H2	InChI=1S/C4H6F3NO/c5-4(6,7)3(2-9)1-8-3/h8-9H,1-2H2/t3-/m1/s1
