18
gdb 74596	3.88107	1.64061	1.46382	1.8946	79.21	-0.226	0.0085	0.2344	943.0293	0.149809	-364.754907	-364.748326	-364.747381	-364.785557	27.5	
C	 0.0236085473	 1.5079805716	 0.0380446977	-0.501319
C	-0.0681799089	 0.0185993345	-0.0332661405	 0.326128
C	-0.1050487514	-0.7699968714	-1.1214980888	-0.183937
C	-0.0675788345	-2.1955479807	-0.674487634	-0.01175
C	-0.6802013498	-2.2319105331	 0.7422666336	-0.088653
C	 0.5748566079	-3.0280414847	 1.2200150506	-0.070476
C	 1.3047790743	-1.7461489964	 1.2132632233	-0.048456
C	-0.0043512886	-0.8879555876	 1.171285683	-0.142414
N	 1.2894375269	-2.5969314446	-0.0127656093	-0.156073
H	 0.964916636	 1.8243656949	 0.5059002933	 0.130878
H	-0.0283082001	 1.9629662306	-0.9548505116	 0.126424
H	-0.7837626814	 1.9281737863	 0.6509151724	 0.126047
H	-0.0596816089	-0.4400397537	-2.152710411	 0.093125
H	-0.3468137271	-2.9722525879	-1.3847192571	 0.071908
H	-1.7356680759	-2.4204777336	 0.9345277951	 0.070829
H	 0.7305564468	-3.976927997	 1.7144579253	 0.095354
H	 2.271432711	-1.473132437	 1.6157372383	 0.095746
H	-0.2895139936	-0.4768986502	 2.1402432497	 0.066639
162.0809	174.4066	282.1665	403.6085	462.7307	554.1374	586.8486	710.5151	748.5167	768.6624	804.8421	828.2259	840.8502	867.9239	878.8266	921.9772	925.0779	947.6836	950.8911	984.8366	1008.9304	1028.7571	1036.5775	1064.5372	1122.925	1145.0489	1186.396	1187.085	1222.9959	1235.0592	1237.3136	1272.1168	1307.5174	1331.9647	1351.1347	1412.3588	1478.5897	1486.0098	1675.966	3016.6557	3062.6419	3109.4423	3110.3232	3121.8942	3130.9671	3196.6519	3200.0464	3213.7839
CC1=CC2C3C4C(C13)N24	CC1=C[C@@H]2[C@H]3[C@@H]4[C@H]([C@@H]13)N24	
InChI=1S/C8H9N/c1-3-2-4-6-5(3)7-8(6)9(4)7/h2,4-8H,1H3	InChI=1S/C8H9N/c1-3-2-4-6-5(3)7-8(6)9(4)7/h2,4-8H,1H3/t4-,5+,6-,7+,8-,9?/m1/s1
