25
gdb 115275	3.42957	0.9421	0.90917	1.4577	88.83	-0.2388	0.0753	0.3141	1487.516	0.228246	-389.516519	-389.506222	-389.505278	-389.551745	39.077	
C	-0.2079597164	 1.5147914511	-0.0329376747	-0.383212
C	-0.0947869712	-0.0106286587	-0.0705448042	-0.181256
C	 0.7987684107	-0.5180769263	-1.202645741	 0.150586
C	 0.9307726004	-2.0539722226	-1.2616189777	-0.285761
C	 0.8604600726	-2.3878533098	-2.7697374133	 0.286715
C	 2.2382075966	-2.2188668708	-3.4331379785	-0.423537
C	 0.2991346119	-3.7842478756	-3.0490118907	-0.444592
C	-0.0888929736	-1.2649785294	-3.2278616794	-0.09527
O	 0.2739326218	-0.1141363046	-2.4806854225	-0.278172
H	 0.7697404353	 1.9792432117	 0.1389574127	 0.109607
H	-0.5940517078	 1.8908996065	-0.9840443781	 0.134332
H	-0.8787074296	 1.8442933	 0.7664397547	 0.106447
H	 0.3079209501	-0.3850096837	 0.8802818962	 0.090693
H	-1.0903070539	-0.45864745	-0.1868779778	 0.093118
H	 1.7880814928	-0.0471999317	-1.1067562639	 0.068921
H	 1.8517837456	-2.4098381223	-0.7915442266	 0.098462
H	 0.0903927842	-2.5228137083	-0.7363386161	 0.092134
H	 2.9667672076	-2.9181752351	-3.0087702585	 0.108385
H	 2.1789774559	-2.4119440402	-4.5098900993	 0.109951
H	 2.621952164	-1.2033722232	-3.2977741804	 0.127677
H	-0.6853542219	-3.9187139583	-2.5880415432	 0.110715
H	 0.192619661	-3.9600592928	-4.125601449	 0.113049
H	 0.9626799767	-4.5616394106	-2.6549811367	 0.114769
H	 0.0060447941	-1.0216124033	-4.2916537124	 0.099144
H	-1.1376904669	-1.5474829422	-3.0356247395	 0.077094
40.4751	114.3432	137.9617	217.9628	221.6019	240.7866	247.3697	295.423	302.1314	364.1149	408.3859	442.1129	453.953	582.0889	670.6541	773.339	786.8282	840.2567	905.3641	935.0058	940.0554	948.706	958.5576	998.678	1009.8832	1044.9145	1050.4589	1088.7791	1108.8068	1131.6909	1197.393	1216.6086	1228.1407	1259.828	1292.3443	1297.6793	1311.3547	1339.771	1362.5562	1390.7933	1401.2775	1403.9669	1410.1486	1425.937	1475.2522	1483.1451	1487.8434	1495.1288	1497.622	1504.8948	1509.4674	1510.2536	1522.8327	2957.7863	2989.5015	3013.6664	3023.8925	3029.3677	3034.6637	3037.0475	3051.9197	3063.5821	3088.3415	3092.0421	3094.4405	3096.7231	3099.2383	3109.302	3121.8668
CCC1CC(C)(C)CO1	CC[C@H]1CC(C)(C)CO1	
InChI=1S/C8H16O/c1-4-7-5-8(2,3)6-9-7/h7H,4-6H2,1-3H3	InChI=1S/C8H16O/c1-4-7-5-8(2,3)6-9-7/h7H,4-6H2,1-3H3/t7-/m0/s1
