21
gdb 102714	2.48096	1.11373	0.86663	1.9929	83.22	-0.2404	0.0244	0.2648	1422.6815	0.180825	-420.365112	-420.354761	-420.353817	-420.401508	36.128	
C	-1.1598063493	-0.1519111862	-0.7808929242	-0.254437
O	 0.0889301227	 0.5246702971	-0.9251085068	-0.249486
C	 1.2599842942	-0.1630474873	-0.8645153579	 0.424798
C	 1.2402129129	-1.674613605	-0.7948941464	-0.274261
N	 0.7488632888	-2.2494978166	-2.0503207736	-0.068429
C	 1.7443507724	-2.3679641817	-3.1144037561	-0.217067
C	 1.2669903376	-3.5739819905	-2.3840078797	-0.222619
N	 2.3751492874	 0.438736855	-0.895886235	-0.293565
C	 2.3656956875	 1.8926869483	-0.9777269941	-0.314392
H	-1.2322518591	-0.9971770125	-1.4690230211	 0.156462
H	-1.3065664218	-0.4958728951	 0.2501844496	 0.119478
H	-1.9267790977	 0.5889041863	-1.0142564177	 0.133017
H	 2.267541827	-1.983166144	-0.5593608551	 0.116758
H	 0.5861809037	-2.0236896105	 0.0131299078	 0.110571
H	 1.3855094881	-2.1551219997	-4.1169430184	 0.118752
H	 2.7500850658	-2.0130431249	-2.9019445987	 0.133633
H	 1.958556148	-4.0387779735	-1.683436008	 0.113821
H	 0.5575763815	-4.2557834287	-2.843943943	 0.118649
H	 3.3891482683	 2.262401199	-0.8773059087	 0.111419
H	 1.9678951103	 2.2380803691	-1.9411490193	 0.11972
H	 1.7459367619	 2.3504346716	-0.1960171235	 0.117177
52.0394	71.6694	83.6681	129.5632	140.3445	202.5353	224.936	266.8615	312.0696	372.5337	408.1144	466.4031	616.8704	701.818	778.2797	809.6126	842.0628	908.9439	974.6538	1019.0133	1036.765	1076.2463	1084.4191	1108.3006	1114.3997	1120.2229	1167.8918	1174.5588	1178.662	1190.7298	1206.9939	1260.0442	1301.4764	1316.9346	1379.6853	1436.3172	1479.5041	1483.5143	1486.1444	1493.8396	1496.872	1499.4249	1516.1231	1523.4016	1753.4835	3006.2835	3010.3762	3023.4368	3057.7552	3061.2928	3099.0687	3103.8616	3106.0678	3110.5694	3141.8266	3183.6769	3200.6968
COC(CN1CC1)=NC	COC(=NC)CN1CC1	
InChI=1S/C6H12N2O/c1-7-6(9-2)5-8-3-4-8/h3-5H2,1-2H3	InChI=1S/C6H12N2O/c1-7-6(9-2)5-8-3-4-8/h3-5H2,1-2H3
