16
gdb 49302	2.94212	1.39075	0.96922	8.4897	77.15	-0.2186	-0.0457	0.1729	1157.7708	0.125503	-437.935919	-437.927919	-437.926975	-437.968758	29.55	
O	-0.2177058926	 0.025701001	-0.2669895257	-0.272112
C	-0.0053592705	 1.210429502	-0.1721707794	 0.088545
C	 1.2950585532	 1.8791917032	-0.0582392138	 0.030889
C	 1.2762776789	 3.2476798223	 0.0383331124	-0.007165
N	 2.3638183076	 4.0312954811	 0.1195656322	-0.290079
C	 3.6886701575	 3.4674223947	-0.1267084702	-0.183206
C	 3.7630854542	 2.0592019781	 0.4618344007	-0.311709
C	 2.5873819803	 1.1695068796	 0.0189467066	 0.290838
O	 2.7468124782	-0.014076992	-0.1801425799	-0.302025
H	-0.8570214592	 1.9393071273	-0.1594005629	 0.039398
H	 0.3220917672	 3.7714792273	 0.0535956439	 0.131778
H	 2.2460568197	 5.028294723	 0.0474687145	 0.264233
H	 3.8769224596	 3.4330016413	-1.2104944632	 0.127976
H	 4.4391563974	 4.1244696564	 0.32073649	 0.126005
H	 4.6952920465	 1.5676894875	 0.1777450291	 0.134226
H	 3.7349761521	 2.1172197371	 1.5580736954	 0.132408
71.8898	146.82	199.6886	217.3227	296.819	363.4302	395.6625	453.5227	468.2297	556.9803	598.2483	660.1313	701.8193	783.2692	910.8347	919.5919	962.1699	1030.9576	1038.3129	1066.9725	1107.7827	1208.9074	1227.6642	1266.5722	1296.2521	1343.6336	1362.2735	1401.6971	1458.7396	1460.4489	1500.5236	1542.8615	1655.4311	1766.397	1825.4878	2783.8756	2994.5274	3032.4439	3089.2623	3123.5916	3151.0403	3647.2627
O=CC1=CNCCC1=O	O=CC1=CNCCC1=O	
InChI=1S/C6H7NO2/c8-4-5-3-7-2-1-6(5)9/h3-4,7H,1-2H2	InChI=1S/C6H7NO2/c8-4-5-3-7-2-1-6(5)9/h3-4,7H,1-2H2
