16
gdb 11271	4.25279	1.38389	1.16431	4.5189	69.58	-0.2477	-0.0537	0.1941	1018.6682	0.130203	-383.764796	-383.757175	-383.756231	-383.797019	28.025	
O	-0.5201416445	 1.2948800303	 0.5458786276	-0.433483
C	 0.0024930681	 0.0808820753	 0.0216478711	 0.109435
C	 0.7769319111	-0.7210849286	 1.1076805402	-0.282308
C	-0.2522492543	-1.6805355835	 1.6368904631	-0.142487
C	-1.3367844881	-1.7321695865	 0.8499055732	 0.260632
C	-1.2124352101	-0.8039761213	-0.3351507987	-0.310645
C	-2.4893234438	-2.6027315471	 1.0872382252	 0.061741
O	-3.4508926878	-2.6764007149	 0.3536996659	-0.269173
H	 0.220522912	 1.8623385664	 0.7824618707	 0.281524
H	 0.6327398504	 0.2839794026	-0.8542999808	 0.067617
H	 1.6286478569	-1.268046921	 0.6784480754	 0.118524
H	 1.1885713554	-0.0596226754	 1.8796652555	 0.108067
H	-0.112879798	-2.2717038344	 2.5364597273	 0.109022
H	-2.1018511807	-0.1884665962	-0.4916141795	 0.139776
H	-1.0473268709	-1.3712246975	-1.2585769013	 0.116519
H	-2.4241906055	-3.2148046681	 2.015076735	 0.06524
80.5915	118.901	187.2429	282.4093	305.5557	390.5772	408.4471	438.5613	494.9111	718.9797	769.7027	798.189	856.7743	887.3076	901.2676	958.5891	978.7369	1022.1927	1036.9643	1079.3089	1158.0759	1179.9745	1217.4392	1242.2741	1281.4717	1301.6403	1334.6782	1380.1414	1418.7707	1424.8342	1455.6293	1471.0393	1681.6437	1784.7188	2875.541	3002.0945	3017.0991	3047.9423	3054.2411	3105.2308	3187.3764	3815.2789
OC1CC=C(C1)C=O	O[C@H]1CC=C(C1)C=O	
InChI=1S/C6H8O2/c7-4-5-1-2-6(8)3-5/h1,4,6,8H,2-3H2	InChI=1S/C6H8O2/c7-4-5-1-2-6(8)3-5/h1,4,6,8H,2-3H2/t6-/m0/s1
