23
gdb 59547	2.47803	1.32734	1.01876	1.7136	85.5	-0.2429	0.0801	0.323	1291.2033	0.203687	-388.270589	-388.260712	-388.259768	-388.305016	37.57	
C	-0.2252454032	 1.485196797	 0.0110244963	-0.393398
C	 0.0683092965	-0.019254272	-0.0780510903	 0.028673
C	 0.9206839057	-0.3301054987	-1.3168244706	-0.398823
C	 0.7307515056	-0.5220353606	 1.2064803879	-0.033852
C	-0.103512293	-0.4787878722	 2.5424448648	-0.28194
C	 0.0947732831	-1.9914720966	 2.6598785483	-0.037939
O	-0.4548320011	-2.5864998273	 1.4738507527	-0.290533
C	 0.8796935757	-2.0537419029	 1.4147240234	 0.402647
C	 1.9826150899	-2.9664501504	 0.9831485651	-0.505447
H	 0.7038940677	 2.0614750391	 0.1009362181	 0.107437
H	-0.7460786543	 1.8366037048	-0.8858928461	 0.109817
H	-0.8507472502	 1.7267231368	 0.8761373284	 0.113554
H	-0.8854692474	-0.5533312088	-0.1748486573	 0.086987
H	 1.9078933838	 0.1430387637	-1.2453438592	 0.106889
H	 1.0726696484	-1.405550095	-1.4465807625	 0.11726
H	 0.4404690068	 0.0467436574	-2.2260804143	 0.110805
H	 1.6983834728	-0.0248748964	 1.349982095	 0.065479
H	 0.387584748	 0.0917298578	 3.3343508445	 0.101977
H	-1.1458556487	-0.1599614277	 2.4570898116	 0.107039
H	 0.1299614798	-2.613475028	 3.5478687528	 0.097069
H	 1.9547108766	-3.1447515653	-0.0970979429	 0.132643
H	 2.9591055547	-2.5343935927	 1.2254311763	 0.12227
H	 1.8919636229	-3.9330741317	 1.4866070179	 0.131385
64.2444	129.6939	158.2285	191.9508	226.3104	242.9223	271.1927	285.686	332.1573	399.0857	421.6402	460.6769	552.6386	660.9567	726.5	783.9915	863.2671	886.9901	906.9541	914.5015	932.2888	963.2367	969.6176	1000.8231	1032.3603	1046.0124	1085.5032	1125.9351	1142.9431	1182.8594	1198.7045	1208.6571	1230.7419	1263.3918	1275.8897	1301.0312	1358.4494	1383.0091	1398.2	1406.0338	1420.2344	1455.6885	1476.4013	1482.2499	1486.7782	1493.4605	1495.7831	1505.3216	1510.587	3022.0488	3022.4436	3025.5031	3034.5686	3039.0286	3060.7232	3085.2636	3092.4142	3097.0426	3101.3498	3107.6435	3115.9759	3117.0257	3175.4883
CC(C)C1CC2OC12C	CC(C)[C@H]1C[C@H]2O[C@@]12C	
InChI=1S/C8H14O/c1-5(2)6-4-7-8(6,3)9-7/h5-7H,4H2,1-3H3	InChI=1S/C8H14O/c1-5(2)6-4-7-8(6,3)9-7/h5-7H,4H2,1-3H3/t6-,7-,8+/m1/s1
