23
gdb 60467	2.67026	0.88087	0.78516	0.5638	82.25	-0.24	0.0773	0.3173	1586.6582	0.203745	-425.399107	-425.388512	-425.387568	-425.435793	38.562	
C	 0.2524830363	-0.0712472855	-0.6671144347	-0.396385
C	-0.3101572279	-0.8439894964	 0.5216373221	 0.11893
O	 0.3807017334	-0.5509708916	 1.7331054086	-0.430548
C	-1.811859001	-0.584752189	 0.722826563	-0.085505
O	-2.5907635919	-0.8914545329	-0.4199583307	-0.246073
C	-3.3216197953	-2.1050915592	-0.3811632479	-0.091615
C	-2.4968737342	-3.3553385588	-0.5930364542	 0.015909
C	-1.9471477791	-4.145852096	 0.5704195435	-0.251333
C	-3.0968951582	-4.6923207999	-0.2356882985	-0.28276
H	 1.3119656255	-0.2996716021	-0.8110238508	 0.118298
H	-0.2978254374	-0.3210918927	-1.5778564596	 0.132683
H	 0.1521527687	 1.0106067775	-0.5054672212	 0.10055
H	-0.159021706	-1.9168068448	 0.3634895634	 0.097232
H	 0.3814944203	 0.4065782176	 1.8429984401	 0.276709
H	-2.1557045691	-1.1401683805	 1.6051931872	 0.096538
H	-1.95483619	 0.4871136318	 0.9309102224	 0.083829
H	-3.8774229878	-2.1880739579	 0.5678247282	 0.084152
H	-4.0602769804	-2.0129621778	-1.1858837493	 0.10747
H	-1.8850387498	-3.3270679658	-1.4906854417	 0.09012
H	-0.974063468	-4.6120033709	 0.4621467391	 0.116677
H	-2.1583507624	-3.7932168115	 1.5748065081	 0.117023
H	-4.0793596653	-4.6976712532	 0.2263473361	 0.112707
H	-2.9160887204	-5.5311683103	-0.8980826431	 0.115392
41.6056	66.754	69.7296	124.7309	203.1265	236.7308	269.8534	291.5656	321.1253	351.0059	413.755	429.2702	480.9496	515.4956	771.2175	808.0777	839.6856	843.9	905.6306	909.0671	940.8913	958.8123	977.0772	1037.3505	1059.1266	1078.2895	1084.5575	1121.8259	1139.5069	1143.156	1167.9407	1196.1289	1198.1779	1223.8323	1272.3134	1295.0294	1322.3353	1356.4261	1376.696	1395.0011	1404.6074	1421.291	1428.6728	1468.8126	1481.9071	1486.7384	1496.0316	1497.5089	1508.7347	2966.276	2983.6528	3020.7327	3039.9509	3057.0645	3069.0166	3099.1892	3129.6684	3129.6811	3134.0197	3146.4383	3207.6426	3222.6248	3795.8002
CC(O)COCC1CC1	C[C@@H](O)COCC1CC1	
InChI=1S/C7H14O2/c1-6(8)4-9-5-7-2-3-7/h6-8H,2-5H2,1H3	InChI=1S/C7H14O2/c1-6(8)4-9-5-7-2-3-7/h6-8H,2-5H2,1H3/t6-/m1/s1
