19
gdb 104491	2.02832	1.71169	1.1183	2.1476	76.47	-0.2422	-0.0268	0.2154	1139.2337	0.157446	-422.992063	-422.983158	-422.982213	-423.026035	32.766	
C	-0.7248321947	 1.3939125739	-0.2290895838	-0.379302
C	 0.0024180517	 0.1058463665	 0.1786771303	-0.29088
C	 0.8495005717	-0.4727002973	-0.9412208057	 0.191925
C	 2.1113401165	 0.2506472525	-1.2533810062	 0.092722
O	 2.9155474499	-0.0905832167	-2.091881284	-0.28057
C	 0.9690283836	-1.9729581482	-1.2679465256	-0.170319
C	-0.3768265428	-2.6597078393	-1.0806650951	-0.123875
O	-1.0344825315	-1.6661048123	-1.9201207944	-0.287887
C	 0.2280746325	-1.0769102008	-2.2026488308	 0.093685
H	-0.0247376966	 2.1688792224	-0.5591891967	 0.116198
H	-1.4190666226	 1.1957117132	-1.0509773805	 0.136304
H	-1.2978001253	 1.8013542387	 0.609275576	 0.11584
H	 0.6481201294	 0.2959065049	 1.0458623191	 0.101052
H	-0.7363819092	-0.6282246946	 0.5078920972	 0.115655
H	 2.2770404159	 1.1692563325	-0.6473118248	 0.076867
H	 1.9380868687	-2.4384117773	-1.3775094758	 0.124863
H	-0.4154711031	-3.6426664843	-1.5616454594	 0.124217
H	-0.8119742378	-2.7195511561	-0.0775864813	 0.115657
H	 0.4359136936	-0.7152604878	-3.2020629385	 0.127848
58.3523	110.5404	163.5324	209.2129	211.3348	235.3152	294.5686	343.4407	450.1069	486.8469	653.8467	683.1099	752.1796	771.5676	850.7587	886.7409	939.3457	952.8371	973.3061	994.682	1015.1447	1046.5143	1057.8783	1083.3769	1095.9847	1112.1397	1156.0261	1211.2002	1232.9539	1265.5234	1295.6982	1326.1037	1365.7969	1383.685	1410.271	1438.1201	1479.8297	1498.2564	1504.4171	1512.1626	1791.6926	2879.6038	3028.247	3037.2151	3037.3993	3087.1305	3091.5103	3110.1901	3117.3549	3196.2467	3221.6949
CCC1(C=O)C2COC12	CC[C@@]1(C=O)[C@H]2CO[C@@H]12	
InChI=1S/C7H10O2/c1-2-7(4-8)5-3-9-6(5)7/h4-6H,2-3H2,1H3	InChI=1S/C7H10O2/c1-2-7(4-8)5-3-9-6(5)7/h4-6H,2-3H2,1H3/t5-,6+,7+/m0/s1
