23
gdb 115283	3.37223	1.02899	0.98099	0.6203	81.9	-0.2587	0.0803	0.339	1369.4995	0.20487	-425.441166	-425.431258	-425.430314	-425.476033	37.145	
C	-0.2240384683	 1.4041093104	 0.1982355329	-0.242717
O	-0.1682325248	-0.0024494859	 0.3487950357	-0.244914
C	-1.2876755185	-0.6668974957	-0.182410697	 0.228802
C	-1.064213345	-2.1809840582	-0.0053079792	-0.311602
C	-2.197500987	-2.647106432	 0.9505957456	 0.313549
C	-3.3746789044	-3.2265899713	 0.1483759015	-0.429619
C	-1.7142167956	-3.6522124488	 1.9999294257	-0.446336
C	-2.6055571176	-1.2965014133	 1.5743828614	-0.125351
O	-2.477464479	-0.3496912397	 0.5161459849	-0.257931
H	 0.6929543414	 1.8094986806	 0.6317072147	 0.123091
H	-0.2730917865	 1.6904218744	-0.8638785378	 0.102838
H	-1.0918147367	 1.8307806307	 0.7143713855	 0.124991
H	-1.4498668429	-0.3419785877	-1.2201666608	 0.066224
H	-1.0931122032	-2.7065976119	-0.9628166138	 0.102273
H	-0.0759427778	-2.3325089165	 0.4344822501	 0.11479
H	-3.0663680764	-4.1152274229	-0.4130065055	 0.109625
H	-4.197371523	-3.5186025829	 0.8106523166	 0.108908
H	-3.7602252166	-2.4910719136	-0.5642599558	 0.125107
H	-0.8739569108	-3.2520314631	 2.5769231845	 0.116177
H	-2.5154260432	-3.9072766832	 2.7030604696	 0.112325
H	-1.3837282032	-4.584271111	 1.5289859541	 0.115956
H	-3.6412190045	-1.2667019221	 1.9242453801	 0.101514
H	-1.9415268064	-1.034232416	 2.410947677	 0.092299
41.6369	120.0122	151.0471	208.5961	222.7001	259.644	265.2567	304.0716	315.2384	371.1057	405.5591	460.6459	565.7177	599.0503	745.7815	788.8877	843.6202	904.9713	936.0695	955.954	968.9506	985.4847	1005.46	1018.9047	1062.5746	1073.7697	1132.5904	1161.7433	1181.1153	1221.2515	1227.761	1234.2568	1255.4961	1295.6464	1316.8537	1354.2464	1384.1792	1398.8344	1403.5244	1425.6186	1475.1338	1483.027	1483.4211	1487.2841	1491.5894	1504.8686	1509.9068	1514.16	1517.2166	2986.4941	2995.9338	3003.3537	3023.4866	3028.6771	3063.1014	3068.7328	3087.5377	3089.0215	3094.857	3098.5352	3107.016	3117.9054	3122.3587
COC1CC(C)(C)CO1	CO[C@H]1CC(C)(C)CO1	
InChI=1S/C7H14O2/c1-7(2)4-6(8-3)9-5-7/h6H,4-5H2,1-3H3	InChI=1S/C7H14O2/c1-7(2)4-6(8-3)9-5-7/h6H,4-5H2,1-3H3/t6-/m1/s1
