19
gdb 126687	3.0935	1.25583	0.97721	4.1536	78.07	-0.2033	0.0382	0.2415	1238.9855	0.160842	-415.41045	-415.401181	-415.400237	-415.445127	32.921	
C	-0.0943041035	 0.672658301	-0.6106346972	-0.385936
C	-0.1304436563	-0.5054364467	 0.3738354326	-0.171611
N	 0.7580297296	-0.3766540606	 1.5183243586	-0.162023
C	 0.318445692	 0.4369009581	 2.6416160615	-0.343086
C	 2.100080305	-0.5887708094	 1.3712084967	 0.528044
N	 3.0355812353	-0.3092175062	 2.2705820881	-0.375646
C	 4.1740654688	-0.7615335503	 1.6717302271	 0.034481
N	 4.0313191189	-1.2877445358	 0.4747588134	-0.234465
N	 2.6760686028	-1.1650208232	 0.284323314	-0.299616
H	 0.9066062492	 0.8091487977	-1.030860014	 0.130899
H	-0.7910984404	 0.4994594792	-1.4368446689	 0.122222
H	-0.381816843	 1.6056054659	-0.1170645384	 0.131502
H	-1.1451288084	-0.628539275	 0.7668332834	 0.117532
H	 0.1002548305	-1.4433309377	-0.1470452944	 0.106633
H	 0.9966837135	 0.2755400572	 3.4787623522	 0.172012
H	 0.3094292602	 1.5118352485	 2.4109602582	 0.119717
H	-0.6930206674	 0.1332666267	 2.9287462295	 0.1201
H	 5.1431436387	-0.6925032703	 2.1441290736	 0.118743
H	 2.2653793345	-1.4990451892	-0.568723186	 0.270497
65.9851	81.3575	112.3899	142.0793	201.16	257.9306	284.0233	382.2147	393.4548	431.7284	525.632	614.0493	674.0267	755.7876	792.1967	894.8196	912.2322	975.3895	988.3682	1053.2134	1087.172	1095.6229	1110.5675	1156.1709	1209.7084	1220.0966	1281.2423	1296.7941	1309.2867	1383.359	1388.6186	1406.6084	1425.8374	1451.1575	1487.2265	1491.5503	1494.4668	1509.8278	1512.3279	1553.681	1641.0776	3000.4701	3024.04	3040.836	3069.1636	3078.3786	3112.973	3118.4656	3158.9264	3253.7471	3694.0281
CCN(C)C1=NC=NN1	CCN(C)c1ncn[nH]1	
InChI=1S/C5H10N4/c1-3-9(2)5-6-4-7-8-5/h4H,3H2,1-2H3,(H,6,7,8)	InChI=1S/C5H10N4/c1-3-9(2)5-6-4-7-8-5/h4H,3H2,1-2H3,(H,6,7,8)
