16
gdb 50677	2.17114	1.48603	1.05359	3.5214	69.09	-0.2687	-0.0459	0.2228	1135.4886	0.124117	-437.903219	-437.894624	-437.89368	-437.938077	29.652	
O	 0.2031262053	-0.2180333904	-0.1418375024	-0.241988
C	 0.1025119713	 0.977229419	-0.0538342526	 0.138832
C	 1.2877671664	 1.9199489403	 0.010463406	-0.088514
C	 1.2801081287	 2.9812036426	-1.1113007607	-0.276402
C	 2.0786796671	 4.1553399472	-0.5028041397	-0.080627
O	 2.2278770357	 3.8790009563	 0.8995452693	-0.240673
C	 1.3618680135	 2.8287002321	 1.2652941089	-0.056135
C	 0.0330917421	 3.3499743031	 1.6689202506	 0.270977
N	-1.0011587068	 3.76892597	 1.9694961067	-0.319961
H	-0.8899363155	 1.4779365046	-0.0300293719	 0.109034
H	 2.2004291659	 1.3206593846	-0.0174776699	 0.118025
H	 1.7237390326	 2.6010086602	-2.032823202	 0.134464
H	 0.2524882638	 3.2858986706	-1.3344950846	 0.133643
H	 3.0856379134	 4.2413173818	-0.9212171414	 0.125509
H	 1.5619451005	 5.1115080934	-0.6389509767	 0.126011
H	 1.8003137758	 2.3116214646	 2.1233709103	 0.147806
43.9039	63.2873	92.8181	142.7186	235.4044	305.4393	353.8412	416.7383	498.1866	578.7714	688.871	736.772	834.2682	877.3179	923.6286	929.4629	960.9958	997.1804	1049.6278	1096.7643	1106.2666	1125.2076	1207.8225	1229.8277	1269.0399	1278.5134	1304.3867	1347.7456	1363.3087	1386.6568	1428.4022	1494.9768	1528.5685	1832.5616	2351.0921	2902.4594	3042.722	3060.0035	3082.0912	3088.4612	3097.7524	3127.1449
O=CC1CCOC1C#N	O=C[C@H]1CCO[C@H]1C#N	
InChI=1S/C6H7NO2/c7-3-6-5(4-8)1-2-9-6/h4-6H,1-2H2	InChI=1S/C6H7NO2/c7-3-6-5(4-8)1-2-9-6/h4-6H,1-2H2/t5-,6+/m1/s1
