20
gdb 76401	2.96458	1.14322	1.06165	1.4578	75.95	-0.2234	0.0545	0.2779	1232.8775	0.168715	-440.218324	-440.208695	-440.207751	-440.252666	36.264	
C	 0.3742708526	 0.8666467926	-0.9132448348	-0.474493
C	 0.3052483405	-0.3724676971	-0.0445520874	 0.240383
C	 1.600040156	-0.997674683	 0.4715319652	 0.061226
O	 2.8269611892	-0.3968379157	 0.1979758484	-0.435397
C	 0.6743918192	-0.2708651984	 1.4215063194	-0.004171
O	 1.1328141554	 0.9832931915	 1.8701754267	-0.435601
N	-0.728769732	-1.3668376295	-0.2441906841	-0.105324
C	-2.0293519887	-0.9885934914	-0.7830439577	-0.229171
C	-1.076984018	-1.8088545779	-1.587407519	-0.232659
H	 1.3358753098	 1.3649774155	-0.7873603122	 0.129457
H	 0.2848732571	 0.6102316565	-1.9737257079	 0.118544
H	-0.4119956598	 1.5855756694	-0.6631279115	 0.122121
H	 1.6517583684	-2.0812112637	 0.4982542434	 0.104181
H	 2.8526291432	 0.4094835072	 0.7326912887	 0.283439
H	 0.0610696378	-0.8289252561	 2.1232724267	 0.099228
H	 1.525103579	 0.8554383893	 2.7407423909	 0.29757
H	-2.8890815011	-1.4487440959	-0.3032269339	 0.114311
H	-2.1851905623	 0.0386356559	-1.1033578572	 0.114712
H	-0.6061115483	-1.3273078079	-2.4413720037	 0.116343
H	-1.227363018	-2.8790771613	-1.7004901499	 0.115302
59.9119	117.1679	156.2871	198.1107	237.9768	248.7189	283.4964	313.3084	367.1111	396.8831	487.0789	516.4252	540.727	658.298	694.49	790.2103	823.3312	877.247	894.5934	917.0611	973.1071	1018.7885	1036.3531	1074.9561	1095.5415	1111.3124	1120.1445	1143.8579	1158.6427	1172.6538	1175.9875	1197.6661	1246.6476	1284.5728	1325.0154	1347.0379	1402.9262	1412.6172	1461.9058	1481.9376	1493.1434	1505.039	1522.8932	3043.9067	3099.5026	3105.0685	3106.5402	3143.2558	3144.89	3165.0236	3179.0923	3193.5993	3729.2379	3805.9195
CC1(C(O)C1O)N1CC1	C[C@]1([C@@H](O)[C@H]1O)N1CC1	
InChI=1S/C6H11NO2/c1-6(7-2-3-7)4(8)5(6)9/h4-5,8-9H,2-3H2,1H3	InChI=1S/C6H11NO2/c1-6(7-2-3-7)4(8)5(6)9/h4-5,8-9H,2-3H2,1H3/t4-,5+,6+
