16
gdb 84054	3.41245	1.29336	1.0507	5.3348	76.09	-0.2676	-0.0645	0.2032	1131.7602	0.125451	-396.923418	-396.915669	-396.914724	-396.955719	29.095	
C	-0.1277092545	 1.5872248933	-0.0042664104	-0.392429
C	 0.0616783281	 0.0704938785	 0.0223414483	 0.01124
N	 0.8490994176	-0.3989751084	-1.1382597107	-0.258257
C	 1.7677484627	-1.1585864828	-0.6864280511	 0.229357
C	 2.7370398755	-1.7968621437	-1.5341423772	 0.283627
N	 3.532547515	-2.3107020332	-2.196528378	-0.315762
N	 1.8457031067	-1.4197434488	 0.7174316204	-0.154007
C	 2.2265033771	-0.1735947946	 1.4449681141	-0.254522
C	 0.7971247874	-0.5076699448	 1.2388692428	-0.046422
H	 0.8319777715	 2.10659586	 0.0662098478	 0.124799
H	-0.6124270256	 1.889932274	-0.9354552484	 0.142187
H	-0.7542685074	 1.9058329759	 0.8341186156	 0.12497
H	-0.9267708186	-0.4019507384	-0.0524216354	 0.110694
H	 2.6861219933	-0.3483759838	 2.4117195564	 0.139833
H	 2.6718683039	 0.6229243346	 0.856025225	 0.140021
H	 0.2172070674	-0.8887903076	 2.0723645507	 0.114671
114.5161	147.5257	187.3684	218.3417	270.4289	383.7133	418.8879	507.3704	546.348	584.5705	685.0217	750.0344	778.107	817.0891	862.4552	907.6758	950.5104	1006.052	1060.7707	1070.5786	1108.433	1123.597	1142.0608	1161.6908	1199.4782	1269.3094	1316.7523	1348.9716	1374.4207	1409.9884	1487.6966	1494.66	1500.7845	1664.1068	2363.2462	3020.43	3047.3323	3119.7237	3124.1441	3131.2371	3172.924	3218.4008
CC1N=C(C#N)N2CC12	C[C@H]1N=C(C#N)N2C[C@@H]12	
InChI=1S/C6H7N3/c1-4-5-3-9(5)6(2-7)8-4/h4-5H,3H2,1H3	InChI=1S/C6H7N3/c1-4-5-3-9(5)6(2-7)8-4/h4-5H,3H2,1H3/t4-,5+,9?/m1/s1
