17
gdb 63292	1.98013	1.66495	1.12077	4.1248	74.59	-0.2621	0.0047	0.2669	1133.2178	0.132712	-421.831442	-421.822238	-421.821294	-421.865196	34.159	
C	 0.1855195047	 1.4123577033	-0.2941791409	-0.43256
C	-0.0550107721	-0.0527400777	 0.0116236658	 0.414178
C	-1.5187759835	-0.4514266302	-0.0197201223	-0.436879
O	 0.7183007537	-0.8989759396	-0.9353716037	-0.27611
C	 1.5148339879	-1.4032696314	 0.0453884695	 0.457163
O	 2.4257259059	-2.1570321702	-0.0570928495	-0.320951
C	 0.7792864159	-0.6640840258	 1.1887816465	-0.456486
C	 1.5542634844	 0.1907942548	 2.0559122087	 0.344827
C	 2.2013657407	 0.9053636119	 2.773354891	-0.444069
H	 1.2519501041	 1.6466798902	-0.2817450545	 0.141011
H	-0.2174825134	 1.658215943	-1.2808002604	 0.131792
H	-0.3110221434	 2.0408920696	 0.4509105354	 0.132331
H	-1.956551837	-0.2174020359	-0.994528645	 0.137445
H	-1.6377307644	-1.5233679439	 0.1610782146	 0.130921
H	-2.0763493946	 0.0959980117	 0.7467746544	 0.132604
H	 0.1889410873	-1.3776287485	 1.7741509149	 0.137522
H	 2.7796433638	 1.5311368587	 3.4073152155	 0.207263
79.1707	124.4117	156.7358	198.4916	232.7184	295.6192	328.4614	339.9121	394.1573	429.7892	486.5785	576.5745	618.3515	626.6283	658.142	701.1607	813.9393	842.7761	903.5381	947.6759	984.1061	1010.8257	1075.0726	1098.4895	1139.3054	1233.5531	1245.5641	1274.7862	1338.4061	1407.9851	1421.5173	1472.3364	1480.1891	1493.1978	1501.0963	1940.503	2241.4083	3040.4518	3049.2566	3055.2877	3114.7182	3119.4848	3122.5236	3136.0824	3502.7605
CC1(C)OC(=O)C1C#C	CC1(C)OC(=O)[C@H]1C#C	
InChI=1S/C7H8O2/c1-4-5-6(8)9-7(5,2)3/h1,5H,2-3H3	InChI=1S/C7H8O2/c1-4-5-6(8)9-7(5,2)3/h1,5H,2-3H3/t5-/m1/s1
