23
gdb 104866	1.97598	1.54333	1.16225	1.3301	86.92	-0.2298	0.0184	0.2481	1232.2391	0.20452	-388.306341	-388.296399	-388.295455	-388.341165	37.208	
C	-0.6591184754	 1.7676832627	 0.3717141479	-0.391009
C	-0.38004248	 0.2696959499	 0.2337602214	-0.201059
C	-1.645918733	-0.6043782209	 0.1233383145	 0.340129
C	-1.2962729084	-2.1079769109	 0.0048147688	-0.192409
C	-0.5583285206	-2.6949920514	 1.2122196535	-0.391386
O	-2.4519193275	-0.3984110023	 1.3051292042	-0.307176
C	-3.7847347138	-0.04036216	 0.9565032148	-0.128846
C	-3.7691664636	 0.1175152421	-0.5380797333	-0.104186
C	-2.5647467299	-0.1872657501	-1.0035142526	-0.113239
H	 0.2743889409	 2.3256037275	 0.4929075561	 0.106154
H	-1.1780727464	 2.167205511	-0.5050107905	 0.112639
H	-1.2846026625	 1.9585072213	 1.2480000444	 0.127681
H	 0.2453094236	 0.0785342056	-0.6480356324	 0.088863
H	 0.1947700201	-0.0691611247	 1.1017539008	 0.106556
H	-2.2379732625	-2.6499045585	-0.140275064	 0.094645
H	-0.7082247654	-2.259690791	-0.9098386448	 0.087218
H	 0.4558963338	-2.2971800594	 1.3117255792	 0.114525
H	-1.1027860304	-2.4730533246	 2.1339323389	 0.133585
H	-0.4744348553	-3.7820695646	 1.1172674703	 0.106642
H	-4.4921461605	-0.8206963888	 1.2829029148	 0.101641
H	-4.0654122292	 0.8865692231	 1.4794040093	 0.105113
H	-4.6346977982	 0.4236073562	-1.1123630354	 0.104107
H	-2.2465770356	-0.1805558022	-2.0388468962	 0.099812
77.9109	88.6071	106.5417	195.1832	206.2551	211.7874	243.3033	307.5501	351.6993	391.4988	450.3963	552.9607	610.2518	731.9906	764.2668	779.968	784.9039	821.1464	919.7075	942.8237	951.3557	960.2441	989.0929	1024.2649	1041.3379	1047.0901	1077.468	1085.286	1114.9494	1146.2403	1188.6754	1201.8729	1216.796	1300.0294	1316.8607	1346.6031	1363.1366	1378.1364	1383.4258	1404.5967	1407.1277	1476.7945	1478.7652	1492.9421	1500.8599	1508.3758	1511.0119	1520.236	1692.0229	2965.1108	2993.8966	3019.7056	3028.5788	3041.5923	3042.8588	3059.7302	3075.1981	3105.6206	3108.1807	3119.8363	3123.704	3200.0918	3225.3041
CCC1(CC)OCC=C1	CCC1(CC)OCC=C1	
InChI=1S/C8H14O/c1-3-8(4-2)6-5-7-9-8/h5-6H,3-4,7H2,1-2H3	InChI=1S/C8H14O/c1-3-8(4-2)6-5-7-9-8/h5-6H,3-4,7H2,1-2H3
