17
gdb 60700	3.33359	0.66491	0.59919	2.4607	81.81	-0.2612	-0.0579	0.2033	1840.069	0.131217	-421.827633	-421.81694	-421.815996	-421.866526	35.262	
C	-0.1094203953	 1.514218424	 0.4748655912	-0.400181
C	-0.0250904708	 0.0873090137	-0.1254649478	-0.228151
C	 0.8482682585	-0.7771264399	 0.7923450053	 0.173755
O	 1.9844836871	-1.0741698248	 0.5477598506	-0.234233
C	-1.3446674192	-0.5097864644	-0.2723826301	 0.06107
C	-2.4363624829	-1.0166711587	-0.3738388567	 0.030061
C	-3.7530551686	-1.615245717	-0.5192110451	 0.25048
C	-4.1209752296	-2.6423339633	 0.5312685775	-0.478502
O	-4.4925782419	-1.3014034982	-1.4267061735	-0.27213
H	 0.8905923952	 1.9517306859	 0.529972666	 0.142032
H	-0.741403874	 2.1469573063	-0.1518201816	 0.149096
H	-0.5404008442	 1.4889974819	 1.4798526526	 0.136646
H	 0.4784231258	 0.1342866302	-1.0974150023	 0.138428
H	 0.3434242048	-1.0878761808	 1.734130279	 0.091144
H	-4.0809948188	-2.1917468868	 1.5289323707	 0.14585
H	-5.1232912181	-3.0245456132	 0.333194439	 0.145903
H	-3.3970136782	-3.4643718349	 0.5225928552	 0.148732
11.012	46.5151	76.6757	97.9092	122.3714	180.9797	219.7925	238.7708	296.6288	368.5568	440.2241	511.7295	522.6613	600.7713	611.7793	703.3698	877.0253	918.5432	956.732	1007.2534	1042.8184	1076.5373	1094.4329	1140.3714	1241.9876	1265.4898	1318.5983	1382.1192	1399.1662	1417.5187	1460.0988	1468.5937	1491.819	1496.9345	1770.1831	1843.263	2324.5579	2888.2227	3039.2587	3048.6147	3057.0254	3103.221	3126.8427	3137.7356	3152.9922
CC(C=O)C#CC(C)=O	C[C@@H](C=O)C#CC(=O)C	
InChI=1S/C7H8O2/c1-6(5-8)3-4-7(2)9/h5-6H,1-2H3	InChI=1S/C7H8O2/c1-6(5-8)3-4-7(2)9/h5-6H,1-2H3/t6-/m1/s1
