14
gdb 21298	7.21777	1.33965	1.14618	0.5977	60.18	-0.2574	-0.0112	0.2462	1013.2673	0.106862	-415.865819	-415.858143	-415.857199	-415.898496	26.243	
C	 0.012612801	 1.3750318436	 0.0257627302	-0.243534
O	 0.2806108528	-0.0302871924	 0.0815073334	-0.24225
C	 0.6921718524	-0.5784269756	-1.0516802483	 0.448923
N	 0.8593766699	 0.0767416858	-2.1766224533	-0.238722
O	 1.2962179522	-0.9408330055	-3.0495294496	-0.206119
C	 1.333808022	-2.0725511042	-2.3341958823	 0.424187
C	 1.7666286646	-3.3174391348	-3.0199016538	-0.493797
N	 0.9739935358	-1.9210588703	-1.0953828448	-0.363308
H	 0.9141849034	 1.9281537811	-0.2539789742	 0.145626
H	-0.7750555914	 1.5881979138	-0.7030515136	 0.145626
H	-0.3101362079	 1.6543523445	 1.028371538	 0.140146
H	 2.7802408993	-3.2051304838	-3.4161623195	 0.159079
H	 1.74442786	-4.1445714303	-2.3109938467	 0.165065
H	 1.1049683158	-3.542110852	-3.8617900453	 0.159077
55.2708	103.4171	172.5122	213.5557	236.6787	336.0343	383.2374	511.0691	661.0516	671.5117	755.4151	778.4128	935.1768	997.9772	1027.1189	1048.6029	1068.7441	1111.6911	1181.8483	1225.5983	1302.1051	1404.5095	1422.2838	1471.1286	1475.2521	1477.1455	1481.8044	1499.8079	1606.12	1644.217	3041.7125	3054.1497	3113.2914	3113.574	3159.3538	3165.42
COC1=NOC(C)=N1	COc1noc(C)n1	
InChI=1S/C4H6N2O2/c1-3-5-4(7-2)6-8-3/h1-2H3	InChI=1S/C4H6N2O2/c1-3-5-4(7-2)6-8-3/h1-2H3
