17
gdb 55449	3.4826	1.22034	0.93997	7.0448	69.88	-0.2367	0.0096	0.2463	1192.767	0.138691	-455.203321	-455.195317	-455.194373	-455.23638	29.714	
O	-0.0791337873	-0.0278635498	 0.4897816843	-0.370359
C	-0.0455408	 1.2559773782	 0.1232934865	 0.423197
O	 0.972252455	 1.8672027422	-0.0735738113	-0.354875
C	-1.4403099593	 1.8937576025	-0.0086048668	-0.114901
C	-1.5666068533	 2.7068985007	-1.3044411446	-0.209304
C	-2.9911855596	 3.2536471212	-1.4192634037	-0.177698
N	-3.9399612081	 2.1764654161	-1.1484281648	-0.289036
C	-3.5791557657	 1.0619129908	-0.4606358204	 0.096409
N	-2.4539639444	 0.8478618757	 0.1130155327	-0.298327
H	-1.0387241382	-0.2487483244	 0.5345157305	 0.306799
H	-1.529387452	 2.5793693219	 0.8482629003	 0.11591
H	-0.8343580682	 3.5154164045	-1.3160341505	 0.136121
H	-1.3541492602	 2.0549009586	-2.1587005121	 0.118632
H	-3.1436460622	 4.0813468278	-0.7135338004	 0.119845
H	-3.1756910163	 3.6436953086	-2.425143829	 0.119473
H	-4.853371463	 2.2075173109	-1.5665133263	 0.255685
H	-4.3511866171	 0.2940035947	-0.4092730842	 0.122429
73.7132	99.2706	204.6737	229.7931	270.3521	338.3362	411.8101	487.7537	535.9216	593.9934	610.4001	734.1613	792.2314	833.5382	866.3766	897.0011	934.62	972.0136	1003.2139	1041.993	1084.3126	1122.4826	1203.9508	1221.2637	1235.826	1258.7393	1301.516	1316.2817	1365.658	1370.8547	1418.6018	1448.9765	1483.0874	1506.6202	1535.272	1722.0863	1863.8472	2987.971	3012.5002	3054.0492	3076.0282	3129.9927	3133.4265	3427.28	3666.3366
[O-]C(=O)C1CCNC=[NH+]1	OC(=O)[C@H]1CCNC=N1	
InChI=1S/C5H8N2O2/c8-5(9)4-1-2-6-3-7-4/h3-4H,1-2H2,(H,6,7)(H,8,9)	InChI=1S/C5H8N2O2/c8-5(9)4-1-2-6-3-7-4/h3-4H,1-2H2,(H,6,7)(H,8,9)/t4-/m1/s1
