18
gdb 88217	3.73259	0.72322	0.65771	3.7934	86.1	-0.2465	-0.015	0.2315	1722.8254	0.146193	-401.947467	-401.937399	-401.936455	-401.984	35.401	
C	 0.1243261657	 1.5375399377	-0.2515166564	-0.411162
C	 0.0541010575	 0.0426936285	-0.0466149472	 0.016428
C	 1.2854024768	-0.805686128	-0.092655184	-0.284078
C	 0.5687537078	-0.6060067071	 1.2424314041	-0.200988
C	 1.1784361347	 0.1853615482	 2.263016012	 0.064201
C	 1.6922135628	 0.8619237284	 3.1222230701	 0.047401
C	 2.3451865574	 1.728844287	 4.0863430719	 0.254745
N	 2.1939970563	 1.3293815117	 5.3862710411	-0.521841
O	 2.9577935049	 2.7306477022	 3.7660464317	-0.340256
H	 1.0337280699	 1.956815483	 0.1868165733	 0.143887
H	 0.1181489478	 1.7786247552	-1.3198271411	 0.119608
H	-0.7301711021	 2.0404977457	 0.2127554155	 0.124667
H	-0.8508421649	-0.4253611724	-0.424973688	 0.094997
H	 1.2361438777	-1.7947705129	-0.5339085158	 0.120528
H	 2.239501209	-0.3033221948	-0.2061188378	 0.134012
H	-0.0043823042	-1.4548890762	 1.6031873115	 0.112077
H	 1.7893623121	 0.4377907653	 5.613383039	 0.262762
H	 2.7005829109	 1.8353312484	 6.09448562	 0.26301
28.1776	63.6975	91.1164	164.0491	170.4622	191.8165	240.3601	326.4629	377.2184	405.3322	514.419	545.6412	585.3973	625.0527	695.1052	758.4669	769.5536	836.8816	866.7997	927.3131	962.2117	1041.3682	1071.7385	1089.085	1097.7481	1140.2091	1155.4415	1200.1746	1232.4178	1343.2006	1383.8959	1406.1543	1425.9645	1484.4022	1493.553	1500.9063	1607.2452	1766.7199	2330.034	3037.0854	3098.8669	3117.5455	3139.163	3142.277	3151.8807	3230.229	3598.7243	3739.6357
CC1CC1C#CC(N)=O	C[C@H]1C[C@H]1C#CC(=O)N	
InChI=1S/C7H9NO/c1-5-4-6(5)2-3-7(8)9/h5-6H,4H2,1H3,(H2,8,9)	InChI=1S/C7H9NO/c1-5-4-6(5)2-3-7(8)9/h5-6H,4H2,1H3,(H2,8,9)/t5-,6+/m0/s1
