18
gdb 124987	3.10061	0.96778	0.78246	2.9914	74.69	-0.2443	-0.0059	0.2385	1436.4947	0.14679	-439.084667	-439.075336	-439.074392	-439.120091	32.679	
C	 0.2168621855	 1.5279242931	 0.1509865147	-0.494627
C	 0.0190810007	 0.0609729452	 0.0011776569	 0.349814
C	-1.0874614382	-0.7373808132	-0.0646396402	 0.052737
C	-2.5359564033	-0.3594456553	-0.0284931749	-0.320148
C	-3.1837776529	-0.3560554733	-1.4155955234	-0.05946
O	-4.5464856941	-0.0054899739	-1.2476299721	-0.416348
C	-0.5239666342	-2.0403251051	-0.2007522763	-0.032346
N	 0.7837391356	-2.0313162766	-0.2141750872	-0.145113
O	 1.1348566209	-0.6893743472	-0.0853501536	-0.211884
H	 0.8483490935	 1.7500402375	 1.0171990075	 0.15219
H	 0.7081449339	 1.9518282566	-0.7313301816	 0.150594
H	-0.743410749	 2.0300827859	 0.2837114183	 0.141964
H	-3.0968474157	-1.0538366971	 0.6072287119	 0.121155
H	-2.6638432323	 0.6347496933	 0.4121488703	 0.11428
H	-2.6560925105	 0.360924958	-2.0643841104	 0.089864
H	-3.0752122218	-1.3510928188	-1.8759757863	 0.091372
H	-4.9683024571	-0.0051293114	-2.1116750666	 0.288769
H	-1.0413839609	-2.9870272178	-0.2827937272	 0.127188
39.9431	91.177	99.2198	121.2106	239.7839	253.456	256.3425	346.1571	365.2083	421.7134	642.168	657.8985	687.6079	775.0366	794.3398	912.0133	915.2055	961.4055	1006.8013	1009.3188	1040.585	1063.9088	1082.1505	1178.1027	1205.287	1231.7279	1241.4739	1263.7632	1311.5369	1336.5036	1402.7775	1422.9203	1455.3575	1474.3118	1483.1204	1492.4612	1518.7751	1526.1021	1672.2023	2968.3692	2996.6046	3041.8114	3043.2426	3085.8961	3098.0395	3136.2635	3231.4063	3832.7714
CC1=C(CCO)C=NO1	Cc1c(CCO)cno1	
InChI=1S/C6H9NO2/c1-5-6(2-3-8)4-7-9-5/h4,8H,2-3H2,1H3	InChI=1S/C6H9NO2/c1-5-6(2-3-8)4-7-9-5/h4,8H,2-3H2,1H3
