25
gdb 108665	1.75209	1.5116	0.98784	0.1657	96.36	-0.2154	0.0355	0.251	1384.2437	0.228444	-352.393037	-352.382475	-352.381531	-352.428815	39.236	
C	-0.150665918	 1.7660999783	 0.2137831256	-0.368848
C	-0.026048574	 0.2503328219	-0.0307558668	-0.298585
C	-1.3494363693	-0.4632190638	-0.02122998	 0.236623
C	-2.0054538987	-0.988566928	-1.0664690968	 0.211364
C	-1.5875992703	-1.0369432309	-2.5039460479	-0.498024
C	-3.3119594249	-1.6279693311	-0.6412549397	-0.288268
C	-3.5110805589	-1.1182120672	 0.8030355419	-0.224139
C	-2.0984238377	-0.6994049318	 1.2858309853	-0.059946
C	-1.4203761488	-1.7746544325	 2.1558892389	-0.390781
H	 0.8346644456	 2.2431554923	 0.2175045293	 0.109291
H	-0.7544736709	 2.2379974702	-0.5677037455	 0.117213
H	-0.627122892	 1.9798965456	 1.1757081827	 0.118562
H	 0.4892951463	 0.0848682068	-0.9825042889	 0.098045
H	 0.6255961252	-0.1769186525	 0.7433661436	 0.099939
H	-1.5352397269	-2.0740536244	-2.8614630274	 0.121487
H	-2.3212512211	-0.5289978979	-3.1436860309	 0.121441
H	-0.6140600596	-0.5731673716	-2.679572039	 0.120342
H	-4.1449655858	-1.3539395421	-1.3008087735	 0.093466
H	-3.2393744787	-2.7248015097	-0.6912996613	 0.097752
H	-4.1679116615	-0.2425691994	 0.7912742398	 0.096617
H	-3.974941367	-1.8603854013	 1.4596783157	 0.088655
H	-2.1547369246	 0.2206482226	 1.8821536417	 0.064666
H	-1.3748378865	-2.7331052858	 1.6269384439	 0.113511
H	-0.3961638093	-1.4942732532	 2.4233348625	 0.110951
H	-1.9747964625	-1.9276739542	 3.0880902268	 0.108667
44.3857	85.8325	142.4739	158.5584	174.2896	207.2754	234.7995	275.3057	308.8686	372.7191	389.1845	415.229	563.9658	600.9537	663.0764	731.5033	770.631	796.4289	892.5142	898.5285	952.332	956.5637	988.6748	998.1304	1021.9504	1048.6495	1077.9624	1101.0411	1120.672	1122.4578	1188.959	1195.8408	1228.1726	1257.6482	1293.0955	1308.4836	1327.593	1347.2351	1353.003	1364.4063	1401.5745	1405.3697	1414.5485	1477.5468	1480.2551	1483.9071	1491.6813	1495.5987	1497.2883	1499.2918	1501.9355	1509.3308	1732.4496	2993.8084	3009.1446	3012.6168	3017.0061	3026.4105	3033.2372	3034.8338	3051.0857	3053.5644	3065.5762	3088.2098	3094.9475	3097.6037	3103.932	3108.7665	3114.2665
CCC1=C(C)CCC1C	CCC1=C(C)CC[C@H]1C	
InChI=1S/C9H16/c1-4-9-7(2)5-6-8(9)3/h7H,4-6H2,1-3H3	InChI=1S/C9H16/c1-4-9-7(2)5-6-8(9)3/h7H,4-6H2,1-3H3/t7-/m1/s1
