19
gdb 76007	2.5068	1.18784	1.04866	0.6941	90.81	-0.2351	0.0255	0.2605	1254.1862	0.155011	-348.683665	-348.673369	-348.672424	-348.718311	38.281	
C	-0.1341373335	 1.5503795931	-0.0268146886	-0.42434
C	 0.0229081586	 0.0492100041	 0.0439919852	-0.042161
C	 1.3608326986	-0.6342829441	-0.1957668592	-0.278198
C	 2.5550683049	 0.1208165756	-0.4246437718	 0.336512
C	 3.5622291313	 0.7476509795	-0.6291030953	-0.444595
C	 0.7042096163	-0.6544102742	 1.2089899064	 0.088707
C	 1.3343959995	 0.1384541892	 2.343723709	-0.45855
C	 0.1460073496	-1.9197127568	 1.6081908772	 0.271548
C	-0.3189380433	-2.9741791642	 1.9546173738	-0.438658
H	 0.7770399072	 2.0756658885	 0.2650762016	 0.134454
H	-0.3707038758	 1.8538441848	-1.05202355	 0.126361
H	-0.9509407684	 1.889031917	 0.6190674083	 0.123236
H	-0.8186849693	-0.5037277706	-0.3624357212	 0.102142
H	 1.3179337382	-1.5810691366	-0.7246079504	 0.123824
H	 4.4546196915	 1.2936131308	-0.8106603502	 0.195991
H	 1.836452473	 1.0346871358	 1.9778305866	 0.132094
H	 0.5725965523	 0.4334943027	 3.0717308343	 0.12603
H	 2.0778158758	-0.4736093194	 2.8622137649	 0.133298
H	-0.7294625067	-3.9045329051	 2.2598999794	 0.192304
106.2767	124.4031	140.8999	151.6266	159.7001	177.0426	254.7891	316.1084	353.98	418.9602	468.0059	531.6756	560.2845	581.1331	590.275	596.822	645.5218	652.3278	685.3511	767.1082	833.8595	942.9185	962.8696	1017.5572	1031.6558	1091.5763	1125.3581	1128.6969	1151.8054	1247.395	1292.4582	1359.2905	1401.3714	1420.7909	1425.5277	1479.5931	1488.8311	1496.4349	1508.3693	2228.0933	2232.9308	3039.9562	3048.3455	3097.871	3111.6177	3129.3241	3144.0404	3153.527	3162.2218	3502.2361	3503.3586
CC1C(C#C)C1(C)C#C	C[C@H]1[C@@H](C#C)[C@]1(C)C#C	
InChI=1S/C9H10/c1-5-8-7(3)9(8,4)6-2/h1-2,7-8H,3-4H3	InChI=1S/C9H10/c1-5-8-7(3)9(8,4)6-2/h1-2,7-8H,3-4H3/t7-,8+,9+/m0/s1
