21
gdb 121760	6.90949	0.49542	0.469	4.7566	77.58	-0.2452	-0.01	0.2352	2314.8571	0.178279	-461.357303	-461.34582	-461.344875	-461.397617	38.056	
C	 0.0409689681	 1.4362050199	-0.1011407453	-0.225827
O	 0.0005074179	 0.0330403359	 0.0089380561	-0.209279
C	 0.6067160519	-0.6131606354	-1.0665248749	-0.145527
C	 0.5314377665	-2.1297308151	-0.8907702823	 0.343464
O	 0.0033042099	-2.6412303053	 0.0634554577	-0.271338
C	 1.1761245256	-2.9365462561	-2.0134412878	-0.315643
C	 1.0683057923	-4.4465313592	-1.8110801531	-0.160984
C	 1.7202895591	-5.2310508001	-2.9412379433	-0.077479
O	 1.5639176047	-6.6115636151	-2.6569287314	-0.418601
H	 1.0749505566	 1.8153849801	-0.1356875004	 0.104246
H	-0.4843537427	 1.7923848668	-1.0018374303	 0.104272
H	-0.4557192006	 1.8435239494	 0.7822003977	 0.134999
H	 0.1267990366	-0.3504424391	-2.0284131967	 0.102577
H	 1.6705064055	-0.3273044699	-1.1724129302	 0.102325
H	 0.712972982	-2.6307684515	-2.9628963187	 0.119031
H	 2.227325409	-2.6235579881	-2.0956614469	 0.119697
H	 1.5340340044	-4.7289113909	-0.8620018204	 0.123712
H	 0.0162979787	-4.7374100354	-1.7319984599	 0.12317
H	 1.2481407688	-4.9652226483	-3.9024460905	 0.080739
H	 2.7863355018	-4.9575942477	-3.0201752779	 0.080826
H	 1.9767708039	-7.1145699848	-3.3647675716	 0.285619
5.9608	49.2178	83.0968	86.7838	97.2742	128.1779	193.3492	238.2284	263.9849	276.1618	323.8297	380.1237	472.9859	497.2243	693.0766	734.2747	827.1627	883.4976	960.8327	963.2253	1030.4346	1059.209	1079.2897	1101.546	1123.0639	1175.606	1183.4477	1206.1961	1238.6233	1244.1104	1260.1271	1302.7943	1308.6915	1313.4724	1385.2829	1408.6428	1454.2869	1467.1542	1469.9696	1486.7594	1492.1517	1493.8003	1516.9349	1528.1932	1831.5028	2927.3013	2945.0357	2949.7226	2968.2663	2973.0236	3007.3517	3011.497	3034.1487	3062.8915	3105.6469	3120.6419	3830.2959
COCC(=O)CCCO	COCC(=O)CCCO	
InChI=1S/C6H12O3/c1-9-5-6(8)3-2-4-7/h7H,2-5H2,1H3	InChI=1S/C6H12O3/c1-9-5-6(8)3-2-4-7/h7H,2-5H2,1H3
