20
gdb 103139	2.30716	1.43308	1.14052	2.9776	76.12	-0.2635	0.022	0.2856	1169.9622	0.169866	-440.293613	-440.284062	-440.283117	-440.327601	35.678	
C	-0.3100046326	 1.5042181159	-0.0661492507	-0.411673
C	 0.1182497979	 0.0560211991	-0.018218479	 0.093229
O	 1.4042784041	-0.1632188732	-0.7163249561	-0.275836
C	 1.955030713	-0.7313669658	 0.4004454462	 0.433825
N	 3.0672014952	-1.2901860837	 0.5894129683	-0.57006
C	 0.7340560148	-0.5563470023	 1.278457129	 0.10181
C	 0.90744519	 0.346525137	 2.4969324327	-0.452207
C	 0.1858049727	-1.940143449	 1.6797566367	-0.102898
O	 1.0863027159	-2.6188318517	 2.5252912935	-0.42157
H	 0.4536519824	 2.1653965182	 0.3497935791	 0.132227
H	-0.4978896518	 1.8045530266	-1.1012479029	 0.135589
H	-1.2369501542	 1.6421380151	 0.5001302652	 0.129087
H	-0.6370641988	-0.589566893	-0.4793441183	 0.094134
H	 3.6449036767	-1.2950742645	-0.2525818879	 0.229031
H	 1.4607597909	 1.2596622353	 2.265160126	 0.121554
H	-0.0682954846	 0.6279298831	 2.9078778451	 0.116955
H	 1.4549929217	-0.2007344825	 3.2670668592	 0.152276
H	-0.7522414615	-1.8284064594	 2.2364290894	 0.105797
H	-0.0349233956	-2.5223662001	 0.7696561025	 0.087829
H	 1.9486090637	-2.6130136352	 2.0819670221	 0.300902
90.526	132.7614	160.8549	209.0907	217.7441	239.5306	271.0104	288.8426	320.1479	428.0556	472.8651	534.977	552.181	682.5354	727.5118	738.4951	849.5386	860.7624	868.2565	957.1034	978.8875	1034.8342	1039.4523	1063.8208	1080.6337	1116.9454	1170.86	1200.7425	1215.9822	1246.4757	1286.1686	1363.5527	1382.0301	1385.4206	1412.5133	1413.5683	1454.1482	1478.0593	1488.896	1496.6556	1506.1606	1510.4643	1803.3772	2963.1649	3040.3049	3044.8793	3051.6208	3055.1386	3110.9154	3113.7161	3131.1869	3138.0259	3476.8204	3704.5464
CC1OC(=N)C1(C)CO	C[C@H]1O[C]([NH])[C@]1(C)CO	
InChI=1S/C6H11NO2/c1-4-6(2,3-8)5(7)9-4/h4,7-8H,3H2,1-2H3	InChI=1S/C6H11NO2/c1-4-6(2,3-8)5(7)9-4/h4,7-8H,3H2,1-2H3/t4-,6-/m1/s1
