17
gdb 54338	1.94173	1.79476	1.17976	2.8046	73.49	-0.2481	-0.0463	0.2018	1090.7373	0.134807	-418.01132	-418.002212	-418.001267	-418.045628	32.609	
C	 0.4877953526	 1.4378689828	 0.040646293	-0.492687
C	-0.1536018208	 0.0682238058	 0.0251247161	 0.334403
O	-0.7818919554	-0.3762706946	 0.95513695	-0.291583
C	-0.0549438256	-0.7338154067	-1.3006098566	 0.087407
C	-0.6495808975	-2.1667915244	-1.1823253182	-0.270692
C	-1.9527523336	-1.574387199	-1.7680410886	-0.160193
N	-1.190236698	-0.3723043792	-2.2026489489	-0.33941
C	 1.2644356696	-0.6017728987	-1.9211899075	 0.252709
N	 2.3213393428	-0.5040915652	-2.3793610731	-0.341699
H	 1.5770283498	 1.3251591055	 0.0784889114	 0.176927
H	 0.2683884623	 1.994290814	-0.8767551601	 0.147396
H	 0.1469642181	 1.9941665158	 0.9140146094	 0.149735
H	-0.1535939538	-2.8770159853	-1.842763747	 0.133298
H	-0.6970811623	-2.5462224771	-0.1640794966	 0.143553
H	-2.4162652591	-2.1107724998	-2.6000420128	 0.119072
H	-2.7043577807	-1.3778281128	-0.9964797549	 0.121902
H	-1.6208312786	 0.5285470889	-2.0144257755	 0.229863
53.4836	126.4032	139.4217	145.3513	185.2617	227.3716	303.356	372.3403	489.246	539.1005	550.6898	585.3564	615.9862	683.3347	769.7488	863.4695	925.1102	958.5411	968.8152	1006.6334	1021.2832	1066.1578	1104.4171	1167.1812	1190.9165	1211.3582	1225.5638	1273.9901	1323.566	1374.5598	1390.0351	1456.9258	1466.589	1471.248	1519.6206	1811.2931	2349.3284	3042.9491	3044.4073	3095.0056	3103.097	3109.8877	3158.5211	3179.2255	3507.1473
CC(=O)C1(CCN1)C#N	CC(=O)[C@]1(CCN1)C#N	
InChI=1S/C6H8N2O/c1-5(9)6(4-7)2-3-8-6/h8H,2-3H2,1H3	InChI=1S/C6H8N2O/c1-5(9)6(4-7)2-3-8-6/h8H,2-3H2,1H3/t6-/m0/s1
