16
gdb 32485	6.62499	0.84043	0.75064	5.4323	79.84	-0.21	-0.0533	0.1568	1456.3485	0.124303	-437.914125	-437.905703	-437.904759	-437.947467	30.487	
C	-0.0255574313	 1.443782325	-0.0658915036	-0.33087
N	 0.0247237975	 0.0088734781	 0.1517914543	-0.3874
C	-1.1649405877	-0.7010237035	 0.0677639217	 0.296839
C	-2.450603525	-0.2103994618	 0.059382583	-0.085352
O	-3.3554290896	-1.222261932	 0.0353278252	-0.165053
C	-2.6530643554	-2.3824010976	 0.0129671226	 0.294233
C	-3.3618425052	-3.6504226221	-0.0248305499	 0.071958
O	-4.5644570607	-3.7898195484	-0.0383841537	-0.281693
C	-1.3063337954	-2.1206347405	 0.034609542	-0.371648
H	 0.9865697351	 1.850628487	-0.0176133512	 0.130168
H	-0.4747444512	 1.7256201857	-1.0319109692	 0.115664
H	-0.6127320649	 1.915884382	 0.7296358436	 0.137285
H	 0.792344069	-0.4454903736	-0.320478858	 0.240103
H	-2.8583095839	 0.7856484005	 0.0790816681	 0.139667
H	-2.6686890524	-4.5208056553	-0.0410286671	 0.073456
H	-0.5148163788	-2.8552326634	 0.0323938425	 0.122641
75.3867	127.9218	148.3546	204.4759	245.2382	284.0103	359.0687	380.555	497.6355	592.4105	639.0584	655.3872	702.9211	732.2631	789.1572	820.5641	958.7696	994.0529	1016.9669	1078.6399	1143.5698	1163.8265	1174.8393	1199.2517	1275.6926	1350.3219	1388.8285	1411.038	1461.4488	1483.131	1503.3907	1523.9628	1556.817	1655.279	1788.2158	2882.5905	2975.1781	3063.5888	3125.398	3247.7678	3287.9292	3597.6766
CNC1=COC(C=O)=C1	CNc1coc(C=O)c1	
InChI=1S/C6H7NO2/c1-7-5-2-6(3-8)9-4-5/h2-4,7H,1H3	InChI=1S/C6H7NO2/c1-7-5-2-6(3-8)9-4-5/h2-4,7H,1H3
