15
gdb 25506	4.38353	1.12859	0.89751	1.7923	78.3	-0.2375	-0.0306	0.2069	1209.6049	0.115806	-416.892226	-416.88501	-416.884066	-416.924441	27.01	
O	 1.7192434891	 3.9874835875	 0.9230945426	-0.302512
C	 0.919312024	 3.106108263	 0.7039837228	 0.157501
N	 1.2079040448	 1.8286082162	 0.3027005195	-0.39926
C	 2.4627020907	 1.2477178465	 0.0556974866	 0.331992
C	 2.4976707762	-0.0940967247	-0.3482851317	-0.061149
N	 3.6127749265	-0.7633928858	-0.6137528968	-0.256615
C	 4.7708637187	-0.1077750494	-0.4847981683	-0.006572
C	 4.8450675001	 1.2238760277	-0.0901661957	-0.100384
C	 3.6779976253	 1.9260937815	 0.1881477519	-0.178895
H	-0.174270188	 3.2450003327	 0.8094727965	 0.089392
H	 0.4116014764	 1.2228060604	 0.1668115294	 0.256046
H	 1.5629308	-0.6452493356	-0.4589028497	 0.095576
H	 5.6717941994	-0.673193644	-0.7066651187	 0.110245
H	 5.8086911139	 1.7131465502	 0.0002822014	 0.107742
H	 3.6886199029	 2.9606519639	 0.4975474901	 0.156892
61.91	180.5415	196.2896	318.2722	338.7514	423.6271	519.4605	539.553	594.7109	634.458	736.2711	787.9414	840.8926	875.1511	932.538	969.0496	1007.6164	1021.0517	1032.2381	1065.6138	1133.9848	1152.5851	1229.8452	1266.1095	1326.7098	1357.3762	1437.2125	1449.2359	1515.984	1550.7123	1620.1706	1628.9449	1807.0303	2945.6882	3115.1272	3164.0951	3195.0929	3254.4482	3606.8606
O=CNC1=CN=CC=C1	O=CNc1cnccc1	
InChI=1S/C6H6N2O/c9-5-8-6-2-1-3-7-4-6/h1-5H,(H,8,9)	InChI=1S/C6H6N2O/c9-5-8-6-2-1-3-7-4-6/h1-5H,(H,8,9)
