25
gdb 103370	2.79003	1.35054	1.21803	0.0879	91.58	-0.2733	0.0819	0.3552	1206.2834	0.23087	-352.35175	-352.342732	-352.341788	-352.385606	36.299	
C	-1.4611698806	-0.6040044454	 0.17050582	-0.386655
C	-0.0534051576	-0.026669431	-0.0327122938	-0.245977
C	 0.6889452977	-0.5314257492	-1.2916391614	 0.37668
C	 0.0605570136	 0.1365207846	-2.5195110955	-0.478665
C	 2.2585425389	-0.4972349465	-1.1395589245	-0.053858
C	 2.1308533665	-1.818708555	-0.3249661762	-0.237151
C	 0.9731538036	-2.0838399267	-1.3284035362	-0.045483
C	 1.7761925292	-2.2643569435	-2.6343878513	-0.222164
C	 2.758865986	-1.0501855495	-2.4899088272	-0.223819
H	-2.1196951139	-0.3995001787	-0.6791324706	 0.116276
H	-1.4318679608	-1.6891597051	 0.3125659798	 0.117449
H	-1.93062698	-0.1684712252	 1.0584273709	 0.109827
H	-0.1246605616	 1.0665039662	-0.1072117781	 0.089123
H	 0.5295993517	-0.2164236046	 0.8718498759	 0.094686
H	 0.1603484602	 1.2261397925	-2.4487742848	 0.110341
H	 0.5089037472	-0.1702901182	-3.4648020267	 0.114153
H	-1.009550962	-0.0863394153	-2.585519965	 0.113587
H	 2.7662896167	 0.3828905589	-0.7389986471	 0.049165
H	 2.9825501331	-2.5050591589	-0.3592327932	 0.08168
H	 1.8150171355	-1.6907016132	 0.7082609441	 0.097179
H	 0.1891396175	-2.8154238169	-1.1261365776	 0.051188
H	 2.2999779269	-3.2245406262	-2.6505172697	 0.091616
H	 1.1586998523	-2.2138397894	-3.5344907378	 0.094466
H	 2.6762151382	-0.3308981013	-3.3083345625	 0.094433
H	 3.805160612	-1.3640165823	-2.4333694012	 0.091925
32.8521	148.4846	168.1433	207.5296	302.669	322.149	355.6536	405.0358	420.5216	500.7776	513.8332	630.8081	670.3319	776.0855	815.2508	832.7838	841.7897	867.7411	892.7197	906.2281	938.8305	961.7326	990.4176	1001.5997	1007.9832	1021.4543	1045.5398	1055.8699	1093.0794	1110.2882	1139.6591	1179.8079	1191.0549	1213.5613	1225.6429	1250.356	1254.1405	1260.896	1279.5974	1308.8918	1323.0005	1348.5509	1363.39	1406.4038	1415.6241	1478.262	1487.142	1495.8579	1499.8553	1504.0479	1512.3785	1520.2583	1535.9923	3021.2855	3033.4971	3036.9443	3052.8492	3057.2851	3061.8623	3078.3932	3088.4871	3089.189	3090.1173	3097.597	3102.36	3105.1236	3109.3888	3133.6426	3149.4445
CCC1(C)C2CC1CC2	CC[C@@]1(C)[C@H]2C[C@@H]1CC2	
InChI=1S/C9H16/c1-3-9(2)7-4-5-8(9)6-7/h7-8H,3-6H2,1-2H3	InChI=1S/C9H16/c1-3-9(2)7-4-5-8(9)6-7/h7-8H,3-6H2,1-2H3/t7-,8+,9+
