20
gdb 99116	2.89205	1.09114	0.93749	2.0143	75.77	-0.2432	0.0078	0.251	1337.3949	0.169462	-440.296145	-440.28614	-440.285196	-440.331957	35.529	
C	-0.817997294	-0.402024379	 0.8153716405	-0.240932
O	-0.2513941644	-1.56848341	 0.2019979242	-0.230384
C	 1.0479584128	-1.4590841285	-0.1580913524	 0.448506
O	 1.7114179699	-0.4725146905	 0.0362426604	-0.357853
C	 1.5081199062	-2.7153837081	-0.8715862672	-0.386124
C	 1.2117257024	-2.6232168189	-2.3699026592	 0.339564
C	 2.082690068	-1.6550069694	-3.1431580713	-0.446466
C	 0.6648523869	-3.83341499	-3.036976916	-0.288047
N	-0.2015958374	-2.6659603064	-2.7875825046	-0.344488
H	-0.2698321648	-0.1425640733	 1.7241914173	 0.142927
H	-0.783741552	 0.4476173909	 0.129014166	 0.144889
H	-1.8499044076	-0.6616924585	 1.0512097554	 0.133606
H	 2.583731366	-2.8200091692	-0.7065063269	 0.130098
H	 0.9964329093	-3.5801975701	-0.4413589345	 0.115611
H	 3.1265051416	-1.9883055797	-3.1459523566	 0.114604
H	 1.7356190819	-1.581175334	-4.1761577644	 0.126587
H	 2.053011107	-0.6564256744	-2.6963380384	 0.139276
H	 0.8880992149	-4.0189739994	-4.0844100443	 0.116925
H	 0.5217252025	-4.7314358917	-2.4408408476	 0.108298
H	-0.7962193492	-2.8335712698	-1.9792598206	 0.233402
44.6364	69.1041	106.6901	127.9039	202.9729	212.969	271.338	328.4431	334.3596	392.2968	417.3367	451.551	624.3875	705.0345	793.4558	841.5074	864.9594	920.3149	924.7167	945.2621	977.4436	1030.99	1064.3621	1082.9324	1113.6796	1142.0574	1171.7448	1179.4386	1209.4927	1252.8857	1276.28	1318.6443	1340.0209	1392.0835	1425.2954	1468.6433	1474.28	1481.923	1488.7019	1496.5612	1497.5445	1515.239	1822.6208	3037.1693	3054.2442	3061.3798	3102.3281	3102.5352	3117.7488	3129.3174	3130.4271	3161.0256	3186.4618	3500.466
COC(=O)CC1(C)CN1	COC(=O)C[C@@]1(C)CN1	
InChI=1S/C6H11NO2/c1-6(4-7-6)3-5(8)9-2/h7H,3-4H2,1-2H3	InChI=1S/C6H11NO2/c1-6(4-7-6)3-5(8)9-2/h7H,3-4H2,1-2H3/t6-/m0/s1
