18
gdb 63254	2.64583	1.32521	1.09768	6.0373	73.71	-0.2331	-0.0611	0.172	1164.7658	0.146542	-439.151863	-439.142981	-439.142037	-439.185786	33.509	
C	-0.1179804803	 1.5870863436	-0.0018367051	-0.419368
C	-0.0020661477	 0.0582205976	-0.0272689277	 0.265121
C	-1.3954280838	-0.5900169859	 0.0335126174	-0.408503
C	 0.805136634	-0.4529095346	-1.2504156203	-0.379364
C	 1.8315574177	-1.4330967294	-0.6978764641	 0.311281
O	 2.5334761999	-2.1859795043	-1.3123997614	-0.279242
C	 1.8229609982	-1.2883516469	 0.8415623004	 0.305397
O	 2.5522793102	-1.8414287322	 1.6305949196	-0.354501
N	 0.8197133593	-0.4022360662	 1.1026730048	-0.325299
H	 0.8718369465	 2.0520376186	-0.016028989	 0.12768
H	-0.6825183903	 1.9435988594	-0.8689297817	 0.127705
H	-0.6417160289	 1.9245718761	 0.8993848524	 0.118119
H	-2.0130879983	-0.2580168912	-0.8068822507	 0.125696
H	-1.3198033774	-1.680953213	-0.0021726138	 0.12859
H	-1.911115429	-0.3157862814	 0.9598990777	 0.118449
H	 0.1807394153	-0.9252506138	-2.0117758016	 0.14135
H	 1.3478043377	 0.3659011318	-1.7360982293	 0.143434
H	 0.5755273669	-0.1779598883	 2.0565417024	 0.253456
39.7359	92.975	242.5674	271.2781	311.2266	321.7941	332.4532	350.1004	369.9879	457.3288	540.134	566.5169	591.9449	636.9188	682.1557	732.6434	841.9767	904.8362	945.2383	958.2161	973.0743	1025.8795	1087.0831	1112.127	1198.6212	1240.9679	1259.456	1276.5622	1311.5522	1402.4437	1409.1143	1423.1346	1450.6458	1480.1331	1486.9778	1503.2867	1505.8972	1837.5258	1865.9379	3030.4636	3035.5082	3053.7783	3100.1102	3106.6726	3112.6894	3114.6463	3118.1991	3611.9003
CC1(C)CC(=O)C(=O)N1	CC1(C)CC(=O)C(=O)N1	
InChI=1S/C6H9NO2/c1-6(2)3-4(8)5(9)7-6/h3H2,1-2H3,(H,7,9)	InChI=1S/C6H9NO2/c1-6(2)3-4(8)5(9)7-6/h3H2,1-2H3,(H,7,9)
