16
gdb 11316	5.3084	1.22212	1.0404	3.4392	69.78	-0.2508	-0.0595	0.1914	1086.8755	0.130347	-383.763012	-383.755261	-383.754317	-383.795366	28.161	
O	-0.0510760969	 1.458489798	 0.0121473426	-0.425895
C	 0.0421567226	 0.0403319093	-0.024347046	 0.095358
C	-1.3791795862	-0.5631763926	-0.0572381517	-0.231604
C	-1.2949440564	-1.7948731002	-0.9900977635	-0.318251
C	-0.052877148	-1.5132675848	-1.8069381382	 0.245971
C	 0.3153831871	-2.2654238322	-3.0108953562	 0.074569
O	-0.3290301698	-3.1879531685	-3.458723087	-0.267025
C	 0.6710571063	-0.5144704883	-1.2842513788	-0.19255
H	 0.8171242407	 1.817416744	 0.2204028755	 0.284928
H	 0.6048045794	-0.319944761	 0.8538717479	 0.080875
H	-1.7607688331	-0.7964228392	 0.9386516371	 0.106006
H	-2.0313733492	 0.1989758966	-0.4945711716	 0.127092
H	-1.1733619756	-2.7281152689	-0.4263958931	 0.120338
H	-2.179934891	-1.9304911016	-1.6177078619	 0.126913
H	 1.2519687012	-1.9225669716	-3.5052956519	 0.06765
H	 1.6124059487	-0.1482648688	-1.6835487333	 0.105625
85.6545	126.2118	179.9551	226.3341	252.7325	365.5208	420.3139	454.1582	563.539	609.3795	719.8361	834.1827	860.8822	889.3326	903.3611	975.7928	1018.9836	1037.6515	1054.9544	1090.2453	1153.5742	1175.3897	1237.6832	1263.0192	1281.0608	1306.912	1328.9057	1371.5048	1406.4962	1426.0628	1483.546	1498.9599	1682.976	1786.1177	2878.9406	2949.8631	3037.1977	3065.3026	3090.3999	3119.7238	3180.8163	3822.4025
OC1CCC(C=O)=C1	O[C@H]1CCC(=C1)C=O	
InChI=1S/C6H8O2/c7-4-5-1-2-6(8)3-5/h3-4,6,8H,1-2H2	InChI=1S/C6H8O2/c7-4-5-1-2-6(8)3-5/h3-4,6,8H,1-2H2/t6-/m0/s1
