16
gdb 43959	3.14046	1.68457	1.51794	2.9254	74.23	-0.2454	-0.0024	0.243	918.383	0.125969	-400.711221	-400.704541	-400.703597	-400.742045	27.291	
N	 0.0378605132	 1.2234521235	-0.0100112499	-0.55557
C	-0.0236246736	-0.0248258851	 0.0564340162	 0.38776
O	 1.0032718356	-0.9725567655	 0.1792237399	-0.301447
C	 0.0322988136	-2.0402342642	-0.0287880814	 0.359065
C	-0.9511728068	-2.0743134733	 1.0791784823	-0.355262
C	-1.1198929849	-1.0470041044	-0.0506641687	 0.061007
C	-1.9169106206	-1.4039701101	-1.2561626819	-0.166057
C	-1.3398300225	-2.4195975714	-1.9148371301	-0.058132
C	-0.0222751267	-2.8805784214	-1.2879715307	-0.353409
H	 1.0037801255	 1.5507082108	 0.0486097799	 0.231069
H	-1.6817037721	-2.8757831966	 1.0693890814	 0.135949
H	-0.641368947	-1.7333784554	 2.0610366549	 0.137754
H	-2.8388237333	-0.9148158306	-1.5455702231	 0.113341
H	-1.7498416356	-2.8975869018	-2.7992268125	 0.104345
H	 0.8342724461	-2.6596362977	-1.9361112583	 0.136355
H	-0.0028797907	-3.9584665766	-1.092255838	 0.123232
133.6613	210.0678	314.1245	382.9297	410.5712	483.8445	612.3164	628.0205	653.761	668.7607	764.0689	812.7325	843.4728	866.2304	876.5205	906.7	920.259	946.3654	950.0188	968.5943	982.6729	1070.1179	1080.8954	1128.8542	1148.018	1190.4495	1243.5609	1281.6984	1316.9727	1367.9364	1374.7252	1466.4346	1476.1323	1639.743	1823.0242	3037.6562	3071.1163	3135.4424	3181.1861	3215.178	3231.7714	3477.589
N=C1OC23CC12C=CC3	[NH][C]1O[C@@]23C[C@@]12C=CC3	
InChI=1S/C7H7NO/c8-5-6-2-1-3-7(6,4-6)9-5/h1-2,8H,3-4H2	InChI=1S/C7H7NO/c8-5-6-2-1-3-7(6,4-6)9-5/h1-2,8H,3-4H2/t6-,7-/m0/s1
