14
gdb 125133	3.28158	1.1239	0.87044	1.5137	66.08	-0.263	-0.0328	0.2303	1244.9258	0.099336	-473.834237	-473.82593	-473.824986	-473.868593	28.418	
C	-0.1411571205	 1.3936013541	 0.1377535854	-0.499623
C	-0.0927179009	-0.0861420468	 0.0397689957	 0.353019
C	-1.0139084189	-1.0233574278	-0.3241521417	 0.109965
O	-2.2920756181	-0.7788384788	-0.7661116093	-0.220809
C	-3.3222428686	-1.2345856876	 0.0095958219	 0.152717
O	-4.4575783881	-1.1057210322	-0.3169611089	-0.246441
C	-0.3292168489	-2.2636894471	-0.2283014175	-0.040287
N	 0.9050870244	-2.0938998096	 0.1723295423	-0.127853
O	 1.0560987593	-0.7160089221	 0.3360563642	-0.205107
H	 0.5971926028	 1.8534334885	-0.5267194335	 0.160703
H	-1.1345779798	 1.7459643555	-0.1463888056	 0.157102
H	 0.0750145094	 1.7271574709	 1.1576603174	 0.157572
H	-2.9627598946	-1.7138076116	 0.9378192741	 0.100567
H	-0.6947291775	-3.2586023555	-0.4393744745	 0.148475
36.4857	107.9355	133.0018	149.6952	239.4907	249.1188	405.822	462.4578	488.0097	642.652	682.1054	693.853	842.8872	902.7078	905.0325	952.7659	1010.947	1043.63	1065.6639	1113.8079	1170.2131	1221.1952	1280.0121	1403.2378	1408.6505	1433.504	1475.2882	1482.6166	1515.545	1676.6722	1884.3373	2984.8678	3045.4781	3104.8607	3142.0013	3246.9571
CC1=C(OC=O)C=NO1	Cc1c(OC=O)cno1	
InChI=1S/C5H5NO3/c1-4-5(8-3-7)2-6-9-4/h2-3H,1H3	InChI=1S/C5H5NO3/c1-4-5(8-3-7)2-6-9-4/h2-3H,1H3
