15
gdb 8322	6.24987	1.32954	1.31719	0.9412	62.59	-0.2634	0.019	0.2824	941.4535	0.1189	-399.7734	-399.766432	-399.765488	-399.805144	25.664	
N	-0.0685730249	 1.1786611639	 0.6659718298	-0.53667
C	-0.0702846932	 0.0680711534	 0.0894215569	 0.430296
C	-1.12407273	-0.9552866547	-0.273459598	-0.437767
C	 0.0636410963	-1.7320852024	-0.8669590948	 0.361376
C	 0.4462118351	-3.1706484651	-0.4941618691	-0.127761
O	 0.3907299197	-3.5766497934	-1.8774663994	-0.270812
C	 0.1545560263	-2.223256637	-2.3179192731	-0.127756
O	 0.9688773619	-0.6669111095	-0.4583880503	-0.272506
H	 0.8726630927	 1.571419889	 0.7194524719	 0.231838
H	-1.6219372275	-1.4250824391	 0.576875926	 0.143193
H	-1.8725953762	-0.6113913997	-0.9897619217	 0.143185
H	 1.4538087195	-3.2571703516	-0.0692422495	 0.120385
H	-0.2672737246	-3.7211338897	 0.130243946	 0.111305
H	-0.755523882	-2.1351311694	-2.9228697627	 0.111306
H	 1.0063618369	-1.8037078648	-2.867192702	 0.120386
71.484	90.1854	265.0984	312.8204	406.8391	459.5734	488.9778	495.2937	780.1993	832.5298	865.5103	880.4126	888.9589	951.1993	963.0619	986.4214	1016.9132	1033.2533	1075.3071	1134.1293	1148.5843	1166.7279	1205.6257	1208.9346	1278.1684	1301.662	1303.5525	1384.7599	1461.6814	1494.1198	1521.0001	1836.0189	3014.3902	3025.8061	3070.3175	3070.4226	3083.5556	3137.4621	3480.3249
N=C1CC2(COC2)O1	[NH][C]1CC2(COC2)O1	
InChI=1S/C5H7NO2/c6-4-1-5(8-4)2-7-3-5/h6H,1-3H2	InChI=1S/C5H7NO2/c6-4-1-5(8-4)2-7-3-5/h6H,1-3H2
