18
gdb 78423	3.69828	1.60176	1.45553	1.97	73.87	-0.2248	0.0728	0.2977	941.5527	0.148845	-401.841536	-401.834645	-401.8337	-401.873098	27.883	
C	-0.0576447822	 1.5598649452	 0.0490762527	-0.427072
C	 0.0165916973	 0.0428372083	 0.0026524973	 0.007609
C	 0.5542816509	-0.7851177029	-1.1170690916	-0.084769
C	 1.6260344812	-0.2469690402	-2.0390442797	-0.067482
C	 2.9900568565	-0.8192156015	-1.4910584619	 0.061397
O	 3.7082713639	 0.3862356919	-1.8789016697	-0.317209
C	 2.4417979126	 0.8727115027	-1.324340763	 0.028026
C	 2.5134027288	-0.1690885411	-0.1538628419	-0.018401
N	 1.2359323836	-0.7755470067	 0.2147057576	-0.139932
H	 0.5897158909	 1.9703939124	 0.8310108399	 0.132982
H	 0.2032661863	 2.035796932	-0.8973940285	 0.132829
H	-1.0824584369	 1.8584473605	 0.2867912937	 0.124173
H	-0.8107376304	-0.4285020406	 0.5306611982	 0.1015
H	 0.046551485	-1.7032282562	-1.4034472489	 0.095686
H	 1.4666139358	-0.1892942903	-3.1141345898	 0.084867
H	 3.4603414289	-1.7867814563	-1.6675712677	 0.099167
H	 2.2996285752	 1.9507229927	-1.308961361	 0.096501
H	 3.2196471526	-0.0169208998	 0.6601147043	 0.09013
57.4375	188.8972	256.7967	360.7417	452.9015	506.8559	599.8962	668.765	700.3734	759.1669	779.5134	791.602	836.854	883.0579	894.1669	909.0695	926.524	982.041	982.9325	996.0178	1043.7966	1061.3758	1095.7185	1130.2846	1133.033	1150.2181	1154.0816	1168.0627	1184.2867	1220.6198	1257.4377	1274.5542	1295.2116	1338.5196	1373.3158	1411.8731	1426.5102	1493.5203	1506.3428	3045.4116	3103.2401	3115.1861	3118.6589	3128.4161	3131.6395	3141.5256	3145.1478	3153.8832
CC1C2C3C4OC3C4N12	C[C@H]1[C@H]2[C@@H]3[C@H]4O[C@@H]3[C@H]4N12	
InChI=1S/C7H9NO/c1-2-4-3-6-5(8(2)4)7(3)9-6/h2-7H,1H3	InChI=1S/C7H9NO/c1-2-4-3-6-5(8(2)4)7(3)9-6/h2-7H,1H3/t2-,3-,4-,5+,6-,7+,8?/m0/s1
