16
gdb 127825	4.37974	1.10428	0.88689	8.7971	79.93	-0.2159	-0.0393	0.1766	1260.6105	0.126439	-430.274346	-430.265558	-430.264614	-430.308509	30.607	
C	-0.05011178	 1.4120247721	 0.080380372	-0.351328
N	 0.0347417105	-0.0254346049	-0.0564566191	-0.304712
H	-0.3523991165	-0.643020057	 0.6467536448	 0.291289
C	 0.6133559841	-0.6762429315	-1.0659901088	 0.371387
N	 1.1855545545	-0.0352991569	-2.088762185	-0.547245
C	 0.6239826591	-2.0959824335	-1.0580910959	 0.324974
N	 1.185569622	-2.8438403387	-2.0389523371	-0.366048
C	 0.9318386306	-4.0651142603	-1.5664125859	 0.000617
N	 0.2639871781	-4.0846261316	-0.3821209182	-0.227971
N	 0.0675104895	-2.8064838714	-0.056773522	-0.317556
H	 0.9440262414	 1.8726194943	 0.140116044	 0.145736
H	-0.6010899477	 1.8649861239	-0.7533445082	 0.14555
H	-0.5846061627	 1.6446701667	 1.0014140957	 0.162225
H	 1.2216672732	 0.9642772988	-2.1706590249	 0.274111
H	 1.5934621698	-0.6251334305	-2.8007236443	 0.299565
H	 1.2260007039	-4.9753750495	-2.0707343174	 0.099406
80.2021	93.9064	109.6483	144.172	193.0062	254.8673	276.3561	411.7766	496.4249	586.7886	670.5941	672.7213	703.9776	744.7473	786.2416	894.9465	966.2172	1002.8115	1040.7134	1108.7144	1152.6452	1152.7787	1170.571	1197.182	1276.13	1306.453	1368.2198	1435.7377	1459.0564	1488.0766	1488.7034	1514.7044	1564.2549	1667.2777	1668.2937	3014.7228	3065.6599	3149.6268	3237.7795	3569.4284	3577.7192	3736.3162
C[NH+]=C(N)C1=NC=N[N-]1	CNC(=[NH2])c1ncnn1	
InChI=1S/C4H6N5/c1-6-3(5)4-7-2-8-9-4/h2H,1H3,(H2-,5,6,7,8,9)/q-1/p+1	InChI=1S/C4H8N5/c1-6-3(5)4-7-2-8-9-4/h2,6H,5H2,1H3,(H,7,8,9)
