21
gdb 59339	2.95781	1.06657	0.84514	2.1987	79.46	-0.2466	-0.0268	0.2198	1409.2905	0.179956	-424.239074	-424.228897	-424.227953	-424.274286	37.117	
C	-0.0790333124	 1.5729746949	-0.0056503019	-0.393098
C	 0.0462157231	 0.0442268322	 0.0303522032	 0.023893
C	-1.3241368155	-0.6314587111	 0.1822117507	-0.398816
C	 0.7706858771	-0.4775791428	-1.2122035829	-0.085103
C	 2.2696271682	-0.1068708192	-1.48142033	-0.307402
C	 2.5411100572	-1.5732310169	-1.9725415152	 0.076538
O	 3.7115214096	-2.2529390488	-1.6370356838	-0.436274
C	 1.26694168	-1.9313833554	-1.2083413766	 0.323569
O	 1.0074144923	-2.9002696898	-0.5450855457	-0.320411
H	 0.8990802968	 2.0583963371	-0.0825636111	 0.116364
H	-0.6815673956	 1.8960243155	-0.8629811819	 0.112292
H	-0.567330941	 1.94385678	 0.901411083	 0.115421
H	 0.6564317914	-0.2301264715	 0.9023110426	 0.077357
H	-1.9743338646	-0.3917702279	-0.6680240917	 0.107818
H	-1.2189956735	-1.7176832569	 0.2372840645	 0.143064
H	-1.8283635049	-0.2868127041	 1.090856977	 0.110572
H	 0.1697209029	-0.2852607776	-2.1105832634	 0.097603
H	 2.4697932901	 0.688617024	-2.1990199472	 0.114569
H	 2.8045511052	 0.0885719093	-0.5481113497	 0.119162
H	 2.3816985321	-1.6246929141	-3.0578990196	 0.107338
H	 3.4945638314	-2.8437661871	-0.9045579703	 0.295545
70.6115	84.8243	131.973	157.5484	216.834	239.5306	254.6048	269.196	313.9374	358.5104	377.7405	442.8993	534.6033	624.2423	706.128	794.2906	823.1765	881.8252	932.8784	949.368	964.2044	979.1291	994.4918	1022.8093	1068.4481	1139.0954	1146.8059	1163.0104	1190.8278	1215.2585	1237.6632	1256.4315	1294.7774	1340.3904	1347.1361	1383.8558	1398.3489	1409.334	1419.692	1483.5775	1489.185	1493.316	1503.6307	1514.2862	1855.7753	3005.0597	3021.71	3025.2932	3028.254	3034.5513	3072.5224	3089.7749	3095.7044	3103.3009	3125.8899	3142.3229	3770.8496
CC(C)C1CC(O)C1=O	CC(C)[C@H]1C[C@@H](O)C1=O	
InChI=1S/C7H12O2/c1-4(2)5-3-6(8)7(5)9/h4-6,8H,3H2,1-2H3	InChI=1S/C7H12O2/c1-4(2)5-3-6(8)7(5)9/h4-6,8H,3H2,1-2H3/t5-,6-/m1/s1
