18
gdb 7991	3.26386	1.85577	1.36578	3.9038	68.94	-0.2306	0.0624	0.293	951.0907	0.155409	-381.180141	-381.171998	-381.171054	-381.212526	29.9	
C	 0.1774292958	 1.5065233492	 0.0619508044	-0.395025
C	-0.067953049	-0.0008073988	-0.0621745964	 0.027339
C	 0.7106729703	-0.6460382181	-1.236172892	-0.171699
N	 1.9209725976	-1.1122204854	-0.5904412294	-0.098231
C	 2.9373815194	-1.8537746593	-1.2948087125	-0.338385
C	 1.7302302654	-1.2708569655	 0.7724970841	 0.445684
O	 2.511309941	-1.7621918961	 1.5596633457	-0.425751
N	 0.4656769752	-0.7663981767	 1.0619007439	-0.356198
H	 1.2496821012	 1.721969635	 0.1059305182	 0.134255
H	-0.2500150252	 2.0402387079	-0.7934780381	 0.119073
H	-0.2896750135	 1.9030801876	 0.9695756816	 0.116927
H	-1.1413296462	-0.1872066311	-0.171700265	 0.089216
H	 0.1445123551	-1.4797137525	-1.6813092917	 0.101822
H	 0.9265410737	 0.0771976346	-2.0305820036	 0.109143
H	 3.4451103067	-1.2197288166	-2.0304333446	 0.118952
H	 3.6628712292	-2.2008818349	-0.5568953553	 0.163874
H	 2.5202989418	-2.7256008013	-1.8210368506	 0.112735
H	 0.3258233217	-0.441623688	 2.0065321715	 0.24627
102.602	152.7202	165.646	204.2728	248.7475	293.4472	348.9912	430.3056	504.8012	540.689	661.2329	722.4958	765.0548	817.9806	843.5895	951.6607	974.7921	1031.4711	1064.5421	1133.0127	1149.3667	1167.7469	1180.0943	1236.0358	1296.4344	1305.0129	1322.4463	1382.227	1407.3155	1413.2092	1435.4056	1457.3966	1491.9354	1494.1744	1494.8884	1513.2972	1539.4839	1830.9615	2973.5495	2992.1734	3031.7264	3045.7374	3053.5921	3059.4009	3101.5975	3113.3108	3140.9744	3629.0857
CC1CN(C)C(=O)N1	C[C@H]1CN(C)C(=O)N1	
InChI=1S/C5H10N2O/c1-4-3-7(2)5(8)6-4/h4H,3H2,1-2H3,(H,6,8)	InChI=1S/C5H10N2O/c1-4-3-7(2)5(8)6-4/h4H,3H2,1-2H3,(H,6,8)/t4-/m0/s1
