19
gdb 99546	2.14664	1.27032	0.84906	4.1965	82.24	-0.2455	0.0263	0.2718	1369.0876	0.157014	-382.040285	-382.02977	-382.028826	-382.076086	37.341	
C	 0.9144230193	-0.8603398244	 0.9271706571	-0.326218
N	 0.1072772032	-0.2507342819	-0.128780734	-0.274865
C	-1.2996956345	-0.6579479015	-0.1068644724	-0.147228
C	-2.0364562366	-0.1263135058	 1.0479971029	 0.323062
C	-2.5878080179	 0.3618034494	 1.9986061203	-0.44431
C	-1.9698251223	-0.2390858488	-1.45366085	-0.15287
C	-1.271805956	-0.8758795168	-2.6693655359	-0.395488
C	-3.3963131478	-0.5766194395	-1.4507920857	 0.27691
N	-4.5147634368	-0.8656146982	-1.4810056095	-0.3253
H	 1.9338261316	-0.4706359526	 0.8635883326	 0.125861
H	 0.5321178069	-0.6790933979	 1.9435032741	 0.117913
H	 0.9600844547	-1.9429839317	 0.7680458026	 0.128242
H	 0.1487985586	 0.7603631	-0.0355014281	 0.224093
H	-1.3161874042	-1.7547273158	-0.0626715989	 0.12438
H	-3.0974148232	 0.7726104805	 2.8353531502	 0.205198
H	-1.8966684839	 0.8538025655	-1.5254524304	 0.12882
H	-1.3829633158	-1.963993816	-2.6500688855	 0.133236
H	-1.7094269452	-0.5058130011	-3.5993229893	 0.133011
H	-0.2095628501	-0.6321214534	-2.6410738099	 0.145552
51.2519	95.1423	114.5649	160.0379	182.8056	210.8519	221.6103	267.888	295.3418	326.4098	408.2462	469.7477	534.0765	576.1899	610.1789	649.6522	660.3876	777.7652	845.5873	903.559	984.9689	997.0134	1059.7133	1091.7163	1127.8884	1144.1319	1161.3222	1190.4806	1276.9869	1322.6234	1335.5258	1351.7147	1402.0009	1456.4611	1485.9374	1490.0915	1494.5039	1501.9278	1520.7163	2226.7831	2359.5436	2987.4967	3023.638	3039.0968	3055.2144	3070.5733	3113.4942	3126.4795	3156.5901	3501.0312	3504.269
CNC(C#C)C(C)C#N	CN[C@@H](C#C)[C@@H](C)C#N	
InChI=1S/C7H10N2/c1-4-7(9-3)6(2)5-8/h1,6-7,9H,2-3H3	InChI=1S/C7H10N2/c1-4-7(9-3)6(2)5-8/h1,6-7,9H,2-3H3/t6-,7-/m0/s1
