21
gdb 101944	2.32014	1.23221	0.94052	2.2643	78.17	-0.2624	0.0766	0.339	1321.8959	0.181181	-424.176686	-424.167113	-424.166168	-424.21203	34.707	
C	-0.1394078337	 0.9243227362	 1.1367012796	-0.385277
C	-0.2314548431	 0.7943174818	-0.3904734747	-0.21037
C	 0.6498215217	-0.2934507926	-1.0433267556	-0.064952
C	 2.1491881669	-0.0328207688	-1.0677116715	 0.095083
C	 2.7854818709	 1.2891612658	-1.0405494592	-0.196515
O	 2.7982712438	 0.4488894601	 0.1169523355	-0.231796
C	 0.4072874245	-1.667759545	-0.4428841458	 0.091584
C	-0.642633738	-2.5610469712	-0.9455337171	-0.185891
O	 0.7282215611	-2.7831330262	-1.2823314268	-0.243984
H	-0.4831073416	 0.0129740581	 1.6363756792	 0.114406
H	 0.8853496709	 1.1168210341	 1.458705607	 0.148005
H	-0.7762803799	 1.7438631207	 1.4842289329	 0.108334
H	-1.2706582961	 0.5780928029	-0.6671448348	 0.098122
H	 0.0005747546	 1.7586521455	-0.85659937	 0.098221
H	 0.3545457939	-0.36958046	-2.0995502046	 0.086027
H	 2.7027343898	-0.8336532524	-1.5614565833	 0.109425
H	 3.7505508644	 1.4277923763	-1.526394373	 0.116749
H	 2.1825017661	 2.190436678	-0.9532695847	 0.117138
H	 0.7331395079	-1.7949093396	 0.5892396551	 0.108498
H	-1.0893625296	-3.3037064706	-0.2861485292	 0.115861
H	-1.2770285146	-2.2318555531	-1.7682735889	 0.111331
45.4044	70.6373	113.3155	168.8565	207.3348	226.2938	292.2387	323.673	330.4833	432.03	503.2707	643.4581	743.9077	790.3223	847.7489	857.7485	874.7507	891.3279	954.2002	968.0434	1017.9638	1029.009	1086.1082	1095.7897	1118.0136	1141.514	1158.123	1168.4233	1171.2228	1185.1071	1190.9008	1272.1456	1288.8919	1295.6468	1310.2139	1349.6659	1378.9282	1414.426	1436.1207	1447.1563	1491.9461	1500.5278	1518.252	1528.9229	1533.7651	3008.6542	3031.419	3043.8678	3060.383	3079.8562	3088.709	3098.2051	3102.0362	3118.3844	3142.4224	3166.2002	3175.3314
CCC(C1CO1)C1CO1	CC[C@@H]([C@H]1CO1)[C@H]1CO1	
InChI=1S/C7H12O2/c1-2-5(6-3-8-6)7-4-9-7/h5-7H,2-4H2,1H3	InChI=1S/C7H12O2/c1-2-5(6-3-8-6)7-4-9-7/h5-7H,2-4H2,1H3/t6-,7-/m1/s1
