18
gdb 83217	2.65222	1.52327	1.28509	3.6466	74.71	-0.2665	0.0358	0.3023	1038.0864	0.149788	-401.961138	-401.953185	-401.952241	-401.993642	30.655	
O	 0.0986609799	 1.4829915402	 0.6448571458	-0.420493
C	 0.0341727622	 0.1520317676	 0.2261736784	 0.10139
C	-0.4329993736	-0.8957284486	 1.1955628451	-0.087442
C	-1.1719049856	-0.4597589629	 2.4535180435	-0.221715
C	-2.2835877072	 0.5099594828	 1.9921908301	-0.229124
C	-2.5479460219	 0.1623075669	 0.4924018207	-0.146574
C	-2.8787409276	 1.3439640537	-0.3079826119	 0.269179
N	-3.1034298549	 2.2796397868	-0.9498345359	-0.343962
C	-1.2862906489	-0.5434138258	-0.013039552	-0.111586
H	-0.1965069824	 2.0449076869	-0.081299554	 0.303685
H	 0.8444412794	-0.14958921	-0.4376143654	 0.095088
H	 0.1201860864	-1.8278795267	 1.2305087724	 0.093437
H	-1.6019637219	-1.3474247641	 2.9303989149	 0.105083
H	-0.5126843186	 0.0148362399	 3.1862656775	 0.119468
H	-3.1974272387	 0.4145768817	 2.583082309	 0.108998
H	-1.9362341118	 1.5386201829	 2.0681023123	 0.141372
H	-3.388263491	-0.5365137114	 0.412504842	 0.124461
H	-1.3878604838	-1.19688289	-0.8719066425	 0.098734
81.9919	153.074	181.131	250.8541	265.8453	360.2877	459.6175	507.7234	512.0564	560.9565	686.9211	723.9974	769.2063	785.7232	823.4629	865.302	944.5386	963.7501	1011.6558	1022.3531	1043.3665	1050.1773	1091.6857	1106.6298	1127.2005	1193.304	1228.7711	1238.3439	1277.2494	1303.6929	1311.3862	1325.1329	1341.2184	1364.8847	1371.0132	1454.0751	1486.104	1504.2668	2348.3927	3043.7776	3045.781	3083.4395	3087.3327	3100.1998	3153.4663	3167.2344	3178.0808	3792.5921
OC1C2CCC(C#N)C12	O[C@H]1[C@H]2CC[C@@H](C#N)[C@@H]12	
InChI=1S/C7H9NO/c8-3-4-1-2-5-6(4)7(5)9/h4-7,9H,1-2H2	InChI=1S/C7H9NO/c8-3-4-1-2-5-6(4)7(5)9/h4-7,9H,1-2H2/t4-,5-,6+,7-/m0/s1
