16
gdb 46707	3.06229	1.91915	1.42516	5.2447	67.33	-0.2484	0.01	0.2584	896.8139	0.126909	-437.868881	-437.862287	-437.861343	-437.900123	25.947	
O	 0.0578857848	 0.0581939737	 0.146227723	-0.330524
C	 0.056499784	 1.2461411858	 0.0037317338	 0.416157
O	-1.0865920143	 1.9658381665	 0.1768125135	-0.230988
C	-0.9661584888	 3.3076105366	 0.6954643756	-0.107044
C	 0.1269509358	 4.1065194301	 0.0144478372	-0.070781
C	 1.6197690625	 3.9788585243	 0.2998681683	-0.091814
C	 1.9687798755	 2.5815917019	 0.8034931533	-0.205503
N	 1.2102229606	 1.9934349028	-0.3604299307	-0.176354
C	 0.9945528274	 3.3403881272	-0.9233140323	-0.031615
H	-1.9403685911	 3.7634555632	 0.5079802286	 0.132018
H	-0.8301724716	 3.2442923964	 1.7822486387	 0.120719
H	-0.155015392	 5.1022725166	-0.3130055487	 0.106952
H	 2.2542270454	 4.8533697594	 0.3569717998	 0.103775
H	 3.0317281324	 2.3390951094	 0.7293195126	 0.131829
H	 1.6022111882	 2.2864057048	 1.7931044675	 0.122092
H	 1.1161259213	 3.5174788911	-1.9843218202	 0.111081
78.7576	186.6735	277.3875	395.1419	459.6983	515.0502	542.9076	688.0392	743.2042	778.9755	804.5233	822.7443	851.6066	913.0338	960.2016	981.8594	999.6329	1035.6274	1041.506	1065.2256	1080.9257	1092.9246	1114.5614	1150.7894	1177.0178	1217.318	1256.4257	1273.0621	1311.8418	1330.257	1411.5871	1423.8505	1504.2363	1517.9718	1862.5832	3028.4021	3040.1029	3099.0456	3107.1514	3164.6464	3192.3327	3207.8129
O=C1OCC2C3CN1C23	O=C1OC[C@H]2[C@H]3CN1[C@@H]23	
InChI=1S/C6H7NO2/c8-6-7-1-3-4(2-9-6)5(3)7/h3-5H,1-2H2	InChI=1S/C6H7NO2/c8-6-7-1-3-4(2-9-6)5(3)7/h3-5H,1-2H2/t3-,4+,5-/m1/s1
