20
gdb 74998	2.94465	1.50014	1.19887	1.6455	80.4	-0.2338	0.0326	0.2664	1108.1866	0.172769	-403.165002	-403.156927	-403.155982	-403.197642	31.208	
C	 0.0329430572	 1.4755192521	 0.0243210677	-0.451346
C	-0.0346069059	-0.0236280962	 0.0460371813	 0.389426
N	-1.1345326915	-0.6427737644	 0.1769868519	-0.301695
C	-1.1760393229	-2.0895642647	 0.092539955	 0.003461
C	-1.6518383015	-2.5670734234	-1.3152394551	-0.207403
C	-0.1739448541	-2.8607515517	-1.6915350767	-0.239449
C	 0.1949417257	-2.777069713	-0.1825911086	-0.016793
C	 1.3733442779	-1.9358739178	 0.2537826254	-0.109097
O	 1.213419226	-0.5571034614	-0.1067492138	-0.260569
H	 0.6399883706	 1.8421405326	 0.8585425117	 0.134121
H	 0.5139502002	 1.8175807558	-0.8978371397	 0.136264
H	-0.9729033205	 1.8882805122	 0.0901797807	 0.141858
H	-1.7570920438	-2.4681787225	 0.9384181572	 0.073345
H	-2.2551453363	-3.476967651	-1.2554785587	 0.098387
H	-2.1873355913	-1.8192734507	-1.9025337223	 0.107113
H	 0.034265083	-3.8086931627	-2.1923542994	 0.096582
H	 0.281870906	-2.0544354219	-2.2728829511	 0.111479
H	 0.2613492148	-3.768224775	 0.2758101462	 0.073327
H	 1.4921831099	-1.9929381897	 1.3450190173	 0.106914
H	 2.3123588866	-2.2525004265	-0.209924019	 0.114077
103.1503	125.9561	163.5909	195.9808	305.7425	335.7137	413.8814	490.7629	553.1053	616.3401	683.0152	730.4023	758.3166	819.9713	867.8704	880.288	928.7821	945.3489	962.7982	1003.2578	1035.4761	1059.6736	1074.1203	1120.3276	1136.0869	1168.42	1204.6534	1233.0215	1241.7198	1252.36	1263.087	1279.1864	1311.0296	1349.8874	1356.5828	1402.1688	1414.2195	1474.7236	1475.9887	1476.7703	1493.9947	1501.3645	1741.8684	3007.6647	3045.889	3050.3975	3060.2095	3063.1517	3069.6063	3081.7847	3102.3084	3110.2727	3128.9064	3165.5276
CC1=NC2CCC2CO1	CC1=N[C@H]2CC[C@H]2CO1	
InChI=1S/C7H11NO/c1-5-8-7-3-2-6(7)4-9-5/h6-7H,2-4H2,1H3	InChI=1S/C7H11NO/c1-5-8-7-3-2-6(7)4-9-5/h6-7H,2-4H2,1H3/t6-,7-/m0/s1
