24
gdb 119969	2.30496	0.96983	0.79616	2.2646	87.25	-0.2136	0.0746	0.2881	1594.9288	0.215056	-405.503502	-405.492334	-405.49139	-405.540527	39.461	
C	-0.0477180588	-0.1162937342	 0.91014628	-0.378308
C	-0.6961355988	-0.81351813	-0.292568403	-0.20577
C	 0.3110266517	-1.0820268696	-1.3968475756	-0.00888
C	 1.1302768718	-2.3340624799	-1.5062129125	-0.022626
C	 1.0096539991	-3.4798433853	-0.533837126	-0.086141
O	 1.2899207133	-4.6775838981	-1.2341161963	-0.232012
C	 1.2637033562	-5.8125552867	-0.4036371725	-0.224416
N	 0.1023515077	-2.0192130299	-2.4991402118	-0.108559
C	-1.1067460405	-2.8244705913	-2.5901519235	-0.311781
H	 0.7119149794	-0.7532141476	 1.3752332579	 0.119282
H	 0.4432391779	 0.815349099	 0.6085069026	 0.119457
H	-0.7926177242	 0.1314662496	 1.6723706671	 0.113732
H	-1.1876292094	-1.7315952852	 0.03934818	 0.099423
H	-1.4906783516	-0.1737310938	-0.698721958	 0.102827
H	 0.802696265	-0.1640038939	-1.7253191302	 0.083966
H	 2.1422001916	-2.2478610589	-1.9022530034	 0.089944
H	 1.7364861462	-3.3392405997	 0.285653296	 0.088238
H	 0.0145616462	-3.5388122384	-0.0695318219	 0.084056
H	 1.4942844422	-6.6802308228	-1.0265509373	 0.127884
H	 2.010125034	-5.7466095727	 0.4044007566	 0.102133
H	 0.2743765755	-5.9608534774	 0.059081584	 0.101144
H	-1.5566129627	-3.1299898473	-1.6349548597	 0.095473
H	-1.8612985438	-2.2597394709	-3.1474804806	 0.117257
H	-0.8723992381	-3.732671445	-3.152271552	 0.133678
59.5199	64.6698	94.2157	127.2815	148.0878	182.3723	218.7998	225.3238	266.6788	296.3651	321.5371	387.5313	507.0321	527.9678	557.9489	728.8548	787.1664	833.7981	848.3682	977.059	982.3352	1024.2257	1041.5913	1069.8243	1095.6345	1139.5041	1151.6782	1157.884	1169.7973	1179.0582	1192.3198	1206.8439	1226.2462	1266.904	1284.2217	1341.0376	1354.4383	1373.1442	1410.6229	1421.953	1446.5842	1467.3729	1480.1778	1485.3469	1487.5919	1490.1874	1498.0731	1500.2169	1505.4186	1511.2503	1526.9042	2949.099	2966.3348	2992.875	3006.0028	3008.5651	3025.5632	3033.2788	3067.9895	3071.8805	3086.6955	3102.3021	3106.47	3108.9861	3110.178	3113.4787
CCC1C(COC)N1C	CC[C@H]1[C@@H](COC)N1C	
InChI=1S/C7H15NO/c1-4-6-7(5-9-3)8(6)2/h6-7H,4-5H2,1-3H3	InChI=1S/C7H15NO/c1-4-6-7(5-9-3)8(6)2/h6-7H,4-5H2,1-3H3/t6-,7+,8?/m0/s1
