18
gdb 36554	8.26066	0.48143	0.47095	4.5437	88.85	-0.2458	0.0252	0.271	2258.402	0.14694	-364.792402	-364.782731	-364.781787	-364.829787	33.515	
N	-0.0440356692	-1.1321325264	 0.1727332493	-0.302521
C	-0.0034961964	 0.0214240697	 0.2276434109	 0.254266
C	 0.0739473636	 1.4791179641	 0.2844233225	-0.322727
C	 1.3838009561	 2.020853198	-0.3478038107	-0.352325
C	 1.4550493506	 3.4739482867	-0.2846864922	 0.002668
C	 1.48462899	 4.6774471985	-0.2165575721	 0.145727
C	 1.5293919651	 6.1089508226	-0.1481504195	-0.158465
C	 1.5755159423	 6.8114292535	 1.2007464583	-0.252034
C	 2.7919547651	 6.8139419012	 0.3250844165	-0.250301
H	-0.7905647599	 1.9038080278	-0.2353503423	 0.163183
H	 0.0066671749	 1.8002807251	 1.3285893216	 0.162118
H	 2.2398312788	 1.5737681151	 0.1708572521	 0.149833
H	 1.443998378	 1.6791108224	-1.3876630771	 0.150522
H	 0.9696786602	 6.6210681782	-0.9254545438	 0.11228
H	 1.0043869272	 7.7273643367	 1.3011886189	 0.121353
H	 1.5836944755	 6.1823281377	 2.0826728659	 0.126278
H	 3.6276499421	 6.1864642886	 0.6103789878	 0.128343
H	 3.065314696	 7.7313672006	-0.1835631362	 0.121801
11.9183	52.889	65.3552	134.3151	166.9892	205.831	306.2083	401.5443	421.0099	481.4551	530.8709	539.9532	709.199	764.0323	795.5351	822.4347	895.7731	908.231	950.2027	1004.0896	1032.9922	1061.7416	1063.4658	1081.1911	1118.4437	1184.8978	1197.5914	1201.277	1231.0175	1284.8015	1306.5084	1367.2387	1394.4068	1467.26	1467.4992	1479.5033	1497.4947	2361.2993	2363.7247	3035.0691	3061.1937	3066.2746	3103.8958	3141.962	3143.9115	3148.4772	3226.5771	3241.6642
N#CCCC#CC1CC1	N#CCCC#CC1CC1	
InChI=1S/C8H9N/c9-7-3-1-2-4-8-5-6-8/h8H,1,3,5-6H2	InChI=1S/C8H9N/c9-7-3-1-2-4-8-5-6-8/h8H,1,3,5-6H2
