21
gdb 85960	2.97162	1.14922	0.98138	2.5945	79.3	-0.2397	-0.011	0.2287	1308.2187	0.179381	-424.243351	-424.233262	-424.232318	-424.278668	37.523	
C	 0.1165390955	 1.6242848447	 0.0609440349	-0.411428
C	 0.1057613156	 0.1075889052	-0.0469592041	 0.06811
C	 1.231170173	-0.5903973226	-0.8600577757	-0.28757
C	 1.3330097336	-1.6794773977	 0.247353276	 0.289856
O	 2.6103464864	-2.1053219062	 0.66528983	-0.484868
C	 0.5320827148	-0.7216300097	 1.195894781	-0.295353
C	 0.5047156029	-2.9269943528	-0.0704172781	 0.368185
C	 0.9691424519	-4.237691711	 0.5253700426	-0.475494
O	-0.4961699081	-2.8410021067	-0.7474795276	-0.312615
H	 1.0873041157	 1.9898231959	 0.4168115848	 0.103077
H	-0.078747873	 2.0921717668	-0.9103195818	 0.118826
H	-0.6488661722	 1.9795879871	 0.7599981233	 0.116703
H	-0.8637685034	-0.2450656983	-0.405206672	 0.100903
H	 0.9908338667	-0.9357257181	-1.8666729016	 0.116237
H	 2.1498733981	 0.0070223523	-0.8876639656	 0.083598
H	 3.1136661279	-1.3280878084	 0.9266525208	 0.278375
H	 1.231392983	-0.1693105562	 1.8353529793	 0.087472
H	-0.2474856836	-1.1579862967	 1.8253272471	 0.108048
H	 1.1094898589	-4.1406064455	 1.6065279349	 0.141719
H	 0.238893339	-5.0155822898	 0.3005695398	 0.131323
H	 1.9484492973	-4.5028888825	 0.115630012	 0.154896
31.9451	90.9733	158.0712	197.1187	228.0198	243.023	270.1385	305.7788	324.9461	400.8241	416.6871	441.5325	543.1938	589.9201	615.1982	693.3567	811.694	821.4662	897.1286	922.0969	944.447	958.0214	986.8915	1048.6025	1074.0955	1083.95	1109.2923	1149.6406	1194.8467	1209.4256	1225.8524	1226.5552	1277.6574	1296.3139	1366.8492	1378.0459	1404.3543	1410.6607	1455.773	1458.6799	1465.7177	1485.7313	1495.9288	1497.1266	1802.3798	3020.6352	3031.9369	3041.5021	3049.0146	3076.2522	3092.3275	3093.9789	3106.3418	3112.5607	3124.9804	3157.9479	3821.941
CC1CC(O)(C1)C(C)=O	C[C@H]1C[C@@](O)(C1)C(=O)C	
InChI=1S/C7H12O2/c1-5-3-7(9,4-5)6(2)8/h5,9H,3-4H2,1-2H3	InChI=1S/C7H12O2/c1-5-3-7(9,4-5)6(2)8/h5,9H,3-4H2,1-2H3/t5-,7+
