17
gdb 112320	3.05667	1.22471	0.95579	3.6079	68.14	-0.2419	-0.0291	0.2128	1198.6642	0.135523	-458.962088	-458.953864	-458.95292	-458.995321	30.543	
O	 0.0064910076	 1.3713553086	-0.0955067133	-0.42065
C	 0.0333422266	-0.0462335686	-0.0452588827	-0.090843
C	-1.4067704767	-0.5292501152	 0.0715734372	-0.014622
C	-2.309276128	-0.1327472004	-1.1231463347	-0.341367
C	-3.2777760124	-1.3046995303	-1.3192570551	 0.409119
O	-4.3774906234	-1.2636596236	-1.8067764909	-0.313929
C	-2.6322696708	-2.5234978814	-0.7042076638	-0.086154
O	-1.2624974702	-2.6650663378	-1.1336559945	-0.248835
C	-1.5117709245	-2.0486944161	 0.1279901785	 0.020974
H	 0.9011881352	 1.686481054	-0.2527458031	 0.29093
H	 0.4835401535	-0.476530257	-0.9527579991	 0.105154
H	 0.6164340056	-0.4056589133	 0.8185954072	 0.08732
H	-1.8301403267	-0.121532461	 0.9979754094	 0.096058
H	-2.861409304	 0.793984332	-0.9661432821	 0.141182
H	-1.7195903171	-0.0081635578	-2.0378378516	 0.142343
H	-3.1893949894	-3.4395033592	-0.5375133767	 0.116594
H	-1.1711665554	-2.6054472527	 0.9978524653	 0.106723
84.6159	110.6185	147.3784	217.8101	269.0855	324.9013	408.6495	454.1253	482.1973	540.1192	654.8971	685.9018	818.1405	831.6418	867.4707	877.6171	924.1014	977.3366	1014.8475	1076.9406	1091.0106	1092.5302	1104.6198	1173.4562	1194.6042	1233.4311	1240.5647	1255.8557	1276.0871	1308.7804	1327.8967	1356.7053	1410.0297	1451.0193	1459.6989	1525.0628	1848.0703	2965.3366	3004.4287	3040.669	3062.592	3136.2043	3145.5619	3181.7783	3833.4822
OCC1CC(=O)C2OC12	OC[C@H]1CC(=O)[C@H]2O[C@@H]12	
InChI=1S/C6H8O3/c7-2-3-1-4(8)6-5(3)9-6/h3,5-7H,1-2H2	InChI=1S/C6H8O3/c7-2-3-1-4(8)6-5(3)9-6/h3,5-7H,1-2H2/t3-,5+,6-/m1/s1
