17
gdb 45544	4.21168	1.27121	1.03995	5.4346	75.11	-0.264	-0.039	0.2251	1124.6204	0.138697	-421.890422	-421.88337	-421.882425	-421.922118	27.53	
O	-0.0316555429	 0.004614036	-0.0639552797	-0.344503
C	 0.0088015217	 1.2004833452	-0.0704596851	 0.444642
O	-1.1413089837	 1.9760511004	-0.1056655996	-0.251945
C	-0.7719161985	 3.3436997051	-0.158583369	 0.058308
C	-1.2006829071	 4.2829160216	 0.9762546138	-0.247832
C	-0.1542264943	 5.4259213488	 0.8488763093	-0.214621
C	 1.1742307948	 4.7506031373	 0.3552754124	-0.328873
C	 0.7238302105	 3.3714990692	-0.0179860284	 0.368543
C	 1.176135565	 2.119308587	 0.0136447725	-0.44601
H	-1.1032146418	 3.7505340073	-1.1253266329	 0.106461
H	-2.230552574	 4.6360885458	 0.8923816853	 0.113417
H	-1.0932211721	 3.7574639038	 1.9310457426	 0.120971
H	-0.4935136864	 6.1592027831	 0.1109082796	 0.115281
H	-0.0178503225	 5.9629565302	 1.7895102016	 0.116618
H	 1.6067329244	 5.2927888366	-0.4923686533	 0.129728
H	 1.9429330961	 4.7172801647	 1.1321991827	 0.131499
H	 2.1774481209	 1.7465816279	 0.1727410882	 0.128315
99.668	162.1052	202.7067	319.8476	365.4157	510.4803	537.8757	622.4293	667.8168	718.6874	747.5161	792.6974	848.3556	870.6579	878.8854	897.9234	911.2488	987.4533	994.4533	1048.0831	1112.9633	1143.4495	1152.9447	1165.5069	1185.1474	1227.0575	1269.082	1288.8443	1301.8801	1335.5146	1340.2793	1372.2685	1472.0031	1492.1707	1505.6747	1715.209	1874.536	3002.6971	3049.1754	3057.9461	3062.8066	3089.5685	3112.4481	3121.6522	3246.0103
O=C1OC2CCCC2=C1	O=C1O[C@H]2CCC[C]2[CH]1	
InChI=1S/C7H8O2/c8-7-4-5-2-1-3-6(5)9-7/h4,6H,1-3H2	InChI=1S/C7H8O2/c8-7-4-5-2-1-3-6(5)9-7/h4,6H,1-3H2/t6-/m0/s1
