18
gdb 50432	2.99102	1.46186	1.06925	3.8026	78.72	-0.238	0.0078	0.2458	1114.8715	0.149704	-401.96862	-401.960928	-401.959984	-402.001215	29.537	
O	 0.3337235775	 0.1587097487	-1.1817581494	-0.343291
C	 0.3815035738	 1.331771865	-0.8731085348	 0.151842
N	 1.2093524813	 1.8647140745	 0.0707909227	-0.064719
C	 2.1576895979	 0.9893059105	 0.7574647116	-0.209469
C	 3.4481846367	 1.6836113738	 1.0921098075	-0.072151
C	 3.5657179748	 3.0090545812	 1.1385724713	-0.080433
C	 2.4049133474	 3.9005709245	 0.9028366104	-0.081534
C	 1.9306439265	 4.2399879739	-0.497609227	-0.296745
C	 1.1501940542	 3.2711203711	 0.3675621505	-0.007916
H	-0.2584058918	 2.1065329068	-1.339066088	 0.075348
H	 1.7092771632	 0.5709078835	 1.6729941105	 0.123514
H	 2.3281005895	 0.1374323724	 0.093418448	 0.152043
H	 4.2950387466	 1.0397239862	 1.3096989984	 0.101346
H	 4.5172057844	 3.474550393	 1.379362318	 0.096817
H	 2.2664716791	 4.6825757923	 1.6443624419	 0.102836
H	 1.5094060317	 5.2239508948	-0.6729183081	 0.118602
H	 2.4837789538	 3.8146705677	-1.3269331494	 0.12798
H	 0.2036173834	 3.61340019	 0.7777284657	 0.105932
56.3529	149.2068	219.9108	251.2357	319.7087	403.0034	433.4324	497.6341	545.7508	641.373	717.7882	766.0437	798.3939	847.6955	887.3339	953.0483	980.2654	989.0763	1012.146	1019.0195	1036.9583	1053.1618	1076.2674	1116.4414	1128.6383	1195.6972	1200.6621	1234.8901	1304.5488	1349.6424	1362.0077	1386.7354	1412.4223	1425.6579	1447.4692	1477.7359	1500.8365	1721.8097	1793.0011	2942.0564	2977.6637	3090.4655	3128.8521	3136.2229	3144.8298	3162.0936	3184.4971	3232.7353
O=CN1CC=CC2CC12	O=CN1CC=C[C@H]2C[C@@H]12	
InChI=1S/C7H9NO/c9-5-8-3-1-2-6-4-7(6)8/h1-2,5-7H,3-4H2	InChI=1S/C7H9NO/c9-5-8-3-1-2-6-4-7(6)8/h1-2,5-7H,3-4H2/t6-,7+/m0/s1
