23
gdb 121243	2.69801	0.8607	0.71058	1.7966	83.02	-0.244	0.0801	0.3241	1665.5117	0.204351	-425.399066	-425.388566	-425.387621	-425.435371	37.56	
C	-0.0220728376	 1.5390951285	 0.3224204989	-0.236617
O	 0.6937999909	 0.3626204883	 0.0246045579	-0.238195
C	 0.7297975973	-0.5505854378	 1.0866373527	 0.157538
C	-0.5459415096	-1.369643977	 1.4326135074	-0.255723
C	 0.3649700758	-2.6201676905	 1.5765652579	-0.233029
C	 1.4867742258	-1.8729609404	 0.7881744003	-0.058165
C	 1.5733810225	-2.2319051443	-0.6956095821	-0.165617
C	 2.2920370359	-3.5545455802	-0.9299942778	-0.079085
O	 2.2920704626	-3.8110896468	-2.3271280911	-0.422049
H	 0.4148870276	 2.073704902	 1.1811421509	 0.102021
H	 0.0288355016	 2.1841629338	-0.5580547836	 0.126739
H	-1.0788971497	 1.3328266477	 0.549145908	 0.107737
H	 1.132212029	-0.0629478431	 1.9897619602	 0.059302
H	-1.1358208919	-1.0638143259	 2.2997347983	 0.093014
H	-1.2041106866	-1.4420351947	 0.5623767839	 0.110894
H	 0.6422891068	-2.8168889385	 2.6153292936	 0.099873
H	-0.0046568315	-3.5497320631	 1.1370557703	 0.10094
H	 2.4862744863	-1.9267158385	 1.2332862825	 0.063318
H	 0.5731501843	-2.293883267	-1.1393305836	 0.103466
H	 2.1012407302	-1.4409569721	-1.237510524	 0.117369
H	 3.3205608207	-3.490854827	-0.5366995104	 0.080684
H	 1.7862246909	-4.3645108119	-0.3792586322	 0.082347
H	 2.7395816686	-4.6485714517	-2.4780951279	 0.283238
75.179	77.7243	103.9621	116.2284	125.0265	199.9826	231.736	265.1098	305.587	331.9161	426.4056	476.4045	525.0397	688.8194	762.7461	789.0576	871.055	894.1557	942.5696	956.76	972.3773	1020.9196	1047.8534	1071.3473	1089.7813	1107.1478	1161.6709	1170.0904	1184.9178	1204.1787	1225.7013	1227.7078	1240.6788	1257.8549	1263.9171	1280.7847	1301.4588	1313.4271	1322.2236	1386.2124	1389.2567	1461.5401	1478.9961	1481.0495	1486.2	1490.392	1500.7118	1509.3378	1527.0513	2955.654	2959.805	2973.2523	2981.1134	3019.9812	3036.8269	3049.0972	3058.4738	3064.3929	3093.0686	3103.5212	3113.8001	3120.8516	3829.8273
COC1CCC1CCO	CO[C@H]1CC[C@H]1CCO	
InChI=1S/C7H14O2/c1-9-7-3-2-6(7)4-5-8/h6-8H,2-5H2,1H3	InChI=1S/C7H14O2/c1-9-7-3-2-6(7)4-5-8/h6-8H,2-5H2,1H3/t6-,7-/m0/s1
