15
gdb 80784	2.30511	1.50669	1.44916	4.2159	72.82	-0.2712	-0.0245	0.2466	1000.4338	0.111748	-416.758094	-416.750089	-416.749145	-416.790648	29.584	
C	 0.0452713432	 1.5039072788	-0.0946140423	-0.355329
N	 0.0103968316	 0.0443645055	 0.0525121055	-0.109777
C	-1.1437425719	-0.5913974908	 0.8172353529	-0.14564
C	-0.2051095003	-1.810409933	 1.0161168429	-0.252846
C	 0.7012759206	-0.5730289045	 1.2627288273	 0.108198
C	 2.1186782933	-0.5077978119	 1.4704131112	 0.172747
N	 3.2560484585	-0.4371538465	 1.666850194	-0.340489
C	-0.5097022242	 0.0260102874	 2.0864138757	 0.39291
O	-0.7350062905	 0.7471171077	 2.9981156719	-0.289946
H	 1.0496963441	 1.7878816174	-0.4195776071	 0.152019
H	-0.6589601907	 1.7786272164	-0.8844855524	 0.139951
H	-0.2039842217	 2.0679743074	 0.8155782552	 0.137897
H	-2.1644417749	-0.5650356825	 0.4447906378	 0.120427
H	-0.3924677344	-2.4691676333	 1.863576135	 0.132444
H	 0.0306589173	-2.331184738	 0.0881853123	 0.137434
127.5308	131.7529	146.4219	200.5255	307.0623	332.6882	373.0172	511.9312	516.1605	548.4983	618.0889	714.3195	744.2039	793.5881	823.0299	839.9778	948.905	999.3042	1016.8118	1094.378	1143.7889	1161.1453	1173.9591	1189.6525	1214.7342	1217.2927	1303.129	1449.2247	1479.2174	1495.0356	1498.8789	1920.7233	2352.66	3002.6061	3093.2944	3094.6484	3126.0839	3167.698	3179.6029
CN1C2CC1(C#N)C2=O	CN1[C@H]2C[C@]1(C#N)C2=O	
InChI=1S/C6H6N2O/c1-8-4-2-6(8,3-7)5(4)9/h4H,2H2,1H3	InChI=1S/C6H6N2O/c1-8-4-2-6(8,3-7)5(4)9/h4H,2H2,1H3/t4-,6-/m0/s1
