19
gdb 34585	4.3272	0.99585	0.87984	0.6756	91.73	-0.224	-0.0139	0.2101	1344.3548	0.158952	-348.728377	-348.719983	-348.719039	-348.761626	32.855	
C	 0.1368289498	-1.129239427	-0.463974875	-0.413922
C	 0.0251912703	 0.0475880444	-0.2281513874	 0.203723
C	-0.0443492388	 1.4307641416	 0.0643701665	 0.193375
C	-1.1192313493	 2.2237094925	-0.0663791108	-0.171056
C	-0.8516186875	 3.6372840933	 0.3722470304	-0.336906
C	 0.669694684	 3.6546111447	 0.5875253233	 0.370521
C	 1.5135470301	 4.7040654165	-0.0921606942	-0.302798
C	 1.3387892777	 4.7221160148	 1.4079572265	-0.319228
C	 1.1448711444	 2.1960765958	 0.6249110455	-0.399126
H	 0.2176829895	-2.1662677767	-0.6761134057	 0.189262
H	-2.0866705584	 1.8872465949	-0.4199670003	 0.098924
H	-1.1789118678	 4.3765014707	-0.3699748251	 0.1085
H	-1.4040914717	 3.8671739449	 1.2961659334	 0.111752
H	 2.4782314988	 4.4054510204	-0.4904269816	 0.110843
H	 1.0083196812	 5.4683896324	-0.6745042048	 0.109281
H	 0.7168700593	 5.4993817531	 1.8411343324	 0.10902
H	 2.1855499356	 4.437898516	 2.0248719116	 0.110324
H	 1.3665866927	 1.8539069562	 1.6452216355	 0.114064
H	 2.0537541503	 2.0309757414	 0.0354961198	 0.113447
46.2395	139.0906	155.346	284.0741	319.5812	369.0428	393.1882	448.5826	539.1924	540.799	592.0949	598.4745	634.3911	778.2303	785.8042	840.8403	868.9545	879.0844	906.8195	942.2295	982.6037	1002.1879	1008.6382	1039.1054	1057.298	1082.0205	1152.4353	1177.9867	1189.3658	1200.6062	1258.4058	1276.3503	1295.676	1322.1906	1379.182	1466.9662	1482.0389	1490.527	1503.9291	1674.5827	2220.8364	2988.8882	3010.7959	3033.1564	3056.3759	3118.1796	3122.6019	3196.1883	3204.5043	3211.7058	3504.6642
C#CC1=CCC2(CC2)C1	C#CC1=CCC2(CC2)C1	
InChI=1S/C9H10/c1-2-8-3-4-9(7-8)5-6-9/h1,3H,4-7H2	InChI=1S/C9H10/c1-2-8-3-4-9(7-8)5-6-9/h1,3H,4-7H2
