19
gdb 13275	6.75521	0.87623	0.82042	2.0815	76.24	-0.2463	0.0315	0.2778	1449.0692	0.165077	-365.063694	-365.054912	-365.053968	-365.09843	30.774	
C	 0.0801866505	 1.6619572013	-0.0650536251	-0.379872
C	 0.0261108204	 0.7385882136	-1.2841322923	-0.151
C	 0.4982988694	-0.6837307355	-0.9657082492	-0.157239
N	 0.5094324987	-1.5013626877	-2.1751807181	-0.327438
C	-0.0666900186	-2.6090442852	-2.1779376958	 0.460547
C	-0.2857217855	-3.703786406	-3.2019445504	-0.373108
C	-1.051611112	-4.3933229653	-2.0547943036	-0.076163
O	-0.7596764337	-3.2718207841	-1.1693740481	-0.262595
H	-0.5532373025	 1.2884180217	 0.7474190955	 0.11385
H	 1.1008839739	 1.7455033982	 0.3252047974	 0.113034
H	-0.262512601	 2.6704922756	-0.3156762816	 0.111605
H	-0.9978402452	 0.6922852062	-1.6747641014	 0.095567
H	 0.6467443889	 1.1383594541	-2.0941350814	 0.104821
H	 1.5274217379	-0.6389924775	-0.5835882155	 0.102955
H	-0.1224305377	-1.1166290432	-0.1690935854	 0.106514
H	-0.8793763739	-3.4089625047	-4.0687704192	 0.137502
H	 0.6241540094	-4.2038945816	-3.5379415847	 0.137863
H	-2.1290298636	-4.5118165321	-2.1948995286	 0.121477
H	-0.6176561054	-5.3191671477	-1.6690450927	 0.121679
28.8641	82.2771	113.4692	153.1059	228.0054	237.7744	302.316	369.7076	530.067	578.053	747.7096	765.2326	790.1986	891.9138	896.4869	906.7454	962.9373	997.7073	1041.4937	1056.0156	1076.1145	1108.6335	1133.4797	1159.4515	1183.6324	1200.564	1240.7273	1270.7732	1315.744	1332.6681	1349.8932	1398.7966	1412.1066	1467.9991	1488.0622	1497.8254	1499.5606	1513.2218	1522.3865	1846.0702	2999.0415	3027.7699	3030.3252	3035.5258	3060.6704	3068.0191	3087.1179	3096.2713	3102.2433	3113.0319	3142.417
CCCN=C1CCO1	CCCN=C1CCO1	
InChI=1S/C6H11NO/c1-2-4-7-6-3-5-8-6/h2-5H2,1H3	InChI=1S/C6H11NO/c1-2-4-7-6-3-5-8-6/h2-5H2,1H3
