19
gdb 89443	2.80164	1.6475	1.40698	1.6494	73.73	-0.2434	0.069	0.3125	984.2721	0.160239	-422.999777	-422.992093	-422.991149	-423.031341	31.612	
O	-0.0364860157	 1.4518480044	-0.0539649473	-0.429883
C	 0.0274672335	 0.0300535156	 0.0301245358	 0.080183
C	 0.6989833777	-0.4996456987	 1.328839917	-0.297048
C	-0.4834985449	-0.9031270409	 2.2202287635	 0.401657
O	-0.1789360467	-1.7276227782	 3.3123565385	-0.497922
C	-1.4312107276	 0.320465897	 2.4726266867	-0.290062
C	-2.2670918742	-0.1516742797	 1.2827437757	-0.056286
C	-1.3875310083	-0.5287848998	 0.100232598	-0.036787
C	-1.5472317554	-1.4860360413	 1.2460788865	-0.125637
H	 0.8575754175	 1.7792806666	-0.1946130272	 0.279866
H	 0.5442648753	-0.3682606026	-0.8543027543	 0.06507
H	 1.3054316097	-1.3874632087	 1.1175005015	 0.099585
H	 1.343502304	 0.2610420924	 1.7851198497	 0.080074
H	 0.3867079048	-1.2313020385	 3.913771197	 0.275525
H	-1.970124556	 0.1749409069	 3.412741087	 0.098151
H	-0.9947013071	 1.3223325122	 2.4285671853	 0.095891
H	-3.3203290811	 0.0509422478	 1.1295624941	 0.083491
H	-1.9186347993	-0.7193376273	-0.8252611296	 0.084786
H	-1.9085370261	-2.5044010673	 1.204251892	 0.089346
140.9376	227.1675	240.8889	299.4131	321.4734	377.1203	409.8186	446.3382	516.8568	609.9729	635.9038	701.5238	763.0901	802.1948	852.6849	872.6442	891.6017	940.7217	961.0056	965.1106	1007.2517	1024.4046	1031.305	1066.5765	1082.3483	1096.9947	1139.1794	1174.9161	1204.9559	1211.8839	1228.9881	1239.3462	1260.2211	1291.2628	1324.5786	1348.8519	1379.7698	1407.8716	1426.7261	1472.0231	1488.8346	2992.4119	3030.0653	3050.4763	3079.9989	3111.3348	3174.4965	3183.031	3211.6135	3803.6011	3814.9172
OC1CC2(O)CC3C1C23	O[C@H]1C[C@@]2(O)C[C@H]3[C@@H]1[C@@H]23	
InChI=1S/C7H10O2/c8-4-2-7(9)1-3-5(4)6(3)7/h3-6,8-9H,1-2H2	InChI=1S/C7H10O2/c8-4-2-7(9)1-3-5(4)6(3)7/h3-6,8-9H,1-2H2/t3-,4-,5-,6-,7-/m0/s1
