21
gdb 72409	2.85212	1.43699	1.3341	2.6348	76.53	-0.2492	0.0703	0.3194	1063.5409	0.184109	-424.249363	-424.241154	-424.24021	-424.28126	33.984	
O	-0.0497180188	 1.3534121796	 0.0238512849	-0.502425
C	 0.0150403531	-0.0520991777	 0.003825258	 0.42578
C	 0.6504831254	-0.6609083725	-1.273717997	-0.267757
C	 0.0912341899	-2.1142167221	-1.2841688978	-0.267769
C	-0.7946235015	-2.1559397777	-0.0113358336	 0.425779
O	-1.784995306	-3.1555453548	-0.0086605968	-0.502424
C	 0.1322552599	-2.1481475359	 1.232606136	-0.267746
C	 0.6916035469	-0.6948790029	 1.2430551909	-0.267758
C	-1.365470194	-0.7286787099	 0.017228635	-0.283422
H	 0.850757	 1.6948760052	 0.0136566418	 0.272968
H	 0.3158694287	-0.0933957413	-2.14653485	 0.105095
H	 1.744729559	-0.6200356946	-1.2494736886	 0.085074
H	-0.5331865223	-2.3001118552	-2.1624510536	 0.105094
H	 0.8757178429	-2.8783371017	-1.2655894419	 0.085076
H	-1.3457044564	-4.0124104731	-0.0277032987	 0.272968
H	-0.4633623614	-2.3578118459	 2.125424749	 0.105096
H	 0.9153166369	-2.9112150178	 1.1679862013	 0.08507
H	 1.7844929266	-0.6529728629	 1.1840960449	 0.085073
H	 0.3860490104	-0.1512184944	 2.1413346422	 0.105095
H	-1.9399075731	-0.5141335167	 0.9222366116	 0.100568
H	-1.9690251061	-0.4900607077	-0.8624468178	 0.100564
160.899	233.9676	245.6564	265.0999	298.5166	326.9626	414.5248	419.2849	461.8821	485.0889	517.6088	575.3978	609.4328	766.9428	791.7841	811.3794	859.2112	941.4475	952.5125	954.5521	975.8086	980.3322	998.2408	1030.3864	1035.1985	1105.7803	1157.0495	1158.9918	1206.9419	1212.6968	1235.2598	1244.5374	1255.125	1259.5119	1263.2318	1312.2547	1315.6183	1343.1221	1376.7932	1416.3536	1483.089	1493.1042	1497.6215	1500.4671	1531.4563	3035.2995	3039.6586	3045.5799	3050.8552	3063.9066	3080.8624	3083.3406	3098.9915	3104.6872	3117.675	3806.1213	3806.2459
OC12CCC(O)(CC1)C2	O[C@@]12CC[C@@](O)(CC1)C2	
InChI=1S/C7H12O2/c8-6-1-2-7(9,5-6)4-3-6/h8-9H,1-5H2	InChI=1S/C7H12O2/c8-6-1-2-7(9,5-6)4-3-6/h8-9H,1-5H2/t6-,7+
