19
gdb 17387	4.60744	1.64058	1.54027	1.689	74.48	-0.2266	0.0769	0.3035	905.9383	0.167092	-327.866109	-327.859185	-327.858241	-327.897089	27.67	
C	 0.2815454155	 1.5390645583	-0.0611507452	-0.244948
C	 1.4568794256	 0.6484338723	-0.1240336752	-0.088501
N	 0.0852643241	 0.1127986687	 0.2537415056	-0.125691
C	 0.0543715114	-0.5843578873	-1.0833754424	-0.257132
C	 1.4925845291	-0.1381808593	-1.4331032099	 0.372315
C	 1.9645335888	 0.5417427742	-2.7453159441	-0.288044
C	 3.3179373958	-0.2076848154	-2.6091173627	-0.209096
C	 2.6360826522	-1.1727921355	-1.6016251561	-0.282963
H	 0.1815532283	 2.1830219841	 0.8074656838	 0.119126
H	-0.1464054008	 1.9427170521	-0.977542488	 0.108445
H	 2.2656912353	 0.6986610098	 0.6002426955	 0.089992
H	-0.0406097959	-1.6642872771	-0.9420115123	 0.109028
H	-0.7525380391	-0.2365510463	-1.7394649368	 0.09797
H	 1.3883989197	 0.1897462998	-3.6073102819	 0.099746
H	 1.9813828891	 1.6349964621	-2.7611207724	 0.096223
H	 3.7472104581	-0.6449380601	-3.5131365725	 0.098114
H	 4.0808579755	 0.4115384471	-2.1293477165	 0.104612
H	 3.1911125279	-1.4548122297	-0.7024909786	 0.101155
H	 2.2775359995	-2.0856771577	-2.0882893702	 0.099648
113.8471	149.4375	231.5933	339.6815	425.0705	454.8135	514.0125	682.8802	744.6477	774.5483	781.5732	830.586	876.9472	891.6437	914.2308	937.4196	958.763	977.0659	1003.4166	1048.9228	1066.9732	1104.6561	1111.1476	1156.2054	1175.088	1189.6991	1201.7294	1218.9751	1233.4783	1255.8601	1271.6248	1277.7608	1287.7108	1300.1228	1374.7885	1472.4559	1484.0469	1487.9337	1504.2565	1505.5416	3029.338	3043.401	3047.925	3061.5802	3092.1959	3093.952	3095.3907	3097.9439	3118.1224	3142.7327	3191.3851
C1C2N1CC21CCC1	C1[C@H]2N1CC12CCC1	
InChI=1S/C7H11N/c1-2-7(3-1)5-8-4-6(7)8/h6H,1-5H2	InChI=1S/C7H11N/c1-2-7(3-1)5-8-4-6(7)8/h6H,1-5H2/t6-,8?/m1/s1
