15
gdb 117035	2.93073	0.92229	0.85336	2.1366	64.55	-0.2583	-0.111	0.1473	1413.412	0.108328	-494.935154	-494.925234	-494.92429	-494.972179	32.26	
C	-0.4097859669	 1.3296059342	 0.6228518739	-0.393147
C	-0.1110484062	-0.0938074251	 0.2001024399	-0.054912
O	 0.7565816158	-0.6767581254	 1.2090251826	-0.235222
C	 1.0743574605	-1.9538286437	 1.0336995584	 0.381509
O	 0.7251434187	-2.6712797437	 0.1326161714	-0.349627
C	 2.0255780538	-2.4714682127	 2.116558295	 0.226946
O	 3.148709925	-2.0620783747	 2.2628334067	-0.252538
C	 1.4935258367	-3.6108523019	 2.9916652591	 0.082429
O	 0.3297338046	-3.9012065647	 3.0423044222	-0.200221
H	 0.5100211258	 1.9151050742	 0.7021737259	 0.138471
H	-1.058468199	 1.8035918988	-0.1195303934	 0.13042
H	-0.919384561	 1.3512229678	 1.5898867955	 0.136897
H	-1.0142842346	-0.7061561786	 0.1270824593	 0.137026
H	 0.4050613513	-0.1417135896	-0.7631683338	 0.133731
H	 2.2831518955	-4.088040845	 3.6082368073	 0.11824
24.8738	56.639	104.6351	122.4623	124.0954	177.7774	255.4569	261.7167	349.715	375.7381	504.6772	554.6203	601.5362	803.4894	817.262	864.7411	877.255	1011.0667	1037.3634	1130.8771	1152.4816	1180.3951	1293.6106	1319.8488	1365.0042	1401.0378	1425.578	1485.5052	1495.3993	1515.9528	1807.0776	1814.8025	1831.1174	2934.1316	3049.9567	3061.2518	3102.7608	3124.8245	3133.5668
CCOC(=O)C(=O)C=O	CCOC(=O)C(=O)C=O	
InChI=1S/C5H6O4/c1-2-9-5(8)4(7)3-6/h3H,2H2,1H3	InChI=1S/C5H6O4/c1-2-9-5(8)4(7)3-6/h3H,2H2,1H3
