18
gdb 22667	5.56373	0.7943	0.70409	1.8193	78.15	-0.2297	0.0124	0.2422	1541.0247	0.146256	-439.053418	-439.04422	-439.043276	-439.087857	33.589	
O	-0.0149808026	 1.3927570277	 0.0062596623	-0.413681
C	-0.0363311061	-0.0222908828	 0.001934965	-0.172853
C	-1.4483650027	-0.5091435633	 0.0126669542	 0.309849
C	-2.5539066143	 0.2374596991	 0.0236762462	-0.167358
C	-3.8151557938	-0.5876620206	 0.0322815548	-0.347688
C	-3.2771575189	-2.0055795368	 0.0244939286	 0.397428
C	-1.7581184852	-1.9909705307	 0.0117683861	-0.401691
N	-3.9326653725	-3.0941834618	 0.0275196237	-0.220132
O	-5.3196484054	-2.8478591607	 0.0397294603	-0.395576
H	 0.9024065245	 1.6793643525	-0.0015574482	 0.29072
H	 0.4798498753	-0.4305251956	-0.8860331085	 0.095442
H	 0.4952516382	-0.4361822234	 0.8781163296	 0.095419
H	-2.5539735949	 1.3195393621	 0.0262845371	 0.111272
H	-4.4495024018	-0.4117827424	 0.9116353647	 0.131814
H	-4.4640430742	-0.4077126993	-0.8355679589	 0.131809
H	-1.3542349564	-2.5059182849	-0.8704608135	 0.125312
H	-1.339484808	-2.5100330025	 0.8846573193	 0.125322
H	-5.6830366611	-3.7396943766	 0.040765257	 0.304593
49.6783	91.3015	158.6079	209.3212	237.0409	260.6477	293.2524	354.3139	388.9085	426.8056	507.7299	560.3298	659.002	696.4466	819.8054	826.8466	896.8272	918.9296	969.0909	995.1576	1002.1939	1046.8732	1074.0917	1141.5718	1163.599	1178.9511	1208.3616	1223.6416	1253.1513	1289.4185	1297.4198	1337.9441	1401.2012	1461.8386	1467.1583	1471.596	1507.0436	1723.4738	1764.2387	2934.626	2945.6474	3012.1394	3018.0974	3034.8547	3035.6509	3224.8706	3819.3442	3840.0692
OCC1=CCC(C1)=NO	OCC1=CCC(=NO)C1	
InChI=1S/C6H9NO2/c8-4-5-1-2-6(3-5)7-9/h1,8-9H,2-4H2	InChI=1S/C6H9NO2/c8-4-5-1-2-6(3-5)7-9/h1,8-9H,2-4H2
