16
gdb 133832	4.15756	1.26461	1.10131	3.3411	82.98	-0.1965	-0.0365	0.1599	1091.8944	0.124947	-396.824879	-396.817474	-396.81653	-396.85683	28.605	
N	 1.4771426361	 1.1111551307	 1.7484355914	-0.357505
C	 2.0693004509	 0.1506989183	 1.0752381228	-0.118907
C	 3.4183996649	 0.5780441658	 0.5999111498	-0.055482
C	 3.3198358343	 0.9162285909	-0.8989760146	-0.307346
C	 3.9593491257	-0.2472950969	-1.1469402754	 0.368957
N	 4.0983612512	-1.3145664401	-2.0436659549	-0.249646
C	 4.1592620828	-2.34043784	-1.2678943218	 0.007808
C	 4.0493208816	-2.0315409353	 0.2264220954	-0.251319
N	 4.3020882814	-0.5894880534	 0.1723289471	-0.109658
H	 1.87635162	 2.0321289131	 1.950830622	 0.229267
H	 0.5422797024	 0.9750736461	 2.1066705219	 0.27121
H	 3.9618636679	 1.2728087344	 1.2615801467	 0.06692
H	 2.8328723685	 1.6901343723	-1.4645067646	 0.113588
H	 4.2396078248	-3.3483444934	-1.6676820534	 0.125053
H	 4.7795956703	-2.5735005624	 0.8368611773	 0.117654
H	 3.0346293672	-2.2759938702	 0.5768196004	 0.149405
103.719	126.1363	195.124	331.8558	342.7358	406.4235	497.634	528.6262	622.1704	703.7801	713.359	764.0289	780.5585	801.2626	844.3784	882.8028	915.1541	946.5978	976.2857	1021.1796	1038.3373	1108.2177	1158.963	1167.8561	1194.4542	1220.1464	1242.1472	1275.1065	1316.7238	1346.2477	1448.3722	1468.6988	1602.9379	1655.5061	1673.5598	2959.5918	2995.5524	3065.2547	3173.1804	3292.8942	3344.3941	3593.3001
NC12C3C1C1=NC2CN31	N[C][C@@H]1[CH][C]2[N][CH]CN12	
InChI=1S/C6H7N3/c7-6-2-1-9-4(6)3(6)5(9)8-2/h2-4H,1,7H2	InChI=1S/C6H7N3/c7-4-5-3-6-8-1-2-9(5)6/h1,3,5H,2,7H2/t5-/m0/s1
