16
gdb 36589	3.00632	0.99679	0.82125	3.4868	76.69	-0.2738	0.0028	0.2766	1378.4698	0.121397	-400.693451	-400.684274	-400.68333	-400.728118	33.049	
C	 0.1117082167	-1.1860915937	-0.0050577409	-0.414566
C	 0.0998551774	 0.0099989635	 0.096053795	 0.289389
C	 0.0568192218	 1.456274109	 0.2338680118	-0.241928
O	 1.2784337187	 2.0137738594	-0.265870976	-0.277577
C	 1.3752358931	 3.3904457421	-0.0899988675	 0.313369
C	 1.8313548204	 3.9207518641	 1.2612951645	-0.314521
C	 2.7747752371	 3.9176455751	 0.0889237752	-0.311087
C	 0.4236423919	 4.177609333	-0.8496519234	 0.240906
N	-0.3553041746	 4.7868461408	-1.4497782235	-0.34954
H	 0.1230032842	-2.244072779	-0.0990178512	 0.207155
H	-0.7979929816	 1.865915298	-0.3236672807	 0.151142
H	-0.0769078632	 1.7346416382	 1.2899190581	 0.129167
H	 1.4269771432	 4.8644322906	 1.6073667551	 0.143737
H	 1.9793310066	 3.1667819653	 2.0258174981	 0.140262
H	 3.5483681594	 3.1595453742	 0.0630257588	 0.14887
H	 3.0251699188	 4.8587448194	-0.3850122033	 0.145223
44.8581	101.6952	131.1395	166.498	215.7065	262.4513	326.266	358.6539	425.2718	490.4042	575.012	605.0475	616.2245	686.3658	711.5599	777.3951	894.9749	920.3091	939.5544	984.6627	1010.0868	1032.6065	1058.07	1079.7481	1092.7769	1195.217	1254.7407	1275.2271	1302.639	1413.772	1450.411	1483.1835	1499.9173	2251.1016	2346.9811	2991.6794	3023.5766	3145.7747	3152.7809	3236.6119	3251.2892	3504.9071
C#CCOC1(CC1)C#N	C#CCOC1(CC1)C#N	
InChI=1S/C7H7NO/c1-2-5-9-7(6-8)3-4-7/h1H,3-5H2	InChI=1S/C7H7NO/c1-2-5-9-7(6-8)3-4-7/h1H,3-5H2
