19
gdb 67336	2.74342	1.91114	1.31758	2.874	79.44	-0.2313	-0.0095	0.2219	989.3662	0.160476	-385.881851	-385.87443	-385.873486	-385.913513	29.908	
C	-0.1081354096	 1.5433446228	 0.0183122665	-0.507389
C	-0.0059069727	 0.0380992337	 0.0347214768	 0.240055
C	 1.1419090504	-0.7735866113	-0.6959584865	-0.092121
C	 2.1164393146	-0.4275528085	 0.4537321008	-0.250118
C	 0.7776656909	-0.7781915863	 1.1436482789	-0.092112
C	 0.6132689281	-1.9769960204	 0.1522173326	-0.011374
C	-0.862751834	-2.2000027501	-0.140680248	-0.371772
C	-1.2886370024	-0.7283120446	-0.2211188036	 0.367456
O	-2.3823937812	-0.2720839641	-0.4372864685	-0.330351
H	 0.8500193275	 2.0339233757	 0.2067656343	 0.115851
H	-0.4848760654	 1.8867148065	-0.950245448	 0.132282
H	-0.8221213569	 1.8827443077	 0.7752766646	 0.132187
H	 1.3364821005	-0.7668945579	-1.7708321638	 0.076514
H	 2.9409282367	-1.1286895095	 0.6152168128	 0.092792
H	 2.4663511814	 0.603672401	 0.5256049198	 0.099385
H	 0.547967284	-0.7768627226	 2.2115898287	 0.076497
H	 1.2683470143	-2.8393506773	 0.2797476536	 0.073563
H	-1.0597074083	-2.7208702514	-1.0835994038	 0.124344
H	-1.4036926679	-2.7254207937	 0.6533653528	 0.124312
109.4913	143.3989	280.1672	297.3083	322.6763	383.7283	526.651	569.0262	608.9342	652.3055	696.2748	715.4143	819.2988	846.9393	871.0457	893.1662	915.7688	971.39	994.2816	1013.9701	1044.6782	1056.0345	1074.7453	1076.8886	1102.8742	1126.3359	1176.6087	1189.8657	1201.0946	1206.7694	1241.3991	1265.8471	1269.5529	1324.0084	1349.5455	1419.9635	1460.6305	1485.6429	1488.723	1526.7787	1848.7279	3043.6884	3049.5111	3053.7553	3085.3207	3088.9228	3091.8673	3105.5225	3113.2799	3117.1969	3123.621
CC12C3CC1C3CC2=O	C[C@@]12[C@H]3C[C@@H]1[C@H]3CC2=O	
InChI=1S/C8H10O/c1-8-5-3-6(8)4(5)2-7(8)9/h4-6H,2-3H2,1H3	InChI=1S/C8H10O/c1-8-5-3-6(8)4(5)2-7(8)9/h4-6H,2-3H2,1H3/t4-,5-,6+,8+
