15
gdb 125828	2.68579	1.56462	0.99552	3.4422	69.67	-0.2555	-0.0537	0.2018	1118.9076	0.112782	-450.106791	-450.09843	-450.097486	-450.140043	30.562	
C	 0.0120656884	 1.5015420086	 0.0051110488	-0.474604
C	 0.0208037788	 0.0129846091	 0.0588186682	 0.251115
N	-0.0076306209	-0.7230632245	-1.0198865098	-0.133158
O	 0.0113381382	-2.0304987142	-0.5986611983	-0.160117
N	 0.0527164109	-2.1046121171	 0.7545065772	-0.172621
C	 0.0596322784	-0.8715665371	 1.1879872969	 0.306853
C	 0.0925419838	-0.5563167073	 2.6313219	 0.27351
N	 0.231842645	-1.6529920171	 3.4438756406	-0.552813
N	 0.0225287365	 0.6772210325	 2.9724614162	-0.534278
H	 0.8940081681	 1.9056873279	 0.5078284543	 0.156419
H	-0.0091626291	 1.8346705808	-1.0339146747	 0.140371
H	-0.8540303081	 1.8961437639	 0.5414315836	 0.158433
H	 0.0754843877	-2.5648768309	 3.0439608618	 0.277054
H	 0.0350931767	-1.547637448	 4.4253309614	 0.254629
H	 0.0523328456	 0.7846102334	 3.9878894637	 0.209207
62.5959	129.8803	193.1325	205.2626	291.7077	310.2202	351.9072	414.1534	456.759	520.5926	632.1842	647.2571	648.4138	705.3199	795.744	866.2724	917.4034	954.1454	1023.397	1071.053	1072.3176	1096.4946	1134.0943	1212.5026	1381.3229	1423.2745	1443.7805	1468.8296	1477.9947	1538.9458	1609.1506	1634.3714	1713.2076	3061.9484	3127.5306	3151.2856	3459.4922	3589.1485	3712.4144
CC1=NON=C1C(N)=N	Cc1nonc1C(=N)N	
InChI=1S/C4H6N4O/c1-2-3(4(5)6)8-9-7-2/h1H3,(H3,5,6)	InChI=1S/C4H6N4O/c1-2-3(4(5)6)8-9-7-2/h1H3,(H3,5,6)
