16
gdb 15291	5.8158	0.96583	0.87935	2.7142	72.81	-0.2512	-0.024	0.2272	1260.9125	0.128238	-346.566073	-346.557702	-346.556758	-346.5995	30.126	
O	-0.1774886598	 0.1369176428	-0.6367421206	-0.269315
C	-0.0500436821	 1.2178055507	-0.115969092	 0.166823
C	 1.2412523287	 1.924735659	 0.0323519463	-0.124088
C	 1.2490441777	 3.4518752591	 0.0038371786	-0.288503
C	 1.5697072975	 2.7517158492	 1.2767139867	 0.008008
C	 0.6410088416	 2.8188123447	 2.4849001712	-0.386668
C	 0.9685468484	 3.9429891886	 3.3565356571	 0.301057
C	 1.2606243461	 4.8708179043	 4.0619865218	-0.435285
H	-0.93670766	 1.7676652975	 0.277491106	 0.064735
H	 2.0714636884	 1.4042811477	-0.432649166	 0.111091
H	 2.038930337	 3.9344806844	-0.5593756786	 0.132252
H	 0.28168057	 3.9400866132	-0.0715738451	 0.127763
H	 2.6196699854	 2.7151660561	 1.5506880203	 0.114854
H	-0.4030608402	 2.9045107367	 2.162864494	 0.134593
H	 0.7076033462	 1.8829682499	 3.0546510814	 0.143086
H	 1.508035605	 5.689748296	 4.690997229	 0.199599
56.248	88.1307	134.7298	225.6964	264.0811	338.7124	369.9478	423.4507	463.3517	547.6926	623.0661	648.0939	810.9252	843.6621	870.714	888.351	925.9035	989.8705	1013.8881	1049.4393	1076.2439	1127.8165	1145.0132	1193.5642	1228.1286	1253.4551	1323.8512	1344.41	1411.5766	1451.595	1469.1155	1491.4052	1816.6145	2240.9552	2854.6618	3026.2658	3062.9608	3132.2089	3157.4697	3177.5037	3222.8824	3506.3127
O=CC1CC1CC#C	O=C[C@H]1C[C@H]1CC#C	
InChI=1S/C7H8O/c1-2-3-6-4-7(6)5-8/h1,5-7H,3-4H2	InChI=1S/C7H8O/c1-2-3-6-4-7(6)5-8/h1,5-7H,3-4H2/t6-,7-/m1/s1
