22
gdb 118440	1.67384	1.28713	0.82476	3.7114	80.16	-0.2362	0.0289	0.2651	1500.8411	0.19098	-441.520694	-441.509032	-441.508088	-441.558999	40.013	
C	-0.094797138	 1.4282756788	 0.0339846024	-0.385909
C	 0.2053689012	-0.0593325753	 0.0918588673	-0.043119
O	 0.4718047226	-0.506554121	-1.2289767331	-0.238531
C	 0.721253776	-1.8790052124	-1.3539845487	 0.041723
C	 0.7770240713	-2.2027927054	-2.8547726168	-0.182351
C	-0.5370250817	-1.8992744759	-3.5769951354	-0.386764
C	 2.0554489169	-2.2799136502	-0.6837299357	 0.365402
N	 2.1409025963	-3.6016697275	-0.3501139812	-0.520605
O	 2.9598594563	-1.4936001851	-0.4929091798	-0.356195
H	 0.7645889499	 1.9727907586	-0.3665426365	 0.134667
H	-0.957727985	 1.6252327197	-0.6088870324	 0.120407
H	-0.3126023537	 1.8108651414	 1.0356899267	 0.112598
H	 1.0719992397	-0.2513918599	 0.7375838513	 0.113144
H	-0.6551048067	-0.6132133879	 0.5050698254	 0.076925
H	-0.0963340669	-2.4594193516	-0.8846501955	 0.054242
H	 1.5940708237	-1.6135263272	-3.2858124632	 0.125054
H	 1.046488216	-3.2581975377	-2.9769198846	 0.091699
H	-1.3561067288	-2.5131760905	-3.1849415024	 0.106253
H	-0.8107721033	-0.8500647336	-3.4468967968	 0.139274
H	-0.4493221357	-2.104056343	-4.6482171485	 0.112081
H	 1.3809401984	-4.244995879	-0.4836658938	 0.258491
H	 3.0024726314	-3.9437919751	 0.0426735715	 0.261513
39.5311	61.8106	72.8258	97.6164	113.8425	162.051	176.6758	231.1856	247.4681	292.0264	329.8589	348.3338	455.435	513.6501	559.9449	658.4535	727.6483	769.8724	823.3678	854.4636	901.1404	934.4393	1004.9877	1054.8912	1083.5719	1099.8453	1120.4802	1171.2273	1186.1133	1189.1249	1262.4926	1296.2692	1302.7957	1332.462	1373.4419	1389.5819	1403.5107	1407.1191	1444.3935	1479.588	1482.9648	1494.6679	1501.5992	1509.511	1523.9255	1613.2607	1804.2664	2916.1099	2958.0458	3035.5634	3038.5048	3039.0789	3044.6856	3078.6083	3101.6214	3117.5576	3123.9819	3132.4632	3602.0145	3738.5085
CCOC(CC)C(N)=O	CCO[C@@H](CC)C(=O)N	
InChI=1S/C6H13NO2/c1-3-5(6(7)8)9-4-2/h5H,3-4H2,1-2H3,(H2,7,8)	InChI=1S/C6H13NO2/c1-3-5(6(7)8)9-4-2/h5H,3-4H2,1-2H3,(H2,7,8)/t5-/m0/s1
