22
gdb 112747	2.26193	1.30922	0.99361	1.7205	82.64	-0.2402	0.0692	0.3093	1317.2417	0.193071	-404.314014	-404.304336	-404.303392	-404.348694	36.089	
C	 0.339578346	 1.4788384738	 0.1508707682	-0.382455
C	 0.0433617363	-0.0206833718	 0.0489483045	-0.192492
C	 0.5192054968	-0.6115483199	-1.2675195394	 0.083968
O	 1.957012378	-0.524162448	-1.4328302426	-0.32735
C	 2.08100028	-1.9409841351	-1.7384446711	 0.115977
C	 3.1153925961	-2.6361008196	-0.8781810986	-0.407677
C	 0.5956730332	-2.1303240924	-1.4348070028	 0.242781
C	-0.1166505983	-3.1868270704	-0.6878230686	-0.303892
N	-0.3001881199	-3.0238407717	-2.1474465443	-0.368096
H	 1.4119851286	 1.6615044694	 0.0404711024	 0.13998
H	-0.179262743	 2.0398743756	-0.6343586279	 0.113402
H	 0.0201554963	 1.8807084799	 1.1168182961	 0.111085
H	 0.5294483075	-0.558715173	 0.8709445617	 0.099974
H	-1.0365460592	-0.200669466	 0.1420322558	 0.089911
H	 0.0069768809	-0.117630177	-2.110164706	 0.068781
H	 2.3027478918	-2.0863081763	-2.8050934587	 0.081789
H	 2.8771759233	-2.5279370834	 0.1840090779	 0.117729
H	 3.1604545687	-3.7028081044	-1.123326595	 0.120981
H	 4.1058320101	-2.2056440429	-1.0559261378	 0.127793
H	 0.4001847905	-4.0963381143	-0.3934212943	 0.121798
H	-0.9215935123	-2.8893821133	-0.0199788238	 0.114862
H	-1.1849202514	-2.5599083293	-2.3435167557	 0.231151
61.5209	96.8887	149.795	196.3514	217.8732	218.7722	256.9728	287.0011	362.9906	455.9968	472.059	515.0213	576.6808	750.4576	795.1515	850.1698	885.172	889.7519	938.5329	945.0179	971.4567	974.4508	1010.4861	1054.1627	1078.4517	1106.2769	1117.29	1123.7269	1141.4844	1168.2967	1247.8937	1260.9318	1274.4906	1293.6076	1305.7078	1339.9839	1377.2449	1397.1182	1407.3175	1414.4619	1438.27	1473.696	1486.4943	1492.2268	1497.9791	1509.0576	1520.102	2959.9127	3006.0561	3016.2647	3035.4904	3036.8933	3063.3295	3103.735	3104.6836	3107.2077	3116.382	3121.1448	3187.8207	3484.8268
CCC1OC(C)C11CN1	CC[C@H]1O[C@@H](C)[C@]21CN2	
InChI=1S/C7H13NO/c1-3-6-7(4-8-7)5(2)9-6/h5-6,8H,3-4H2,1-2H3	InChI=1S/C7H13NO/c1-3-6-7(4-8-7)5(2)9-6/h5-6,8H,3-4H2,1-2H3/t5-,6+,7-/m0/s1
