16
gdb 130410	3.78775	1.12505	0.88609	6.7892	76.	-0.2175	-0.0301	0.1874	1255.3873	0.127443	-434.090173	-434.082321	-434.081377	-434.122828	29.522	
N	-0.3952720346	 0.7456388482	-0.0336321561	-0.522394
H	 0.0100287712	-0.736578398	 1.6136072305	 0.279663
H	 0.5066966924	 0.8997724275	-0.4735635623	 0.245578
H	-1.1020244656	 0.9055464085	-0.7420610421	 0.247081
C	-0.5832249395	 1.6638269126	 1.0936736823	-0.253894
C	 0.1563964835	 1.171712224	 2.3205207604	 0.434747
C	 0.6187983626	 1.9679501546	 3.3220483329	-0.377046
C	 1.257532258	 1.3775149375	 4.4847200961	 0.367291
O	 1.7018861515	 1.9968525391	 5.4453495652	-0.397913
C	 1.3343594616	-0.0953682183	 4.395810655	-0.090032
N	 0.8957309752	-0.8266276151	 3.4171204793	-0.176004
N	 0.3052153906	-0.1763537377	 2.4021115575	-0.26289
H	-0.2804235212	 2.7022240448	 0.9002850084	 0.121172
H	-1.6551661497	 1.6864953988	 1.3255651167	 0.142944
H	 0.5115461768	 3.0451574103	 3.2673019909	 0.107725
H	 1.8069596772	-0.6276855069	 5.2161168352	 0.133973
78.3443	168.5293	169.7041	238.6751	294.9699	382.5489	453.7936	475.7103	537.8362	551.6596	638.2884	697.0526	736.138	781.1391	860.1772	891.5593	917.532	951.4327	970.2129	1051.392	1072.522	1127.3058	1168.3131	1197.3664	1258.8211	1318.7101	1359.7106	1375.4627	1406.7802	1489.6983	1516.0923	1615.8643	1646.3371	1662.4233	1737.9078	3006.5979	3053.7265	3183.3599	3200.4711	3509.6271	3593.3554	3594.0526
[NH3+]CC1=CC(=O)C=N[N-]1	NCc1cc(=O)cn[nH]1	
InChI=1S/C5H7N3O/c6-2-4-1-5(9)3-7-8-4/h1,3H,2,6H2,(H,8,9)	InChI=1S/C5H7N3O/c6-2-4-1-5(9)3-7-8-4/h1,3H,2,6H2,(H,8,9)
