19
gdb 34027	3.27038	1.30273	1.07938	1.849	81.69	-0.2537	0.0272	0.281	1161.6596	0.159742	-385.860602	-385.852461	-385.851516	-385.893028	32.216	
C	 0.0037182897	-1.2043830657	 0.1409304545	-0.379446
C	 0.0251319275	-0.0047126564	 0.0634433271	 0.246552
C	 0.0203720711	 1.433795786	-0.0594098373	 0.174641
C	-1.2096205593	 2.048501334	-0.7286332466	-0.282644
C	-0.8881857329	 3.2756233042	-1.5980258584	-0.199462
C	 0.1281422083	 4.2114289675	-0.9345735752	-0.203428
C	 1.4716106009	 3.4953918829	-0.741546534	-0.234355
C	 1.3153609108	 2.1631810808	-0.0449293691	 0.019492
O	 0.4863569594	 2.1408072711	 1.1143486834	-0.283033
H	-0.0075227787	-2.2633032799	 0.2205356648	 0.193463
H	-1.7070246314	 1.2820634742	-1.3295286287	 0.112564
H	-1.9056680437	 2.3209046039	 0.0734604103	 0.122294
H	-0.4828092556	 2.9399468402	-2.5619922523	 0.098266
H	-1.8169196503	 3.8107382474	-1.8219272567	 0.098229
H	 0.2756424244	 5.1078078256	-1.545302353	 0.094119
H	-0.2506108083	 4.542878104	 0.0385363098	 0.114911
H	 1.9478056964	 3.3148983157	-1.7147413231	 0.105241
H	 2.1664779408	 4.117265155	-0.1639881085	 0.109207
H	 2.221854971	 1.5633869194	 0.0474151331	 0.09339
103.2805	140.8542	180.9723	273.2154	346.7115	366.0784	392.598	469.8266	520.8979	582.9821	604.0303	616.3471	658.7279	680.1787	785.342	827.9352	846.4069	893.3637	926.2942	936.3073	981.6437	1051.4899	1076.3841	1083.7721	1103.942	1181.9776	1204.6904	1217.8489	1276.5025	1297.5297	1316.1702	1366.3082	1374.1451	1378.4203	1390.361	1447.0032	1476.5191	1477.8082	1488.9991	1498.1684	2236.4361	3018.1567	3020.1415	3040.328	3042.6859	3058.7852	3072.7009	3087.7642	3094.0996	3103.2969	3502.1366
C#CC12CCCCC1O2	C#C[C@]12CCCC[C@H]1O2	
InChI=1S/C8H10O/c1-2-8-6-4-3-5-7(8)9-8/h1,7H,3-6H2	InChI=1S/C8H10O/c1-2-8-6-4-3-5-7(8)9-8/h1,7H,3-6H2/t7-,8+/m1/s1
