19
gdb 47485	2.68288	1.53921	1.1221	2.8145	77.16	-0.2256	0.0185	0.2441	1117.544	0.161436	-419.192569	-419.184628	-419.183684	-419.225226	31.213	
N	-0.1483280616	 1.2703758161	 0.2988878134	-0.480449
C	-0.0120633252	 0.0531053398	-0.0220412945	 0.344411
C	 1.3028466465	-0.7123285845	-0.1647550296	-0.27437
N	 1.2983738133	-1.8341097794	-1.1031915811	-0.289149
C	 0.1044075013	-2.6536549932	-0.8845358309	-0.248664
C	-1.1529610057	-1.8254257926	-0.9822205574	 0.440653
C	-1.8660484406	-1.6479810576	-2.2991402548	-0.325067
C	-2.5052141121	-2.4269343412	-1.1623455576	-0.32707
O	-1.1520537635	-0.6842193953	-0.1357831854	-0.260974
H	 0.7673774218	 1.7026278975	 0.4206931589	 0.217969
H	 2.0952285329	-0.0107117045	-0.4378401133	 0.119169
H	 1.5523215686	-1.1077598591	 0.8306367176	 0.136185
H	 1.2696620559	-1.4695350735	-2.0521739268	 0.222871
H	 0.0788300423	-3.4682810591	-1.6142021649	 0.108919
H	 0.1805306707	-3.1043319176	 0.1139519992	 0.11549
H	-2.2678655723	-0.6638146454	-2.5090779792	 0.134445
H	-1.5057762928	-2.1939070847	-3.1653406011	 0.112387
H	-2.5803079644	-3.505919426	-1.2451896556	 0.117746
H	-3.3215340753	-1.9499123596	-0.6324806769	 0.135498
76.7576	101.6298	238.4879	261.8565	364.3872	391.6853	441.4008	459.4306	508.9285	548.5473	622.5101	757.0583	773.4355	833.8556	845.6227	869.6734	910.8447	930.1249	954.5927	980.8179	991.2382	1003.5577	1051.2805	1081.7493	1102.3772	1120.3413	1142.034	1189.517	1203.6434	1284.5185	1315.0159	1343.8789	1355.6411	1379.0065	1396.4952	1450.5962	1460.588	1477.759	1490.0688	1497.3258	1732.9191	3008.8383	3024.8968	3089.4704	3096.7263	3131.5227	3137.5681	3220.8414	3233.9433	3485.1299	3492.2824
N=C1CNCC2(CC2)O1	[NH][C]1CNCC2(CC2)O1	
InChI=1S/C6H10N2O/c7-5-3-8-4-6(9-5)1-2-6/h7-8H,1-4H2	InChI=1S/C6H10N2O/c7-5-3-8-4-6(9-5)1-2-6/h7-8H,1-4H2
