21
gdb 10169	2.71496	1.2487	0.87854	2.6361	78.53	-0.2401	0.0355	0.2756	1371.0729	0.185956	-366.267971	-366.257433	-366.256489	-366.304639	35.738	
C	-1.8122598594	-1.6116282545	-4.3739627692	-0.389028
C	-1.4170335632	-1.34345606	-2.919601824	-0.15909
C	-1.7964411311	-2.4996962414	-1.9920711805	-0.297651
C	-1.4218070438	-2.2714464516	-0.5463745883	 0.410605
O	-1.7199114422	-3.2503548139	 0.3644719848	-0.247279
C	-2.3637423507	-4.4521028936	-0.0308828848	-0.241242
N	-0.8474331179	-1.2094612287	-0.1702380225	-0.283065
C	-0.5170772279	-1.0602705181	 1.2391905659	-0.313241
H	-1.5317355935	-0.7727840423	-5.0181674809	 0.114371
H	-1.3191800078	-2.5088841271	-4.7658406871	 0.109601
H	-2.8936317076	-1.7598445124	-4.4760945072	 0.109602
H	-0.3402025251	-1.1655628346	-2.8426194072	 0.114615
H	-1.8923583724	-0.4270992104	-2.5569823525	 0.114621
H	-2.8776501772	-2.6871612168	-2.0561335359	 0.112964
H	-1.3220132547	-3.4272851508	-2.3424316464	 0.112954
H	-1.7659630074	-5.024214359	-0.7494091046	 0.125592
H	-2.4776999195	-5.0434688065	 0.8797600794	 0.138053
H	-3.3562737217	-4.2682625725	-0.4575106707	 0.12559
H	-0.0287071091	-0.0944297459	 1.3911450136	 0.110965
H	-1.4097146149	-1.1026279965	 1.8771020701	 0.115539
H	 0.1598795873	-1.8509691233	 1.5885373679	 0.115526
37.6093	70.7628	88.4262	114.2376	144.614	206.6387	216.6208	242.8948	254.4014	334.758	349.4297	503.103	598.1396	635.2076	751.088	800.2551	885.9522	920.0967	1037.805	1057.0733	1086.7692	1099.8975	1124.973	1129.8427	1167.198	1171.4943	1194.7942	1240.824	1255.2017	1324.5032	1325.0409	1400.8569	1413.9584	1437.5358	1464.6334	1483.427	1485.1163	1487.6546	1497.8953	1500.1689	1501.9264	1501.998	1508.3098	1763.3419	3004.3691	3005.1923	3022.4492	3026.064	3031.6985	3055.0677	3060.5518	3077.5365	3085.825	3101.8037	3103.0817	3106.5588	3128.3932
CCCC(OC)=NC	CCCC(=NC)OC	
InChI=1S/C6H13NO/c1-4-5-6(7-2)8-3/h4-5H2,1-3H3	InChI=1S/C6H13NO/c1-4-5-6(7-2)8-3/h4-5H2,1-3H3
