17
gdb 35100	2.2307	1.74161	1.15124	1.4828	78.74	-0.2494	0.0117	0.2611	1079.7895	0.134866	-384.642187	-384.634083	-384.633139	-384.675318	31.141	
C	-0.1282168962	-1.2510762878	-0.1835916246	-0.49422
C	-0.0636394658	-0.0548429325	-0.0802036025	 0.339727
C	 0.0121065428	 1.3984510974	 0.0519247253	-0.284402
C	-0.5509774689	 1.8981807099	 1.3724505731	-0.069376
C	 0.3703566509	 2.492059654	 2.1267085967	-0.07286
C	 1.7308684896	 2.5141450643	 1.4794434844	-0.337038
C	 1.4584525167	 1.9590194301	 0.0789858677	 0.407426
C	 2.4964418302	 1.5321265267	-0.8577332389	-0.236742
O	 1.8210667462	 2.7850758132	-1.0284132296	-0.270483
H	-0.1875633554	-2.3073846046	-0.2742977707	 0.19747
H	-0.5049983614	 1.8554795943	-0.8025775923	 0.127157
H	-1.5903758346	 1.745664474	 1.6355126811	 0.108766
H	 0.1885445572	 2.9132181891	 3.1089926462	 0.102573
H	 2.160131063	 3.5195596443	 1.4033763192	 0.127534
H	 2.4518038068	 1.8989276337	 2.0339313768	 0.119495
H	 3.5446809789	 1.6023097328	-0.5686510416	 0.111395
H	 2.26811131	 0.7692964309	-1.6000909004	 0.123577
41.1119	135.7969	163.8964	306.4277	349.9561	368.3887	387.3638	481.1991	531.1841	568.1292	621.152	637.2338	719.603	777.6519	796.8853	827.5931	911.227	945.2693	970.8305	976.2634	987.3103	1020.9572	1048.8361	1126.3829	1131.3231	1160.4921	1180.1055	1210.8886	1238.0878	1289.0907	1302.7468	1366.1369	1420.1015	1471.7605	1532.5073	1689.7897	2231.876	3017.6856	3021.2865	3065.7755	3081.9881	3170.6703	3192.5449	3220.1365	3503.6427
C#CC1C=CCC11CO1	C#C[C@H]1C=CC[C@]21CO2	
InChI=1S/C8H8O/c1-2-7-4-3-5-8(7)6-9-8/h1,3-4,7H,5-6H2	InChI=1S/C8H8O/c1-2-7-4-3-5-8(7)6-9-8/h1,3-4,7H,5-6H2/t7-,8+/m0/s1
