19
gdb 82409	2.28605	1.82265	1.19498	3.5728	74.58	-0.2423	-0.0144	0.2279	1071.9826	0.159778	-423.046672	-423.038425	-423.037481	-423.079684	31.377	
C	-0.1237146645	 1.5447722474	-0.055094091	-0.397911
C	 0.1072235423	 0.0334111627	 0.0201693241	-0.124408
C	 0.7698430727	-0.4962224087	-1.2391097175	 0.05499
O	 2.1598444838	-0.1839001469	-1.3725063409	-0.252694
C	 1.7890069802	-1.5599158878	-1.2074320139	 0.032352
C	 2.232792883	-2.2115926901	 0.0884963241	-0.237819
C	 1.3450890033	-1.8304002724	 1.2920359305	-0.303886
C	 0.9130969614	-0.3723073249	 1.2614276448	 0.384756
O	 1.1466190768	 0.3986002353	 2.1605756974	-0.306618
H	 0.8270700814	 2.0658609103	-0.1936763883	 0.141966
H	-0.7813945484	 1.7934383459	-0.8936108975	 0.107117
H	-0.5753239896	 1.9114778944	 0.8683279473	 0.133453
H	-0.8631855276	-0.4809204868	 0.1134329543	 0.097167
H	 0.1929748726	-0.3570170077	-2.1554031083	 0.091998
H	 1.9291561202	-2.1548530144	-2.1104210841	 0.09642
H	 2.2356102192	-3.299625203	-0.0322108675	 0.109222
H	 3.2699017868	-1.9124706254	 0.2759713205	 0.133766
H	 0.4307048573	-2.4382975749	 1.2610534014	 0.116455
H	 1.8487665188	-2.027018793	 2.2405330046	 0.123675
67.3063	122.9718	192.603	208.84	276.0299	352.5561	399.1035	428.3518	521.9741	538.3518	626.6707	694.5357	769.0263	788.0431	818.8783	883.999	919.7759	946.5392	981.7061	1034.4726	1041.3695	1063.1866	1101.543	1139.7163	1152.8801	1177.6193	1221.7919	1244.985	1280.9353	1314.2347	1320.9706	1328.9429	1378.1078	1388.8303	1409.276	1465.7246	1476.2325	1485.9709	1489.0127	1499.0124	1822.4315	2983.7801	3023.315	3045.0699	3049.5652	3084.3907	3089.1953	3108.2985	3115.0169	3121.2819	3140.0108
CC1C2OC2CCC1=O	C[C@H]1[C@H]2O[C@H]2CCC1=O	
InChI=1S/C7H10O2/c1-4-5(8)2-3-6-7(4)9-6/h4,6-7H,2-3H2,1H3	InChI=1S/C7H10O2/c1-4-5(8)2-3-6-7(4)9-6/h4,6-7H,2-3H2,1H3/t4-,6+,7-/m1/s1
