20
gdb 78370	4.00231	1.20891	1.11695	1.4674	86.31	-0.2245	0.0092	0.2337	1181.2745	0.172097	-365.954073	-365.9463	-365.945356	-365.986027	31.149	
C	-0.1810701194	 1.3896034216	-0.0880798059	-0.416467
C	 0.0358247489	-0.1021966063	-0.1562969707	 0.035697
C	 0.9186136249	-0.6861924545	-1.2063295757	-0.177075
N	 1.3805734415	-0.5370522682	 0.2562422018	-0.190852
C	 1.4208111638	-2.0765233739	 0.3139493985	 0.02587
C	 0.585343869	-3.0700631101	 1.1335846416	-0.256293
C	 0.2228821856	-4.1295161702	 0.0302307555	-0.236541
C	 0.1551292025	-3.2991407238	-1.2580341311	-0.229944
C	 0.8334726826	-2.1755220084	-1.0540433825	 0.279556
H	 0.7143353831	 1.9261185034	-0.4130184637	 0.128483
H	-1.0204825323	 1.6910983775	-0.7235183637	 0.116373
H	-0.4017746574	 1.6969033283	 0.939475482	 0.125005
H	-0.8169876464	-0.7048607265	 0.1530162013	 0.086365
H	 1.3558883841	-0.098296331	-2.0054234935	 0.10138
H	 2.4890638894	-2.3205183431	 0.3508095189	 0.092074
H	 1.1065065676	-3.504435021	 1.9908830313	 0.097093
H	-0.3356569224	-2.6013393929	 1.4973383303	 0.108621
H	 0.9878565008	-4.9172574156	-0.0218666105	 0.108733
H	-0.7264007023	-4.6348363274	 0.2379259889	 0.105029
H	-0.4270934235	-3.5933192881	-2.123195513	 0.096892
125.0212	173.0593	205.4819	260.6476	282.6487	338.9226	432.1941	489.1725	618.3157	671.2027	706.6568	731.8927	803.2714	828.587	872.2581	876.9847	892.6866	932.7607	951.4281	955.8065	995.9324	1035.9902	1050.2895	1061.1786	1117.4635	1140.5968	1148.8049	1165.9006	1190.5429	1212.4452	1233.0954	1265.182	1276.3841	1306.4278	1326.0152	1355.2901	1402.4375	1419.2022	1479.1581	1488.2298	1491.4504	1494.0802	1734.9992	3007.6284	3032.3065	3035.9773	3045.5775	3067.4018	3101.1536	3102.2736	3107.8935	3125.8148	3175.7249	3200.0686
CC1C2N1C1CCC=C21	C[C@H]1[C@H]2N1[C@H]1CC[CH][C]21	
InChI=1S/C8H11N/c1-5-8-6-3-2-4-7(6)9(5)8/h3,5,7-8H,2,4H2,1H3	InChI=1S/C8H11N/c1-5-8-6-3-2-4-7(6)9(5)8/h3,5,7-8H,2,4H2,1H3/t5-,7-,8+,9?/m0/s1
