16
gdb 67548	2.50507	1.84248	1.53878	4.9741	69.94	-0.2283	0.0242	0.2525	917.562	0.124943	-433.982239	-433.974824	-433.97388	-434.013659	29.719	
O	-0.0559891533	 1.4466428513	 0.0548096385	-0.465577
C	 0.0118388072	 0.070051778	-0.0320819604	 0.354779
C	 1.1916842848	-0.6442432468	 0.7018476017	-0.138522
N	 0.9650680841	-2.1054546326	 0.64616016	-0.326174
C	 1.5560299322	-1.4139144644	-0.5192260501	-0.077112
C	 0.37877423	-0.770392774	-1.3149782164	-0.084604
N	-0.9522896809	-1.3805576689	-1.2199761276	-0.322723
C	-1.3066161521	-0.705332605	-0.0325715134	 0.357142
N	-2.3004618182	-0.6928864408	 0.7423778827	-0.553545
H	 0.839357859	 1.8032651936	 0.0606546016	 0.285716
H	 1.8017490401	-0.202019921	 1.4818252535	 0.100317
H	 1.7265180857	-2.5479247407	 1.1599667895	 0.236858
H	 2.5265094978	-1.6971937323	-0.9083099004	 0.096812
H	 0.6294408875	-0.3161486827	-2.2738995869	 0.087388
H	-1.1233718193	-2.3699430751	-1.3457071369	 0.239544
H	-3.0105685946	-1.3699884484	 0.4562674346	 0.2097
139.3156	227.8809	257.9399	267.881	315.3436	363.5525	471.0041	486.9722	594.8303	665.4121	689.8287	709.8965	782.3778	826.9584	834.2604	853.7648	898.8439	946.7385	974.9373	983.3507	1021.9425	1033.3988	1061.6877	1091.1723	1119.231	1133.2805	1227.7468	1261.7651	1274.2889	1306.1104	1327.1502	1342.4832	1361.5493	1412.7398	1802.4098	3110.8902	3172.0476	3188.8466	3453.7996	3476.2207	3575.5365	3798.1445
OC12C3NC3C1NC2=N	O[C@]12[C@H]3N[C@H]3[C@H]1N[C]2[NH]	
InChI=1S/C5H7N3O/c6-4-5(9)2-1(7-2)3(5)8-4/h1-3,7,9H,(H2,6,8)	InChI=1S/C5H7N3O/c6-4-5(9)2-1(7-2)3(5)8-4/h1-3,7,9H,(H2,6,8)/t1-,2+,3-,5-/m1/s1
