25
gdb 123150	5.90329	0.43473	0.41764	0.4435	87.71	-0.2493	0.0723	0.3216	2670.0694	0.225986	-426.623	-426.611087	-426.610143	-426.661415	41.626	
C	 0.0275460993	 1.4104193856	 0.0329039204	-0.226305
O	 0.0290686151	 0.0049732342	 0.0125634327	-0.230701
C	-1.27057766	-0.5462426252	 0.0144172948	-0.049537
C	-1.1598094865	-2.0644666054	-0.0134921024	-0.200281
C	-2.5252941811	-2.7572926883	-0.006294245	-0.178838
C	-2.4253772467	-4.2853220092	-0.0392047108	-0.19265
C	-3.7865697734	-4.9883897355	 0.0433733221	 0.13561
C	-3.6645609756	-6.5086803866	-0.0647836619	-0.401664
O	-4.500068546	-4.6136798517	 1.2221271804	-0.428173
H	 1.0693059711	 1.7411813184	 0.0303227002	 0.124069
H	-0.4808401686	 1.8336419304	-0.8487720042	 0.100607
H	-0.4683185048	 1.8079420293	 0.9334331669	 0.100756
H	-1.8250530135	-0.2180994124	 0.911608199	 0.082342
H	-1.8403046759	-0.186046826	-0.860775279	 0.081138
H	-0.5890053843	-2.3555519713	-0.9040539347	 0.101799
H	-0.5681841487	-2.3854391973	 0.8529076081	 0.101526
H	-3.0944667365	-2.4630722566	 0.8829350499	 0.108798
H	-3.1145726869	-2.4182738434	-0.8698239265	 0.091886
H	-1.9136986222	-4.6077135309	-0.9557164562	 0.093881
H	-1.7992024897	-4.634247009	 0.7964669953	 0.08189
H	-4.419479308	-4.6237336378	-0.7762521511	 0.086412
H	-3.0298569129	-6.9050394293	 0.7382638202	 0.10484
H	-4.649588725	-6.9761053161	 0.0169389378	 0.122841
H	-3.215535887	-6.8052357475	-1.0182826138	 0.115336
H	-4.0119197021	-4.9613141582	 1.9772433676	 0.274418
47.2859	57.9851	78.652	106.6644	131.1708	157.2237	198.5225	237.5556	243.1875	248.6545	299.9963	339.9299	420.4285	452.2469	497.7946	523.8302	744.8186	799.4233	847.143	914.029	935.872	977.2193	1011.0282	1038.1851	1049.8929	1072.4318	1097.0202	1132.4732	1161.5657	1170.9801	1178.7799	1215.1603	1222.7907	1262.1429	1271.6059	1310.9338	1315.1572	1326.563	1346.4155	1377.6582	1399.3773	1406.6233	1421.738	1428.4821	1476.0162	1481.1066	1485.3001	1490.3543	1492.839	1496.3337	1503.0271	1510.6473	1532.9097	2938.5017	2963.7855	2965.3966	2992.1369	3005.2186	3013.1124	3021.3623	3027.7094	3029.9146	3042.41	3058.0296	3080.546	3092.9219	3109.6958	3117.658	3792.7614
COCCCCC(C)O	COCCCC[C@@H](C)O	
InChI=1S/C7H16O2/c1-7(8)5-3-4-6-9-2/h7-8H,3-6H2,1-2H3	InChI=1S/C7H16O2/c1-7(8)5-3-4-6-9-2/h7-8H,3-6H2,1-2H3/t7-/m1/s1
