19
gdb 39106	3.15798	1.64275	1.56148	1.4652	73.75	-0.2509	0.0692	0.3201	938.3245	0.162402	-422.968043	-422.961335	-422.960391	-422.998858	27.996	
C	-0.0510366578	 1.543918258	 0.1217142829	-0.216027
C	 1.4837060394	 1.7908624068	 0.0668722579	-0.261066
C	 1.931288526	 0.3176766207	-0.0829092047	 0.411859
C	 3.2969703689	 0.0491722263	-0.6643109235	-0.182779
O	 3.0340329674	 0.2800739729	-2.0766641926	-0.294035
C	 1.606645118	 0.2495788224	-2.4009652651	-0.133066
C	 1.0194903892	-0.3101581921	-1.1220362664	-0.006878
C	 0.0093868928	 0.0132162749	 0.0201269171	-0.004329
O	 1.1086181157	-0.3232530764	 0.9599822913	-0.365456
H	-0.5056814378	 1.8637396289	 1.0611975298	 0.111339
H	-0.6017179075	 2.0009083874	-0.7052084193	 0.102043
H	 1.8055152238	 2.4286600108	-0.7587649426	 0.116248
H	 1.8794023619	 2.2041516413	 0.9972005164	 0.109451
H	 4.0846464972	 0.7470036529	-0.3657231453	 0.107629
H	 3.6345937587	-0.9801469125	-0.4903532123	 0.108799
H	 1.2705687417	 1.2620322422	-2.6540325611	 0.102372
H	 1.4810081426	-0.391779639	-3.2775879574	 0.108316
H	 1.1807942681	-1.3908982836	-1.0924030481	 0.101412
H	-0.8894510883	-0.5793943016	 0.1859455929	 0.084169
153.5341	232.2481	280.2364	326.3404	438.3575	507.9509	530.2719	637.4814	694.6177	749.9232	802.7353	833.0343	835.5626	845.8675	916.1051	927.5196	931.778	950.7784	964.1037	996.5213	1041.4223	1057.7738	1127.5006	1147.9414	1150.6967	1162.9442	1186.0069	1217.4912	1239.2025	1251.7975	1262.6452	1267.602	1314.7947	1323.4595	1359.9935	1365.4359	1409.0143	1479.9429	1498.8112	1520.5689	1531.1911	3022.9722	3029.4797	3064.999	3071.9848	3076.2977	3084.619	3091.8732	3111.6646	3128.2454	3132.7591
C1CC23COCC2C1O3	C1C[C@]23COC[C@@H]2[C@H]1O3	
InChI=1S/C7H10O2/c1-2-7-4-8-3-5(7)6(1)9-7/h5-6H,1-4H2	InChI=1S/C7H10O2/c1-2-7-4-8-3-5(7)6(1)9-7/h5-6H,1-4H2/t5-,6+,7+/m1/s1
