20
gdb 87812	2.78458	1.39988	1.19831	1.5601	79.22	-0.2297	0.0657	0.2954	1115.6385	0.169807	-403.07026	-403.061434	-403.060489	-403.103483	33.931	
C	-0.1019886588	 1.5178978654	-0.0178780946	-0.325447
N	 0.124514537	 0.0803953556	 0.0634384933	-0.07566
C	 1.4206260018	-0.5230372919	-0.1431257602	-0.037169
C	 2.5941559298	 0.3070104072	 0.4318415159	-0.355359
C	 1.8751187561	 0.280315145	 1.7966926451	 0.314384
C	 2.5555165099	 0.089608781	 3.1351209924	-0.413059
C	 1.8217134479	 1.3695443226	 2.8237928053	 0.079881
O	 2.4819467017	 2.589018408	 2.6294281627	-0.425693
C	 0.7431056712	-0.5546642619	 1.2079720211	-0.143495
H	 0.6792716261	 2.1408944634	 0.4362441168	 0.128063
H	-0.2009325304	 1.7950607414	-1.0721411569	 0.119389
H	-1.0489130092	 1.7479408066	 0.4806573575	 0.121564
H	 1.5182585379	-1.3015531629	-0.8920699623	 0.093825
H	 3.5297260956	-0.2583242122	 0.4373523318	 0.11048
H	 2.7706892018	 1.2841264515	-0.0324014423	 0.098593
H	 2.1170496914	-0.5995643368	 3.8512479549	 0.11661
H	 3.6421030696	 0.1157727494	 3.1517007206	 0.10787
H	 0.881997223	 1.5504014671	 3.3363270237	 0.108486
H	 3.2795885335	 2.4259889735	 2.1153846696	 0.286097
H	 0.2165840742	-1.357853242	 1.7138476959	 0.090641
102.868	139.5867	146.3226	190.6904	235.873	288.0909	315.5898	407.0814	447.0509	484.8802	570.9439	616.7266	723.6853	804.2205	834.6863	841.2967	881.4928	902.101	924.5613	978.9863	996.0913	1004.891	1039.3272	1054.7808	1083.6916	1095.8137	1138.2087	1141.4979	1171.9559	1184.6702	1196.223	1228.8126	1249.4972	1269.6861	1309.5751	1352.1691	1376.3645	1434.1696	1455.5683	1477.7424	1486.4273	1495.9055	1511.5486	3017.3726	3034.6505	3082.9031	3095.8456	3103.37	3109.1932	3157.2201	3161.355	3170.7437	3195.4137	3817.3125
CN1C2CC3(CC3O)C12	CN1[C@H]2C[C@]3(C[C@H]3O)[C@@H]12	
InChI=1S/C7H11NO/c1-8-4-2-7(6(4)8)3-5(7)9/h4-6,9H,2-3H2,1H3	InChI=1S/C7H11NO/c1-8-4-2-7(6(4)8)3-5(7)9/h4-6,9H,2-3H2,1H3/t4-,5+,6-,7+,8?/m0/s1
