18
gdb 32564	1.99422	1.89913	1.06544	4.1469	75.42	-0.1766	0.0504	0.227	1136.6202	0.148199	-435.287138	-435.278012	-435.277068	-435.321483	33.759	
C	 0.0286216906	 1.6044677231	-0.071458081	-0.383002
C	 0.0212148325	 0.0743629807	-0.0368640028	-0.142918
N	 0.7076942195	-0.5255613111	-1.169353468	-0.123758
C	 0.0887604231	-0.7399863759	-2.3885696244	 0.470005
N	-1.1518708214	-0.5885229069	-2.6210620587	-0.625311
O	 1.0638486533	-1.130259754	-3.2692372794	-0.226658
C	 2.2818595922	-1.1432464773	-2.5852196736	-0.136685
C	 2.0783797936	-0.7558306621	-1.3172994916	 0.269933
N	 2.9529453627	-0.4977861425	-0.2600079766	-0.605057
H	 1.0517240852	 1.9892972833	-0.041927782	 0.129876
H	-0.4594190903	 1.9611878192	-0.9820428011	 0.146567
H	-0.5164428582	 2.003280755	 0.7900114769	 0.114659
H	 0.4844986354	-0.2924144134	 0.8843398342	 0.098969
H	-1.0040193258	-0.3022436239	-0.0688742415	 0.149872
H	-1.3638449436	-0.816537499	-3.5883933416	 0.221064
H	 3.1530461011	-1.4389276615	-3.1396796591	 0.133324
H	 3.9147562249	-0.6619535987	-0.5289514515	 0.255138
H	 2.7454499051	-1.0503729748	 0.5660215118	 0.253983
43.621	82.3734	159.6286	216.5856	231.3377	302.6619	329.676	337.78	406.8453	546.1777	577.124	601.6231	618.1411	711.9517	713.017	742.7359	769.3684	783.6687	808.4686	956.0904	995.703	1042.6205	1080.7498	1103.8793	1146.2867	1212.0012	1217.2288	1275.0387	1327.6088	1388.4924	1394.9166	1408.1622	1461.5719	1490.3747	1496.4244	1504.8063	1639.5761	1726.6697	1771.0387	3043.9404	3055.6383	3106.9369	3117.8765	3135.3798	3309.2543	3506.4557	3542.6562	3611.8871
CCN1C(=N)OC=C1N	CCN1[C@@H]([NH])OC=C1N	
InChI=1S/C5H9N3O/c1-2-8-4(6)3-9-5(8)7/h3,7H,2,6H2,1H3	InChI=1S/C5H10N3O/c1-2-8-4(6)3-9-5(8)7/h3,5,7H,2,6H2,1H3/t5-/m1/s1
