17
gdb 43083	2.63802	2.05003	1.73256	4.3232	70.26	-0.2211	-0.0158	0.2053	855.0493	0.140502	-417.995516	-417.989368	-417.988424	-418.025819	26.057	
O	-0.05401808	 0.0342262549	-0.0358078133	-0.330545
C	-0.0508384238	 1.2322650191	-0.0103522514	 0.51155
C	-1.2597271367	 2.1913125327	-0.0158052327	-0.134217
N	-1.4166757709	 2.6087323917	 1.4240808697	-0.330487
C	-0.3693835137	 3.6534021131	 1.1718482237	-0.035093
C	 1.0165246554	 3.0115849086	 1.3621810311	-0.215642
C	 1.1503899997	 2.1935973388	 0.0391965024	-0.145914
N	 0.7019564074	 3.1305210339	-1.0189287113	-0.30367
C	-0.5580906534	 3.5243469852	-0.3940766385	-0.016406
H	-2.1402671989	 1.8087415031	-0.5302380115	 0.090573
H	-2.3220224042	 3.0629192092	 1.5233327671	 0.223594
H	-0.5131273361	 4.601936676	 1.6903518844	 0.072693
H	 1.8074076763	 3.7697488626	 1.3959575138	 0.096668
H	 1.0620429509	 2.4058108705	 2.2697021996	 0.127084
H	 2.1123864514	 1.7231148284	-0.1542231643	 0.088379
H	 1.3408515616	 3.9178380136	-1.1040439812	 0.221582
H	-1.1220320548	 4.2858866986	-0.9297950976	 0.079852
152.1646	271.4817	428.5597	438.5396	468.5591	544.7443	618.9014	713.6376	745.5529	785.2364	811.7391	840.2966	859.3146	870.2291	892.281	923.4075	936.3055	966.7321	988.7985	1024.2133	1056.6103	1073.1651	1087.0881	1116.7786	1172.837	1190.4662	1191.788	1219.2762	1240.2164	1273.6138	1302.0025	1328.1257	1361.2616	1380.6835	1399.687	1471.543	1883.9962	3041.0498	3105.3335	3118.1811	3125.7769	3137.0517	3143.7327	3482.9697	3489.1713
O=C1C2NC3CC1NC23	O=C1[C@H]2N[C@H]3C[C@@H]1N[C@@H]23	
InChI=1S/C6H8N2O/c9-6-3-1-2-4(8-3)5(6)7-2/h2-5,7-8H,1H2	InChI=1S/C6H8N2O/c9-6-3-1-2-4(8-3)5(6)7-2/h2-5,7-8H,1H2/t2-,3-,4+,5-/m0/s1
