18
gdb 83075	2.61283	1.49795	1.23717	3.4645	78.47	-0.2385	-0.0242	0.2143	1074.9879	0.147139	-401.937696	-401.92952	-401.928576	-401.970273	31.175	
C	-0.2425007186	 1.4432378018	 0.0252996456	-0.323425
N	 0.0796509588	 0.0259956567	 0.0901897676	-0.131175
C	 1.4066474883	-0.4648220044	-0.1758901953	-0.079766
C	 2.6215413465	 0.4645481456	-0.096239861	-0.294105
C	 2.6362437293	 0.9326324767	 1.3425641218	-0.081858
C	 1.6812278264	 0.348222389	 2.0700219563	-0.144694
C	 0.8283466899	-0.5471098057	 1.2364292959	 0.195857
C	 0.2331350586	-1.786600817	 1.7955224059	 0.100473
O	 0.4352917577	-2.1884284691	 2.9154263598	-0.265302
H	 0.5215029977	 2.110727523	 0.4438460456	 0.116558
H	-0.4010991142	 1.7057688796	-1.0253442898	 0.127629
H	-1.1801183415	 1.6121092857	 0.5627894925	 0.130589
H	 1.4580048948	-1.3353833533	-0.8249064957	 0.102082
H	 3.5358695168	-0.0834029278	-0.3536227926	 0.124009
H	 2.551944615	 1.2985283675	-0.8072374787	 0.121331
H	 3.3382204921	 1.6751575515	 1.7056008755	 0.105884
H	 1.4985671025	 0.4914182569	 3.1269172903	 0.117772
H	-0.4349433102	-2.3184420066	 1.0836200662	 0.078142
96.6515	181.1785	192.9629	232.2433	245.4868	267.8589	368.2372	445.9519	517.2694	561.7468	669.3782	678.7617	757.8834	771.462	824.5433	880.2332	934.5137	963.8331	977.9402	1010.6281	1031.0889	1067.6128	1074.7233	1141.4718	1146.81	1167.0657	1191.2088	1262.0921	1299.6714	1327.137	1346.227	1400.3099	1414.5372	1448.7803	1466.1152	1486.545	1507.9337	1664.3842	1812.717	2901.5941	3013.7757	3026.636	3057.0974	3083.6057	3109.8749	3138.2707	3192.0955	3228.5693
CN1C2CC=CC12C=O	CN1[C@H]2CC=C[C@@]12C=O	
InChI=1S/C7H9NO/c1-8-6-3-2-4-7(6,8)5-9/h2,4-6H,3H2,1H3	InChI=1S/C7H9NO/c1-8-6-3-2-4-7(6,8)5-9/h2,4-6H,3H2,1H3/t6-,7-,8?/m0/s1
