17
gdb 22005	4.25887	1.02882	0.83296	2.0585	84.45	-0.191	-0.0136	0.1775	1328.1189	0.136272	-418.010397	-418.001645	-418.000701	-418.044422	32.376	
C	-0.0540866651	 1.4846515371	-0.0363960632	-0.528986
C	-0.0526005192	-0.0230723751	 0.0450495114	 0.277935
N	-0.0760986951	-0.6978396667	 1.1406617115	-0.19567
O	-0.1037118881	 0.1172307482	 2.2808578698	-0.394968
C	-0.0224538843	-0.7929864283	-1.19141533	 0.294413
C	-0.0145977675	-2.16009434	-1.4233006193	-0.220786
C	 0.0183078063	-2.3633012262	-2.8222761358	-0.141662
C	 0.0298366808	-1.1205176017	-3.4208525016	-0.094067
N	 0.0051300337	-0.1800770641	-2.4286536318	-0.316396
H	 0.8425919467	 1.8445425347	-0.5541901987	 0.132203
H	-0.9274936402	 1.8404220071	-0.5951392652	 0.132214
H	-0.0780967029	 1.9253054648	 0.9576017543	 0.166242
H	-0.1187130794	-0.5357046314	 2.9878852532	 0.307059
H	-0.0311758832	-2.9123619122	-0.6514108267	 0.108401
H	 0.0320220035	-3.311331967	-3.3375973651	 0.096515
H	 0.0533624817	-0.8313668164	-4.4592035497	 0.118564
H	 0.0067928025	 0.8132743773	-2.5780374132	 0.258989
49.6676	88.2121	148.4666	169.9106	305.3672	332.9254	397.9628	423.604	449.5961	479.6703	540.0159	626.5099	690.7578	719.712	732.2404	813.6482	874.1153	893.7541	905.2732	977.6002	1019.1785	1056.3997	1057.3143	1100.1938	1146.3895	1172.5797	1276.7884	1315.7783	1391.8772	1395.2017	1449.0387	1453.3488	1482.9675	1495.155	1495.9012	1603.3747	1689.128	3032.4294	3083.0099	3177.4798	3246.6022	3266.9211	3274.5344	3688.6278	3827.2824
CC(=NO)C1=CC=CN1	CC(=NO)c1ccc[nH]1	
InChI=1S/C6H8N2O/c1-5(8-9)6-3-2-4-7-6/h2-4,7,9H,1H3	InChI=1S/C6H8N2O/c1-5(8-9)6-3-2-4-7-6/h2-4,7,9H,1H3
