18
gdb 13990	5.43743	1.07474	1.00436	2.1308	67.73	-0.2316	0.0735	0.3051	1175.8422	0.153141	-384.884901	-384.876786	-384.875841	-384.917873	29.783	
O	-0.0870089642	 1.4812424657	-0.0645013532	-0.418969
C	 0.0012762179	 0.0686518464	-0.1590543894	-0.063961
C	-1.3745983777	-0.5055417616	 0.174144591	-0.304957
C	-1.4074784782	-2.0052194378	 0.1161750309	 0.283039
C	-1.5806331634	-2.8105826067	-1.1638052096	-0.342236
C	-2.5375197295	-2.999914922	-0.0286021968	 0.04166
O	-1.9925740262	-3.8935517418	 0.9453475951	-0.287021
C	-0.9121021368	-2.9583619017	 1.206504068	-0.1269
H	 0.7747237582	 1.8528560185	-0.2737789723	 0.28633
H	 0.2973060496	-0.2511533624	-1.1706202882	 0.09076
H	 0.7519466315	-0.3328226702	 0.5416765704	 0.085933
H	-1.6650948554	-0.1551599677	 1.1723917491	 0.109
H	-2.1026940718	-0.0855171698	-0.5295377095	 0.108729
H	-1.9575319733	-2.2354315743	-2.0048313385	 0.113485
H	-0.8977312558	-3.6157509348	-1.4224804411	 0.112627
H	-3.615499721	-2.8922935448	-0.0760733472	 0.105009
H	 0.0763866563	-3.4177301577	 1.0840599481	 0.101805
H	-1.0032528803	-2.5405940774	 2.216802613	 0.105669
75.479	97.6228	132.3933	262.9988	289.0926	330.8017	341.0551	399.608	459.7575	712.7466	757.8666	796.9523	851.5823	916.555	930.2365	980.2415	995.1288	1001.3502	1019.3034	1036.0439	1063.4028	1078.086	1087.2486	1131.5609	1158.0309	1204.1265	1243.5658	1259.1905	1287.6887	1297.8883	1332.0186	1349.2542	1414.9473	1462.318	1482.813	1486.9173	1516.6398	1526.8507	2962.6995	2992.4821	3013.806	3030.008	3062.5415	3073.4663	3108.9258	3175.6415	3201.8647	3830.4948
OCCC12CC1OC2	OCC[C@]12C[C@H]1OC2	
InChI=1S/C6H10O2/c7-2-1-6-3-5(6)8-4-6/h5,7H,1-4H2	InChI=1S/C6H10O2/c7-2-1-6-3-5(6)8-4-6/h5,7H,1-4H2/t5-,6-/m1/s1
