12
gdb 125479	5.43269	1.35719	1.09329	4.7847	63.18	-0.2906	-0.0744	0.2162	1007.0762	0.078294	-468.763045	-468.756536	-468.755592	-468.794176	24.162	
C	-0.0163298764	 1.4355908242	 0.0794837971	-0.492594
C	-0.0172613204	-0.035972002	-0.0763299822	 0.383832
N	-0.2008240757	-0.7258276407	-1.1552252681	-0.355966
C	-0.0953465124	-2.0374764536	-0.7106794943	 0.357027
N	-0.150818714	-3.2653466571	-1.1416981028	-0.199
O	 0.072337289	-4.0125929905	 0.0067449421	-0.158932
N	 0.2670718325	-3.2314009203	 1.1563415602	-0.225048
C	 0.1569494483	-2.0381631913	 0.6742006836	 0.410717
O	 0.2120582539	-0.7606136077	 1.1085982657	-0.231956
H	 0.9467474598	 1.7753525634	 0.4734069514	 0.168579
H	-0.2019209785	 1.8990892775	-0.8886577587	 0.174774
H	-0.789550186	 1.742849198	 0.790711786	 0.168568
112.7742	157.1136	295.6468	355.3949	386.9918	548.4666	584.9733	586.1531	662.4257	765.6128	802.8835	817.8118	853.4712	862.9893	881.3583	1027.3362	1063.4049	1072.299	1181.8529	1294.3475	1408.8817	1456.9218	1466.5835	1468.1355	1576.5867	1656.7502	1684.9419	3052.2628	3111.0372	3171.682
CC1=NC2=NON=C2O1	Cc1nc2nonc2o1	
InChI=1S/C4H3N3O2/c1-2-5-3-4(8-2)7-9-6-3/h1H3	InChI=1S/C4H3N3O2/c1-2-5-3-4(8-2)7-9-6-3/h1H3
