20
gdb 119949	2.51178	0.93426	0.80776	3.6643	77.61	-0.2461	0.0094	0.2555	1490.5049	0.168826	-440.274705	-440.264443	-440.263499	-440.310592	35.926	
C	 0.1138885432	 1.4207015895	 0.4208078563	-0.407814
C	-0.1237807744	-0.0152899024	 0.0142068611	-0.018323
C	 0.4143322992	-0.6286046122	-1.2630110867	-0.041307
C	 1.2285610376	 0.1441929495	-2.2764509481	-0.202364
C	 2.0827911217	-0.7600105234	-3.1630822472	-0.072603
O	 2.7064419432	 0.0664847262	-4.1301812726	-0.417914
N	 0.9405501721	-0.9928481174	 0.0419655713	-0.067802
C	 2.2047296244	-0.864034745	 0.5636205669	 0.140614
O	 2.470127805	-0.3427303308	 1.62250682	-0.308658
H	 1.0390187786	 1.8256686493	 0.0074706443	 0.131726
H	-0.7198430669	 2.0443147516	 0.0824736402	 0.121016
H	 0.183349161	 1.4938578191	 1.5090727396	 0.151114
H	-1.0778941935	-0.4151690351	 0.3580032236	 0.101749
H	-0.2030200254	-1.4111174998	-1.7071735138	 0.098048
H	 0.5462768055	 0.7053399276	-2.9267955064	 0.120476
H	 1.8802111966	 0.8747795892	-1.7890728837	 0.120062
H	 2.8268917544	-1.2941138482	-2.550693415	 0.094547
H	 1.4443932519	-1.5236228453	-3.6374231987	 0.089464
H	 3.2681780006	-0.4839191392	-4.6834830298	 0.289813
H	 2.9633780453	-1.3729990534	-0.0638198412	 0.078155
69.2248	89.6696	121.2423	132.4303	148.6696	178.5568	255.4606	264.6243	269.3206	359.0805	413.7673	512.5053	521.9224	623.7093	794.4549	817.9526	826.3249	917.8272	992.997	1031.0278	1034.4659	1072.0203	1080.2233	1100.0504	1111.6208	1163.9393	1186.0087	1196.079	1235.6484	1244.3995	1315.177	1326.0227	1384.8673	1401.3791	1419.4198	1425.0704	1463.055	1464.0098	1478.3053	1489.3055	1498.5783	1526.0208	1786.7467	2932.7042	2961.7254	2989.5124	3040.926	3050.4552	3085.7419	3101.9861	3105.1526	3119.6007	3142.8076	3832.3727
CC1C(CCO)N1C=O	C[C@H]1[C@@H](CCO)N1C=O	
InChI=1S/C6H11NO2/c1-5-6(2-3-8)7(5)4-9/h4-6,8H,2-3H2,1H3	InChI=1S/C6H11NO2/c1-5-6(2-3-8)7(5)4-9/h4-6,8H,2-3H2,1H3/t5-,6+,7?/m0/s1
