18
gdb 9506	2.64733	1.71047	1.63637	2.8508	68.13	-0.2494	-0.0293	0.2201	932.5378	0.151076	-384.940778	-384.931879	-384.930934	-384.974387	32.093	
C	-0.1128186982	 1.4737645101	-0.0061174899	-0.405022
C	 0.0824635632	-0.0301441403	 0.06932926	 0.001335
C	 1.103616556	-0.7214924891	-0.875601437	-0.2522
C	 1.5524170604	-1.6143544927	 0.3098872912	-0.270473
C	 0.8636843467	-0.6246955078	 1.3033800792	 0.283551
O	 1.7335557607	 0.2648980419	 1.9739001538	-0.484069
C	 0.0026455302	-1.2517361799	 2.3767909054	 0.134043
O	-0.8700767639	-2.0502044839	 2.1455951566	-0.265435
H	 0.8322780075	 2.0105624765	 0.1271779945	 0.10367
H	-0.5229213826	 1.7581598711	-0.9810466925	 0.119537
H	-0.8031164641	 1.828179315	 0.7661880461	 0.125047
H	-0.8788070898	-0.5502009709	 0.0143485452	 0.098874
H	 0.7043375844	-1.2256095028	-1.7580654592	 0.107226
H	 1.8911668574	-0.034314639	-1.2036689087	 0.092766
H	 1.0493365552	-2.5837691504	 0.3177854805	 0.128858
H	 2.6232638859	-1.7613867615	 0.4738235795	 0.103169
H	 2.3898354701	 0.5930908206	 1.3518796317	 0.286188
H	 0.2408097107	-0.9140539168	 3.4089238635	 0.092935
58.213	91.8344	185.5966	204.5634	225.1835	243.8767	266.57	363.9507	395.7559	505.1151	576.2266	664.4947	713.0061	748.0177	879.5529	890.2415	921.0397	954.5555	976.1135	1039.0918	1074.8099	1101.4956	1137.9512	1175.2161	1186.5218	1234.2734	1259.6631	1263.5264	1278.7149	1351.5604	1374.4567	1405.962	1420.354	1468.6596	1489.6015	1491.5976	1497.0124	1827.0987	2902.629	3031.6608	3044.6943	3062.6256	3065.7745	3098.7526	3102.2611	3106.8137	3127.7416	3830.2363
CC1CCC1(O)C=O	C[C@H]1CC[C@]1(O)C=O	
InChI=1S/C6H10O2/c1-5-2-3-6(5,8)4-7/h4-5,8H,2-3H2,1H3	InChI=1S/C6H10O2/c1-5-2-3-6(5,8)4-7/h4-5,8H,2-3H2,1H3/t5-,6-/m0/s1
