17
gdb 92157	3.03275	1.5297	1.49771	2.5949	66.11	-0.2336	0.0607	0.2943	946.9228	0.136855	-458.916517	-458.909342	-458.908398	-458.947718	29.482	
O	 0.021017337	 1.4276191605	-0.0505225823	-0.442779
C	 0.042192987	 0.0118553726	-0.0016523011	 0.129175
C	 0.7287894471	-0.5411452703	 1.2848853339	-0.254855
C	-0.456466439	-0.8904751621	 2.1689236752	 0.008254
O	-1.3093630424	 0.3083562448	 2.2978116355	-0.320143
C	-2.1869141214	-0.2111308039	 1.2898062584	-0.016994
C	-1.362287775	-0.6059401546	 0.0592379337	-0.15133
C	-1.5091829817	-1.5431555029	 1.2262759712	 0.317057
O	-1.9041040475	-2.8547130874	 1.1359635901	-0.452562
H	-0.4146614067	 1.710205516	 0.7637904218	 0.285854
H	 0.5730594697	-0.3024346251	-0.9036727047	 0.087555
H	 1.3070245855	-1.4483981455	 1.0735193134	 0.108041
H	 1.3976639759	 0.2057812142	 1.7204162052	 0.114039
H	-0.2558734025	-1.3393250722	 3.1438147374	 0.082332
H	-3.2132347092	 0.1341045395	 1.2722608162	 0.114114
H	-1.9300664153	-0.8067597588	-0.8421297076	 0.099455
H	-2.3728527014	-3.091749445	 1.9445522636	 0.292787
144.6837	212.5953	296.9126	348.7128	385.2367	416.2477	448.817	504.1333	558.8734	628.6656	679.4407	740.6142	817.9086	839.2154	845.6123	903.3313	922.2247	958.5817	969.6259	988.6708	1009.9631	1036.5596	1069.0136	1080.9809	1147.3947	1151.8045	1201.8287	1240.8807	1261.8881	1276.2673	1312.6917	1318.8487	1328.5784	1341.7548	1447.2148	1467.5479	1492.7651	3041.8484	3080.992	3098.8393	3107.3111	3187.2056	3197.7612	3774.2872	3788.0738
OC1CC2OC3C1C23O	O[C@H]1C[C@H]2O[C@H]3[C@@H]1[C@@]23O	
InChI=1S/C6H8O3/c7-2-1-3-6(8)4(2)5(6)9-3/h2-5,7-8H,1H2	InChI=1S/C6H8O3/c7-2-1-3-6(8)4(2)5(6)9-3/h2-5,7-8H,1H2/t2-,3+,4+,5-,6-/m0/s1
