19
gdb 78702	5.22474	1.08421	1.07335	1.4481	80.36	-0.2478	0.0705	0.3183	1180.4816	0.159456	-385.788199	-385.780758	-385.779814	-385.819754	30.524	
O	 0.2464383946	 1.4377343113	-0.1684747258	-0.449973
C	 0.0958761271	 0.0450819907	-0.06584346	 0.137547
C	 0.0588195169	-0.6345799037	 1.3175685597	-0.085466
C	-1.4641639946	-0.2763632232	 1.5322331888	-0.182935
C	-1.3104613921	-0.5843059972	-0.0090074975	-0.085462
C	-0.7571697075	-1.8491518099	 0.7428745133	-0.153225
C	-1.8130941989	-1.728210937	 1.8373715603	 0.434747
C	-2.0185408943	-2.4620133208	 3.1192582316	-0.355615
C	-3.1148788865	-2.4217461472	 2.0570954435	-0.355612
H	-0.3501807942	 1.8540161843	 0.4631709553	 0.281273
H	 0.7872787269	-0.3872665497	-0.7958893786	 0.083277
H	 0.8217656745	-0.6851005417	 2.0956472791	 0.073433
H	-1.8711211425	 0.6293028011	 1.9866125696	 0.067722
H	-2.1131405254	-0.5773441209	-0.7477247807	 0.073433
H	-0.3368019666	-2.7404100187	 0.2751991876	 0.073272
H	-1.4978387255	-3.4023550484	 3.2719902433	 0.111371
H	-2.1755941703	-1.8907263165	 4.0291021368	 0.11042
H	-3.9971367776	-1.8238145152	 2.264338064	 0.11042
H	-3.3191535041	-3.3354599473	 1.5074604397	 0.111371
142.8542	162.2375	245.8877	291.2655	310.7655	388.7935	462.7467	583.5844	607.7673	731.7146	770.3858	811.9138	829.2152	831.7401	862.5781	902.7172	904.386	921.0348	956.8633	971.6274	986.8879	1009.5779	1049.2095	1075.0743	1083.1045	1106.0931	1112.4373	1131.3133	1147.6074	1165.2544	1172.5753	1182.4826	1225.9864	1230.365	1242.1102	1294.8838	1305.7519	1424.1752	1448.1388	1461.0772	1519.9694	3067.6221	3087.1752	3101.9381	3105.1728	3116.4123	3118.686	3122.6384	3195.1155	3209.5935	3804.7807
OC1C2C3C1C2C31CC1	O[C@H]1[C@H]2[C@H]3[C@@H]1[C@@H]2C13CC1	
InChI=1S/C8H10O/c9-7-3-5-4(7)6(3)8(5)1-2-8/h3-7,9H,1-2H2	InChI=1S/C8H10O/c9-7-3-5-4(7)6(3)8(5)1-2-8/h3-7,9H,1-2H2/t3-,4+,5-,6+,7-
