17
gdb 32713	6.85112	0.73136	0.66361	1.7434	88.54	-0.1814	-0.007	0.1744	1651.497	0.136173	-418.038677	-418.029713	-418.028769	-418.074805	31.362	
C	 0.0537846658	 1.3294777669	-0.2324244701	-0.249562
O	-0.2722997803	 0.0074175604	 0.1788575767	-0.193248
C	 0.5987511616	-0.5672731851	 1.0299545413	 0.115405
N	 0.382937626	-1.7424608875	 1.444599916	-0.342145
C	 1.2503227759	-2.3693187112	 2.3181374776	 0.358376
C	 2.4410761868	-2.0431731637	 2.9538801201	-0.219746
C	 2.8231994731	-3.1612436399	 3.7384538784	-0.136129
C	 1.8666485631	-4.1394705401	 3.5677938497	-0.094077
N	 0.9239345552	-3.6473276435	 2.7082360393	-0.28537
H	 1.0123424448	 1.3589913588	-0.7647448957	 0.128993
H	-0.7407574246	 1.6450092517	-0.9093553443	 0.147293
H	 0.0927650424	 2.0170022017	 0.6213086247	 0.12899
H	 1.4574640508	 0.059192224	 1.3027125478	 0.091941
H	 2.9760682563	-1.1100952138	 2.8660613623	 0.081288
H	 3.7020518051	-3.2409963917	 4.3598375464	 0.091027
H	 1.7828159544	-5.1305457343	 3.9826871972	 0.114988
H	 0.0966093116	-4.1169561316	 2.3819005553	 0.261978
11.365	69.1031	112.7491	133.6346	171.8174	325.0026	366.9223	397.4489	517.2662	526.6229	630.4791	681.1885	709.1559	779.7778	781.058	843.7637	894.6519	957.8747	990.8195	1058.3632	1062.9639	1113.6705	1136.7908	1165.3025	1176.9857	1256.0424	1287.3635	1303.9925	1399.2737	1435.8654	1461.3373	1480.9606	1487.114	1493.6734	1500.6837	1591.2071	1745.3259	3011.5829	3039.3349	3076.691	3146.0407	3238.4019	3252.2293	3273.9669	3677.1943
COC=NC1=CC=CN1	COC=Nc1ccc[nH]1	
InChI=1S/C6H8N2O/c1-9-5-8-6-3-2-4-7-6/h2-5,7H,1H3	InChI=1S/C6H8N2O/c1-9-5-8-6-3-2-4-7-6/h2-5,7H,1H3
