22
gdb 103281	2.18667	1.58853	1.15067	1.7695	82.27	-0.2273	0.0577	0.285	1177.9623	0.193263	-404.303298	-404.293713	-404.292769	-404.337304	36.775	
C	-1.490553696	 0.2310989413	 0.2640498647	-0.384012
C	 0.0280045124	 0.1659550197	 0.0481473202	-0.251227
C	 0.7688667059	-0.4984203169	 1.2011619456	 0.336806
C	 0.7367006966	 0.3008828543	 2.4952920772	-0.448997
C	 0.8486528349	-1.9664713526	 1.4089843894	-0.081477
C	 0.9603939277	-2.7839345042	 0.1342722902	 0.082237
O	-0.2149857444	-2.8216300339	-0.6500575791	-0.42499
C	 2.1534538191	-1.8658822319	-0.2591470984	-0.216394
N	 2.1000081616	-1.1450680524	 1.0594967025	-0.19028
H	-1.7588826249	 0.79235048	 1.164110839	 0.112314
H	-1.9754377968	 0.7221105086	-0.5855389282	 0.107957
H	-1.9036072995	-0.7779067952	 0.3497005913	 0.134325
H	 0.2038969012	-0.36335584	-0.8877593258	 0.109817
H	 0.4313949618	 1.1800549669	-0.0749275438	 0.090366
H	-0.2804501675	 0.3815121568	 2.8902925525	 0.117536
H	 1.3669928948	-0.1723354071	 3.2517733778	 0.125433
H	 1.1185561187	 1.3132799001	 2.3257691229	 0.117179
H	 0.7153354315	-2.403351716	 2.3946982918	 0.084194
H	 1.3098779574	-3.8004805231	 0.3542104646	 0.081577
H	-0.0729483473	-3.4318653885	-1.3807497786	 0.285118
H	 3.104272099	-2.3978999159	-0.3394154976	 0.105199
H	 2.0241433237	-1.23447095	-1.1415896385	 0.107318
60.7214	158.4225	168.5919	206.6699	234.3377	271.1206	283.5485	293.6095	370.9893	396.0826	443.8536	489.7688	595.2278	641.4787	733.0992	791.4496	794.5057	829.3148	893.523	964.4426	991.478	1002.0223	1017.3979	1023.4609	1048.5709	1068.087	1095.5335	1124.2481	1135.3586	1176.6882	1195.9892	1240.6505	1281.3639	1298.3888	1317.0896	1320.2343	1368.686	1407.6379	1412.8882	1424.5627	1433.7224	1478.71	1493.6369	1497.6662	1499.0345	1506.876	1509.3445	3019.5807	3021.5353	3037.9614	3041.6146	3061.5489	3099.9162	3106.1272	3112.0133	3117.6496	3125.1418	3136.4966	3146.869	3816.1693
CCC1(C)C2C(O)CN12	CC[C@@]1(C)[C@H]2[C@@H](O)CN12	
InChI=1S/C7H13NO/c1-3-7(2)6-5(9)4-8(6)7/h5-6,9H,3-4H2,1-2H3	InChI=1S/C7H13NO/c1-3-7(2)6-5(9)4-8(6)7/h5-6,9H,3-4H2,1-2H3/t5-,6+,7-,8?/m0/s1
