23
gdb 102602	3.20373	0.73496	0.63452	1.852	91.63	-0.2467	0.0476	0.2943	1859.1676	0.202948	-388.27296	-388.261247	-388.260303	-388.311649	40.65	
C	-0.1871866374	 1.5144410771	 0.1406010997	-0.396055
C	 0.0848863707	 0.0104548279	 0.0306376866	-0.177387
C	 0.8115382769	-0.4159131848	-1.259816573	 0.008139
C	 2.2909112241	 0.0114501294	-1.2416919377	-0.056995
O	 2.9070532494	 0.0152286027	-2.5132885476	-0.429663
C	 0.6586051221	-1.9474161102	-1.4490541485	-0.370323
C	 1.2579300088	-2.5004289248	-2.6632197287	 0.002772
C	 1.7352796247	-2.9740065871	-3.6647843179	 0.122109
C	 2.2969968342	-3.5558099219	-4.8770510204	-0.501949
H	 0.7348036484	 2.103358581	 0.1465399046	 0.124192
H	-0.7973750957	 1.8648109923	-0.6989299351	 0.118695
H	-0.7276903591	 1.74489991	 1.0639529042	 0.113875
H	 0.6684310592	-0.3255931361	 0.8995203997	 0.095542
H	-0.8715792708	-0.5241488837	 0.0899801683	 0.09304
H	 0.3415037358	 0.0839002079	-2.1166474861	 0.086343
H	 2.3753335045	 1.0378480283	-0.8712713642	 0.102265
H	 2.8367312498	-0.6303631169	-0.5262734545	 0.076745
H	 2.7971552429	-0.8673407733	-2.8888576643	 0.282283
H	 1.0913780321	-2.4509542198	-0.5725400185	 0.125505
H	-0.4102257224	-2.1977487042	-1.4408685286	 0.126104
H	 1.6780054546	-4.384153502	-5.2389114753	 0.151031
H	 2.3618940868	-2.8153371439	-5.6816823267	 0.153234
H	 3.3052648503	-3.9472082479	-4.7033868959	 0.150498
28.2778	43.2354	73.9406	85.9306	126.969	209.2476	216.6159	233.406	265.1705	301.499	349.8238	388.9811	407.0827	436.1855	470.2527	532.5874	764.4781	771.0868	857.4027	879.7179	922.9143	996.4338	1030.6857	1052.8599	1055.0627	1084.2228	1094.9144	1126.1074	1151.5254	1163.4151	1202.2601	1262.3692	1281.9699	1300.4557	1349.985	1358.4099	1386.9826	1398.8575	1414.5271	1416.0679	1451.8421	1466.8204	1478.3633	1479.0608	1487.6027	1500.4555	1503.9983	1510.6526	2358.2345	2939.1882	3002.4899	3008.0536	3027.6073	3028.5747	3036.177	3038.1766	3048.9311	3074.3395	3089.8862	3090.6727	3102.2233	3109.4251	3759.3552
CCC(CO)CC#CC	CC[C@@H](CO)CC#CC	
InChI=1S/C8H14O/c1-3-5-6-8(4-2)7-9/h8-9H,4,6-7H2,1-2H3	InChI=1S/C8H14O/c1-3-5-6-8(4-2)7-9/h8-9H,4,6-7H2,1-2H3/t8-/m1/s1
