20
gdb 104592	2.39286	1.23045	0.97668	6.2247	75.33	-0.2426	0.0329	0.2755	1278.2093	0.170613	-440.303231	-440.293924	-440.29298	-440.337692	34.685	
C	 0.6615535442	 0.0415305659	 1.6542369615	-0.333982
N	 0.0643293475	 0.1480545462	 0.3191791545	-0.35428
H	-0.7432688795	 1.6912346095	-0.0988797318	 0.308038
H	 0.7329696237	-0.1472192132	-0.3828948935	 0.235006
C	-1.1947864094	-0.5681583985	 0.1425201246	 0.330893
C	-2.3893289546	 0.2030252187	 0.6874815203	-0.398314
C	-2.6365026676	 1.5674406989	 0.0260465574	 0.404937
O	-1.5339763983	 2.2562524276	-0.297804298	-0.373813
O	-3.7422227953	 2.003045615	-0.159997593	-0.334305
C	-1.3702812192	-1.3482247702	-1.1296097887	-0.315212
C	-1.2171531433	-2.0800442651	 0.1872921798	-0.309008
H	 1.6174366523	 0.5710442854	 1.6610335778	 0.132213
H	 0.0104972399	 0.5211808163	 2.3903766392	 0.140461
H	 0.8276731007	-0.9974741306	 1.9726605578	 0.117416
H	-3.3056504839	-0.3786912619	 0.5758147314	 0.132495
H	-2.2621384555	 0.3798108367	 1.7641432917	 0.127335
H	-2.3447488341	-1.329457697	-1.6047799422	 0.135466
H	-0.5412118847	-1.3857417848	-1.8296681655	 0.115982
H	-0.2783155696	-2.5936781754	 0.3667327324	 0.11491
H	-2.0843350633	-2.5759879035	 0.6094332043	 0.123761
62.3906	93.4372	131.0343	197.0832	229.2813	238.48	335.5215	344.0477	392.6435	449.6298	536.9539	573.1755	668.6024	734.5507	773.6049	823.5439	863.3917	900.1639	933.5209	942.2801	958.2044	970.3737	1014.992	1052.2471	1082.1873	1085.4762	1150.1455	1162.0031	1179.5367	1187.1506	1276.2171	1300.8997	1328.7616	1343.5138	1449.9351	1460.1006	1466.2461	1481.6053	1488.9334	1494.8295	1507.1157	1518.9171	1859.4707	3002.5055	3027.8628	3088.2525	3122.1002	3124.3441	3128.1227	3132.9838	3208.7152	3222.5427	3249.131	3541.5885
C[NH2+]C1(CC([O-])=O)CC1	CNC1(CC(=O)O)CC1	
InChI=1S/C6H11NO2/c1-7-6(2-3-6)4-5(8)9/h7H,2-4H2,1H3,(H,8,9)	InChI=1S/C6H11NO2/c1-7-6(2-3-6)4-5(8)9/h7H,2-4H2,1H3,(H,8,9)
