23
gdb 113382	2.87831	0.91696	0.79389	3.1262	83.09	-0.2449	0.0591	0.304	1551.3611	0.204526	-425.408825	-425.398217	-425.397273	-425.444493	39.164	
C	-0.1373025474	 1.5285511956	-0.3958089452	-0.373091
C	-0.0254627417	 0.1187241067	 0.1981778192	-0.207725
C	-1.3567988061	-0.6078536679	 0.1889601752	-0.046025
C	-1.8160759943	-1.413468041	-1.0006399509	-0.312341
C	-1.5122612416	-2.1131987328	 0.3052529029	 0.30004
C	-0.3071414749	-3.0406253248	 0.3679308676	-0.128121
O	-0.4939318811	-4.2354041235	-0.3687023274	-0.4308
C	-2.6880671491	-2.5949722194	 1.1235606018	-0.156274
O	-3.1003828166	-3.8770893703	 0.6295815185	-0.422827
H	 0.8284877269	 2.0428680799	-0.3791478475	 0.11122
H	-0.4831100206	 1.4901135546	-1.4339235613	 0.120841
H	-0.850702699	 2.1396138517	 0.1682212005	 0.112601
H	 0.720211476	-0.4493967406	-0.3677433281	 0.103152
H	 0.3533566925	 0.1854510147	 1.2266598419	 0.096287
H	-2.1421417777	-0.0440193524	 0.6917853343	 0.07385
H	-2.8494232284	-1.3417718852	-1.3233950303	 0.109415
H	-1.1096261381	-1.5685449925	-1.8101417984	 0.118857
H	 0.5788333834	-2.5574966057	-0.0530999499	 0.096945
H	-0.0793260869	-3.2575697768	 1.4272141524	 0.072227
H	-1.3814278283	-4.5467392423	-0.1459416088	 0.287924
H	-2.396664801	-2.6754557635	 2.182344928	 0.092767
H	-3.5193884621	-1.8775222003	 1.0574707784	 0.088713
H	-3.6764490441	-4.2869013243	 1.2815162868	 0.292365
70.5997	88.9778	124.316	142.4734	188.8998	233.2052	252.844	268.8578	313.141	341.9629	375.8908	399.0284	473.957	533.1078	620.7956	731.3219	789.7496	827.8292	913.7847	934.1533	944.1752	970.6092	976.0496	1018.8043	1032.3536	1063.757	1068.8312	1081.6073	1114.5512	1137.1952	1195.3156	1220.0133	1237.5021	1251.2291	1291.47	1312.2702	1345.7781	1360.213	1376.814	1408.8265	1435.5974	1457.3019	1473.5374	1485.1605	1497.2286	1498.4392	1505.1488	1507.942	1521.7076	2937.7095	2974.6639	3011.4939	3020.5862	3031.9804	3064.2642	3085.4308	3098.9415	3106.9262	3109.4237	3127.6721	3210.1775	3751.0897	3831.8779
CCC1CC1(CO)CO	CC[C@H]1CC1(CO)CO	
InChI=1S/C7H14O2/c1-2-6-3-7(6,4-8)5-9/h6,8-9H,2-5H2,1H3	InChI=1S/C7H14O2/c1-2-6-3-7(6,4-8)5-9/h6,8-9H,2-5H2,1H3/t6-/m0/s1
