16
gdb 76217	2.49741	1.64177	1.00302	6.5462	75.02	-0.2339	-0.085	0.1489	1134.9407	0.123361	-437.949774	-437.94103	-437.940086	-437.983206	31.389	
C	-0.0416140971	 1.4556297755	-0.032587353	-0.358728
N	-0.035452403	 0.0071873903	-0.0142571022	-0.152604
C	-1.1475940731	-0.8432169691	 0.0146109755	 0.365861
C	-2.5184416651	-0.2615623464	 0.0291598196	-0.495949
C	-0.7992933694	-2.1562860943	 0.0263757161	-0.367875
C	 0.6506061811	-2.2448470897	 0.004330005	 0.313774
O	 1.4029974483	-3.1896097381	 0.0050400879	-0.307816
C	 1.1349110849	-0.7487753605	-0.0227506095	 0.303164
O	 2.2575446647	-0.3178791708	-0.0458624487	-0.329598
H	 1.0029941149	 1.7719327649	-0.0528582708	 0.175355
H	-0.5481676266	 1.8477053497	-0.9207599703	 0.137058
H	-0.5205018706	 1.870353449	 0.8606317288	 0.137044
H	-2.6909334952	 0.3612389095	-0.8561043282	 0.152604
H	-3.2669134057	-1.0545860945	 0.0492855747	 0.15177
H	-2.6638807482	 0.3802134528	 0.9057316402	 0.152698
H	-1.4839265401	-2.9892963481	 0.048186205	 0.123242
108.0284	133.1489	149.8091	177.273	199.9938	279.5822	313.6015	323.3538	471.4683	530.8395	588.9699	598.9747	627.3942	716.76	739.5585	839.7952	906.5917	1012.853	1020.7864	1057.4541	1107.5675	1152.2121	1179.952	1238.3801	1328.3956	1397.8372	1426.0059	1460.2693	1474.1672	1480.0358	1498.9765	1511.1055	1641.8015	1816.1962	1848.3885	3030.2687	3036.8543	3086.514	3090.748	3142.2821	3146.369	3258.8257
CN1C(C)=CC(=O)C1=O	CN1C(=CC(=O)C1=O)C	
InChI=1S/C6H7NO2/c1-4-3-5(8)6(9)7(4)2/h3H,1-2H3	InChI=1S/C6H7NO2/c1-4-3-5(8)6(9)7(4)2/h3H,1-2H3
