19
gdb 29265	4.27248	0.97797	0.8453	1.1469	84.83	-0.1974	0.0354	0.2329	1394.5789	0.161138	-382.084727	-382.076037	-382.075093	-382.118953	32.305	
C	-0.4771018352	 1.3957720256	 0.0624877964	-0.49958
C	-0.0885321778	-0.04995823	-0.0200972532	 0.293419
C	 0.6242539517	-0.6512487084	-1.0333864298	-0.180709
N	 0.7810019323	-1.9784866304	-0.7213563705	-0.312063
C	 0.1738348011	-2.2554043582	 0.4830533489	 0.335095
C	-0.3683430247	-1.0697513683	 0.9374117443	-0.342533
C	 0.1777458474	-3.6233380196	 1.032249417	-0.124348
C	-0.7418894677	-4.0052246739	 2.1294726033	-0.232231
N	-0.9645891743	-4.5509559317	 0.7816903822	-0.318164
H	-0.051975867	 1.8819290026	 0.9485640729	 0.12354
H	-0.1283735381	 1.9487902741	-0.8147442043	 0.117062
H	-1.5646496997	 1.5223878684	 0.1206898799	 0.122416
H	 1.0347342521	-0.2389150819	-1.9418942498	 0.113082
H	 1.2357682613	-2.6624778314	-1.3010372584	 0.260118
H	-0.8905758625	-0.9370164225	 1.8734055022	 0.089188
H	 1.134333361	-4.1411526049	 0.9788778887	 0.090429
H	-0.4185685058	-4.7292821941	 2.871723044	 0.11767
H	-1.4271888236	-3.2506169816	 2.5041172261	 0.117961
H	-1.7086773608	-4.017673364	 0.3353564498	 0.229648
40.3753	96.7292	123.3433	168.2087	257.6704	325.7022	383.4874	452.6157	485.5079	581.0664	637.9384	679.7532	712.5989	731.9878	805.3736	816.8643	872.3403	957.1884	980.5128	991.2614	1004.3868	1021.4683	1064.324	1105.9938	1134.4591	1139.5923	1171.4066	1199.8147	1233.9606	1273.1843	1304.5529	1312.4463	1393.3399	1420.0731	1442.0068	1456.3558	1483.3542	1502.3404	1510.3393	1543.7741	1635.3941	3022.9743	3070.3413	3102.3224	3110.6295	3116.5126	3199.5567	3239.3038	3254.6556	3485.7915	3676.4181
CC1=CNC(=C1)C1CN1	Cc1c[nH]c(c1)[C@H]1CN1	
InChI=1S/C7H10N2/c1-5-2-6(8-3-5)7-4-9-7/h2-3,7-9H,4H2,1H3	InChI=1S/C7H10N2/c1-5-2-6(8-3-5)7-4-9-7/h2-3,7-9H,4H2,1H3/t7-/m1/s1
