17
gdb 84281	3.21562	1.50217	1.21815	2.4834	69.83	-0.2546	-0.0091	0.2454	1018.7306	0.137054	-458.917158	-458.909729	-458.908785	-458.948839	29.62	
O	 0.2902002343	 1.4127809405	-0.0688207789	-0.431324
C	 0.1899875221	 0.0123023025	-0.0838877497	 0.099148
C	 0.7104819441	-0.6292488794	 1.2138327575	-0.237777
C	-0.0743602405	-1.6470260411	 1.5405523304	 0.171834
C	-0.893357825	-2.2444381078	 2.655439028	-0.154559
O	-2.0957417579	-1.9823548022	 1.8411930183	-0.321682
C	-1.2591075647	-1.7969875749	 0.6437271741	 0.06342
C	-1.3234894999	-0.4529972798	-0.10876927	 0.041491
O	-2.0928034228	 0.4885864662	 0.6187032705	-0.444967
H	-0.476968066	 1.7101416831	 0.4440246397	 0.290382
H	 0.7209545755	-0.3375962505	-0.9777518716	 0.091854
H	 1.5008125017	-0.1679745525	 1.7931846224	 0.112665
H	-0.7848646735	-3.3221856654	 2.8238295002	 0.121728
H	-0.909351091	-1.7156666962	 3.612949862	 0.12965
H	-1.3345119114	-2.6745380163	-0.0073481147	 0.092246
H	-1.7197133244	-0.5203290536	-1.1273813811	 0.078618
H	-2.3923932306	 0.0319972375	 1.4197188727	 0.297274
114.3801	184.7478	264.449	303.8461	351.2187	410.9952	438.8527	478.3164	555.4116	570.8466	721.0705	763.1167	785.4649	826.7024	861.1182	876.0853	894.4751	944.9948	997.6814	1003.1425	1039.0274	1073.0124	1098.5372	1138.8625	1144.4155	1214.314	1225.2359	1262.2151	1273.2249	1301.4443	1325.3198	1347.0292	1352.9661	1425.7987	1447.9917	1510.1872	1741.6959	3030.5459	3032.3144	3044.6484	3062.5666	3093.9151	3213.253	3700.824	3713.6023
OC1C=C2COC2C1O	O[C@H]1[CH][C]2CO[C@H]2[C@H]1O	
InChI=1S/C6H8O3/c7-4-1-3-2-9-6(3)5(4)8/h1,4-8H,2H2	InChI=1S/C6H8O3/c7-4-1-3-2-9-6(3)5(4)8/h1,4-8H,2H2/t4-,5-,6+/m0/s1
