21
gdb 89190	2.54835	1.41296	1.1446	2.9359	82.81	-0.2323	-0.0134	0.219	1178.2322	0.181144	-387.09658	-387.087417	-387.086473	-387.130554	34.876	
C	-0.9370445579	 1.103119895	 0.0146847799	-0.415112
C	 0.0195561642	-0.0803190923	 0.0374556612	 0.054933
C	 1.2489644199	-0.0783797263	-0.9183185377	-0.307309
C	 2.1750195533	-0.5728185582	 0.2521251581	 0.232311
C	 2.9187169114	-1.8756303125	 0.0634807735	-0.498026
C	 0.9666176466	-0.3034634544	 1.2467245237	-0.101445
C	 1.7054287913	 0.948870327	 1.8041720158	-0.369699
C	 2.9031225971	 0.6092307026	 0.8944960967	 0.370094
O	 4.0153802185	 1.0435865674	 0.7937041148	-0.311158
H	-0.4117064206	 2.0566437216	 0.1329679769	 0.116361
H	-1.4774849676	 1.1466914524	-0.9374367032	 0.118075
H	-1.6806021814	 1.0288180548	 0.8161180385	 0.116635
H	-0.5535541544	-1.0005014077	-0.1212264367	 0.076209
H	 1.1937635285	-0.7751468312	-1.7583242126	 0.10885
H	 1.5159275918	 0.9059501575	-1.3147925935	 0.1085
H	 3.7195932366	-1.7518092844	-0.6736943208	 0.135932
H	 3.3788258734	-2.2148164377	 0.9975091298	 0.121235
H	 2.2510145667	-2.6671551033	-0.2936102073	 0.115599
H	 0.6609203443	-1.0302390414	 2.0003455781	 0.069104
H	 1.2458015382	 1.9274166257	 1.6407672665	 0.12615
H	 1.9688643501	 0.8763549454	 2.8641942585	 0.132762
44.3034	140.0421	188.1513	209.3594	240.8557	249.5877	267.0218	368.8842	409.1308	495.6248	515.0018	570.5433	659.4786	733.979	755.6013	825.4569	863.2655	878.6342	919.7833	950.119	964.3465	1011.0597	1043.4219	1059.1732	1102.1713	1109.9183	1136.9743	1155.63	1190.5771	1195.7081	1222.5431	1248.7722	1282.4505	1322.0257	1327.6186	1368.0823	1407.3379	1409.0475	1435.4833	1486.7995	1488.5642	1491.1137	1494.8437	1500.7343	1878.205	3027.0308	3027.3016	3035.9671	3051.7188	3057.7403	3092.3864	3095.5518	3096.3328	3097.6975	3098.4152	3104.6295	3110.7903
CC1CC2(C)C1CC2=O	C[C@H]1C[C@]2(C)[C@H]1CC2=O	
InChI=1S/C8H12O/c1-5-4-8(2)6(5)3-7(8)9/h5-6H,3-4H2,1-2H3	InChI=1S/C8H12O/c1-5-4-8(2)6(5)3-7(8)9/h5-6H,3-4H2,1-2H3/t5-,6-,8+/m0/s1
