14
gdb 129337	7.12671	0.8444	0.75495	14.7548	76.64	-0.1517	-0.0825	0.0692	1406.4804	0.102277	-466.13463	-466.12658	-466.125636	-466.167732	29.39	
N	-0.1591185633	 1.2603409224	 0.0088552663	-0.604597
C	-0.0729534882	-0.0110789549	 0.0013230189	 0.432179
N	-1.1004690694	-0.9369413431	 0.0021019836	-0.452689
C	-0.4230168478	-2.0669237102	-0.0080251259	 0.451307
N	-1.1594982142	-3.290526305	-0.0105703317	-0.335463
C	-0.5856343583	-4.4553713527	-0.020200677	 0.241939
N	-1.2153679829	-5.6241696926	-0.0230748145	-0.506702
H	-0.6844967617	-6.4784611103	-0.0307316047	 0.310716
H	-2.2208769242	-5.6993466776	-0.0178424861	 0.298809
N	 0.8813097462	-2.1046946225	-0.0156838259	-0.286641
O	 1.1591610789	-0.7056449056	-0.009554851	-0.271884
H	 0.7766026657	 1.6634026614	 0.0057254686	 0.202199
H	-2.1656369018	-3.1598415879	-0.0041739396	 0.294606
H	 0.501671551	-4.4395723615	-0.0262400108	 0.226219
63.2475	129.6339	136.8071	229.6553	360.1489	365.7695	392.381	411.3891	532.2451	575.2622	670.5734	733.5081	742.2353	755.8606	771.1024	772.135	877.866	929.8385	1037.2619	1062.6226	1064.842	1109.3286	1268.5613	1318.9557	1355.6187	1392.5403	1449.0481	1631.3436	1662.231	1731.2943	1771.1931	3195.3435	3502.4369	3565.5284	3601.6385	3725.0175
N=C1[N-]C(NC=[NH2+])=NO1	[NH]c1nc(NC=[NH2])no1	
InChI=1S/C3H4N5O/c4-1-6-3-7-2(5)9-8-3/h1H,(H3-,4,5,6,7,8)/q-1/p+1	InChI=1S/C3H5N5O/c4-1-6-3-7-2(5)9-8-3/h1,5H,4H2,(H,6,7,8)
