24
gdb 22236	2.03289	0.9818	0.75779	0.473	88.74	-0.2386	0.0205	0.2591	1656.6481	0.21449	-405.525466	-405.514037	-405.513093	-405.562302	41.581	
C	 0.0478802464	 1.5814809351	-0.1241654856	-0.389522
C	-0.1011135085	 0.0612632587	-0.0217446795	-0.159089
C	 0.8332432693	-0.5418920464	 1.0308622496	-0.256155
C	 0.7546368667	-2.0412512884	 1.2036044933	 0.337586
N	-0.0232682049	-2.6655152974	 0.4029127801	-0.17811
O	-0.0644290501	-4.0511367346	 0.6567552589	-0.408721
C	 1.536305802	-2.717687551	 2.3191844718	-0.032841
C	 2.8591722904	-2.0169835015	 2.658436785	-0.411898
C	 0.6389597116	-2.8579586214	 3.5660496078	-0.387791
H	 1.0687800293	 1.8657690238	-0.4041935415	 0.110906
H	-0.6290060449	 1.9950000867	-0.8781783295	 0.111691
H	-0.1796638746	 2.071543148	 0.8295854967	 0.110365
H	-1.1362011875	-0.2008138954	 0.2217178837	 0.106505
H	 0.1010357631	-0.4036360213	-0.9919900698	 0.110183
H	 1.8721696727	-0.2703593451	 0.7964943805	 0.112504
H	 0.6364288498	-0.0753315464	 2.0081619925	 0.108715
H	-0.655017174	-4.3598796546	-0.0377271521	 0.303109
H	 1.7647286134	-3.7279807518	 1.9674529257	 0.107963
H	 3.4013952096	-2.5967169222	 3.4122519985	 0.113594
H	 3.5077286013	-1.9252098272	 1.7813423576	 0.117204
H	 2.7014392048	-1.0143848166	 3.0687780443	 0.116514
H	-0.2641148819	-3.4248251025	 3.3283349124	 0.134643
H	 1.1751377477	-3.3811034422	 4.364942074	 0.110984
H	 0.3398878083	-1.8771054564	 3.9529400755	 0.111659
50.1866	84.0342	91.8735	137.247	213.2538	228.2053	244.5392	251.0755	267.4184	301.2455	307.3926	342.1396	402.4175	414.7037	506.8065	615.5889	639.9045	747.8548	760.1135	878.3495	899.6772	915.6704	934.2149	970.7484	988.9738	1038.8854	1058.0826	1103.1559	1128.8078	1140.7235	1188.41	1234.1185	1258.8339	1321.5469	1322.9778	1335.3127	1350.0481	1392.0738	1398.5722	1410.3215	1413.5489	1420.9742	1465.9997	1487.1338	1490.1608	1494.1582	1501.0552	1505.0516	1508.515	1511.846	1719.5403	2997.8012	3024.489	3026.3713	3030.0121	3034.743	3050.8704	3063.4463	3074.6507	3093.7054	3100.1187	3101.1894	3102.0224	3106.4441	3125.5937	3825.3621
CCCC(=NO)C(C)C	CCCC(=NO)C(C)C	
InChI=1S/C7H15NO/c1-4-5-7(8-9)6(2)3/h6,9H,4-5H2,1-3H3	InChI=1S/C7H15NO/c1-4-5-7(8-9)6(2)3/h6,9H,4-5H2,1-3H3
