17
gdb 128793	3.41112	1.01181	0.78806	1.1249	71.41	-0.2153	0.0326	0.2479	1406.6394	0.136273	-455.151385	-455.142317	-455.141373	-455.187091	31.985	
C	-0.0028503926	 1.4212947277	 0.0543032109	-0.221472
O	 0.0096442009	 0.0147619803	 0.0396887838	-0.238002
C	 0.6255987565	-0.5130384759	-1.1160115566	-0.180376
C	 0.5895597191	-2.0034892094	-1.0393688407	 0.104465
C	 0.0620201035	-2.7974255715	-0.0425521809	-0.093769
N	 0.263100495	-4.0832734813	-0.4128366094	-0.206575
N	 0.8986291509	-4.1957653292	-1.6072098438	-0.336497
C	 1.0899079055	-2.9386892038	-1.9745115692	 0.342069
O	 1.7052805045	-2.6129944099	-3.1335401754	-0.431993
H	 1.0161511054	 1.8395222399	 0.0341645978	 0.105523
H	-0.5584362021	 1.8342249898	-0.8027240648	 0.105523
H	-0.4949255261	 1.7348071363	 0.978156812	 0.125977
H	 0.107991068	-0.1570007963	-2.0246194099	 0.101597
H	 1.6665406937	-0.1521217047	-1.1962098689	 0.101602
H	-0.4284714833	-2.5283397127	 0.8781344323	 0.146351
H	 0.0036353999	-4.918684314	 0.0799019303	 0.273305
H	 1.9411754012	-3.4403413153	-3.5714246277	 0.302271
14.1205	81.019	120.3885	226.196	244.2209	288.8285	318.3631	354.1169	383.491	416.0125	523.7275	646.4583	674.5428	724.1263	809.1069	817.5817	949.3816	991.6634	1051.7064	1073.3793	1126.2979	1164.2945	1185.0065	1219.168	1245.449	1247.3211	1251.199	1325.4692	1424.8411	1453.3915	1481.779	1484.7353	1491.7512	1503.9958	1526.0184	1566.9102	1648.3814	2938.9782	2952.1147	2970.7314	3013.4908	3114.2167	3278.7221	3697.8084	3796.405
COCC1=CNN=C1O	COCc1c[nH]nc1O	
InChI=1S/C5H8N2O2/c1-9-3-4-2-6-7-5(4)8/h2H,3H2,1H3,(H2,6,7,8)	InChI=1S/C5H8N2O2/c1-9-3-4-2-6-7-5(4)8/h2H,3H2,1H3,(H2,6,7,8)
