20
gdb 76474	3.0981	1.05405	0.97217	3.9524	81.09	-0.2327	0.0391	0.2717	1314.1831	0.169359	-403.161991	-403.152427	-403.151483	-403.196414	35.455	
C	-0.1376067518	 0.865761906	-2.0251033363	-0.409681
C	-0.0022866934	-0.2698832307	-1.0331782886	-0.094265
C	 1.3245867067	-0.638995389	-0.3578199771	-0.094278
C	 2.620103588	 0.0985514896	-0.6216225154	-0.40969
C	 0.207057672	-0.0257630156	 0.4309260405	 0.392754
C	 0.1736072202	 1.2957932345	 1.218860661	-0.483742
C	-0.599999434	 0.4847417	 2.2959735355	 0.434621
O	-1.0840220594	 0.711214266	 3.3716417543	-0.361736
N	-0.5227984317	-0.650279987	 1.5234082538	-0.38606
H	 0.4622250736	 1.7342740773	-1.7396879873	 0.120523
H	 0.1816981349	 0.5578183571	-3.0268266793	 0.121253
H	-1.1793449048	 1.1971082139	-2.0965198555	 0.123222
H	-0.6297683213	-1.1288269965	-1.2642126583	 0.084243
H	 1.4545193987	-1.7086353719	-0.203273468	 0.084244
H	 2.4667012314	 1.1768333081	-0.7183417996	 0.12053
H	 3.330189531	-0.05842994	 0.1976657757	 0.123223
H	 3.0956248944	-0.252127707	-1.5441970576	 0.121261
H	 1.1400729794	 1.6741937567	 1.5568199205	 0.13269
H	-0.4063449229	 2.1042251819	 0.7699108712	 0.132687
H	-0.859314221	-1.5901312536	 1.6719307904	 0.248201
55.7591	152.005	160.3628	174.7076	175.2036	243.9262	252.3943	329.2221	386.3904	481.7647	498.0111	518.885	564.5472	568.6769	765.8831	784.1316	805.4791	892.1856	963.4294	992.8351	1007.3348	1009.9436	1055.6999	1062.4128	1118.7885	1137.8836	1157.6613	1161.2396	1172.7964	1190.8883	1265.5629	1271.4741	1362.6736	1377.8749	1412.211	1421.3953	1456.6056	1487.0811	1488.1807	1494.125	1500.2559	1519.2569	1897.6714	3030.4228	3034.3594	3083.9951	3089.3968	3091.0705	3100.5721	3110.8785	3119.5141	3131.8826	3141.3834	3611.8345
CC1C(C)C11CC(=O)N1	C[C@H]1[C@@H](C)[C@]21CC(=O)N2	
InChI=1S/C7H11NO/c1-4-5(2)7(4)3-6(9)8-7/h4-5H,3H2,1-2H3,(H,8,9)	InChI=1S/C7H11NO/c1-4-5(2)7(4)3-6(9)8-7/h4-5H,3H2,1-2H3,(H,8,9)/t4-,5+,7+
