15
gdb 32179	3.07254	1.27207	0.90468	1.3284	70.3	-0.2576	-0.0227	0.2349	1205.0828	0.114346	-454.00796	-454.000122	-453.999178	-454.04082	28.781	
O	 0.0638507668	 1.4082232738	-0.0142166106	-0.415733
C	 0.006186765	-0.0032064295	-0.0300559227	-0.152266
C	-1.4292964441	-0.4587786542	 0.014690048	 0.313454
N	-1.6074207921	-1.7938816239	 0.0030712716	-0.320623
C	-2.8656974752	-2.2078936405	 0.0422015229	 0.063636
N	-3.9656606714	-1.4505005152	 0.0914490508	-0.35313
C	-3.760102136	-0.1368394832	 0.1017830016	 0.447437
O	-4.8374168827	 0.6607657072	 0.1507990599	-0.406527
C	-2.4849680577	 0.4334042368	 0.0641802548	-0.265804
H	 0.986786009	 1.6734429299	-0.0431861029	 0.296414
H	 0.4672198775	-0.4281507942	-0.9353582233	 0.118714
H	 0.5292801207	-0.4504190072	 0.8296598388	 0.118701
H	-3.0276106842	-3.2834473288	 0.0335354639	 0.118175
H	-5.6068625277	 0.0731142777	 0.1702305409	 0.301801
H	-2.3340693778	 1.5027705915	 0.0731811863	 0.135751
68.3485	170.5777	193.4457	204.2513	238.1743	399.9617	460.7474	476.2846	560.1731	568.7117	592.3253	640.3876	801.6943	816.3928	893.9591	980.0672	997.4891	1005.8451	1039.728	1099.4326	1155.2213	1188.6872	1221.3529	1244.5493	1290.0017	1335.3344	1370.6265	1436.2565	1473.4889	1499.1607	1506.5501	1609.8061	1652.6871	2979.9732	3005.6067	3161.6285	3249.4678	3754.5238	3849.334
OCC1=NC=NC(O)=C1	OCc1ncnc(O)c1	
InChI=1S/C5H6N2O2/c8-2-4-1-5(9)7-3-6-4/h1,3,8H,2H2,(H,6,7,9)	InChI=1S/C5H6N2O2/c8-2-4-1-5(9)7-3-6-4/h1,3,8H,2H2,(H,6,7,9)
