15
gdb 129353	4.39708	0.91758	0.81987	5.0749	68.9	-0.2647	-0.0155	0.2493	1342.4583	0.113867	-450.109416	-450.101303	-450.100359	-450.144144	28.03	
N	-0.2452529821	 1.0924745538	-0.0233628714	-0.430191
C	-0.3277124756	-0.157518886	-0.1435785145	 0.136516
O	-0.6341567804	-0.9144301812	 0.938854598	-0.17011
C	-0.8301435053	-2.3000550654	 0.7041289079	-0.212441
C	-2.2132699228	-2.5796000694	 0.2010389603	 0.31554
C	-3.3638970642	-1.8260202875	 0.1856369898	-0.134633
N	-4.3651613673	-2.5617566374	-0.3772780283	-0.179949
N	-3.9061299563	-3.7298912946	-0.7091253785	-0.107838
N	-2.5993451186	-3.7504802331	-0.3647695045	-0.249479
H	 0.0150077658	 1.515292184	-0.9117584237	 0.23672
H	-0.1615257397	-0.746824442	-1.0557579368	 0.0941
H	-0.0751882121	-2.6884015585	 0.0041033504	 0.120184
H	-0.6572678719	-2.7848031327	 1.6705395197	 0.152228
H	-3.5179225303	-0.8196639248	 0.5373238834	 0.148831
H	-2.0596121692	-4.5825812051	-0.5443057416	 0.280521
32.0463	55.2047	103.0028	199.4923	242.0472	342.4665	402.2457	559.887	650.1117	666.8857	722.3434	728.162	821.2323	862.6285	960.0569	994.8237	1037.323	1043.1479	1056.9257	1064.6464	1128.4112	1149.8761	1217.3169	1237.2653	1321.3105	1336.054	1361.0315	1407.6963	1420.4416	1451.4241	1494.202	1605.5336	1753.1842	2994.6187	3025.8712	3071.9301	3285.1502	3524.5537	3651.1271	32.0461	55.2045	103.0024	199.4922	242.0471	342.4664	402.2457	559.8873	650.1117	666.8858	722.3433	728.1621	821.2322	862.6281	960.0569	994.8237	1037.3231	1043.1479	1056.9259	1064.6464	1128.411	1149.876	1217.317	1237.2655	1321.3107	1336.0539	1361.0316	1407.6965	1420.4417	1451.4241	1494.2023	1605.5337	1753.1841	2994.6187	3025.8712	3071.9301	3285.1501	3524.5536	3651.1271
N=COCC1=CN=NN1	[NH][CH]OCc1cnn[nH]1	
InChI=1S/C4H6N4O/c5-3-9-2-4-1-6-8-7-4/h1,3,5H,2H2,(H,6,7,8)	InChI=1S/C4H6N4O/c5-3-9-2-4-1-6-8-7-4/h1,3,5H,2H2,(H,6,7,8)
