19
gdb 107731	4.07899	1.19348	1.12661	0.8545	75.35	-0.2142	0.0823	0.2965	1162.566	0.15718	-422.950251	-422.941726	-422.940781	-422.983236	32.65	
C	 0.1950211252	 1.2722883157	 0.2370434128	-0.258283
O	-0.1643076669	-0.0419269978	-0.1641247437	-0.280795
C	 0.5205075704	-0.4825807911	-1.2662024308	 0.38767
C	 0.3403768384	-0.0884123776	-2.7347711092	-0.341389
C	 1.2097275863	-1.3482228145	-3.0222824263	 0.418725
C	 1.2544476998	-2.0426592176	-4.3466037556	-0.5013
O	 2.5272527931	-0.9675937729	-2.4982817702	-0.328022
C	 1.9485224759	-1.0746325141	-1.2008111754	 0.018443
C	 0.7951843535	-1.9323080144	-1.6102702708	-0.28106
H	 1.2667126645	 1.3411082111	 0.4672280754	 0.114458
H	-0.0441609175	 2.0102710323	-0.5406782484	 0.11742
H	-0.3845870882	 1.4998879888	 1.1339624209	 0.128951
H	-0.6950675077	-0.2304746141	-3.0556661691	 0.105162
H	 0.7388883884	 0.8640322399	-3.0983858989	 0.096815
H	 1.6781268667	-1.3754803457	-5.1050875644	 0.133556
H	 1.8772698138	-2.9398438997	-4.2917440688	 0.132679
H	 0.2480280796	-2.3306139765	-4.6645404607	 0.12407
H	 2.5796774661	-1.0791771497	-0.3219552453	 0.108786
H	 0.3881139486	-2.872263712	-1.2644365516	 0.104117
81.7359	156.1779	166.284	196.0423	265.6997	271.2983	387.4932	419.7286	471.8621	524.1581	598.1763	649.5257	756.2723	781.7378	819.4471	829.4829	870.5163	940.0353	961.9098	984.3311	1019.5497	1032.2677	1058.4624	1101.4801	1115.622	1141.0772	1150.7916	1177.744	1182.0708	1218.7012	1238.8622	1304.5063	1343.3726	1395.8637	1418.4091	1477.0257	1477.9719	1486.2835	1489.1796	1500.1201	1506.1491	2998.9529	3038.0079	3046.041	3054.9936	3108.2238	3112.4208	3120.463	3126.666	3203.9626	3216.93
COC12CC3(C)OC1C23	CO[C@@]12C[C@@]3(C)O[C@@H]1[C@@H]23	
InChI=1S/C7H10O2/c1-6-3-7(8-2)4(6)5(7)9-6/h4-5H,3H2,1-2H3	InChI=1S/C7H10O2/c1-6-3-7(8-2)4(6)5(7)9-6/h4-5H,3H2,1-2H3/t4-,5-,6-,7-/m1/s1
