18
gdb 40036	3.51681	1.55985	1.43917	1.8531	73.96	-0.2321	0.0758	0.3078	955.1282	0.14977	-401.885215	-401.878578	-401.877634	-401.916077	27.528	
C	 0.1015484691	 1.5268007169	-0.0270813051	-0.257741
O	 1.2323951983	 0.6483177651	 0.0064367906	-0.291711
C	-0.0722425164	 0.0699846956	 0.0362635456	 0.457796
C	-0.4956738224	-0.7195018579	 1.277313791	-0.307792
C	-1.5157950225	-1.7117289265	 0.7031274446	-0.075543
C	-2.6284528431	-0.9449045013	-0.0541608341	-0.153746
N	-1.9185902734	-1.1008551914	-1.3717611201	-0.15917
C	-0.9840839963	-2.0779897813	-0.710632426	-0.051044
C	-0.4751363572	-0.7652235384	-1.1538894298	-0.106812
H	-0.0491860925	 2.1270221171	 0.8695877776	 0.11333
H	-0.0547778218	 2.0522692035	-0.9687035995	 0.117738
H	 0.379823452	-1.2402474762	 1.6819484095	 0.11915
H	-0.9153887023	-0.0882525741	 2.066692508	 0.104168
H	-1.8203743317	-2.5076308525	 1.3811456987	 0.077185
H	-3.5707290481	-1.4941047517	-0.1148449538	 0.112751
H	-2.8317842447	 0.0894262055	 0.2470003155	 0.099556
H	-0.7457867615	-3.0488235247	-1.1280999023	 0.097068
H	 0.0721229846	-0.6398643476	-2.0811242506	 0.104817
112.5093	257.8138	333.1853	368.5336	385.273	504.795	521.9312	623.8584	766.7446	776.1526	802.9853	842.3715	856.7545	873.7869	889.4893	922.0071	934.5053	980.9431	983.8054	1026.1708	1034.415	1055.6959	1103.7768	1128.7684	1150.2678	1164.2519	1168.188	1190.0731	1235.5141	1252.495	1265.7763	1283.6528	1304.7572	1334.0761	1349.2372	1433.6516	1482.314	1503.8177	1530.6237	3035.2567	3041.3751	3077.1947	3090.8494	3102.955	3124.2908	3164.217	3179.7607	3190.6024
C1OC11CC2CN3C2C13	C1O[C@]21C[C@H]1CN3[C@H]1[C@H]23	
InChI=1S/C7H9NO/c1-4-2-8-5(4)6(8)7(1)3-9-7/h4-6H,1-3H2	InChI=1S/C7H9NO/c1-4-2-8-5(4)6(8)7(1)3-9-7/h4-6H,1-3H2/t4-,5+,6+,7-,8?/m0/s1
