19
gdb 52483	5.02805	0.5543	0.52144	0.4305	107.81	-0.2148	-0.0008	0.214	2161.0686	0.157184	-348.710475	-348.700131	-348.699187	-348.749107	36.026	
C	 0.055486437	 1.5282359724	 0.0193355318	-0.517555
C	 0.0473483205	 0.0763143899	 0.0188987074	 0.226834
C	 0.0412944868	-1.1346647657	 0.0189667082	-0.192932
C	 0.0355540554	-2.4936603815	 0.0181449755	-0.221415
C	 0.0254377103	-3.706732704	 0.0249495783	 0.33411
C	 0.0343447249	-5.13501774	 0.0120877733	-0.235084
C	-0.4315278186	-5.9226816851	 1.2345653353	-0.285618
C	-1.2680142017	-5.9383383097	-0.0089506424	 0.017943
C	-2.6099833842	-5.2473306631	-0.0559913461	-0.40879
H	 1.0571036963	 1.918590804	-0.194787324	 0.154257
H	-0.6266209255	 1.9321494173	-0.7376927624	 0.153075
H	-0.2539403601	 1.9273367182	 0.9921969407	 0.153472
H	 0.8606931068	-5.5748727138	-0.5399632461	 0.112828
H	 0.1395507737	-6.8043084891	 1.5034331394	 0.11753
H	-0.7903958178	-5.3400666694	 2.075777778	 0.12654
H	-1.2045840959	-6.8455864056	-0.6040441293	 0.091997
H	-2.5961257731	-4.3189001439	 0.5213997595	 0.132558
H	-2.8884213641	-4.9933214457	-1.0841149903	 0.123283
H	-3.3925642307	-5.8935748553	 0.3560045632	 0.116965
4.6415	57.7127	71.165	140.1534	165.905	207.725	273.1425	310.4489	355.805	379.6322	441.536	514.0004	553.2468	591.5262	641.4615	757.9842	816.1825	858.8071	916.3881	943.1469	1013.1115	1047.725	1048.5899	1067.6562	1092.4384	1108.4783	1142.3929	1198.9702	1216.9751	1289.5005	1385.6575	1404.3332	1416.9035	1424.3533	1472.294	1473.5013	1482.6964	1492.2356	1500.9208	2272.1304	2375.6413	3020.6735	3034.2232	3081.0881	3081.9802	3095.6961	3112.8504	3134.0581	3135.9573	3145.9257	3226.1916
CC#CC#CC1CC1C	CC#CC#C[C@H]1C[C@H]1C	
InChI=1S/C9H10/c1-3-4-5-6-9-7-8(9)2/h8-9H,7H2,1-2H3	InChI=1S/C9H10/c1-3-4-5-6-9-7-8(9)2/h8-9H,7H2,1-2H3/t8-,9+/m1/s1
