18
gdb 95416	3.20253	1.12229	0.85922	3.6623	81.19	-0.265	-0.0417	0.2233	1316.018	0.148236	-401.98144	-401.972989	-401.972044	-402.014543	31.644	
C	-0.0181704777	 1.5217637081	 0.0455204717	-0.404873
C	 0.025607114	 0.0040037487	-0.0200965972	 0.121343
C	 0.7764431822	-0.5217496013	-1.2502537286	-0.303865
C	 1.0408384106	-2.0072012944	-1.1044483345	 0.153774
C	 0.9428283599	-2.6134806221	 0.0856982625	-0.140128
C	 0.6144773068	-1.8490385739	 1.332763022	-0.124306
O	 0.667146103	-0.4508009944	 1.169271181	-0.257058
C	 1.3838922633	-2.743624785	-2.2792235886	 0.213472
N	 1.6594941099	-3.3076852956	-3.2529107776	-0.333978
H	 0.9959249149	 1.9280152092	 0.1082094679	 0.129826
H	-0.5038425431	 1.9317469474	-0.8449159719	 0.120664
H	-0.5736741867	 1.8478830731	 0.9283579188	 0.128239
H	-1.0030314536	-0.3947411211	-0.0461113689	 0.073941
H	 0.1899486609	-0.3358364207	-2.1567453143	 0.126556
H	 1.7244525926	 0.0177070064	-1.3714602228	 0.130168
H	 1.0954767126	-3.6839435468	 0.1809554956	 0.122378
H	-0.3788624144	-2.1692978155	 1.7007159396	 0.111145
H	 1.3335406347	-2.0976270323	 2.1228976654	 0.132703
96.9918	145.3494	170.5648	218.5281	238.0098	312.0227	368.8109	403.3157	471.3074	480.2193	573.8134	579.8771	677.6223	825.1461	848.3682	875.8885	916.6815	931.0573	989.1994	1034.0963	1063.4361	1118.2078	1155.8241	1161.7334	1174.5305	1237.3905	1269.9216	1304.1459	1349.0417	1377.1354	1393.3963	1405.2402	1413.9783	1468.7163	1477.9953	1483.9742	1500.2718	1701.6521	2335.6762	2929.6195	2957.3421	3030.0347	3045.2245	3050.0647	3074.8502	3119.1365	3126.4542	3186.2684
CC1CC(=CCO1)C#N	C[C@H]1CC(=CCO1)C#N	
InChI=1S/C7H9NO/c1-6-4-7(5-8)2-3-9-6/h2,6H,3-4H2,1H3	InChI=1S/C7H9NO/c1-6-4-7(5-8)2-3-9-6/h2,6H,3-4H2,1H3/t6-/m0/s1
