17
gdb 34033	3.37931	1.34039	1.10692	1.0987	74.98	-0.2537	0.0188	0.2725	1103.9062	0.135731	-421.77505	-421.76716	-421.766216	-421.807304	30.625	
C	-0.0363539167	-1.1842212311	 0.0825531874	-0.367509
C	 0.0193845337	 0.0156087864	 0.0319653716	 0.23877
C	 0.0416363741	 1.4528459084	-0.0556199657	 0.154489
C	-1.1703215519	 2.1054958456	-0.7307248993	-0.159436
O	-0.8458033475	 3.2103811401	-1.5468032228	-0.244877
C	 0.0175105743	 4.1389822115	-0.9117280472	-0.084936
C	 1.4131537917	 3.533872157	-0.737067972	-0.244426
C	 1.3264649633	 2.1935075554	-0.0453473678	 0.010281
O	 0.5166434475	 2.1382064671	 1.1269782014	-0.285247
H	-0.0731209841	-2.2443687307	 0.1362766341	 0.197373
H	-1.6604541584	 1.3781652175	-1.3819553769	 0.124929
H	-1.8787408195	 2.3950363431	 0.0623896887	 0.111163
H	 0.0542321307	 5.0182861286	-1.5595549381	 0.110626
H	-0.3889087249	 4.4418332078	 0.0643912269	 0.107656
H	 1.8811313915	 3.3905715824	-1.717942673	 0.117503
H	 2.0549818402	 4.2097897024	-0.1590146875	 0.112502
H	 2.245893946	 1.6115407286	 0.01608623	 0.101139
110.482	139.5205	184.1643	285.1934	351.91	373.8273	413.4834	488.971	513.7662	583.9854	621.1191	625.5782	664.9782	716.3763	809.1587	871.0761	908.2698	948.4381	960.713	1019.9558	1044.1673	1090.4262	1125.1148	1132.5398	1219.7792	1253.129	1268.1774	1304.8981	1325.5188	1371.0394	1375.8872	1420.1313	1452.518	1469.6714	1481.9334	1499.4921	2238.0116	2977.8474	3004.1114	3033.8791	3077.689	3099.7569	3104.8648	3116.061	3501.2121
C#CC12COCCC1O2	C#C[C@]12COCC[C@H]1O2	
InChI=1S/C7H8O2/c1-2-7-5-8-4-3-6(7)9-7/h1,6H,3-5H2	InChI=1S/C7H8O2/c1-2-7-5-8-4-3-6(7)9-7/h1,6H,3-5H2/t6-,7+/m1/s1
