17
gdb 43978	2.84958	1.69928	1.53041	3.723	72.58	-0.2366	0.0205	0.2572	937.6074	0.137974	-417.956484	-417.949341	-417.948397	-417.987971	28.687	
N	 0.0082059091	 1.214534039	-0.0453103419	-0.551189
C	-0.037628275	-0.0316109485	 0.054074182	 0.390409
O	 1.0037009341	-0.9583971999	 0.246985013	-0.301157
C	 0.0744887547	-2.0479270932	-0.0101754417	 0.353978
C	-0.9601969658	-2.1099289707	 1.0494147191	-0.355782
C	-1.1049461801	-1.0840299684	-0.0815180221	 0.093932
N	-1.8785870391	-1.3348049737	-1.2465622799	-0.346367
C	-1.0308224256	-2.1372770008	-2.1623471651	-0.172146
C	 0.0665344528	-2.8545318496	-1.2866946593	-0.31696
H	 0.9657382287	 1.5583287724	 0.0481575756	 0.230474
H	-1.6635854432	-2.9352076754	 1.0004823827	 0.126214
H	-0.7159590379	-1.7686994836	 2.0499337406	 0.137535
H	-2.7678821319	-1.7719113908	-1.0477304426	 0.229715
H	-1.6409024682	-2.8318170389	-2.7477604746	 0.106802
H	-0.5358201296	-1.4634374603	-2.8710906551	 0.127775
H	 1.0463665417	-2.8406888062	-1.7691661139	 0.130858
H	-0.1923847247	-3.8993420412	-1.0914564768	 0.115909
102.3835	145.6928	275.2466	353.2339	390.0363	430.408	592.3133	606.4183	631.0357	656.4007	676.7847	741.0306	830.7805	846.6585	855.1363	875.3349	887.3043	932.0937	938.8048	962.9664	995.8887	1015.7745	1068.1557	1085.9827	1170.3579	1196.627	1233.2085	1277.2517	1291.6598	1329.9587	1361.6028	1387.086	1434.0225	1465.6747	1477.838	1508.5027	1825.7702	3037.0354	3061.3573	3088.42	3119.4686	3128.6202	3222.5031	3475.8992	3574.6418
N=C1OC23CC12NCC3	[NH][C]1O[C@@]23C[C@@]12NCC3	
InChI=1S/C6H8N2O/c7-4-6-3-5(6,9-4)1-2-8-6/h7-8H,1-3H2	InChI=1S/C6H8N2O/c7-4-6-3-5(6,9-4)1-2-8-6/h7-8H,1-3H2/t5-,6+/m0/s1
