20
gdb 103908	3.25805	0.92551	0.82553	4.4851	78.84	-0.2341	0.0353	0.2694	1458.2487	0.168539	-440.287473	-440.277332	-440.276388	-440.323208	36.327	
C	 0.1283038473	 1.1903112374	-0.3291437877	-0.248438
O	-0.1103267499	-0.0366071499	 0.3382942215	-0.292354
C	-1.4017883669	-0.5645930841	 0.1719160819	 0.385494
C	-2.4909154823	 0.1440488572	 0.9440670606	-0.456626
C	-1.6942493777	-1.2235097851	-1.1617414311	-0.35979
C	-1.3982696242	-2.0634951113	 0.0701294989	-0.005317
N	-0.1412545298	-2.7288459997	 0.1998530595	-0.279272
C	-0.0321766205	-4.0778756922	 0.3046808507	 0.151674
O	-0.9558341406	-4.8616422672	 0.2308398015	-0.329418
H	 1.1837204178	 1.4297516911	-0.1812234932	 0.130372
H	-0.0765660315	 1.1104637533	-1.4052671985	 0.114512
H	-0.4780184421	 2.0069861969	 0.0838132011	 0.117359
H	-2.6605924637	 1.1579388749	 0.5659730933	 0.121
H	-3.4353768662	-0.4001870815	 0.8598974065	 0.127009
H	-2.2250449193	 0.2111081832	 2.0037910427	 0.130387
H	-2.7078908316	-1.2077478673	-1.5477963843	 0.119538
H	-0.9136190576	-1.1833427708	-1.9134095816	 0.118352
H	-2.2137972856	-2.6217281581	 0.5146237363	 0.126366
H	 0.6666786869	-2.1411478995	 0.3413899126	 0.258036
H	 1.0182834675	-4.3903904672	 0.4704015595	 0.071117
34.9195	101.2736	128.1971	177.5616	195.8242	215.7517	220.7767	293.8187	302.5134	374.4687	408.4245	486.6015	578.8118	594.8939	686.3068	749.1235	862.8468	879.736	927.738	952.6374	1020.3348	1028.3073	1042.6312	1100.4436	1104.8604	1125.5634	1133.3933	1183.4917	1220.371	1243.726	1272.1533	1300.4682	1387.3222	1415.8841	1429.6132	1465.4464	1476.08	1481.019	1491.6254	1503.1581	1511.3824	1534.1505	1801.9845	2932.8063	3002.0232	3035.916	3058.3636	3100.7273	3119.1826	3121.9562	3131.5429	3186.7865	3224.8085	3620.4487
COC1(C)CC1NC=O	CO[C@@]1(C)C[C@H]1NC=O	
InChI=1S/C6H11NO2/c1-6(9-2)3-5(6)7-4-8/h4-5H,3H2,1-2H3,(H,7,8)	InChI=1S/C6H11NO2/c1-6(9-2)3-5(6)7-4-8/h4-5H,3H2,1-2H3,(H,7,8)/t5-,6+/m1/s1
