16
gdb 29829	3.84754	1.06607	0.83917	5.1063	77.37	-0.2043	-0.0222	0.1821	1303.3624	0.123795	-437.93477	-437.925875	-437.924931	-437.969223	31.563	
C	-0.0425424056	 1.4588940781	 0.0195488608	-0.334407
N	 0.0066207775	 0.009616489	-0.0034946274	-0.047907
C	-0.0856886315	-0.7997127988	-1.1037148907	-0.178825
C	 0.0073021804	-2.1142634735	-0.6854077594	 0.198479
C	-0.0472272378	-3.2736947395	-1.5567317177	 0.074944
O	 0.03424866	-4.4289531541	-1.1919633127	-0.299605
C	 0.1641237696	-2.1036408154	 0.7410850357	-0.443566
C	 0.1579398166	-0.7878151812	 1.1112629437	 0.404287
O	 0.266099227	-0.1457090723	 2.3001389624	-0.438745
H	 0.8813738453	 1.8726134955	 0.4335377107	 0.151698
H	-0.1678660223	 1.8198583044	-1.0019796921	 0.142689
H	-0.8812306242	 1.8097521519	 0.6275623273	 0.15169
H	-0.2095547794	-0.3819318373	-2.0902835052	 0.135834
H	-0.1750116858	-3.0246838196	-2.6361157045	 0.049202
H	 0.2651349788	-2.9681665002	 1.3768620273	 0.12046
H	 0.3658694612	-0.804787297	 2.9939084117	 0.313772
34.7258	107.4878	161.556	196.752	226.9615	260.8457	276.7272	375.8418	426.0797	510.4777	634.2523	648.8141	653.3765	713.3144	731.0641	775.8535	830.3835	1000.9761	1032.7189	1077.482	1132.9996	1153.0562	1174.2437	1206.7864	1285.189	1380.6264	1414.4946	1426.4574	1457.2611	1478.2303	1512.3181	1522.9633	1581.3594	1625.5022	1779.4639	2854.3093	3048.1059	3109.8692	3148.8139	3260.5328	3264.9451	3846.5661
CN1C=C(C=O)C=C1O	Cn1cc(C=O)cc1O	
InChI=1S/C6H7NO2/c1-7-3-5(4-8)2-6(7)9/h2-4,9H,1H3	InChI=1S/C6H7NO2/c1-7-3-5(4-8)2-6(7)9/h2-4,9H,1H3
