23
gdb 121025	2.6067	1.085	0.86174	0.8905	87.59	-0.2318	0.0288	0.2606	1447.9661	0.205747	-388.293436	-388.283765	-388.28282	-388.328198	36.094	
C	 0.3393511183	 1.3199863877	-0.1854952871	-0.228204
O	 0.0884260393	-0.0491737902	 0.011247545	-0.230688
C	 0.870414622	-0.6079375193	 1.0487719639	-0.064336
C	 0.5342095143	-2.0956443855	 1.1541368818	-0.027187
C	 0.931517482	-2.8317659578	-0.156666414	-0.260639
C	 2.2605963279	-3.4595377161	 0.1872250832	-0.075206
C	 2.4834002579	-3.4569756476	 1.4994071871	-0.058216
C	 1.3408719385	-2.8314944334	 2.2749116088	-0.029126
C	 1.7772871706	-1.9974224356	 3.4869569967	-0.408162
H	 1.3902252882	 1.5098888673	-0.4576018414	 0.101637
H	-0.3029097424	 1.6585105105	-1.0025623077	 0.124417
H	 0.1095557571	 1.9128934552	 0.7146483397	 0.100975
H	 1.9439081663	-0.4679023698	 0.8333044219	 0.087686
H	 0.6563695731	-0.0884793843	 1.99618406	 0.083663
H	-0.5421971816	-2.1670393208	 1.3374696416	 0.073061
H	 0.1962722008	-3.6043810688	-0.4222533718	 0.099834
H	 0.9721777623	-2.1437829112	-1.0067101327	 0.114368
H	 2.9188137921	-3.8887599999	-0.5605622658	 0.08744
H	 3.3501049875	-3.8833685114	 1.9944120766	 0.084616
H	 0.7074653974	-3.644636691	 2.6635504798	 0.080371
H	 2.4577807469	-1.1877259296	 3.2059795551	 0.119169
H	 0.9177749053	-1.5566333269	 4.0027001532	 0.114239
H	 2.303361156	-2.6305175614	 4.2094200462	 0.110286
68.3071	101.942	125.6228	153.1583	237.7163	256.3947	276.1084	289.4122	353.769	409.9998	467.6796	516.5659	665.1333	757.1911	757.6737	842.0826	857.1018	920.5133	952.9808	970.0851	971.9855	990.169	1021.8919	1066.5396	1094.4014	1114.5401	1135.7555	1149.637	1159.0853	1182.3259	1215.9278	1222.003	1244.4894	1273.6798	1308.1669	1322.7423	1346.2638	1354.51	1384.0783	1413.0483	1423.3648	1480.2507	1484.9958	1493.3914	1499.0723	1502.6159	1507.3375	1531.806	1686.1764	2951.9666	2967.3285	2968.6926	2991.0746	3007.2394	3008.8719	3032.4576	3064.1455	3077.1879	3095.2472	3106.5653	3109.72	3172.6419	3199.6097
COCC1CC=CC1C	COC[C@H]1CC=C[C@H]1C	
InChI=1S/C8H14O/c1-7-4-3-5-8(7)6-9-2/h3-4,7-8H,5-6H2,1-2H3	InChI=1S/C8H14O/c1-7-4-3-5-8(7)6-9-2/h3-4,7-8H,5-6H2,1-2H3/t7-,8-/m1/s1
