19
gdb 82388	2.74801	1.82484	1.4123	2.6652	73.65	-0.2172	0.0592	0.2763	960.9642	0.162708	-419.150016	-419.142987	-419.142042	-419.181048	29.5	
O	 0.0479375178	 1.4569761741	-0.0225825409	-0.440068
C	-0.0119902383	 0.0469636287	-0.0011490741	 0.084112
C	 0.6591041604	-0.5099938449	 1.2705926978	-0.060232
N	 1.0437036609	 0.5179562848	 2.2500839633	-0.355489
C	-0.1237740138	-0.3525627973	 2.5205127659	-0.014529
C	-1.5025767686	 0.2734917408	 2.3578897201	-0.179082
N	-2.2223236256	-0.3809695253	 1.2458944835	-0.106068
C	-2.6087849664	 0.4511573457	 0.1028381903	-0.245577
C	-1.4542681087	-0.4725270663	-0.0075898628	-0.01446
H	 0.5519690595	 1.7073526037	 0.771172277	 0.294457
H	 0.5024413393	-0.3501694573	-0.8868786595	 0.070369
H	 1.2976923105	-1.3792201376	 1.1497668839	 0.092219
H	 1.8543792518	 0.2264812066	 2.7878202471	 0.240654
H	-0.0069485991	-1.1038592225	 3.2958948668	 0.095394
H	-2.096668371	 0.1337176289	 3.2660696873	 0.10501
H	-1.3830287527	 1.3520327494	 2.2006576296	 0.112632
H	-3.5614517332	 0.200385488	-0.3565792511	 0.107169
H	-2.3702440844	 1.5105430791	 0.1408709176	 0.130444
H	-1.5765582383	-1.4228216484	-0.5257190216	 0.083045
143.0251	237.3051	293.9721	366.4847	391.6238	466.6703	474.0484	544.9751	581.9637	605.4679	728.4331	775.3752	805.1659	829.2961	878.7025	901.2481	933.5323	950.3628	980.4438	993.3536	1019.1722	1048.2733	1095.8	1108.0713	1121.8666	1143.7347	1161.304	1177.9346	1199.0438	1233.1831	1268.579	1299.7457	1311.1984	1340.8596	1366.0641	1384.993	1402.1094	1432.1023	1457.3114	1488.4254	1508.7193	3002.337	3027.9188	3074.3962	3104.4719	3110.8472	3149.5801	3162.1257	3196.6456	3520.4992	3621.9644
OC1C2NC2CN2CC12	O[C@H]1[C@H]2N[C@H]2CN2C[C@@H]12	
InChI=1S/C6H10N2O/c9-6-4-2-8(4)1-3-5(6)7-3/h3-7,9H,1-2H2	InChI=1S/C6H10N2O/c9-6-4-2-8(4)1-3-5(6)7-3/h3-7,9H,1-2H2/t3-,4-,5-,6+,8?/m0/s1
