15
gdb 29029	2.6814	1.70908	1.18298	4.1699	76.7	-0.2524	-0.087	0.1654	1023.748	0.11339	-416.84578	-416.838067	-416.837123	-416.878067	28.334	
C	 0.0548900045	 1.4806137598	 0.4679171442	-0.48226
C	-0.0190989912	 0.0232437641	 0.1339386387	 0.185482
C	-1.1788868201	-0.6724689649	 0.062187377	-0.149965
C	-1.3189786078	-2.0635786575	-0.3090736137	 0.024155
N	-0.480474074	-3.0413480591	-0.1853243722	-0.23692
C	 0.7642505094	-2.8395605084	 0.3761533899	 0.079124
N	 1.5544433298	-1.8338086059	 0.3082049502	-0.229326
C	 1.2528718839	-0.6300316981	-0.3171726759	 0.301749
O	 1.9998065704	-0.0819062899	-1.095593937	-0.322205
H	 0.6527474954	 1.6325007944	 1.3748431503	 0.153189
H	 0.567628931	 2.0129274895	-0.3385988442	 0.17197
H	-0.935123431	 1.9130009871	 0.6275520571	 0.12951
H	-2.1142049583	-0.1361860619	 0.2099220664	 0.112052
H	-2.2970540516	-2.3396367773	-0.7101885879	 0.128039
H	 1.1257319197	-3.7132260319	 0.9206591471	 0.135407
101.0543	151.6128	178.9864	278.5669	295.4096	322.7508	345.0509	479.2399	563.2876	613.4898	664.9207	760.8886	796.3682	870.8333	882.7709	941.483	978.1637	1027.594	1032.9967	1059.7518	1097.3994	1147.3939	1241.0417	1376.3723	1398.8653	1431.017	1439.3769	1466.6596	1481.6597	1566.7528	1669.6979	1678.0737	1785.1019	3035.794	3098.4246	3102.012	3125.803	3135.5219	3150.4803
CC1=CC=NC=NC1=O	Cc1ccncnc1=O	
InChI=1S/C6H6N2O/c1-5-2-3-7-4-8-6(5)9/h2-4H,1H3	InChI=1S/C6H6N2O/c1-5-2-3-7-4-8-6(5)9/h2-4H,1H3
