18
gdb 116706	2.57806	1.07954	0.81221	2.5412	82.21	-0.2268	0.0133	0.2401	1420.5644	0.14455	-401.887061	-401.877159	-401.876215	-401.922874	34.9	
C	 0.4130854853	 0.9358664282	-0.3761302419	-0.25135
O	-0.2063689523	-0.1042796585	 0.3735507869	-0.190193
C	 0.6335545522	-0.9225476741	 1.0281080417	 0.147507
N	 0.1792382957	-1.9070033921	 1.6743679903	-0.242476
C	 1.1131538473	-2.7170779488	 2.3906650413	 0.023563
C	 1.177297124	-4.1847435918	 2.128400922	-0.291464
C	 2.3904668416	-3.3222684402	 1.7764319173	-0.224256
C	 2.7477836231	-3.1189976953	 0.4056933084	 0.327461
C	 3.0687257209	-2.9481313528	-0.7424228523	-0.467123
H	 1.0744403687	 0.5295952083	-1.1501238996	 0.134109
H	-0.3944418493	 1.4949676786	-0.8498162182	 0.146591
H	 0.9851420838	 1.6106450617	 0.2720397585	 0.127829
H	 1.6948718164	-0.6584174908	 0.9428920734	 0.097657
H	 1.2252800109	-2.4209215252	 3.4317659466	 0.105395
H	 1.2703584022	-4.8735031766	 2.960550146	 0.116503
H	 0.5970301255	-4.548003626	 1.2881128692	 0.136348
H	 3.2367886138	-3.3948520399	 2.4541195718	 0.110708
H	 3.3471484504	-2.8190459448	-1.7585833915	 0.193192
47.697	78.062	86.4566	151.5526	165.2107	203.8186	241.7499	323.8874	400.5413	446.6437	517.3328	553.2698	572.4188	638.3305	687.276	760.7896	785.6949	862.615	975.554	989.9193	1023.9476	1061.0464	1071.7122	1118.0929	1121.865	1153.8168	1176.814	1178.6147	1228.3556	1282.3924	1365.9347	1381.4715	1418.4003	1477.6975	1485.3896	1494.1405	1500.7296	1757.7948	2227.5568	3016.6349	3047.9858	3083.2977	3120.8809	3138.1765	3141.8744	3147.0345	3234.7461	3504.6851
COC=NC1CC1C#C	COC=N[C@H]1C[C@H]1C#C	
InChI=1S/C7H9NO/c1-3-6-4-7(6)8-5-9-2/h1,5-7H,4H2,2H3	InChI=1S/C7H9NO/c1-3-6-4-7(6)8-5-9-2/h1,5-7H,4H2,2H3/t6-,7+/m1/s1
