17
gdb 94515	2.69499	1.27097	1.07001	3.9937	75.15	-0.2502	-0.0638	0.1864	1173.2711	0.133215	-421.779317	-421.770016	-421.769072	-421.814591	32.815	
C	-0.3613012432	 1.4924835518	 0.0073889734	-0.426909
C	 0.0052482203	 0.0173274819	-0.051901343	-0.037614
C	 1.3495288079	-0.3689684801	-0.7100511153	-0.078321
O	 1.7750934382	-1.0915438897	 0.4647728733	-0.265518
C	 0.6238553907	-0.6897744887	 1.2036849424	 0.011371
C	 0.9555426975	 0.2299402457	 2.3739792018	 0.219644
O	 2.0259816029	 0.775060679	 2.5114538293	-0.275887
C	-0.1461633847	 0.4274278347	 3.3051050608	 0.264445
C	-1.0754372186	 0.5706505608	 4.057436132	-0.431138
H	 0.4635774291	 2.0941374729	 0.4015769187	 0.14131
H	-0.5957907374	 1.8623368316	-0.9963722566	 0.122242
H	-1.2388710101	 1.6631933143	 0.6385147086	 0.129657
H	-0.8303388546	-0.5657690095	-0.4457986365	 0.092853
H	 1.2953632876	-1.0178932331	-1.5911369876	 0.106865
H	 2.0118966432	 0.4793297722	-0.9232706002	 0.11216
H	 0.0481235758	-1.5454368401	 1.5810740042	 0.096934
H	-1.8834806647	 0.7097715063	 4.7343413345	 0.217906
41.8513	48.3525	124.849	155.2292	232.4383	254.1034	274.7628	340.2645	412.8303	470.4893	595.5749	653.9763	703.995	717.2437	719.9588	840.7385	891.8071	916.3591	928.1547	1001.9713	1040.3648	1076.5252	1119.6859	1142.9695	1153.8441	1174.1101	1234.2397	1273.1682	1341.8005	1355.8262	1386.516	1415.1594	1494.6706	1500.5076	1524.5261	1777.0032	2206.9743	3015.1833	3021.8301	3036.3065	3064.5155	3082.5501	3103.7303	3114.6818	3493.0321
CC1COC1C(=O)C#C	C[C@H]1CO[C@H]1C(=O)C#C	
InChI=1S/C7H8O2/c1-3-6(8)7-5(2)4-9-7/h1,5,7H,4H2,2H3	InChI=1S/C7H8O2/c1-3-6(8)7-5(2)4-9-7/h1,5,7H,4H2,2H3/t5-,7+/m0/s1
