14
gdb 9820	3.29496	1.86999	1.35336	0.566	60.06	-0.25	-0.103	0.147	885.7809	0.10446	-419.675906	-419.66807	-419.667126	-419.708355	28.412	
O	-0.0131691429	 1.4144872517	 0.0944201255	-0.467191
C	-0.0447655538	 0.0277616468	 0.0004273695	 0.295133
C	-0.3224978478	-0.7939712934	 1.272175908	-0.298022
C	-1.3881485971	-0.6127307191	 0.2386160223	-0.286165
C	 0.859400328	-0.6306745818	-0.9792197178	 0.22763
O	 0.7654485639	-1.7878943421	-1.3348212475	-0.300683
C	 2.0783590926	 0.1454701296	-1.5006046111	 0.096491
O	 2.5201807588	 1.1464560681	-0.9922786594	-0.24231
H	 0.9141538453	 1.6848778747	 0.1455268036	 0.299122
H	 0.1579217484	-1.7619454531	 1.3554746244	 0.135752
H	-0.382673469	-0.2042680238	 2.1793012716	 0.133992
H	-2.1889817053	 0.0861085394	 0.4491056543	 0.138218
H	-1.6385486205	-1.4586083969	-0.3906443725	 0.142436
H	 2.5690411794	-0.3643059101	-2.3540931008	 0.125597
60.4497	124.8717	223.9383	229.9619	285.1933	365.2388	407.9777	469.6216	500.2687	589.4314	633.8476	688.5149	779.4483	813.3351	879.3244	947.5082	1001.0068	1018.7718	1050.8929	1089.7942	1141.8724	1205.1418	1268.8311	1329.2835	1372.0173	1418.0024	1438.0314	1475.2676	1771.7866	1806.1101	2946.4416	3142.1542	3146.7356	3236.9242	3250.9977	3743.7334
OC1(CC1)C(=O)C=O	OC1(CC1)C(=O)C=O	
InChI=1S/C5H6O3/c6-3-4(7)5(8)1-2-5/h3,8H,1-2H2	InChI=1S/C5H6O3/c6-3-4(7)5(8)1-2-5/h3,8H,1-2H2
