17
gdb 44088	3.79119	1.42941	1.18765	3.6023	72.35	-0.2055	-0.0271	0.1785	1028.0029	0.137001	-417.944081	-417.936832	-417.935888	-417.975755	28.785	
O	 0.095217691	 0.0338216348	-0.0318388571	-0.290782
C	 0.0342002032	 1.2264074588	-0.0006596361	 0.435618
C	-1.1440366887	 2.2348354791	 0.0727410506	-0.460462
C	-0.1105736643	 3.354994174	 0.2314465446	 0.382635
N	-0.1777977523	 4.7434342095	-0.1710878947	-0.392006
C	 0.8506248125	 5.1104831346	 0.847316984	-0.183966
C	 0.6414671122	 3.7250126042	 1.5408377826	-0.049244
N	 1.6369830115	 2.6572941492	 1.3331934627	-0.322726
C	 1.0944207265	 2.3662619358	-0.0190114188	-0.204867
H	-1.6638552035	 2.2787196287	-0.8934828156	 0.134386
H	-1.8889531742	 2.0846618401	 0.8581273679	 0.133758
H	 0.0487013941	 4.950500255	-1.1394849282	 0.217063
H	 1.8700641232	 5.2330336487	 0.458252505	 0.092545
H	 0.5823020996	 5.9983786731	 1.4284997818	 0.110858
H	 0.1814175464	 3.7513429687	 2.5306815872	 0.088467
H	 2.6106406741	 2.9395151823	 1.3594970456	 0.223904
H	 1.7787797388	 2.3987506334	-0.8717654815	 0.084818
88.141	177.3342	256.5013	314.166	374.4807	442.5929	462.4515	536.8623	625.9682	659.6506	707.9539	771.3248	816.4382	856.4163	894.7161	912.1031	928.8651	986.0761	1000.3289	1015.365	1056.38	1094.1929	1102.7385	1111.9093	1150.9842	1171.5856	1192.669	1226.8239	1258.6437	1289.3754	1312.89	1332.6377	1375.4065	1383.5445	1431.7045	1503.8615	1896.6283	3008.6102	3034.9366	3068.5614	3071.4746	3092.7528	3106.165	3503.8267	3530.2902
O=C1CC23NCC2NC13	O=C1C[C@@]23NC[C@@H]2N[C@@H]13	
InChI=1S/C6H8N2O/c9-3-1-6-4(2-7-6)8-5(3)6/h4-5,7-8H,1-2H2	InChI=1S/C6H8N2O/c9-3-1-6-4(2-7-6)8-5(3)6/h4-5,7-8H,1-2H2/t4-,5-,6+/m0/s1
