13
gdb 125389	2.04052	1.98475	1.01245	4.5323	73.42	-0.217	-0.0804	0.1366	1076.2617	0.088493	-452.769347	-452.761497	-452.760553	-452.802005	28.103	
C	-0.0096509604	 1.383458565	 0.1908179143	-0.51116
C	-0.0065421241	-0.0991969628	 0.0240244312	 0.132282
C	-0.0393235742	-0.8256593613	-1.1062430385	-0.056654
O	-0.0253705777	-2.1891261082	-0.8985661667	-0.208645
C	 0.0214572308	-2.439503427	 0.4665653155	 0.407462
C	 0.0339991445	-1.101984712	 1.0777934976	 0.118119
N	 0.075775454	-0.9247938368	 2.3656012235	 0.106776
N	 0.1091948996	-0.7960484598	 3.4908998275	-0.210075
O	 0.0435326152	-3.5408444897	 0.9357784228	-0.353355
H	 0.8885686823	 1.7329055535	 0.7131159226	 0.140706
H	-0.0444320447	 1.8769588142	-0.7834990182	 0.142321
H	-0.8756268659	 1.7228699582	 0.7709981493	 0.140736
H	-0.0750771894	-0.5176529033	-2.139244771	 0.151486
113.8615	131.6876	163.9303	202.0646	266.2598	331.0822	447.2707	519.1996	525.9467	559.0441	610.3901	682.4067	740.0027	768.4408	779.5975	993.6635	1008.9514	1066.3616	1079.6707	1143.7321	1299.5345	1308.5353	1423.2346	1445.4025	1478.2769	1496.626	1677.8379	1867.0322	2218.3567	3028.2856	3078.4295	3121.0914	3267.7156
CC1=COC2=C1N=NO2	CC1=C(C(=O)O[CH]1)[N][N]	
InChI=1S/C5H4N2O2/c1-3-2-8-5-4(3)6-7-9-5/h2H,1H3	InChI=1S/C5H4N2O2/c1-3-2-9-5(8)4(3)7-6/h2H,1H3
