15
gdb 18468	4.18458	1.46484	1.3877	2.1686	62.47	-0.2667	0.0123	0.2791	923.7429	0.118902	-399.756888	-399.749623	-399.748679	-399.788881	26.99	
O	 0.1353195077	 1.2554159491	-0.3307892699	-0.413906
C	 0.0456556976	-0.0388885969	 0.2420488894	-0.097836
C	-1.3549655154	-0.6040183257	 0.130681328	-0.064033
C	-1.8912082977	-1.2658611046	-1.0907910728	 0.061562
O	-0.8356043365	-1.9807860595	-1.7867799373	-0.276068
C	-0.6972935448	-2.8372855292	-0.6867199206	 0.448115
N	-0.0124614607	-3.8764093948	-0.5547028752	-0.55127
C	-1.6911401878	-2.1035141673	 0.1545305345	-0.229452
H	 0.0168557065	 1.1583419893	-1.2814944137	 0.288539
H	 0.7732257358	-0.7302792477	-0.200616992	 0.113572
H	 0.3065904615	 0.07931792	 1.2982252465	 0.120517
H	-2.1094551029	-0.0194442392	 0.6540923938	 0.113111
H	-2.7768630765	-1.0175494837	-1.6592904323	 0.126954
H	 0.521617265	-4.0804531288	-1.4009928058	 0.233072
H	-2.3903468318	-2.5447286008	 0.8489768072	 0.127123
65.1069	117.543	219.8389	289.8165	339.6773	416.9776	453.1275	594.7217	685.0215	731.7837	782.6125	830.1271	864.1073	892.0788	920.8645	954.6576	984.2495	1022.9633	1040.9136	1054.4037	1070.8151	1087.7753	1159.6625	1194.7022	1239.4761	1283.5678	1321.3334	1382.1621	1413.9617	1441.881	1497.5294	1832.3231	3032.1742	3086.9718	3140.6626	3215.4413	3235.608	3481.4	3813.9272
OCC1C2OC(=N)C12	OC[C@H]1[C@H]2O[C]([NH])[C@@H]12	
InChI=1S/C5H7NO2/c6-5-3-2(1-7)4(3)8-5/h2-4,6-7H,1H2	InChI=1S/C5H7NO2/c6-5-3-2(1-7)4(3)8-5/h2-4,6-7H,1H2/t2-,3+,4-/m1/s1
