14
gdb 128824	6.77572	0.81484	0.7341	5.17	60.91	-0.2856	-0.0172	0.2683	1461.1272	0.099121	-510.957254	-510.948947	-510.948003	-510.991524	28.173	
C	 0.0333544986	 1.4247462195	 0.1075586189	-0.231282
O	-0.0034525375	 0.0156152975	 0.0038282028	-0.215643
C	 0.6398226626	-0.6173511585	 1.0646662488	-0.163896
C	 0.5569701566	-2.0961027922	 0.8798883495	 0.424808
N	-0.0004791267	-2.7393019799	-0.0760133357	-0.160318
O	 0.2231955648	-4.1053037468	 0.2575317432	-0.226097
C	 0.9160375099	-4.1796087526	 1.4185162855	 0.51407
O	 1.2748156712	-5.1520220334	 1.9909358996	-0.354733
O	 1.1357978134	-2.870404585	 1.8278128773	-0.230674
H	 1.0665721406	 1.8032262178	 0.1076147969	 0.116551
H	-0.4921962884	 1.8198718529	-0.7630921217	 0.146786
H	-0.4682738372	 1.7760465231	 1.0217486194	 0.116551
H	 1.7067984118	-0.339807106	 1.1361177698	 0.131934
H	 0.1870410802	-0.3677245565	 2.0410158557	 0.131942
51.9469	66.9722	129.2737	181.6945	225.7235	316.0572	343.306	353.4638	557.0755	636.7797	729.1512	772.5966	787.5893	881.9022	960.7328	983.2346	1022.1001	1042.9943	1146.2156	1177.8972	1183.5235	1235.9247	1249.0871	1312.7307	1455.8746	1481.9485	1487.139	1494.0882	1517.7953	1697.5707	1954.4528	2949.1549	2968.9577	2983.3874	3033.5819	3137.0391
COCC1=NOC(=O)O1	COCc1noc(=O)o1	
InChI=1S/C4H5NO4/c1-7-2-3-5-9-4(6)8-3/h2H2,1H3	InChI=1S/C4H5NO4/c1-7-2-3-5-9-4(6)8-3/h2H2,1H3
