15
gdb 128616	3.0106	1.42703	0.97408	4.3006	72.82	-0.2274	-0.0381	0.1893	1146.1926	0.114596	-450.138026	-450.130019	-450.129075	-450.171012	28.907	
C	 0.0677250346	 1.3685030661	 0.0072549693	-0.235998
O	-0.0379775069	-0.0624670506	 0.0036850271	-0.260962
C	-1.2750205457	-0.5629279786	 0.010891347	 0.553696
N	-2.3361863761	 0.164117455	 0.0205637857	-0.444214
C	-3.5681493678	-0.508597505	 0.026809135	 0.312561
N	-4.7131977975	 0.0624072097	 0.0365040029	-0.533248
C	-3.5045509718	-1.9786183352	 0.0230927478	 0.018932
N	-2.4144443877	-2.6612124932	 0.0131448713	-0.176665
N	-1.2677309523	-1.9250389931	 0.0061048423	-0.31384
H	 1.1374746234	 1.5761981904	-0.0000359568	 0.139298
H	-0.4148323041	 1.7907746188	-0.8768472026	 0.149983
H	-0.4016412985	 1.7853548596	 0.900983347	 0.149967
H	-4.580886199	 1.0762697472	 0.0383417541	 0.213893
H	-4.4344708899	-2.5360928828	 0.0289379695	 0.145004
H	-0.4044569006	-2.4424086482	-0.0004838596	 0.281592
85.0264	139.0587	141.2633	213.0587	222.7133	385.7976	424.2931	486.2211	515.2519	541.2669	624.6934	718.2872	745.7354	770.155	904.8804	955.1253	969.3112	1011.8652	1044.245	1120.1183	1167.6352	1182.1039	1232.4693	1309.3645	1339.5296	1389.7913	1465.3054	1478.8016	1494.8205	1514.9345	1645.511	1675.0552	1704.3508	3058.327	3137.8922	3165.0736	3206.2521	3456.2352	3660.1963
COC1=NC(=N)C=NN1	CO[C@H]1N=C([NH])C=NN1	
InChI=1S/C4H6N4O/c1-9-4-7-3(5)2-6-8-4/h2H,1H3,(H2,5,7,8)	InChI=1S/C4H7N4O/c1-9-4-7-3(5)2-6-8-4/h2,4-5,8H,1H3/t4-/m0/s1
