17
gdb 57153	3.88124	0.69304	0.63465	2.7142	80.93	-0.2707	-0.0658	0.2049	1733.1955	0.133404	-421.779368	-421.76964	-421.768696	-421.815569	33.634	
O	-0.3242862707	 1.3618156094	 0.0340209259	-0.412392
C	-0.1230242021	-0.0459278918	 0.0304493689	-0.076391
C	 0.613038037	-0.4900201943	-1.1564095689	 0.093461
C	 1.2442352394	-0.8586509926	-2.1191927403	 0.023687
C	 1.9938252504	-1.2647278591	-3.2800224917	 0.020807
O	 2.1669501056	-2.4137197881	-3.6154967885	-0.226816
C	 0.5554157716	-0.5590324788	 1.3027316931	 0.016027
C	 1.6158760151	 0.2523174146	 1.9972868546	-0.265772
C	 0.2508627591	 0.0916425215	 2.6231112425	-0.274954
H	 0.5110453728	 1.7806235413	-0.1997732379	 0.291797
H	-1.1333462936	-0.4734855985	-0.0155055284	 0.133984
H	 2.4147219337	-0.420644725	-3.8635808726	 0.100985
H	 0.6909471819	-1.6362505091	 1.2992130384	 0.105051
H	 2.458938523	-0.2748701413	 2.4284099619	 0.119704
H	 1.8621457169	 1.2316323296	 1.6006843074	 0.103307
H	-0.3983478981	 0.959166031	 2.6059275959	 0.131346
H	 0.1469615481	-0.5445431487	 3.4946016998	 0.11617
44.4419	58.6981	76.4672	131.484	209.6297	230.7562	257.3231	298.0429	338.9171	424.4669	545.3894	593.0522	655.5887	762.334	786.4372	834.7662	851.3102	945.9279	977.9973	1020.3929	1031.7849	1061.3104	1088.8729	1117.5358	1139.4058	1155.51	1197.5956	1228.9022	1266.0093	1302.6594	1385.261	1416.3578	1422.4285	1458.494	1501.8571	1768.3811	2318.3426	2918.5506	3027.4767	3137.3107	3142.5809	3159.0016	3217.3188	3235.3619	3815.7384
OC(C#CC=O)C1CC1	O[C@@H](C#CC=O)C1CC1	
InChI=1S/C7H8O2/c8-5-1-2-7(9)6-3-4-6/h5-7,9H,3-4H2	InChI=1S/C7H8O2/c8-5-1-2-7(9)6-3-4-6/h5-7,9H,3-4H2/t7-/m0/s1
