17
gdb 74513	3.0749	1.26681	1.00156	3.2365	75.92	-0.2486	-0.0374	0.2112	1195.6984	0.134355	-421.833394	-421.825159	-421.824215	-421.86625	30.859	
C	 0.1009790145	 1.5306160196	 0.1151799512	-0.485766
C	-0.0073828345	 0.0441884175	 0.0074858414	 0.307522
C	-0.1494475011	-0.6831727752	-1.1072263414	-0.255372
C	-0.1223720731	-2.137926555	-0.7994066792	 0.307618
O	 1.1143758	-2.5953082245	-0.1744342049	-0.288611
C	 0.0355479917	-2.2616619853	 0.6775629024	-0.027649
C	 0.0675346499	-0.8460282323	 1.2401161314	-0.338444
C	-0.8060252275	-3.1719341548	-1.6144621209	 0.083416
O	-1.5476996373	-2.9224943529	-2.5318025785	-0.256114
H	 1.0759202286	 1.8262996878	 0.5228123979	 0.134392
H	-0.0198216107	 2.0129003266	-0.8579789026	 0.133273
H	-0.6578699992	 1.9340987952	 0.7972477358	 0.129264
H	-0.2480749998	-0.302092267	-2.1148718443	 0.114924
H	-0.3807393922	-3.0846705382	 1.2539551714	 0.106662
H	 0.9799455015	-0.6711002285	 1.8235135343	 0.130746
H	-0.7801001359	-0.6719880776	 1.9155526264	 0.119389
H	-0.5661140049	-4.2122932353	-1.3043832604	 0.08475
107.442	134.2044	171.0927	203.7223	253.0863	328.701	396.5495	440.4303	461.421	531.5518	612.6175	672.9385	779.1762	809.2033	856.3574	872.3604	916.9388	961.4752	988.6487	1010.1763	1033.759	1053.1171	1090.6009	1163.6372	1191.3275	1246.9702	1278.7472	1325.6276	1347.0432	1387.0689	1413.8844	1428.2842	1456.745	1478.437	1485.4073	1699.1146	1817.7684	2902.6822	3020.357	3027.9326	3063.1549	3068.2845	3118.602	3142.597	3225.8451
CC1=CC2(OC2C1)C=O	CC1=C[C@]2(O[C@H]2C1)C=O	
InChI=1S/C7H8O2/c1-5-2-6-7(3-5,4-8)9-6/h3-4,6H,2H2,1H3	InChI=1S/C7H8O2/c1-5-2-6-7(3-5,4-8)9-6/h3-4,6H,2H2,1H3/t6-,7-/m0/s1
