15
gdb 128682	6.83297	0.87511	0.77957	1.6842	73.54	-0.2333	-0.0651	0.1682	1386.2779	0.113237	-453.971704	-453.963487	-453.962543	-454.004899	29.179	
C	 0.0261582227	 1.4169900275	-0.0638875154	-0.236172
O	 0.0092257702	-0.0079466183	-0.0117077305	-0.267961
C	 0.5944686961	-0.6410863349	-1.0372587721	 0.493467
N	 1.1670929953	-0.0002787059	-2.0596744477	-0.299688
N	 1.6233540104	-0.9840833135	-2.8516055645	-0.269397
C	 1.3593766832	-2.2236131977	-2.366267758	 0.333051
C	 1.7777668861	-3.4188850583	-3.0883346598	 0.088268
O	 2.3748658131	-3.3816485117	-4.1437795091	-0.291877
C	 0.680992315	-2.0421572915	-1.1691902137	-0.460394
H	 1.0529038336	 1.7968598752	-0.0792285203	 0.135772
H	-0.4946088108	 1.7831879607	-0.9546426701	 0.135777
H	-0.4868537947	 1.7534709709	 0.8377323959	 0.131842
H	 2.1068377	-0.7762742903	-3.709919095	 0.289133
H	 1.5100664147	-4.3778762751	-2.5997972839	 0.090837
H	 0.3077893351	-2.796834997	-0.4977294159	 0.127342
78.3453	132.5701	151.1125	185.0037	265.0808	270.9817	367.7641	395.337	528.3677	583.9354	679.1752	699.3305	709.9168	791.3192	808.1898	984.7064	1030.2396	1045.3948	1062.6839	1177.0961	1180.5372	1202.2806	1234.7105	1305.5025	1387.7702	1430.2114	1457.5613	1480.3702	1485.6966	1501.4712	1549.4577	1604.382	1778.1754	2927.7451	3033.3889	3100.3386	3147.9175	3280.6382	3670.5248
COC1=NNC(C=O)=C1	COc1n[nH]c(C=O)c1	
InChI=1S/C5H6N2O2/c1-9-5-2-4(3-8)6-7-5/h2-3H,1H3,(H,6,7)	InChI=1S/C5H6N2O2/c1-9-5-2-4(3-8)6-7-5/h2-3H,1H3,(H,6,7)
