16
gdb 79552	2.6098	1.71424	1.23633	4.1901	73.13	-0.2508	0.0031	0.2539	1004.629	0.125081	-396.853176	-396.845565	-396.844621	-396.885226	29.05	
C	-0.1712287722	 1.4744681368	-0.100291144	-0.325479
N	 0.1026273839	 0.0489334745	 0.0410730702	-0.069439
C	 1.4125173489	-0.5274235794	-0.1609547778	-0.078763
C	 2.5589348848	 0.3079040656	 0.3972738735	-0.117142
N	 3.2010442358	-0.3317782244	 1.5397973038	-0.344756
C	 1.8956935406	 0.3089063544	 1.7600341148	 0.177661
C	 1.7940685757	 1.3595366562	 2.7274688494	 0.248565
N	 1.6634284166	 2.2045232736	 3.5063233748	-0.34796
C	 0.7397300572	-0.5258909051	 1.2014667552	-0.149883
H	 0.6159237839	 2.1349148576	 0.2848094189	 0.127058
H	-0.3207074476	 1.6914410947	-1.1618780421	 0.131953
H	-1.1004585235	 1.702117713	 0.4291235172	 0.139652
H	 1.5220699161	-1.349455763	-0.8601237137	 0.115538
H	 3.0845223418	 1.1265037162	-0.0781114709	 0.131758
H	 3.1047197765	-1.3460050344	 1.5174796288	 0.244383
H	 0.2462721816	-1.3322167763	 1.7329359719	 0.116854
113.4139	156.4776	192.0136	233.6054	285.9966	410.0326	466.4892	533.2156	566.7092	588.0582	660.5993	753.1189	814.378	829.3749	899.9487	912.3439	962.0236	965.2232	1028.0006	1046.7175	1078.7175	1110.2343	1123.9532	1157.5732	1180.4482	1228.2009	1243.3521	1271.5146	1292.7729	1356.0927	1386.9319	1453.9783	1492.1519	1500.0431	2357.1207	3019.6617	3091.5195	3119.3985	3171.3649	3181.9757	3203.295	3466.3512
CN1C2C3NC3(C#N)C12	CN1[C@H]2[C@@H]3N[C@]3(C#N)[C@@H]12	
InChI=1S/C6H7N3/c1-9-3-4-6(2-7,8-4)5(3)9/h3-5,8H,1H3	InChI=1S/C6H7N3/c1-9-3-4-6(2-7,8-4)5(3)9/h3-5,8H,1H3/t3-,4-,5-,6-,9?/m0/s1
