17
gdb 10272	2.69895	1.83302	1.12141	2.9616	75.91	-0.2294	-0.0371	0.1924	1062.1225	0.140344	-360.050304	-360.040631	-360.039687	-360.08485	32.549	
C	 0.063221145	 1.4467388273	-0.0956731001	-0.340908
N	 0.1247134998	 0.0025968921	-0.0773125846	-0.3108
C	 0.5670952232	-0.6371909355	 0.9356537284	 0.33118
C	 1.1089255621	 0.0343586925	 2.1146436437	 0.234447
N	 1.5293291975	 0.6324837793	 3.0110623626	-0.351974
N	 0.523373687	-2.0106227956	 1.0126252241	-0.109357
C	 0.0010642669	-2.7250220017	-0.1394023586	-0.326459
C	 1.4008473888	-2.7596603257	 1.8952240237	-0.353193
H	 0.5842797311	 1.8137909137	-0.987421258	 0.131633
H	-0.9824021815	 1.7643878892	-0.190753135	 0.131414
H	 0.4933267277	 1.9397612114	 0.7866430534	 0.130247
H	 0.7402632875	-2.8000484856	-0.9499273278	 0.125925
H	-0.2825358377	-3.733432811	 0.1733121722	 0.122091
H	-0.8692238578	-2.1979180229	-0.5301774216	 0.158157
H	 1.6664084329	-2.1608853177	 2.7673284568	 0.166661
H	 0.8848442682	-3.660245893	 2.2424402822	 0.134624
H	 2.3289185793	-3.0687857166	 1.3915333187	 0.126312
77.648	117.0961	123.7827	142.7867	163.6455	193.4567	223.6117	255.9963	359.1097	385.5552	421.5172	508.2339	607.3085	709.594	721.0089	946.4316	1070.3651	1085.572	1125.4955	1134.3033	1150.6369	1173.7148	1195.3514	1298.8265	1413.6125	1444.361	1446.7379	1471.2918	1482.665	1484.0158	1489.6353	1501.6276	1506.3191	1532.1077	1697.0735	2338.6892	2994.1753	3001.036	3006.8728	3065.8192	3073.8771	3076.1487	3090.2133	3143.3238	3153.1136
CN=C(C#N)N(C)C	CN=C(C#N)N(C)C	
InChI=1S/C5H9N3/c1-7-5(4-6)8(2)3/h1-3H3	InChI=1S/C5H9N3/c1-7-5(4-6)8(2)3/h1-3H3
