25
gdb 59545	2.41819	1.28881	1.01232	0.2517	92.6	-0.2396	0.0824	0.322	1338.1816	0.228048	-352.343181	-352.333148	-352.332204	-352.377596	38.919	
C	 0.0276241997	 1.5286855332	-0.0916329184	-0.389106
C	 0.0657010323	 0.0038755401	 0.0858290176	 0.020759
C	 0.7392483415	-0.3774053549	 1.4112477399	-0.392322
C	-1.3434425896	-0.5879488769	-0.0202136797	-0.012101
C	-2.0937979737	-0.5254287644	-1.3966886432	-0.263589
C	-2.3080919524	-2.0399667384	-1.3288302088	-0.09472
C	-0.9800390108	-2.742090303	-1.2492042806	-0.330189
C	-1.5491702113	-2.12105978	 0.0002563664	 0.352076
C	-1.8736217901	-2.9236729582	 1.2296465908	-0.499008
H	 1.0361300392	 1.9549656157	-0.0670046861	 0.107049
H	-0.4324649579	 1.812831144	-1.0435430996	 0.113742
H	-0.5513038322	 2.0010562225	 0.7114548968	 0.108683
H	 0.6725325553	-0.4115822985	-0.7309211814	 0.067034
H	 0.1587005683	-0.0106472891	 2.2666805726	 0.108158
H	 0.8371802895	-1.4622554735	 1.5136957684	 0.117649
H	 1.7424940168	 0.0562866295	 1.4832051553	 0.106827
H	-1.9710917583	-0.1328253619	 0.7570943463	 0.0606
H	-3.0169229523	 0.0564477448	-1.350497078	 0.098289
H	-1.5053431026	-0.172110282	-2.2517491376	 0.089693
H	-3.2113522525	-2.5626201898	-1.6221157887	 0.078969
H	-1.0243572693	-3.8267962203	-1.2774505494	 0.104515
H	-0.1081891531	-2.3271638377	-1.750326997	 0.101658
H	-0.9980406107	-3.0560552018	 1.8763431998	 0.119094
H	-2.6528028465	-2.4360731682	 1.82773493	 0.112489
H	-2.2364521293	-3.922210471	 0.9624425146	 0.113751
65.7607	137.7992	154.7353	205.9909	225.2876	249.9341	272.49	286.8848	328.1364	392.1399	401.478	448.7331	499.5449	634.4874	716.3616	784.132	817.6894	872.8487	891.3074	926.6677	936.171	956.3698	968.5703	985.9582	1000.5797	1021.2069	1045.1117	1061.6242	1089.9036	1100.5292	1141.3053	1165.648	1181.5843	1202.426	1240.9835	1248.9307	1265.9114	1297.4149	1313.2423	1347.5246	1379.5274	1396.7619	1404.9242	1417.2028	1425.253	1482.6301	1484.2658	1488.2623	1492.4403	1498.823	1503.1172	1506.7448	1509.9823	3000.7642	3016.8798	3019.6118	3021.5695	3027.7382	3031.9276	3074.9511	3084.6928	3089.1217	3091.0213	3098.897	3100.5391	3103.1339	3104.6625	3172.136	3190.4782
CC(C)C1CC2CC12C	CC(C)[C@H]1C[C@H]2C[C@@]12C	
InChI=1S/C9H16/c1-6(2)8-4-7-5-9(7,8)3/h6-8H,4-5H2,1-3H3	InChI=1S/C9H16/c1-6(2)8-4-7-5-9(7,8)3/h6-8H,4-5H2,1-3H3/t7-,8+,9+/m0/s1
