17
gdb 30932	3.03355	1.2153	0.89529	2.586	74.11	-0.1892	0.0229	0.2121	1263.8838	0.135637	-455.170651	-455.161498	-455.160554	-455.204711	33.315	
C	-0.0525368839	 1.4387481913	-0.3065030984	-0.512871
C	-0.0924445632	-0.0376283423	-0.1210590072	 0.221559
C	-1.1206411317	-0.8926783511	 0.011653748	 0.191163
C	-2.6066821457	-0.7366739836	 0.0143459653	-0.170959
O	-3.0536157596	 0.3144645884	-0.8302498948	-0.401376
O	-0.6294604878	-2.1864853003	 0.1907256972	-0.2502
C	 0.7496389379	-2.1390654997	 0.1606613004	 0.451985
N	 1.5611936809	-3.1066453194	 0.2678356272	-0.609222
N	 1.0682362068	-0.8103532445	-0.014938452	-0.379317
H	 0.5188689455	 1.7139071453	-1.2015953013	 0.130776
H	-1.0679715924	 1.8215562011	-0.4124059155	 0.163582
H	 0.4237218714	 1.9333848924	 0.5485693804	 0.138124
H	-3.0504508414	-1.7064838186	-0.257144201	 0.117673
H	-2.9855987444	-0.4833538216	 1.0117094726	 0.131829
H	-2.7286244513	 0.1248315791	-1.7174547863	 0.283785
H	 1.0609362972	-3.9835164687	 0.3842158593	 0.222773
H	 2.0129658817	-0.5013316578	-0.1574999839	 0.270696
62.9596	126.8941	163.3912	203.0465	218.1646	261.9144	292.0988	337.0561	395.2051	404.9005	519.1328	612.185	624.7597	711.5864	720.0199	746.618	805.9594	950.9922	969.3478	1004.8325	1061.1593	1066.0319	1073.0846	1118.2898	1204.2627	1254.8651	1261.7181	1342.2133	1381.1658	1411.3202	1428.3987	1437.2975	1490.7197	1495.893	1503.8634	1748.4488	1793.5383	2995.6111	3023.7499	3049.5468	3070.2164	3151.5387	3542.9548	3698.4786	3802.4906
CC1=C(CO)OC(=N)N1	CC1=C(CO)O[C@@H]([NH])N1	
InChI=1S/C5H8N2O2/c1-3-4(2-8)9-5(6)7-3/h8H,2H2,1H3,(H2,6,7)	InChI=1S/C5H9N2O2/c1-3-4(2-8)9-5(6)7-3/h5-8H,2H2,1H3/t5-/m0/s1
