20
gdb 36528	3.78683	0.92754	0.78858	3.2305	79.34	-0.2589	0.0317	0.2906	1427.4447	0.173071	-403.179622	-403.171168	-403.170223	-403.213065	32.037	
N	-0.1030789216	-1.1785143301	-0.0468425845	-0.313054
C	-0.0851745334	-0.0232557848	-0.0178812604	 0.265366
C	-0.0318902323	 1.4370481509	 0.0222936409	-0.361744
C	 1.4092601997	 1.9885978069	-0.0243349028	 0.023334
C	 2.1441150371	 1.6106955417	-1.3206980948	-0.209575
C	 3.5217551083	 2.2754427005	-1.3626676513	-0.083117
O	 3.4314569475	 3.6834989634	-1.2271721915	-0.239389
C	 2.8405935392	 4.0616182139	 0.0016652532	-0.083722
C	 1.4150885589	 3.5167112871	 0.139905896	-0.217913
H	-0.6114587666	 1.8304312139	-0.8218557982	 0.150291
H	-0.5349985146	 1.7758836031	 0.9356313478	 0.148393
H	 1.9591624409	 1.5510523171	 0.8205657806	 0.09254
H	 2.2502117626	 0.5236385487	-1.4046377846	 0.121016
H	 1.5600917001	 1.9521383157	-2.1854676138	 0.10452
H	 4.1618967017	 1.8593956289	-0.5649973674	 0.088792
H	 4.0171496706	 2.0906096498	-2.3197393591	 0.112427
H	 3.4577495767	 3.7046344153	 0.8451139858	 0.087058
H	 2.845370216	 5.155082151	 0.022948208	 0.111
H	 0.7846890149	 3.9731456433	-0.6343287547	 0.106178
H	 1.0006536344	 3.806956524	 1.1131313007	 0.097598
72.2842	105.5304	170.3106	238.8846	292.2037	351.6957	374.5589	398.3332	441.8778	478.2763	546.9484	617.3892	800.9021	824.2869	864.1041	902.5475	928.5016	953.7844	999.8409	1001.6693	1020.6609	1086.3243	1109.2544	1142.0839	1160.0034	1195.7353	1227.3613	1261.8417	1294.4195	1297.9943	1326.8035	1340.6083	1362.3334	1379.0935	1391.1911	1396.1444	1426.097	1464.4196	1472.9589	1486.9905	1492.8766	1505.1094	2360.1476	2951.4378	2958.0241	3009.9802	3020.6518	3026.9844	3037.1366	3066.3683	3075.596	3081.7522	3086.5911	3090.6319
N#CCC1CCOCC1	N#CCC1CCOCC1	
InChI=1S/C7H11NO/c8-4-1-7-2-5-9-6-3-7/h7H,1-3,5-6H2	InChI=1S/C7H11NO/c8-4-1-7-2-5-9-6-3-7/h7H,1-3,5-6H2
