23
gdb 59360	2.92277	1.09176	0.8894	2.8291	81.94	-0.2449	0.054	0.2988	1401.8988	0.204414	-425.421152	-425.410891	-425.409947	-425.456334	38.816	
C	 0.0036950314	 1.6072261852	-0.0288181826	-0.393083
C	-0.0522204612	 0.0856373846	 0.0133272833	 0.134502
O	 0.5096479568	-0.3976620595	-1.2014505428	-0.451108
C	 0.6979928841	-0.4872884741	 1.2189915194	 0.014056
C	-0.0155252546	-0.4989992215	 2.6014824638	-0.267643
C	 0.4533628143	-1.9668738733	 2.8120488268	 0.025299
C	-0.538559518	-2.9813758833	 3.3601471771	-0.423266
C	 0.8306043171	-2.0340899687	 1.2964515754	 0.054742
O	-0.1505013548	-2.639880715	 0.4579072338	-0.435912
H	 1.0397069769	 1.9450971328	-0.1364899335	 0.117842
H	-0.5676325155	 1.984465791	-0.8813429481	 0.1191
H	-0.4103830936	 2.0398544482	 0.8873306911	 0.111251
H	-1.104688252	-0.2294723196	 0.0864649214	 0.064748
H	 0.3502660821	-1.3496199387	-1.1953361691	 0.286167
H	 1.690899483	-0.0295034948	 1.2759780048	 0.071039
H	 0.3079592615	 0.2359052254	 3.3420739789	 0.097019
H	-1.1035913036	-0.4282478173	 2.496206619	 0.099718
H	 1.3745954218	-1.9871871047	 3.4048632494	 0.071159
H	-1.4417558927	-3.0167008954	 2.7432722138	 0.123397
H	-0.110224035	-3.9907011992	 3.3949554197	 0.105445
H	-0.8387446367	-2.7194751064	 4.3802283391	 0.119736
H	 1.8218938423	-2.4465560858	 1.0701851292	 0.06496
H	-0.1147237836	-3.59284337	 0.5866017001	 0.290831
45.9196	92.0779	154.8925	217.2435	220.5875	247.2636	263.0172	308.5834	329.958	345.2204	377.0654	466.8746	528.0604	548.6807	575.0454	689.4669	769.0927	836.1471	893.0635	906.2241	925.1967	959.5819	982.3163	1005.9968	1049.2896	1058.1459	1125.0728	1131.9131	1138.7101	1169.2129	1184.6176	1223.637	1248.077	1266.4209	1291.349	1297.6512	1309.6654	1333.3243	1361.089	1394.9357	1396.579	1402.8023	1414.8744	1449.3288	1481.5244	1488.0271	1495.1622	1500.2046	1504.2259	2978.5192	3011.2775	3023.4763	3037.1838	3042.7839	3046.5247	3057.5592	3086.3391	3104.2619	3108.4995	3109.5319	3117.5453	3778.4675	3821.9042
CC(O)C1CC(C)C1O	C[C@@H](O)[C@H]1C[C@@H](C)[C@H]1O	
InChI=1S/C7H14O2/c1-4-3-6(5(2)8)7(4)9/h4-9H,3H2,1-2H3	InChI=1S/C7H14O2/c1-4-3-6(5(2)8)7(4)9/h4-9H,3H2,1-2H3/t4-,5-,6-,7-/m1/s1
