21
gdb 92547	3.31685	1.28308	1.02932	2.0239	83.79	-0.2404	0.0111	0.2515	1217.2367	0.184611	-387.089081	-387.081033	-387.080089	-387.121662	31.736	
C	-0.328787962	 1.5265681079	 0.0455130515	-0.403213
C	-0.0081388438	 0.0261361263	 0.0106415819	-0.028043
C	 0.7299798118	-0.363637492	-1.2844043575	-0.211327
C	 1.1221629943	-1.8427631969	-1.2993281147	-0.083617
C	 2.4884968094	-2.1711859519	-1.9383868245	-0.088858
O	 3.1123566929	-2.3114701886	-0.6443738262	-0.300725
C	 1.809443456	-2.3008131755	 0.0072803647	 0.115601
C	 1.6910115126	-1.3966860142	 1.1880994566	-0.1096
C	 0.8265091257	-0.3820923188	 1.2062501113	-0.033848
H	 0.5897736434	 2.1235052892	 0.0187228153	 0.12003
H	-0.9443130058	 1.8177576586	-0.8116725036	 0.112148
H	-0.8738118217	 1.7933118087	 0.9571180577	 0.113063
H	-0.9652669056	-0.5178889227	 0.0447586137	 0.083728
H	 0.1187935254	-0.1213948237	-2.1613909922	 0.091829
H	 1.636163489	 0.2519355671	-1.3468865172	 0.104676
H	 0.2859077687	-2.4689221867	-1.6198670539	 0.071094
H	 2.511846481	-3.1124070217	-2.5050720997	 0.092388
H	 2.9563606013	-1.3810884694	-2.5378396378	 0.100654
H	 1.5381170548	-3.3287050693	 0.2952788028	 0.073641
H	 2.2999703535	-1.6309336532	 2.0577060277	 0.093846
H	 0.7146812691	 0.2157735467	 2.108977054	 0.086534
81.1592	141.6368	224.4742	259.0593	280.1958	368.1205	383.6889	435.899	506.4811	559.0331	720.1052	726.9444	803.1928	836.1222	859.3068	872.7339	947.5375	969.7664	985.7614	1000.0373	1005.1223	1031.5948	1054.36	1085.2782	1106.8364	1118.9721	1159.7124	1164.5044	1198.2063	1241.1823	1259.0776	1285.6143	1310.8359	1328.827	1348.7442	1355.8128	1380.4013	1388.9397	1407.4086	1423.0728	1486.7278	1497.7854	1501.3318	1525.5039	1709.8864	2970.6904	2976.1819	3000.4337	3023.5776	3029.3968	3052.2721	3060.1305	3082.0557	3097.4734	3102.1658	3137.3031	3166.0446
CC1CC2COC2C=C1	C[C@H]1C[C@H]2CO[C@H]2C=C1	
InChI=1S/C8H12O/c1-6-2-3-8-7(4-6)5-9-8/h2-3,6-8H,4-5H2,1H3	InChI=1S/C8H12O/c1-6-2-3-8-7(4-6)5-9-8/h2-3,6-8H,4-5H2,1H3/t6-,7+,8+/m1/s1
