20
gdb 121089	3.64625	0.81665	0.71047	1.9794	77.03	-0.243	0.0252	0.2682	1605.3188	0.170591	-440.307492	-440.297749	-440.296805	-440.343228	34.38	
C	 0.0037117629	 1.4641067428	 0.04060492	-0.471468
C	-0.0594265168	-0.0227938232	-0.0360829836	 0.408554
N	-1.0781073991	-0.749653651	 0.1836166434	-0.315853
C	-0.6577457223	-2.150496143	-0.0058303101	 0.005211
C	-1.5503906109	-2.8787615034	-1.0148250612	-0.206471
C	-3.0010928686	-3.0104040256	-0.5471375182	-0.064603
O	-3.8049492488	-3.7361194711	-1.4670068625	-0.420966
C	 0.828411476	-2.0394587569	-0.4460102664	-0.129718
O	 1.1152447708	-0.6271504371	-0.3729653103	-0.254028
H	 0.7457920378	 1.77264382	 0.7836937451	 0.146287
H	 0.3160530366	 1.8810568776	-0.9219215816	 0.144615
H	-0.9736973128	 1.8600910603	 0.3135092969	 0.151295
H	-0.7361934036	-2.6642935057	 0.9618143532	 0.085911
H	-1.5195811895	-2.3336286761	-1.968864838	 0.086977
H	-1.1481852053	-3.8817282588	-1.2048259836	 0.102932
H	-3.0385363167	-3.5789297328	 0.3892485102	 0.106661
H	-3.4150844579	-2.0149965376	-0.3393811637	 0.114736
H	-3.8968449133	-3.1992309723	-2.2602478425	 0.279862
H	 1.5245985265	-2.5673529747	 0.2104088355	 0.118026
H	 0.9912501549	-2.3716682713	-1.4772394325	 0.112039
46.2953	91.1698	98.9396	140.2349	157.5643	199.8931	289.609	319.0664	332.0983	408.9363	489.5259	631.565	661.316	737.0504	795.4933	878.5223	917.5386	955.475	988.5645	1013.5024	1033.0891	1065.9462	1072.9282	1085.1056	1102.9974	1122.6072	1182.8335	1227.7821	1257.6961	1284.0619	1311.1579	1332.0577	1368.237	1385.0209	1401.9873	1415.316	1421.6353	1475.1137	1476.4523	1479.5719	1514.6177	1520.8771	1740.1659	3002.9996	3011.8551	3021.9684	3042.0686	3051.1081	3052.7624	3077.6925	3097.8238	3108.2474	3166.4821	3818.1357
CC1=NC(CCO)CO1	CC1=N[C@@H](CCO)CO1	
InChI=1S/C6H11NO2/c1-5-7-6(2-3-8)4-9-5/h6,8H,2-4H2,1H3	InChI=1S/C6H11NO2/c1-5-7-6(2-3-8)4-9-5/h6,8H,2-4H2,1H3/t6-/m0/s1
