16
gdb 47084	3.21048	1.55314	1.09276	6.0796	73.38	-0.214	-0.0265	0.1875	1048.4023	0.127745	-437.926596	-437.919628	-437.918684	-437.958109	26.947	
O	 0.0031292644	-0.0484240041	 0.0408752753	-0.359051
C	 0.0303157447	 1.1502883896	-0.0119081871	 0.376741
O	-1.1282321376	 1.9098002105	 0.0957195505	-0.247091
C	-0.8298877097	 3.3174822714	 0.211192055	-0.099133
C	 0.5711334869	 3.4838464131	-0.3960815616	-0.087662
C	 1.6571322567	 4.3781541791	 0.2377996373	-0.196673
N	 2.8547698143	 3.4989564854	 0.1734801813	-0.287546
C	 2.4176689804	 2.1841436912	 0.181284352	-0.138973
C	 1.1203505937	 2.1017561555	-0.1557213081	 0.093414
H	-1.6196405746	 3.8621572764	-0.3104385051	 0.119832
H	-0.8432807998	 3.5979992841	 1.2732545354	 0.106733
H	 0.4904247068	 3.6936035942	-1.4717026859	 0.097354
H	 1.8304932833	 5.308622192	-0.3061217606	 0.121944
H	 1.4148730324	 4.6215023997	 1.2845300859	 0.10555
H	 3.6407966789	 3.7347001346	 0.7612389017	 0.248475
H	 3.1009624892	 1.3866114371	 0.4429174641	 0.146089
131.1701	171.4932	201.7964	304.2172	384.4094	484.9273	526.0374	604.159	641.9891	648.121	734.0194	755.369	877.0911	928.809	941.2928	956.9445	972.7805	1024.0019	1036.4454	1082.0026	1111.9192	1125.3065	1204.4871	1224.2061	1252.0692	1274.9229	1291.9573	1337.0092	1373.6501	1394.5809	1455.982	1508.1754	1515.1265	1694.6668	1861.9026	2978.5698	2999.5309	3015.4726	3104.2405	3107.8507	3227.2744	3607.6933
O=C1OCC2CNC=C12	O=C1OC[C@H]2CN[CH][C]12	
InChI=1S/C6H7NO2/c8-6-5-2-7-1-4(5)3-9-6/h2,4,7H,1,3H2	InChI=1S/C6H7NO2/c8-6-5-2-7-1-4(5)3-9-6/h2,4,7H,1,3H2/t4-/m1/s1
