17
gdb 65175	2.52934	1.35304	1.2152	2.4355	74.37	-0.256	0.0189	0.2749	1115.0423	0.132366	-421.74362	-421.734604	-421.73366	-421.77757	33.294	
C	 0.0553961474	 1.3800468614	-0.9430687503	-0.472316
C	-0.008656676	 0.0861104563	-0.1632685559	 0.368884
C	 1.0989453878	-0.8844096273	-0.1949793278	-0.21769
O	 0.8915399834	-0.02951021	 0.932600592	-0.258178
C	-1.4001942932	-0.4383922918	 0.0727349142	 0.001854
O	-1.5572387851	-1.525728799	 0.9658165897	-0.239425
C	-2.147162343	-0.2650008199	 1.3410512745	-0.169644
C	-1.6302906292	 0.4247539211	 2.4903502449	 0.348938
C	-1.2883760007	 1.031810289	 3.4692490701	-0.412226
H	 1.0949508253	 1.6807140068	-1.0915888246	 0.134163
H	-0.4207192928	 1.2742327499	-1.9238907729	 0.123026
H	-0.4591643667	 2.1794757886	-0.3997515125	 0.137231
H	 0.8899504927	-1.9370737128	-0.0160932756	 0.128328
H	 1.9836186166	-0.6672718741	-0.7921228907	 0.111282
H	-2.0006651852	-0.5059001504	-0.8384326704	 0.096194
H	-3.2353619957	-0.2655576787	 1.2712017687	 0.117744
H	-0.9519917957	 1.5590092212	 4.3276888067	 0.201835
52.8483	108.1088	178.5849	192.2346	239.3057	244.8294	333.0805	366.2772	434.2094	505.4256	562.2821	605.0066	630.5389	671.0136	730.5214	815.9634	842.691	891.485	924.2209	945.2847	1002.8842	1029.9297	1085.5374	1114.8324	1135.7756	1145.3702	1175.4169	1242.2019	1280.5223	1386.9784	1391.9908	1415.5091	1453.1342	1484.7633	1497.3162	1523.554	2243.1338	3037.5946	3074.1373	3086.7107	3102.18	3104.9604	3129.034	3181.0504	3503.3435
CC1(CO1)C1OC1C#C	C[C@]1(CO1)[C@H]1O[C@H]1C#C	
InChI=1S/C7H8O2/c1-3-5-6(9-5)7(2)4-8-7/h1,5-6H,4H2,2H3	InChI=1S/C7H8O2/c1-3-5-6(9-5)7(2)4-8-7/h1,5-6H,4H2,2H3/t5-,6-,7-/m0/s1
