20
gdb 121663	4.9673	0.63462	0.58152	4.1008	77.64	-0.2463	0.0071	0.2535	1889.7437	0.169051	-440.277765	-440.267518	-440.266574	-440.314823	35.349	
O	-0.1042454848	 1.4502022285	 0.2992150093	-0.419563
C	-0.0692012085	 0.0807190294	-0.0690235056	-0.078081
C	-1.4646589779	-0.4932469354	 0.1348593166	-0.156186
C	-1.5379445111	-1.9763296845	-0.2221447715	-0.314457
C	-2.9251556824	-2.5689845718	-0.0205354589	 0.367352
O	-3.8766599238	-1.9386441205	 0.3817320155	-0.327828
N	-3.0365496326	-3.902603522	-0.4301430928	-0.077866
C	-2.3988001151	-5.0280271835	 0.2328863939	-0.234806
C	-3.8875503042	-4.8463039668	 0.2536806736	-0.215903
H	 0.771114633	 1.8225250474	 0.1594892311	 0.285109
H	 0.2357952591	-0.0418807619	-1.122048524	 0.082086
H	 0.6584472685	-0.4785769841	 0.543689456	 0.079084
H	-1.7646523753	-0.3436291879	 1.176623062	 0.120171
H	-2.178536074	 0.0720973142	-0.4717169612	 0.123599
H	-1.2491287451	-2.1519573955	-1.2663836264	 0.130234
H	-0.8239795007	-2.5590006582	 0.3763991825	 0.115654
H	-1.9431685595	-5.7710043862	-0.4161068211	 0.127418
H	-1.8595900642	-4.8351425098	 1.1578321365	 0.127872
H	-4.3484742587	-4.5105111308	 1.1785963033	 0.138703
H	-4.5151807725	-5.4660933405	-0.3799041988	 0.127408
29.4219	64.1288	94.4146	114.1207	126.9021	208.3644	230.6427	264.0071	302.8515	360.7247	506.4164	583.9105	609.4126	761.7799	781.4407	818.1382	877.9924	929.0543	972.9864	1024.0662	1044.3631	1061.8322	1087.765	1108.3839	1124.2036	1131.1506	1136.0886	1171.3583	1177.9079	1207.3173	1239.2184	1294.7559	1303.4724	1308.8108	1367.39	1406.543	1459.9799	1466.8606	1494.3877	1497.3258	1524.0799	1527.4368	1792.361	2949.7073	2973.5294	3020.2482	3051.8839	3063.1899	3102.6524	3106.372	3117.2613	3187.341	3207.6914	3831.3842
OCCCC(=O)N1CC1	OCCCC(=O)N1CC1	
InChI=1S/C6H11NO2/c8-5-1-2-6(9)7-3-4-7/h8H,1-5H2	InChI=1S/C6H11NO2/c8-5-1-2-6(9)7-3-4-7/h8H,1-5H2
