23
gdb 36930	4.27222	0.83089	0.73533	1.7297	85.51	-0.2372	0.0857	0.3229	1596.0617	0.20708	-388.283469	-388.274238	-388.273293	-388.318882	34.073	
C	-0.0175527154	 1.5011484708	-0.1659884091	-0.236519
C	-0.0842497353	-0.0133487915	-0.1639714969	 0.032435
C	-0.3260270968	-0.7827681732	 1.1124291728	-0.252584
C	-1.3969131426	-0.7211692146	 0.0503805295	-0.280346
C	 1.3860482778	 2.0613094179	 0.080767113	 0.020645
C	 1.4883074144	 3.5955493348	 0.0200565698	-0.254787
C	 2.7847022003	 3.876528895	 0.7931928444	-0.067104
O	 2.9904675411	 2.7686171689	 1.6730964596	-0.263545
C	 1.9682980749	 1.7986365135	 1.4764118761	-0.062209
H	-0.384430173	 1.8773729704	-1.130662894	 0.097102
H	-0.7037659563	 1.8968323011	 0.5960848856	 0.090082
H	 0.5914607932	-0.4858265289	-0.8737804873	 0.080341
H	 0.1991950763	-1.7196860512	 1.2621631101	 0.111013
H	-0.4874490999	-0.216371517	 2.0238724142	 0.111814
H	-2.2723536152	-0.1116253473	 0.2508806089	 0.109481
H	-1.6041134168	-1.6159029106	-0.5262120734	 0.110113
H	 2.0749340215	 1.6359027476	-0.6621797396	 0.074928
H	 1.5109013758	 3.9882958343	-0.999786332	 0.101131
H	 0.6278079025	 4.0438471446	 0.5312643986	 0.101415
H	 3.6474685758	 3.9548223013	 0.1168143509	 0.09458
H	 2.7342379931	 4.8033815409	 1.377916746	 0.097024
H	 1.182536759	 1.9061703727	 2.2439278527	 0.079144
H	 2.4117003058	 0.8047163703	 1.5877099602	 0.105847
46.5555	68.9731	82.8967	115.9768	191.3008	276.5763	322.3582	408.3452	430.9562	599.5582	682.2741	774.9467	799.1478	831.2167	844.6329	866.5617	905.3948	920.7274	939.6206	962.3243	974.9414	997.1702	1050.5647	1077.5568	1078.6814	1080.9184	1113.5164	1129.1311	1141.5718	1185.6355	1195.5278	1199.242	1225.4157	1232.651	1247.5182	1277.8772	1290.9976	1329.8712	1344.2015	1366.0297	1382.6684	1411.14	1420.1267	1468.9281	1482.4759	1492.7912	1507.5885	1520.3933	1535.2487	2952.6336	3000.4405	3002.0689	3008.8232	3029.8553	3039.9284	3046.5776	3076.0592	3099.0769	3126.2238	3127.295	3133.1084	3204.8165	3220.0343
C(C1CC1)C1CCOC1	C(C1CC1)[C@H]1CCOC1	
InChI=1S/C8H14O/c1-2-7(1)5-8-3-4-9-6-8/h7-8H,1-6H2	InChI=1S/C8H14O/c1-2-7(1)5-8-3-4-9-6-8/h7-8H,1-6H2/t8-/m1/s1
