17
gdb 108162	3.63152	1.49237	1.23923	2.4874	72.6	-0.2398	-0.0481	0.1918	1007.6963	0.136855	-417.896845	-417.889556	-417.888612	-417.928551	28.801	
O	 0.1071369907	 1.2961138531	 0.2245439113	-0.414662
C	-0.0299804416	-0.0116947007	-0.3028104748	-0.147093
C	-1.4369725531	-0.5328906385	-0.0993977058	 0.244338
C	-2.6207344258	 0.2727331707	-0.6696062969	-0.228404
N	-3.7730123195	-0.4152404127	-0.0370748266	-0.194508
C	-3.2520113046	-1.0805794612	 0.9151915739	 0.146822
C	-3.0159833936	-2.5670226846	 0.7562532267	-0.263273
C	-1.5904779682	-1.9836826131	 0.4239694202	-0.112929
N	-1.824614104	-0.7925752569	 1.2951033187	-0.176198
H	-0.1619127867	 1.2453190152	 1.1497541924	 0.296548
H	 0.1939767513	 0.0596379732	-1.3726315948	 0.119201
H	 0.7001404144	-0.7026661614	 0.1434153205	 0.096373
H	-2.4966449354	 1.3328670473	-0.4145945597	 0.131784
H	-2.7516741784	 0.1973281485	-1.7538501594	 0.122795
H	-2.9271725094	-3.1716951723	 1.6627008669	 0.132445
H	-3.6175698792	-3.0552399369	-0.0085761094	 0.135129
H	-0.6957522568	-2.5869056998	 0.5698965067	 0.111631
84.9762	174.3242	289.3905	300.4117	342.2759	440.5749	453.8226	491.9141	650.9439	667.0072	702.0625	770.8773	791.6749	838.2272	898.5736	936.8174	963.7811	975.6647	1007.1008	1014.7507	1056.4409	1070.1829	1091.9196	1114.3118	1173.3506	1186.1932	1195.1398	1222.0802	1264.4787	1300.9013	1357.2151	1388.4903	1427.0231	1480.4933	1489.6636	1500.9509	1635.9281	2996.3162	3030.513	3070.1978	3073.9415	3079.54	3121.9505	3159.7296	3790.4955
OCC12CN=C3CC1N23	OC[C@@]12C[N][C]3C[C@@H]1N23	
InChI=1S/C6H8N2O/c9-3-6-2-7-5-1-4(6)8(5)6/h4,9H,1-3H2	InChI=1S/C6H8N2O/c9-3-6-2-7-5-1-4(6)8(5)6/h4,9H,1-3H2/t4-,6-,8?/m0/s1
