15
gdb 127680	2.54646	1.86964	1.08537	3.6415	72.9	-0.2164	-0.0393	0.1771	1039.8282	0.114811	-450.160052	-450.152179	-450.151235	-450.192698	28.952	
C	-0.376493708	 1.3646839485	-0.0343451617	-0.311684
N	 0.0669277114	-0.0210741213	-0.0151738563	-0.066132
N	 0.2811391633	-0.5999117709	-1.2296775678	-0.230595
C	 0.6716812883	-1.8193279652	-1.2447668745	 0.097457
N	 0.8870314293	-2.5757203298	-0.1068232192	-0.381052
C	 0.6980785696	-2.0823204665	 1.1648031385	 0.403054
O	 0.883700801	-2.7393756714	 2.1653991155	-0.357207
C	 0.2380140157	-0.6469251315	 1.208433933	 0.274631
N	 0.013511881	-0.0266260205	 2.3016892649	-0.533462
H	 0.3360819994	 1.9968563218	 0.5033867991	 0.149228
H	-0.4502214509	 1.6690672093	-1.076725614	 0.144387
H	-1.3452040495	 1.4582185802	 0.4650682939	 0.149284
H	 0.8486562837	-2.3002070871	-2.1975189698	 0.150232
H	 1.194767156	-3.5361086131	-0.178411927	 0.27031
H	 0.2005227496	-0.6692674323	 3.0728586854	 0.241549
87.6346	128.6802	172.1932	202.2209	328.5635	358.1765	473.541	497.4643	536.9073	572.0793	586.9724	666.3841	716.073	791.3432	843.9905	883.0088	894.9838	967.0868	1064.1281	1113.359	1153.3496	1230.3733	1257.3382	1302.8401	1400.3879	1432.2061	1455.1567	1469.884	1470.9922	1508.0246	1677.9299	1701.3075	1810.8098	3049.265	3107.0647	3175.5447	3227.5467	3481.3573	3599.8338
CN1N=CNC(=O)C1=N	CN1N=CNC(=O)[C]1[NH]	
InChI=1S/C4H6N4O/c1-8-3(5)4(9)6-2-7-8/h2,5H,1H3,(H,6,7,9)	InChI=1S/C4H6N4O/c1-8-3(5)4(9)6-2-7-8/h2,5H,1H3,(H,6,7,9)
