15
gdb 67500	2.55431	1.67575	1.2676	4.8603	69.88	-0.2308	0.0257	0.2565	987.6595	0.112181	-416.7166	-416.709095	-416.708151	-416.748316	29.422	
O	-0.0765040669	 1.3853270916	 0.0201269562	-0.449561
C	 0.0020850658	 0.01499555	-0.0512037615	 0.375259
C	 0.5916069608	-0.7267096302	-1.2950039423	-0.141863
N	 0.8311320792	-2.1332413714	-0.9208350715	-0.314896
C	-0.5351305411	-1.6814076422	-1.2605545393	-0.045895
C	-1.1459714287	-0.9649098867	-0.024203777	-0.145299
C	-0.1955638763	-0.8718837371	 1.1701014456	-0.248158
C	 0.6626338819	-1.8809370281	 1.7369531632	 0.323148
N	 1.3180373431	-2.6262916698	 2.3321062684	-0.368353
H	 0.7636373803	 1.7244855307	 0.3524931662	 0.296702
H	 1.0856104068	-0.2404247013	-2.1255130019	 0.110299
H	 1.2211129906	-2.6226504347	-1.7252994398	 0.24141
H	-1.1041101167	-2.1269990158	-2.0646697521	 0.110102
H	-2.2039487272	-0.7795380304	 0.1051506883	 0.115819
H	-0.6668310917	-0.2765245445	 1.9503519474	 0.141286
126.6974	172.4132	244.242	306.2004	335.6903	372.1835	419.7278	470.6368	552.6574	623.6273	681.8152	742.5932	772.57	817.477	840.7804	887.9413	911.7916	936.2242	957.1414	977.7069	1037.8559	1070.6015	1087.4582	1104.0072	1189.6474	1203.3167	1251.4992	1302.2983	1313.9151	1334.1345	1355.104	1468.9771	2346.2705	3135.575	3202.8956	3208.6993	3218.6149	3483.5447	3777.064
OC12C3NC3C1C2C#N	O[C@]12[C@H]3N[C@H]3[C@H]1[C@H]2C#N	
InChI=1S/C6H6N2O/c7-1-2-3-4-5(8-4)6(2,3)9/h2-5,8-9H	InChI=1S/C6H6N2O/c7-1-2-3-4-5(8-4)6(2,3)9/h2-5,8-9H/t2-,3-,4+,5+,6+/m1/s1
