21
gdb 60291	4.52131	0.58002	0.56629	2.0253	87.99	-0.2533	-0.021	0.2323	2024.6033	0.180885	-420.448242	-420.437732	-420.436788	-420.484806	37.142	
C	-0.2784240953	 1.7954564141	 0.5544962795	-0.390653
C	-0.288986356	 0.42808271	-0.1393130566	 0.05081
C	 1.0805707423	-0.2542955442	-0.0495004483	-0.384167
C	-1.4035626808	-0.456644796	 0.4486021069	-0.140413
N	-1.5722084082	-1.6850989381	-0.3070602894	-0.239661
C	-1.5063009113	-2.780325189	 0.3217317921	 0.112232
N	-1.6672029784	-3.989467903	-0.3471875409	-0.305796
C	-1.6083056881	-5.2215785673	 0.260039565	 0.159879
O	-1.4096831065	-5.4030349185	 1.4378983263	-0.297022
H	 0.4833827878	 2.450038925	 0.1194226078	 0.112857
H	-1.246091783	 2.3004214755	 0.4632662232	 0.110335
H	-0.0540230309	 1.6942078118	 1.6232288443	 0.112946
H	-0.5296953539	 0.5761200838	-1.2002175074	 0.08292
H	 1.0782823089	-1.2189829274	-0.564303087	 0.1191
H	 1.859621127	 0.3683178545	-0.5012235007	 0.110321
H	 1.3625343585	-0.430918536	 0.9961555492	 0.10826
H	-1.1979245042	-0.6481044875	 1.5170486418	 0.082592
H	-2.349644466	 0.0986192071	 0.3963719203	 0.103386
H	-1.3310609629	-2.9050550334	 1.393817718	 0.136946
H	-1.8398304747	-3.9315658277	-1.3410307062	 0.264441
H	-1.7667479144	-6.0404890638	-0.466780718	 0.090688
39.2995	65.2519	105.5307	161.283	181.3714	219.4899	248.0738	263.9782	308.3905	352.211	378.9694	425.4347	450.1352	564.1192	652.217	799.4759	824.8316	916.526	929.3217	951.7614	969.3827	1015.9962	1031.0423	1061.756	1090.6574	1146.314	1177.3422	1194.3244	1244.2993	1270.7538	1321.3558	1350.3549	1370.9927	1389.1173	1399.9111	1422.0825	1438.4883	1482.5809	1488.7254	1493.4957	1503.7408	1505.1717	1511.466	1751.7539	1818.7604	2944.5115	2958.5514	3018.5556	3023.5139	3028.5697	3031.997	3087.9555	3093.5071	3100.0529	3100.6868	3112.7373	3611.0899
CC(C)CN=CNC=O	CC(C)CN=CNC=O	
InChI=1S/C6H12N2O/c1-6(2)3-7-4-8-5-9/h4-6H,3H2,1-2H3,(H,7,8,9)	InChI=1S/C6H12N2O/c1-6(2)3-7-4-8-5-9/h4-6H,3H2,1-2H3,(H,7,8,9)
