18
gdb 92517	2.35049	1.73982	1.38441	3.4933	70.71	-0.2196	-0.0361	0.1835	1004.7716	0.148638	-439.073917	-439.065875	-439.064931	-439.106886	30.321	
C	 0.3172361314	 1.5006679378	-0.1615114341	-0.376629
C	-0.0296311667	 0.0099439399	-0.0166112331	-0.101422
N	 0.3660787467	-0.7988479689	-1.1884092934	-0.311583
C	 1.5644664357	-1.5849866328	-0.8681023601	-0.063775
C	 2.904726205	-0.8376175834	-1.0300997768	-0.068964
O	 3.0150704159	-0.6463236834	 0.4046825206	-0.29297
C	 1.8434226266	-1.4668117908	 0.6470354746	 0.002243
C	 0.7033294405	-0.6000143624	 1.1920732287	 0.405531
O	 0.4322519003	-0.4209531752	 2.3501966838	-0.311553
H	 1.3954545288	 1.6428288678	-0.2703935023	 0.135652
H	-0.1806922373	 1.9163685583	-1.0412748706	 0.121319
H	-0.0104301093	 2.0464318594	 0.7280849924	 0.132733
H	-1.1071758672	-0.0812503853	 0.1551202672	 0.103234
H	-0.3880368601	-1.4211063704	-1.4467951652	 0.228097
H	 1.5133844268	-2.5758367333	-1.3189346849	 0.086777
H	 3.7357408157	-1.4435225113	-1.4112354137	 0.106158
H	 2.8493042138	 0.1073292568	-1.5792027757	 0.114234
H	 2.0567025134	-2.3458770229	 1.2609573725	 0.090919
58.9773	119.3611	191.3221	230.0827	257.0375	347.5319	420.3353	459.3419	574.8387	618.462	694.592	738.7344	794.3379	818.8469	866.6294	894.1436	901.4689	983.0079	1010.1717	1027.7494	1053.6506	1076.4638	1114.4422	1141.1038	1162.871	1177.9372	1227.3141	1239.9456	1271.1454	1286.8844	1323.1751	1340.3095	1390.8681	1396.5175	1459.6701	1488.536	1496.3689	1515.6138	1849.299	3024.7859	3045.483	3055.1184	3078.111	3088.6759	3114.1189	3124.7714	3129.0444	3565.4149
CC1NC2COC2C1=O	C[C@H]1N[C@H]2CO[C@H]2C1=O	
InChI=1S/C6H9NO2/c1-3-5(8)6-4(7-3)2-9-6/h3-4,6-7H,2H2,1H3	InChI=1S/C6H9NO2/c1-3-5(8)6-4(7-3)2-9-6/h3-4,6-7H,2H2,1H3/t3-,4+,6-/m1/s1
