15
gdb 94268	2.33537	1.49401	1.26025	1.6536	63.28	-0.257	-0.0756	0.1814	1034.2622	0.108911	-494.875315	-494.866378	-494.865434	-494.910269	30.831	
O	 0.2408720158	 1.1813780837	-0.3338177027	-0.409674
C	 0.0568230787	-0.1276328428	 0.0664207602	 0.036085
C	-0.0213308045	-0.4362116376	 1.5768312666	-0.104062
O	-1.3591902743	-0.9591676379	 1.4693030639	-0.290483
C	-1.4410467046	-0.7351656096	 0.0657620782	 0.195648
C	-2.4604342019	 0.3276128548	-0.3068309907	 0.124171
O	-2.5374394	 1.3695240858	 0.2983153844	-0.271211
C	-1.5528024686	-1.9953900923	-0.7589027618	 0.09406
O	-1.3535309991	-3.1044116163	-0.3431124059	-0.239712
H	-0.4056980679	 1.734220425	 0.1288867664	 0.307925
H	 0.756998654	-0.7430308995	-0.5005038587	 0.126127
H	 0.6831120321	-1.1859729313	 1.9520586715	 0.12543
H	 0.0203383123	 0.460693716	 2.2058068506	 0.117775
H	-3.1061648555	 0.1269263609	-1.1869775303	 0.104804
H	-1.7890709464	-1.8031964888	-1.8331292319	 0.083117
35.6712	74.1714	95.1218	195.3788	230.1941	246.7134	301.1312	391.394	452.907	472.0226	550.7194	676.1403	733.6713	774.4687	847.3246	887.3637	977.2514	1035.2517	1045.6148	1074.9983	1097.4689	1151.2673	1170.1915	1206.7123	1247.3582	1326.1778	1346.1433	1416.7543	1428.7485	1452.2311	1511.3171	1792.3847	1843.9593	2844.1966	2913.7394	3030.3349	3083.4059	3110.7847	3735.5407
OC1COC1(C=O)C=O	O[C@H]1COC1(C=O)C=O	
InChI=1S/C5H6O4/c6-2-5(3-7)4(8)1-9-5/h2-4,8H,1H2	InChI=1S/C5H6O4/c6-2-5(3-7)4(8)1-9-5/h2-4,8H,1H2/t4-/m0/s1
