18
gdb 47851	2.46138	1.5971	1.1264	2.8912	75.79	-0.2269	-0.0051	0.2218	1096.2107	0.149756	-439.11001	-439.102053	-439.101108	-439.142709	30.535	
O	-0.0359241604	-0.140417504	-0.1274023241	-0.360864
C	-0.0035729908	 1.0752733364	-0.0795887655	 0.341343
C	-1.3507889588	 1.8146510186	-0.0305168326	-0.180612
O	-1.3847852797	 3.2144724368	-0.1019834172	-0.223667
C	-1.3190813282	 3.8816742569	 1.1428465664	-0.068186
C	 0.0289029086	 3.6648840308	 1.8538696102	-0.310362
C	 1.1791420005	 3.926690845	 0.9320027746	-0.052997
C	 1.6377945024	 3.0536696784	 0.0342776082	 0.016183
N	 1.2051027712	 1.7329556528	-0.1753567926	-0.319029
H	-1.8874195564	 1.4379106691	-0.9076480706	 0.147251
H	-1.8838999322	 1.4312612466	 0.8520168613	 0.123465
H	-1.459558425	 4.941485342	 0.9102253883	 0.112215
H	-2.1467625247	 3.5622548838	 1.7958875855	 0.09403
H	 0.070579502	 4.3162812496	 2.7332189111	 0.107362
H	 0.0759107108	 2.6320591325	 2.2232602313	 0.117303
H	 1.630725879	 4.913509497	 0.9364352494	 0.09581
H	 2.4798005974	 3.3172455735	-0.5996470874	 0.107876
H	 1.9370708242	 1.0649422341	-0.3831419165	 0.252879
73.6557	123.0279	231.4191	259.5798	289.8893	362.6599	448.5168	493.4164	524.0033	546.9922	607.8792	693.0863	725.7835	750.7287	818.4184	856.0674	904.1208	960.0449	988.1153	1007.8967	1038.7337	1093.5604	1122.2536	1159.5581	1235.9813	1263.5783	1287.2018	1318.6256	1348.3767	1374.1129	1378.6477	1410.7934	1440.424	1460.9311	1485.9111	1487.4477	1498.2868	1728.4345	1766.7511	2981.5569	3004.366	3025.4716	3072.8748	3079.0186	3089.4682	3160.4755	3187.3899	3569.7273
O=C1COCCC=CN1	O=C1COCCC=CN1	
InChI=1S/C6H9NO2/c8-6-5-9-4-2-1-3-7-6/h1,3H,2,4-5H2,(H,7,8)/b3-1-	InChI=1S/C6H9NO2/c8-6-5-9-4-2-1-3-7-6/h1,3H,2,4-5H2,(H,7,8)/b3-1-
