17
gdb 83296	2.40939	1.91224	1.49002	1.0755	66.47	-0.2427	-0.0278	0.2149	938.1931	0.136947	-458.985259	-458.977848	-458.976904	-459.017132	28.554	
C	-0.2582510893	 1.5597630018	 0.0246099553	-0.413408
C	 0.0123655224	 0.0599244189	-0.0305302198	-0.127957
C	 0.9345036353	-0.4740233627	-1.1492073893	 0.170346
O	 2.1593417159	 0.2585516204	-1.1573073327	-0.2731
C	 2.9257243923	-0.2897331775	-0.0707400207	-0.097658
C	 1.928016117	-1.3080964204	 0.5277312593	-0.088785
O	 1.282392767	-1.7645451699	-0.6713756243	-0.246732
C	 0.8133379356	-0.4694582598	 1.1761579847	 0.42224
O	 0.6415291596	-0.2354002619	 2.3412382413	-0.322071
H	 0.6745429495	 2.1219619717	-0.066879757	 0.135254
H	-0.9243892912	 1.8712003081	-0.7853561349	 0.119731
H	-0.7291991468	 1.8175981452	 0.9770497182	 0.140309
H	-0.9298300663	-0.5011438602	-0.0795402214	 0.115591
H	 0.5274088027	-0.5263999828	-2.158236732	 0.102506
H	 3.8191114092	-0.7887126343	-0.46095447	 0.121644
H	 3.2178200825	 0.4992366925	 0.6289665879	 0.126968
H	 2.3373259047	-2.1261962189	 1.1144221454	 0.115122
103.9826	187.3545	210.6666	228.0009	272.0067	449.2853	496.5097	536.5143	606.2968	672.0229	715.8054	792.5795	835.776	880.0687	892.3344	929.8706	954.6492	981.2575	1022.9981	1037.3864	1080.5377	1106.6932	1108.6043	1173.0142	1185.2913	1229.0182	1256.7924	1264.7836	1307.8865	1321.8158	1345.8098	1371.7975	1405.33	1493.9858	1502.4201	1518.5161	1868.1654	3034.3316	3040.7727	3046.4593	3093.3139	3116.6572	3129.2783	3136.7793	3169.3215
CC1C2OCC(O2)C1=O	C[C@H]1[C@H]2OC[C@H](O2)C1=O	
InChI=1S/C6H8O3/c1-3-5(7)4-2-8-6(3)9-4/h3-4,6H,2H2,1H3	InChI=1S/C6H8O3/c1-3-5(7)4-2-8-6(3)9-4/h3-4,6H,2H2,1H3/t3-,4+,6+/m1/s1
