21
gdb 85129	2.12016	1.67114	1.13643	2.7552	82.88	-0.2316	-0.0169	0.2147	1165.1351	0.181804	-387.095935	-387.086944	-387.086	-387.129953	34.071	
C	-0.4522316775	 1.4177832257	-0.2655571273	-0.410801
C	 0.1491428413	 0.0197941156	-0.2429574167	-0.075063
C	 1.6293228698	-0.1344158256	-0.7210404442	-0.372844
C	 1.8975946765	-0.9481428089	 0.552926435	 0.364036
O	 2.798445569	-1.6467378472	 0.9262830971	-0.310758
C	 0.5262255056	-0.6015060002	 1.1397047939	 0.237879
C	 0.5674730356	 0.2007577887	 2.4794637529	-0.273308
C	 0.2642103687	-1.1237457524	 3.2265512191	-0.206286
C	-0.2431247318	-1.7204292046	 1.8879892656	-0.28066
H	 0.1821138083	 2.1324623091	 0.2703506208	 0.117145
H	-0.5641690424	 1.7788961963	-1.2933788427	 0.118922
H	-1.4432250796	 1.4367944351	 0.201191081	 0.117543
H	-0.4998579606	-0.6729904179	-0.7900654346	 0.078185
H	 1.8191376961	-0.646455003	-1.6678966528	 0.126138
H	 2.1848413439	 0.8107767477	-0.7226014025	 0.126844
H	 1.4922007501	 0.7292776766	 2.7239546309	 0.105961
H	-0.2684252899	 0.9044332447	 2.537013066	 0.104506
H	 1.1833793972	-1.6149133591	 3.5531274651	 0.125573
H	-0.4362037225	-1.0815196252	 4.0633353923	 0.096661
H	-1.3248085737	-1.6037698964	 1.7659045591	 0.100709
H	 0.0356335459	-2.749698649	 1.6495726419	 0.109617
47.567	114.3074	158.8487	197.7394	229.8489	263.7193	283.3933	425.0285	476.8228	523.0421	545.0009	660.2365	691.8461	774.9821	797.7086	837.3594	873.3018	889.8769	940.0702	946.37	964.051	1024.7333	1048.8076	1067.3861	1084.9895	1136.3072	1168.7797	1173.1864	1197.4468	1214.4421	1226.1955	1251.2936	1260.9285	1277.7418	1284.2204	1295.0424	1362.1072	1410.8395	1439.4588	1470.134	1481.0272	1494.2265	1496.5521	1502.055	1874.405	3026.7697	3040.6326	3046.268	3047.8804	3052.3711	3069.3222	3093.6082	3097.0301	3101.1186	3106.5477	3108.2143	3129.411
CC1CC(=O)C11CCC1	C[C@H]1CC(=O)C21CCC2	
InChI=1S/C8H12O/c1-6-5-7(9)8(6)3-2-4-8/h6H,2-5H2,1H3	InChI=1S/C8H12O/c1-6-5-7(9)8(6)3-2-4-8/h6H,2-5H2,1H3/t6-/m0/s1
