19
gdb 6830	3.26238	1.53756	1.37528	1.9874	74.51	-0.2459	0.0364	0.2824	1028.9754	0.163745	-365.068235	-365.059022	-365.058078	-365.102105	32.635	
C	-0.0436458602	 1.4010195172	 0.1291415048	-0.340497
N	-0.0850393506	-0.0464962565	 0.2866632517	-0.335677
C	-1.1252072338	-0.6686473698	-0.0178764514	 0.452862
O	-2.339943656	-0.2174562995	-0.5139383427	-0.275319
C	-2.8715962651	-1.5757545713	-0.5455025251	-0.112183
C	-1.5331410994	-2.1351995785	 0.0084794631	 0.139737
C	-0.7402219937	-3.0177909522	-0.9557287186	-0.440858
C	-1.6025202176	-2.735381739	 1.4128830075	-0.440859
H	 0.7781240551	 1.665009657	-0.5458471734	 0.125452
H	-0.9712848422	 1.8367414772	-0.2599671183	 0.125687
H	 0.1806523316	 1.860966178	 1.0980253075	 0.125446
H	-3.7419462222	-1.6698668488	 0.1099206669	 0.1134
H	-3.1317616344	-1.8697490771	-1.5662013832	 0.1134
H	-0.7070236383	-2.5847310607	-1.9600524191	 0.121894
H	 0.2897342814	-3.1294758177	-0.6047538831	 0.1377
H	-1.188190929	-4.0150517635	-1.0264501488	 0.11511
H	-2.0673468198	-3.7271208006	 1.3884515579	 0.11511
H	-0.5962456943	-2.8393167801	 1.8289070297	 0.1377
H	-2.1818790114	-2.101699224	 2.0911886546	 0.121894
73.6333	103.7316	130.4997	177.3351	204.1278	248.4176	286.1559	295.5617	342.9678	388.1691	559.6899	653.0633	712.8464	767.5933	872.4249	932.5762	966.0934	974.628	997.5846	1037.4225	1047.7454	1098.7403	1132.4303	1155.9974	1169.117	1229.8491	1251.3425	1271.495	1358.8167	1399.7701	1420.8584	1440.4996	1481.5211	1485.5324	1494.888	1497.3725	1502.3462	1503.3414	1519.7221	1846.6797	3016.5418	3031.0766	3034.7643	3051.0851	3080.6351	3086.2939	3100.5848	3104.1294	3106.8617	3114.3376	3116.7406
CN=C1OCC1(C)C	CN=C1OCC1(C)C	
InChI=1S/C6H11NO/c1-6(2)4-8-5(6)7-3/h4H2,1-3H3	InChI=1S/C6H11NO/c1-6(2)4-8-5(6)7-3/h4H2,1-3H3
