20
gdb 32838	5.10604	0.73462	0.68061	1.9209	83.53	-0.1794	0.0488	0.2281	1693.5636	0.170826	-403.188897	-403.179163	-403.178219	-403.224351	35.688	
C	-0.1247138348	 1.5973497327	-0.0774170745	-0.380022
C	-0.1314420922	 0.0671000747	-0.0859251879	-0.150543
C	 0.8364597359	-0.5305759961	-1.1276478377	-0.308405
C	 0.8552586571	-2.0259614108	-1.1567789909	 0.343832
C	 1.7779080406	-2.9268669961	-0.6587986932	-0.385569
C	 1.2841512511	-4.2350663335	-0.923724338	 0.33224
O	 1.8679413423	-5.431475811	-0.6130706505	-0.451116
C	 0.0792346903	-4.1120673041	-1.5734736775	-0.18437
N	-0.1644458642	-2.7574865052	-1.7042607801	-0.300806
H	 0.872094202	 1.9876352071	 0.1566475376	 0.115447
H	-0.4148548331	 2.0019633455	-1.0538220106	 0.112192
H	-0.8207993755	 1.9950214589	 0.6675016469	 0.113409
H	 0.1376920036	-0.3171207627	 0.9049064033	 0.105479
H	-1.1473080565	-0.2975735185	-0.2848009548	 0.090067
H	 0.5782185947	-0.1354912139	-2.1210412409	 0.096536
H	 1.8523301279	-0.177255425	-0.9181883029	 0.109824
H	 2.703288951	-2.6718362959	-0.1622700424	 0.080094
H	 2.699285714	-5.2521475473	-0.1655913726	 0.29383
H	-0.6006922368	-4.8573176074	-1.9485699799	 0.113279
H	-0.9737376673	-2.3649629514	-2.1513833634	 0.254601
33.7956	79.5852	100.1279	201.4637	241.3027	263.3007	285.7344	310.0267	346.13	434.9336	451.5235	621.8316	629.9423	683.8564	692.0221	739.9001	753.1459	769.9031	866.8369	892.5399	986.5443	1006.681	1042.1459	1076.9902	1108.54	1129.5237	1171.8136	1187.2774	1249.3168	1305.7971	1309.6184	1328.6637	1338.0206	1379.9897	1411.079	1461.6056	1473.3007	1484.6063	1491.359	1499.229	1509.0023	1552.2241	1660.927	3000.2684	3024.9882	3028.3377	3053.9876	3071.8241	3096.0007	3102.7723	3228.7117	3281.2172	3685.9771	3847.9075
CCCC1=CC(O)=CN1	CCCc1cc(O)c[nH]1	
InChI=1S/C7H11NO/c1-2-3-6-4-7(9)5-8-6/h4-5,8-9H,2-3H2,1H3	InChI=1S/C7H11NO/c1-2-3-6-4-7(9)5-8-6/h4-5,8-9H,2-3H2,1H3
