21
gdb 99752	2.00893	1.35448	0.97701	3.1077	75.17	-0.2099	0.0316	0.2415	1288.5576	0.18092	-457.5549	-457.544076	-457.543132	-457.590861	39.194	
C	 0.833748181	-0.2047801759	 0.7512969819	-0.340682
N	-0.2819944674	 0.0770929874	-0.1474604653	-0.067588
C	 0.1585656389	 0.1875009296	-1.5350666473	-0.328618
C	-1.4567038457	-0.7799936294	 0.0530643757	-0.124034
C	-1.1931839755	-2.2896485691	 0.2227749991	-0.067051
O	-0.4647108227	-2.8460166723	-0.8643013143	-0.423761
C	-2.3457173565	-0.286372755	 1.2198804762	 0.395896
N	-2.1273221976	 1.0030244724	 1.5736071197	-0.517048
O	-3.1843322545	-1.0047116301	 1.7352506244	-0.378378
H	 1.5685114599	 0.6035089643	 0.672829539	 0.115584
H	 0.481726127	-0.237367411	 1.7866500596	 0.125629
H	 1.348561468	-1.1520925106	 0.5257220431	 0.125516
H	 0.5916008978	-0.7436049044	-1.9287379385	 0.120311
H	-0.6868169751	 0.4745715792	-2.1687850026	 0.112842
H	 0.91351397	 0.9781212367	-1.6099756645	 0.113599
H	-2.0835207156	-0.6569665891	-0.8417799534	 0.096324
H	-0.5835567513	-2.4693618523	 1.1128552776	 0.117358
H	-2.1518156465	-2.792013803	 0.3860364216	 0.122927
H	-1.0540194553	-2.8940675401	-1.6236047805	 0.282595
H	-1.4246368178	 1.5242088624	 1.0735892554	 0.260709
H	-2.6989329211	 1.4223711405	 2.2869052032	 0.257869
46.028	80.6347	119.1691	196.5547	205.052	234.5592	265.5945	282.5221	306.9577	320.4357	359.4024	373.1522	388.4972	487.3219	514.66	585.4815	656.2001	728.1487	803.0562	932.4737	956.4217	1020.3304	1067.4763	1079.8603	1089.8755	1109.7856	1117.1349	1167.4174	1192.2276	1223.7482	1284.8602	1312.3571	1350.3722	1380.3779	1387.3406	1410.5167	1439.1125	1471.3486	1480.546	1494.0219	1499.2263	1515.7092	1527.2763	1565.4743	1789.2243	2980.7158	2995.4259	3009.8327	3055.2971	3062.7098	3063.0582	3093.3894	3101.9194	3105.5251	3579.5682	3730.798	3818.5032
CN(C)C(CO)C(N)=O	CN(C)[C@@H](CO)C(=O)N	
InChI=1S/C5H12N2O2/c1-7(2)4(3-8)5(6)9/h4,8H,3H2,1-2H3,(H2,6,9)	InChI=1S/C5H12N2O2/c1-7(2)4(3-8)5(6)9/h4,8H,3H2,1-2H3,(H2,6,9)/t4-/m0/s1
