16
gdb 48506	4.97267	1.30694	1.3045	3.151	73.52	-0.2374	-0.0316	0.2058	988.3589	0.125207	-400.66684	-400.660171	-400.659227	-400.69811	26.094	
O	-0.2781970188	 0.4009770549	-0.7697192259	-0.276376
C	 0.0913925679	 1.0751037634	 0.1651926017	 0.012132
C	 1.3060271623	 1.8911468498	 0.1507497714	 0.297037
C	 2.7075896371	 1.6256400927	-0.3693112958	-0.134791
C	 1.9114539278	 2.8011785196	-0.9031029992	-0.134832
C	 2.2350994214	 3.8432803897	 0.1836341355	-0.006674
C	 3.7229786357	 3.7105927247	 0.5505353862	-0.245767
C	 3.2998062805	 2.2727159724	 0.8965161636	-0.006699
N	 1.8777179441	 2.7732672945	 1.2416788533	-0.225799
H	-0.4764524259	 1.1240352031	 1.1204258612	 0.084143
H	 3.0428534409	 0.7977801125	-0.9785327582	 0.11617
H	 1.6135774302	 2.9082428013	-1.9368849522	 0.116169
H	 1.6933135365	 4.7879429219	 0.1990091528	 0.088269
H	 4.4766890064	 3.8702069259	-0.2235083444	 0.107464
H	 3.9621321618	 4.2817296199	 1.4511028536	 0.121313
H	 3.8203264619	 1.6505252638	 1.6232060864	 0.088241
105.3548	151.7767	184.0715	384.6769	453.2043	549.1312	701.5767	758.5685	759.0997	786.3789	837.4941	845.6023	853.6847	905.0468	913.7613	946.1692	946.4661	1002.587	1013.3396	1015.3002	1046.5708	1059.0671	1095.8399	1113.3894	1162.7313	1210.2293	1221.5924	1232.8749	1234.6924	1291.6586	1302.1595	1395.146	1429.1173	1476.7311	1790.5353	2890.4902	3068.3747	3127.0221	3128.4733	3132.9536	3214.0011	3222.7701
O=CC12C3C1C1CC3N21	O=C[C@@]12[C@H]3[C@@H]1[C@@H]1C[C@H]3N21	
InChI=1S/C7H7NO/c9-2-7-5-3-1-4(6(5)7)8(3)7/h2-6H,1H2	InChI=1S/C7H7NO/c9-2-7-5-3-1-4(6(5)7)8(3)7/h2-6H,1H2/t3-,4+,5-,6+,7-
