20
gdb 98970	5.10322	0.72639	0.64373	5.7357	79.95	-0.2415	0.017	0.2585	1770.4673	0.169896	-436.521178	-436.510171	-436.509227	-436.558764	37.534	
C	-0.2046378412	 1.5549643408	 0.1061118906	-0.365386
C	-0.0137240724	 0.0610058066	-0.1402837793	-0.27489
C	 0.8410189722	-0.2532366073	-1.353890464	 0.395778
N	 1.3363459703	 0.6622871461	-2.075819106	-0.50607
N	 0.9849238354	-1.6466895093	-1.5435400249	-0.432616
C	 1.7137435863	-2.2719869501	-2.5501058716	 0.52773
O	 2.3429683641	-1.6660654037	-3.4010886736	-0.396333
N	 1.6764645385	-3.6435638335	-2.4807024624	-0.365113
C	 2.2855063178	-4.4606071847	-3.5133017767	-0.327961
H	 0.7574983105	 2.0494296692	 0.2553904623	 0.136579
H	-0.6822734947	 2.0315380392	-0.7525385924	 0.136224
H	-0.8264975021	 1.7177281727	 0.9914671275	 0.101037
H	 0.446447748	-0.4139314659	 0.7385959974	 0.109612
H	-0.9884083379	-0.4323631914	-0.2663322446	 0.10923
H	 1.8822934011	 0.2579923443	-2.8377518897	 0.249246
H	 0.551525476	-2.2318103146	-0.8466532955	 0.237955
H	 1.0052138039	-4.0832290881	-1.872986054	 0.238279
H	 1.5507043466	-4.8287093496	-4.2403986317	 0.125637
H	 3.0104557431	-3.8394913115	-4.0393574105	 0.175209
H	 2.7997390444	-5.3169976793	-3.0669926709	 0.125853
42.3026	51.8057	81.4	89.0608	141.2075	145.7592	220.9639	268.6898	301.2016	335.1662	362.4355	425.2189	486.0651	544.5224	634.0373	740.2628	762.6365	811.9055	881.579	968.1095	973.2796	1016.0597	1059.5418	1107.2513	1117.2083	1154.0657	1164.2375	1176.41	1230.6773	1291.7419	1315.0232	1403.2763	1414.8402	1441.3532	1472.1189	1488.5983	1493.7808	1498.68	1501.3909	1513.2759	1561.3021	1736.8095	1795.6521	3001.3529	3022.2668	3027.7068	3052.8865	3085.7854	3125.1284	3138.8536	3159.7773	3480.61	3619.5883	3640.8139
CCC(=N)NC(=O)NC	CCC(=N)NC(=O)NC	
InChI=1S/C5H11N3O/c1-3-4(6)8-5(9)7-2/h3H2,1-2H3,(H3,6,7,8,9)	InChI=1S/C5H11N3O/c1-3-4(6)8-5(9)7-2/h3H2,1-2H3,(H3,6,7,8,9)
