19
gdb 89249	2.56068	1.80481	1.3593	2.8738	73.64	-0.2443	0.0645	0.3087	999.7127	0.158954	-422.96625	-422.958473	-422.957529	-422.99794	31.65	
C	-0.0053064358	 1.5508744643	-0.0149517472	-0.49669
C	-0.0062821506	 0.0400735532	 0.0310559489	 0.322274
C	-1.3305569708	-0.7290207548	 0.3090655492	-0.335355
C	-0.6360584958	-1.5229213079	 1.469636158	 0.157009
O	-0.641425482	-2.9215901104	 1.4214645692	-0.44096
C	 0.7064972406	-0.7684951986	 1.1767184334	-0.157721
C	 1.6299984754	-1.394188033	 0.1103337246	 0.016348
O	 0.8065394603	-2.0813405808	-0.8525988173	-0.260651
C	 0.9549269153	-0.6579865978	-0.9736103728	-0.03004
H	 1.0150555956	 1.9510962199	-0.0398893928	 0.117421
H	-0.5280227924	 1.9191937337	-0.9062191269	 0.121143
H	-0.5071574144	 1.9717057242	 0.8625496107	 0.121381
H	-2.1475725609	-0.0831977519	 0.6424080809	 0.098203
H	-1.6882134701	-1.3600459875	-0.5075171353	 0.10472
H	-1.0378818978	-1.2494798917	 2.449067239	 0.087443
H	-0.3201745986	-3.156720674	 0.5414946615	 0.293587
H	 1.2194094298	-0.2657352448	 1.9976862049	 0.068852
H	 2.6487192984	-1.7511101124	 0.2089921307	 0.110407
H	 1.3155720238	-0.2929523097	-1.9301624787	 0.102628
150.7807	224.3039	238.1611	248.4109	280.561	339.5351	428.5222	486.7844	541.6312	567.9766	663.5753	723.74	790.9576	802.202	816.3711	846.4578	866.0412	907.6008	938.2391	959.2101	972.6914	1007.6797	1051.7872	1070.5369	1106.004	1135.1302	1164.3485	1199.0155	1209.6004	1226.8239	1240.0248	1252.5634	1292.8204	1323.7217	1332.4878	1377.2044	1412.6317	1454.4706	1466.4962	1491.2823	1493.8775	3019.1099	3057.7996	3070.4856	3080.3061	3094.6641	3106.6642	3119.3514	3163.9483	3186.6622	3771.3937
CC12CC(O)C1C1OC21	C[C@]12C[C@@H](O)[C@H]1[C@H]1O[C@@H]21	
InChI=1S/C7H10O2/c1-7-2-3(8)4(7)5-6(7)9-5/h3-6,8H,2H2,1H3	InChI=1S/C7H10O2/c1-7-2-3(8)4(7)5-6(7)9-5/h3-6,8H,2H2,1H3/t3-,4+,5-,6-,7+/m1/s1
