20
gdb 52620	3.49677	0.77754	0.74424	4.3123	88.79	-0.2588	0.0243	0.2831	1621.7759	0.167622	-366.018031	-366.006948	-366.006004	-366.055765	38.656	
C	 0.0049436747	 1.4665497411	 0.0631243163	-0.499532
C	 0.0101147989	 0.0108770155	 0.0188685448	 0.065956
C	 0.0106320431	-1.1927429109	-0.0253775085	 0.071951
C	 0.0151572368	-2.658878011	-0.0715501678	 0.033909
C	-1.4334291135	-3.1867883643	-0.1603851222	-0.40786
C	 0.8320126816	-3.1442319725	-1.2889927259	-0.407859
C	 0.6839431017	-3.1582365805	 1.252065743	-0.342258
C	 0.7603638167	-4.6144240758	 1.3505207863	 0.26607
N	 0.8149219734	-5.7672325367	 1.4165329072	-0.32139
H	 0.5561869251	 1.891798084	-0.7826463859	 0.151368
H	-1.0161189935	 1.8616748793	 0.0265302204	 0.151339
H	 0.4709846392	 1.8376494871	 0.9824757061	 0.150183
H	-1.910300506	-2.8251264494	-1.074809021	 0.127365
H	-1.4420503348	-4.2808255335	-0.1730024839	 0.138529
H	-2.0284981847	-2.8430835502	 0.690533785	 0.122548
H	 1.8588789695	-2.7700544816	-1.2460966758	 0.122551
H	 0.8600572322	-4.2375802241	-1.319874698	 0.138529
H	 0.3784092838	-2.7821336551	-2.2150086708	 0.127362
H	 1.696184431	-2.7479442685	 1.325741274	 0.155618
H	 0.121143135	-2.7775483731	 2.1103972563	 0.155621
15.2229	69.57	79.9746	126.3576	162.993	237.7361	270.2775	283.5398	289.7742	342.1933	351.8172	357.135	401.9831	489.3067	544.2324	544.7087	701.7557	815.7629	892.5835	950.8735	956.9495	968.1474	1042.8519	1053.2054	1054.4317	1076.5868	1138.6972	1210.0073	1251.8447	1277.8479	1336.2788	1399.5492	1414.658	1422.2388	1460.303	1477.7826	1478.4362	1482.7834	1487.4559	1500.5388	1509.2517	2357.0437	2368.0666	3028.2636	3040.1847	3043.7089	3054.8568	3089.6966	3090.1229	3096.053	3116.2083	3118.4511	3121.651	3125.8216	15.2113	69.5695	79.9735	126.3576	162.9929	237.736	270.2774	283.5411	289.776	342.1933	351.8183	357.1355	401.9831	489.307	544.2343	544.7097	701.7558	815.7631	892.5834	950.8735	956.9495	968.1476	1042.8518	1053.2058	1054.432	1076.5871	1138.6974	1210.0073	1251.8448	1277.8478	1336.2787	1399.5493	1414.6579	1422.2389	1460.3029	1477.7827	1478.4364	1482.7834	1487.4559	1500.5387	1509.2517	2357.0439	2368.0675	3028.2635	3040.1848	3043.709	3054.8569	3089.6965	3090.1228	3096.053	3116.2083	3118.4511	3121.651	3125.8216
CC#CC(C)(C)CC#N	CC#CC(C)(C)CC#N	
InChI=1S/C8H11N/c1-4-5-8(2,3)6-7-9/h6H2,1-3H3	InChI=1S/C8H11N/c1-4-5-8(2,3)6-7-9/h6H2,1-3H3
