19
gdb 89429	2.88235	1.69935	1.47101	2.6174	73.14	-0.2343	0.0775	0.3118	970.1358	0.160094	-422.999781	-422.992314	-422.99137	-423.031166	30.918	
C	 0.0326509723	 1.4757065171	 0.0931711175	-0.481477
C	-0.0326963282	-0.0142837606	-0.1120636465	 0.412277
C	 0.7210016106	-0.6345837405	-1.2841561032	-0.273889
C	 0.3862020786	-2.1495851178	-1.160534787	 0.12486
O	 1.4252228	-2.8985598117	-0.5547281656	-0.446013
C	-0.9114374635	-2.1605588663	-0.338243421	-0.112546
C	-0.7870723091	-1.5361169938	 1.0363740424	 0.080959
O	 0.4066412751	-0.7492401526	 1.1097330259	-0.356043
C	-1.3993263861	-0.7485637732	-0.0704223891	-0.196581
H	 1.0671377065	 1.7920066579	 0.2596317365	 0.130839
H	-0.3483519487	 1.9996174325	-0.7899339497	 0.120448
H	-0.5619661947	 1.7737324253	 0.9608443499	 0.128752
H	 0.3462117523	-0.2172799858	-2.2262019091	 0.098539
H	 1.8012963027	-0.4711704098	-1.2362997866	 0.108902
H	 0.2331986145	-2.6053930007	-2.1421522361	 0.081891
H	 1.5840051901	-2.4720986563	 0.2976103915	 0.285566
H	-1.6298157152	-2.9642404356	-0.4521191777	 0.091952
H	-1.1797684765	-1.950694729	 1.9570506386	 0.105519
H	-2.3880704006	-0.3412605293	-0.2303016008	 0.096045
143.4148	209.3398	243.9012	291.5916	354.1762	418.6765	470.0572	511.4291	561.5907	602.8193	677.6667	757.4775	792.8864	801.8477	814.753	857.9426	877.2657	917.055	940.628	975.9424	1015.0496	1028.2858	1036.9568	1052.3773	1062.4619	1086.4321	1117.6612	1191.2777	1196.7202	1221.4732	1245.9739	1293.5752	1300.7141	1320.8388	1353.0885	1392.6013	1411.8281	1452.11	1472.4405	1481.4358	1491.259	3035.7911	3040.5637	3077.5643	3101.2597	3108.8336	3119.2359	3180.9617	3187.7628	3209.4642	3766.4685
CC12CC(O)C3C(O1)C23	C[C@@]12C[C@@H](O)[C@H]3[C@@H](O1)[C@@H]23	
InChI=1S/C7H10O2/c1-7-2-3(8)4-5(7)6(4)9-7/h3-6,8H,2H2,1H3	InChI=1S/C7H10O2/c1-7-2-3(8)4-5(7)6(4)9-7/h3-6,8H,2H2,1H3/t3-,4-,5+,6-,7+/m1/s1
