19
gdb 96309	2.10576	1.55603	0.98773	2.7157	71.76	-0.2409	-0.0173	0.2237	1195.9207	0.159382	-460.176937	-460.168249	-460.167305	-460.210962	32.644	
O	-0.2994555478	 1.4506949542	 0.4649055561	-0.42521
C	-0.0726999289	 0.0952650035	 0.0982696696	 0.091593
C	 1.1559839414	-0.4321422741	 0.8560415196	-0.102243
O	 1.4717763482	-1.78398745	 0.6023354806	-0.244124
C	 0.6230003353	-2.7249483188	 1.2419189217	-0.087902
C	-0.5484979111	-3.1567812665	 0.3606167877	-0.298895
C	-1.4266761614	-2.0401596596	-0.2062684524	 0.372571
O	-2.1510249821	-2.2593328244	-1.1489876853	-0.301662
C	-1.3707163714	-0.6583452704	 0.4330265573	-0.300474
H	 0.4436998415	 1.9764100072	 0.1506789893	 0.287894
H	 0.1098015835	 0.0088966113	-0.9841887504	 0.088357
H	 2.0374392626	 0.1456133885	 0.552480527	 0.098444
H	 0.99512866	-0.2562324735	 1.9320587982	 0.099214
H	 1.2415980369	-3.6000208152	 1.4684768414	 0.113599
H	 0.2678586106	-2.3214911661	 2.2018760763	 0.095913
H	-0.1915848483	-3.7401823447	-0.493655802	 0.139685
H	-1.2064031228	-3.8247415715	 0.9345045565	 0.128609
H	-1.4733747936	-0.7266229908	 1.5237658467	 0.110747
H	-2.2099387226	-0.0813193791	 0.0405019621	 0.133885
32.9436	132.1035	178.7759	264.1601	271.2097	303.4155	354.3775	387.2127	443.3457	498.3097	525.8308	548.1587	586.8955	766.0164	845.3017	889.5459	896.6587	950.9919	998.1035	1030.2984	1069.2943	1074.993	1090.1523	1157.7832	1188.4993	1217.1758	1240.8579	1263.4959	1275.1951	1309.3676	1322.0826	1350.1809	1365.1867	1399.5449	1415.6839	1437.032	1438.0869	1477.3596	1488.1856	1503.5176	1808.1727	2975.2531	2987.5429	2993.4096	3025.8459	3033.3905	3056.3799	3065.7797	3092.995	3122.8398	3811.8806
OC1COCCC(=O)C1	O[C@H]1COCCC(=O)C1	
InChI=1S/C6H10O3/c7-5-1-2-9-4-6(8)3-5/h6,8H,1-4H2	InChI=1S/C6H10O3/c7-5-1-2-9-4-6(8)3-5/h6,8H,1-4H2/t6-/m1/s1
