17
gdb 73892	2.29546	1.65467	1.03711	5.2924	79.42	-0.2114	-0.0379	0.1734	1127.0014	0.136854	-418.005133	-417.997096	-417.996152	-418.037586	30.839	
N	 0.0793786761	 1.3477073433	-0.1586617295	-0.58087
C	-0.0071359353	-0.0044720697	-0.0387384989	 0.243472
C	-1.1035979308	-0.8172090154	-0.0247206333	 0.162558
C	-2.4862813014	-0.413541404	 0.0212830559	 0.041945
O	-3.4376557017	-1.1728865942	 0.0432213775	-0.297763
C	-0.6532081005	-2.2405205619	-0.0286924929	-0.121549
C	 0.1483957103	-2.6778350208	-1.2036414476	-0.238835
N	 0.8316527078	-2.2489443894	 0.0267978371	-0.110326
C	 1.2584045604	-0.8427592349	 0.0237861036	-0.243598
H	 0.9240965543	 1.7989038587	 0.154209637	 0.265269
H	-0.7563583509	 1.9025637641	-0.0634778762	 0.268401
H	-2.6560973724	 0.6910633295	 0.0555079633	 0.026291
H	-1.1866730999	-2.9635600636	 0.5796204668	 0.110082
H	 0.2682996265	-3.7337607502	-1.4297513137	 0.119214
H	 0.1651629243	-2.0156069598	-2.0674982624	 0.107754
H	 1.9323670035	-0.6298451816	-0.8155621706	 0.127224
H	 1.8154417399	-0.6243919402	 0.9467811037	 0.120731
116.1262	164.7866	171.8612	236.8175	316.5833	381.9761	389.8305	435.1793	491.7798	531.1884	602.0585	628.87	699.3996	730.1029	820.591	854.9843	942.3437	990.5028	1017.2713	1025.8908	1047.2852	1085.4486	1110.9118	1161.18	1196.0885	1214.4421	1248.9545	1271.2574	1306.5036	1362.013	1423.2418	1462.5731	1480.9097	1498.4483	1632.1216	1684.1469	1758.0977	2807.6552	2997.892	3047.2529	3094.9777	3165.3795	3187.585	3585.4738	3694.0152
NC1=C(C=O)C2CN2C1	NC1=C(C=O)[C@H]2CN2C1	
InChI=1S/C6H8N2O/c7-5-1-8-2-6(8)4(5)3-9/h3,6H,1-2,7H2	InChI=1S/C6H8N2O/c7-5-1-8-2-6(8)4(5)3-9/h3,6H,1-2,7H2/t6-,8?/m1/s1
