22
gdb 60982	3.15935	0.97897	0.91443	3.8928	84.44	-0.2341	0.0288	0.2629	1403.4023	0.192231	-404.367768	-404.357395	-404.356451	-404.402911	37.992	
C	-0.6138437674	 1.1752612852	 0.0755592761	-0.347377
N	-0.039833435	-0.1605604254	 0.159425333	-0.042776
C	 0.679477923	-0.5067191558	 1.2719095688	 0.149964
O	 0.7909101122	 0.1678636863	 2.274504906	-0.343297
C	 0.0098953494	-0.9351082412	-1.045100492	-0.028936
C	-0.0938637372	-2.4415817419	-1.0047467281	-0.353875
C	-1.2216863054	-1.632418829	-1.6029792145	 0.332761
C	-2.5246301162	-1.576809583	-0.8291259732	-0.456802
C	-1.3801221299	-1.6393659773	-3.1112000392	-0.452009
H	-0.0984926837	 1.7727474061	-0.6874341589	 0.121323
H	-1.6752701051	 1.1253323371	-0.1833468797	 0.126884
H	-0.4926442167	 1.6524635196	 1.0478894772	 0.166686
H	 1.1509183081	-1.4991356122	 1.1606574007	 0.080273
H	 0.6822480994	-0.5237347793	-1.7996247826	 0.091053
H	 0.5596380376	-3.0076587587	-1.6597990599	 0.11736
H	-0.2773932064	-2.9113678475	-0.0452035553	 0.123319
H	-2.3526695139	-1.4760517971	 0.2455974325	 0.127522
H	-3.1429326467	-0.7323561329	-1.1545182879	 0.116493
H	-3.1070329618	-2.4905796025	-0.9926893787	 0.119099
H	-1.9502349598	-2.5157773825	-3.4404011922	 0.120094
H	-1.9147832464	-0.7468778976	-3.4568251113	 0.117547
H	-0.4101275181	-1.6666483104	-3.6176997106	 0.114695
64.2121	121.7222	137.7467	147.9832	215.5573	233.9925	245.288	285.1097	337.145	350.6703	362.4084	375.7081	444.164	510.4672	678.387	717.0963	823.6763	869.2703	918.4613	946.4637	973.7057	991.9805	1037.7758	1041.4435	1067.2068	1079.3038	1121.972	1137.9955	1155.8009	1162.9821	1280.9119	1285.5986	1334.9043	1385.3753	1406.6014	1417.594	1425.1564	1438.1516	1443.8477	1481.8676	1486.4876	1493.1217	1498.8928	1501.5169	1514.1148	1516.571	1790.7018	2978.6001	3022.0519	3022.4294	3029.0361	3079.7744	3082.7902	3085.2179	3090.2441	3099.256	3115.3026	3136.4462	3159.6032	3221.6108
CN(C=O)C1CC1(C)C	CN(C=O)[C@H]1CC1(C)C	
InChI=1S/C7H13NO/c1-7(2)4-6(7)8(3)5-9/h5-6H,4H2,1-3H3	InChI=1S/C7H13NO/c1-7(2)4-6(7)8(3)5-9/h5-6H,4H2,1-3H3/t6-/m0/s1
