18
gdb 57720	3.07846	0.91482	0.85648	3.465	75.97	-0.2522	0.0183	0.2705	1398.6436	0.144319	-439.075588	-439.065291	-439.064347	-439.111338	37.083	
C	-0.3508329774	 1.4912554226	-0.0858942734	-0.392814
C	-0.0540230501	-0.0105174538	-0.016016059	 0.139203
O	 0.7025934664	-0.2107791638	 1.1920741185	-0.458673
C	-1.3527143564	-0.8559766612	 0.0701813647	-0.169926
N	-2.0649695624	-0.5824737103	 1.2990068363	-0.273786
C	-3.3699070889	-0.2016363522	 1.3397004476	 0.150327
O	-4.1024352418	-0.1011127723	 0.3784003277	-0.32251
C	 0.7195828634	-0.4509238617	-1.1814359721	 0.304008
C	 1.3493409272	-0.8562680967	-2.1217692598	-0.460115
H	 0.5856447403	 2.050972076	-0.1181453157	 0.134335
H	-0.9393119504	 1.724325116	-0.9760348355	 0.135491
H	-0.9136297777	 1.7947560133	 0.7996417624	 0.127677
H	 1.1863899636	-1.0392204353	 1.100765919	 0.288291
H	-2.0251473934	-0.6327751636	-0.7600569755	 0.156283
H	-1.0789630246	-1.9170426784	 0.009063194	 0.107553
H	-1.5198362081	-0.5761300073	 2.1475461039	 0.253414
H	-3.7016277527	 0.0042302676	 2.3767332034	 0.075439
H	 1.9088375228	-1.1971923289	-2.9582191365	 0.205803
38.7235	75.8333	133.7453	184.3755	207.497	232.7097	253.703	297.19	321.0153	370.5167	398.7938	477.7529	556.0205	567.5333	596.4979	641.8473	676.6838	735.7303	788.2154	915.003	943.9428	954.4945	1030.4001	1035.2571	1110.1606	1172.2249	1180.8685	1213.967	1263.6055	1347.5055	1387.1924	1415.0498	1429.5774	1479.867	1488.5195	1494.8407	1522.2483	1804.7989	2232.4071	2937.4452	3022.9631	3060.0655	3129.7072	3140.7649	3145.5324	3498.8612	3628.3062	3808.6544
CC(O)(CNC=O)C#C	C[C@@](O)(CNC=O)C#C	
InChI=1S/C6H9NO2/c1-3-6(2,9)4-7-5-8/h1,5,9H,4H2,2H3,(H,7,8)	InChI=1S/C6H9NO2/c1-3-6(2,9)4-7-5-8/h1,5,9H,4H2,2H3,(H,7,8)/t6-/m0/s1
