21
gdb 90981	2.61305	1.81119	1.30479	2.0583	81.16	-0.2268	0.0781	0.3049	1043.8474	0.182968	-387.045301	-387.037342	-387.036398	-387.077246	32.408	
C	-0.1270324107	 1.5615272151	-0.0331729681	-0.408174
C	 0.0186051939	 0.0383182797	-0.0002843165	-0.04713
C	 0.9308015778	-0.533014437	-1.1331486922	-0.274692
C	 1.9655110731	-1.2817955803	-0.307379048	-0.032167
C	 1.2787804626	-1.9414116488	 0.9193531233	 0.000277
O	 2.4721973741	-1.7225348049	 1.7491754743	-0.322201
C	 2.2922587212	-0.4798328851	 0.9828948839	 0.009292
C	 0.743599035	-0.5036640975	 1.2394739	 0.364293
C	 0.2095505973	-0.2077663379	 2.6200149958	-0.512743
H	 0.8489721716	 2.0549303919	 0.0458171799	 0.11326
H	-0.5873129337	 1.8882630525	-0.9714720123	 0.115231
H	-0.7527192298	 1.926523702	 0.7875548879	 0.117288
H	-0.9829459716	-0.40696202	-0.057290494	 0.068992
H	 0.3895922175	-1.1925740982	-1.8187767527	 0.10101
H	 1.381625597	 0.2633124606	-1.735346989	 0.099503
H	 2.7778040699	-1.8234424945	-0.7905315298	 0.075966
H	 0.7710489562	-2.9043367666	 1.0024841412	 0.082555
H	 3.015974997	 0.3211742177	 1.1433443864	 0.083437
H	 0.2037821962	 0.867419416	 2.8279754485	 0.116517
H	-0.8192625649	-0.5697942377	 2.730838901	 0.112178
H	 0.8339187701	-0.6996011169	 3.3704337002	 0.137306
108.9255	224.1715	235.6902	264.8656	298.0024	314.042	362.7829	465.4865	506.3485	644.8293	674.9075	693.5995	758.8427	790.5834	831.5811	874.3534	892.6099	915.3327	929.5639	937.3532	1002.3354	1003.0565	1038.3329	1080.6461	1089.3754	1106.7081	1144.4471	1158.4938	1177.7044	1188.2937	1238.3016	1242.6746	1250.1972	1276.7131	1293.8568	1332.3606	1361.931	1369.5565	1403.9485	1411.2201	1490.0784	1494.9852	1496.4066	1499.6809	1506.542	3016.564	3026.0786	3030.5201	3042.4558	3082.0482	3088.6667	3092.2872	3096.0982	3101.2353	3101.7357	3119.7984	3134.3251
CC1CC2C3OC2C13C	C[C@H]1C[C@@H]2[C@H]3O[C@@H]2[C@@]13C	
InChI=1S/C8H12O/c1-4-3-5-6-8(4,2)7(5)9-6/h4-7H,3H2,1-2H3	InChI=1S/C8H12O/c1-4-3-5-6-8(4,2)7(5)9-6/h4-7H,3H2,1-2H3/t4-,5-,6-,7+,8+/m0/s1
