21
gdb 65201	3.34537	1.2018	1.12932	1.6899	81.81	-0.2437	0.0824	0.326	1188.1999	0.182081	-387.037477	-387.028994	-387.02805	-387.070663	33.397	
C	 0.1552233167	 1.5655425007	 0.1347569757	-0.464757
C	 0.0559482675	 0.0527855143	 0.0428552966	 0.37419
C	 1.0422300776	-0.6494725529	-0.8669696988	-0.30577
C	 1.1933800541	-0.7534498653	 0.6314821804	-0.304539
C	-1.3228917253	-0.5656287882	 0.1381272914	-0.06282
C	-2.2783750451	-0.270827421	 1.3636086404	-0.293454
C	-3.3619609144	 0.1297346369	 0.3551389757	 0.033824
O	-2.8480191111	 1.2361325191	-0.3939580006	-0.240798
C	-2.4599637559	-0.0873008722	-0.7879561064	-0.002074
H	 1.1996871472	 1.8828076571	 0.050751922	 0.100834
H	-0.417464534	 2.0554259608	-0.6566021962	 0.13387
H	-0.2273963723	 1.9387930735	 1.0903530178	 0.115125
H	 0.7124881793	-1.5298128301	-1.4092952195	 0.104271
H	 1.7535934128	-0.0380744599	-1.411854305	 0.109664
H	 2.0082893961	-0.2137337574	 1.1023887498	 0.108268
H	 0.9635707919	-1.7041210115	 1.1019711072	 0.104833
H	-1.230318861	-1.6525483628	 0.0332425071	 0.071108
H	-2.5101707643	-1.1705240085	 1.9378930313	 0.104431
H	-1.9794514846	 0.5285945098	 2.0448099035	 0.112569
H	-4.4393357969	 0.0413185841	 0.4298602606	 0.102621
H	-2.6674463482	-0.3709868564	-1.813843973	 0.098603
52.0725	154.875	185.81	233.5665	283.1774	321.4138	337.2791	410.645	460.8958	549.5307	709.3287	754.0455	786.612	831.3159	843.1781	864.6393	874.2325	900.9018	933.0741	956.2057	959.517	990.1184	1024.1621	1039.0036	1039.774	1056.4986	1075.9957	1085.6502	1124.3415	1141.3065	1188.1469	1209.4121	1238.5231	1243.4005	1274.1516	1276.3707	1337.4709	1387.4879	1397.5673	1428.497	1467.4841	1473.5157	1492.2149	1497.8694	1506.5357	3036.1644	3040.8848	3070.4983	3096.687	3119.489	3123.4144	3126.4333	3128.3217	3174.9479	3193.6	3200.7365	3215.1129
CC1(CC1)C1CC2OC12	CC1(CC1)[C@H]1C[C@H]2O[C@@H]12	
InChI=1S/C8H12O/c1-8(2-3-8)5-4-6-7(5)9-6/h5-7H,2-4H2,1H3	InChI=1S/C8H12O/c1-8(2-3-8)5-4-6-7(5)9-6/h5-7H,2-4H2,1H3/t5-,6+,7-/m0/s1
