14
gdb 9979	2.6315	1.66108	1.09696	3.7252	66.99	-0.2594	-0.0281	0.2313	1036.8775	0.105742	-378.705442	-378.697038	-378.696094	-378.739166	28.975	
N	 0.0351572195	 1.2180367876	 0.0951196213	-0.457206
C	-0.1136379561	-0.0307499646	 0.2631919876	 0.106586
N	-1.3265400071	-0.68292608	 0.034411003	-0.081833
C	-1.3912621844	-2.1468193507	 0.127653015	-0.328394
C	-0.9596937513	-2.6609706303	 1.4230416429	 0.300925
C	-0.5863254208	-3.0880001045	 2.4818784694	-0.44309
C	-2.4836282402	 0.0121395134	-0.2920960817	 0.17288
O	-3.5430396651	-0.524080165	-0.5220095415	-0.31954
H	 0.9849565257	 1.4965010934	 0.3298685552	 0.237289
H	 0.6593830376	-0.7269248233	 0.6031779218	 0.119422
H	-2.4359816562	-2.4052018293	-0.0663935976	 0.187954
H	-0.7898695896	-2.5962435269	-0.6725033256	 0.149478
H	-0.2724549833	-3.4700500916	 3.42210537	 0.210396
H	-2.3139925688	 1.0963421319	-0.31246787	 0.145131
44.9062	89.7314	150.1854	220.7527	258.2594	308.8052	313.9256	327.4329	471.1533	626.9242	640.0846	676.7051	705.1747	811.3835	861.6205	971.1444	995.9391	1051.8783	1064.2517	1150.5034	1244.5947	1258.883	1362.5217	1399.3363	1426.4853	1436.2498	1483.328	1728.6066	1795.284	2243.1498	3028.9065	3069.2697	3076.2309	3098.9142	3503.048	3519.9026
N=CN(CC#C)C=O	N=CN(CC#C)C=O	
InChI=1S/C5H6N2O/c1-2-3-7(4-6)5-8/h1,4-6H,3H2	InChI=1S/C5H6N2O/c1-2-3-7(4-6)5-8/h1,4-6H,3H2
