15
gdb 56108	3.74355	1.0923	1.01775	4.4953	69.13	-0.2656	-0.0485	0.217	1172.4113	0.11325	-450.145747	-450.137178	-450.136234	-450.179459	31.597	
N	 0.2253233855	 0.6863304329	-0.7756950366	-0.503979
C	-0.4714644949	-0.4910973576	-0.4036324636	 0.325837
N	 0.3914453954	-1.3968630973	 0.2636307392	-0.503914
H	-0.0856124909	-2.2668472993	 0.4706448826	 0.249165
H	 1.2153063778	-1.6134828815	-0.2884058178	 0.242123
C	-1.7812381542	-0.2050015765	 0.3790806764	-0.214669
N	-2.9019558025	-0.6926393587	-0.4198819495	-0.308382
C	-2.3805396133	-1.1796938383	-1.4780441205	 0.292244
O	-1.0561815264	-1.1687144131	-1.6683021721	-0.30865
C	-3.1598511634	-1.7693622754	-2.5369357464	 0.277387
N	-3.769729235	-2.2451767797	-3.3948808473	-0.317313
H	 1.0480451815	 0.4807216624	-1.3336107016	 0.242131
H	-0.3706885093	 1.3066262258	-1.3117105379	 0.24918
H	-1.7596175208	-0.7033864872	 1.3533382747	 0.139425
H	-1.8846328195	 0.8678487635	 0.5696597804	 0.139415
37.683	143.1188	155.6678	218.9937	319.1024	322.8679	401.7029	415.9569	438.7324	484.7297	567.3805	575.3475	645.7419	684.0357	724.8432	764.9183	834.2113	878.904	971.2751	985.0333	1057.0666	1089.4114	1112.5221	1173.0844	1277.5034	1341.0153	1395.7523	1441.05	1487.7981	1647.641	1675.2172	1691.8172	2368.7343	3055.3848	3091.9268	3514.49	3516.45	3601.8237	3601.9075
NC(=[NH2+])C[N-]C(=O)C#N	NC1(N)CN=C(O1)C#N	
InChI=1S/C4H6N4O/c5-1-4(9)8-2-3(6)7/h2H2,(H4,6,7,8,9)	InChI=1S/C4H6N4O/c5-1-3-8-2-4(6,7)9-3/h2,6-7H2
