18
gdb 80663	2.71971	1.80647	1.31409	5.044	72.	-0.2356	0.0533	0.2889	994.5534	0.149513	-439.114994	-439.107306	-439.106362	-439.147631	29.363	
C	-0.0504109375	 1.4414558786	 0.0411319682	-0.348298
N	-0.013600233	-0.0073175121	 0.043794748	-0.125628
C	-1.2463015506	-0.7900258381	 0.0662094482	 0.003269
C	-1.0927733652	-1.9071428156	 1.1380755739	-0.250632
C	-0.2392621378	-2.6080775678	 0.0528347436	 0.121021
C	-1.1290463384	-1.9114608151	-1.0057810472	-0.25065
O	 1.0783477759	-2.036535998	 0.0293565982	-0.266872
C	 1.1891603646	-0.6699205732	 0.0247531272	 0.464189
O	 2.2777622571	-0.1507511029	 0.0052919762	-0.40193
H	 0.9785986889	 1.7991164278	 0.0231516108	 0.173737
H	-0.579284366	 1.8233136051	-0.8410079115	 0.122385
H	-0.5495732936	 1.8273073511	 0.9386999776	 0.122388
H	-2.1067461717	-0.1215514845	 0.0794535218	 0.082438
H	-0.6065683239	-1.648951187	 2.0804593825	 0.117563
H	-2.0288171513	-2.4398497873	 1.3165840534	 0.112873
H	-0.0977784108	-3.6881754046	 0.0526381326	 0.093709
H	-2.0705484086	-2.4448120319	-1.1504314697	 0.112873
H	-0.6749401178	-1.6570889545	-1.9650654839	 0.117564
55.2136	136.9343	148.6822	328.9595	345.3164	422.8206	435.935	484.1902	541.3573	625.457	725.1965	760.4965	805.8972	871.6584	876.5389	907.8619	957.3877	988.1979	1001.7892	1071.0564	1080.7031	1114.6117	1128.1465	1140.9226	1159.6238	1185.1539	1232.0822	1248.9299	1264.4097	1275.0365	1315.688	1381.6863	1426.6233	1460.0943	1463.2371	1494.9115	1497.5264	1522.4161	1835.5344	3012.8285	3060.7145	3072.156	3077.8991	3117.3059	3125.1282	3139.7059	3143.0818	3161.5999
CN1C2CC(C2)OC1=O	CN1[C@@H]2C[C@@H](C2)OC1=O	
InChI=1S/C6H9NO2/c1-7-4-2-5(3-4)9-6(7)8/h4-5H,2-3H2,1H3	InChI=1S/C6H9NO2/c1-7-4-2-5(3-4)9-6(7)8/h4-5H,2-3H2,1H3/t4-,5+
