20
gdb 76811	2.78596	1.55101	1.29754	2.8512	80.52	-0.2058	0.0519	0.2577	1058.243	0.171015	-402.984121	-402.975951	-402.975006	-403.016431	32.528	
C	-0.1795866078	 1.6406364537	-0.0312673478	-0.409813
C	-0.0431509012	 0.1230526053	 0.036017743	-0.094343
C	 0.9107404126	-0.5797980865	-1.0780754936	-0.019806
O	 1.4718930952	 0.21390714	-2.090315435	-0.422735
C	 1.860824708	-0.8906233598	 0.0900173652	 0.256656
C	 2.5830456052	-1.7751332407	 1.1607604545	-0.257488
N	 2.0965811046	-0.5463911854	 1.9948517192	-0.182259
C	 2.5959180755	 0.2720698064	 0.7999770414	-0.179955
C	 0.7789376525	-0.7087855107	 1.1143395903	 0.004738
H	 0.7450135193	 2.1376267221	-0.3282110055	 0.13779
H	-0.9385766017	 1.9134877529	-0.7736402487	 0.107334
H	-0.5024082491	 2.0469987082	 0.9321369489	 0.126674
H	-1.0486335709	-0.3095838562	 0.0148468238	 0.080922
H	 0.4170478152	-1.4735429964	-1.4837370564	 0.077248
H	 0.822954218	 0.3278490529	-2.7919509127	 0.288278
H	 2.1028870678	-2.7161168765	 1.4402134986	 0.105297
H	 3.6738933298	-1.8596792439	 1.1505099114	 0.104356
H	 3.6855610423	 0.2967360999	 0.7096473148	 0.095777
H	 2.1864993946	 1.2783103272	 0.7675112088	 0.10923
H	 0.2093156401	-1.5727800724	 1.4643367998	 0.072098
121.4579	151.8148	209.0084	255.9294	260.5277	283.5403	398.5798	510.6547	545.0513	547.9999	610.891	678.5042	747.1175	772.2374	814.1157	854.8119	865.5199	909.2043	967.5715	989.9445	1006.3487	1049.2435	1060.4789	1089.5883	1101.0082	1122.7681	1150.4087	1155.5962	1178.8566	1189.8591	1213.2965	1220.9344	1234.6955	1276.8906	1298.606	1336.4599	1368.8517	1408.1964	1429.5053	1489.5377	1503.2593	1512.5601	1553.0403	3005.116	3033.9161	3046.6344	3047.8719	3066.3737	3075.8589	3095.1327	3123.9941	3135.3812	3175.3016	3816.7439
CC1C(O)C23CN(C2)C13	C[C@H]1[C@@H](O)[C@@]23CN(C2)[C@@H]13	
InChI=1S/C7H11NO/c1-4-5-7(6(4)9)2-8(5)3-7/h4-6,9H,2-3H2,1H3	InChI=1S/C7H11NO/c1-4-5-7(6(4)9)2-8(5)3-7/h4-6,9H,2-3H2,1H3/t4-,5+,6-/m1/s1
