18
gdb 35255	3.01701	1.24404	1.02113	5.6602	76.48	-0.2593	0.0344	0.2937	1193.41	0.148223	-401.928295	-401.91987	-401.918926	-401.962301	30.627	
N	-0.1432081853	-1.1691065804	 0.273642781	-0.346548
C	-0.0406587438	-0.0177764926	 0.2300912519	 0.307141
C	 0.0239187401	 1.4151579281	 0.1406110993	-0.18699
C	 0.67200813	 2.241693615	 1.2430031749	-0.291178
C	 1.3363388224	 2.150494285	-0.0954765571	-0.027125
C	 2.6465760126	 1.416419592	-0.2590784039	 0.11775
C	 3.9325283542	 2.1989329562	 0.1034469267	-0.291008
C	 4.1687682896	 1.0548266481	 1.1085045865	-0.05989
O	 2.8986124543	 0.4477211183	 0.7809120946	-0.278496
H	-0.8506177889	 1.8467891572	-0.3356968557	 0.132645
H	 0.1689689433	 3.1565659833	 1.5327358428	 0.124743
H	 1.1321702333	 1.6792839514	 2.0461134976	 0.154049
H	 1.2479640561	 3.0085502517	-0.7575328167	 0.104566
H	 2.6840735682	 0.939344313	-1.2480943814	 0.090454
H	 4.6694931724	 2.3044332736	-0.6932856733	 0.115847
H	 3.7463932271	 3.1731538497	 0.5593303227	 0.113779
H	 5.0051030262	 0.3874338066	 0.8692782104	 0.111214
H	 4.2273343683	 1.3352061538	 2.1659962698	 0.109048
62.2586	82.9292	98.4923	196.8813	226.3994	276.1333	379.7591	530.6042	557.6605	636.0161	713.9478	770.6324	801.752	835.6244	858.6666	920.2793	943.1302	960.3053	997.5348	1020.2295	1056.8447	1089.851	1106.856	1113.9368	1130.5931	1157.585	1168.8406	1216.8422	1220.6776	1259.2545	1279.0845	1352.4005	1368.8062	1383.4527	1408.0771	1479.1376	1489.5727	1531.8896	2356.1244	3007.5486	3026.217	3068.0866	3081.574	3139.5244	3141.5672	3149.7003	3162.2281	3246.9177
N#CC1CC1C1CCO1	N#C[C@H]1C[C@H]1[C@H]1CCO1	
InChI=1S/C7H9NO/c8-4-5-3-6(5)7-1-2-9-7/h5-7H,1-3H2	InChI=1S/C7H9NO/c8-4-5-3-6(5)7-1-2-9-7/h5-7H,1-3H2/t5-,6-,7-/m1/s1
