12
gdb 20398	3.63141	1.92692	1.28281	4.8425	62.52	-0.2401	-0.0715	0.1686	861.4272	0.084602	-414.673324	-414.666497	-414.665552	-414.705013	23.594	
C	 0.0420125871	 1.4401367543	-0.0911060425	-0.06933
C	 1.5693064791	 1.6566432681	 0.0739909752	-0.349794
C	 1.9395167336	 0.3297685773	 0.6707623242	 0.145881
C	 0.8456586072	-0.6393802244	 0.5593049266	 0.410638
O	-0.2153659693	 0.0324534329	 0.0111050977	-0.228247
O	 0.8079998824	-1.8015515566	 0.8485733842	-0.360695
N	 4.1046598666	-0.2945333097	 1.577122885	-0.227157
N	 3.0935246697	-0.0016185761	 1.1542486068	 0.145924
H	-0.5178134504	 1.9505124811	 0.6993882233	 0.128726
H	-0.3274003373	 1.7790676351	-1.0606882617	 0.133247
H	 2.0577527774	 1.8309200759	-0.8920187731	 0.13543
H	 1.7866022938	 2.5120768121	 0.7195411743	 0.135377
87.2206	151.0449	153.7387	204.9333	429.6896	521.7183	548.6629	631.5453	692.3253	729.3451	754.1427	860.4574	958.7347	1061.0082	1070.5328	1078.573	1204.0803	1231.0963	1253.5805	1307.3892	1391.2331	1431.8256	1501.7491	1524.8213	1858.9015	2217.8597	3029.8159	3050.2304	3083.3324	3116.4352
C1CC2=C(O1)ON=N2	C1C[C](C(=O)O1)[N][N]	
InChI=1S/C4H4N2O2/c1-2-7-4-3(1)5-6-8-4/h1-2H2	InChI=1S/C4H4N2O2/c5-6-3-1-2-8-4(3)7/h1-2H2
