19
gdb 60332	3.38792	0.70115	0.62519	1.7403	73.57	-0.2498	-0.0927	0.1571	1778.7203	0.154859	-460.185408	-460.174819	-460.173875	-460.222816	36.551	
C	 0.1262978662	 1.4885591176	-0.1006467109	-0.405689
C	-0.0172446464	-0.0309965075	-0.169133875	 0.131373
O	 0.8277138211	-0.6755567889	 0.7843863531	-0.427603
C	-1.4744264901	-0.4846986859	-0.0113699036	-0.200355
C	-1.6263823906	-1.9995403791	-0.1317174072	-0.3074
C	-2.9832697663	-2.5120799576	 0.2733006491	 0.278504
O	-3.8465441737	-1.8586338805	 0.8149007693	-0.280682
C	-3.2912184402	-3.9895445454	-0.0191486316	 0.093721
O	-2.5437413313	-4.7256633054	-0.6065484151	-0.21735
H	 1.1771073971	 1.775120144	-0.1941416092	 0.126544
H	-0.4410487535	 1.9773126466	-0.8990581064	 0.11965
H	-0.2510036755	 1.8713897198	 0.8561921435	 0.109522
H	 0.3610011588	-0.3809219482	-1.1384058612	 0.090455
H	 0.6088770043	-0.3196582517	 1.6533493935	 0.277835
H	-1.8530389897	-0.1580577966	 0.9656302277	 0.106498
H	-2.099243405	 0.0175717198	-0.7591480344	 0.106426
H	-1.4100859333	-2.3631168525	-1.1440616364	 0.137351
H	-0.8796662107	-2.4998327378	 0.5013267112	 0.154936
H	-4.2871262712	-4.3005847507	 0.3625685835	 0.106266
24.0392	61.2349	97.8819	125.784	138.8578	212.0564	236.9329	255.8489	311.173	372.2093	452.9304	473.24	482.5267	515.8785	642.693	745.8096	811.9848	864.8559	918.9495	940.5305	999.2082	1050.5677	1078.3288	1104.5583	1135.9171	1165.245	1175.2849	1269.079	1300.7092	1338.5007	1363.7325	1370.9016	1398.5412	1405.8483	1421.5061	1442.0748	1480.151	1492.8733	1495.3194	1799.3288	1825.7938	2920.0218	3023.0744	3025.096	3028.371	3037.7396	3056.9222	3076.6625	3095.8748	3120.5124	3791.9901
CC(O)CCC(=O)C=O	C[C@@H](O)CCC(=O)C=O	
InChI=1S/C6H10O3/c1-5(8)2-3-6(9)4-7/h4-5,8H,2-3H2,1H3	InChI=1S/C6H10O3/c1-5(8)2-3-6(9)4-7/h4-5,8H,2-3H2,1H3/t5-/m1/s1
