16
gdb 71567	3.04735	1.70084	1.51703	4.1622	67.71	-0.2233	-0.0226	0.2007	916.2181	0.124742	-437.831665	-437.824675	-437.82373	-437.862796	27.969	
C	-0.1737691685	 1.5119447699	 0.0547461308	-0.515467
C	-0.0063675864	 0.025697765	 0.0611025873	 0.468053
O	-1.2241697051	-0.7531584795	 0.1662290829	-0.333987
C	-0.3451654541	-1.8768513826	 0.5094029155	-0.051788
C	 0.7522870451	-0.8904029013	 1.0505178335	-0.114982
N	 1.9399180811	-1.057888994	 0.1654559045	-0.334007
C	 0.9655249806	-0.7381098547	-0.9519879545	-0.255725
C	 0.2364411742	-2.0928306651	-0.902257314	 0.535263
O	 0.1233989598	-2.9802964174	-1.69171278	-0.326472
H	 0.8027034934	 2.00689709	 0.0666548433	 0.125755
H	-0.7076952644	 1.8327263072	-0.8455244855	 0.1436
H	-0.7429994234	 1.8379583751	 0.9299411442	 0.139042
H	-0.8199426602	-2.6831412872	 1.0607291746	 0.105738
H	 0.880016192	-0.7458511447	 2.1224111337	 0.093073
H	 2.5529270746	-0.2556606546	 0.3044080179	 0.228145
H	 1.3410261213	-0.3566060861	-1.8976612941	 0.093758
148.8005	207.0653	247.9125	262.4044	427.1095	451.3731	497.66	563.7517	643.7322	734.0308	764.2756	789.5153	821.1394	840.898	857.4514	885.424	914.8206	938.658	966.4452	1024.5036	1085.2226	1114.759	1128.9462	1140.0161	1151.6889	1174.6314	1220.3327	1250.1665	1301.294	1329.1876	1367.7952	1417.7716	1474.4666	1490.3663	1913.5974	3038.4319	3109.4307	3117.5351	3130.9213	3165.9868	3175.2982	3470.7443
CC12OC3C1NC2C3=O	C[C@]12O[C@@H]3[C@H]1N[C@H]2C3=O	
InChI=1S/C6H7NO2/c1-6-4-2(8)3(9-6)5(6)7-4/h3-5,7H,1H3	InChI=1S/C6H7NO2/c1-6-4-2(8)3(9-6)5(6)7-4/h3-5,7H,1H3/t3-,4-,5+,6+/m0/s1
