19
gdb 106210	2.80641	1.69468	1.26732	1.709	78.75	-0.2304	-0.0058	0.2246	1041.3178	0.158999	-385.81623	-385.808639	-385.807694	-385.848131	30.666	
C	 0.080309393	 1.5270042003	 0.1696005766	-0.382891
C	-0.0177840554	 0.0248340491	-0.1247109163	-0.307184
C	-1.4356563543	-0.4986613437	-0.1106230263	 0.322944
C	-2.4860903705	-0.0156116947	-1.1004998424	-0.175868
C	-3.5955390172	-0.692295305	-0.7909642573	-0.111883
C	-3.1887795164	-1.5673386509	 0.376826289	-0.103087
C	-1.7172720346	-2.0356519204	 0.1206431839	 0.018158
O	-1.3823442283	-1.933314319	 1.5464396993	-0.325799
C	-2.1911067374	-0.7430361143	 1.2581604214	 0.03341
H	 1.1214762911	 1.8626399646	 0.1503095268	 0.115359
H	-0.4739499201	 2.1195808638	-0.5661110201	 0.115547
H	-0.3274934029	 1.7633058981	 1.1580854099	 0.118555
H	 0.4340555111	-0.1887955107	-1.1022202948	 0.095287
H	 0.5551436268	-0.5393582798	 0.6193236888	 0.116589
H	-2.330138875	 0.7178003041	-1.8801465516	 0.105994
H	-4.5728422834	-0.6521037071	-1.2512213087	 0.109298
H	-3.8855856868	-2.2485958143	 0.8613023621	 0.079434
H	-1.3442542409	-2.9032237125	-0.4311650106	 0.0877
H	-2.3934390287	-0.0517801476	 2.0810461304	 0.088437
94.4596	167.7069	201.6565	304.1246	331.6907	407.9635	503.082	528.4055	640.0298	658.0581	696.2299	751.0079	766.2018	786.9203	841.4256	881.2522	896.2949	919.3824	928.9749	959.248	977.2759	994.2559	1050.6864	1075.9504	1100.1727	1118.7947	1145.8433	1167.0411	1183.9652	1202.1966	1240.6675	1283.6125	1298.5462	1324.6061	1354.1537	1376.5155	1412.7646	1484.519	1500.5408	1505.0916	1634.4328	3022.1596	3034.1168	3068.9763	3077.3462	3084.2884	3102.5851	3106.8743	3146.2411	3213.4372	3240.6082
CCC12C=CC3C1OC23	CC[C@@]12C=C[C@H]3[C@@H]1O[C@@H]23	
InChI=1S/C8H10O/c1-2-8-4-3-5-6(8)9-7(5)8/h3-7H,2H2,1H3	InChI=1S/C8H10O/c1-2-8-4-3-5-6(8)9-7(5)8/h3-7H,2H2,1H3/t5-,6-,7+,8+
