18
gdb 101221	4.26689	0.86728	0.86405	1.1949	69.72	-0.2651	0.0166	0.2817	1382.9211	0.147082	-476.213994	-476.205056	-476.204112	-476.248181	33.095	
O	 0.2712281111	 1.3903253996	 0.200139935	-0.422861
C	 0.1660974657	-0.0104029258	 0.0820469795	-0.070421
C	-1.3023215219	-0.4483619825	 0.1253446327	 0.072677
O	-2.0442066779	 0.2797239754	-0.8494771041	-0.444155
C	-1.4779805496	-1.9467712827	-0.060696523	 0.100939
C	-2.9100912897	-2.5057512958	-0.1972807218	-0.377697
C	-2.4670709294	-2.8907221149	-1.5911472869	 0.436728
N	-2.9861201899	-3.492789093	-2.5571537116	-0.530866
O	-1.201030767	-2.3328588201	-1.4571850023	-0.285658
H	-0.4206263979	 1.7511981316	-0.3693170066	 0.287501
H	 0.6220661169	-0.3792330434	-0.8530428074	 0.095314
H	 0.7201646416	-0.4536326029	 0.9172645664	 0.1078
H	-1.7276175376	-0.1613447312	 1.0948115265	 0.107265
H	-1.8003957358	-0.089467489	-1.7090755242	 0.295359
H	-0.8260023512	-2.5098424366	 0.6139101394	 0.101592
H	-3.1739140413	-3.3390146931	 0.4544799787	 0.14061
H	-3.6939463755	-1.7472906099	-0.1782177736	 0.154457
H	-2.3427975607	-3.5641050057	-3.3470833168	 0.231414
73.9936	76.7597	127.4128	176.055	267.7758	297.2235	351.7784	428.9626	454.1171	493.5863	512.1408	547.8551	662.7895	725.3383	824.6362	869.9193	884.2905	920.0778	972.536	990.914	1003.2592	1043.5652	1079.4291	1092.0457	1125.3443	1159.9528	1198.6156	1216.4721	1243.5313	1263.5193	1300.1006	1333.2031	1367.8363	1396.4485	1428.3678	1442.1866	1455.9789	1509.784	1832.518	2961.4562	3048.5342	3063.3265	3074.0391	3094.9123	3153.6901	3480.2225	3763.9318	3771.2021
OCC(O)C1CC(=N)O1	OC[C@@H](O)[C@H]1C[C]([NH])O1	
InChI=1S/C5H9NO3/c6-5-1-4(9-5)3(8)2-7/h3-4,6-8H,1-2H2	InChI=1S/C5H9NO3/c6-5-1-4(9-5)3(8)2-7/h3-4,6-8H,1-2H2/t3-,4-/m1/s1
