16
gdb 123448	5.49581	0.9634	0.8493	5.9914	69.75	-0.2787	-0.0166	0.2621	1298.3034	0.126718	-430.193149	-430.185591	-430.184647	-430.226481	27.093	
C	 0.1887166254	 1.1892671878	 0.6598795109	-0.171382
C	-0.0223673283	-0.1020906137	-0.086802098	 0.001226
C	-1.396422226	-0.6100982347	-0.3100505707	-0.24613
N	-0.6062800513	-0.0954548505	-1.4408864568	-0.31064
N	 1.4049076039	 1.8719981579	 0.2240979148	 0.017122
C	 2.0563389478	 1.8621577956	-0.9545638221	 0.061974
N	 3.0895746665	 2.6730938177	-0.8789902483	-0.226979
N	 3.0579924489	 3.1876002964	 0.3785370343	-0.091827
N	 2.058442751	 2.7192302218	 1.0487275406	-0.127224
H	-0.6689869978	 1.8579702291	 0.5171585018	 0.133166
H	 0.2999825844	 1.0160640539	 1.7335519149	 0.158729
H	 0.7820589626	-0.8249032686	 0.03022866	 0.120495
H	-1.5761538655	-1.6804047991	-0.3224088356	 0.137263
H	-2.2288735188	-0.014915244	 0.0565768595	 0.124425
H	-0.9277094346	 0.8408683656	-1.6792782646	 0.236902
H	 1.7633957919	 1.2658612047	-1.8029016605	 0.182878
45.5601	93.8552	130.2853	250.681	307.8661	351.1628	460.5	669.9578	737.4038	750.1301	801.4944	836.1049	889.5833	937.2142	947.6999	991.5768	997.5502	1044.6316	1059.474	1119.7865	1132.8994	1155.2929	1173.0243	1200.6006	1226.9453	1258.9787	1284.4133	1309.755	1316.9792	1352.7373	1430.287	1459.7183	1489.191	1514.6934	1520.1113	3036.1294	3103.3095	3115.7334	3140.0242	3203.9842	3289.4864	3485.8247
C(C1CN1)N1C=NN=N1	C([C@H]1CN1)n1cnnn1	
InChI=1S/C4H7N5/c1-4(5-1)2-9-3-6-7-8-9/h3-5H,1-2H2	InChI=1S/C4H7N5/c1-4(5-1)2-9-3-6-7-8-9/h3-5H,1-2H2/t4-/m1/s1
