21
gdb 104299	2.83745	1.40661	1.22591	2.48	77.2	-0.2482	0.0751	0.3233	1115.0182	0.182965	-424.22254	-424.213911	-424.212967	-424.25528	34.162	
C	-0.5196049274	 1.7120688254	 0.3224829988	-0.424674
C	-0.0264704229	 0.2764351142	 0.1753783429	 0.325097
C	-1.1899655565	-0.6817404349	-0.1492026674	-0.076763
O	-1.7744062752	-0.3669460304	-1.3958635763	-0.42755
O	 0.8867248939	 0.2517980343	-0.9512670306	-0.310914
C	 1.8480372564	-0.7904569723	-0.7639333039	-0.109701
C	 1.9986065584	-0.9457575007	 0.736899174	-0.04965
C	 2.1790878893	 0.3324054089	 1.5137307194	-0.307033
C	 0.8001496742	-0.2518610798	 1.338939211	-0.071638
H	 0.3202427918	 2.400023765	 0.4416986232	 0.116954
H	-1.0976567241	 2.0033274925	-0.5572392597	 0.132498
H	-1.1681517159	 1.7981892879	 1.200041017	 0.112958
H	-0.8188618156	-1.7195726085	-0.1306516539	 0.0798
H	-1.9758530224	-0.5989197306	 0.6097954054	 0.102453
H	-1.029762587	-0.2200012858	-1.9941956943	 0.286291
H	 1.5086946754	-1.7358801802	-1.2138782664	 0.096761
H	 2.7628311677	-0.4774814526	-1.2793008534	 0.110036
H	 2.3795778943	-1.8804054267	 1.1306733255	 0.090848
H	 2.6270307574	 0.2595615055	 2.4982631275	 0.112773
H	 2.4334116917	 1.233850609	 0.9651952024	 0.122919
H	 0.2776425665	-0.6590740602	 2.1972796687	 0.088536
115.2777	170.7307	175.6499	210.7927	281.5101	330.8954	356.2492	374.935	401.2646	493.2735	539.9886	652.3716	697.5412	757.9043	810.9791	834.4308	879.6632	909.9044	918.097	958.0267	983.4397	1011.7978	1052.4162	1073.0733	1077.6389	1084.0704	1104.6056	1122.2419	1149.5715	1188.184	1198.5445	1221.9322	1240.4982	1261.3268	1341.1603	1361.7087	1376.3146	1399.7911	1408.4262	1437.1601	1477.5632	1482.2984	1497.3844	1506.6938	1524.6251	2967.404	2988.715	3048.7945	3061.2627	3065.5753	3119.8395	3130.2536	3138.0519	3172.7668	3185.1515	3219.1309	3763.2519
CC1(CO)OCC2CC12	C[C@@]1(CO)OC[C@H]2C[C@@H]12	
InChI=1S/C7H12O2/c1-7(4-8)6-2-5(6)3-9-7/h5-6,8H,2-4H2,1H3	InChI=1S/C7H12O2/c1-7(4-8)6-2-5(6)3-9-7/h5-6,8H,2-4H2,1H3/t5-,6-,7+/m1/s1
