21
gdb 93732	3.08551	1.08746	1.04872	2.5058	78.66	-0.2436	-0.021	0.2226	1274.8269	0.180938	-424.250866	-424.241224	-424.24028	-424.285819	35.392	
C	-0.0996078864	 1.3845280518	 0.2613738117	-0.397048
C	-0.0911588655	-0.0694335371	-0.2001213	 0.142483
C	 1.01656786	-0.3934269127	-1.2298688169	-0.296402
C	 1.7156912814	-1.6734351756	-0.6885880556	 0.171785
C	 3.2006075792	-1.7638010004	-1.0291928384	-0.452206
C	 1.4193939516	-1.5162022085	 0.8210142554	-0.123449
O	 0.1258453191	-0.9541376543	 0.9120579238	-0.267266
C	 0.9627486771	-2.8940340232	-1.1953964856	 0.141259
O	 1.435281259	-3.7520939987	-1.897052417	-0.261863
H	 0.8694946239	 1.664212565	 0.6883395137	 0.11713
H	-0.3081756679	 2.0542407949	-0.5800556768	 0.116175
H	-0.8683616216	 1.5391808793	 1.0232500572	 0.127912
H	-1.0803243331	-0.3221128024	-0.6014072847	 0.083222
H	 0.6180757135	-0.5231601352	-2.2400089132	 0.117559
H	 1.7527836061	 0.4159437506	-1.2737063793	 0.109296
H	 3.7321480135	-0.8762202411	-0.672623194	 0.109645
H	 3.6560862841	-2.6476350655	-0.5730943599	 0.128353
H	 3.3479312142	-1.84886515	-2.1085071755	 0.135049
H	 1.4128043733	-2.4649713083	 1.3687202439	 0.115285
H	 2.1843619472	-0.8671578262	 1.2779056995	 0.092799
H	-0.0980798387	-2.9472227624	-0.8615937185	 0.090284
40.9743	82.6497	141.1518	201.4157	246.6711	255.506	269.2152	305.8619	362.2755	391.9877	428.1825	495.6665	660.6647	686.6529	787.3918	821.0498	886.3809	904.0148	917.7665	936.0427	1000.2432	1027.0628	1036.8449	1078.3396	1101.8402	1130.9869	1182.3066	1191.8285	1204.9791	1232.5837	1296.2981	1309.8527	1354.9314	1380.8643	1397.2359	1407.3269	1411.5113	1430.0344	1486.5424	1487.8822	1490.8861	1495.97	1498.4866	1519.5516	1825.7286	2883.1023	2967.1705	3023.1811	3033.5215	3043.4934	3048.725	3065.7815	3094.8584	3103.908	3113.3797	3119.0565	3124.6983
CC1CC(C)(CO1)C=O	C[C@H]1C[C@@](C)(CO1)C=O	
InChI=1S/C7H12O2/c1-6-3-7(2,4-8)5-9-6/h4,6H,3,5H2,1-2H3	InChI=1S/C7H12O2/c1-6-3-7(2,4-8)5-9-6/h4,6H,3,5H2,1-2H3/t6-,7+/m0/s1
