17
gdb 88049	2.39743	1.36504	1.10323	3.1235	74.63	-0.2506	0.0188	0.2694	1149.3969	0.133481	-421.739355	-421.730512	-421.729568	-421.773099	32.917	
O	-0.0298544173	 1.3754763155	-0.0511799829	-0.420804
C	 0.0192595695	-0.0120561599	 0.1021947868	 0.037997
C	-0.555600707	-0.6470383625	 1.3509314822	-0.39592
C	-1.2957374221	-0.704000601	 0.045890016	 0.270504
C	-2.6248598467	-0.084438004	-0.3537043101	-0.132815
O	-2.9135004965	-1.2141493033	-1.2159066601	-0.287445
C	-1.7085072641	-1.912977453	-0.8072693537	-0.131266
C	-0.842027309	-2.2971156245	-1.9093717637	 0.333335
C	-0.1052893822	-2.6187276625	-2.8032954712	-0.436972
H	 0.6574638756	 1.7631469872	 0.5004462751	 0.291829
H	 0.8639729627	-0.5088076963	-0.3754161659	 0.101027
H	-0.0947956562	-1.554721122	 1.7290296036	 0.118884
H	-0.9512913181	 0.0201173863	 2.110906855	 0.119311
H	-3.3669594205	 0.0123402912	 0.448802221	 0.101828
H	-2.5593590497	 0.8557165562	-0.9108145059	 0.127447
H	-1.9644768249	-2.8000116672	-0.2100325246	 0.101334
H	 0.5339737966	-2.9031592802	-3.6025282614	 0.201726
68.9892	100.8352	165.8366	192.6334	242.0812	282.4757	330.3405	424.4594	466.3781	518.243	553.4487	605.8447	620.7536	674.8772	808.453	824.8592	879.7668	933.3193	958.9749	995.1784	1017.3452	1035.1649	1049.8767	1096.608	1101.2023	1148.3484	1171.3646	1220.0059	1242.618	1292.0162	1313.4748	1357.5943	1372.7582	1429.1223	1502.7732	1524.48	2233.4963	2995.6877	3018.8034	3077.1371	3104.6992	3119.3698	3209.4119	3501.0531	3809.3223
OC1CC11COC1C#C	O[C@H]1C[C@]21CO[C@H]2C#C	
InChI=1S/C7H8O2/c1-2-6-7(4-9-6)3-5(7)8/h1,5-6,8H,3-4H2	InChI=1S/C7H8O2/c1-2-6-7(4-9-6)3-5(7)8/h1,5-6,8H,3-4H2/t5-,6-,7+/m0/s1
