19
gdb 68571	2.65111	1.87187	1.49766	1.4463	79.17	-0.2286	0.0082	0.2368	948.5371	0.161467	-385.903975	-385.896801	-385.895857	-385.934813	30.553	
O	-0.0751496942	 1.426040524	 0.0499006403	-0.496916
C	 0.0025156052	 0.0134744897	-0.0215130539	 0.377288
C	-1.4051066843	-0.597302723	-0.1190002532	-0.242158
C	-1.0341516785	-2.0162747639	-0.6090035991	-0.115343
C	 0.0443550473	-1.6767809272	-1.6429579596	-0.069827
C	 0.6365981326	-0.534821827	-1.2979495219	-0.13148
C	-0.363884616	-2.7427086222	 0.5522326355	-0.066378
C	 0.4375944226	-2.0704000487	 1.3801048054	-0.040983
C	 0.7065924061	-0.5895417406	 1.2222754818	-0.311094
H	 0.8145433605	 1.7694486554	 0.1858251851	 0.272304
H	-1.944998295	-0.5950309446	 0.8313603058	 0.095539
H	-1.9821480142	-0.0518525989	-0.8703504541	 0.103965
H	-1.8758478649	-2.5851506768	-1.009782277	 0.064836
H	 0.3252019263	-2.3364460252	-2.4556929213	 0.096132
H	 1.4932559626	-0.0704599137	-1.7741736939	 0.086313
H	-0.5269090666	-3.8095338008	 0.6729344578	 0.085742
H	 0.9399510021	-2.5767591239	 2.2004152457	 0.086323
H	 1.7924117912	-0.4120760735	 1.1665394593	 0.091811
H	 0.354236747	-0.0445283691	 2.1091842073	 0.113926
221.1394	254.6785	292.9583	323.4275	376.8803	420.5616	448.8882	484.7418	580.1069	603.7198	671.7936	715.2158	748.5578	795.0823	861.5389	876.6664	923.6737	937.5717	940.4353	960.5619	977.5635	985.9623	1017.7458	1063.9075	1093.0133	1104.2172	1153.2824	1173.9978	1186.6071	1246.2723	1252.7187	1289.291	1318.6831	1323.599	1351.7364	1390.1206	1396.2562	1465.7517	1495.0041	1661.8475	1698.6902	2983.6294	3026.0817	3060.4285	3083.1219	3116.0724	3150.5466	3177.4635	3181.3508	3209.1661	3803.3986
OC12CC(C=C1)C=CC2	O[C@@]12C[C@@H](C=C1)C=CC2	
InChI=1S/C8H10O/c9-8-4-1-2-7(6-8)3-5-8/h1-3,5,7,9H,4,6H2	InChI=1S/C8H10O/c9-8-4-1-2-7(6-8)3-5-8/h1-3,5,7,9H,4,6H2/t7-,8-/m1/s1
