25
gdb 62874	2.64058	1.49894	1.11063	0.1005	93.69	-0.2731	0.0957	0.3688	1230.8746	0.228323	-352.289541	-352.279902	-352.278958	-352.322871	39.044	
C	-0.3438319227	 1.6543345887	 0.9247678	-0.470735
C	-0.2107130996	 0.123566404	 0.7742211969	 0.394192
C	-1.6547974169	-0.3686918247	 0.5374772667	-0.484992
C	 0.9283336617	-0.4832266015	-0.1246259714	-0.142953
C	 1.9472996914	 0.1104228736	 0.8947553102	-0.246735
C	 0.8378682477	-0.5740274894	 1.7493932969	-0.142948
C	 0.9449370381	-1.8005018304	 0.7706856336	 0.394219
C	-0.1838399449	-2.8532064929	 0.8084780032	-0.484997
C	 2.2455317275	-2.6302146641	 0.710290587	-0.470739
H	 0.5255144537	 2.1682654868	 1.3326420555	 0.113517
H	-0.5851374297	 2.1161605072	-0.0400003077	 0.114162
H	-1.1819935938	 1.8710783935	 1.5968870789	 0.112136
H	-1.7317091712	-1.2531664691	-0.0899305069	 0.122404
H	-2.1815513201	-0.565923055	 1.4783738077	 0.115461
H	-2.2148706394	 0.4221781608	 0.0272784797	 0.104745
H	 0.9886491032	-0.4358534766	-1.2164924668	 0.05479
H	 2.9403826884	-0.3252235313	 0.9400447325	 0.090634
H	 2.0298396321	 1.1919946863	 0.9327622064	 0.090633
H	 0.7837944674	-0.6176485285	 2.8417430575	 0.054786
H	-0.4947623671	-3.1591202822	-0.1972119165	 0.115456
H	 0.1937899865	-3.7535555534	 1.3046882869	 0.104751
H	-1.0678434619	-2.5456737496	 1.3614709367	 0.122401
H	 2.4307926088	-3.1255169919	 1.6708349534	 0.11416
H	 2.1231983389	-3.4238389034	-0.0356533295	 0.112135
H	 3.1461873321	-2.0813696472	 0.4385628695	 0.113517
119.4263	167.0973	188.2603	189.3805	225.3151	247.3511	357.6289	365.7749	370.0676	410.8643	465.1124	490.7074	579.8116	582.4727	642.5022	689.1183	730.2275	776.2909	849.513	885.9689	941.9585	967.0854	968.582	979.1156	1003.3839	1004.7468	1009.5644	1053.8193	1069.4892	1081.2113	1130.2589	1138.0895	1168.232	1172.0815	1196.0788	1201.4104	1220.4873	1234.9317	1285.9879	1290.1944	1404.419	1407.7489	1422.0638	1426.4301	1483.5316	1485.7299	1493.2992	1495.9659	1504.3378	1513.2487	1521.2446	1544.3631	1569.1824	3027.8241	3028.1218	3034.9752	3035.068	3055.4982	3061.4907	3080.1823	3080.2122	3081.5435	3081.6882	3127.0094	3135.4312	3154.9801	3157.8947	3170.9828	3187.9608
CC1(C)C2CC1C2(C)C	CC1(C)[C@H]2C[C@@H]1C2(C)C	
InChI=1S/C9H16/c1-8(2)6-5-7(8)9(6,3)4/h6-7H,5H2,1-4H3	InChI=1S/C9H16/c1-8(2)6-5-7(8)9(6,3)4/h6-7H,5H2,1-4H3/t6-,7+
