23
gdb 117812	2.55048	0.99556	0.88303	2.7653	82.97	-0.242	-0.0179	0.224	1481.4297	0.201704	-425.431619	-425.420142	-425.419197	-425.468691	40.246	
C	 0.0038545489	 1.5744958552	 0.2123985965	-0.406875
C	-0.0090609959	 0.0615244938	-0.0308434793	-0.198089
C	 0.768971683	-0.4159581503	-1.2749748175	 0.130872
C	 2.2302484822	 0.0655248986	-1.3038322112	-0.438579
C	 0.7376500828	-1.9602929755	-1.2885295287	-0.076737
O	 1.3374344463	-2.4328490026	-2.4760341818	-0.246212
C	 1.3429187947	-3.8382324485	-2.5683880696	-0.229905
C	 0.069378459	 0.0378048216	-2.5600326434	 0.16843
O	-1.0858123536	 0.3747337303	-2.6272736749	-0.270148
H	 1.0130504483	 1.953296703	 0.4003922707	 0.114095
H	-0.4132198413	 2.1153270159	-0.6414700902	 0.134338
H	-0.6049242717	 1.8197067103	 1.0879613726	 0.114856
H	 0.4015181095	-0.4515536914	 0.848398503	 0.088764
H	-1.047195185	-0.2691052866	-0.1368085862	 0.115119
H	 2.7383887182	-0.2069381455	-0.3727322551	 0.116665
H	 2.7680925559	-0.4020377888	-2.131944101	 0.137392
H	 2.2984375369	 1.1510436947	-1.4174841579	 0.121967
H	 1.2753552325	-2.3442543608	-0.4039977063	 0.089185
H	-0.3054179454	-2.3105608231	-1.2206094003	 0.099444
H	 1.9030137712	-4.2970721098	-1.7384867392	 0.106614
H	 0.322144894	-4.2506620263	-2.5636024861	 0.110467
H	 1.8272414512	-4.1023510407	-3.5113050335	 0.130637
H	 0.7123414983	 0.0238288466	-3.4662461105	 0.087698
46.8448	87.1827	107.4565	110.1939	146.0105	200.4088	221.3621	232.615	277.9643	299.5453	313.3504	338.6158	358.2579	401.541	518.3263	617.7358	749.4884	790.0973	902.518	922.9342	960.9222	972.9095	1001.2213	1025.0643	1076.1598	1090.5785	1155.4914	1181.1333	1196.6541	1211.4475	1220.7989	1258.3772	1274.7159	1341.6457	1372.564	1393.4052	1410.4855	1416.1118	1430.9918	1474.6365	1481.016	1486.4803	1491.6416	1501.3254	1501.9221	1508.3705	1510.5708	1525.2107	1822.3666	2899.9286	2947.1352	2975.3777	2988.4623	3021.2258	3024.2995	3039.8953	3044.229	3077.2074	3105.6947	3109.6448	3118.0487	3121.7491	3128.3202
CCC(C)(COC)C=O	CC[C@@](C)(COC)C=O	
InChI=1S/C7H14O2/c1-4-7(2,5-8)6-9-3/h5H,4,6H2,1-3H3	InChI=1S/C7H14O2/c1-4-7(2,5-8)6-9-3/h5H,4,6H2,1-3H3/t7-/m1/s1
