17
gdb 98111	4.92058	0.80621	0.69867	0.0834	78.01	-0.2323	-0.0619	0.1703	1571.5773	0.132791	-417.991724	-417.981281	-417.980336	-418.028786	35.842	
C	 0.0335863073	 1.434468406	 0.1613587631	-0.310174
N	-0.074478112	-0.0056601562	 0.1691729769	-0.297585
C	-1.2661379299	-0.6415114598	 0.0948901232	 0.280819
N	-2.3767132538	 0.001289958	 0.013061198	-0.546113
C	-1.0954228031	-2.1619396324	 0.1219326318	 0.351852
O	 0.004981859	-2.6513830215	 0.2011499616	-0.296487
C	-2.3746085711	-3.0016795937	 0.0442104845	-0.528096
C	-2.1418650732	-4.4343588638	 0.0744578977	 0.320888
C	-1.9643706604	-5.62101422	 0.0984733385	-0.401203
H	 1.0868204905	 1.7124890626	 0.2298140958	 0.12349
H	-0.3914685342	 1.8563283718	-0.7566042601	 0.140397
H	-0.5107516283	 1.8747449152	 1.0046478283	 0.140422
H	 0.7402824261	-0.5936097756	 0.2298213377	 0.264026
H	-3.1724080272	-0.6281495409	-0.0342930798	 0.220631
H	-3.0281221204	-2.6972071554	 0.8731596701	 0.167748
H	-2.9106010034	-2.714976717	-0.870905813	 0.167744
H	-1.8004373658	-6.6699405173	 0.1202261758	 0.201641
30.3174	48.0428	87.78	112.3809	115.0964	211.1578	296.9801	326.6971	361.3811	404.6876	405.9346	440.1591	505.4294	630.7597	654.9439	678.9494	736.7529	792.2636	837.1919	939.4079	958.0478	1008.3849	1122.077	1161.346	1183.0513	1194.3923	1201.5549	1303.0217	1346.5252	1442.1455	1455.9966	1471.5698	1513.1585	1558.2231	1695.7687	1803.7567	2253.4179	3017.9139	3027.4111	3046.7024	3075.9951	3134.3881	3507.1301	3536.8786	3653.2815
CNC(=N)C(=O)CC#C	CNC(=N)C(=O)CC#C	
InChI=1S/C6H8N2O/c1-3-4-5(9)6(7)8-2/h1H,4H2,2H3,(H2,7,8)	InChI=1S/C6H8N2O/c1-3-4-5(9)6(7)8-2/h1H,4H2,2H3,(H2,7,8)
