17
gdb 32954	3.72186	0.9621	0.88193	0.9596	71.45	-0.2064	0.035	0.2414	1339.8241	0.136826	-455.174714	-455.165969	-455.165025	-455.208921	31.607	
C	 0.7544696848	 0.4622046254	-0.4468258333	-0.237395
O	 1.0049226236	 0.3238494422	 0.9368998172	-0.233225
C	 0.0392780804	-0.4762321963	 1.6088268324	-0.211352
C	 0.1297838521	-1.9240672153	 1.2702583813	 0.284002
C	-0.7659729907	-2.8447115592	 0.8044217659	-0.177076
N	-0.1857291521	-4.0971650757	 0.6793466908	-0.364688
C	 1.0511422802	-3.9171423771	 1.0599075791	 0.44446
O	 2.0244548689	-4.8416681032	 1.0976953581	-0.423114
N	 1.3146441242	-2.6438724134	 1.440121899	-0.346988
H	-0.2034542846	 0.9730737678	-0.6319381114	 0.104265
H	 1.5638771448	 1.0689512711	-0.8595105766	 0.126617
H	 0.7311623135	-0.5076863963	-0.962404989	 0.116586
H	 0.2337846219	-0.3046057702	 2.6745720126	 0.1135
H	-0.9834336476	-0.1285320174	 1.3971347698	 0.104052
H	-1.8057517509	-2.6854909095	 0.5612124045	 0.108917
H	 1.6265230496	-5.6625901219	 0.7811779253	 0.314893
H	 2.2111777518	-2.266898861	 1.6980693945	 0.276546
50.4454	90.0696	134.7391	210.4389	223.6476	333.2385	366.7044	415.9396	449.1569	480.7677	497.3274	631.8029	697.6515	731.586	773.9543	840.7369	928.0435	998.0186	1010.3897	1055.0264	1115.6958	1155.552	1182.6325	1199.8923	1210.4743	1246.9858	1280.1111	1316.0158	1384.256	1396.3425	1475.1035	1482.1271	1485.6469	1511.7756	1555.764	1602.0983	1638.8587	2980.2219	2993.9995	3038.6528	3048.7371	3118.0342	3247.9672	3669.804	3803.3327
COCC1=CN=C(O)N1	COCc1cnc(O)[nH]1	
InChI=1S/C5H8N2O2/c1-9-3-4-2-6-5(8)7-4/h2H,3H2,1H3,(H2,6,7,8)	InChI=1S/C5H8N2O2/c1-9-3-4-2-6-5(8)7-4/h2H,3H2,1H3,(H2,6,7,8)
