18
gdb 128405	3.52854	1.08103	0.85149	4.88	75.81	-0.1987	0.0253	0.224	1339.4369	0.150097	-435.270566	-435.261968	-435.261024	-435.304039	31.904	
C	-0.1047800924	 1.5020398224	 0.2345965004	-0.316042
N	-0.1409049758	 0.0424952361	 0.2624869677	-0.293703
H	 0.6790680989	-0.3308337598	-0.2068219094	 0.235423
H	-0.0666540825	-1.2880449314	 1.8427760886	 0.286042
C	-1.3397437791	-0.5286757078	-0.3665862709	-0.276582
C	-1.3483101741	-2.0051675973	-0.1421941595	 0.226449
C	-0.8581511917	-2.7199566383	 0.938932196	 0.206192
O	-0.2295856371	-2.2301491907	 2.0362597575	-0.450425
C	-1.1500765313	-4.0709256271	 0.6559306379	-0.084507
N	-1.7776596846	-4.1958566752	-0.5145221977	-0.227632
N	-1.8822078843	-2.9416320277	-0.980036348	-0.273914
H	 0.8358542931	 1.8519093635	 0.6676936875	 0.130246
H	-0.2008364953	 1.9272510903	-0.7781792753	 0.10574
H	-0.9244598685	 1.8979483159	 0.8430034975	 0.134185
H	-2.2079302043	-0.0512035473	 0.1110096571	 0.127055
H	-1.4151290572	-0.2910845363	-1.4438397678	 0.093298
H	-0.927862105	-4.9412976967	 1.2541180678	 0.11146
H	-2.3303978689	-2.7872987327	-1.8668207594	 0.266715
75.9774	125.4762	152.3432	245.7073	251.111	309.7718	334.5622	375.3793	425.8008	453.9987	652.5463	674.2878	703.663	708.7933	772.2719	857.8343	863.0899	950.613	971.7846	995.6434	1126.5948	1126.8682	1153.0466	1171.2773	1181.618	1248.0553	1260.2046	1302.4984	1335.7244	1387.7214	1435.7214	1457.9966	1472.7185	1476.8618	1492.2228	1506.9342	1516.1569	1579.2664	1637.3331	2931.3894	2970.929	3003.4515	3071.0152	3117.1921	3254.8983	3510.1131	3584.1404	3672.4285
C[NH2+]CC1=C([O-])C=NN1	CNCc1c(O)cn[nH]1	
InChI=1S/C5H9N3O/c1-6-2-4-5(9)3-7-8-4/h3,6,9H,2H2,1H3,(H,7,8)	InChI=1S/C5H9N3O/c1-6-2-4-5(9)3-7-8-4/h3,6,9H,2H2,1H3,(H,7,8)
