17
gdb 36747	3.39407	0.77899	0.68157	3.1313	77.21	-0.248	-0.0042	0.2438	1630.3674	0.134513	-417.98453	-417.975303	-417.974359	-418.020478	32.145	
N	 1.6843867028	-0.3527753193	 0.1552839171	-0.286973
C	 0.8876372846	 0.4828648237	 0.1282334251	 0.25937
C	-0.1209267579	 1.5556070035	 0.1057684578	-0.211889
O	 0.2555516843	 2.6462238245	-0.7126287552	-0.191333
C	 1.230581337	 3.4567200013	-0.2107713889	 0.130625
N	 1.6326312725	 4.4275702032	-0.8932803161	-0.216712
C	 2.6447801558	 5.2921662231	-0.3600620829	 0.042305
C	 3.708860614	 4.873588699	 0.6312994023	-0.291836
C	 4.0687977498	 5.1452951089	-0.8154728287	-0.246298
H	-1.0504966553	 1.1651216028	-0.3151336861	 0.17752
H	-0.3234898068	 1.8721146125	 1.1375003557	 0.158819
H	 1.5823589746	 3.1785406121	 0.7908768354	 0.098499
H	 2.2862291904	 6.314854472	-0.2793227476	 0.103633
H	 4.0114770308	 5.5889071294	 1.3882596545	 0.116095
H	 3.7493092307	 3.8414843341	 0.9607435218	 0.116501
H	 4.2961160147	 4.2840911395	-1.4341603534	 0.125435
H	 4.6290647379	 6.0402067898	-1.0615880708	 0.116238
33.6651	45.1613	102.4301	153.8177	200.8021	253.7407	340.0562	366.6541	400.7653	479.3994	535.9341	631.5831	772.3752	813.8318	840.1788	909.9368	936.8165	980.5587	995.3407	1012.4983	1053.7492	1076.5593	1084.0039	1131.812	1150.4712	1195.3599	1202.477	1230.5906	1305.17	1382.8674	1392.0623	1412.6158	1463.6328	1474.996	1498.8548	1777.449	2363.9518	3027.5323	3039.5653	3112.5295	3135.8664	3138.0923	3142.9335	3215.1403	3230.694
N#CCOC=NC1CC1	N#CCOC=NC1CC1	
InChI=1S/C6H8N2O/c7-3-4-9-5-8-6-1-2-6/h5-6H,1-2,4H2	InChI=1S/C6H8N2O/c7-3-4-9-5-8-6-1-2-6/h5-6H,1-2,4H2
