16
gdb 31328	2.74993	1.3209	0.8974	4.2693	78.82	-0.2116	-0.0337	0.1779	1239.9734	0.12505	-437.930163	-437.92186	-437.920916	-437.963429	30.167	
C	 0.0211252211	 1.4188011237	 0.0086229081	-0.250583
O	 0.0022790443	 0.0013456453	 0.0054114354	-0.258381
C	-1.2129592968	-0.5816754406	 0.0128464801	 0.307767
C	-1.3775669578	-1.9715140546	 0.0106892984	 0.103829
N	-2.7409670034	-2.2011183728	 0.0200521595	-0.28322
C	-3.4129116582	-1.0311061582	 0.0277838651	-0.045982
C	-2.4966935723	 0.0130108605	 0.0236305083	-0.30554
C	-0.449090035	-3.0666785101	 0.0012776194	 0.069621
O	-0.7940712152	-4.2394523461	 0.0010962641	-0.339537
H	 1.0716052376	 1.7125432976	 0.0016696712	 0.140087
H	-0.4765561057	 1.825679481	-0.8806816308	 0.127308
H	-0.4635410447	 1.8214571707	 0.9069914811	 0.127307
H	-3.1152128363	-3.1360968524	 0.020494298	 0.280004
H	-4.4912154304	-1.0006210384	 0.0357048279	 0.135607
H	-2.7387583757	 1.062673079	 0.0279383638	 0.11042
H	 0.6191456785	-2.7732321144	-0.0056890097	 0.081292
78.7503	146.4661	162.8617	199.3877	254.6479	261.9117	364.0199	391.5535	545.4861	583.8177	657.7277	665.7754	708.4425	747.0154	809.6106	827.5415	916.391	1028.8476	1043.3339	1101.6908	1123.1171	1179.611	1196.8105	1216.1992	1288.8	1339.993	1388.0124	1464.8867	1468.8816	1488.6554	1495.9395	1505.2813	1541.6671	1607.0266	1738.6437	2936.0289	3008.7977	3069.7779	3140.9353	3256.6079	3276.2906	3663.2835
COC1=C(NC=C1)C=O	COc1c([nH]cc1)C=O	
InChI=1S/C6H7NO2/c1-9-6-2-3-7-5(6)4-8/h2-4,7H,1H3	InChI=1S/C6H7NO2/c1-9-6-2-3-7-5(6)4-8/h2-4,7H,1H3
