18
gdb 85772	3.03024	1.24386	0.93837	0.5499	76.66	-0.2339	-0.0037	0.2303	1254.3577	0.148303	-435.313467	-435.304351	-435.303407	-435.347471	33.542	
C	-0.0947967015	 1.5777596777	 0.0426152208	-0.404676
C	 0.0308449801	 0.0605855717	-0.0210760801	-0.141534
C	 0.8125516377	-0.5641256214	-1.2236828568	-0.172121
N	 1.7731982889	-1.0858730848	-0.2460791349	-0.108258
C	 2.8975512258	-1.8996268529	-0.4145379296	 0.405907
N	 3.5962237438	-2.0724511528	 0.7589792503	-0.565046
N	 3.149422866	-2.3296102756	-1.5904856701	-0.548728
C	 1.1288418388	-0.5683240948	 0.8595901764	 0.42568
O	 1.391608437	-0.6296076226	 2.0374874996	-0.392452
H	 0.8689555215	 2.0624865152	-0.1441912964	 0.128363
H	-0.8089387149	 1.9427725383	-0.7018240448	 0.125726
H	-0.4428902411	 1.8904380179	 1.0312486817	 0.140168
H	-0.9372904073	-0.4198195754	 0.1484286762	 0.109736
H	 0.2954871192	-1.3474424125	-1.7814600925	 0.131795
H	 1.254949998	 0.1541926396	-1.9183157835	 0.127888
H	 3.1239864775	-1.8187937999	 1.618424386	 0.2774
H	 4.2213171908	-2.8598426768	 0.8003537655	 0.252232
H	 3.9955610899	-2.8966420709	-1.6000793277	 0.20792
75.6409	100.117	156.802	185.7013	223.6196	238.1662	342.614	383.0404	407.3864	445.7283	538.8801	588.565	652.0679	717.0702	739.7121	772.3422	797.2244	851.8395	922.6626	950.8091	1083.7052	1100.1314	1108.1242	1126.7651	1151.3154	1173.5219	1194.8046	1238.57	1249.9848	1344.9911	1371.6579	1411.9075	1466.5235	1495.5627	1497.2493	1522.4681	1644.8782	1726.073	1846.1747	3038.4868	3068.7855	3072.6119	3109.3314	3116.3754	3124.4558	3500.546	3530.1753	3692.2351
CC1CN(C(N)=N)C1=O	C[C@H]1CN(C(=N)N)C1=O	
InChI=1S/C5H9N3O/c1-3-2-8(4(3)9)5(6)7/h3H,2H2,1H3,(H3,6,7)	InChI=1S/C5H9N3O/c1-3-2-8(4(3)9)5(6)7/h3H,2H2,1H3,(H3,6,7)/t3-/m0/s1
