20
gdb 65225	2.65649	1.41723	1.09626	2.3994	79.44	-0.2634	0.0256	0.2889	1166.455	0.171007	-403.138419	-403.129677	-403.128733	-403.171912	33.322	
C	 0.0568037119	 1.4799360475	 0.526321654	-0.46136
C	 0.03457768	 0.0512342758	 0.0150691134	 0.340597
C	 1.105484658	-0.368011874	-0.9663993621	-0.30987
C	 1.1382260691	-0.8790833981	 0.455407941	-0.304816
C	-1.3672399918	-0.5068707404	-0.134080996	-0.201366
C	-2.232038397	-0.0136887857	-1.321596597	-0.09982
O	-2.357135163	-1.3881962396	-1.8072729768	-0.25509
C	-1.565762295	-1.8648959739	-0.7862811406	 0.427789
N	-1.1768599768	-3.0315860144	-0.5361764437	-0.546957
H	 1.083244651	 1.8468537174	 0.6195556131	 0.118828
H	-0.4762736975	 2.1597377164	-0.1498971161	 0.113483
H	-0.415494898	 1.5553904756	 1.5132332065	 0.116914
H	 0.8520413237	-1.0799147671	-1.7443397289	 0.123009
H	 1.8319572793	 0.37989664	-1.2657829162	 0.106176
H	 1.8903728095	-0.4801835454	 1.1280368472	 0.105343
H	 0.8879797481	-1.9224830129	 0.6088585657	 0.151098
H	-1.8964089568	-0.4447813242	 0.8230825761	 0.106084
H	-3.2120927748	 0.4060027315	-1.084347961	 0.119355
H	-1.7116937628	 0.6081104784	-2.0542297986	 0.122585
H	-1.5258245871	-3.6971334271	-1.22818939	 0.228017
69.5145	117.8782	159.7273	218.6221	244.5788	300.2934	328.7101	370.7482	459.8213	490.7307	602.0155	714.0145	759.8513	796.6049	860.9569	872.0658	878.6058	934.7124	941.463	956.8594	970.1266	1020.5627	1048.6863	1061.2753	1069.7296	1079.6415	1096.4944	1133.0181	1162.8548	1193.8341	1220.7369	1242.3619	1272.2868	1348.2738	1350.9597	1380.3034	1418.9921	1466.5967	1491.3838	1496.7827	1508.8587	1515.5536	1814.9302	3018.1903	3052.4381	3063.7869	3075.0448	3102.1886	3124.8097	3132.0743	3134.7206	3214.4644	3229.6388	3474.0662
CC1(CC1)C1COC1=N	CC1(CC1)[C@H]1CO[C]1[NH]	
InChI=1S/C7H11NO/c1-7(2-3-7)5-4-9-6(5)8/h5,8H,2-4H2,1H3	InChI=1S/C7H11NO/c1-7(2-3-7)5-4-9-6(5)8/h5,8H,2-4H2,1H3/t5-/m0/s1
