16
gdb 125891	3.78448	1.19806	1.14784	5.1598	70.74	-0.2968	-0.0444	0.2525	1107.1637	0.124905	-430.183354	-430.175657	-430.174713	-430.216555	27.927	
C	-0.1204800799	 1.5288612961	-0.1020106607	-0.424605
C	-0.0024032748	 0.0262165025	 0.0111537886	-0.010355
C	 1.3150364331	-0.6741877484	-0.2149311256	-0.315285
C	 0.7227993444	-0.641532493	 1.1649508934	 0.056178
N	 1.3537848329	 0.1412682548	 2.1923964156	 0.156922
N	 2.3764843379	 0.9657774354	 2.0231374385	-0.125284
N	 2.6037406761	 1.4717451957	 3.1997275167	-0.083951
N	 1.7302904135	 0.9509715457	 4.0764810194	-0.083581
N	 0.9449420379	 0.123806861	 3.4532399078	-0.127357
H	 0.7849742275	 2.0336178124	 0.2438426707	 0.148973
H	-0.2837170925	 1.815102751	-1.1457012896	 0.133214
H	-0.9652156433	 1.9026398631	 0.485411805	 0.133336
H	-0.8884786483	-0.5212958605	-0.2989119347	 0.108962
H	 1.3364131134	-1.6333487037	-0.7192711747	 0.133232
H	 2.1842022595	-0.0491148733	-0.3830134757	 0.159626
H	 0.3009904825	-1.5387339589	 1.5976550653	 0.139974
38.5548	118.7107	190.5038	219.7474	271.9063	348.3971	442.5023	514.3491	674.5967	745.513	762.686	778.2436	838.9295	888.0865	936.7265	996.8928	1042.8785	1063.1757	1087.2303	1097.1939	1111.1121	1138.646	1147.8882	1176.6427	1199.5799	1222.2094	1253.5916	1343.3548	1390.9717	1415.5718	1426.3659	1437.4652	1487.0748	1498.8683	1504.533	3042.6194	3105.6548	3123.3589	3146.6416	3149.6034	3209.2997	3239.1387
CC1CC1N1N=NN=N1	C[C@H]1C[C@H]1n1nnnn1	
InChI=1S/C4H7N5/c1-3-2-4(3)9-7-5-6-8-9/h3-4H,2H2,1H3	InChI=1S/C4H7N5/c1-3-2-4(3)9-7-5-6-8-9/h3-4H,2H2,1H3/t3-,4+/m0/s1
