21
gdb 121248	2.17696	1.08439	0.77968	1.6794	75.24	-0.2461	0.0647	0.3109	1497.7684	0.181068	-461.317996	-461.307742	-461.306798	-461.354712	35.581	
C	-0.4467821047	 1.2404053856	 0.6049437005	-0.225454
O	-0.2284410468	-0.1388794955	 0.7902766392	-0.237899
C	 1.0955459909	-0.5316195824	 0.5024216537	-0.078679
C	 1.1847207118	-2.0382718166	 0.6821780736	 0.100128
O	 2.529017873	-2.5103056846	 0.4543181266	-0.297899
C	 2.5752592503	-3.1594950599	 1.7465388632	-0.075178
C	 1.1643771846	-2.6513432174	 2.108540503	-0.066306
C	 1.0643791766	-1.7337210592	 3.3195509477	-0.090026
O	 1.3420666646	-2.4339320232	 4.5257975774	-0.421362
H	-0.2622589098	 1.5439891257	-0.4372891511	 0.107987
H	-1.4913036105	 1.4432107535	 0.8532491161	 0.128108
H	 0.1991906315	 1.8474569707	 1.2583912035	 0.107173
H	 1.3685680977	-0.2829637916	-0.5370379495	 0.097916
H	 1.816300878	-0.0158156389	 1.1565697271	 0.091995
H	 0.4694636963	-2.5137961569	-0.0021757091	 0.081706
H	 2.6848947045	-4.2461308062	 1.6504369847	 0.100138
H	 3.3883507655	-2.7742373463	 2.3735334692	 0.11001
H	 0.4232846733	-3.4512278749	 2.2067333401	 0.069868
H	 1.8202652831	-0.9434089919	 3.2681833361	 0.109981
H	 0.0806101783	-1.2447058286	 3.3442386462	 0.10645
H	 0.6501920322	-3.0917842413	 4.6496988018	 0.281343
37.848	69.9082	97.3213	101.8596	177.8059	191.5101	240.4208	293.767	303.8596	361.3766	418.2195	464.7444	541.2267	782.4695	845.7613	903.4549	922.9655	978.3026	1000.0408	1010.5919	1045.3498	1068.9049	1103.6173	1119.6187	1150.2773	1154.4022	1172.9888	1182.2171	1217.5177	1228.3721	1244.855	1263.765	1280.9195	1337.4416	1362.4975	1381.8752	1396.6895	1425.3082	1429.4316	1481.9412	1485.7049	1505.127	1508.8403	1528.8592	1532.6499	2962.7531	2976.3808	2993.5787	3012.185	3016.0873	3019.6635	3020.5767	3048.0183	3065.1223	3084.9182	3115.5163	3812.3663
COCC1OCC1CO	COC[C@H]1OC[C@H]1CO	
InChI=1S/C6H12O3/c1-8-4-6-5(2-7)3-9-6/h5-7H,2-4H2,1H3	InChI=1S/C6H12O3/c1-8-4-6-5(2-7)3-9-6/h5-7H,2-4H2,1H3/t5-,6-/m1/s1
