18
gdb 22233	2.31333	1.29152	0.95563	5.7409	76.22	-0.181	-0.0372	0.1439	1255.5843	0.145121	-472.355705	-472.34601	-472.345066	-472.390196	35.501	
C	 0.2541602022	 0.6898319984	 0.9487914725	-0.241513
O	 0.1000247019	-0.0864347548	 2.1233428269	-0.24684
C	-0.6109572235	-1.3168770703	 1.9028227248	-0.199089
C	 0.1682309915	-2.3528389119	 1.1431121047	 0.236417
N	-0.4223630284	-2.8525980319	 0.0401914521	-0.093726
O	 0.1353818556	-3.7985777686	-0.5998337162	-0.425047
C	 1.4583849653	-2.7540927464	 1.6025138418	 0.369656
N	 2.0279544219	-2.1077288883	 2.6490632335	-0.551312
N	 2.0725319512	-3.7667838764	 0.9977978672	-0.541469
H	 3.0337178099	-3.9957344919	 1.1934250022	 0.248142
H	 1.5106041649	-4.1137389548	 0.1808892129	 0.311024
H	-0.7229645495	 1.0019130573	 0.5534460013	 0.119373
H	 0.8282803879	 1.5783304118	 1.2225551137	 0.122506
H	 0.7851022473	 0.1416678111	 0.1592383233	 0.119341
H	-0.8603301938	-1.656922677	 2.9149857325	 0.109256
H	-1.5449858328	-1.1356148881	 1.3561548273	 0.122244
H	 1.6616172356	-1.1831123277	 2.846855058	 0.287549
H	 2.9925316728	-2.2877454904	 2.8777670716	 0.25349
84.174	100.0257	131.9614	166.6519	249.256	276.2588	312.3697	340.6412	368.7073	394.5703	442.9713	468.6374	485.3216	516.6632	662.5544	727.5387	771.5193	786.692	908.9138	910.4009	1007.9326	1093.2532	1098.6675	1115.2388	1182.9253	1207.3395	1259.1685	1281.8607	1303.124	1362.0343	1386.4814	1470.7007	1482.3448	1486.9773	1491.1089	1510.5543	1546.0731	1650.0366	1664.2168	2916.4694	2996.7369	3021.0642	3052.5881	3069.5947	3117.2755	3508.4893	3643.208	3669.5858
COCC(=N[O-])C(N)=[NH2+]	COCC(=N[O])C(=[NH2])N	
InChI=1S/C4H9N3O2/c1-9-2-3(7-8)4(5)6/h8H,2H2,1H3,(H3,5,6)	InChI=1S/C4H9N3O2/c1-9-2-3(7-8)4(5)6/h2,5-6H2,1H3
