14
gdb 12310	3.09347	2.30483	1.37676	6.9042	59.59	-0.2441	-0.0345	0.2096	843.8268	0.110021	-415.922024	-415.915103	-415.914159	-415.953385	25.586	
O	-0.0169753301	-0.0350694129	-0.1399194738	-0.331972
C	-0.0209549519	 1.1682970702	-0.0257292018	 0.317334
N	-1.1676802446	 1.9096571935	 0.091971337	-0.330569
C	-1.2067357487	 3.3613819701	 0.0299349373	-0.158011
C	-0.0263756327	 3.918816429	 0.8138074835	-0.158004
N	 1.1949633469	 3.2988405289	 0.3271412668	-0.330569
C	 1.3089276525	 1.9679953867	 0.0200372213	 0.31734
O	 2.3641041869	 1.430407443	-0.2223415833	-0.331974
H	-2.019931228	 1.3860333851	-0.0513666118	 0.25443
H	-1.1672740604	 3.7245470794	-1.0074220535	 0.123189
H	-2.1435621047	 3.7099804319	 0.4730734929	 0.125594
H	 0.040731499	 4.9997885279	 0.6637034459	 0.125591
H	-0.1748711296	 3.7348437889	 1.8878924409	 0.123191
H	 2.0769503352	 3.7735715084	 0.4605171288	 0.25443
87.6155	133.8515	293.0069	346.2085	395.338	437.0848	495.668	556.7705	582.7247	629.3621	702.3581	706.2246	823.617	911.507	987.2711	1049.5202	1103.5238	1135.032	1251.7214	1260.9678	1261.2624	1373.3355	1393.5292	1396.5625	1459.3709	1480.2414	1510.1643	1511.8286	1815.6378	1819.563	2994.0412	3005.8741	3091.1417	3091.5594	3599.5198	3600.694
O=C1NCCNC1=O	O=C1NCCNC1=O	
InChI=1S/C4H6N2O2/c7-3-4(8)6-2-1-5-3/h1-2H2,(H,5,7)(H,6,8)	InChI=1S/C4H6N2O2/c7-3-4(8)6-2-1-5-3/h1-2H2,(H,5,7)(H,6,8)
