20
gdb 120770	4.22817	0.75872	0.70935	1.3596	76.5	-0.2433	0.0693	0.3126	1625.1115	0.169661	-440.212819	-440.203203	-440.202259	-440.248753	33.966	
C	-0.5080214897	 0.7372517701	 0.0282760171	-0.230431
O	 0.8430296044	 0.3423068781	 0.155488575	-0.235043
C	 1.3515619822	-0.3469722489	-0.9684082566	-0.077
C	 0.8617654336	-1.7769194743	-1.0538740503	-0.041132
N	-0.3407044593	-2.0479051412	-1.8588643326	-0.338403
C	 0.949852463	-2.6083081559	-2.2894132324	-0.05275
C	 1.5004767342	-2.119397976	-3.5887610217	 0.091124
C	 2.7607911791	-2.6458012335	-4.1290037237	-0.181763
O	 1.505603247	-3.0715563497	-4.6585311156	-0.23726
H	-0.6629324383	 1.3590388766	-0.8667349632	 0.106302
H	-1.1929751839	-0.1183396866	-0.0317054582	 0.115673
H	-0.7505427208	 1.3267587446	 0.9161062151	 0.122949
H	 1.1061082078	 0.1887383586	-1.8978756228	 0.091713
H	 2.4410076157	-0.3437750754	-0.8472148137	 0.10826
H	 0.9690951909	-2.3169622759	-0.1134811842	 0.093368
H	-0.9170052554	-2.7648647008	-1.4271223416	 0.236557
H	 1.1161646247	-3.6742104557	-2.1406623628	 0.094408
H	 1.1836568553	-1.1203317272	-3.8838083649	 0.104546
H	 3.3671902728	-2.0272102412	-4.7891928793	 0.117151
H	 3.3116806466	-3.4009082056	-3.5686429637	 0.111733
44.7843	54.3001	102.3365	123.6387	182.4435	226.0932	314.2333	323.0805	368.9618	421.1657	498.2932	582.6357	802.412	830.6322	870.2214	879.3057	908.7904	951.8949	978.1378	985.0751	1026.0218	1070.7753	1096.99	1138.0903	1153.8223	1155.6902	1170.3199	1181.6115	1202.1901	1229.7963	1247.0835	1265.465	1289.099	1326.1002	1342.1785	1381.9843	1438.7929	1471.4108	1484.2692	1489.1188	1494.495	1509.9149	1533.3547	2986.1907	2994.2153	3047.2289	3064.1223	3079.8398	3112.1779	3112.9273	3121.4435	3130.8739	3165.9815	3510.4144
COCC1NC1C1CO1	COC[C@H]1N[C@H]1[C@H]1CO1	
InChI=1S/C6H11NO2/c1-8-2-4-6(7-4)5-3-9-5/h4-7H,2-3H2,1H3	InChI=1S/C6H11NO2/c1-8-2-4-6(7-4)5-3-9-5/h4-7H,2-3H2,1H3/t4-,5-,6-/m1/s1
