18
gdb 75824	2.5305	1.68221	1.22055	1.0728	71.46	-0.2394	-0.039	0.2004	1046.907	0.146826	-439.083407	-439.075027	-439.074083	-439.116125	32.219	
C	-0.2223284451	 1.4876257236	 0.0924411047	-0.487248
C	-0.0266206623	-0.0024036676	-0.0065272778	 0.329446
C	-0.7660532802	-0.9478913058	 0.8671915244	-0.291188
N	 0.6610354289	-0.6892024129	 1.1340516321	-0.143455
C	 1.5272525134	-1.7468634776	 0.5922262577	-0.268195
C	 1.1598374511	-1.8896859516	-0.8808077277	 0.332407
O	 1.2734475368	-2.845635282	-1.6051010162	-0.316807
C	 0.4750430454	-0.5867275217	-1.3144558048	-0.010225
O	-0.5149211094	-0.8250160898	-2.2816928452	-0.438973
H	 0.6899766882	 2.0224988157	-0.1943130838	 0.119959
H	-1.0276663498	 1.8105807737	-0.5756139227	 0.135846
H	-0.4792045665	 1.7766879865	 1.1145027829	 0.128532
H	-1.4447734406	-0.5581250717	 1.6195116276	 0.123503
H	-1.0555123914	-1.9148626751	 0.458284629	 0.123825
H	 2.5776186696	-1.4406583334	 0.6832418457	 0.138589
H	 1.4071176823	-2.6923615889	 1.1283015041	 0.142436
H	 1.2628032387	 0.0796993161	-1.715841333	 0.089727
H	-0.2477468291	-1.6385909274	-2.7355463574	 0.291819
82.2626	175.635	197.3822	237.9834	271.3504	302.8702	397.5388	421.1604	462.5659	501.553	557.8559	612.1784	649.7117	730.267	775.0499	806.5124	896.921	957.5338	977.3078	999.4262	1054.384	1095.5189	1102.2139	1117.0555	1170.2756	1177.2885	1208.623	1228.1125	1280.1372	1309.6113	1351.6395	1375.4449	1414.898	1436.2842	1460.3213	1485.9631	1493.9626	1515.4066	1847.4372	2920.2964	3030.2321	3034.187	3097.8126	3098.3161	3100.2765	3123.2339	3191.1469	3716.2039
CC12CN1CC(=O)C2O	C[C@]12CN1CC(=O)[C@H]2O	
InChI=1S/C6H9NO2/c1-6-3-7(6)2-4(8)5(6)9/h5,9H,2-3H2,1H3	InChI=1S/C6H9NO2/c1-6-3-7(6)2-4(8)5(6)9/h5,9H,2-3H2,1H3/t5-,6-,7?/m1/s1
