15
gdb 22794	3.0487	1.47187	1.00134	2.7162	77.71	-0.2331	-0.0512	0.1819	1111.9667	0.113205	-453.910064	-453.902209	-453.901265	-453.943325	29.063	
O	 0.0546085592	 1.3103488768	-0.1793297889	-0.335134
N	 0.0158890818	-0.0547568351	-0.0954609059	-0.201236
C	-1.158136891	-0.5881427937	-0.0015955816	 0.26411
C	-1.1449333619	-2.0429105172	 0.09140678	-0.071819
C	-2.2659484408	-2.7466323582	 0.2454692853	-0.126477
C	-3.5977658351	-2.0830762677	 0.3168178584	-0.116357
O	-3.5943352283	-0.6992229143	-0.0301509964	-0.269896
C	-2.4801837974	 0.099118099	 0.0186389041	 0.32794
N	-2.6102382812	 1.3598727669	 0.0182123158	-0.488806
H	 1.0022179845	 1.4810180634	-0.2482536752	 0.312863
H	-0.1685448375	-2.5116412521	 0.0451347337	 0.11407
H	-2.2523682285	-3.8274869541	 0.3414537022	 0.111274
H	-4.3077343125	-2.5610791585	-0.369747466	 0.131415
H	-4.0237849233	-2.1856295732	 1.3279495531	 0.126435
H	-3.6071268079	 1.5905219579	 0.0269105112	 0.221619
45.4362	78.649	232.7498	259.3755	361.7329	413.3702	437.507	463.9791	526.5795	545.2556	618.8061	691.8768	718.2633	812.4867	877.2439	913.595	918.6862	999.8777	1009.7717	1028.6451	1072.6474	1133.6463	1198.621	1252.777	1253.749	1323.6724	1380.973	1428.9248	1449.1117	1500.9535	1664.5994	1717.9513	1720.9338	2977.1338	3039.1391	3182.2114	3206.014	3453.0056	3781.1695
ON=C1C=CCOC1=N	ON=C1C=CCO[C]1[NH]	
InChI=1S/C5H6N2O2/c6-5-4(7-8)2-1-3-9-5/h1-2,6,8H,3H2	InChI=1S/C5H6N2O2/c6-5-4(7-8)2-1-3-9-5/h1-2,6,8H,3H2
