21
gdb 99535	2.16309	1.20677	0.82854	0.9215	90.37	-0.2549	0.0461	0.301	1441.0307	0.178387	-349.894124	-349.883163	-349.882219	-349.930136	40.208	
C	-0.0891651822	 1.6059840547	 0.0077772478	-0.393824
C	 0.0466121132	 0.0815972438	-0.018332068	-0.186864
C	 0.7370639421	-0.4965592062	 1.2403626498	-0.155064
C	 0.0049234738	-0.1199642964	 2.4490156431	 0.342269
C	-0.6345329628	 0.1821890741	 3.4212381993	-0.463757
C	 0.9067276875	-2.0529519147	 1.1778329316	-0.161511
C	 1.6510829789	-2.5309458818	-0.0863079172	-0.405578
C	 1.598714024	-2.5410403777	 2.3700578851	 0.329865
C	 2.2085647423	-2.9475500055	 3.3226948786	-0.461749
H	 0.8923156241	 2.0880929954	 0.0785861749	 0.114403
H	-0.5716319454	 1.966087922	-0.9058589501	 0.112315
H	-0.6855945571	 1.9352785159	 0.8625374578	 0.135468
H	-0.9435490255	-0.3798909698	-0.1194990238	 0.103982
H	 0.6257562943	-0.2105149809	-0.8992921631	 0.102832
H	 1.7474148631	-0.0676081037	 1.301933672	 0.109806
H	-1.1771823942	 0.4466181255	 4.2947637347	 0.193832
H	-0.1036511455	-2.483443359	 1.1681189265	 0.113708
H	 2.6242801756	-2.0373327745	-0.1737307371	 0.125385
H	 1.826132921	-3.6077989962	-0.0277030142	 0.129714
H	 1.0747427319	-2.3302464877	-0.992186024	 0.121705
H	 2.727284521	-3.3035848973	 4.1779363064	 0.193061
49.4668	89.841	120.4742	157.5629	184.35	199.2978	247.2871	256.7791	284.2778	331.9817	391.9862	467.9059	502.0111	555.0221	590.0078	628.2196	629.1192	637.6393	639.1645	767.9814	839.9712	862.1303	942.9451	959.4345	1024.5407	1056.9309	1086.5485	1120.0973	1135.5246	1140.149	1255.0608	1283.6431	1320.4231	1340.3098	1359.653	1362.4654	1406.9781	1412.7541	1484.8942	1493.5556	1497.7586	1502.0172	1508.6128	2232.9402	2235.9672	3003.859	3020.9557	3033.503	3037.1204	3045.4233	3081.5289	3102.4097	3119.012	3123.2722	3129.4305	3504.8208	3506.0432
CCC(C#C)C(C)C#C	CC[C@@H](C#C)[C@@H](C)C#C	
InChI=1S/C9H12/c1-5-8(4)9(6-2)7-3/h1-2,8-9H,7H2,3-4H3	InChI=1S/C9H12/c1-5-8(4)9(6-2)7-3/h1-2,8-9H,7H2,3-4H3/t8-,9+/m0/s1
