18
gdb 6902	2.9654	1.53702	1.37661	0.8356	64.8	-0.2222	0.0658	0.2879	1004.3263	0.15021	-422.036312	-422.026834	-422.02589	-422.070104	34.159	
C	-0.4099017806	 1.2061527629	 0.2443598993	-0.24481
O	 0.251137012	-0.0042666154	-0.0974850844	-0.25852
C	 0.8925540366	-0.5904386058	 0.9980000901	 0.034146
C	 0.1388605974	-1.7275382417	 1.6699029028	 0.024054
O	-1.1284635383	-2.043188923	 1.1800347878	-0.432233
C	 1.3837342227	-2.0032195907	 0.8351297839	 0.260747
C	 1.2938111577	-2.7227133553	-0.4877406267	-0.437187
O	 2.5702609669	-2.2184361624	 1.5603264518	-0.459284
H	 0.3072870217	 1.9601196029	 0.5975331507	 0.120011
H	-0.8939606187	 1.5724093039	-0.6636304849	 0.132617
H	-1.1670557622	 1.0508789515	 1.0248302179	 0.121923
H	 1.5057749693	 0.0817185015	 1.5961082842	 0.100297
H	 0.2189744555	-1.8503264828	 2.7462972421	 0.101734
H	-1.2816323323	-1.456891709	 0.4267730237	 0.292827
H	 0.3655746949	-2.4898499047	-1.0109350134	 0.125005
H	 2.1342933642	-2.4411148511	-1.1288994694	 0.127158
H	 1.327421822	-3.8073598536	-0.331171685	 0.109927
H	 2.5467120814	-3.1232694571	 1.8931930996	 0.28159
80.947	137.7253	142.7347	174.4581	213.621	255.4646	277.8917	317.7804	351.3763	385.7879	422.8021	507.3886	518.0757	659.4482	724.661	848.6273	896.0204	974.9405	1004.7484	1024.8917	1083.2606	1092.1145	1145.3651	1158.3961	1181.9719	1202.3911	1244.3585	1292.6988	1306.8919	1336.8483	1379.2905	1414.6961	1454.1355	1478.1085	1482.542	1487.1616	1506.3929	1510.3334	2996.4934	3034.962	3053.0518	3099.6114	3118.8762	3124.6609	3143.2905	3152.1644	3749.5688	3785.3422
COC1C(O)C1(C)O	CO[C@H]1[C@@H](O)[C@]1(C)O	
InChI=1S/C5H10O3/c1-5(7)3(6)4(5)8-2/h3-4,6-7H,1-2H3	InChI=1S/C5H10O3/c1-5(7)3(6)4(5)8-2/h3-4,6-7H,1-2H3/t3-,4+,5+/m1/s1
