17
gdb 103620	2.83743	1.23695	1.04495	1.4193	64.83	-0.2395	-0.0442	0.1954	1164.624	0.133507	-496.088825	-496.079411	-496.078467	-496.123193	34.215	
O	 0.0212397583	 1.3221510689	 0.0459692165	-0.431768
C	 0.0210212823	-0.0971664364	-0.0521154215	-0.140649
C	-1.4228529031	-0.5776496029	-0.037806278	 0.302886
O	-2.1589318366	-0.004109193	-1.0996280644	-0.483798
C	-1.7694997191	-2.0809762956	 0.1118986429	-0.336537
C	-2.8550291635	-1.7240682318	 1.2059695065	 0.066851
O	-3.0699397462	-2.5132474282	 2.3309461115	-0.425034
C	-2.1135738875	-0.3943513062	 1.342733106	 0.287343
O	-1.8679415594	 0.3158658687	 2.2842611048	-0.331745
H	-0.3098455047	 1.5334649358	 0.9295567216	 0.302484
H	 0.494855877	-0.349726668	-1.0062973259	 0.123665
H	 0.5980690155	-0.5642586534	 0.7580962061	 0.09785
H	-1.8672228214	 0.9181390856	-1.1408830682	 0.290869
H	-2.1468528695	-2.5613168726	-0.7901082668	 0.131449
H	-0.9425598577	-2.6559943765	 0.5370738314	 0.114587
H	-3.8139246107	-1.574256947	 0.6974836289	 0.137499
H	-2.4272340836	-2.2617040673	 3.0044511984	 0.294048
76.089	104.1535	116.6671	172.6444	231.341	273.2266	312.1506	327.9376	375.4062	404.3609	480.3866	555.5342	579.2827	649.7936	750.4452	756.7356	860.767	923.6811	928.9049	960.1427	1025.3418	1053.7365	1074.2639	1126.88	1146.2368	1171.5298	1231.3293	1243.4522	1273.1512	1321.1799	1361.3236	1409.3951	1415.0802	1429.6053	1464.0419	1492.2144	1846.48	3009.4175	3059.4211	3074.9648	3083.6322	3154.1354	3741.5554	3761.8354	3793.1104
OCC1(O)CC(O)C1=O	OC[C@@]1(O)C[C@@H](O)C1=O	
InChI=1S/C5H8O4/c6-2-5(9)1-3(7)4(5)8/h3,6-7,9H,1-2H2	InChI=1S/C5H8O4/c6-2-5(9)1-3(7)4(5)8/h3,6-7,9H,1-2H2/t3-,5+/m1/s1
