16
gdb 64688	4.86292	0.86406	0.82124	3.4565	74.62	-0.2916	-0.0098	0.2817	1357.4887	0.123449	-396.932428	-396.923349	-396.922405	-396.966727	32.319	
C	-0.0860018543	 1.6878278319	 0.160834464	-0.453924
C	-0.0781928625	 0.1777061196	 0.0828179046	 0.313289
C	-1.3697732108	-0.4586555245	-0.4360893783	-0.41667
C	-1.637813615	-0.1136194056	-1.8335122536	 0.275251
N	-1.8369350896	 0.1600402902	-2.9379494001	-0.296076
N	 1.1979177889	-0.4293141799	-0.2900034578	-0.323692
C	 0.6873242357	-0.6449628997	 1.0805580396	-0.256674
C	 1.4290388976	-0.0401007821	 2.1608015533	 0.338213
N	 1.9938901216	 0.4418891023	 3.0465909564	-0.328045
H	 0.8714535612	 2.0560390581	 0.5316799337	 0.160097
H	-0.2581487773	 2.113899667	-0.8322396013	 0.153017
H	-0.8790689083	 2.0387356004	 0.8290578479	 0.131129
H	-1.3240680103	-1.5503590237	-0.351375508	 0.152571
H	-2.2189048966	-0.1283845991	 0.1735048253	 0.169639
H	 1.0766248879	-1.2754061938	-0.8423160115	 0.24966
H	 0.2796362217	-1.6210481412	 1.3318071958	 0.132216
53.4017	98.6164	142.3354	178.8301	196.4853	311.4129	343.1077	382.1074	393.0334	398.3748	475.708	572.5	646.8145	736.9742	813.0202	895.9248	916.409	931.5014	952.5052	996.482	1071.904	1079.9275	1116.8317	1198.3796	1213.7815	1261.7796	1338.6593	1365.1686	1427.2458	1437.9957	1456.8698	1487.0974	1496.5308	2362.6706	2365.6021	3040.9194	3046.817	3081.9591	3113.5027	3140.4737	3147.6865	3500.3586
CC1(CC#N)NC1C#N	C[C@@]1(CC#N)N[C@H]1C#N	
InChI=1S/C6H7N3/c1-6(2-3-7)5(4-8)9-6/h5,9H,2H2,1H3	InChI=1S/C6H7N3/c1-6(2-3-7)5(4-8)9-6/h5,9H,2H2,1H3/t5-,6-/m0/s1
