13
gdb 21557	4.15564	1.91472	1.31162	1.6512	67.37	-0.2121	-0.0579	0.1542	859.852	0.097886	-390.947071	-390.940375	-390.939431	-390.977691	25.881	
N	 0.0391369116	 1.3452227509	 0.1447117042	-0.559014
C	-0.0646514802	-0.015600983	 0.0567436793	 0.453762
C	-1.2315801167	-0.7173096342	 0.0373464139	-0.270297
C	-1.1926512868	-2.1520232812	-0.0001991375	 0.436092
N	-2.2231273033	-2.9135014594	-0.0182364219	-0.5676
N	 0.1450474252	-2.6170184962	-0.017041638	-0.298954
N	 1.267691888	-1.8938067876	-0.0124205599	-0.036164
N	 1.1961921392	-0.6302677329	 0.0253238001	-0.268064
H	 0.9401848219	 1.7248270877	-0.0997630413	 0.267632
H	-0.7604056831	 1.9029886512	-0.1043854663	 0.26344
H	-2.201967313	-0.2376747071	 0.0546415669	 0.111632
H	-1.9685056095	-3.9013007394	-0.0456098824	 0.197088
H	 0.3220788667	-3.6112541087	-0.0498464271	 0.270448
155.9522	179.0143	334.15	404.251	419.0427	451.7519	470.0863	550.9879	565.1495	640.2583	677.5153	762.6017	775.8656	781.1326	861.4014	940.0646	1017.8541	1078.3946	1129.6108	1157.3937	1280.002	1316.4635	1398.6816	1428.1128	1560.2924	1621.4362	1675.8195	1731.0307	3212.788	3468.1671	3596.6475	3608.0473	3717.0661
NC1=CC(=N)NN=N1	Nc1cc([NH])[nH]nn1	
InChI=1S/C3H5N5/c4-2-1-3(5)7-8-6-2/h1H,(H4,4,5,6,7)	InChI=1S/C3H10N5/c4-2-1-3(5)7-8-6-2/h2-4,6-8H,1,5H2
