19
gdb 68690	2.67283	1.86477	1.55557	0.8029	75.	-0.2284	0.0097	0.2381	946.0086	0.160637	-423.028248	-423.020867	-423.019923	-423.059444	30.302	
C	 0.0345709267	 1.5212961343	 0.0447299276	-0.465345
C	-0.0422899899	 0.0086612612	-0.0208454321	 0.300594
C	 0.6891777709	-0.587875174	-1.2464008822	-0.089413
O	 0.6125659608	-2.0082499627	-1.2599433934	-0.258881
C	 0.9036612207	-2.622801792	-0.011155011	-0.074467
C	 0.1546453722	-1.9078109992	 1.12890153	-0.004743
O	 0.6316578329	-0.5576891612	 1.1214016814	-0.288834
C	-1.3178046676	-1.744534566	 0.7788640592	-0.074731
C	-1.4324411741	-0.6149761845	 0.0899810067	-0.104128
H	 1.0761119911	 1.8558509204	 0.0221999621	 0.126241
H	-0.4924729836	 1.9737805518	-0.8010888192	 0.117127
H	-0.4208646319	 1.8786789009	 0.9720129892	 0.131379
H	 0.245863153	-0.2557099393	-2.1908652749	 0.10316
H	 1.7382499829	-0.2533254416	-1.2083849372	 0.092008
H	 0.6036821297	-3.6709219076	-0.1113812054	 0.105005
H	 1.9823845448	-2.5794588879	 0.2066407277	 0.09546
H	 0.369617623	-2.359563141	 2.1016380893	 0.080539
H	-2.083527956	-2.4803640193	 0.9859209773	 0.106285
H	-2.3142460058	-0.2137835323	-0.392401645	 0.102745
188.1288	222.9168	262.5758	279.0401	346.6973	373.3995	412.9978	461.1855	601.4254	642.1049	652.5607	742.0252	830.0097	838.6115	853.7397	875.339	894.697	932.847	939.8424	977.7563	1012.6522	1021.7938	1068.9422	1102.3357	1123.9883	1179.3495	1198.1859	1232.1198	1249.7603	1279.4799	1312.5132	1330.2773	1346.9866	1377.013	1408.2314	1410.2038	1477.5723	1483.739	1490.2707	1495.8859	1670.5116	2977.6949	2985.4831	3041.4618	3072.5739	3075.6495	3079.4567	3113.4443	3122.2728	3209.0048	3234.7405
CC12COCC(O1)C=C2	C[C@@]12COC[C@@H](O1)C=C2	
InChI=1S/C7H10O2/c1-7-3-2-6(9-7)4-8-5-7/h2-3,6H,4-5H2,1H3	InChI=1S/C7H10O2/c1-7-3-2-6(9-7)4-8-5-7/h2-3,6H,4-5H2,1H3/t6-,7+/m0/s1
