19
gdb 114821	2.6157	1.32498	1.16833	2.6518	71.43	-0.242	0.062	0.3039	1151.5634	0.157381	-460.108428	-460.099393	-460.098449	-460.142412	33.233	
C	 0.1538276103	 1.5399390359	-0.1427163956	-0.23851
O	-0.3558995964	 0.2653250877	-0.4711830145	-0.24638
C	 0.5555544637	-0.5397518146	-1.1682113006	 0.053635
C	 1.7557993392	-1.1934064392	-0.3984324277	-0.279593
C	 1.264975728	-2.5906685719	-0.8602264639	 0.065243
O	 0.4572109085	-3.2392166712	 0.1374707298	-0.288115
C	-0.758704477	-2.649369053	-0.388149442	-0.135415
C	 0.0184603616	-1.9438824887	-1.5239056286	 0.316868
O	-0.3456579764	-2.208140264	-2.8435269988	-0.480015
H	 1.0314903808	 1.4732002192	 0.5164508794	 0.114106
H	 0.4403587647	 2.1046944822	-1.0435838461	 0.106055
H	-0.6380925876	 2.082372616	 0.3789143138	 0.129819
H	 0.9027235277	-0.0335001827	-2.0824225278	 0.071609
H	 2.7420506355	-0.8952718166	-0.7602478482	 0.104428
H	 1.7098082112	-1.0850252839	 0.6871278932	 0.117642
H	 1.9623013933	-3.2656716214	-1.3593301199	 0.085401
H	-1.4467966148	-3.415873586	-0.7629627625	 0.102786
H	-1.262179188	-2.0038434621	 0.3379435841	 0.114786
H	-1.1216333144	-1.6762437857	-3.0551980142	 0.28565
69.6012	105.1205	173.7662	179.5265	200.4312	253.442	317.9193	354.107	418.3676	462.4413	499.7923	637.1181	667.3706	788.4034	858.8052	897.8605	925.5761	978.8489	995.5549	1010.3468	1045.9694	1071.7589	1120.8965	1144.5714	1167.7055	1170.8067	1185.1383	1188.0362	1218.5859	1243.5335	1250.3732	1290.1707	1315.5787	1325.42	1377.0618	1406.011	1457.4653	1482.4258	1487.175	1507.0442	1509.8691	2976.5399	2983.9952	3029.3752	3030.35	3068.887	3091.6908	3099.6735	3117.6992	3133.2757	3790.9838
COC1CC2OCC12O	CO[C@H]1C[C@H]2OC[C@@]12O	
InChI=1S/C6H10O3/c1-8-4-2-5-6(4,7)3-9-5/h4-5,7H,2-3H2,1H3	InChI=1S/C6H10O3/c1-8-4-2-5-6(4,7)3-9-5/h4-5,7H,2-3H2,1H3/t4-,5+,6+/m0/s1
