20
gdb 67261	2.65237	2.15947	1.70608	1.7818	81.15	-0.2185	0.0956	0.3141	902.0348	0.173891	-365.955877	-365.949216	-365.948272	-365.986373	28.565	
C	-0.0864154537	 1.5266205512	-0.0022730587	-0.528403
C	-0.0501316014	 0.0228949942	 0.0455013885	 0.349059
C	 0.6067068767	-0.8304202548	-1.1372466375	-0.097569
C	 1.8852254414	-0.9942962254	-0.2785333296	-0.248999
C	 0.9057116114	-0.8778984049	 0.8880970197	-0.036199
N	-0.1533550255	-1.9682888603	 0.7202317997	-0.166505
C	-0.1995580704	-2.0940768018	-0.8199803567	 0.009156
C	-1.6843561754	-1.6876967179	-0.7927431683	-0.256221
C	-1.2252713583	-0.9066192917	 0.4380203569	-0.05035
H	 0.8993043338	 1.9466306831	-0.2324026134	 0.119212
H	-0.7820657413	 1.8818820587	-0.7719868365	 0.118303
H	-0.4099343213	 1.9472023885	 0.9566182014	 0.118699
H	 0.6380031129	-0.4759289322	-2.1681207685	 0.06338
H	 2.4701089153	-1.9129073568	-0.390353018	 0.096988
H	 2.5453473075	-0.1243056796	-0.3350712598	 0.101213
H	 1.198165041	-0.7109817408	 1.9249353796	 0.068018
H	 0.1367047191	-3.0381585591	-1.2512597638	 0.069209
H	-2.0887597693	-1.1449448883	-1.6514298208	 0.092771
H	-2.3365526282	-2.5212379392	-0.5222675906	 0.111313
H	-1.8895315343	-0.6109765527	 1.2525585261	 0.066927
209.8027	227.3459	264.5302	356.3391	428.3593	468.8751	589.1373	681.2795	705.8111	774.4413	793.5349	820.261	855.7059	879.5435	885.1148	911.1885	938.6659	956.8632	963.8967	994.3621	1004.0667	1039.0621	1050.9654	1068.4882	1094.3712	1133.3571	1156.1081	1172.7608	1185.5484	1201.8912	1220.8417	1238.0858	1243.9797	1257.9242	1273.0015	1293.1456	1320.8465	1363.7119	1412.5827	1482.9203	1486.9207	1489.1508	1494.923	3019.5665	3047.3064	3059.3025	3081.5072	3087.1096	3094.2954	3098.1482	3105.7221	3109.6887	3114.7769	3122.3495
CC12C3CC1N1C3CC21	C[C@@]12[C@H]3C[C@@H]1N1[C@H]3C[C@H]21	
InChI=1S/C8H11N/c1-8-4-2-6(8)9-5(4)3-7(8)9/h4-7H,2-3H2,1H3	InChI=1S/C8H11N/c1-8-4-2-6(8)9-5(4)3-7(8)9/h4-7H,2-3H2,1H3/t4-,5-,6-,7+,8+/m0/s1
