21
gdb 91637	2.77312	1.70326	1.48542	1.3757	80.18	-0.2478	0.0809	0.3287	989.7016	0.186573	-387.0895	-387.082392	-387.081448	-387.120512	30.514	
O	-0.0339108237	 1.4321283141	-0.078499833	-0.443046
C	-0.0031658374	 0.0177895529	 0.025345932	 0.15624
C	 0.6248162057	-0.5328175065	 1.3561018929	-0.249281
C	-0.52295356	-1.3841417978	 1.964219812	-0.023184
C	-1.1631756771	-1.9375630691	 0.670854734	-0.246574
C	-1.4458909118	-0.5469820412	 0.0641438243	-0.053917
C	-2.1685031807	 0.1945370543	 1.1910665624	 0.00662
C	-3.0242242958	-0.5725643683	 2.1681907944	-0.346873
C	-1.5583829087	-0.3744563471	 2.4633098251	-0.009668
H	 0.8724045983	 1.7525273321	-0.0521820238	 0.280668
H	 0.5267401742	-0.4044277029	-0.8416337388	 0.058984
H	 1.512966244	-1.1406940568	 1.1555276735	 0.085797
H	 0.9198779259	 0.2935512947	 2.0106137616	 0.091192
H	-0.1968448823	-2.1266896263	 2.6959516871	 0.054711
H	-0.4533445218	-2.5167539007	 0.0725842881	 0.089597
H	-2.0505029078	-2.5519386381	 0.8243699685	 0.098948
H	-1.9454501556	-0.5319302202	-0.9065266521	 0.059191
H	-2.3273697416	 1.2578621143	 1.0726068158	 0.098179
H	-3.7022865299	 0.0322328345	 2.7615786475	 0.106483
H	-3.4265914887	-1.5499755964	 1.9275712991	 0.107176
H	-1.2749807053	 0.2734887443	 3.2861933094	 0.078757
152.0372	249.4277	264.5562	341.9271	402.4699	460.6281	487.4384	537.2965	567.2052	725.6907	744.458	793.5208	826.9622	838.5514	882.0214	897.8674	914.5403	934.5572	953.6534	985.6918	990.1989	1006.2306	1050.6115	1062.864	1075.5313	1088.0934	1091.9094	1124.5451	1144.3717	1192.2866	1197.0776	1198.9894	1223.952	1237.0098	1288.4312	1297.4725	1305.3385	1334.1552	1347.8044	1361.3181	1382.2593	1426.4311	1481.3695	1492.5545	1529.3737	2976.8288	3041.5408	3064.2591	3082.169	3089.2606	3093.6198	3122.4851	3135.8487	3159.9671	3200.9441	3212.4847	3825.8546
OC1CC2CC1C1CC21	O[C@H]1C[C@@H]2C[C@H]1[C@H]1C[C@@H]21	
InChI=1S/C8H12O/c9-8-2-4-1-7(8)6-3-5(4)6/h4-9H,1-3H2	InChI=1S/C8H12O/c9-8-2-4-1-7(8)6-3-5(4)6/h4-9H,1-3H2/t4-,5-,6-,7-,8-/m0/s1
