20
gdb 89123	4.51727	0.64461	0.59955	2.8617	77.73	-0.2328	-0.0297	0.2031	1839.6803	0.167431	-440.240215	-440.229935	-440.228991	-440.277399	35.136	
C	-0.3638996413	 1.4192672044	 0.2980053787	-0.3122
N	-0.0019513271	 0.0148453792	 0.1715588012	-0.067879
C	 1.3345519187	-0.3129912442	-0.3000609336	-0.260854
C	 0.9396812443	-0.5847563867	 1.1135966694	 0.00404
C	 1.5803345066	 0.1831450451	 2.2392295397	-0.083832
O	 0.6423199372	 0.2925157451	 3.2972708326	-0.250985
C	 1.1554215523	 0.9293657301	 4.4372588398	-0.140346
C	 0.0665999012	 0.958978346	 5.4964174591	 0.138818
O	 0.2043884465	 1.4633723538	 6.5785227752	-0.23679
H	 0.4838747636	 2.0984452211	 0.480967663	 0.096202
H	-0.8480007743	 1.7378796081	-0.6303735444	 0.124955
H	-1.0780505935	 1.532218265	 1.1185005793	 0.133348
H	 1.4112034033	-1.1238979698	-1.0195804657	 0.118825
H	 2.0318129568	 0.5086081328	-0.4691954411	 0.104859
H	 0.6721155293	-1.6025684729	 1.393206936	 0.098242
H	 2.4785209226	-0.3562039029	 2.584334077	 0.098465
H	 1.9093717012	 1.1822148505	 1.917081176	 0.092747
H	 2.0328982401	 0.4006283178	 4.8483624182	 0.121755
H	 1.4757159563	 1.9646657545	 4.2289886024	 0.121331
H	-0.8775492139	 0.4656005031	 5.1769337874	 0.099299
38.1865	53.9161	87.8373	98.8517	119.7146	177.4997	248.6701	303.9293	329.4793	377.66	462.2497	506.2636	592.0978	740.021	756.0039	808.1121	911.6213	1004.8389	1011.5836	1040.4051	1063.3353	1102.4776	1114.7809	1120.5474	1128.9815	1159.3896	1168.378	1193.5282	1204.4576	1235.4194	1267.862	1337.2798	1341.626	1378.0859	1407.4245	1446.7539	1450.5374	1480.4919	1487.6671	1500.1999	1512.3023	1525.7275	1845.4479	2901.8398	2955.9298	2967.2264	2975.2163	2985.5038	3010.6287	3071.348	3080.3093	3113.8256	3118.8369	3171.4062
CN1CC1COCC=O	CN1C[C@H]1COCC=O	
InChI=1S/C6H11NO2/c1-7-4-6(7)5-9-3-2-8/h2,6H,3-5H2,1H3	InChI=1S/C6H11NO2/c1-7-4-6(7)5-9-3-2-8/h2,6H,3-5H2,1H3/t6-,7?/m0/s1
