16
gdb 46152	4.66355	1.00464	0.85396	1.6039	69.96	-0.2399	0.0038	0.2436	1265.4792	0.127009	-434.105147	-434.097072	-434.096128	-434.138192	29.716	
O	 0.0129769291	-0.0828002788	-0.0056815984	-0.364916
C	-0.0059182993	 1.1317217903	 0.0029057202	 0.392826
C	-1.3209068648	 1.9175348869	 0.0052128285	-0.292502
N	-1.242489043	 3.3475464649	-0.2977437772	-0.294663
C	-0.1009505717	 3.9600571791	 0.3774033922	-0.12083
C	 1.2406722728	 3.3259255865	-0.0413289059	-0.156152
N	 1.1386655242	 1.880969916	 0.0770857849	-0.327134
C	-0.0725694111	 5.4073630599	 0.1354270351	 0.277922
N	-0.0189544712	 6.5422617087	-0.0708079185	-0.306402
H	-1.9974622648	 1.4324418381	-0.7009688478	 0.14896
H	-1.7647957261	 1.7843412389	 1.000943998	 0.147325
H	-1.1578920845	 3.4928101341	-1.2994412334	 0.236563
H	-0.2381961499	 3.8020257048	 1.4556870956	 0.144157
H	 1.4743170426	 3.6340236878	-1.0711191126	 0.124518
H	 2.0493748084	 3.6910458233	 0.6010822928	 0.135684
H	 1.9898479692	 1.3371656996	 0.0494162566	 0.254645
70.7219	148.1446	156.5108	168.5751	324.8453	389.4827	428.5303	471.6539	501.2781	548.9548	582.7552	641.8153	694.3468	766.3366	828.1481	891.9968	967.3863	1025.8601	1050.0211	1092.6281	1121.3419	1153.5252	1233.2131	1275.3399	1288.6957	1341.7552	1348.5699	1363.3573	1395.29	1457.0949	1481.5727	1491.5495	1521.9475	1799.9178	2369.3505	2995.2133	3029.5558	3030.5847	3065.795	3121.3209	3514.5554	3600.8584
O=C1CNC(CN1)C#N	O=C1CN[C@@H](CN1)C#N	
InChI=1S/C5H7N3O/c6-1-4-2-8-5(9)3-7-4/h4,7H,2-3H2,(H,8,9)	InChI=1S/C5H7N3O/c6-1-4-2-8-5(9)3-7-4/h4,7H,2-3H2,(H,8,9)/t4-/m1/s1
