21
gdb 87785	4.06792	1.01266	0.95176	1.4705	84.28	-0.2115	0.0784	0.29	1348.3459	0.180873	-387.045555	-387.036674	-387.035729	-387.079191	34.619	
C	 0.282552901	 1.5300829561	-0.4473693617	-0.407157
C	 0.1037152785	 0.062621875	-0.1310957874	-0.070977
C	 1.310533905	-0.8641506811	 0.0043401758	-0.364072
C	 0.4880031022	-0.501542264	 1.1966741445	 0.444668
C	 0.8790630777	 0.1933479971	 2.4986003855	-0.443962
C	-0.0078473682	-0.8746996092	 3.1320841094	 0.454465
C	 0.19422716	-1.6991052179	 4.3573649447	-0.33189
C	-1.0136541257	-0.7746050056	 4.2278271527	-0.332739
O	-0.3283209619	-1.4700805802	 1.8691090103	-0.325788
H	 1.1637256606	 1.9397470531	 0.058240223	 0.114188
H	 0.4180161813	 1.6901891144	-1.522722194	 0.119655
H	-0.5859070376	 2.1174616672	-0.1287340764	 0.118907
H	-0.7752931914	-0.4032442887	-0.5703210176	 0.09581
H	 1.2169036907	-1.8762736793	-0.3746302421	 0.120837
H	 2.3035556549	-0.4326581885	-0.0867829625	 0.107987
H	 1.938152782	 0.1391104872	 2.7612423549	 0.112585
H	 0.5253720657	 1.2215954187	 2.6076327727	 0.112943
H	 0.0151386464	-2.7652397508	 4.2687490861	 0.124718
H	 0.9887998266	-1.4254588632	 5.0443475452	 0.112708
H	-1.0443820937	 0.130209114	 4.8266533993	 0.112564
H	-1.9783456239	-1.2396131841	 4.0551836275	 0.12455
48.3451	146.8036	181.9927	199.0841	266.783	291.1578	369.2297	408.9378	414.4569	470.5913	494.0208	667.5032	754.7484	786.0321	834.5609	857.5287	882.0739	892.2861	909.9966	917.1272	927.3267	988.6028	999.6556	1030.5298	1047.545	1066.8372	1083.9639	1111.7556	1124.2696	1165.6974	1172.3187	1184.0406	1185.7506	1226.9235	1266.3816	1330.0394	1378.4733	1411.8699	1423.3562	1448.7333	1481.8712	1488.5482	1492.8657	1502.3638	1521.5939	3025.3236	3060.794	3088.3479	3092.0529	3111.8846	3119.5703	3125.9958	3128.7564	3140.9617	3209.8201	3211.7662	3224.0214
CC1CC11CC2(CC2)O1	C[C@H]1C[C@]21CC1(CC1)O2	
InChI=1S/C8H12O/c1-6-4-8(6)5-7(9-8)2-3-7/h6H,2-5H2,1H3	InChI=1S/C8H12O/c1-6-4-8(6)5-7(9-8)2-3-7/h6H,2-5H2,1H3/t6-,8+/m0/s1
