19
gdb 55740	3.3769	1.13563	1.06878	2.3611	76.3	-0.2403	-0.0125	0.2278	1206.5168	0.157297	-422.981692	-422.972999	-422.972055	-423.0161	32.457	
C	 0.8619469766	 0.5890723737	 0.2577162782	-0.484168
C	-0.4801422829	 0.0793091093	-0.2208695848	 0.383097
O	-1.5223284209	 0.3582940438	 0.3240841069	-0.302382
C	-0.4577070222	-0.8628976059	-1.4303825699	-0.424634
C	-0.1341054765	-2.2753325229	-1.0159298702	 0.419489
C	-0.760836762	-3.1531405251	 0.1023609844	-0.247744
C	 0.5051848401	-3.8497399399	-0.441394436	 0.050023
C	 0.053597666	-3.5466935026	-1.8880182099	-0.265261
O	 1.2078883081	-2.5432246373	-0.4178996107	-0.34301
H	 1.5155096759	-0.2645143836	 0.4680100531	 0.172413
H	 1.3467161251	 1.176159456	-0.5310968149	 0.134685
H	 0.73336135	 1.2042196024	 1.1489948364	 0.136169
H	-1.4508477702	-0.8503958991	-1.8879894439	 0.129949
H	 0.2833170512	-0.5370772195	-2.1689635023	 0.117354
H	-0.6774256086	-2.7510304457	 1.1122780859	 0.115505
H	-1.7311057118	-3.6149232247	-0.0949489635	 0.101113
H	 1.045244743	-4.711427014	-0.0515612034	 0.100263
H	-0.8418491479	-4.0459177605	-2.266492642	 0.099318
H	 0.8575074369	-3.4871808445	-2.6228374333	 0.107823
34.6338	75.9861	133.5457	174.7611	280.9268	297.2331	392.1902	493.3705	517.5298	556.8737	597.5883	687.2761	714.3406	788.2867	804.2655	865.5144	906.5142	912.3563	944.6566	982.333	985.1725	1024.5617	1038.728	1090.8177	1104.9435	1118.7098	1158.2987	1188.9634	1215.9009	1232.4767	1236.208	1254.0336	1307.7465	1336.9515	1382.886	1452.1089	1467.9069	1470.6954	1477.6561	1512.6584	1815.5476	3035.4183	3046.0246	3062.1687	3072.2125	3101.1956	3109.2384	3130.8547	3146.8481	3154.0173	3154.1805
CC(=O)CC12CC(C1)O2	CC(=O)C[C@@]12C[C@@H](C1)O2	
InChI=1S/C7H10O2/c1-5(8)2-7-3-6(4-7)9-7/h6H,2-4H2,1H3	InChI=1S/C7H10O2/c1-5(8)2-7-3-6(4-7)9-7/h6H,2-4H2,1H3/t6-,7+
