18
gdb 99829	2.03471	1.39371	1.27593	4.2369	74.05	-0.2511	-0.0005	0.2507	1141.5301	0.145551	-435.27349	-435.263278	-435.262333	-435.308563	36.92	
C	 0.0492334338	 1.3312651758	 0.4324028941	-0.260898
O	-0.105537273	-0.0788438016	 0.5123280408	-0.281321
C	-1.3731976394	-0.6095923215	 0.1355770368	 0.186194
C	-2.5143958547	-0.136398914	 1.042544184	-0.427958
C	-1.6644307289	-0.2384623845	-1.2748313314	 0.286678
N	-1.8781129616	 0.0857630409	-2.3633225829	-0.34574
C	-1.2143782741	-2.1503543226	 0.1868382705	 0.317247
N	 0.0262977879	-2.5712972698	-0.2140295489	-0.53011
N	-2.2304268419	-2.8489643573	 0.5065948417	-0.512202
H	 1.0990076116	 1.5322407383	 0.6542228852	 0.137915
H	-0.1853640996	 1.7062850856	-0.5714631994	 0.142222
H	-0.5743869109	 1.8523365228	 1.1679828562	 0.125416
H	-2.7128334225	 0.9277458943	 0.9000034294	 0.124349
H	-3.4141827903	-0.7065977434	 0.8157819452	 0.173269
H	-2.2369582011	-0.3230053152	 2.0825021682	 0.134203
H	 0.7745262895	-1.9008845786	-0.1295600625	 0.270084
H	 0.2678041583	-3.5356269239	-0.0511344333	 0.252067
H	-2.0240364931	-3.8487195052	 0.4748326864	 0.208585
52.8301	104.6615	141.5098	164.5418	192.5512	233.757	247.6378	320.7254	367.8615	402.4286	440.8907	456.8908	462.6867	506.1526	587.8468	616.3036	665.3054	717.177	859.8463	888.7608	919.1824	1074.6548	1101.8548	1125.7267	1145.0869	1166.0482	1184.7212	1185.6627	1236.7671	1397.5961	1413.8765	1473.3209	1482.6662	1484.1664	1497.2647	1510.4557	1618.896	1737.9465	2348.8897	3016.8507	3064.0904	3082.2598	3131.6864	3141.8146	3171.7298	3460.0152	3583.5782	3702.3752
COC(C)(C#N)C(N)=N	CO[C@@](C)(C#N)C(=N)N	
InChI=1S/C5H9N3O/c1-5(3-6,9-2)4(7)8/h1-2H3,(H3,7,8)	InChI=1S/C5H9N3O/c1-5(3-6,9-2)4(7)8/h1-2H3,(H3,7,8)/t5-/m0/s1
