23
gdb 103825	3.1627	0.88774	0.83018	2.0292	82.2	-0.2556	0.0819	0.3375	1534.5159	0.202592	-425.419088	-425.40812	-425.407176	-425.455268	40.08	
C	 0.261634866	 0.7131556523	 1.395082745	-0.38672
C	-0.4834116539	-0.5696717757	 1.7927216801	-0.009519
C	-1.1418366765	-0.440379346	 3.1739751275	-0.392344
C	-1.5299558316	-0.9018779158	 0.7489350744	 0.024769
O	-1.073276111	-1.3536646884	-0.5351270839	-0.317698
C	-1.8711983174	-2.2538192106	 0.2713330392	 0.342871
C	-1.1745684129	-3.5092487121	 0.7454512293	-0.467988
C	-3.2402731608	-2.4801992916	-0.3482893184	-0.115277
O	-3.1340775746	-3.215061399	-1.5560730816	-0.417718
H	 1.0495518235	 0.9471458383	 2.1180258154	 0.111287
H	 0.7203495105	 0.6047691242	 0.4083079193	 0.131426
H	-0.4223757995	 1.5694773549	 1.3585061273	 0.111722
H	 0.2438272201	-1.3875610692	 1.8261389935	 0.078065
H	-1.8982439216	 0.3533734777	 3.1766673124	 0.115902
H	-1.6332332385	-1.3712050701	 3.474955738	 0.116047
H	-0.397975302	-0.1891822276	 3.9362843536	 0.117543
H	-2.3213501494	-0.1482241352	 0.6811201649	 0.078048
H	-1.2448169644	-4.2735699734	-0.0338478917	 0.140373
H	-0.1206775818	-3.3301163633	 0.9613633405	 0.129092
H	-1.6579678551	-3.9022184058	 1.6466795315	 0.120133
H	-3.873288426	-3.07415406	 0.3200736275	 0.107947
H	-3.7341301492	-1.5111044856	-0.512666258	 0.089052
H	-2.532603514	-2.7141849679	-2.1201253258	 0.292986
53.8799	71.6079	126.7995	145.5668	193.7599	221.8713	246.9745	260.474	280.5865	357.3791	385.8609	396.0516	414.9562	458.0846	496.0754	635.4456	722.4079	826.0402	869.706	905.9712	929.8437	938.657	951.2806	971.2997	1047.911	1059.6882	1097.2788	1111.1253	1158.8191	1174.7749	1201.054	1204.8118	1271.5009	1316.8648	1339.7015	1341.8919	1391.4282	1397.8881	1413.0735	1419.4015	1427.2039	1467.4282	1488.5781	1490.6841	1492.313	1496.377	1502.6309	1507.2345	1520.1395	2993.8769	3026.8376	3029.9338	3041.8269	3046.544	3057.9531	3072.8801	3092.036	3099.3155	3105.791	3108.7622	3115.8154	3144.5613	3791.0738
CC(C)C1OC1(C)CO	CC(C)[C@H]1O[C@]1(C)CO	
InChI=1S/C7H14O2/c1-5(2)6-7(3,4-8)9-6/h5-6,8H,4H2,1-3H3	InChI=1S/C7H14O2/c1-5(2)6-7(3,4-8)9-6/h5-6,8H,4H2,1-3H3/t6-,7-/m1/s1
