29
gdb 60337	2.80013	0.72277	0.67669	0.0584	99.83	-0.2938	0.0754	0.3692	1924.5764	0.272207	-354.782413	-354.770115	-354.769171	-354.819941	46.19	
C	 0.0723874988	 1.5748017846	-0.0044499358	-0.389537
C	 0.065359281	 0.0405068285	 0.040300993	 0.048662
C	 0.9251159914	-0.4637964089	 1.208414351	-0.380244
C	-1.3817362612	-0.4894053694	 0.0948095521	-0.189692
C	-1.505039773	-2.0112551929	-0.0608791765	-0.192002
C	-2.9391597259	-2.5991001596	-0.1140314617	 0.264756
C	-3.7150480436	-2.0615671454	-1.3313380324	-0.400173
C	-2.8166478615	-4.1293556151	-0.2445482954	-0.400999
C	-3.7150001696	-2.2725930762	 1.1757718752	-0.398467
H	 1.0921466554	 1.9661459241	-0.0845390843	 0.106846
H	-0.5006403892	 1.953006438	-0.8577293584	 0.107466
H	-0.3720628658	 1.9947677111	 0.9061704212	 0.109733
H	 0.5178296777	-0.3244668208	-0.8937242125	 0.068184
H	 1.0141892583	-1.5537822875	 1.2171436424	 0.113817
H	 1.9382585626	-0.0516000092	 1.1534774767	 0.107706
H	 0.4947800065	-0.1558682946	 2.1694573478	 0.108784
H	-1.8339431611	-0.1685801526	 1.042958662	 0.09088
H	-1.9540162911	 0.0064777905	-0.6987418173	 0.08958
H	-0.979668666	-2.312047088	-0.9787951322	 0.083641
H	-0.974544607	-2.5032288517	 0.7641456141	 0.089212
H	-3.1776540986	-2.2642995495	-2.2647680363	 0.105415
H	-4.6983570468	-2.5394678672	-1.4044508809	 0.106166
H	-3.8818422023	-0.9819953695	-1.2682789793	 0.11156
H	-2.2762575564	-4.557614424	 0.6071043787	 0.105772
H	-3.8043987247	-4.6018844375	-0.2848413955	 0.10475
H	-2.2762536667	-4.4074125087	-1.1563539874	 0.105832
H	-3.8842212998	-1.1975462895	 1.2898715802	 0.111244
H	-4.6960352546	-2.7603644077	 1.1714156006	 0.105619
H	-3.173907467	-2.6230252113	 2.0621593508	 0.105488
32.5005	81.1047	122.625	133.4439	220.893	228.6932	240.0704	249.709	262.5016	270.5916	295.4269	330.5	366.4285	399.0275	404.5593	425.9277	475.9394	495.6054	743.9647	764.6642	829.7819	913.6448	926.1488	927.866	938.2559	941.0274	958.9881	961.9962	968.6625	1032.4678	1042.9127	1067.6778	1122.2912	1138.6392	1193.2143	1222.3252	1228.7803	1270.2355	1283.076	1306.2224	1345.1547	1360.1894	1373.1675	1394.5144	1399.3465	1400.1647	1401.2766	1420.9607	1431.9798	1473.324	1480.8809	1485.4973	1487.123	1489.0078	1491.7725	1499.3287	1504.7485	1508.1533	1508.8165	1511.7268	1518.9704	2991.8641	3000.152	3016.7976	3020.7852	3021.8241	3023.0614	3027.7545	3030.9149	3037.3056	3062.8293	3085.1505	3086.3108	3087.4033	3091.1547	3092.0664	3094.3108	3097.3283	3100.5876	3104.6405	3108.4093
CC(C)CCC(C)(C)C	CC(C)CCC(C)(C)C	
InChI=1S/C9H20/c1-8(2)6-7-9(3,4)5/h8H,6-7H2,1-5H3	InChI=1S/C9H20/c1-8(2)6-7-9(3,4)5/h8H,6-7H2,1-5H3
