18
gdb 87607	2.7167	1.55203	1.16703	2.9126	80.69	-0.2159	-0.004	0.2119	1092.6721	0.148925	-398.150399	-398.142108	-398.141164	-398.183079	31.715	
C	-0.0651939842	 1.5126688882	 0.0038525196	-0.406981
C	 0.0335827176	 0.0057133679	 0.0198177418	-0.03583
C	 1.3362147615	-0.6909869317	-0.2002166105	-0.323433
C	 0.7107203703	-0.708568414	 1.185485503	 0.289312
N	 1.3119468896	 0.0363228316	 2.2623305746	-0.303357
C	 1.1191946296	-0.6728565546	 3.309442015	 0.037187
N	 0.4367044371	-1.864921018	 3.1008405092	-0.361123
C	 0.1307724891	-1.9713958618	 1.7407095659	 0.328328
N	-0.4794119748	-2.8789407814	 1.0891838807	-0.56705
H	 0.8247455094	 1.9678705841	 0.4441536877	 0.138447
H	-0.1702565385	 1.877515912	-1.0237476614	 0.116044
H	-0.9340721575	 1.8584889665	 0.5734401051	 0.118194
H	-0.8407207352	-0.5352653901	-0.3335285248	 0.113723
H	 1.3393139566	-1.6407685268	-0.723639279	 0.136301
H	 2.2295655656	-0.083956038	-0.2989227234	 0.124186
H	 1.4470248676	-0.4028899457	 4.3070869134	 0.133588
H	 0.1996601759	-2.5418258504	 3.8059584539	 0.256744
H	-0.7863715898	-3.646684348	 1.6860738693	 0.205719
105.1515	150.0601	185.6968	192.161	259.253	311.5975	384.3467	430.5811	500.9498	558.1905	637.1832	684.8195	722.8952	818.3134	823.8587	872.3539	895.741	912.5138	927.7255	942.21	1021.1521	1050.0565	1071.81	1081.7459	1100.9815	1130.018	1194.8214	1202.9779	1289.305	1320.5473	1353.4777	1402.9098	1411.6605	1427.1568	1472.1775	1492.9638	1501.5133	1661.3471	1751.9577	3035.869	3094.5893	3124.8986	3133.6603	3150.142	3203.3974	3232.299	3475.6112	3665.8995
CC1CC11N=CNC1=N	C[C@H]1C[C@]21N=CN[C]2[NH]	
InChI=1S/C6H9N3/c1-4-2-6(4)5(7)8-3-9-6/h3-4H,2H2,1H3,(H2,7,8,9)	InChI=1S/C6H9N3/c1-4-2-6(4)5(7)8-3-9-6/h3-4H,2H2,1H3,(H2,7,8,9)/t4-,6+/m0/s1
