19
gdb 101070	2.21592	1.24791	1.09481	5.6086	76.63	-0.2701	0.0219	0.2919	1240.5515	0.157395	-419.179281	-419.169352	-419.168407	-419.214566	35.276	
C	 0.1495707173	 1.303995382	-0.292210045	-0.236991
O	 0.0566356349	-0.0620476552	 0.0508255727	-0.244308
C	-1.2569004711	-0.5809804888	 0.1076133262	 0.058195
C	-1.9388120629	-0.6606196899	-1.2609687688	-0.424658
C	-1.1362855992	-1.9524337602	 0.7669025777	 0.155386
C	-1.1059891624	-2.0277235575	 2.2557370207	-0.264187
N	-2.2841086415	-2.4973198609	 1.5211649798	-0.341255
C	-0.3959467122	-2.9365440189	 0.001101617	 0.29982
N	 0.2024510977	-3.7083569039	-0.6166976544	-0.345727
H	 1.1943400545	 1.5919180701	-0.1568145545	 0.13807
H	-0.1337567078	 1.4990376037	-1.3351725707	 0.117216
H	-0.4786690962	 1.9281955022	 0.3626642162	 0.103798
H	-1.8712645263	 0.0421025482	 0.7837285221	 0.059646
H	-2.9207084325	-1.1353269624	-1.1686295534	 0.127381
H	-2.0891085675	 0.3339185629	-1.6877639202	 0.123833
H	-1.331939636	-1.2514990012	-1.9525037887	 0.155976
H	-0.5287125952	-2.8086935302	 2.7391220918	 0.146868
H	-1.148404773	-1.0819477534	 2.788995926	 0.128604
H	-3.0259195905	-1.8004393067	 1.5483743057	 0.242335
55.9189	73.7176	135.8031	166.5415	198.3371	233.7731	246.6584	280.6066	308.4373	397.3801	438.136	489.9359	583.8222	607.9837	711.6896	848.7877	880.0623	906.3486	935.248	983.4139	1021.1401	1052.7533	1104.3114	1122.4396	1143.738	1165.842	1180.2201	1222.7422	1250.2611	1300.6001	1338.1885	1366.428	1396.0247	1408.7612	1475.6952	1483.109	1490.1103	1504.8999	1508.3342	1511.5134	2361.5011	2930.4614	2980.2713	3039.5416	3048.6302	3117.9438	3120.4489	3122.0894	3131.8742	3214.8306	3491.134
COC(C)C1(CN1)C#N	CO[C@@H](C)[C@]1(CN1)C#N	
InChI=1S/C6H10N2O/c1-5(9-2)6(3-7)4-8-6/h5,8H,4H2,1-2H3	InChI=1S/C6H10N2O/c1-5(9-2)6(3-7)4-8-6/h5,8H,4H2,1-2H3/t5-,6+/m0/s1
