21
gdb 104056	2.71774	1.37073	1.22865	1.1088	77.91	-0.2443	0.0651	0.3093	1149.7898	0.181335	-424.193999	-424.185037	-424.184093	-424.227503	34.2	
C	-0.4634964531	 1.3025629369	 0.1842396297	-0.390631
C	 0.0984203615	-0.116678113	 0.0421805431	-0.219637
C	 0.9281346274	-0.5666047454	 1.2385477284	 0.393548
C	 2.2411020352	 0.1863732231	 1.4104240829	-0.435507
O	 0.1591318923	-0.4935217469	 2.4977504213	-0.34846
C	 0.3927709608	-1.877162203	 2.7882025567	 0.067303
C	-0.6872062041	-2.8123887022	 2.2235275511	-0.100139
O	 0.011156097	-2.9009482366	 0.9520971006	-0.291022
C	 1.0992053687	-2.0979977813	 1.4393338293	 0.004416
H	 0.3272366197	 2.0591036555	 0.2044774671	 0.112567
H	-1.1237082379	 1.5392369603	-0.6553134563	 0.111669
H	-1.0406865681	 1.3928001676	 1.1087007739	 0.135231
H	-0.7196426251	-0.830527292	-0.0885927083	 0.114909
H	 0.7222677294	-0.1908213329	-0.8580548481	 0.094038
H	 2.0535544307	 1.2403944728	 1.6317116593	 0.132267
H	 2.82198981	-0.2300482614	 2.2396317968	 0.116416
H	 2.8461536022	 0.12307017	 0.4995448865	 0.116585
H	 0.7887171043	-2.0514783727	 3.7901623171	 0.087487
H	-0.7507080696	-3.7967935461	 2.7041525641	 0.104367
H	-1.6841585685	-2.3692671504	 2.1322681356	 0.114088
H	 2.077777797	-2.5445261023	 1.2510503694	 0.080505
79.1033	120.3784	179.6042	221.9193	228.4533	274.2509	302.141	346.0194	415.3465	455.5362	527.407	632.2403	779.665	783.9132	812.7051	855.4895	885.8878	926.8152	946.9794	983.6447	1000.6449	1003.9303	1019.7719	1059.7981	1074.0067	1077.0137	1159.4049	1164.4632	1191.6507	1213.1219	1223.9719	1255.3938	1291.3678	1312.2206	1340.0705	1357.7781	1375.7103	1402.5988	1405.7616	1477.2241	1488.0624	1495.6085	1501.3177	1503.7345	1511.9241	3019.2358	3029.396	3035.6956	3041.5885	3082.484	3086.4798	3086.6538	3099.0343	3103.5361	3108.7291	3118.7201	3121.3476
CCC1(C)OC2COC12	CC[C@@]1(C)O[C@H]2CO[C@@H]12	
InChI=1S/C7H12O2/c1-3-7(2)6-5(9-7)4-8-6/h5-6H,3-4H2,1-2H3	InChI=1S/C7H12O2/c1-3-7(2)6-5(9-7)4-8-6/h5-6H,3-4H2,1-2H3/t5-,6+,7+/m0/s1
