18
gdb 110814	4.64319	0.92495	0.90532	1.4431	78.31	-0.2361	0.0411	0.2772	1322.9737	0.146689	-401.849928	-401.841121	-401.840177	-401.883651	32.997	
O	 0.3975961321	 0.835946153	 1.0753148358	-0.411665
C	 0.0895474881	 0.0026367125	-0.0334883187	-0.098234
C	-1.3066024209	-0.5807988268	 0.0425129859	-0.045349
C	-1.6746831941	-2.0028219973	-0.1364427753	-0.048891
C	-0.5864012098	-2.9653274484	 0.3771267132	-0.214316
C	-0.7118241475	-2.1900224167	 1.7300301337	-0.176956
N	-1.8290308783	-1.3251775539	 1.2105197126	-0.141234
C	-0.9837689962	-4.3581165108	 0.428376877	 0.294676
C	-1.3210307396	-5.5112576954	 0.4730271494	-0.430627
H	-0.3513390607	 1.4221210268	 1.2257972498	 0.289808
H	 0.1806980136	 0.550028508	-0.9848245243	 0.096652
H	 0.8628485716	-0.7693807135	-0.0402206131	 0.117254
H	-2.0744710655	 0.1103226891	-0.3060743699	 0.098909
H	-2.5285467589	-2.3207008292	-0.726037947	 0.107113
H	 0.378849652	-2.8813079414	-0.1342915869	 0.108091
H	-1.0841150319	-2.8197367183	 2.5376826984	 0.127566
H	 0.1632687582	-1.6300145425	 2.0667073423	 0.130237
H	-1.6137752523	-6.5311122553	 0.512892847	 0.196968
69.8707	95.712	150.117	196.7219	252.5199	268.821	335.5845	430.9964	519.5942	540.5296	588.7023	622.7296	636.0625	720.0444	744.704	787.7776	871.9059	908.8896	967.8606	991.9657	1039.0452	1049.9093	1061.4033	1083.9992	1096.5778	1123.5346	1175.4512	1214.6306	1225.3148	1258.1091	1284.7022	1311.0965	1350.1131	1370.1707	1416.0095	1446.8558	1499.6523	1516.4689	2237.8488	2983.039	3036.5518	3078.9747	3090.409	3108.9005	3144.4986	3165.9883	3504.7178	3813.9817
OCC1C2C(CN12)C#C	OC[C@H]1[C@H]2[C@@H](CN12)C#C	
InChI=1S/C7H9NO/c1-2-5-3-8-6(4-9)7(5)8/h1,5-7,9H,3-4H2	InChI=1S/C7H9NO/c1-2-5-3-8-6(4-9)7(5)8/h1,5-7,9H,3-4H2/t5-,6+,7-,8?/m1/s1
