14
gdb 8751	4.34477	1.43561	1.08635	1.5439	69.69	-0.2548	-0.0678	0.187	1015.922	0.107522	-374.91492	-374.90656	-374.905616	-374.948506	28.556	
C	 0.0005604537	 1.4608937897	 0.0058859746	-0.348015
N	 0.0166464406	-0.0007252437	-0.0053918452	-0.108613
C	 0.0921192173	-0.6529929407	 1.2232128337	 0.089359
N	 0.1438617996	 0.0236196689	 2.2985837823	-0.468264
C	-0.0389629313	-0.7510218069	-1.1672551697	 0.33638
N	-0.0243768319	-2.0303076369	-1.169387269	-0.515607
C	-0.1163064114	 0.0019382864	-2.409165985	 0.220367
N	-0.1795332169	 0.5097699991	-3.446439906	-0.328579
H	 0.9073214214	 1.8371833107	 0.4851166046	 0.157602
H	-0.0605115916	 1.8370907049	-1.0138333239	 0.16369
H	-0.8557671793	 1.8169769936	 0.5832636556	 0.157627
H	 0.0989351406	-1.7372366435	 1.1216700223	 0.156417
H	 0.1954148347	-0.6018491678	 3.1005342385	 0.236335
H	-0.0724789554	-2.3978218539	-2.1155065528	 0.251303
47.3975	85.3972	158.0457	168.5577	282.8874	288.8838	338.8921	364.5226	491.9818	522.4758	665.9072	719.8088	783.5669	811.9093	835.8458	973.8678	1082.48	1085.6341	1158.3648	1167.6683	1233.9757	1354.3629	1393.2827	1438.2387	1469.7055	1471.3543	1520.0103	1664.6572	1710.2594	2345.0857	3063.0724	3125.8126	3150.4897	3172.3662	3508.5199	3541.5202
CN(C=N)C(=N)C#N	CN(C=N)C(=N)C#N	
InChI=1S/C4H6N4/c1-8(3-6)4(7)2-5/h3,6-7H,1H3	InChI=1S/C4H6N4/c1-8(3-6)4(7)2-5/h3,6-7H,1H3
