18
gdb 88325	3.06391	0.89373	0.84685	3.3315	75.45	-0.2457	-0.0413	0.2043	1431.9842	0.144873	-439.082264	-439.072621	-439.071677	-439.11872	33.639	
C	 0.3373744155	 1.6173746429	-0.4524963071	-0.406267
C	-0.1009679417	 0.2417740625	-0.0185312872	 0.014128
N	 0.8847951088	-0.8258894822	-0.0753724429	-0.306356
C	 0.3835604857	-0.4272285186	 1.2513414495	-0.157273
C	 1.3435105111	 0.2512584307	 2.1785832264	 0.391569
O	 2.3580076721	 0.7994419803	 1.8094253851	-0.315389
C	 0.9514176098	 0.2810086218	 3.6584225469	-0.382831
C	 0.9525514054	 1.7089311443	 4.1886875734	 0.162842
O	 0.0997778386	 2.1555392285	 4.9082463172	-0.233489
H	 1.3636552744	 1.8095611927	-0.1380297088	 0.164931
H	 0.2879170856	 1.6924005746	-1.5439193131	 0.124533
H	-0.3200488848	 2.3853782089	-0.0316547793	 0.118314
H	-1.1294398507	-0.0142236426	-0.2744093382	 0.095291
H	 0.4604853816	-1.7096668836	-0.3442129325	 0.240002
H	-0.3390801462	-1.0758624653	 1.7408279154	 0.092711
H	-0.0089093064	-0.1894493983	 3.8771005337	 0.126354
H	 1.7402410672	-0.2583712851	 4.2007509424	 0.160083
H	 1.819898384	 2.3109317785	 3.8486516392	 0.110848
23.4022	44.6311	105.0859	167.3952	189.6978	232.1475	252.0074	349.8947	379.195	432.9592	476.3705	604.7578	690.8487	781.8873	793.2567	834.3436	864.8223	929.5103	987.7128	1006.9761	1030.2293	1050.891	1077.6819	1094.3225	1148.2318	1188.4615	1192.1566	1236.5309	1256.6359	1290.6227	1397.3731	1405.3018	1429.6014	1439.6456	1459.6191	1494.6913	1499.5071	1785.5811	1838.942	2933.0866	3031.1602	3040.715	3100.702	3102.0814	3121.5456	3137.2225	3155.157	3507.1696
CC1NC1C(=O)CC=O	C[C@H]1N[C@H]1C(=O)CC=O	
InChI=1S/C6H9NO2/c1-4-6(7-4)5(9)2-3-8/h3-4,6-7H,2H2,1H3	InChI=1S/C6H9NO2/c1-4-6(7-4)5(9)2-3-8/h3-4,6-7H,2H2,1H3/t4-,6-/m1/s1
