18
gdb 31003	2.4018	1.24506	0.8573	1.0794	77.27	-0.1748	0.0531	0.2279	1329.7991	0.146641	-439.115584	-439.105805	-439.104861	-439.15068	35.271	
C	-0.2344347884	 1.4793454563	 0.063162206	-0.507503
C	-0.0308569871	 0.0062997975	-0.0622369727	 0.19379
C	 0.1611893033	-0.8171242677	-1.1483358922	 0.251941
C	 0.2241794571	-0.4205468318	-2.5849474198	-0.212111
O	-0.8019873198	-1.1064529429	-3.3065678191	-0.417423
C	 0.3050130361	-2.1638285282	-0.666208856	-0.387096
C	 0.1942088267	-2.1025791514	 0.6962835038	 0.379724
O	 0.2376785313	-3.0320800683	 1.6864016427	-0.43746
N	-0.0023765073	-0.8019990963	 1.0657714329	-0.347016
H	 0.5962230135	 1.976180206	 0.5823128984	 0.122551
H	-0.3214317314	 1.9372046089	-0.9242597024	 0.13761
H	-1.152136335	 1.7192800535	 0.6156100177	 0.12337
H	 0.1118543035	 0.6702847455	-2.6818873496	 0.080176
H	 1.2112664979	-0.6774641138	-3.0042602791	 0.08519
H	-0.6573888832	-0.9394358087	-4.2434573632	 0.279554
H	 0.4439717963	-3.0496615993	-1.2660208467	 0.089088
H	 0.3544519387	-3.8956029122	 1.2794314746	 0.306615
H	-0.1143776922	-0.4972626271	 2.0171726747	 0.259
39.5933	109.9002	138.4777	195.6483	233.0604	247.1332	270.7577	287.0542	319.8194	392.3059	446.2521	506.0131	601.7343	626.6766	663.9306	682.3561	738.1192	807.3078	986.7431	997.4724	1033.1415	1047.4511	1060.2866	1151.5231	1163.0118	1184.3575	1243.689	1253.0472	1263.2893	1347.1687	1414.7434	1444.2835	1470.8386	1478.0754	1494.5672	1515.3113	1534.8251	1600.1289	1659.9568	2955.5089	2990.9398	3008.0907	3048.4753	3124.711	3249.611	3679.8128	3811.1803	3849.4867
CC1=C(CO)C=C(O)N1	Cc1c(CO)cc(O)[nH]1	
InChI=1S/C6H9NO2/c1-4-5(3-8)2-6(9)7-4/h2,7-9H,3H2,1H3	InChI=1S/C6H9NO2/c1-4-5(3-8)2-6(9)7-4/h2,7-9H,3H2,1H3
