16
gdb 126183	3.98857	1.00023	0.86413	2.1754	66.49	-0.2941	-0.0758	0.2183	1317.339	0.12253	-471.148978	-471.140229	-471.139285	-471.183362	30.81	
C	-0.000304666	 1.5591426644	 0.0667726911	-0.388751
C	-0.018214569	 0.0300788258	 0.0833223827	-0.195036
C	-1.4420621364	-0.5350746798	-0.0921483318	 0.026035
O	-2.0532750709	-0.1266665054	-1.2970369595	-0.414431
C	-1.4322702811	-2.0322988265	 0.0331952767	 0.40476
N	-1.6117186841	-2.86125127	-0.9527279124	-0.16377
O	-1.4796147967	-4.0907398584	-0.3970851675	-0.138536
N	-1.2168965238	-3.9414930842	 0.959509473	 0.049524
N	-1.1860708496	-2.7114166565	 1.2152409634	-0.20703
H	 1.0235642631	 1.936367798	 0.1371693387	 0.119399
H	-0.4474821183	 1.9394464348	-0.8548645127	 0.136523
H	-0.5675500413	 1.9684228869	 0.9097197642	 0.121411
H	 0.6111501708	-0.3697014696	-0.7230070056	 0.101935
H	 0.3957497388	-0.3525270804	 1.0234813607	 0.124222
H	-2.0758621574	-0.1401988709	 0.7113488685	 0.125842
H	-1.6472263879	-0.6119506682	-2.0250328695	 0.297903
46.8329	95.0836	122.9411	196.9712	228.8399	280.2371	299.595	360.2115	436.4185	506.8077	672.509	705.0901	728.1743	781.4715	821.7505	902.4661	964.3557	997.4277	1061.8109	1072.6252	1096.1949	1117.4755	1136.3135	1229.8246	1269.4172	1320.7275	1350.7394	1374.3966	1408.1422	1425.0439	1476.3391	1484.8964	1495.3885	1507.9895	1591.6359	3021.2585	3042.2248	3047.1895	3071.2912	3109.9367	3129.4863	3796.8112
CCC(O)C1=NON=N1	CC[C@@H](O)c1nonn1	
InChI=1S/C4H7N3O2/c1-2-3(8)4-5-7-9-6-4/h3,8H,2H2,1H3	InChI=1S/C4H7N3O2/c1-2-3(8)4-5-7-9-6-4/h3,8H,2H2,1H3/t3-/m1/s1
