16
gdb 18140	3.43753	1.89485	1.5291	3.6264	68.91	-0.2498	0.0235	0.2733	857.6118	0.131199	-342.747309	-342.740017	-342.739072	-342.778758	27.325	
C	-0.184586981	 1.4634574396	-0.1919808674	-0.327878
N	 0.0860131109	 0.0506679266	 0.0323496081	-0.059876
C	 1.3672589628	-0.5765959486	-0.1549216598	-0.040466
C	 2.5471239658	 0.2913047532	 0.3278465154	-0.275526
C	 1.9046983831	 0.3141480521	 1.7594812337	-0.159124
C	 1.6566569253	 1.5863814236	 2.4223176039	 0.276236
N	 1.4646199503	 2.5964169943	 2.9524482142	-0.338161
C	 0.700453105	-0.5029161959	 1.202506521	-0.065407
H	 0.623154831	 2.1484093819	 0.0937416021	 0.127117
H	-0.3967932597	 1.6055564251	-1.25579233	 0.127056
H	-1.0764997793	 1.7417825878	 0.3756797714	 0.139042
H	 1.4478501308	-1.4130297301	-0.8402868796	 0.105128
H	 3.5022025645	-0.2355747825	 0.3262945871	 0.123226
H	 2.6749355366	 1.2573772339	-0.1648061707	 0.125394
H	 2.4886772898	-0.3147338866	 2.4366334546	 0.133875
H	 0.169172374	-1.2509109943	 1.7807217563	 0.109363
112.5074	161.2373	188.6141	258.5873	295.1786	405.7623	484.5638	531.4122	613.4918	709.1557	757.6015	820.9012	845.3729	892.8775	962.2316	983.8675	1019.7138	1032.1972	1072.8052	1088.834	1124.6872	1163.1085	1186.3533	1193.9469	1248.129	1257.4533	1285.2121	1330.3239	1400.1083	1458.566	1480.2278	1499.8525	1503.966	2347.8594	3021.6721	3078.2356	3080.1724	3089.132	3118.5515	3135.6279	3169.3378	3180.4156
CN1C2CC(C#N)C12	CN1[C@H]2C[C@@H](C#N)[C@@H]12	
InChI=1S/C6H8N2/c1-8-5-2-4(3-7)6(5)8/h4-6H,2H2,1H3	InChI=1S/C6H8N2/c1-8-5-2-4(3-7)6(5)8/h4-6H,2H2,1H3/t4-,5-,6+,8?/m0/s1
