21
gdb 111514	2.75724	1.38997	1.15315	2.7565	77.02	-0.2435	0.0585	0.302	1140.4891	0.184467	-424.219699	-424.211259	-424.210315	-424.252374	33.695	
O	 0.1178258194	 1.3510386129	 0.199308692	-0.434024
C	 0.0408113663	-0.0371786169	-0.0801093724	-0.070856
C	-1.3941121192	-0.5810276311	 0.0010558929	-0.007612
C	-1.499748574	-2.1018210382	-0.0494595266	-0.05175
C	-1.1327284262	-2.87359084	 1.1987149594	-0.288696
C	-2.5775202708	-2.544558794	 0.9151014515	-0.036717
C	-3.1589589355	-1.2987506289	 1.567109649	-0.239819
C	-2.1466071583	-0.1624897713	 1.2928109478	 0.055476
O	-1.1833203957	-0.011619467	 2.3494442847	-0.433955
H	-0.0776146664	 1.426004226	 1.1413874859	 0.285434
H	 0.4247421961	-0.173328032	-1.0968307778	 0.098881
H	 0.6879537448	-0.6150773288	 0.5931132235	 0.096837
H	-1.9628942728	-0.1662643988	-0.8409218107	 0.078405
H	-1.3756162195	-2.590777869	-1.0096949089	 0.080006
H	-0.8273180374	-3.9059844706	 1.0661101334	 0.104704
H	-0.6315315822	-2.3515838683	 2.0054868409	 0.1284
H	-3.2534336967	-3.3550589714	 0.6653487007	 0.079381
H	-4.1186253911	-1.0514234014	 1.0972321858	 0.102516
H	-3.3487682603	-1.4082826832	 2.642473046	 0.088042
H	-2.6577506542	 0.7967516301	 1.1477318977	 0.078675
H	-1.6629954363	 0.190861322	 3.1587178451	 0.286673
117.5905	133.5301	189.3835	244.8882	304.3006	329.0627	365.495	401.3038	463.479	539.7702	566.1252	628.0348	743.207	770.7102	794.847	831.1548	875.2402	916.2207	957.5125	961.0287	995.1641	1035.5706	1055.8028	1071.6961	1079.6862	1091.9983	1106.211	1112.1861	1131.0028	1188.9542	1206.2955	1220.8167	1246.6526	1297.6298	1310.0747	1328.4439	1346.129	1375.5084	1391.9478	1401.6226	1427.0341	1438.1809	1476.5383	1489.5149	1503.9531	3011.553	3014.7287	3022.0469	3034.1857	3059.8715	3072.1272	3136.0642	3159.96	3169.9965	3226.191	3781.8202	3821.8243
OCC1C2CC2CC1O	OC[C@H]1[C@H]2C[C@H]2C[C@H]1O	
InChI=1S/C7H12O2/c8-3-6-5-1-4(5)2-7(6)9/h4-9H,1-3H2	InChI=1S/C7H12O2/c8-3-6-5-1-4(5)2-7(6)9/h4-9H,1-3H2/t4-,5-,6-,7+/m0/s1
