14
gdb 22029	3.70281	1.2573	0.96294	2.86	80.97	-0.2286	-0.0977	0.1309	1134.9177	0.101461	-432.784441	-432.77704	-432.776096	-432.816461	27.971	
O	-0.0612491428	 1.3513586162	 0.2501468571	-0.385635
N	 0.0661478655	-0.0333395794	 0.1537161938	-0.204028
C	-1.0841595883	-0.6148973608	 0.0275829308	 0.285343
C	-2.3542690462	 0.0815228287	-0.1489686011	-0.117304
C	-3.5892281077	-0.4450545916	-0.037232662	 0.003225
N	-4.0248183511	-1.6668775225	 0.5002152229	-0.163167
N	-3.3697057326	-2.7415559414	 0.4982845964	-0.156647
C	-2.081894651	-2.9206008183	-0.0228307312	-0.003656
C	-1.0498458883	-2.0574939731	-0.1348681768	-0.090612
H	 0.8566772872	 1.6415252585	 0.2872753616	 0.314792
H	-2.2770379418	 1.1312520256	-0.4133621247	 0.136296
H	-4.4399084443	 0.2014058542	-0.2352101198	 0.128147
H	-1.8831697215	-3.9756941156	-0.1859263904	 0.126433
H	-0.0687721372	-2.4715444206	-0.3544831464	 0.126814
81.1559	211.7031	238.7004	287.1642	355.106	366.5291	434.4656	450.143	549.3718	603.0714	661.5096	769.4819	797.1539	840.6761	873.988	927.5275	964.9885	978.8162	1004.0975	1022.5732	1025.9464	1250.8824	1277.7381	1320.3714	1375.9851	1420.8752	1451.7175	1534.9557	1617.2528	1632.0871	1686.338	3161.8249	3168.3928	3184.0967	3193.2922	3816.2994
ON=C1C=CN=NC=C1	ON=c1ccnncc1	
InChI=1S/C5H5N3O/c9-8-5-1-3-6-7-4-2-5/h1-4,9H	InChI=1S/C5H5N3O/c9-8-5-1-3-6-7-4-2-5/h1-4,9H
