17
gdb 33748	2.44682	1.65629	1.26569	1.7383	80.21	-0.2497	0.0387	0.2884	1039.3193	0.135133	-384.579528	-384.571868	-384.570924	-384.611443	30.536	
C	 0.0224416111	-1.1516213343	-0.0324724153	-0.360371
C	 0.012902378	 0.0511075521	-0.0051171198	 0.051335
C	-0.0047438067	 1.4820295273	 0.0081844542	 0.154675
C	-0.6871313327	 2.4440858676	 1.0500014106	-0.264157
C	-0.0312443729	 3.400698516	 0.0033250034	-0.176189
C	 1.2162286439	 2.4673049204	 0.0458105622	-0.258958
C	-0.5788347209	 2.4445540548	-1.0632217577	 0.513792
C	-0.7019782713	 2.4144511568	-2.5098557369	-0.315719
O	-1.8571267574	 2.418231605	-1.6235575141	-0.298165
H	 0.0283496724	-2.2132582449	-0.0531568433	 0.180783
H	-1.7771091419	 2.4189932635	 1.0847959081	 0.122485
H	-0.2408837836	 2.4434205596	 2.0470851982	 0.100659
H	-0.0453969081	 4.4885520375	-0.001078988	 0.089549
H	 1.7777966659	 2.4679330322	 0.9818998394	 0.105873
H	 1.8732914215	 2.4636328601	-0.8267058358	 0.104113
H	-0.5724355475	 3.3235719783	-3.0945462042	 0.121574
H	-0.5478366798	 1.4822352878	-3.050238001	 0.128722
113.9512	153.3474	211.6087	286.0636	327.3983	468.0004	490.1082	496.1808	585.1629	622.5239	632.8719	636.9817	661.9899	766.1433	817.137	889.9136	911.9488	943.5538	949.0787	977.6551	1040.2644	1047.0864	1066.8429	1108.4064	1113.4477	1142.7126	1146.9338	1167.1398	1208.1503	1208.5508	1231.1783	1302.9053	1448.8938	1492.4034	1521.6643	1562.9984	2234.5513	3065.8485	3069.1619	3089.5561	3137.3161	3143.4028	3145.4218	3178.3235	3501.6021
C#CC12CC(C1)C21CO1	C#C[C@@]12C[C@@H](C1)[C@]12CO1	
InChI=1S/C8H8O/c1-2-7-3-6(4-7)8(7)5-9-8/h1,6H,3-5H2	InChI=1S/C8H8O/c1-2-7-3-6(4-7)8(7)5-9-8/h1,6H,3-5H2/t6-,7+,8-/m0/s1
