15
gdb 37125	3.58174	1.71145	1.67604	1.3429	62.31	-0.2201	0.0441	0.2643	840.5258	0.112351	-457.643187	-457.636757	-457.635813	-457.673704	26.143	
C	-0.0647200242	 1.5977394347	-0.2795060958	-0.376129
C	 1.2446928822	 0.9092835291	 0.0235715918	 0.240788
O	 1.7227039468	 0.8742629506	 1.3303179474	-0.275907
C	 1.0203525309	-0.180293192	 1.9923287204	 0.00343
O	-0.2456495358	-0.3125407541	 1.3416235178	-0.275915
C	-0.0645612054	 0.1199367371	 0.0310914122	 0.240788
C	 0.5296825988	-0.819078795	-1.0665534029	-0.048023
O	 0.8796139737	 0.0136426719	-2.1738747812	-0.219202
C	 1.7884441638	-0.0603508838	-1.0736250486	-0.048023
H	-0.4347327355	 2.2190801953	 0.527313942	 0.138841
H	-0.2771129275	 1.9404217735	-1.2840258718	 0.147927
H	 1.5874622022	-1.1214803208	 1.9276713429	 0.105304
H	 0.8585480549	 0.0980298656	 3.0371033033	 0.129905
H	 0.2796540518	-1.855455502	-1.2609255467	 0.11811
H	 2.8199949434	-0.32423417	-1.2752098506	 0.118105
158.4667	257.6545	321.7075	354.8943	433.6448	489.7536	523.8296	654.4604	712.4968	742.1834	838.0886	842.8101	862.611	873.6561	906.2697	906.5131	947.9613	1013.8742	1036.764	1038.7632	1096.429	1132.4995	1148.4423	1167.7738	1177.2309	1205.8267	1265.7484	1269.1825	1303.9974	1367.083	1418.4783	1438.5188	1537.8008	2987.3431	3099.973	3154.4719	3179.7515	3195.3902	3253.9041
C1C23OCOC12C1OC31	C1[C@@]23OCO[C@@]12[C@H]1O[C@@H]31	
InChI=1S/C6H6O3/c1-5-3-4(9-3)6(1,5)8-2-7-5/h3-4H,1-2H2	InChI=1S/C6H6O3/c1-5-3-4(9-3)6(1,5)8-2-7-5/h3-4H,1-2H2/t3-,4+,5+,6-
