18
gdb 95468	2.93815	1.36653	1.03736	1.9199	76.08	-0.2034	-0.0033	0.2	1164.4541	0.149014	-435.301211	-435.292268	-435.291324	-435.335477	31.535	
C	 0.5540372532	 1.0261545264	-0.6505835051	-0.321029
N	 0.2095473874	-0.2510483287	-0.0742960178	-0.08914
C	-1.0686918788	-0.9042045093	-0.3496349437	-0.186001
C	-0.9466908756	-2.1773792956	 0.5290025798	-0.164368
N	 0.4883568436	-2.3207168095	 0.8277711279	-0.341095
C	 1.0245316666	-1.2132988058	 0.4656122611	 0.45289
N	 2.3896464163	-0.9721636534	 0.7168549183	-0.381484
C	 3.3318865608	-0.6154070174	-0.22197589	 0.137723
O	 3.1079971808	-0.2288551151	-1.3434807716	-0.295331
H	 1.4357244108	 1.4344968841	-0.1559924437	 0.141696
H	 0.7664009382	 0.964696311	-1.725014311	 0.137932
H	-0.2787606756	 1.7201616743	-0.4902952958	 0.115597
H	-1.9069198806	-0.2565904936	-0.0725682309	 0.108698
H	-1.1636276962	-1.141671227	-1.4208097377	 0.105606
H	-1.5086586318	-2.070275955	 1.4668534593	 0.105688
H	-1.3262795645	-3.0695933475	 0.0242607569	 0.113145
H	 2.7317488957	-1.524889777	 1.4912227034	 0.267952
H	 4.3534663396	-0.7093355809	 0.1945946005	 0.091522
61.593	97.2673	140.9969	183.3713	186.7414	223.1108	275.8438	327.9355	451.3801	589.7372	609.093	655.9776	689.492	770.8239	868.7184	884.8183	955.3469	1015.0801	1029.313	1034.2514	1104.3732	1132.5808	1152.7119	1208.1038	1215.0532	1267.844	1296.6896	1313.6527	1352.4388	1430.0632	1448.8894	1473.1267	1478.1707	1485.0992	1499.9325	1510.6062	1549.2621	1694.4825	1823.1761	2950.5892	2977.5794	3009.3591	3019.1912	3062.7614	3073.2557	3085.4137	3142.4896	3601.9434
CN1CCN=C1NC=O	CN1CC[N][C]1NC=O	
InChI=1S/C5H9N3O/c1-8-3-2-6-5(8)7-4-9/h4H,2-3H2,1H3,(H,6,7,9)	InChI=1S/C5H9N3O/c1-8-3-2-6-5(8)7-4-9/h4H,2-3H2,1H3,(H,6,7,9)
