20
gdb 14754	10.36537	0.59298	0.57085	1.4146	79.18	-0.2532	0.0573	0.3105	1936.5397	0.173996	-348.969033	-348.958903	-348.957959	-349.004963	34.949	
C	-0.077611548	 1.5201479902	 0.0110931256	-0.384742
C	-0.0207970861	 0.002082427	 0.0023469907	-0.02956
O	-1.3416331252	-0.4993970469	 0.0122238151	-0.244061
C	-1.4052529106	-1.9064288633	 0.0053768898	-0.049992
C	-2.8694607227	-2.325494754	 0.0169115269	-0.190328
C	-3.0290672002	-3.858098162	 0.0103763858	-0.355727
C	-4.4231998779	-4.2837355846	 0.0212171816	 0.292018
C	-5.5793977623	-4.6118171089	 0.0304025419	-0.43326
H	 0.9327693852	 1.9398853024	 0.0037008875	 0.114023
H	-0.6138156506	 1.889008069	-0.867876016	 0.126978
H	-0.5968804863	 1.879437697	 0.9040820991	 0.126976
H	 0.5168070924	-0.3602183449	-0.8909044741	 0.08416
H	 0.5336952296	-0.3697951169	 0.88122365	 0.084159
H	-0.896950853	-2.3118910375	-0.8880264924	 0.08245
H	-0.8803020595	-2.3212772928	 0.8847350665	 0.082451
H	-3.3568308752	-1.9067276126	 0.9029451251	 0.120208
H	-3.3733348686	-1.8975084589	-0.85537813	 0.120206
H	-2.5289042572	-4.276597187	-0.8733408238	 0.130308
H	-2.5124792902	-4.285785738	 0.8801345379	 0.130311
H	-6.5974940636	-4.9122459372	 0.0384127329	 0.193421
56.5252	65.3441	80.4089	121.8007	149.4677	181.2688	248.4476	282.6246	346.9921	372.7844	481.1863	544.6458	615.5049	635.1382	757.3021	819.4552	870.3336	891.6417	956.5305	1032.4823	1052.8238	1072.0646	1119.0119	1149.1904	1170.1189	1185.0559	1225.7237	1275.9201	1293.9919	1302.2792	1311.2491	1368.8927	1391.9005	1409.0198	1454.2788	1475.9563	1483.5517	1497.5473	1500.4283	1517.9276	1539.4709	2240.6065	2934.2868	2952.7379	2959.8768	2973.1151	3013.2589	3041.2315	3044.8254	3057.1883	3103.08	3119.1925	3121.4127	3508.2218
CCOCCCC#C	CCOCCCC#C	
InChI=1S/C7H12O/c1-3-5-6-7-8-4-2/h1H,4-7H2,2H3	InChI=1S/C7H12O/c1-3-5-6-7-8-4-2/h1H,4-7H2,2H3
