19
gdb 15875	2.60561	1.84436	1.25998	3.993	73.65	-0.2384	0.0244	0.2628	1027.1481	0.164786	-365.088076	-365.07936	-365.078416	-365.121578	31.426	
C	-0.3994434229	 1.1674103099	 1.2634193603	-0.402326
C	 0.1157814038	-0.0704407176	 0.5468739901	 0.073048
C	 0.5567746099	 0.0588272197	-0.9417814257	-0.286138
C	 1.9538721909	-0.5014896629	-0.5377680652	 0.061291
C	 3.1765792758	 0.3430422196	-0.8643178167	-0.399089
N	 1.4994877273	-0.461321935	 0.8653184337	-0.054618
C	 1.9658902578	-1.0658707556	 1.9811368998	 0.122533
O	 1.3429749045	-1.1777377825	 3.0192743642	-0.336173
H	 0.270929115	 2.0183642399	 1.1053407337	 0.112453
H	-1.3936716391	 1.43479061	 0.8895854261	 0.115691
H	-0.4696922649	 0.9756951327	 2.3368830221	 0.152396
H	-0.5725129796	-0.9079357543	 0.7155804528	 0.09313
H	-0.0039828713	-0.5402238637	-1.6595103589	 0.112968
H	 0.5968337559	 1.0937070775	-1.2903602679	 0.109588
H	 2.1074163876	-1.5312594743	-0.886213132	 0.087735
H	 3.036932746	 1.3750057469	-0.5283141076	 0.123835
H	 4.0751660901	-0.0546961236	-0.381779576	 0.125466
H	 3.3519760112	 0.3496592079	-1.9455132332	 0.122802
H	 3.0029610621	-1.4411915446	 1.8519705206	 0.065407
66.6318	87.4879	156.5742	226.8517	241.4676	269.3823	311.9035	354.4071	417.1089	463.0614	550.9147	691.7491	786.206	853.3235	891.0989	907.3471	973.9982	980.0517	1034.9091	1096.4706	1098.9558	1130.0758	1170.4335	1177.3656	1214.1835	1260.4331	1278.9352	1313.0098	1367.5444	1385.1369	1392.1508	1404.5837	1411.182	1436.0115	1484.0746	1488.7142	1490.6024	1496.4821	1503.7316	1782.5173	2910.3359	3012.906	3027.4641	3033.823	3036.1118	3075.3103	3104.2069	3105.8341	3113.6584	3128.8177	3137.3211
CC1CC(C)N1C=O	C[C@H]1C[C@@H](C)N1C=O	
InChI=1S/C6H11NO/c1-5-3-6(2)7(5)4-8/h4-6H,3H2,1-2H3	InChI=1S/C6H11NO/c1-5-3-6(2)7(5)4-8/h4-6H,3H2,1-2H3/t5-,6+
