22
gdb 102307	1.75798	1.19819	0.85526	3.4478	83.57	-0.2787	0.0222	0.3008	1491.6902	0.191083	-404.370187	-404.359077	-404.358133	-404.407204	39.319	
C	 0.2771314117	 1.4835623734	-0.2196941156	-0.393801
C	 0.0622390491	-0.0263951461	-0.1067746964	-0.186804
C	-1.4236832249	-0.3919522765	 0.0252422591	-0.015504
O	-2.0806839592	 0.0063045899	-1.1541208914	-0.261775
C	-3.5173651643	-0.0581858142	-1.140528144	 0.139349
C	-4.117619209	 1.1311949579	-0.3898433789	-0.394442
C	-3.9474678443	-0.1018192348	-2.6012250843	-0.391486
C	-1.5855499035	-1.8479431653	 0.2588209711	 0.271964
N	-1.7160385297	-2.9821979907	 0.4383996222	-0.329634
H	 1.339975512	 1.7117754371	-0.3379712741	 0.120632
H	-0.2603625128	 1.8866491725	-1.0807303384	 0.138993
H	-0.077833819	 2.0035385684	 0.6771162278	 0.115352
H	 0.4557975347	-0.5387130545	-0.9907844271	 0.126904
H	 0.5918839859	-0.4302515637	 0.7625184222	 0.118194
H	-1.8396593558	 0.1208977696	 0.9069571842	 0.109466
H	-3.8212868306	-0.9943360431	-0.6495094358	 0.094831
H	-5.2101634894	 1.0673695681	-0.3945236079	 0.123011
H	-3.7975438462	 1.162260375	 0.6560349663	 0.11704
H	-3.8234418822	 2.0707135436	-0.8682097803	 0.125448
H	-3.5068890218	-0.9663876525	-3.1035504947	 0.130211
H	-5.0364661478	-0.1690257656	-2.6778423152	 0.11823
H	-3.6192928731	 0.8038213417	-3.1213236488	 0.123821
34.8075	78.5991	97.8889	137.1843	166.215	210.0754	220.7858	237.0698	281.0369	309.5189	355.4663	411.7723	458.3646	462.0238	544.1391	616.8038	763.5845	839.8645	873.4983	922.0761	929.566	946.9231	964.074	1024.8538	1081.7723	1132.6927	1137.8839	1145.2424	1175.0929	1205.4395	1287.6906	1317.6622	1353.0647	1370.3153	1382.4155	1396.0727	1406.9788	1412.1474	1418.0595	1477.2329	1481.4279	1484.0192	1495.8257	1496.502	1508.0507	1509.7797	2350.6824	2982.6318	3001.9931	3038.5435	3040.985	3044.9485	3050.723	3089.8549	3108.8178	3110.1883	3112.3898	3119.5855	3128.3939	3134.3743
CCC(OC(C)C)C#N	CC[C@@H](OC(C)C)C#N	
InChI=1S/C7H13NO/c1-4-7(5-8)9-6(2)3/h6-7H,4H2,1-3H3	InChI=1S/C7H13NO/c1-4-7(5-8)9-6(2)3/h6-7H,4H2,1-3H3/t7-/m1/s1
