15
gdb 26040	3.31057	1.14311	1.05261	2.3266	72.77	-0.2449	-0.0059	0.239	1165.69	0.113242	-416.787091	-416.77883	-416.777885	-416.820601	30.057	
N	-0.1462072092	 1.4308445127	 0.1175045236	-0.500918
C	 0.028673822	-0.0288085232	-0.0148005521	-0.289545
C	 0.7818149081	-0.4332680722	-1.2152213101	 0.326059
C	 1.388750143	-0.7193678888	-2.2128457091	-0.470422
C	 0.6503478776	-0.5801134124	 1.2293435059	 0.404629
C	 0.2658533507	-1.4578251842	 2.1854576106	-0.202936
N	 1.2753357985	-1.5823436075	 3.1339473432	-0.256578
C	 2.1998490677	-0.7867060552	 2.7108399091	 0.076454
O	 1.9061400724	-0.1387361816	 1.5590767293	-0.184439
H	 0.7731537464	 1.8569747652	 0.2043446871	 0.242402
H	-0.5373518808	 1.7890660619	-0.7500977758	 0.237911
H	-0.9736076098	-0.4708254166	-0.0725733793	 0.132185
H	 1.9283619477	-0.9818271126	-3.0893079575	 0.202757
H	-0.6585241298	-2.007611746	 2.2627680135	 0.129967
H	 3.1608813156	-0.5760777596	 3.1528637417	 0.152474
54.5993	98.6313	167.729	203.2174	251.9181	320.1352	400.2579	451.8483	567.4151	644.5416	651.5582	666.8954	711.8958	753.0021	839.1347	865.4994	867.755	940.373	969.938	998.8081	1077.0639	1120.5294	1135.5574	1172.079	1241.8857	1260.631	1313.7427	1361.7708	1388.2445	1549.2232	1639.4783	1661.0077	2227.8777	3040.0447	3266.3873	3279.2164	3483.4584	3501.9727	3562.076
NC(C#C)C1=CN=CO1	N[C@@H](C#C)c1cnco1	
InChI=1S/C6H6N2O/c1-2-5(7)6-3-8-4-9-6/h1,3-5H,7H2	InChI=1S/C6H6N2O/c1-2-5(7)6-3-8-4-9-6/h1,3-5H,7H2/t5-/m0/s1
