18
gdb 42087	3.83877	1.23777	1.20281	1.1093	71.42	-0.2434	0.0172	0.2606	1081.1275	0.150383	-439.100669	-439.093117	-439.092173	-439.13397	28.138	
C	 0.1178552371	 1.4149022272	-0.4211376843	-0.0731
C	 1.2745150638	 1.910441325	 0.4831347427	-0.310532
C	 2.1358216586	 0.6455691781	 0.7221414442	 0.305465
C	 1.1290047554	-0.4640770289	 0.3582451589	-0.133053
O	 0.4114739128	 0.0564835292	-0.7438235017	-0.249055
C	 3.4366673361	 0.5804050733	-0.1283524844	-0.162954
O	 4.4719026599	 0.2499295882	 0.8295728263	-0.219206
C	 3.8604974287	 0.2904845048	 2.0346912422	 0.108033
N	 2.6150181684	 0.5143446786	 2.1089396794	-0.303879
H	-0.8452107962	 1.4796034841	 0.1060336846	 0.098323
H	 0.0292678947	 1.9658461416	-1.3611811017	 0.109706
H	 1.8536447306	 2.7127419797	 0.0194624056	 0.105757
H	 0.9073060871	 2.2768616189	 1.4439493865	 0.126568
H	 1.6004509574	-1.4016018504	 0.051598846	 0.108749
H	 0.4757915945	-0.659689255	 1.2231661435	 0.101224
H	 3.4178884934	-0.1930525032	-0.899792308	 0.129295
H	 3.7001651364	 1.5375309698	-0.5890043287	 0.116005
H	 4.5198376412	 0.116202699	 2.8779231991	 0.142654
37.305	70.0822	189.6479	280.5025	370.6354	392.3463	454.6526	572.2668	672.0337	726.7177	809.4913	823.3887	881.4005	931.9426	962.7976	964.5363	968.7959	978.4809	983.374	1010.5819	1094.7343	1116.7665	1137.4212	1174.8284	1180.0849	1222.7479	1239.2647	1255.4461	1281.896	1302.9683	1327.3026	1350.5962	1378.9255	1397.4941	1493.0071	1505.1795	1519.2522	1528.4729	1698.4253	2985.657	2996.499	3050.2062	3069.0493	3086.4832	3093.6551	3106.6426	3121.1132	3215.3874
C1CC2(CO1)COC=N2	C1C[C@@]2(CO1)COC=N2	
InChI=1S/C6H9NO2/c1-2-8-3-6(1)4-9-5-7-6/h5H,1-4H2	InChI=1S/C6H9NO2/c1-2-8-3-6(1)4-9-5-7-6/h5H,1-4H2/t6-/m1/s1
