25
gdb 100979	1.91574	1.47705	0.98302	1.1665	89.86	-0.2429	0.0823	0.3252	1358.7977	0.22604	-389.475985	-389.464754	-389.46381	-389.512291	41.455	
C	 0.0058065351	 1.5137873385	 0.213250858	-0.238452
O	 0.1443376883	 0.1247942081	 0.0282630902	-0.244333
C	 0.6188056717	-0.5857255182	 1.1693944051	 0.062056
C	-0.5469346831	-0.8435842852	 2.1348932229	-0.402266
C	 1.301977657	-1.8790451017	 0.713205502	 0.329913
C	 1.6478903513	-2.8179196549	 1.8602919634	-0.468863
C	 0.8900105087	-2.5131923782	-0.5968470202	-0.326646
C	 2.270438138	-1.9077394343	-0.457988522	-0.025881
C	 2.7235319349	-0.7169799134	-1.2768146678	-0.423042
H	 0.9596387033	 1.9829632193	 0.500474109	 0.106102
H	-0.3192188306	 1.9340406934	-0.7420736864	 0.126013
H	-0.7451151214	 1.7680878573	 0.9752827101	 0.107854
H	 1.3724006676	 0.0366834868	 1.6839033572	 0.062162
H	-1.2639671611	-1.5366066899	 1.6842011314	 0.125086
H	-0.2013823622	-1.2633938554	 3.0826887723	 0.118416
H	-1.0697218281	 0.0893742153	 2.3631914837	 0.111556
H	 0.7558746058	-3.2202914173	 2.3509776049	 0.117074
H	 2.2298563876	-3.6689027631	 1.4950940819	 0.113199
H	 2.2505699724	-2.3120890725	 2.6254414274	 0.11002
H	 0.7861116801	-3.5931153996	-0.6406129585	 0.095691
H	 0.1770311157	-1.9641584187	-1.2008817698	 0.124073
H	 3.0659937665	-2.6371772904	-0.3164422416	 0.072542
H	 1.8948143019	-0.0516866413	-1.5146824352	 0.13693
H	 3.4867454788	-0.1351236853	-0.7456154731	 0.103642
H	 3.1726623819	-1.0583602591	-2.216760185	 0.107155
45.085	67.7215	139.8102	182.7221	192.7131	217.1823	233.1879	247.789	254.1851	321.6332	356.5046	378.0455	424.3118	437.7775	506.3499	541.3958	708.2621	771.496	849.2089	882.0564	912.2694	920.66	972.082	1015.4293	1029.3402	1060.8089	1083.1364	1109.8134	1129.2971	1130.4965	1138.1783	1158.9812	1183.212	1195.726	1220.779	1258.1272	1331.198	1356.6345	1378.631	1401.5484	1404.717	1418.0021	1425.0531	1475.9836	1481.2654	1489.6344	1490.9296	1493.7323	1496.3119	1500.0191	1507.709	1512.195	1516.0144	2940.1102	2978.4394	3021.0758	3025.2477	3026.3394	3045.886	3073.2286	3083.9472	3101.9863	3108.6263	3112.9929	3115.4711	3124.8846	3127.0747	3159.3404	3220.1995
COC(C)C1(C)CC1C	CO[C@@H](C)[C@@]1(C)C[C@H]1C	
InChI=1S/C8H16O/c1-6-5-8(6,3)7(2)9-4/h6-7H,5H2,1-4H3	InChI=1S/C8H16O/c1-6-5-8(6,3)7(2)9-4/h6-7H,5H2,1-4H3/t6-,7+,8+/m1/s1
