13
gdb 46660	2.45462	1.75694	1.51622	5.8546	62.08	-0.2971	-0.0283	0.2688	899.3454	0.090474	-452.761691	-452.754648	-452.753704	-452.793618	25.598	
O	-0.0260979994	-0.0180578054	 0.0185590056	-0.315977
C	-0.0159639624	 1.1684069435	 0.0195662923	 0.4718
O	-1.1359541909	 1.9415322448	 0.0676622645	-0.221102
C	-0.8184765979	 3.3352363136	 0.0266132852	-0.115128
C	 0.7023237828	 3.3790757179	 0.0235825148	-0.055548
C	 1.4296211794	 2.7772883259	 1.1808832144	-0.177742
C	 0.733270284	 2.4935196771	 2.4103211853	 0.323118
N	 0.1859085889	 2.2962373143	 3.4094180326	-0.322777
N	 1.1704688533	 1.9973425538	-0.065944961	-0.181413
H	-1.222033875	 3.7658134488	-0.8940962767	 0.142532
H	-1.2771287576	 3.8266028464	 0.8892078442	 0.154748
H	 1.2092568339	 4.1171258071	-0.5884484507	 0.136048
H	 2.480999201	 3.0127739222	 1.3134110396	 0.161441
101.7867	125.9372	166.6825	269.9758	354.4618	497.0902	556.4846	575.0373	696.504	729.3073	757.7966	815.8076	843.1032	871.4336	962.6608	991.7185	1044.9811	1058.2199	1084.6213	1119.8204	1148.9945	1228.4904	1269.7384	1354.6938	1372.0203	1406.9771	1516.141	1921.8332	2358.2189	3060.5529	3108.0125	3166.1065	3178.3803
O=C1OCC2C(C#N)N12	O=C1OC[C@H]2[C@@H](C#N)N12	
InChI=1S/C5H4N2O2/c6-1-3-4-2-9-5(8)7(3)4/h3-4H,2H2	InChI=1S/C5H4N2O2/c6-1-3-4-2-9-5(8)7(3)4/h3-4H,2H2/t3-,4+,7?/m1/s1
