19
gdb 38612	2.64806	2.19817	1.62665	1.4454	77.49	-0.2288	0.0902	0.319	889.7344	0.162954	-385.85399	-385.847619	-385.846674	-385.884303	27.445	
C	-0.0590208634	 1.4506775944	-0.1075039729	-0.397462
C	 1.3035763744	 0.7967351773	 0.0061030673	-0.023594
C	 2.189420165	 0.3240288968	-1.1447634793	-0.259224
C	 1.4827053843	-0.9266546564	-1.656776476	-0.068712
C	 0.8819774256	-2.0118815105	-0.7393639194	 0.099519
O	 0.9611248938	-2.0114919877	 0.6753177479	-0.271631
C	-0.0098972814	-1.0508396546	 1.1533420811	-0.162481
C	 0.0361324136	-0.0369101905	 0.0340399127	 0.290979
C	 0.0292168358	-0.8937666017	-1.2283406009	-0.182241
H	-0.3758066109	 2.0537459209	 0.737941535	 0.115724
H	-0.4056561202	 1.8235781104	-1.0672446605	 0.114459
H	 1.7976950573	 0.9521550785	 0.9596928389	 0.08695
H	 2.2822310468	 1.0563854345	-1.9573483418	 0.097666
H	 3.2036591879	 0.1226126846	-0.7825991029	 0.106095
H	 1.7397648186	-1.2945597379	-2.6474018004	 0.077754
H	 0.8328012042	-3.0131827488	-1.1550760604	 0.095838
H	-0.9867050629	-1.5401649765	 1.2789680517	 0.090605
H	 0.3312397376	-0.6740519394	 2.1210845008	 0.107638
H	-0.838823236	-0.9756075134	-1.8728699608	 0.082118
201.1193	237.0485	346.3052	385.7611	462.362	542.7889	602.7893	708.4792	732.8144	752.8075	794.7074	808.6775	832.0502	857.4939	902.8487	919.1958	941.6239	985.1207	999.092	1031.7626	1041.0682	1069.3109	1085.2305	1085.9049	1105.7788	1109.4593	1124.3677	1162.935	1197.7553	1223.497	1244.3335	1276.8271	1309.0886	1316.6023	1350.0578	1361.0414	1399.6284	1413.8602	1483.3589	1495.3072	1515.5974	2996.7627	3018.3004	3061.8467	3095.8996	3116.9953	3137.4683	3157.032	3157.7353	3169.6626	3200.8292
C1C2CC3C4OCC12C34	C1[C@@H]2C[C@H]3[C@H]4OC[C@@]12[C@@H]34	
InChI=1S/C8H10O/c1-4-2-8(4)3-9-7-5(1)6(7)8/h4-7H,1-3H2	InChI=1S/C8H10O/c1-4-2-8(4)3-9-7-5(1)6(7)8/h4-7H,1-3H2/t4-,5+,6-,7+,8-/m0/s1
