20
gdb 63518	3.12806	1.35014	1.33428	2.4807	80.04	-0.2317	0.074	0.3058	1081.2456	0.1704	-403.045571	-403.037288	-403.036343	-403.077906	33.175	
C	-0.0854019178	 1.6017943667	-0.1354682593	-0.440815
C	 0.0315529981	 0.1067738174	 0.0151793961	 0.315936
O	-1.1319009198	-0.5435046529	-0.4242634044	-0.479372
C	 1.3832486762	-0.5839968004	-0.235616209	-0.461405
C	 0.7697917938	-0.5378542923	 1.1276586134	 0.373114
C	 1.2143666911	-0.2542652811	 2.5666689355	-0.16802
C	-0.2108557686	-0.7367268264	 2.9260997187	-0.170609
N	 0.2072907756	-1.7583668338	 1.8459423085	-0.197137
C	 1.5681331276	-1.7610749342	 2.5775257753	-0.166286
H	 0.8282218493	 2.1029814397	 0.1955065725	 0.113379
H	-0.260126812	 1.8627368036	-1.1843694662	 0.129857
H	-0.926199089	 1.9847951723	 0.451824911	 0.122176
H	-1.1736331506	-1.3917290712	 0.0379232539	 0.29235
H	 1.3623977656	-1.5307585592	-0.7676891342	 0.12035
H	 2.2475437288	 0.039917798	-0.4450254806	 0.112224
H	 1.7816068253	 0.5938955805	 2.9610702341	 0.073001
H	-0.363920303	-1.1908931212	 3.9090000361	 0.10158
H	-1.0581887057	-0.1161819263	 2.6281860257	 0.115876
H	 2.3953683834	-2.1000473786	 1.9509047699	 0.111588
H	 1.5378497518	-2.2883392606	 3.5350303332	 0.102214
139.2394	154.1297	165.8331	215.3812	322.2915	379.4672	405.8776	426.6278	451.0747	522.8811	601.4227	639.4615	760.9277	773.4415	795.6736	833.8129	895.9001	899.281	917.7045	963.4771	983.5053	1021.6571	1034.8034	1049.5017	1081.6942	1099.9918	1111.4391	1124.9074	1158.2375	1178.2752	1198.7993	1216.7475	1223.6036	1251.9708	1275.2812	1371.4262	1406.701	1436.1921	1477.3667	1489.1826	1504.847	1522.5342	1545.6041	3036.7061	3053.5949	3055.78	3069.8137	3102.0462	3113.4928	3118.9348	3130.5814	3132.9909	3204.4157	3750.4581
CC1(O)CC11C2CN1C2	C[C@@]1(O)C[C@]21[C@H]1CN2C1	
InChI=1S/C7H11NO/c1-6(9)4-7(6)5-2-8(7)3-5/h5,9H,2-4H2,1H3	InChI=1S/C7H11NO/c1-6(9)4-7(6)5-2-8(7)3-5/h5,9H,2-4H2,1H3/t6-,7-/m1/s1
