21
gdb 108349	2.46496	1.6385	1.28845	1.3566	81.38	-0.2272	0.0739	0.3011	1078.9267	0.183216	-387.029907	-387.021719	-387.020775	-387.062302	32.934	
O	-0.0133933607	 1.3938030015	-0.2256372444	-0.42061
C	-0.0125662113	 0.0032723608	 0.0685767188	-0.188359
C	-1.4312208682	-0.5066321198	 0.0321051663	 0.378577
C	-1.6108959221	-2.0582547128	 0.0145650066	-0.31548
C	-2.4770214488	-1.9395896751	-1.283369006	-0.239652
C	-2.3138463047	-0.3908844263	-1.2468373404	-0.057953
C	-3.3327514499	 0.4574529328	-0.4531972049	-0.045466
C	-3.8498297015	-0.2431927432	 0.772563685	-0.311349
C	-2.4688505585	 0.3455227969	 0.8083407627	-0.088472
H	 0.8945274217	 1.7078851689	-0.1900251911	 0.28761
H	 0.5943885007	-0.5551315816	-0.6634618991	 0.080651
H	 0.4198200566	-0.1914419513	 1.066284809	 0.082614
H	-0.6721030603	-2.5996674187	-0.1361518188	 0.092202
H	-2.1076621924	-2.4853439133	 0.8890530564	 0.100156
H	-2.0088970401	-2.4019802158	-2.1558944634	 0.095841
H	-3.501837325	-2.3133683469	-1.2120600091	 0.099754
H	-1.9228456653	 0.1005001553	-2.137839337	 0.069978
H	-3.8364680269	 1.329523047	-0.8529354598	 0.081197
H	-4.5923469017	 0.3195141169	 1.3306353265	 0.107726
H	-4.0218829386	-1.315033654	 0.7940317658	 0.106026
H	-2.1960611927	 1.1228325386	 1.5118447769	 0.085012
101.1827	156.1423	217.4965	243.984	281.0109	316.6584	379.6661	437.0492	524.8475	595.5926	685.0026	733.879	762.0574	779.51	841.1413	884.6241	913.1316	935.5101	939.7942	947.1706	992.3163	996.0613	1029.7659	1064.5048	1071.7491	1085.846	1094.3191	1118.2452	1133.6426	1166.8416	1188.1627	1214.6467	1232.1074	1242.2578	1257.5179	1274.7527	1286.3362	1307.0544	1331.4023	1370.2106	1459.7522	1475.6113	1484.7322	1506.0244	1511.9323	2941.5051	2973.5571	3049.706	3060.3163	3094.0458	3107.058	3116.2889	3121.8755	3172.9604	3182.0785	3198.7915	3833.0171
OCC12CCC1C1CC21	OC[C@]12CC[C@H]1[C@H]1C[C@@H]21	
InChI=1S/C8H12O/c9-4-8-2-1-6(8)5-3-7(5)8/h5-7,9H,1-4H2	InChI=1S/C8H12O/c9-4-8-2-1-6(8)5-3-7(5)8/h5-7,9H,1-4H2/t5-,6+,7-,8-/m1/s1
