22
gdb 7497	3.4541	1.30383	1.16406	0.9499	78.92	-0.2516	0.0812	0.3328	1167.381	0.199128	-350.18965	-350.18036	-350.179416	-350.223519	34.215	
C	-0.0646896457	 1.3770610152	-0.0270580468	-0.224188
O	-0.1036650066	-0.027818229	-0.0613109951	-0.236875
C	 0.7366277282	-0.5816646286	-1.0523293747	-0.09413
C	 0.6387674633	-2.1036811628	-1.0032093641	 0.330589
C	 1.1208875895	-2.6388506165	 0.3407418683	-0.460165
C	-0.7533729007	-2.6063332683	-1.5049280933	-0.243105
C	-0.1400870767	-2.8625178916	-2.9080515524	-0.209492
C	 1.2760335092	-2.7311514142	-2.2838422667	-0.265077
H	 0.9466102454	 1.7537670614	 0.1957687569	 0.10212
H	-0.3891825019	 1.8197406452	-0.9826992678	 0.101428
H	-0.7449495047	 1.7064536634	 0.7624270109	 0.125319
H	 0.4423750998	-0.2072483588	-2.0483601718	 0.078063
H	 1.7834510963	-0.2688629531	-0.8865105001	 0.079589
H	 0.5369810371	-2.2115265401	 1.1609541673	 0.130742
H	 1.0301992313	-3.7292062816	 0.3830880556	 0.103216
H	 2.1743251843	-2.3837913461	 0.5110052434	 0.104943
H	-1.0505213643	-3.5336187495	-1.0068955643	 0.092767
H	-1.5786711417	-1.8948183377	-1.4300095694	 0.102919
H	-0.3808232271	-3.8137016085	-3.388138064	 0.094964
H	-0.3616683358	-2.0610368378	-3.6177347128	 0.100671
H	 2.0101956215	-2.1222593084	-2.8212634691	 0.089575
H	 1.7297597491	-3.7032315528	-2.0706909998	 0.096126
77.5768	109.8275	135.3559	170.8297	222.1533	241.4673	303.1205	321.1078	358.7548	408.9716	476.1545	640.7767	730.7763	785.3356	866.667	893.6003	925.3009	942.2947	968.801	982.3515	993.9018	1009.6494	1072.1325	1149.8306	1167.4669	1178.4427	1203.7116	1212.8166	1216.8514	1233.9175	1255.5713	1267.3175	1278.6555	1306.5945	1335.0848	1400.7199	1419.6449	1475.7865	1480.4991	1484.3195	1486.0662	1488.8203	1498.8169	1502.203	1510.625	1524.7186	2937.0138	2966.2695	2968.4938	3008.3675	3022.5499	3043.5318	3057.7559	3063.1922	3085.3765	3089.8747	3105.685	3110.627	3112.6013	3120.3869
COCC1(C)CCC1	COCC1(C)CCC1	
InChI=1S/C7H14O/c1-7(6-8-2)4-3-5-7/h3-6H2,1-2H3	InChI=1S/C7H14O/c1-7(6-8-2)4-3-5-7/h3-6H2,1-2H3
