17
gdb 44074	3.18405	1.67794	1.49695	4.4693	72.9	-0.2489	0.0122	0.2611	927.6424	0.137768	-421.776705	-421.770237	-421.769293	-421.807261	27.214	
O	-0.0805090778	 0.0531936731	 0.1238846362	-0.354956
C	 0.0568998556	 1.2387525027	 0.0803851611	 0.461586
O	-0.9649953486	 2.1475643061	 0.1241358739	-0.281551
C	-0.2559975244	 3.4494863622	 0.0339008438	 0.403447
C	-1.1110473445	 4.3054036974	-0.9282451549	-0.311765
C	-0.4171060886	 3.4582023475	-2.0883528042	-0.279799
C	 0.747758901	 3.2091862164	-1.0597917488	-0.001009
C	 1.2758336486	 2.1299711211	-0.0288026862	-0.245319
C	 0.864017052	 3.2279710666	 1.0853320333	-0.332099
H	-2.1949753689	 4.2432001977	-0.820906874	 0.125601
H	-0.7921393731	 5.3494447874	-0.9515501779	 0.118082
H	-1.003022435	 2.576411898	-2.3416906592	 0.142719
H	-0.1407462051	 3.9947746009	-2.9968489667	 0.109243
H	 1.4646529142	 4.0304732846	-1.1206926755	 0.096457
H	 2.2493318473	 1.6473828281	-0.0646332083	 0.101698
H	 1.5887378827	 4.0408153965	 1.1463662089	 0.121565
H	 0.5909369446	 2.8595874937	 2.0768724887	 0.126101
153.4136	286.5154	334.188	372.6704	480.7068	493.7114	585.1421	600.7849	683.846	734.7985	780.1253	803.2725	813.6948	843.2871	880.9907	896.0456	916.6261	971.9749	1012.2823	1023.697	1045.986	1082.5361	1095.7521	1129.6185	1165.8797	1192.1301	1194.0729	1224.1295	1227.7353	1242.6146	1268.618	1274.0171	1366.6439	1469.0643	1480.034	1489.0532	1907.5111	3073.0679	3079.0188	3088.0411	3094.787	3141.9487	3148.9448	3157.8095	3166.57
O=C1OC23CCC2C1C3	O=C1O[C@]23CC[C@@H]2[C@H]1C3	
InChI=1S/C7H8O2/c8-6-4-3-7(9-6)2-1-5(4)7/h4-5H,1-3H2	InChI=1S/C7H8O2/c8-6-4-3-7(9-6)2-1-5(4)7/h4-5H,1-3H2/t4-,5-,7+/m1/s1
