19
gdb 89009	3.8313	0.88988	0.85536	2.3612	71.71	-0.244	0.0645	0.3085	1403.3111	0.157692	-460.097221	-460.088224	-460.087279	-460.13232	32.671	
O	-0.1353857292	 1.3153283787	 0.4298348317	-0.431281
C	-0.0363017529	-0.056750355	 0.217505084	 0.12295
C	-0.8532434931	-1.0113834374	 1.0663333435	-0.354681
C	-1.206462481	-0.768415874	-0.3901472324	 0.04943
O	-2.2710261462	 0.0819092884	-0.7087893225	-0.270774
C	-3.5492088341	-0.5002689408	-0.6170924738	 0.09611
C	-4.3270846271	-0.3951111255	 0.71667392	-0.094682
O	-5.4412906796	 0.2246353771	 0.0411331383	-0.271206
C	-4.6753836703	 0.383918537	-1.1713037859	-0.101117
H	-0.9853638707	 1.5891060124	 0.061048071	 0.293651
H	 0.9645010676	-0.3574499132	-0.0782400917	 0.103502
H	-0.4339796295	-1.9738254894	 1.3400099266	 0.115935
H	-1.4874427302	-0.5508989669	 1.8153235249	 0.125992
H	-1.0466769832	-1.5681926818	-1.1125065639	 0.09687
H	-3.5352019802	-1.5144662844	-1.0323019442	 0.087811
H	-4.6130326691	-1.3263285229	 1.2170465107	 0.1088
H	-3.8514008171	 0.283003015	 1.4375280322	 0.103164
H	-4.351743406	 1.4212055886	-1.3301453476	 0.108888
H	-5.2146328282	 0.0270153443	-2.054749621	 0.110637
37.7345	74.869	93.928	145.9748	269.7932	284.6716	341.6323	395.6105	414.7652	511.6685	593.1564	747.0314	760.2959	809.3498	877.8933	889.907	904.2227	988.1797	1002.7463	1025.4284	1027.1319	1048.8139	1061.561	1108.7396	1122.9493	1138.5763	1151.6344	1157.7955	1189.9937	1198.8619	1246.7406	1272.6009	1301.3591	1338.249	1348.6811	1372.4922	1421.692	1427.5329	1476.6271	1499.4409	1528.4363	3008.9736	3020.8101	3037.1198	3074.4334	3079.8839	3105.8026	3134.5667	3152.7814	3230.1658	3765.396
OC1CC1OC1COC1	O[C@H]1C[C@H]1OC1COC1	
InChI=1S/C6H10O3/c7-5-1-6(5)9-4-2-8-3-4/h4-7H,1-3H2	InChI=1S/C6H10O3/c7-5-1-6(5)9-4-2-8-3-4/h4-7H,1-3H2/t5-,6+/m0/s1
