21
gdb 83821	2.76473	1.47909	1.17839	0.9133	83.84	-0.2321	0.0243	0.2565	1136.2528	0.183932	-387.075991	-387.067661	-387.066717	-387.108674	32.73	
C	-0.1406365799	 1.5819993339	-0.0493291867	-0.406324
C	 0.0377342256	 0.0809101729	 0.0226818059	-0.073712
C	 0.7045191702	-0.7360244798	-1.0792515909	-0.066568
C	 1.3137777362	-0.090743119	-2.317221519	-0.279926
C	 2.7540747304	-0.4871082751	-2.5700401264	-0.068953
C	 3.7327535447	-0.5582777162	-1.6682344701	-0.033624
C	 3.6774695493	-0.2537136741	-0.1943540207	-0.127275
O	 2.4790198808	 0.3393249267	 0.277172931	-0.244404
C	 1.3910570383	-0.5341940081	 0.2475425547	 0.094399
H	 0.7760948956	 2.0819570664	-0.3665374286	 0.137387
H	-0.9462014867	 1.8557823411	-0.7395238709	 0.111902
H	-0.3990855401	 1.9795330298	 0.9379177083	 0.116331
H	-0.7766950139	-0.4340031442	 0.5260919338	 0.083375
H	 0.2895067161	-1.72532826	-1.2526179382	 0.081473
H	 0.7099361147	-0.3624164548	-3.1898186368	 0.099739
H	 1.2490032816	 1.000884286	-2.250825463	 0.120129
H	 3.007975595	-0.7188414746	-3.6023729824	 0.084633
H	 4.7241519622	-0.8645971339	-2.0014650869	 0.08384
H	 3.8944993306	-1.1741019357	 0.3782227218	 0.096522
H	 4.4757229279	 0.4568265468	 0.0559706315	 0.114975
H	 1.4844375912	-1.3777375682	 0.9340829434	 0.076081
94.6408	151.4226	171.8013	239.9965	295.4722	318.5572	353.8259	422.7833	486.1417	564.8305	640.1182	692.7744	755.2535	766.9231	829.4707	846.9434	898.4123	936.4081	947.8944	985.0061	999.8299	1027.1096	1037.3808	1078.2422	1109.4249	1119.9844	1145.036	1149.1642	1180.5234	1233.6538	1251.5439	1261.627	1300.3409	1343.2058	1363.3411	1376.939	1406.9537	1415.9968	1419.389	1449.0875	1480.1968	1485.4809	1495.4379	1507.5442	1734.7146	2939.3039	3035.0744	3038.0882	3040.0484	3066.5365	3076.3367	3090.3311	3123.3095	3124.9083	3134.9021	3145.2022	3151.8546
CC1C2CC=CCOC12	C[C@H]1[C@H]2CC=CCO[C@@H]12	
InChI=1S/C8H12O/c1-6-7-4-2-3-5-9-8(6)7/h2-3,6-8H,4-5H2,1H3	InChI=1S/C8H12O/c1-6-7-4-2-3-5-9-8(6)7/h2-3,6-8H,4-5H2,1H3/t6-,7+,8-/m0/s1
