17
gdb 17306	2.66778	2.53043	1.75143	2.4368	68.28	-0.2157	0.0657	0.2814	817.5788	0.141365	-363.765725	-363.758285	-363.757341	-363.7968	29.17	
C	 0.0346219585	 1.4830304068	 0.0175262962	-0.465753
C	-0.0286550525	-0.0135071371	 0.0218539595	 0.318494
C	-0.9384032948	-0.8146195139	 0.8945952612	 0.044014
O	-1.9589101724	-1.6759926093	 0.4633668068	-0.417429
C	 0.5393058642	-1.0868808331	 0.9853122379	-0.204943
C	 1.1538261735	-1.7348558337	-0.2619622869	-0.037945
C	 0.2162999594	-2.0802211472	-1.3525061702	-0.25833
N	 0.635649436	-0.6664391486	-1.179319418	-0.185141
H	 1.0548067546	 1.8260367607	-0.17991628	 0.129177
H	-0.6091741461	 1.8853059186	-0.7738556272	 0.130839
H	-0.2974198917	 1.8981160566	 0.9736611624	 0.113933
H	-1.2491097824	-0.1991890065	 1.7438652519	 0.09341
H	-2.0133625096	-2.4008860414	 1.0963777262	 0.286724
H	 1.0914771527	-0.9636294216	 1.9095413832	 0.088331
H	 2.2047327346	-2.0059109634	-0.2876788971	 0.097526
H	 0.6654295558	-2.5044433356	-2.2473853681	 0.114471
H	-0.8025170299	-2.3714965612	-1.1500685778	 0.152623
180.2038	201.9673	211.9963	276.8069	293.2792	310.756	426.0015	521.0981	577.4652	644.3697	689.786	758.9636	773.9157	852.0374	904.1829	926.4737	953.8779	986.3639	999.3812	1054.4201	1067.4874	1102.5702	1123.2504	1137.5309	1171.2423	1204.8325	1239.0596	1278.7579	1293.2168	1356.7834	1360.4864	1411.8007	1471.8889	1474.4421	1492.9976	1504.3016	3028.6705	3060.5958	3093.1856	3113.8856	3125.2047	3153.5702	3180.2732	3266.4848	3796.1993
CC12C(O)C1C1CN21	C[C@]12[C@@H](O)[C@H]1[C@H]1CN21	
InChI=1S/C6H9NO/c1-6-4(5(6)8)3-2-7(3)6/h3-5,8H,2H2,1H3	InChI=1S/C6H9NO/c1-6-4(5(6)8)3-2-7(3)6/h3-5,8H,2H2,1H3/t3-,4-,5+,6-,7?/m1/s1
