19
gdb 102207	3.2657	0.87307	0.73109	2.1096	83.83	-0.2563	0.0268	0.2831	1527.5906	0.155598	-385.818589	-385.808195	-385.807251	-385.854273	37.942	
O	 0.1950103422	 1.426713521	 0.3068875274	-0.424879
C	 0.0824399365	 0.0505229115	 0.0151002273	-0.062601
C	-1.3629191435	-0.4780614898	 0.0485257633	-0.012346
C	-2.179236599	-0.069620581	-1.2030088819	-0.372372
C	-2.2785544809	 1.3675183603	-1.4410362971	 0.270399
C	-2.3705448332	 2.5489420262	-1.6514582717	-0.416554
C	-1.3842897856	-2.0225399498	 0.1612768123	-0.373061
C	-0.8328759296	-2.5250458641	 1.4132528882	 0.292212
C	-0.3825696693	-2.9250169697	 2.4534503873	-0.42651
H	-0.3291323385	 1.9122754761	-0.3410824986	 0.285405
H	 0.5348494553	-0.2002878397	-0.9615370917	 0.07747
H	 0.6645085621	-0.468331705	 0.7825311725	 0.123191
H	-1.8441852064	-0.055641597	 0.937142578	 0.10761
H	-1.7315896466	-0.5447879432	-2.0874551387	 0.133714
H	-3.1941482866	-0.4792142896	-1.1198145042	 0.135173
H	-2.4645938501	 3.5908921056	-1.8357088017	 0.204587
H	-2.4171093431	-2.3784565772	 0.0553529	 0.130173
H	-0.8290679237	-2.4550622493	-0.6832525536	 0.130778
H	 0.0149150898	-3.2831214452	 3.370653673	 0.19761
50.3507	90.0049	97.2509	151.6563	183.2539	259.6379	290.7297	341.7486	348.8318	374.0621	418.6699	432.0234	478.5904	601.3769	620.7961	624.7504	642.8306	644.4825	827.0346	873.7827	890.4447	941.8841	998.9241	1052.1099	1082.0226	1094.0005	1105.2004	1197.1832	1211.2399	1279.6187	1283.9183	1343.1467	1344.3369	1379.6672	1403.6195	1448.8457	1462.6468	1474.9545	1507.766	2227.4046	2238.9621	2941.3373	3006.5063	3009.9882	3041.4121	3042.0014	3067.3222	3085.7321	3501.3143	3506.3137	3777.9309
OCC(CC#C)CC#C	OCC(CC#C)CC#C	
InChI=1S/C8H10O/c1-3-5-8(7-9)6-4-2/h1-2,8-9H,5-7H2	InChI=1S/C8H10O/c1-3-5-8(7-9)6-4-2/h1-2,8-9H,5-7H2
