16
gdb 16869	3.96985	1.93866	1.45197	4.3587	64.13	-0.2555	0.0151	0.2707	853.5475	0.132364	-383.768958	-383.762373	-383.761429	-383.799794	25.637	
O	-0.05668869	 0.0620179917	-0.6353553046	-0.319493
C	-0.0790412765	 1.1254148526	-0.082260214	 0.41267
C	-1.3192764222	 1.9906802659	 0.0653467579	-0.330424
C	-1.3642165858	 2.6944672148	 1.4311434492	-0.246451
C	-0.1000962446	 3.527042883	 1.5857337025	-0.048857
C	 1.0275060213	 3.081620906	 2.4937608293	-0.309488
C	 1.1404319922	 2.9061146073	 1.0088630686	 0.109304
O	 1.0673461664	 1.5920586263	 0.4944944011	-0.22496
H	-1.3081848744	 2.7425018201	-0.734005446	 0.131679
H	-2.1786528535	 1.3412626389	-0.1101430252	 0.134375
H	-2.2557819214	 3.3229485095	 1.506259177	 0.113493
H	-1.4415389347	 1.9461865552	 2.2270164331	 0.118661
H	-0.2151091383	 4.5950277898	 1.4306005989	 0.098728
H	 1.6456848963	 3.8340729554	 2.9701904324	 0.121146
H	 0.8704642338	 2.1809330949	 3.0780472498	 0.129582
H	 1.8499228214	 3.5079590285	 0.45059563	 0.110035
97.6098	172.7953	300.617	405.323	443.3228	461.419	532.2769	624.3997	706.3131	745.3131	786.4733	820.4542	900.9426	929.6023	958.1299	985.2928	1029.4934	1051.588	1077.4684	1114.5841	1126.6688	1161.7225	1178.1717	1223.6808	1237.2999	1266.9256	1337.208	1356.3282	1379.63	1404.8923	1468.1644	1478.1304	1501.1463	1855.6111	3038.3478	3050.023	3091.8216	3121.9459	3135.4051	3154.2529	3164.1374	3226.2071
O=C1CCC2CC2O1	O=C1CC[C@H]2C[C@H]2O1	
InChI=1S/C6H8O2/c7-6-2-1-4-3-5(4)8-6/h4-5H,1-3H2	InChI=1S/C6H8O2/c7-6-2-1-4-3-5(4)8-6/h4-5H,1-3H2/t4-,5+/m0/s1
