20
gdb 7489	3.8488	1.13458	1.05202	2.5257	70.67	-0.2438	0.0703	0.3141	1191.0163	0.175772	-386.112871	-386.103644	-386.102699	-386.147768	32.824	
C	 0.0232549935	 1.6296722009	 0.0978601152	-0.460023
C	-0.0041362527	 0.103167096	 0.0113055883	 0.289317
C	-1.4194011579	-0.4772852619	-0.0271199665	-0.244809
C	-2.2607306295	-0.0356170238	-1.2205633861	-0.083187
O	-3.4740888854	-0.7716601238	-1.1785264845	-0.417145
C	 0.9947523879	-0.4755399215	-1.0291942018	-0.108189
O	 1.868379747	-0.9664905382	 0.0048884887	-0.272625
C	 0.939559153	-0.5809088277	 1.0364935021	-0.115157
H	 1.0518244604	 1.9923779771	 0.1928015687	 0.123316
H	-0.4089363015	 2.0954810151	-0.7939854125	 0.11753
H	-0.5408997486	 1.9851245176	 0.9677653236	 0.116558
H	-1.3630721337	-1.572105174	-0.050542055	 0.109807
H	-1.9535440914	-0.2124985206	 0.8944303853	 0.10396
H	-2.4551983199	 1.0465443484	-1.1752583065	 0.088829
H	-1.7109931824	-0.228802718	-2.1573487223	 0.086735
H	-4.0297703994	-0.4784733498	-1.9064384509	 0.286049
H	 0.599193168	-1.2901696731	-1.6517876043	 0.093686
H	 1.4947686451	 0.2549731875	-1.6778572238	 0.095536
H	 1.4013704026	 0.0792594204	 1.7815810039	 0.095323
H	 0.510275085	-1.4525476505	 1.5490745285	 0.094487
31.587	88.974	97.7916	173.1655	248.5624	268.5251	327.3472	331.0281	349.6249	420.4521	449.4061	699.9	799.7127	852.7282	909.0168	935.6933	953.1939	977.32	1004.5433	1023.3572	1042.8555	1060.5833	1076.6561	1160.7866	1165.0389	1172.4507	1205.377	1257.3705	1265.2807	1292.8936	1313.8379	1331.1514	1354.9095	1385.1508	1414.6123	1462.8281	1486.4027	1496.518	1499.7027	1515.6893	1527.269	1537.1485	2958.1259	2992.849	2995.9747	3004.6125	3024.6426	3029.3554	3042.2172	3046.078	3070.2411	3094.1027	3100.2372	3830.1566
CC1(CCO)COC1	CC1(CCO)COC1	
InChI=1S/C6H12O2/c1-6(2-3-7)4-8-5-6/h7H,2-5H2,1H3	InChI=1S/C6H12O2/c1-6(2-3-7)4-8-5-6/h7H,2-5H2,1H3
