18
gdb 95655	2.29872	1.65016	1.06795	2.7611	68.12	-0.2504	0.0135	0.2639	1110.7121	0.149464	-476.262589	-476.254103	-476.253158	-476.295908	32.396	
O	-0.0106717888	 1.463004182	 0.0188712223	-0.448992
C	-0.0303063145	 0.0523245349	 0.0325793402	 0.136547
C	-1.4462486663	-0.5285085874	 0.023886292	-0.233063
C	-1.372116252	-2.0447506549	 0.2008569321	-0.171237
N	-0.4708735539	-2.6346787664	-0.7860274176	-0.314243
C	 0.4860129046	-1.9852235634	-1.4945025988	 0.383735
O	 1.0926663916	-2.4987431475	-2.422903433	-0.399187
C	 0.7743795926	-0.5176746398	-1.1442154461	 0.002419
O	 0.4437209779	 0.2567055322	-2.2936609164	-0.454364
H	-0.0481725598	 1.7235393354	-0.910557209	 0.297099
H	 0.4641882476	-0.256209698	 0.9637010014	 0.085949
H	-2.0326067605	-0.0861185847	 0.8333306039	 0.112994
H	-1.9337925524	-0.2819198971	-0.92610634	 0.11639
H	-1.0349713051	-2.2864664552	 1.2193485413	 0.115413
H	-2.3606427324	-2.4972228659	 0.075394105	 0.119772
H	-0.6250882803	-3.5903162097	-1.07500757	 0.251401
H	 1.8511386557	-0.4421277517	-0.935902909	 0.097957
H	 0.8148447461	-0.214970613	-3.0503783683	 0.30141
49.6246	132.9279	241.7652	261.9433	294.8046	333.1363	390.823	424.1363	433.8531	451.507	499.6632	586.7729	656.2189	664.0396	741.1673	821.854	896.6582	932.7949	961.0417	1019.4541	1092.8543	1103.0007	1115.2004	1138.137	1192.6342	1240.7601	1256.422	1296.6139	1324.6383	1349.9138	1356.9855	1394.306	1404.8182	1423.1419	1450.7086	1475.4206	1489.4701	1526.6833	1772.1396	2998.4904	3001.7506	3021.7937	3049.5896	3072.6061	3109.0426	3603.4077	3772.6706	3779.7902
OC1CCNC(=O)C1O	O[C@H]1CCNC(=O)[C@H]1O	
InChI=1S/C5H9NO3/c7-3-1-2-6-5(9)4(3)8/h3-4,7-8H,1-2H2,(H,6,9)	InChI=1S/C5H9NO3/c7-3-1-2-6-5(9)4(3)8/h3-4,7-8H,1-2H2,(H,6,9)/t3-,4-/m0/s1
