18
gdb 18598	3.39725	2.12198	1.73075	0.7767	66.81	-0.2443	0.0887	0.333	829.1056	0.155259	-384.935462	-384.928378	-384.927434	-384.966647	27.236	
C	 0.3026158692	 1.5801905724	 0.1434719571	-0.408
C	 0.1383673977	 0.0781016819	 0.096707157	 0.13091
O	 1.0438674991	-0.5880876126	-0.8281534895	-0.326011
C	 1.37968522	-1.5965794816	 0.1542090195	 0.105756
C	 2.8482109288	-1.5881579769	 0.5502266528	-0.244696
C	 2.9338636356	-0.3401420545	 1.441306949	-0.085294
O	 1.6593908268	-0.2291764121	 2.0858973215	-0.263942
C	 0.6604302706	-0.7981705942	 1.2635765755	 0.048331
H	 1.2894048464	 1.8647394953	 0.5135274699	 0.130309
H	 0.1651954129	 2.0023600549	-0.8568773827	 0.126078
H	-0.4504611825	 2.0190549824	 0.8062470132	 0.120456
H	-0.9003488227	-0.1841000901	-0.1551051604	 0.069277
H	 0.9856561681	-2.5806420299	-0.1187377041	 0.074294
H	 3.0780115064	-2.4946981536	 1.1202950694	 0.107357
H	 3.5104472525	-1.5407746607	-0.3174610717	 0.117542
H	 3.6935570803	-0.4076473474	 2.2244121029	 0.110351
H	 3.1384235581	 0.5510196958	 0.833808612	 0.104215
H	-0.0862342173	-1.2721818091	 1.9034467588	 0.083065
119.334	179.2071	197.1739	240.87	369.4492	378.3206	541.6484	621.7309	671.3505	787.6882	836.1853	857.5968	877.7319	909.8197	913.5493	971.5371	977.2984	1013.5755	1041.5095	1085.127	1118.3164	1144.6795	1156.436	1195.0979	1226.7707	1242.6229	1271.7609	1306.3248	1324.7923	1336.8634	1356.4467	1386.467	1399.8251	1414.2128	1469.7158	1484.3897	1487.6114	1521.3843	2986.9226	3020.1703	3044.5248	3048.4021	3062.5251	3092.0323	3097.0023	3110.0585	3117.0999	3137.5348
CC1OC2CCOC12	C[C@H]1O[C@H]2CCO[C@@H]12	
InChI=1S/C6H10O2/c1-4-6-5(8-4)2-3-7-6/h4-6H,2-3H2,1H3	InChI=1S/C6H10O2/c1-4-6-5(8-4)2-3-7-6/h4-6H,2-3H2,1H3/t4-,5+,6+/m1/s1
