23
gdb 112823	2.12973	1.33583	0.91485	1.3908	83.65	-0.2371	0.0754	0.3125	1382.2476	0.203653	-425.396165	-425.385662	-425.384718	-425.43172	37.87	
C	 0.1918397405	 1.7373860892	-0.7368011514	-0.238483
O	-0.3604359482	 0.4730344839	-1.0271085187	-0.240413
C	 0.6037722165	-0.5290839516	-1.1886677073	 0.146185
C	 1.3744186893	-1.0658124139	 0.048069952	-0.282535
C	 1.2315921105	-2.4917055373	-0.5594520943	 0.004346
C	 0.9894198281	-3.6736854158	 0.3653989098	-0.403397
C	 0.0477708834	-1.9658260334	-1.4255451301	 0.065048
O	-1.1667162235	-2.2224080941	-0.768189778	-0.241873
C	-2.3121350013	-1.8405475695	-1.5062976151	-0.235891
H	 0.760459076	 1.7302602354	 0.2047128471	 0.110984
H	 0.8613469509	 2.0824829146	-1.5408382256	 0.102643
H	-0.6381139344	 2.4415497069	-0.6412061082	 0.126338
H	 1.3083476272	-0.2608266589	-1.9937445216	 0.059158
H	 2.3794487143	-0.6855466349	 0.2442253931	 0.090112
H	 0.7589097294	-0.9638228318	 0.9465751769	 0.113717
H	 2.0808744304	-2.6978270941	-1.2200506564	 0.072009
H	 0.0979196656	-3.5113804498	 0.9750336923	 0.133317
H	 0.8430765615	-4.5993290345	-0.2017321043	 0.111504
H	 1.8459930012	-3.8213500941	 1.0320925327	 0.107646
H	-0.0054508269	-2.3026919171	-2.4715704579	 0.052038
H	-2.3390194698	-0.7606087308	-1.6839196975	 0.131241
H	-2.3510829924	-2.3639877224	-2.4748886679	 0.096877
H	-3.1829810084	-2.1342045461	-0.9144829699	 0.119428
76.6255	95.4494	139.8023	152.4574	180.3013	199.5462	211.2836	218.7451	305.6215	326.3548	378.2623	428.2718	487.7459	589.67	694.9962	767.5841	863.8646	892.1625	937.6312	955.7077	991.1537	1031.471	1089.484	1106.0501	1132.5253	1155.3083	1161.8405	1183.7356	1186.1582	1195.107	1220.3593	1235.3326	1245.2959	1272.1414	1273.9791	1310.6105	1364.4555	1378.8113	1400.4282	1408.9315	1475.6928	1480.8837	1483.7813	1485.881	1490.1832	1491.776	1501.2199	1509.4364	1516.4129	2956.819	2974.778	2979.4204	2988.893	3024.8079	3033.7548	3046.6075	3058.8317	3073.6939	3093.922	3114.7429	3117.8897	3118.5962	3129.8495
COC1CC(C)C1OC	CO[C@H]1C[C@@H](C)[C@H]1OC	
InChI=1S/C7H14O2/c1-5-4-6(8-2)7(5)9-3/h5-7H,4H2,1-3H3	InChI=1S/C7H14O2/c1-5-4-6(8-2)7(5)9-3/h5-7H,4H2,1-3H3/t5-,6+,7-/m1/s1
