20
gdb 119877	3.05298	1.05753	0.81905	1.3965	77.42	-0.2478	0.0286	0.2763	1440.2058	0.170894	-440.305519	-440.296027	-440.295083	-440.340548	34.241	
C	 0.0275151927	 1.4969192201	-0.1120991469	-0.393134
C	-0.0006462585	-0.0163659447	-0.0249040928	-0.040651
O	 0.6971748372	-0.5358744682	-1.1725867639	-0.283796
C	 0.7514191665	-1.8674798214	-1.2815521135	 0.396309
N	 0.2724250542	-2.7071745878	-0.4572645259	-0.315099
C	 0.5681376129	-4.0510172395	-0.9809636296	-0.16532
C	 1.0343617742	-3.8737043851	-2.4519357646	-0.238964
C	 1.4680431907	-2.4036430438	-2.50884866	 0.036577
O	 1.0666412029	-1.7838868773	-3.7165930877	-0.437967
H	 1.0558122808	 1.8697058371	-0.1131342133	 0.128468
H	-0.4667452273	 1.8454478975	-1.0235284159	 0.127941
H	-0.4938414737	 1.9276060761	 0.7477856179	 0.124757
H	 0.4902732393	-0.3874280587	 0.8808843739	 0.122438
H	-1.0215573721	-0.4122732318	-0.0266828232	 0.124123
H	 1.3473949585	-4.5127776378	-0.3609710819	 0.106583
H	-0.3183440569	-4.6870465415	-0.8944984062	 0.109701
H	 1.8207992538	-4.571637006	-2.7448238248	 0.104633
H	 0.1940447911	-3.9948509767	-3.1417494831	 0.123388
H	 2.5563474451	-2.2929869309	-2.3649373338	 0.080849
H	 1.1132365986	-0.8316251296	-3.5739043947	 0.289164
54.0032	96.3552	108.2171	139.3285	237.3534	259.7702	271.1019	327.1311	349.8964	419.2641	493.3878	599.0977	694.567	752.5111	808.1251	819.9871	878.2094	902.605	945.4786	992.4762	1046.5953	1061.732	1074.9428	1123.5029	1140.4851	1182.4417	1186.5653	1232.6783	1266.3095	1289.3325	1292.7008	1313.3737	1340.1359	1371.1304	1405.0418	1415.7716	1433.1459	1485.646	1487.0824	1496.8439	1511.	1520.7529	1727.3487	2954.6827	3023.5586	3045.0147	3047.0725	3063.445	3073.9789	3084.1848	3120.3942	3122.3585	3123.3864	3802.4064
CCOC1=NCCC1O	CCO[C]1[N]CC[C@H]1O	
InChI=1S/C6H11NO2/c1-2-9-6-5(8)3-4-7-6/h5,8H,2-4H2,1H3	InChI=1S/C6H11NO2/c1-2-9-6-5(8)3-4-7-6/h5,8H,2-4H2,1H3/t5-/m1/s1
