21
gdb 76432	2.91096	1.04794	0.96972	4.6526	83.57	-0.2302	0.0365	0.2666	1337.2464	0.180109	-383.264054	-383.253531	-383.252586	-383.299538	37.9	
C	 1.7177166748	-4.0321885944	 1.5371324534	-0.42351
C	 1.0578450808	-2.845342263	 0.8672800579	-0.047343
N	 0.3563540943	-1.7831183707	 1.5954319305	-0.119523
C	 0.2557516947	-1.7967901634	 3.0467613131	-0.321716
C	 1.6070945678	-1.449013617	 0.9168105393	 0.291521
C	 2.8809548531	-1.1154995656	 1.6701620068	-0.474214
C	 1.382212418	-0.5714679342	-0.3218217565	-0.382195
C	 1.2736202084	 0.8488782891	 0.013518867	 0.270375
N	 1.2009191356	 1.9656429014	 0.3023451463	-0.319239
H	 2.2971815169	-3.7692605114	 2.4230666159	 0.123205
H	 0.9623157849	-4.7663215167	 1.8379349085	 0.129871
H	 2.3940376689	-4.5276480304	 0.8325778798	 0.126802
H	 0.5355159301	-3.1293405523	-0.0485305823	 0.08335
H	 1.1222596618	-2.2059130892	 3.5840399632	 0.101149
H	 0.095719632	-0.7719714629	 3.3948552166	 0.137573
H	-0.622202835	-2.3866366069	 3.328377066	 0.127241
H	 3.7513745692	-1.2461556442	 1.0176795366	 0.123905
H	 2.8688965451	-0.07117901	 1.999221308	 0.149501
H	 3.0314132537	-1.7415076757	 2.5493780183	 0.124692
H	 2.2051850408	-0.6987581624	-1.0358101513	 0.143126
H	 0.4587953142	-0.8815651103	-0.8189042868	 0.155432
54.9418	109.823	138.9895	154.8191	162.3665	224.7473	236.9209	275.4622	286.1085	352.9275	390.7511	418.8018	466.4241	530.8662	579.5461	713.5491	757.2648	802.0017	915.4311	927.8004	965.3705	997.7749	1050.4345	1082.4124	1114.0439	1144.6657	1149.8926	1172.3484	1195.4842	1221.4905	1289.7489	1318.599	1374.847	1406.3866	1419.8726	1429.6802	1451.2069	1464.1763	1481.592	1489.3581	1490.7175	1504.8608	1506.714	1517.9468	2358.3639	3001.9268	3039.4683	3041.2989	3043.614	3073.8071	3074.7118	3095.9496	3097.8068	3099.7114	3107.2823	3135.7233	3149.9135
CC1N(C)C1(C)CC#N	C[C@H]1N(C)[C@]1(C)CC#N	
InChI=1S/C7H12N2/c1-6-7(2,4-5-8)9(6)3/h6H,4H2,1-3H3	InChI=1S/C7H12N2/c1-6-7(2,4-5-8)9(6)3/h6H,4H2,1-3H3/t6-,7-,9?/m1/s1
