18
gdb 82349	3.26551	1.34524	1.11353	3.6384	75.22	-0.2779	0.023	0.301	1101.7108	0.149483	-401.959187	-401.951286	-401.950341	-401.991648	30.78	
O	 0.0045705648	 1.4201337627	 0.0819371457	-0.422838
C	-0.004132724	 0.0073200297	 0.0223974735	 0.082325
C	-1.4369657901	-0.5046661144	-0.109363592	-0.051208
C	-2.3955794228	 0.3309213648	-0.9178955381	-0.271516
C	-1.7010043153	-0.8333327654	-1.5694495217	-0.042915
C	-0.4259014923	-0.5397980494	-2.3615908406	-0.248424
C	 0.6862801124	-0.5390349585	-1.2750683476	-0.151053
C	 1.8905003601	 0.2086334342	-1.6167713363	 0.250044
N	 2.8318594799	 0.8419179266	-1.842297018	-0.329843
H	 0.9213830119	 1.7204571664	 0.0739569137	 0.297974
H	 0.483814066	-0.418003429	 0.9095567204	 0.082281
H	-1.8255661377	-1.1255928982	 0.6884902947	 0.09135
H	-3.4504340605	 0.2258748966	-0.6889567708	 0.112531
H	-2.0853242479	 1.3348666266	-1.1821763847	 0.137845
H	-2.2842936294	-1.7058704617	-1.839708658	 0.090276
H	-0.2272212871	-1.2934978738	-3.1264474964	 0.118101
H	-0.4700326667	 0.4311414002	-2.8629501943	 0.130124
H	 0.9734684388	-1.5781465574	-1.0766888194	 0.124946
79.8444	138.9188	203.0499	250.2523	371.2254	381.5338	396.8665	452.5675	538.7713	579.4403	647.3471	705.0556	783.799	813.7012	818.587	894.1849	929.9917	941.9655	1007.8118	1022.6909	1034.4895	1058.4166	1074.2172	1081.9529	1111.4683	1144.6197	1193.4851	1215.5178	1244.8084	1281.0613	1291.7949	1322.9462	1345.6986	1355.1312	1385.2938	1425.6777	1485.5144	1501.928	2348.3964	3009.6748	3048.3847	3066.1431	3113.1447	3140.776	3172.5018	3183.6466	3231.6905	3789.2779
OC1C2CC2CC1C#N	O[C@H]1[C@H]2C[C@H]2C[C@H]1C#N	
InChI=1S/C7H9NO/c8-3-5-1-4-2-6(4)7(5)9/h4-7,9H,1-2H2	InChI=1S/C7H9NO/c8-3-5-1-4-2-6(4)7(5)9/h4-7,9H,1-2H2/t4-,5+,6+,7-/m1/s1
