17
gdb 81979	2.55341	1.42864	1.32098	1.3609	73.8	-0.246	0.04	0.2859	1049.8134	0.13328	-421.749398	-421.740682	-421.739738	-421.782357	33.424	
C	-0.0396986512	 1.5697417294	-0.0255608008	-0.452401
C	-0.0067845058	 0.0411530459	-0.002945951	 0.042416
C	-1.3154696077	-0.5441822169	 0.2252995804	 0.26965
C	-2.3932362943	-1.0464763003	 0.4085499056	-0.449002
C	 0.7298027872	-0.6509358048	-1.177306189	-0.004036
O	 2.0892825397	-0.2022008084	-1.1498871639	-0.266898
C	 1.7062070657	-1.2958348044	-0.2918843024	-0.010268
C	 1.1090251332	-0.6347733121	 0.9560755756	 0.078368
O	 1.9512580141	 0.2076853476	 1.6784636318	-0.423266
H	 0.9341703453	 1.9657569042	-0.3221507712	 0.122788
H	-0.790570014	 1.9286611001	-0.7350956937	 0.126337
H	-0.2874632418	 1.9587153394	 0.9653051707	 0.137765
H	-3.3484791739	-1.4796898072	 0.5747210099	 0.19609
H	 0.3223742225	-0.9711205657	-2.1286984958	 0.116617
H	 2.2632121368	-2.219812694	-0.3933407875	 0.111668
H	 0.6472761709	-1.3329000638	 1.6552613851	 0.109123
H	 2.4882616933	 0.6811510713	 1.0301459462	 0.295048
108.6032	148.519	168.2808	190.7975	241.2399	277.176	394.6545	471.35	490.0462	492.7126	543.7821	612.4861	620.1007	640.866	668.8429	782.8567	849.8993	861.8752	882.6158	911.7606	947.2243	1002.3245	1055.8658	1118.1983	1121.8723	1160.4029	1183.9857	1224.2567	1243.8968	1273.1934	1304.2346	1373.348	1405.8346	1435.4164	1483.9733	1497.3959	2228.5167	3049.1067	3115.4566	3122.2759	3132.2645	3185.9179	3201.9212	3501.1438	3776.7512
CC1(C#C)C2OC2C1O	C[C@@]1(C#C)[C@H]2O[C@H]2[C@H]1O	
InChI=1S/C7H8O2/c1-3-7(2)5(8)4-6(7)9-4/h1,4-6,8H,2H3	InChI=1S/C7H8O2/c1-3-7(2)5(8)4-6(7)9-4/h1,4-6,8H,2H3/t4-,5+,6-,7-/m0/s1
