22
gdb 56154	3.434	0.83718	0.78551	1.2835	84.56	-0.2577	0.0363	0.294	1588.6916	0.192391	-404.355382	-404.345042	-404.344098	-404.391529	37.603	
C	 0.3963247624	 1.3679168141	-0.1065739854	-0.460274
C	 0.1104725259	-0.1006705499	 0.0848422403	 0.400729
N	-0.1194911021	-0.7293708872	 1.1650893833	-0.521895
O	 0.1260139078	-0.7332504646	-1.1044170111	-0.245621
C	-0.1467222319	-2.1460950635	-1.0917596891	-0.123553
C	-0.1017642239	-2.6426273167	-2.5139820744	 0.363905
C	-1.1510950079	-2.0508771228	-3.4350409979	-0.463248
C	 1.2533528874	-2.9860496961	-3.0848062392	-0.289958
C	 0.295593341	-4.0881354239	-2.7014922457	-0.313851
H	 0.3971851868	 1.895045033	 0.8487715518	 0.124814
H	 1.3676866961	 1.5025979567	-0.5920003028	 0.145356
H	-0.3566749093	 1.815760991	-0.7623253361	 0.144612
H	-0.0904281614	-0.0939018943	 1.9590495324	 0.217078
H	 0.595133984	-2.6481707751	-0.4622582408	 0.110782
H	-1.1285930453	-2.3111203775	-0.6333157717	 0.115143
H	-1.0516931373	-0.9624411934	-3.4884113706	 0.127349
H	-1.0568145992	-2.4508767259	-4.4491260794	 0.110167
H	-2.1628052358	-2.278719323	-3.0782861661	 0.113045
H	 1.4217578033	-2.7984548363	-4.1397564941	 0.109452
H	 2.1270975133	-2.8287706481	-2.4614796249	 0.112481
H	 0.5233566336	-4.6813882319	-1.8218903849	 0.112902
H	-0.1924926074	-4.6438790146	-3.4949956836	 0.110583
47.2094	59.4398	114.1454	128.6297	174.4826	218.9858	247.7356	304.0347	349.7928	371.6514	407.9027	506.8177	575.2472	603.7901	735.6355	787.4512	852.2716	870.7572	905.516	928.9173	951.3	959.7551	984.538	1014.9558	1048.7487	1067.5196	1069.1665	1080.2146	1085.0138	1115.0826	1134.3059	1188.9029	1249.0926	1326.3184	1355.4995	1368.2456	1399.4367	1413.3315	1438.8438	1470.0166	1472.0465	1482.2658	1486.8126	1500.3971	1505.6338	1514.7293	1723.6355	3026.8481	3037.8321	3048.2348	3081.9045	3091.005	3109.269	3111.66	3128.5808	3133.915	3142.8571	3206.6492	3221.0423	3513.9688
CC(=N)OCC1(C)CC1	C[C]([NH])OCC1(C)CC1	
InChI=1S/C7H13NO/c1-6(8)9-5-7(2)3-4-7/h8H,3-5H2,1-2H3	InChI=1S/C7H13NO/c1-6(8)9-5-7(2)3-4-7/h8H,3-5H2,1-2H3
