20
gdb 81547	2.96869	1.58237	1.19493	1.9853	80.09	-0.2119	0.0832	0.2951	1082.9525	0.171097	-403.046737	-403.038708	-403.037764	-403.079255	31.398	
C	-0.0777692783	 1.5075620361	-0.1306251088	-0.33535
N	-0.0700614203	 0.0476162002	-0.0558262122	-0.100314
C	-1.1222030666	-0.6906736139	 0.7479110932	-0.117821
C	-0.1607554755	-1.9098738279	 0.6802265467	-0.219216
C	 0.7000891436	-0.6662119623	 1.037536411	-0.117821
C	-0.4041518215	-0.3078919094	 2.07631041	 0.524521
C	-0.5573406564	 0.9653257416	 2.9328296941	-0.379539
C	-0.7308313711	-0.0106547831	 4.1074609163	-0.095566
O	-0.5765989805	-1.1468195435	 3.2321565809	-0.324581
H	 0.8786275416	 1.829102434	-0.5572728638	 0.121102
H	-0.862940658	 1.8057241087	-0.8339833831	 0.121102
H	-0.2332815322	 2.0653886232	 0.8009996387	 0.102516
H	-2.1838317778	-0.6435649102	 0.49701548	 0.075206
H	-0.2725559082	-2.6729236887	 1.4481420161	 0.121823
H	 0.0039541875	-2.3015231058	-0.3230573613	 0.10125
H	 1.785581976	-0.5902562795	 1.127857839	 0.075209
H	 0.3268106056	 1.6030421018	 2.9818630605	 0.118886
H	-1.4296073534	 1.5793828092	 2.7028332205	 0.118886
H	 0.0505110175	 0.0204394625	 4.875708657	 0.104853
H	-1.712248152	-0.003171453	 4.5957538651	 0.104855
86.4464	144.4523	192.1034	219.544	313.1299	334.5899	380.1098	453.4222	542.1752	647.4957	741.0576	757.8421	791.2388	824.4013	867.5408	891.6251	897.4547	982.1196	1006.201	1025.0524	1027.9832	1063.7444	1077.6554	1092.3556	1136.6188	1148.1294	1166.8694	1171.246	1171.6615	1191.4171	1210.5405	1218.1219	1233.2423	1256.6536	1269.8888	1317.9343	1354.9783	1444.58	1482.9394	1486.9328	1492.4537	1503.7405	1533.1522	3016.9901	3022.193	3062.9665	3071.9754	3079.9044	3091.1942	3091.4675	3093.5802	3106.4852	3133.1266	3182.1753
CN1C2CC1C21CCO1	CN1[C@H]2C[C@@H]1[C@]12CCO1	
InChI=1S/C7H11NO/c1-8-5-4-6(8)7(5)2-3-9-7/h5-6H,2-4H2,1H3	InChI=1S/C7H11NO/c1-8-5-4-6(8)7(5)2-3-9-7/h5-6H,2-4H2,1H3/t5-,6+,7+
