16
gdb 28230	4.73595	1.23749	0.99696	1.617	73.44	-0.1682	0.0384	0.2065	1142.853	0.12642	-437.894214	-437.886607	-437.885663	-437.926307	28.883	
N	 0.1041423159	 1.3399647031	 0.1104370364	-0.587738
C	-0.0574668127	-0.035514294	 0.0350483804	 0.395829
C	-1.1750749321	-0.8346473655	-0.021337368	-0.469945
C	-0.6400784258	-2.1539265678	 0.0886398183	 0.379574
C	 0.6968274622	-2.0705459323	 0.2081817359	 0.164651
C	 1.3517519833	-3.3959635784	 0.0427056483	-0.365766
C	 0.0540965178	-4.2648997244	 0.2135535457	-0.085228
O	-1.1186946818	-3.4237139439	-0.0155119399	-0.288479
O	 1.0937881931	-0.7519978874	 0.150297866	-0.221183
H	 0.9534912369	 1.6583699649	-0.339881224	 0.255981
H	-0.6981866661	 1.8454460932	-0.2388208716	 0.256246
H	-2.197659753	-0.5090446383	-0.1123604688	 0.106226
H	 1.8205573566	-3.5376276943	-0.9426555298	 0.109167
H	 2.0941744963	-3.6678606218	 0.8010252993	 0.114243
H	-0.002917905	-5.102684396	-0.4834578814	 0.118698
H	-0.0087304255	-4.6444567371	 1.2390966134	 0.117724
120.0617	143.3602	182.2248	243.182	304.1447	343.5317	503.5206	532.393	639.7684	673.8811	703.3951	711.4923	732.8177	739.8941	835.4045	855.0435	924.2136	968.8247	983.8693	1069.102	1091.3662	1118.8708	1182.9252	1186.4445	1239.7631	1272.0289	1331.6823	1359.7725	1400.0987	1485.8957	1506.7935	1517.716	1594.344	1650.9767	1692.2086	2982.7922	3038.7196	3054.4646	3119.0029	3269.3715	3540.9485	3645.6133
NC1=CC2=C(CCO2)O1	Nc1cc2c(CCO2)o1	
InChI=1S/C6H7NO2/c7-6-3-5-4(9-6)1-2-8-5/h3H,1-2,7H2	InChI=1S/C6H7NO2/c7-6-3-5-4(9-6)1-2-8-5/h3H,1-2,7H2
