21
gdb 79065	2.11712	1.95109	1.65362	0.3834	85.95	-0.2169	0.0192	0.2361	996.5155	0.183088	-349.935839	-349.927856	-349.926911	-349.967552	32.916	
C	-0.0225058168	 1.612577913	-0.0257128351	-0.418555
C	 0.1067170424	 0.0950889925	-0.0106867156	 0.007898
C	 0.7122589629	-0.6566702341	-1.1893340779	-0.097618
C	 2.2624663271	-0.7642920696	-1.1110452618	-0.083678
C	 3.0043173278	 0.1518887613	-0.2003100857	-0.092572
C	 2.4065692901	 0.1661093404	 0.9955746674	-0.136294
C	 1.1447812966	-0.6692338222	 0.9434044776	 0.262898
C	 0.6103379697	-1.204731537	 2.256207196	-0.502686
C	 1.3822713643	-1.6427151345	-0.2667845391	-0.115195
H	 0.9333712368	 2.0983096574	-0.2346574219	 0.119315
H	-0.7330088504	 1.921895837	-0.8010274217	 0.108789
H	-0.3971801259	 1.9919227318	 0.9322700952	 0.106641
H	-0.8720578188	-0.3543173548	 0.1943844075	 0.072224
H	 0.222231252	-0.8402607962	-2.1392122309	 0.080065
H	 2.7288248957	-1.170983429	-2.0013072022	 0.080554
H	 3.8643798352	 0.737417249	-0.5019350534	 0.093179
H	 2.6664115151	 0.7957173997	 1.8388298302	 0.088981
H	 0.3421975524	-0.3880926538	 2.9365235621	 0.115286
H	-0.2851924099	-1.8161180256	 2.1019484005	 0.112815
H	 1.3579928134	-1.8254764121	 2.7627973317	 0.117364
H	 1.3756199504	-2.726769363	-0.255793503	 0.080589
175.3648	186.5271	213.1365	249.2277	281.641	293.174	438.3873	488.4711	568.1408	594.4003	684.1105	718.8362	744.4531	763.7806	796.2031	818.7063	826.709	893.8705	925.5222	929.9052	960.5658	974.4382	1007.2912	1032.4622	1055.9097	1082.0747	1104.6709	1112.3993	1127.7893	1130.7684	1197.706	1211.819	1233.3109	1274.6314	1314.502	1362.4119	1375.4562	1390.5453	1405.1878	1411.4436	1491.0827	1491.3283	1495.4964	1500.34	1644.1605	3022.4243	3025.5137	3035.2331	3083.3023	3087.3235	3092.7699	3121.2488	3163.9436	3169.8117	3182.7216	3188.5597	3214.9803
CC1C2C3C=CC1(C)C23	C[C@H]1[C@H]2[C@H]3C=C[C@]1(C)[C@@H]23	
InChI=1S/C9H12/c1-5-7-6-3-4-9(5,2)8(6)7/h3-8H,1-2H3	InChI=1S/C9H12/c1-5-7-6-3-4-9(5,2)8(6)7/h3-8H,1-2H3/t5-,6+,7-,8+,9-/m0/s1
