20
gdb 118926	2.48752	1.13021	1.02838	4.2931	75.39	-0.2335	0.0114	0.2449	1306.0947	0.169753	-440.302546	-440.292786	-440.291841	-440.337508	35.223	
C	 0.0704255249	 1.5623888551	 0.0344997519	-0.38612
C	 0.0054367888	 0.0380023332	 0.0491361976	-0.12875
N	 0.5176683842	-0.501083998	-1.2167959462	-0.34125
C	 0.6455860204	-1.9507694412	-1.291561887	 0.102304
C	-0.6462830185	-2.7610457264	-1.1447995247	-0.459118
C	 1.5859802837	-2.3961419389	-2.4373056355	-0.111904
O	 2.5845900301	-2.8478664157	-1.4654952637	-0.240061
C	 1.8101586508	-2.4550127548	-0.4098181857	 0.472213
O	 2.0627500526	-2.5329060803	 0.7503978983	-0.335743
H	 1.0962489198	 1.9029376392	-0.1302753274	 0.130351
H	-0.556146276	 1.9782052395	-0.7635842584	 0.108251
H	-0.288134837	 1.972144459	 0.9833418701	 0.118407
H	 0.6328752956	-0.3580379921	 0.8532541383	 0.141561
H	-1.0277659387	-0.2817752093	 0.2672207629	 0.082641
H	-0.0688119719	-0.1799416132	-1.9833183547	 0.21355
H	-1.3665514089	-2.4679007793	-1.9171662688	 0.116752
H	-0.4591400631	-3.8350965613	-1.2423658015	 0.128907
H	-1.1026273967	-2.5898023008	-0.1667192008	 0.143826
H	 1.2452864209	-3.2308776066	-3.0532693144	 0.118187
H	 1.9824232491	-1.5821328879	-3.0457017304	 0.125997
70.6788	93.1605	113.626	166.5495	204.0956	233.6379	251.7086	302.7114	331.1647	391.7089	421.1273	557.7537	703.3585	728.6871	772.3639	780.59	821.7864	889.6131	913.5183	950.5455	967.4751	986.1623	1076.1558	1110.689	1134.1615	1143.3735	1161.2398	1202.9994	1223.0017	1267.4947	1308.8255	1356.3858	1386.1682	1405.9443	1414.5841	1474.4064	1486.6955	1491.8021	1498.6486	1503.9672	1507.9631	1526.4642	1927.7647	2953.9729	3032.0623	3032.7767	3073.4537	3081.5937	3100.8779	3103.3962	3123.2448	3124.0885	3143.0331	3483.6798
CCNC1(C)COC1=O	CCN[C@@]1(C)COC1=O	
InChI=1S/C6H11NO2/c1-3-7-6(2)4-9-5(6)8/h7H,3-4H2,1-2H3	InChI=1S/C6H11NO2/c1-3-7-6(2)4-9-5(6)8/h7H,3-4H2,1-2H3/t6-/m0/s1
