16
gdb 30568	6.33672	0.76078	0.69439	1.9946	76.43	-0.2257	0.0048	0.2305	1581.4352	0.12371	-437.894947	-437.886621	-437.885677	-437.928839	29.885	
C	-0.1439463201	 1.3848407755	 0.0148690303	-0.315668
N	 0.4071128019	 0.0523495652	 0.1518436041	-0.195056
C	 0.5273882626	-0.6327943375	-0.8910137541	 0.105253
O	 0.9835910679	-1.9144991786	-0.8142140691	-0.230417
C	 1.3748723483	-2.5170669441	-1.9741469086	 0.305167
C	 2.001626637	-1.9818344078	-3.0605764861	-0.12606
O	 2.2240177792	-2.9637954693	-3.9794719838	-0.138944
C	 1.7443782722	-4.1206969924	-3.4589954551	 0.023693
C	 1.2080451097	-3.9149633758	-2.2291070358	-0.300107
H	 0.5643663774	 2.1147320901	 0.4219503219	 0.13244
H	-0.3810811242	 1.6692803777	-1.0228718212	 0.099802
H	-1.0598055289	 1.4636535691	 0.6111814123	 0.133624
H	 0.2736706389	-0.318334953	-1.9129763598	 0.091419
H	 2.3561702679	-0.9977313295	-3.3117220924	 0.142829
H	 1.8551567465	-4.9942546302	-4.0796370691	 0.143898
H	 0.7499982238	-4.6401635895	-1.5767334635	 0.128127
52.2373	89.7107	126.8249	209.2945	294.2425	307.148	366.7363	403.403	529.9921	616.1871	659.7421	713.8681	766.8571	776.1255	832.6626	884.2714	985.0445	1004.8818	1047.2753	1065.1596	1094.7602	1140.425	1142.5846	1197.9068	1222.5423	1261.2442	1318.9242	1385.7562	1418.6947	1449.8653	1480.7839	1503.8095	1542.0274	1634.4884	1781.003	2974.1553	3023.9039	3064.4755	3083.9735	3267.5442	3288.536	3293.2684
CN=COC1=COC=C1	CN=COc1cocc1	
InChI=1S/C6H7NO2/c1-7-5-9-6-2-3-8-4-6/h2-5H,1H3	InChI=1S/C6H7NO2/c1-7-5-9-6-2-3-8-4-6/h2-5H,1H3
