16
gdb 69091	2.57296	1.64865	1.24767	3.9419	69.57	-0.2515	0.0064	0.2579	1017.6697	0.12356	-437.875854	-437.867781	-437.866837	-437.908334	30.246	
C	-0.1388761759	 1.5780698575	-0.0094919223	-0.463599
C	 0.1291013835	 0.103425285	-0.0010083217	 0.357058
C	-0.6749736352	-0.8866441464	 0.8104160368	-0.409171
C	 0.8124407837	-0.6844943688	 1.1022591659	 0.23713
O	 1.7152629506	-1.5626036602	 0.4832285321	-0.291075
C	 1.378957606	-1.5734506639	-0.8987143132	-0.004565
O	 0.7157378912	-0.3609410362	-1.1910513381	-0.282795
C	 1.2735806919	-0.1225552511	 2.3363384941	 0.247431
N	 1.601191609	 0.361499217	 3.3343946871	-0.346275
H	 0.7640674296	 2.1240375344	-0.2951656505	 0.144761
H	-0.9314998863	 1.8170120038	-0.7250505354	 0.139849
H	-0.4545116706	 1.9161938672	 0.9803047604	 0.141712
H	-1.3670626088	-0.469923408	 1.5335177084	 0.146216
H	-0.9769306031	-1.8367647008	 0.3846713901	 0.139186
H	 2.295382736	-1.6386239714	-1.4914589944	 0.13748
H	 0.7266338986	-2.433219688	-1.1159435494	 0.106656
123.6328	142.2227	187.5992	209.1778	252.563	330.0844	397.7582	449.1269	511.8512	555.4891	582.8316	687.3219	729.7661	774.3855	859.1865	907.0084	941.8228	953.1208	994.0821	1057.6025	1083.4812	1109.4966	1136.1307	1162.3771	1222.8947	1247.8625	1289.2796	1375.5603	1424.2653	1432.6903	1467.2467	1476.0493	1498.9028	1552.4749	2355.9197	2981.9677	3048.2468	3093.4004	3118.7928	3133.918	3143.2276	3235.9523
CC12CC1(OCO2)C#N	C[C@]12C[C@]1(OCO2)C#N	
InChI=1S/C6H7NO2/c1-5-2-6(5,3-7)9-4-8-5/h2,4H2,1H3	InChI=1S/C6H7NO2/c1-5-2-6(5,3-7)9-4-8-5/h2,4H2,1H3/t5-,6-/m0/s1
