23
gdb 59559	3.17481	1.23076	1.06978	1.4959	85.26	-0.2346	0.0894	0.3239	1253.1307	0.206739	-388.279194	-388.270542	-388.269598	-388.312324	34.466	
C	-0.0581841261	 1.4983122231	 0.1104042414	-0.389492
C	 0.0443649295	-0.0227549113	-0.0692030241	 0.004078
C	 0.8203431037	-0.3798529592	-1.344800569	-0.396472
C	 0.6988491572	-0.6568594757	 1.1611503488	 0.165947
O	-0.0183818051	-0.3122323616	 2.3791518176	-0.303373
C	-0.2569768331	-1.6019562103	 2.9659224986	 0.117752
C	 1.0978945258	-2.3302243427	 2.7934680443	-0.238795
C	 0.6886094237	-2.193022707	 1.2907854705	-0.087823
C	-0.7745529273	-2.4496347681	 1.779875055	-0.23841
H	 0.9386224002	 1.9514343408	 0.177012259	 0.10695
H	-0.5756009599	 1.957797999	-0.7380404917	 0.104019
H	-0.6016161949	 1.7437405324	 1.0255381671	 0.134191
H	-0.9734685325	-0.4226835392	-0.1580329988	 0.071727
H	 1.8610885872	-0.0399246923	-1.2802512025	 0.112616
H	 0.831764211	-1.4580171851	-1.5323497615	 0.112086
H	 0.3705353768	 0.1038912209	-2.2175813563	 0.113302
H	 1.7267711131	-0.2703645173	 1.2420298207	 0.065111
H	-0.7792580705	-1.4828332888	 3.9139742894	 0.076786
H	 1.9935904313	-1.8063091282	 3.1363930598	 0.097794
H	 1.0877787244	-3.3634330445	 3.1447353755	 0.098395
H	 1.1603338901	-2.7745484229	 0.5005835762	 0.073865
H	-0.9462284924	-3.4957509866	 2.038762823	 0.099002
H	-1.6098990122	-2.0508877954	 1.2015043171	 0.100743
70.4307	163.9524	179.8935	217.6694	242.1577	310.0085	396.0015	408.7574	474.3923	496.6421	533.2915	672.741	815.9632	842.419	855.1284	865.1461	878.8918	898.0382	928.2995	941.7816	963.9339	985.2744	989.7216	1015.6613	1039.7477	1051.2457	1093.5195	1102.9191	1134.3736	1139.6734	1174.6458	1201.0671	1212.754	1243.8272	1250.2537	1285.7429	1296.567	1317.3401	1335.0437	1351.7074	1396.5918	1407.6759	1422.9119	1476.5822	1489.7842	1490.3116	1503.2954	1512.9967	1513.6003	2977.6418	3025.0004	3025.6068	3031.8211	3065.7703	3076.6692	3088.4862	3095.2452	3102.5893	3127.3471	3131.8315	3132.6067	3136.4618	3140.3843
CC(C)C1OC2CC1C2	CC(C)[C@H]1O[C@@H]2C[C@H]1C2	
InChI=1S/C8H14O/c1-5(2)8-6-3-7(4-6)9-8/h5-8H,3-4H2,1-2H3	InChI=1S/C8H14O/c1-5(2)8-6-3-7(4-6)9-8/h5-8H,3-4H2,1-2H3/t6-,7+,8-/m1/s1
