19
gdb 133657	2.37834	1.17202	1.11625	2.3901	64.58	-0.2182	0.0713	0.2896	1209.2604	0.153774	-550.706847	-550.696793	-550.695849	-550.742013	36.264	
C	 0.2529635058	 0.7864855342	 1.2103502663	-0.419662
C	 0.1045243997	-0.4129921106	 0.2567043697	-0.112112
N	-1.256505394	-0.8363838129	-0.0571373772	-0.055633
C	-1.8148056256	-1.7522465133	 0.9233639932	-0.325559
C	-2.1958771003	 0.2224707208	-0.4052255933	-0.337934
C	 0.9031182823	-0.1741346333	-1.0313498232	 0.295573
F	 2.1989681271	 0.0452603037	-0.7374098448	-0.08571
F	 0.8513409967	-1.2228550532	-1.8541766471	-0.066353
F	 0.4739941397	 0.9019573534	-1.7196454403	-0.08709
H	 1.3039355088	 0.9492974981	 1.459148993	 0.134569
H	-0.1343879991	 1.7038262442	 0.7603155786	 0.13514
H	-0.2938707664	 0.5991853623	 2.1381201726	 0.124829
H	 0.6013663291	-1.2776438561	 0.7097593611	 0.106217
H	-2.0172059247	-1.2886439555	 1.9074596072	 0.094733
H	-2.7642429265	-2.1468438447	 0.5473539496	 0.123536
H	-1.1384654255	-2.598536613	 1.0772202001	 0.121891
H	-1.7667600181	 0.8769237391	-1.1640716218	 0.136792
H	-3.0988335137	-0.2329012853	-0.8244698584	 0.121511
H	-2.5057376154	 0.8419064721	 0.4554934245	 0.095261
48.6173	97.5286	170.2651	210.093	224.9205	241.1338	251.0863	267.7689	325.9817	349.9195	377.9203	445.8781	512.7934	556.8308	574.8209	689.9069	785.327	836.4943	963.8475	1020.7967	1073.8974	1093.693	1110.705	1124.1842	1148.7089	1185.9533	1220.3676	1247.7306	1281.2814	1317.5963	1358.4206	1397.338	1415.5837	1448.7148	1478.1191	1486.8603	1489.0212	1497.8025	1504.8165	1511.5495	1521.3799	2927.6172	2946.7537	3054.759	3056.9544	3060.6055	3070.9094	3104.033	3127.7475	3135.1346	3148.638
CC(N(C)C)C(F)(F)F	C[C@@H](N(C)C)C(F)(F)F	
InChI=1S/C5H10F3N/c1-4(9(2)3)5(6,7)8/h4H,1-3H3	InChI=1S/C5H10F3N/c1-4(9(2)3)5(6,7)8/h4H,1-3H3/t4-/m1/s1
