15
gdb 45013	2.55937	1.79331	1.1611	1.8647	68.39	-0.2545	-0.0139	0.2406	1008.9968	0.114711	-453.978846	-453.971662	-453.970717	-454.010836	27.69	
N	-0.0789135802	 1.3013978409	-0.5621594401	-0.535116
C	-0.0148564351	 0.1622744233	-0.0157544492	 0.466874
N	 1.1519455636	-0.5755395326	 0.2271964161	-0.414436
C	 1.2855883606	-1.8459499654	 0.7780945561	 0.428436
O	 2.3366389785	-2.4437185248	 0.7277141803	-0.356863
C	 0.0470463472	-2.3544834099	 1.4164653731	-0.18803
C	-0.5739927809	-1.5102445444	 2.5357615862	-0.330534
C	-1.2037501108	-1.5492546176	 1.1869164722	 0.121873
O	-1.1774962227	-0.4273284705	 0.3442796601	-0.225709
H	 0.8406178508	 1.6427486454	-0.8307070738	 0.219335
H	 2.0055400949	-0.2042650324	-0.1657502703	 0.262873
H	-0.0042918534	-3.4329952232	 1.4895758007	 0.129401
H	-1.0573445349	-2.0432162427	 3.3460311305	 0.140791
H	-0.0469890408	-0.6087865051	 2.827748293	 0.148524
H	-2.1447244169	-2.066950951	 1.0507275153	 0.13258
84.7172	124.1477	219.2764	372.2997	394.8781	508.7885	515.8733	524.8377	598.0446	700.546	704.2229	761.3277	782.9141	791.6059	820.8004	867.5517	940.3378	996.3984	1032.9528	1050.5201	1063.2141	1100.7352	1122.3997	1175.9121	1248.1775	1272.8353	1353.7005	1391.0252	1415.7925	1436.9274	1480.8011	1755.2084	1815.7378	3145.0661	3197.7849	3205.8906	3238.2251	3528.0861	3612.5538
N=C1NC(=O)C2CC2O1	[NH][C]1NC(=O)[C@H]2C[C@H]2O1	
InChI=1S/C5H6N2O2/c6-5-7-4(8)2-1-3(2)9-5/h2-3H,1H2,(H2,6,7,8)	InChI=1S/C5H6N2O2/c6-5-7-4(8)2-1-3(2)9-5/h2-3H,1H2,(H2,6,7,8)/t2-,3+/m0/s1
