17
gdb 57111	3.03015	1.20608	0.93765	1.6312	70.08	-0.2527	0.0268	0.2795	1225.7721	0.134498	-458.912966	-458.903955	-458.903011	-458.947371	32.387	
O	-0.184997242	 1.3527171501	 0.049456051	-0.421849
C	 0.0366533353	-0.0558967789	 0.070334758	-0.069837
C	 0.6198357839	-0.5334427795	-1.1811844886	 0.293905
C	 1.1407660512	-0.8635663452	-2.2128676517	-0.435098
C	 0.9081163249	-0.4357832843	 1.2899446673	 0.096751
C	 0.2142366753	-0.0907918895	 2.6180226846	-0.136121
O	-0.4542139901	-1.3032223331	 2.9436448828	-0.23604
C	 0.4346110358	-2.3069278639	 2.534903513	 0.02479
O	 1.0670274156	-1.8498459036	 1.348835417	-0.265933
H	 0.5687220766	 1.7594671826	-0.3919349651	 0.289773
H	-0.9489046761	-0.512838597	 0.2197648743	 0.128347
H	 1.5859168577	-1.1763954367	-3.1251266167	 0.20193
H	 1.8893646891	 0.044608038	 1.1930766828	 0.083544
H	 0.9503185452	 0.173125742	 3.3915857839	 0.095878
H	-0.5209392248	 0.7090300806	 2.5254723663	 0.140996
H	 1.2000792151	-2.4991424327	 3.3079889218	 0.087499
H	-0.1298920928	-3.220813039	 2.3265546891	 0.121465
61.4739	77.0996	124.2907	208.7829	235.0373	258.3398	281.5529	357.2679	425.2471	503.0477	588.0751	633.6217	674.5376	735.8481	761.8338	884.6659	952.9873	960.3735	991.3066	1020.3731	1054.6817	1073.225	1120.5684	1135.0762	1178.1347	1202.3056	1244.8929	1267.7938	1280.6065	1311.3447	1355.392	1381.6989	1417.5611	1430.8645	1512.4404	1545.0433	2235.328	2942.2575	2997.3085	3032.9672	3052.0885	3081.4404	3135.0364	3503.0375	3810.7239
OC(C#C)C1COCO1	O[C@@H](C#C)[C@H]1COCO1	
InChI=1S/C6H8O3/c1-2-5(7)6-3-8-4-9-6/h1,5-7H,3-4H2	InChI=1S/C6H8O3/c1-2-5(7)6-3-8-4-9-6/h1,5-7H,3-4H2/t5-,6+/m0/s1
