16
gdb 77843	2.17482	1.5297	1.41601	5.1515	73.4	-0.2567	-0.0356	0.2211	1025.5782	0.123803	-400.751703	-400.743533	-400.742588	-400.784565	30.231	
C	-0.2615150492	 1.5968261592	 0.0071248861	-0.435404
C	 0.0382775639	 0.1043399859	-0.0317900753	-0.112239
C	 0.7038828883	-0.5886990834	-1.2393876167	-0.092828
C	 2.1610720545	-0.2517593035	-1.3897157308	-0.17861
C	 2.7723057904	 1.0127494997	-1.0618556397	 0.308821
N	 3.2904096183	 2.019131098	-0.8240708052	-0.338967
C	 1.7420553496	-1.2781291184	-0.3353925465	-0.195659
C	 1.1375247672	-0.5542850437	 0.8508159371	 0.402733
O	 1.3304249717	-0.5971541114	 2.0285774852	-0.296439
H	 0.6119128017	 2.2021532832	-0.2394434707	 0.159943
H	-1.0647747505	 1.8477369159	-0.6929395047	 0.122589
H	-0.5925889247	 1.8764182362	 1.0118188793	 0.140446
H	-0.8739699288	-0.4584125763	 0.2113713359	 0.119506
H	 0.1698176139	-1.0346185583	-2.0684858259	 0.118047
H	 2.6281888434	-0.7191449782	-2.2526002101	 0.150168
H	 2.1570453804	-2.2779382749	-0.3572425081	 0.127893
87.0908	141.7436	179.9415	188.1053	247.4466	265.0028	434.9254	463.9977	526.9801	614.9092	664.8783	685.9298	735.7694	795.2341	826.4335	907.8692	921.7573	938.2136	985.7212	1053.2836	1063.1301	1079.809	1109.1967	1154.1594	1166.0264	1212.4	1273.7678	1317.221	1349.0207	1405.3928	1414.2779	1496.9991	1501.9728	1898.6387	2353.326	3020.8893	3047.1081	3109.8141	3146.7046	3152.2724	3198.141	3207.7306
CC1C2C(C#N)C2C1=O	C[C@H]1[C@H]2[C@@H](C#N)[C@H]2C1=O	
InChI=1S/C7H7NO/c1-3-5-4(2-8)6(5)7(3)9/h3-6H,1H3	InChI=1S/C7H7NO/c1-3-5-4(2-8)6(5)7(3)9/h3-6H,1H3/t3-,4+,5-,6+/m0/s1
