15
gdb 30540	6.59675	0.79866	0.71386	9.4125	92.68	-0.1563	-0.0502	0.1061	1487.6996	0.114413	-450.130112	-450.121797	-450.120852	-450.163475	30.656	
N	-0.1281750755	 1.4591151904	 0.0921254897	-0.509856
C	 0.0255003909	 0.1131776433	-0.0883606662	 0.10876
N	-0.9480228158	-0.7486372686	 0.0338562754	-0.300279
H	-1.9016677758	-0.4017652085	 0.1198348057	 0.27658
C	-0.9398420041	-2.1372095089	 0.0573883854	 0.29408
C	 0.0970457972	-3.0673379794	 0.147307712	-0.160452
N	-0.458615394	-4.2985568298	 0.115405458	-0.355195
C	-1.786546483	-4.0335825615	 0.0126530905	 0.388211
O	-2.691344823	-5.0360863366	-0.0419956136	-0.423072
N	-2.1565580735	-2.7616585678	-0.0246908019	-0.421014
H	 0.5397974346	 2.0510265494	-0.377602146	 0.282969
H	-1.0660020492	 1.834380089	 0.1013905048	 0.27311
H	 1.0272197392	-0.2629449725	-0.249865097	 0.172313
H	 1.1627967153	-2.9157759282	 0.2531553463	 0.079363
H	-2.1726108531	-5.8481455902	 0.0036626768	 0.294481
61.6179	106.0752	144.6518	288.8214	337.2796	362.8707	391.9113	405.2809	444.947	500.9705	526.0189	644.3939	727.6908	754.1292	777.2934	790.2751	793.4395	928.8113	1009.3714	1030.8552	1092.7486	1194.637	1201.7926	1250.6398	1317.1463	1344.7727	1379.6534	1440.9636	1477.3284	1508.0554	1595.5408	1648.8009	1733.5326	3213.3908	3233.6279	3506.4403	3567.5897	3679.0123	3809.208
NC=[NH+]C1=CN=C(O)[N-]1	[NH2]=CNc1cnc(O)n1	
InChI=1S/C4H5N4O/c5-2-7-3-1-6-4(9)8-3/h1-2H,(H3-,5,6,7,8,9)/q-1/p+1	InChI=1S/C4H7N4O/c5-2-7-3-1-6-4(9)8-3/h1-2,7H,5H2,(H2,6,8,9)
