19
gdb 91885	2.40639	1.64628	1.06477	3.5091	76.32	-0.2311	0.0178	0.2489	1141.4683	0.161145	-419.221937	-419.213756	-419.212811	-419.254792	31.52	
C	-0.1825662642	 1.5353325508	 0.0293952951	-0.410141
C	 0.0500406995	 0.0275905143	-0.0213475002	 0.048446
C	 0.7140813681	-0.4042988825	-1.3285448074	-0.146456
N	 1.0047572816	-1.8484303881	-1.3539446682	-0.111273
C	 2.3982206951	-2.2326736963	-1.151007664	-0.238965
C	 1.3967553554	-2.4475843496	-0.0694812794	-0.123254
C	 1.4554982547	-1.6326084742	 1.1961410514	 0.392015
O	 1.9362984246	-2.0658833163	 2.2255181135	-0.375637
N	 0.9152282739	-0.3797731838	 1.0876397047	-0.331696
H	 0.7647054571	 2.0785733475	-0.0482911914	 0.129788
H	-0.8324048122	 1.8495033956	-0.7921236491	 0.129797
H	-0.6678554317	 1.8253397443	 0.9673127025	 0.122632
H	-0.9238067803	-0.4809714609	 0.0559565338	 0.09431
H	 0.0465303767	-0.1790312712	-2.1674811443	 0.111104
H	 1.6290136521	 0.1889259984	-1.4645102928	 0.101069
H	 2.749584189	-3.0792791315	-1.7341755237	 0.12322
H	 3.130872204	-1.4404999227	-1.0061192816	 0.121225
H	 1.0275835604	-3.4551880371	 0.1019480136	 0.120675
H	 0.8463818561	 0.1218270432	 1.9627126975	 0.243142
73.8378	129.4299	212.4777	235.8748	276.3253	406.7245	429.6463	438.179	449.6287	524.9483	572.2292	652.7595	729.6687	766.0968	841.548	894.9752	908.6014	949.2668	982.3061	1026.8775	1040.8186	1080.8754	1108.5241	1115.467	1136.5043	1172.4507	1203.9218	1257.9484	1299.8362	1315.2779	1342.5665	1372.1847	1387.2797	1407.2076	1412.6325	1450.8961	1491.2299	1495.3862	1500.9492	1515.7164	1795.9285	2976.0695	3007.2157	3036.7988	3063.3493	3095.4743	3105.0503	3119.5139	3146.8847	3185.6472	3593.429
CC1CN2CC2C(=O)N1	C[C@H]1CN2C[C@H]2C(=O)N1	
InChI=1S/C6H10N2O/c1-4-2-8-3-5(8)6(9)7-4/h4-5H,2-3H2,1H3,(H,7,9)	InChI=1S/C6H10N2O/c1-4-2-8-3-5(8)6(9)7-4/h4-5H,2-3H2,1H3,(H,7,9)/t4-,5-,8?/m0/s1
