23
gdb 92569	3.80297	1.13394	0.94329	0.3724	92.25	-0.2217	0.028	0.2498	1333.2159	0.208428	-351.191041	-351.182732	-351.181788	-351.223836	33.36	
C	-0.1209146622	 1.5612737715	 0.0468449566	-0.40613
C	 0.0644288686	 0.0458215539	 0.0163283104	 0.055071
C	 0.8077304428	-0.4861025972	-1.2376276018	-0.243366
C	 1.2678592279	-1.8863825201	-0.8032985571	-0.035035
C	 2.5129426816	-2.5701423637	-1.4010253642	-0.245365
C	 3.204505065	-3.2344828168	-0.1742907224	-0.242389
C	 2.7319980851	-2.3757461842	 0.9860657622	-0.243625
C	 1.6685894698	-1.6543597269	 0.640450523	 0.38525
C	 0.8675467976	-0.5244095377	 1.2313796403	-0.359075
H	 0.8481770217	 2.0741747063	 0.034168725	 0.112226
H	-0.6936296781	 1.9106681689	-0.8191138243	 0.111191
H	-0.6545013844	 1.8812505309	 0.9485558322	 0.111254
H	-0.9291747302	-0.4219854335	 0.0280152164	 0.071642
H	 0.1745106056	-0.4736645752	-2.1303901668	 0.088925
H	 1.6849563232	 0.1425816159	-1.4437754922	 0.090259
H	 0.4019200203	-2.5671162646	-0.8466664159	 0.068855
H	 2.2851687101	-3.2814136177	-2.1998564832	 0.089241
H	 3.1800104127	-1.8067912971	-1.8188944668	 0.097303
H	 2.8886858309	-4.2816123205	-0.0539292338	 0.099509
H	 4.2961251965	-3.2551085032	-0.2701213088	 0.096721
H	 3.2266890842	-2.36897943	 1.9515731414	 0.081801
H	 1.5279012877	 0.2398799039	 1.6598755452	 0.10823
H	 0.1973555837	-0.8410093727	 2.0388357044	 0.107507
70.1822	149.103	229.2745	240.9578	270.7137	337.7796	410.3434	413.7427	496.8293	573.6183	619.1954	684.0763	802.304	818.4329	824.6898	855.1053	903.033	915.893	928.8522	940.2917	967.0693	987.7377	1013.0791	1066.8176	1093.1802	1096.6964	1128.1319	1149.0475	1171.8637	1192.3361	1221.7886	1232.3467	1257.6734	1272.1591	1282.4281	1306.754	1319.1332	1342.4897	1350.7303	1364.0112	1378.475	1413.3792	1474.6031	1483.2922	1492.3469	1497.3216	1499.2895	1501.1192	1732.0541	2963.7693	2995.1304	3005.7878	3017.9608	3022.4795	3026.8036	3034.2522	3054.6257	3058.3594	3078.0647	3089.8331	3091.9748	3093.7793	3184.7771
CC1CC2CCC=C2C1	C[C@H]1C[C@H]2CCC=C2C1	
InChI=1S/C9H14/c1-7-5-8-3-2-4-9(8)6-7/h3,7,9H,2,4-6H2,1H3	InChI=1S/C9H14/c1-7-5-8-3-2-4-9(8)6-7/h3,7,9H,2,4-6H2,1H3/t7-,9-/m1/s1
