21
gdb 15432	3.6599	1.01336	0.86131	0.8057	76.12	-0.2225	0.0768	0.2992	1388.0009	0.18748	-366.226184	-366.216621	-366.215676	-366.260954	34.327	
C	-0.2141137807	 1.5844024647	-0.2910710338	-0.37157
C	-0.487494872	 0.0833480044	-0.3637087943	-0.118361
N	 0.449318807	-0.5511236378	-1.2850587389	-0.077121
C	 1.714017001	-1.0297806471	-0.7374840442	-0.267248
C	 0.6931479332	-1.9965230898	-1.233162396	 0.011574
C	-0.0127287416	-2.9503612691	-0.2910516956	-0.205563
C	-1.3607290496	-3.4221914502	-0.8282807277	-0.068424
O	-1.8765007836	-4.3794648068	 0.0837794643	-0.421112
H	 0.7890064471	 1.7788260204	 0.1024977484	 0.117689
H	-0.2790287321	 2.0352309729	-1.2851926174	 0.125558
H	-0.9369148493	 2.077670373	 0.3662782154	 0.109179
H	-0.4504883214	-0.3406651714	 0.6537975468	 0.084169
H	-1.5013791306	-0.0894925741	-0.7452250472	 0.100251
H	 2.6081235163	-0.8095217154	-1.3154043516	 0.110766
H	 1.8498899221	-0.9773215478	 0.3434332048	 0.103262
H	 0.8514125474	-2.4165058139	-2.2275427676	 0.085093
H	 0.6213885952	-3.8333707172	-0.1434439714	 0.11059
H	-0.1577805097	-2.5063038638	 0.6978242831	 0.107895
H	-2.0433476343	-2.5647875213	-0.9371872127	 0.091437
H	-1.2245750394	-3.8576028642	-1.832043016	 0.085957
H	-2.730052795	-4.6778897956	-0.2430748284	 0.285981
74.2422	85.5642	93.0807	163.9924	211.2924	235.6335	264.8749	307.2965	352.6802	432.1956	446.9946	551.4258	735.911	791.2092	815.8092	827.3576	916.6342	963.6593	1018.0614	1033.9689	1052.8226	1075.469	1097.9414	1105.6259	1120.5205	1149.2079	1184.3008	1200.1721	1233.3346	1244.1737	1308.4366	1311.4924	1322.7805	1339.39	1385.761	1408.9506	1426.992	1462.2144	1487.3805	1488.5361	1492.7154	1505.5841	1518.2679	1526.6512	2955.4549	2963.2291	2992.4052	3038.309	3039.9378	3043.2591	3079.3006	3083.8177	3103.2329	3107.3078	3119.3582	3167.0225	3830.7867
CCN1CC1CCO	CCN1C[C@H]1CCO	
InChI=1S/C6H13NO/c1-2-7-5-6(7)3-4-8/h6,8H,2-5H2,1H3	InChI=1S/C6H13NO/c1-2-7-5-6(7)3-4-8/h6,8H,2-5H2,1H3/t6-,7?/m1/s1
