21
gdb 81794	2.03826	1.75977	1.288	1.9851	82.58	-0.2526	0.0897	0.3423	1114.9508	0.181261	-387.049816	-387.040905	-387.039961	-387.082857	34.681	
C	-0.1185548284	 1.5407815525	-0.0282994949	-0.411241
C	 0.0192110784	 0.0229157634	-0.0085135385	-0.078188
C	 1.1376893607	-0.5514569243	-0.8996172072	-0.10566
C	 1.2367786645	-2.0353996623	-0.699253284	-0.343663
C	 1.880885353	-1.1261526172	 0.3211062772	 0.283344
C	 3.3439827723	-1.1740345747	 0.6581234179	-0.508201
C	 0.7895783241	-0.5576493651	 1.2009542172	 0.395404
C	 0.8953780739	-0.0203631585	 2.5573620547	-0.273535
O	 0.19967944	-1.2479918679	 2.295654005	-0.284693
H	 0.847329079	 2.0283329662	 0.1432396748	 0.114119
H	-0.5001698998	 1.8841688321	-0.9958763339	 0.116316
H	-0.8138330725	 1.8863807036	 0.7436396234	 0.118793
H	-0.9576696481	-0.4491821243	-0.1676434573	 0.08003
H	 1.5609407625	-0.0457675209	-1.7595328106	 0.085462
H	 0.351786185	-2.6149146403	-0.4471519921	 0.116103
H	 1.9385285746	-2.5543848544	-1.3453290147	 0.108972
H	 3.9395810533	-1.4396731346	-0.2212260657	 0.119097
H	 3.7048067812	-0.2076463869	 1.0276880156	 0.11611
H	 3.5474610614	-1.9251737076	 1.4306474109	 0.128242
H	 1.8275488387	-0.1227993789	 3.1127810883	 0.111189
H	 0.2697308663	 0.8173623098	 2.8635933239	 0.111999
94.9487	191.2757	200.2338	224.6574	235.0349	243.2295	276.6843	368.8597	419.0563	478.6401	515.3731	573.0077	653.9958	773.1414	825.1248	830.2114	876.3129	897.1069	943.3051	959.9746	986.1741	1010.1755	1036.0743	1063.1175	1087.4018	1104.7019	1108.9148	1126.1874	1136.931	1161.4984	1166.8071	1252.8201	1258.2124	1284.7279	1360.8849	1381.3548	1406.7491	1421.3368	1433.7564	1486.679	1494.3886	1495.1115	1499.9748	1501.6879	1537.3165	3022.7587	3028.4219	3032.6817	3076.0062	3082.0821	3095.9446	3097.5742	3100.4922	3108.3078	3158.8166	3181.4826	3196.6434
CC1C2CC2(C)C11CO1	C[C@H]1[C@@H]2C[C@]2(C)[C@]21CO2	
InChI=1S/C8H12O/c1-5-6-3-7(6,2)8(5)4-9-8/h5-6H,3-4H2,1-2H3	InChI=1S/C8H12O/c1-5-6-3-7(6,2)8(5)4-9-8/h5-6H,3-4H2,1-2H3/t5-,6-,7-,8+/m0/s1
