16
gdb 45863	2.58891	1.84988	1.22736	2.2774	69.45	-0.2735	-0.0257	0.2478	992.316	0.125655	-437.91935	-437.91196	-437.911016	-437.951455	28.136	
O	 0.0121222702	 0.0171865026	 0.3643833552	-0.323277
C	 0.0585301303	 1.1584931408	 0.0073718107	 0.407229
O	-1.1222469474	 1.7846999307	-0.3529101592	-0.218936
C	-1.1181082867	 3.1255642113	-0.6814640249	 0.132409
N	-0.1359595009	 3.8521720463	-0.9755894832	-0.235917
C	 1.173700778	 3.2119811994	-0.9812469748	-0.25026
C	 1.2670475899	 2.0257760845	-0.037851716	 0.133972
C	 1.9792731042	 2.1678700619	 1.3084755632	-0.284106
C	 2.5956590156	 1.3559010697	 0.2147558671	-0.296765
H	-2.1373226244	 3.5020297455	-0.6765459183	 0.142866
H	 1.3867701944	 2.8988923348	-2.0137922222	 0.128875
H	 1.9320595603	 3.9588631053	-0.7251985516	 0.120312
H	 2.3892554962	 3.1470091806	 1.5320421567	 0.128544
H	 1.5533688496	 1.6415101897	 2.1545416612	 0.142839
H	 2.5795675097	 0.277187045	 0.3124094915	 0.149213
H	 3.4505090208	 1.7652091917	-0.3130641555	 0.123003
78.4428	139.1517	244.6247	270.9639	326.2862	430.7026	479.491	494.2688	579.5001	667.9275	750.0501	790.5762	839.815	870.3402	947.3514	956.5919	957.7891	967.9439	1008.6974	1044.9377	1068.7748	1088.3805	1098.6918	1117.2745	1200.6777	1245.6786	1307.7008	1324.0268	1392.9144	1410.3187	1457.3356	1485.361	1494.2551	1752.9452	1863.0109	3006.1228	3066.3794	3137.8145	3141.1085	3184.9987	3226.5437	3240.5366
O=C1OC=NCC11CC1	O=C1OC=NCC21CC2	
InChI=1S/C6H7NO2/c8-5-6(1-2-6)3-7-4-9-5/h4H,1-3H2	InChI=1S/C6H7NO2/c8-5-6(1-2-6)3-7-4-9-5/h4H,1-3H2
