18
gdb 105446	2.49863	1.43202	1.1648	1.2385	72.26	-0.2555	-0.0391	0.2164	1116.5437	0.146385	-439.112728	-439.103775	-439.102831	-439.146898	32.073	
C	-0.0285810056	 1.4758738879	 0.014339964	-0.400312
C	 0.0690103071	-0.0462775732	-0.1201934324	-0.22523
C	 0.8572351816	-0.5238141321	-1.3390941917	 0.267377
C	 0.7131338815	-2.0661308969	-1.6007523239	-0.239233
N	-0.08069133	-2.171879294	-2.8310472247	-0.251728
C	-0.2241109621	-0.9893903372	-3.2556832141	 0.112913
O	 0.3043077404	 0.049328955	-2.5588864344	-0.255563
C	 2.3283236693	-0.1402446691	-1.2918898552	 0.123789
O	 2.9563676459	 0.0052381864	-0.2764207162	-0.251327
H	 0.9591682144	 1.9251620829	 0.1490958971	 0.135413
H	-0.49037428	 1.9183801176	-0.8723100721	 0.129738
H	-0.6373331965	 1.7420471551	 0.8830080719	 0.118199
H	 0.5607559255	-0.4722006511	 0.7612119353	 0.126096
H	-0.9333766719	-0.4866233418	-0.175744789	 0.107736
H	 1.6773685888	-2.5677716865	-1.743180954	 0.127505
H	 0.2088499044	-2.5597468416	-0.764618178	 0.132548
H	-0.747011546	-0.7013829999	-4.1607012196	 0.147193
H	 2.7937848035	-0.0429982114	-2.298005013	 0.094888
77.2915	83.757	115.9972	186.144	208.9487	270.2014	283.9198	393.3637	408.2889	485.9071	530.8416	706.6552	776.9295	791.6408	863.8403	929.7162	945.5219	966.6487	972.6025	989.9488	1029.1361	1047.8094	1112.6162	1148.7114	1160.8933	1178.451	1270.9125	1310.7998	1327.0488	1336.691	1364.4206	1407.5536	1410.6849	1469.6222	1496.1784	1498.4802	1508.9138	1712.7569	1831.3955	2890.3226	3036.6691	3038.6923	3048.613	3082.0508	3082.8391	3117.6663	3126.6687	3220.6986
CCC1(CN=CO1)C=O	CC[C@]1(CN=CO1)C=O	
InChI=1S/C6H9NO2/c1-2-6(4-8)3-7-5-9-6/h4-5H,2-3H2,1H3	InChI=1S/C6H9NO2/c1-2-6(4-8)3-7-5-9-6/h4-5H,2-3H2,1H3/t6-/m0/s1
