18
gdb 108165	2.66888	1.49538	1.2346	1.8819	70.96	-0.2437	0.0104	0.2542	1073.464	0.147723	-439.077463	-439.068933	-439.067989	-439.110727	31.682	
C	-0.0594224543	 1.4961870649	-0.0325408937	-0.416972
C	 0.0739206388	-0.0070814182	 0.0386838524	-0.100656
C	 1.3774172162	-0.7707030698	-0.186051612	-0.084532
N	 2.6140628882	-0.038859377	-0.0420853606	-0.244749
C	 2.6383015993	 0.3631345703	 1.1627231057	 0.07552
O	 1.6126526672	 0.0207214394	 1.9912463796	-0.255503
C	 0.7077716076	-0.7467123702	 1.1838778637	 0.356764
C	 0.0779696157	-1.8655889465	 1.9622353655	-0.156899
O	 1.0324153622	-2.755895449	 2.5076738085	-0.412707
H	 0.8463928611	 2.007123738	 0.2997518463	 0.134569
H	-0.2579065242	 1.8122293928	-1.0613357009	 0.126908
H	-0.8877863482	 1.8415574888	 0.5945047832	 0.122622
H	-0.778737241	-0.5478618556	-0.3668839461	 0.096856
H	 1.3966402301	-1.6252605956	-0.8516342809	 0.107696
H	 3.4113506114	 0.9666047541	 1.6228988337	 0.144308
H	-0.5733186598	-1.4460043628	 2.7462491457	 0.099978
H	-0.5564535699	-2.4514581436	 1.2900906261	 0.11677
H	 1.6355501796	-2.2248764399	 3.039210034	 0.290028
91.3315	119.0682	139.2056	214.5314	229.5214	279.2569	354.5543	389.9931	470.0773	568.7848	631.3123	692.5371	710.5902	801.0748	882.3237	904.188	928.249	943.7175	990.4593	1006.4028	1043.2543	1074.0051	1099.9842	1113.3044	1133.2046	1142.6232	1194.6396	1243.3546	1270.9419	1325.3955	1338.3142	1377.9847	1416.7052	1423.9552	1457.7076	1489.9297	1491.8588	1500.5782	1669.9299	2975.2288	3042.6373	3084.4107	3102.4624	3123.0668	3138.1587	3184.2225	3227.4314	3810.6144
CC1C2N=COC12CO	C[C@H]1[C@H]2N=CO[C@@]12CO	
InChI=1S/C6H9NO2/c1-4-5-6(4,2-8)9-3-7-5/h3-5,8H,2H2,1H3	InChI=1S/C6H9NO2/c1-4-5-6(4,2-8)9-3-7-5/h3-5,8H,2H2,1H3/t4-,5+,6-/m0/s1
