21
gdb 62583	3.19251	1.45744	1.31345	1.4037	81.99	-0.2271	0.0687	0.2958	1076.9138	0.182658	-387.031593	-387.023437	-387.022493	-387.063476	33.592	
C	 0.0161574198	 1.5062068185	 0.027490053	-0.436029
C	-0.0001626615	-0.0134444663	 0.00729886	 0.378956
O	-1.2285116585	-0.5175463179	-0.4624322973	-0.460879
C	 1.3329102492	-0.6500421799	-0.2722125144	-0.147236
C	 0.6868850856	-0.6610747215	 1.160082009	-0.109393
C	 0.7343924922	-2.2065601999	 1.1576587145	-0.029005
C	-0.449490633	-3.0757068944	 0.628762311	-0.229351
C	 0.1931482453	-3.0645217603	-0.7997728713	-0.227947
C	 1.3710951213	-2.195055238	-0.2552502972	-0.026845
H	 0.9506503163	 1.8967273606	 0.4401131805	 0.119801
H	-0.0933181776	 1.9065386665	-0.9879712973	 0.106132
H	-0.8163705343	 1.8813654622	 0.6303385656	 0.126457
H	-1.3096872297	-0.2656315361	-1.3891796474	 0.277248
H	 2.1546521759	-0.0422293493	-0.6392987291	 0.074293
H	 0.9527534691	-0.0663009713	 2.0287307154	 0.077773
H	 1.2933975801	-2.6034865609	 2.0060204688	 0.064361
H	-0.4661294417	-4.0704435574	 1.0824157723	 0.085391
H	-1.4408532363	-2.6333191721	 0.7030532287	 0.117686
H	 0.5267338377	-4.0519004902	-1.1306667876	 0.087999
H	-0.4143700005	-2.6213915184	-1.5880336845	 0.086011
H	 2.3773842806	-2.5880187438	-0.4063490124	 0.064574
169.7814	212.8811	216.4965	231.4575	296.3329	327.2311	358.9431	383.469	528.5289	580.8241	650.5653	666.4036	728.5708	730.579	810.383	862.048	863.1656	897.8835	902.7127	936.9624	963.9095	979.4703	1019.1799	1034.5813	1066.3243	1069.2087	1091.2694	1116.6478	1124.4354	1190.8991	1212.0738	1226.8629	1253.3667	1258.4487	1261.6054	1292.4879	1301.3915	1317.7177	1333.7587	1411.2715	1438.1659	1463.7622	1483.1847	1487.9102	1502.4238	3025.9014	3057.9185	3067.9928	3088.4543	3091.2997	3099.9265	3117.4574	3131.2024	3142.8945	3152.7911	3153.5349	3792.6467
CC1(O)C2C1C1CCC21	C[C@@]1(O)[C@H]2[C@@H]1[C@H]1CC[C@@H]21	
InChI=1S/C8H12O/c1-8(9)6-4-2-3-5(4)7(6)8/h4-7,9H,2-3H2,1H3	InChI=1S/C8H12O/c1-8(9)6-4-2-3-5(4)7(6)8/h4-7,9H,2-3H2,1H3/t4-,5+,6-,7+,8-
