15
gdb 87306	2.15868	1.36062	0.96534	6.6653	70.84	-0.3156	-0.0156	0.3	1216.1224	0.110509	-416.809755	-416.800623	-416.799679	-416.844391	31.774	
C	 0.1019698885	 1.5069521579	-0.1352159736	-0.436558
C	 0.0848340163	 0.0151763224	 0.0638877876	 0.038395
O	 1.3359979676	-0.6768350347	 0.113432283	-0.254429
C	 0.5365430634	-0.6900823229	 1.2917558873	 0.214493
C	 1.0925310861	 0.0397421784	 2.5115761787	-0.426369
C	 2.2088444641	-0.6760038788	 3.1301332617	 0.284825
N	 3.0928405862	-1.2321970488	 3.6221361026	-0.285328
C	-0.0906665724	-1.968187868	 1.5970147526	 0.274343
N	-0.6161032114	-2.963835563	 1.8565441338	-0.315299
H	 0.9021986461	 1.9953716221	 0.4233464997	 0.138779
H	 0.2560560062	 1.7257403051	-1.196372562	 0.153467
H	-0.8586107616	 1.9407769698	 0.1600200497	 0.143613
H	-0.6744003469	-0.5127601284	-0.5145417539	 0.126738
H	 1.4352385893	 1.0342162214	 2.2192245378	 0.167716
H	 0.2964802182	 0.1667914276	 3.253713395	 0.175615
46.7407	111.8715	138.9766	165.4603	171.8581	249.6076	328.5252	376.169	393.2583	449.1753	513.2446	565.4461	592.8275	726.7791	802.8545	904.4594	918.2282	973.954	1002.1398	1025.7453	1119.4426	1153.5548	1209.039	1266.7638	1315.3345	1358.695	1411.6219	1446.0694	1452.729	1483.8692	1503.0493	2361.5168	2372.7189	3048.5619	3060.4841	3108.3287	3113.892	3122.3895	3142.6709
CC1OC1(CC#N)C#N	C[C@H]1O[C@]1(CC#N)C#N	
InChI=1S/C6H6N2O/c1-5-6(4-8,9-5)2-3-7/h5H,2H2,1H3	InChI=1S/C6H6N2O/c1-5-6(4-8,9-5)2-3-7/h5H,2H2,1H3/t5-,6-/m1/s1
