20
gdb 126507	3.01544	0.99446	0.79485	4.4437	82.24	-0.2377	0.0056	0.2433	1489.1933	0.171264	-399.349994	-399.34039	-399.339446	-399.385869	34.02	
C	 0.0014126864	 1.6501935857	 0.2166156299	-0.382084
C	 0.0537749252	 0.1239330671	 0.1252633673	-0.152418
C	-1.3322843658	-0.5076176284	-0.102675841	-0.297326
C	-1.2985816045	-2.0026988774	-0.1426535217	 0.235426
C	-1.4215447504	-2.8703256933	-1.209630141	 0.241867
C	-1.6473390225	-2.6679748534	-2.6700019382	-0.510904
N	-1.2853867176	-4.0936090707	-0.6331151997	-0.222639
N	-1.0919728524	-4.0066552386	 0.6968732781	-0.124861
N	-1.099111129	-2.7414151596	 0.9924826306	-0.255213
H	 0.9969471968	 2.0726055909	 0.3841529329	 0.113074
H	-0.3966029431	 2.0922613243	-0.7041313155	 0.109123
H	-0.6413215807	 1.9749965908	 1.0424270904	 0.117237
H	 0.7246562593	-0.1797112389	-0.6882936673	 0.090926
H	 0.4774778474	-0.2950066252	 1.0446509066	 0.122219
H	-2.0038858517	-0.1917238698	 0.7048041669	 0.118799
H	-1.7634827141	-0.1214038762	-1.0343856823	 0.092997
H	-0.7930979832	-3.0076456612	-3.2669784996	 0.141616
H	-2.5337902191	-3.2064054569	-3.0238418729	 0.139235
H	-1.7971940469	-1.6074895605	-2.8828512858	 0.148676
H	-1.320864724	-5.0029096388	-1.0659224578	 0.274251
30.1767	86.3788	89.4824	120.2034	238.3126	244.8938	252.5869	315.7567	365.2005	428.7656	559.1365	657.0962	695.1027	724.7256	746.7717	792.5997	871.2783	899.9376	985.4606	1025.4998	1046.3954	1063.4914	1075.9014	1088.8055	1112.543	1197.5193	1251.9867	1260.7666	1310.9045	1316.9316	1342.8732	1371.5573	1384.1265	1412.6155	1422.8678	1474.3853	1477.862	1483.8	1492.5911	1499.5484	1508.7825	1513.0071	1630.4411	3022.6772	3027.306	3030.8537	3032.1972	3056.6797	3074.8633	3081.2788	3097.7381	3103.0327	3127.9911	3652.5286
CCCC1=C(C)NN=N1	CCCc1c(C)[nH]nn1	
InChI=1S/C6H11N3/c1-3-4-6-5(2)7-9-8-6/h3-4H2,1-2H3,(H,7,8,9)	InChI=1S/C6H11N3/c1-3-4-6-5(2)7-9-8-6/h3-4H2,1-2H3,(H,7,8,9)
