21
gdb 90716	3.12743	1.25482	1.20959	2.7586	78.53	-0.2343	0.0695	0.3039	1166.5772	0.180838	-424.196802	-424.187658	-424.186714	-424.230603	35.401	
C	 0.3949368933	 1.5414860909	-0.2583107071	-0.410624
C	 0.136772581	 0.0797510433	 0.037797316	 0.160926
O	 0.9459687389	-0.8187756053	-0.7697487468	-0.306667
C	 1.2622506583	-1.63669904	 0.365820771	 0.086408
C	 0.6248055629	-0.600141838	 1.3363452993	-0.105559
C	 2.0446960026	-0.2005713229	 1.8233542008	-0.320096
C	 2.6631509023	-1.3739180087	 0.9804470314	 0.411294
C	 3.1268952084	-2.5440305459	 1.8427775848	-0.455741
O	 3.6207791372	-1.0304087742	 0.0072577387	-0.464837
H	 1.4502858045	 1.7976688046	-0.1398421184	 0.130406
H	 0.1108188332	 1.7640157563	-1.2917647049	 0.128816
H	-0.2034815266	 2.1775008483	 0.4032701901	 0.113482
H	-0.9287722957	-0.1422374895	-0.1288779145	 0.070336
H	 0.9506557947	-2.6784347724	 0.2333269494	 0.06351
H	-0.1196029542	-0.8392817305	 2.0941092883	 0.07057
H	 2.3803868018	 0.7870258492	 1.5026977255	 0.103592
H	 2.1965344491	-0.2883206971	 2.9023922281	 0.094135
H	 2.3415373738	-2.8707770221	 2.5325759388	 0.120427
H	 3.4072629045	-3.3917024313	 1.2096446516	 0.126817
H	 3.9956267951	-2.2570427581	 2.4485874354	 0.107675
H	 4.4743119449	-0.9467540766	 0.4458618726	 0.275131
38.8467	179.1658	201.9002	241.1937	247.3674	265.9829	320.6897	338.9981	385.9293	416.9849	517.7475	531.0597	587.5308	732.3026	771.0739	830.6112	870.3662	893.0203	898.7316	916.4765	968.3688	975.5909	1037.6862	1053.3328	1098.7135	1112.8955	1118.1684	1152.3449	1166.1895	1187.9818	1212.6023	1243.6493	1256.8079	1304.7506	1311.7759	1336.5619	1379.1513	1395.149	1402.799	1410.8048	1471.4556	1480.3619	1489.9607	1493.6944	1506.7582	2974.7359	3019.9002	3040.0778	3046.3323	3064.0545	3087.1453	3105.7435	3108.811	3117.0128	3125.1724	3132.4254	3803.6614
CC1OC2C1CC2(C)O	C[C@H]1O[C@@H]2[C@H]1C[C@]2(C)O	
InChI=1S/C7H12O2/c1-4-5-3-7(2,8)6(5)9-4/h4-6,8H,3H2,1-2H3	InChI=1S/C7H12O2/c1-4-5-3-7(2,8)6(5)9-4/h4-6,8H,3H2,1-2H3/t4-,5+,6-,7+/m1/s1
