17
gdb 74929	2.63073	1.92187	1.35658	1.0785	72.64	-0.2171	0.0035	0.2205	962.3475	0.135091	-421.776638	-421.769026	-421.768081	-421.808222	30.502	
C	 0.0387062555	 1.4908328303	 0.0062826479	-0.512227
C	-0.0838359825	 0.0035806121	-0.049243575	 0.282501
C	-0.1477351927	-0.8029322865	-1.1227950738	-0.206684
C	-0.0310355687	-2.2238806598	-0.6496917208	 0.030805
O	 1.3789063467	-2.3769348788	-0.1489645556	-0.300272
C	 0.9121930387	-2.0951338939	 1.1446641167	 0.030374
C	-0.5343006164	-2.2281074213	 0.8240808152	-0.189277
C	-0.0602656483	-0.8448791534	 1.1780517539	 0.24773
O	-0.4109811529	-0.3440238876	 2.4269716514	-0.468983
H	 1.0192136211	 1.7941575432	 0.3968294694	 0.126612
H	-0.0785727072	 1.9380782185	-0.9836786414	 0.129627
H	-0.7143156098	 1.9203377964	 0.6767323243	 0.137169
H	-0.0731800402	-0.5011398693	-2.1597459513	 0.099255
H	-0.2772380623	-3.0371653996	-1.329443415	 0.085696
H	 1.526935073	-2.3636355771	 1.9963620386	 0.110181
H	-1.3637917917	-2.7530641521	 1.280055525	 0.107756
H	 0.3505806077	 0.114713739	 2.7969902106	 0.289736
151.326	172.8569	242.7898	274.3934	328.0052	390.7231	412.0472	469.199	575.5098	636.0396	643.4901	723.554	743.6324	793.4333	819.936	851.2936	860.5667	927.4262	945.4613	975.7711	1017.6082	1042.5833	1062.2056	1073.1341	1142.4112	1144.9583	1202.1069	1244.1526	1260.378	1302.5235	1305.9006	1366.9494	1401.6784	1411.5046	1478.0982	1488.9579	1670.2393	3019.5773	3071.7202	3120.4067	3137.3152	3180.5079	3198.3231	3212.7765	3804.6311
CC1=CC2OC3C2C13O	CC1=C[C@H]2O[C@@H]3[C@H]2[C@]13O	
InChI=1S/C7H8O2/c1-3-2-4-5-6(9-4)7(3,5)8/h2,4-6,8H,1H3	InChI=1S/C7H8O2/c1-3-2-4-5-6(9-4)7(3,5)8/h2,4-6,8H,1H3/t4-,5+,6-,7-/m1/s1
