19
gdb 116627	2.90151	1.12932	0.8833	5.0785	81.3	-0.2271	-0.0492	0.1779	1357.7094	0.159564	-419.237415	-419.228218	-419.227273	-419.272168	33.166	
C	 0.2385332424	 1.4199810781	 0.195722208	-0.366064
C	-0.1283569345	-0.0221753317	-0.1833162402	-0.152867
N	 0.6391040124	-0.4831012583	-1.329186395	-0.288752
C	 1.7441964393	-1.0808590297	-1.1290989531	 0.28492
N	 2.3891901775	-1.4402720241	 0.0399039784	-0.35012
C	 3.753611626	-1.9316182742	-0.1518526217	-0.177102
C	 3.7835186556	-2.344799309	-1.632124331	-0.322572
C	 2.6135965231	-1.5924335154	-2.2671861785	 0.344578
O	 2.4123494172	-1.433566793	-3.4393445306	-0.28654
H	 1.2810087917	 1.4945000207	 0.5240630677	 0.104663
H	 0.1148707719	 2.0784171944	-0.6682117123	 0.137321
H	-0.401321581	 1.7828991835	 1.0063613376	 0.112707
H	-0.0199962592	-0.6797250822	 0.6966379945	 0.074689
H	-1.1877853883	-0.0543341283	-0.4609575879	 0.110331
H	 2.1350540184	-1.0158246374	 0.915833584	 0.253722
H	 4.4967729441	-1.1473958317	 0.0495117889	 0.114714
H	 3.9620814531	-2.7662724592	 0.5244838651	 0.118474
H	 4.7228593788	-2.1177201497	-2.1382520045	 0.140666
H	 3.5935658115	-3.4174725028	-1.7504708594	 0.14723
56.6457	90.8622	113.0186	138.914	195.1135	264.3333	323.5368	376.7152	429.8139	521.5209	578.2432	605.1621	666.571	717.0831	770.1964	824.645	849.5044	891.783	964.944	1018.8354	1051.5154	1076.3221	1093.0404	1128.7877	1182.3018	1192.0482	1224.3089	1275.2241	1279.9541	1296.1239	1354.9411	1362.7824	1402.5284	1441.3998	1454.6666	1488.8541	1500.0306	1530.133	1534.8062	1742.6327	1861.7791	2949.5491	3002.6726	3034.5431	3050.5851	3055.0108	3069.2668	3102.3211	3121.3509	3128.3975	3655.3805
CCN=C1NCCC1=O	CCN=C1NCCC1=O	
InChI=1S/C6H10N2O/c1-2-7-6-5(9)3-4-8-6/h2-4H2,1H3,(H,7,8)	InChI=1S/C6H10N2O/c1-2-7-6-5(9)3-4-8-6/h2-4H2,1H3,(H,7,8)
