18
gdb 26500	3.63327	1.24378	1.0436	1.9573	78.11	-0.211	0.035	0.246	1168.7421	0.149843	-398.145766	-398.137706	-398.136762	-398.178648	30.891	
C	-0.3179503941	 1.2692988974	-0.8465653364	-0.469393
C	-0.0370020026	 0.0034711216	-0.0623692984	 0.199691
C	 1.1074013815	-0.8576720548	-0.487328011	-0.261536
N	 1.1834662615	-0.0817825572	 0.763718535	-0.350022
C	-1.2257854057	-0.6288961672	 0.5658045938	 0.272146
C	-1.3093713653	-1.224958648	 1.7982627239	-0.190641
N	-2.6115234718	-1.6633487508	 1.9019211337	-0.235711
C	-3.2499242837	-1.3142449806	 0.7502767699	 0.007775
N	-2.4454759512	-0.689594917	-0.0777884481	-0.323446
H	 0.5881406689	 1.6314366751	-1.3434852245	 0.100065
H	-1.0841054958	 1.0833046619	-1.6035466482	 0.149009
H	-0.6918024498	 2.0600098738	-0.1866529488	 0.120043
H	 1.049317443	-1.9336676193	-0.3519729243	 0.11417
H	 1.6991093045	-0.5342831817	-1.3404841868	 0.106659
H	 1.7500013361	 0.7505823559	 0.6188157557	 0.226251
H	-0.5814560194	-1.362729506	 2.5781265869	 0.142761
H	-3.0156083778	-2.1412099529	 2.6894792441	 0.265618
H	-4.2918870686	-1.5382435102	 0.5761138636	 0.126562
56.1295	150.835	188.9728	221.408	312.8885	348.0281	415.1519	493.36	525.3166	551.4335	665.3293	722.0954	766.3785	818.5067	825.6959	848.714	931.7083	947.977	960.1631	980.4581	1003.3431	1051.0588	1082.9384	1112.9882	1130.4055	1144.8046	1211.7119	1240.8897	1269.1546	1318.6805	1355.1249	1381.7533	1410.0982	1459.1238	1479.6941	1500.2874	1505.6569	1528.5918	1603.751	3031.3895	3095.7804	3102.9826	3122.2552	3193.2456	3249.3653	3296.2738	3493.3807	3668.3567
CC1(CN1)C1=CNC=N1	C[C@]1(CN1)c1c[nH]cn1	
InChI=1S/C6H9N3/c1-6(3-9-6)5-2-7-4-8-5/h2,4,9H,3H2,1H3,(H,7,8)	InChI=1S/C6H9N3/c1-6(3-9-6)5-2-7-4-8-5/h2,4,9H,3H2,1H3,(H,7,8)/t6-/m0/s1
