17
gdb 72855	3.07631	1.3385	1.11088	4.7796	72.87	-0.2453	0.0049	0.2502	1112.1197	0.135849	-417.973038	-417.96483	-417.963886	-418.005917	30.816	
C	-0.3949501192	 1.5812574596	-0.0048606942	-0.477716
C	-0.063284952	 0.1174266268	 0.0674797335	 0.433846
C	-1.1776873035	-0.9486449212	 0.2071300794	-0.21459
N	-0.3116601088	-1.7323805164	 1.1395170697	-0.321484
C	 0.6943379859	-0.6552867887	 1.1832315379	-0.125782
C	 1.7812913421	-0.8871088415	 0.1015613439	-0.021581
O	 0.9459311847	-0.278250122	-0.9082883861	-0.324872
C	 3.0324084941	-0.1483269134	 0.2951110538	 0.280472
N	 4.0093573594	 0.439770965	 0.4843218486	-0.321345
H	 0.5095284687	 2.189221042	 0.0830650638	 0.142868
H	-0.866205686	 1.8104913706	-0.9672326243	 0.139082
H	-1.090286085	 1.8638537064	 0.7914493534	 0.122946
H	-2.089923598	-0.5502515246	 0.6678753877	 0.103047
H	-1.4375152149	-1.4805797909	-0.7127572048	 0.120208
H	-0.738219523	-1.9300001565	 2.0355817649	 0.23052
H	 0.9971213555	-0.2637919342	 2.154240391	 0.099987
H	 1.9908204299	-1.940637521	-0.1073217281	 0.134394
74.9524	149.1786	196.3741	203.4788	269.9622	333.1782	385.1454	401.8667	478.5696	550.6134	628.2611	666.9056	776.7	833.1927	894.6751	922.9696	951.3077	955.8872	992.7293	1004.7549	1022.2741	1040.1823	1132.9131	1149.4301	1170.1011	1202.5425	1222.7049	1261.0224	1297.0485	1336.5596	1374.1523	1388.9964	1413.6272	1480.4686	1487.8079	1497.1794	2352.6677	3024.7902	3037.1457	3070.8548	3088.9666	3105.7393	3116.1129	3122.0213	3564.6865
CC12CNC1C(O2)C#N	C[C@]12CN[C@H]1[C@@H](O2)C#N	
InChI=1S/C6H8N2O/c1-6-3-8-5(6)4(2-7)9-6/h4-5,8H,3H2,1H3	InChI=1S/C6H8N2O/c1-6-3-8-5(6)4(2-7)9-6/h4-5,8H,3H2,1H3/t4-,5-,6-/m0/s1
