23
gdb 75894	2.22825	1.50635	1.1476	2.7536	84.71	-0.2331	-0.0109	0.2222	1199.3285	0.204433	-388.34213	-388.332339	-388.331395	-388.376122	37.856	
C	-0.7690964429	 1.1985494494	-0.0322615862	-0.420262
C	 0.032529172	-0.0994239624	-0.033645799	-0.094099
C	 1.099077205	-0.1558637999	-1.1331330837	 0.39722
O	 1.0579953758	 0.4369954817	-2.1814223165	-0.323889
C	 2.2294153193	-1.080779567	-0.6689145487	-0.332439
C	 1.7693781746	-1.6042799105	 0.700618888	-0.239304
C	 0.7891336788	-0.5297404255	 1.2550487314	 0.267174
C	 1.5804368499	 0.6429189495	 1.8642484549	-0.423985
C	-0.1481882367	-1.118577286	 2.3142821274	-0.437643
H	-0.1400242969	 2.0600867347	 0.2084645032	 0.12307
H	-1.1875919099	 1.3711289272	-1.0271762944	 0.136563
H	-1.5916061761	 1.163136958	 0.6884492256	 0.111491
H	-0.6517607271	-0.9292525763	-0.281648305	 0.094841
H	 2.4177732172	-1.8594834188	-1.4131012421	 0.127697
H	 3.1470077795	-0.485080113	-0.604595634	 0.133301
H	 1.2308460676	-2.5510655558	 0.5765678942	 0.097084
H	 2.5976998441	-1.7944286739	 1.389246764	 0.09812
H	 2.2437844966	 1.1217625797	 1.1357169418	 0.116366
H	 0.912216422	 1.4154880004	 2.2559832226	 0.119826
H	 2.2007019375	 0.2909212253	 2.6954386261	 0.112923
H	 0.418180621	-1.4835851541	 3.1787437452	 0.111726
H	-0.8594349357	-0.3703224097	 2.680515654	 0.115227
H	-0.7226063457	-1.960286773	 1.9119247111	 0.108988
68.6282	155.9326	185.0424	213.5888	233.1599	255.8689	280.622	301.1821	346.1999	377.0683	445.5847	496.6877	530.3789	578.4746	621.2525	703.3588	749.7213	818.7431	892.6498	925.9122	950.4644	967.6305	996.7321	1006.4628	1041.8126	1062.488	1069.5433	1129.1567	1155.8798	1186.9696	1225.001	1238.3061	1275.9668	1284.5889	1315.0533	1333.5127	1352.8923	1402.4432	1406.2052	1425.3725	1452.5897	1482.7386	1485.0857	1492.8022	1497.1053	1503.1185	1506.6093	1512.1907	1838.8406	2963.3867	3022.4786	3031.241	3037.7019	3045.0676	3051.9665	3084.6807	3089.0765	3093.8383	3096.2339	3100.8843	3105.4637	3113.8151	3122.4511
CC1C(=O)CCC1(C)C	C[C@H]1C(=O)CCC1(C)C	
InChI=1S/C8H14O/c1-6-7(9)4-5-8(6,2)3/h6H,4-5H2,1-3H3	InChI=1S/C8H14O/c1-6-7(9)4-5-8(6,2)3/h6H,4-5H2,1-3H3/t6-/m0/s1
