20
gdb 121701	4.29375	0.61936	0.60988	7.3607	84.23	-0.2226	-0.0294	0.1933	1891.8874	0.169669	-440.299207	-440.28907	-440.288126	-440.335542	35.722	
C	-0.234704118	 1.3739368563	-0.3890953038	-0.39217
C	-0.366305054	-0.1440074957	-0.3483335761	-0.119387
N	-1.058229772	-0.5830696258	 0.870180554	-0.315647
H	-0.58056164	-0.2259637597	 1.689032649	 0.233532
H	-2.9439211127	-0.6429138982	 0.5770167398	 0.297683
C	-1.2465783058	-2.0297511222	 0.9733924628	-0.276229
C	-2.5429967514	-2.4180773698	 0.2730135742	 0.399661
O	-3.4412110994	-1.4252848207	 0.246485983	-0.396619
C	-2.7761701415	-3.647696537	-0.2308502864	-0.285927
H	-1.9892761965	-4.392094224	-0.171725361	 0.091633
C	-4.028867325	-4.0513624951	-0.8500584878	 0.130599
O	-4.2440566706	-5.1614180207	-1.29857488	-0.304331
H	 0.2693514294	 1.6898642106	-1.3064924323	 0.129746
H	-1.21711824	 1.8534892884	-0.351340174	 0.13092
H	 0.3556792388	 1.7431156954	 0.457418375	 0.118012
H	-0.9528996559	-0.4931646339	-1.2059911404	 0.129232
H	 0.6275034479	-0.6140500451	-0.4354971016	 0.099637
H	-0.4095360034	-2.6162224665	 0.5706018672	 0.119935
H	-1.3434756233	-2.2847311644	 2.0356326224	 0.13606
H	-4.8053585566	-3.258927492	-0.8948296441	 0.073663
42.7289	61.5519	106.3859	149.6659	167.6281	216.9917	246.4764	277.2257	342.141	354.2324	478.2749	496.6161	564.3359	701.9891	775.1151	818.499	830.0034	865.8073	871.6495	935.6007	1000.9536	1036.4064	1038.2087	1098.7232	1134.5869	1139.8273	1168.9764	1184.0924	1270.99	1293.0126	1353.5879	1362.9845	1385.5956	1417.1341	1433.0988	1447.3342	1476.7383	1478.2774	1495.413	1499.5615	1522.0701	1721.0885	1770.5266	2907.9316	2967.7158	3010.7849	3035.9724	3057.4537	3059.9249	3104.7134	3123.0717	3190.4997	3439.1256	3546.6564
CC[NH2+]CC(=O)[CH-]C=O	CCNCC(=CC=O)O	
InChI=1S/C6H10NO2/c1-2-7-5-6(9)3-4-8/h3-4,7H,2,5H2,1H3/q-1/p+1	InChI=1S/C6H11NO2/c1-2-7-5-6(9)3-4-8/h3-4,7,9H,2,5H2,1H3
