21
gdb 64200	2.54483	1.33913	1.29512	0.5423	77.36	-0.2485	0.0583	0.3069	1132.1173	0.180921	-424.191682	-424.182493	-424.181549	-424.225824	34.51	
C	-0.2718429795	 1.5196121134	 0.1667758669	-0.430724
C	-0.0084094577	 0.0260318905	 0.0252551627	 0.360243
C	-1.23087232	-0.7231578434	-0.4890828031	-0.430715
O	 1.1297593967	-0.2020154377	-0.8595310953	-0.328805
C	 1.8880879945	-0.8323597552	 0.1861428037	-0.133803
C	 0.7578445201	-0.6468625595	 1.2057914638	 0.179938
C	 0.9916210716	 0.0166143866	 2.5756443594	-0.138864
O	 0.4755568233	-1.1313978658	 3.2768390361	-0.273902
C	 0.2064236093	-1.8184094402	 2.0392979198	-0.138868
H	 0.6202020039	 2.0460509519	 0.5176311509	 0.119333
H	-0.5487845521	 1.9369033512	-0.8064149932	 0.126244
H	-1.0905225204	 1.7151261749	 0.8674262694	 0.118155
H	-1.5167360542	-0.3289402881	-1.4692881781	 0.126262
H	-1.0204980868	-1.7902430168	-0.6033530939	 0.119322
H	-2.0838096305	-0.6062693626	 0.1878237316	 0.118142
H	 2.1388178998	-1.8750389017	-0.0526188201	 0.099947
H	 2.8169907096	-0.2904069131	 0.4107997056	 0.099954
H	 2.0429908533	 0.2151507072	 2.8243628959	 0.100733
H	 0.4039386591	 0.9204242459	 2.7799924426	 0.103338
H	-0.8616582689	-2.0372179807	 1.9154816194	 0.103336
H	 0.7712651889	-2.7568253569	 1.9557280757	 0.100734
57.3977	72.726	206.3247	221.7437	255.9887	271.5808	293.8904	345.6777	368.9875	432.5892	483.9975	516.9697	653.9418	851.8232	861.9627	879.5644	900.858	927.4846	966.3837	967.6144	996.085	1001.2838	1034.023	1044.2036	1135.4084	1147.9573	1163.8244	1167.9617	1173.7011	1189.8338	1240.3792	1254.7439	1285.0305	1312.781	1363.0104	1388.1242	1398.0744	1413.1132	1472.6978	1481.1599	1494.6409	1503.0244	1507.9892	1521.5142	1535.396	2995.5126	2997.9998	3010.1199	3032.5547	3035.0029	3038.0462	3048.8552	3049.472	3104.0484	3111.1813	3113.2037	3115.7178
CC1(C)OCC11COC1	CC1(C)OCC21COC2	
InChI=1S/C7H12O2/c1-6(2)7(5-9-6)3-8-4-7/h3-5H2,1-2H3	InChI=1S/C7H12O2/c1-6(2)7(5-9-6)3-8-4-7/h3-5H2,1-2H3
