18
gdb 111202	2.70383	1.27916	1.0082	2.4803	74.08	-0.2321	-0.0384	0.1937	1209.5182	0.146376	-438.994156	-438.985544	-438.9846	-439.028292	31.047	
C	 0.0016966446	 1.3037174534	-0.005569268	-0.245043
O	-0.1061094191	-0.014024927	 0.4888303557	-0.240021
C	-1.3277517276	-0.603821537	 0.2094619986	 0.209949
C	-1.5297304569	-1.3761951028	-1.1393479335	-0.108399
N	-0.5070948523	-2.3677305716	-0.6328128093	-0.309797
C	-1.441968312	-2.1083530222	 0.5453779986	-0.096214
C	-2.6663493401	-2.1989296343	-0.4106657541	-0.088081
C	-4.0189911482	-1.612773501	-0.1051177318	 0.120679
O	-4.3117972464	-0.9837120023	 0.8822525085	-0.246808
H	 0.9643807188	 1.6952556779	 0.3297143513	 0.132208
H	-0.0288601828	 1.3335824009	-1.1048263079	 0.107526
H	-0.8012866525	 1.9502659003	 0.3813510812	 0.108652
H	-2.1643823891	 0.0231838537	 0.52938844	 0.097642
H	-1.5328368039	-1.0134792039	-2.1681084876	 0.089609
H	-0.7131628393	-3.2918223711	-1.0263321141	 0.206203
H	-1.3081570612	-2.5929559818	 1.5121803042	 0.095493
H	-2.7950574387	-3.1824951748	-0.8769743193	 0.08732
H	-4.7802776729	-1.8118287365	-0.8955829624	 0.079081
57.4014	85.1426	154.6506	168.063	198.4235	283.0879	330.9644	411.4149	472.8725	601.9506	695.7733	747.7055	814.7489	852.2154	867.465	916.6774	954.9868	1000.0026	1008.3056	1057.0717	1072.572	1109.3567	1124.6482	1153.8841	1158.618	1181.8072	1194.1145	1218.9498	1233.4555	1244.2886	1296.9085	1298.7479	1385.3764	1427.1885	1442.3723	1486.09	1492.2217	1510.0294	1816.0177	2855.3559	2977.7615	3027.0135	3048.5614	3082.9878	3108.0939	3122.7613	3125.4739	3378.1528
COC1C2NC1C2C=O	CO[C@H]1[C@H]2N[C@@H]1[C@H]2C=O	
InChI=1S/C6H9NO2/c1-9-6-4-3(2-8)5(6)7-4/h2-7H,1H3	InChI=1S/C6H9NO2/c1-9-6-4-3(2-8)5(6)7-4/h2-7H,1H3/t3-,4-,5+,6-
