17
gdb 52247	5.48108	0.73798	0.70838	3.6262	69.46	-0.2566	-0.0297	0.2269	1554.2054	0.132968	-458.907936	-458.899232	-458.898288	-458.943044	30.466	
O	-0.1444214554	 0.126531093	 0.4547256031	-0.237457
C	 0.0231920784	 1.1873208689	-0.0845810902	 0.139464
C	 1.3910971809	 1.8145874462	-0.2947567245	-0.151181
O	 1.2100404062	 3.0549414804	-0.9318595916	-0.256156
C	 2.3973073295	 3.7603969668	-1.1546504799	 0.139522
C	 3.3774854282	 3.3051016417	-2.3086145367	-0.298922
C	 3.1940724464	 4.7042813595	-2.9086719026	 0.032488
O	 1.8055998063	 4.8322611965	-3.2149971059	-0.232028
C	 2.2189826613	 5.097490375	-1.8732329336	-0.01559
H	-0.8141711922	 1.8036349679	-0.4784816039	 0.102649
H	 1.8866358452	 1.9208376128	 0.685274863	 0.121993
H	 2.0067079539	 1.1245252943	-0.8944193207	 0.127711
H	 2.9565066972	 3.8925852799	-0.2155023507	 0.077604
H	 4.3846876733	 3.0819827177	-1.9510881495	 0.110127
H	 3.013460614	 2.4996922448	-2.9499197626	 0.120321
H	 3.8936253088	 5.3111001093	-3.4701724053	 0.111651
H	 1.9634486979	 6.0630184454	-1.4532467483	 0.107804
48.9093	61.3009	97.5699	108.2146	203.6255	307.0269	352.2919	463.7107	498.9613	636.1162	734.2387	742.5161	814.9473	848.4636	874.3511	922.9806	949.0794	1007.6188	1020.1762	1040.0063	1062.5488	1097.0902	1114.7807	1142.9598	1194.772	1214.2222	1237.1052	1244.6988	1245.1489	1292.1162	1339.6182	1387.7625	1389.6327	1416.7716	1465.7451	1483.7484	1845.2981	2906.6474	2965.4688	2987.5692	2999.8308	3073.2272	3135.3387	3188.1752	3203.8626
O=CCOC1CC2OC12	O=CCO[C@H]1C[C@H]2O[C@@H]12	
InChI=1S/C6H8O3/c7-1-2-8-4-3-5-6(4)9-5/h1,4-6H,2-3H2	InChI=1S/C6H8O3/c7-1-2-8-4-3-5-6(4)9-5/h1,4-6H,2-3H2/t4-,5+,6-/m0/s1
