17
gdb 79610	2.35918	1.79581	1.44898	3.1535	71.76	-0.2414	-0.0391	0.2023	971.5728	0.136246	-421.808103	-421.800555	-421.799611	-421.840141	29.236	
C	-0.2402358989	 1.5610457123	 0.2013605075	-0.420872
C	 0.0021217967	 0.089483829	-0.0689710708	-0.006577
C	 0.5733729027	-0.576594966	-1.2967603769	-0.096449
C	 1.4562753453	 0.1885453829	-2.2710679557	 0.035056
O	 1.7376595011	 1.5438024428	-1.9155183074	-0.239379
C	 2.7316720726	 0.5450862	-1.6268606877	-0.096977
C	 2.6743200656	 0.0100741192	-0.1976543649	 0.409651
O	 3.6132867941	-0.0264983986	 0.5571746589	-0.316064
C	 1.3321227462	-0.6501677032	 0.0264876155	-0.196349
H	-1.1160608599	 1.9080871687	-0.3579623362	 0.120167
H	-0.4526765827	 1.7002125062	 1.2667968706	 0.117198
H	 0.6022101143	 2.1887757934	-0.0750669309	 0.151729
H	-0.7853188565	-0.5268959105	 0.3629089945	 0.101249
H	 0.066159053	-1.4471812485	-1.6974045347	 0.096182
H	 1.3728220542	-0.0040565134	-3.3366734325	 0.110694
H	 3.6927892338	 0.6676695257	-2.1169524069	 0.117314
H	 1.3701763885	-1.5404371401	 0.6437844675	 0.113427
104.8407	137.194	184.8324	280.1929	332.2703	396.9481	452.405	567.0482	585.6325	677.0844	708.0187	756.2099	794.1765	828.7217	864.6132	878.5302	916.3693	987.3038	1003.9561	1023.4489	1035.5092	1074.2425	1102.1537	1111.0846	1142.7938	1190.7661	1229.885	1252.2635	1299.9684	1334.97	1362.5651	1393.9647	1419.7398	1437.2292	1492.797	1504.2914	1830.3379	3039.6839	3091.9138	3111.4482	3155.4926	3169.061	3173.629	3181.5861	3188.0396
CC1C2C3OC3C(=O)C12	C[C@H]1[C@H]2[C@H]3O[C@H]3C(=O)[C@@H]12	
InChI=1S/C7H8O2/c1-2-3-4(2)6-7(9-6)5(3)8/h2-4,6-7H,1H3	InChI=1S/C7H8O2/c1-2-3-4(2)6-7(9-6)5(3)8/h2-4,6-7H,1H3/t2-,3+,4-,6-,7+/m1/s1
