15
gdb 61749	2.46075	1.0383	0.76351	2.6882	70.89	-0.2537	-0.0845	0.1692	1396.7802	0.108006	-457.742828	-457.73315	-457.732206	-457.778763	33.26	
O	-0.0454340443	 1.5126781448	 0.0486115117	-0.433105
C	-0.0065809442	 0.1144806749	 0.0200757808	 0.008971
C	 0.7649611976	-0.3899606937	-1.2229396019	-0.299264
C	 0.1253125084	 0.1075306589	-2.505872208	 0.154542
O	-0.1803148785	-0.6099810867	-3.4231585566	-0.236091
C	 0.6462548388	-0.4041222533	 1.3040912914	 0.212356
O	 1.1038192294	 0.3860318132	 2.1063433786	-0.310933
C	 0.6807953243	-1.8315606568	 1.5034897352	 0.287429
C	 0.6824116515	-3.0260744505	 1.6510827238	-0.396677
H	 0.4155421565	 1.7714766398	 0.864199453	 0.299639
H	-1.0298026606	-0.2941666448	-0.0124714969	 0.114206
H	 1.7846564911	 0.0150693078	-1.1711636831	 0.131598
H	 0.8120601053	-1.4810826936	-1.2520471593	 0.131914
H	-0.0430861574	 1.2034736247	-2.5408034252	 0.107074
H	 0.6918006421	-4.0802192248	 1.7930276065	 0.228341
48.4532	68.2935	75.9702	132.5574	173.0362	243.9327	297.1534	346.189	397.0802	449.4059	495.3586	528.7929	607.5913	661.3386	694.1831	721.9689	837.6451	850.9178	928.6708	1054.8511	1081.0284	1099.8608	1171.86	1226.9342	1254.1295	1297.7975	1350.8389	1417.7238	1432.6643	1451.6897	1751.4237	1830.2999	2216.4666	2929.5997	2978.3417	3029.4702	3119.4966	3489.7265	3666.4708
OC(CC=O)C(=O)C#C	O[C@@H](CC=O)C(=O)C#C	
InChI=1S/C6H6O3/c1-2-5(8)6(9)3-4-7/h1,4,6,9H,3H2	InChI=1S/C6H6O3/c1-2-5(8)6(9)3-4-7/h1,4,6,9H,3H2/t6-/m0/s1
