17
gdb 104487	2.78051	1.50338	1.14384	2.4645	68.65	-0.2457	-0.0426	0.2031	1065.6252	0.135007	-458.884734	-458.87675	-458.875806	-458.917417	30.449	
O	 0.8227698223	-0.4186615572	 1.253572138	-0.424829
C	 0.1406948625	 0.0164121722	 0.093704304	-0.171168
C	-1.2755620743	-0.5597633389	 0.0297006328	 0.213194
C	-2.1210541466	-0.0352710516	 1.1700460259	 0.109498
O	-1.6603499535	 0.6049814937	 2.0912325404	-0.282223
C	-2.058523034	-0.7339777077	-1.3251448384	-0.012427
C	-1.109082842	-1.8765121225	-1.7555435377	-0.235771
C	-1.5234734055	-2.0823106837	-0.2821368034	 0.023304
O	-2.9162199267	-1.7482163489	-0.6733138964	-0.309288
H	 0.3496237557	-0.0142934341	 1.9927153629	 0.297846
H	 0.0713785104	 1.1142388545	 0.0540263444	 0.100219
H	 0.7449930799	-0.2986256392	-0.7590580001	 0.109459
H	-3.1973725309	-0.2717156604	 1.1226375247	 0.123101
H	-2.5533977684	 0.0298045551	-1.9259523739	 0.107318
H	-1.5608101641	-2.5889950666	-2.4457096628	 0.120147
H	-0.07019473	-1.6568150887	-1.9962873675	 0.115357
H	-1.3728559146	-2.935630936	 0.3778750471	 0.116262
90.5343	117.0358	179.7157	255.5107	308.3237	337.0737	435.9637	464.3763	533.9873	576.0114	632.6186	694.9086	773.7719	835.1743	874.3112	889.0751	917.0034	940.7071	1019.6297	1023.5815	1060.3013	1084.0565	1091.1726	1140.2747	1155.0022	1167.3098	1205.8813	1217.0949	1256.3868	1287.4114	1292.9058	1383.7117	1413.8145	1444.2397	1485.6632	1510.7752	1787.289	2991.4547	2997.0536	3091.729	3109.568	3117.5468	3134.5088	3171.246	3765.3088
OCC1(C=O)C2CC1O2	OC[C@@]1(C=O)[C@H]2C[C@@H]1O2	
InChI=1S/C6H8O3/c7-2-6(3-8)4-1-5(6)9-4/h2,4-5,8H,1,3H2	InChI=1S/C6H8O3/c7-2-6(3-8)4-1-5(6)9-4/h2,4-5,8H,1,3H2/t4-,5+,6+
