14
gdb 12956	2.93548	2.10043	1.6246	1.9471	59.1	-0.2422	-0.0117	0.2304	811.1403	0.105768	-419.655012	-419.647587	-419.646643	-419.686559	27.846	
O	-0.1235162718	 1.3770300828	 0.2003873993	-0.418832
C	-0.0850212979	-0.0059241609	-0.0011516757	 0.059656
C	-1.3512045463	-0.7724529699	 0.0103303178	-0.177558
C	-2.4462345426	 0.0117180246	-0.7212028826	-0.343545
C	-1.5924925201	-0.1419631043	-1.9984215368	 0.330124
O	-1.8768198365	-0.2012848281	-3.1684106803	-0.344944
C	-0.3911830429	-0.6747194804	-1.3082706573	 0.239073
O	 0.5198885351	-1.5029775803	-1.89646775	-0.442852
H	 0.6055959307	 1.7736072677	-0.2883605773	 0.293658
H	 0.7437607568	-0.5140337857	 0.4972555968	 0.110695
H	-1.515907995	-1.6374628716	 0.6386102459	 0.121152
H	-3.3969104613	-0.5156293395	-0.8248201667	 0.128602
H	-2.6128529237	 1.027858093	-0.3623354728	 0.14021
H	 0.0909072157	-1.8912861272	-2.6714217705	 0.30456
86.5681	218.9828	240.0452	259.5351	296.4168	406.2653	406.9164	469.9023	549.136	624.551	668.7472	705.9336	761.8245	867.4165	894.5851	967.7731	996.3566	1013.6476	1076.117	1111.7948	1145.2863	1208.32	1228.2614	1262.6377	1309.8511	1377.8665	1388.9836	1455.5432	1493.8229	1838.7153	3082.1458	3088.6889	3141.0249	3214.6301	3757.069	3811.2482
OC1C2CC(=O)C12O	O[C@H]1[C@H]2CC(=O)[C@@]12O	
InChI=1S/C5H6O3/c6-3-1-2-4(7)5(2,3)8/h2,4,7-8H,1H2	InChI=1S/C5H6O3/c6-3-1-2-4(7)5(2,3)8/h2,4,7-8H,1H2/t2-,4+,5-/m1/s1
