15
gdb 11867	5.1827	1.53343	1.30528	2.7207	69.29	-0.2417	-0.0503	0.1914	913.8993	0.120062	-362.669605	-362.662923	-362.661979	-362.700614	25.709	
O	-0.0104127952	-0.010700888	-0.0860897339	-0.325216
C	-0.0091040514	 1.1955564682	-0.0218194211	 0.373662
C	-1.2613907275	 2.09482642	 0.0458050929	-0.438189
C	-0.7073575502	 3.51376204	 0.007281271	 0.302169
C	-1.3798528535	 4.631880082	-0.7176448206	-0.282187
N	-1.300105409	 4.6478071938	 0.7478460362	-0.354487
C	 0.7708904002	 3.3753142185	 0.0463284777	-0.07434
C	 1.1674927007	 2.0956480033	 0.0149386321	-0.201973
H	-1.9408281722	 1.8569179793	-0.7767481055	 0.135813
H	-1.7899533568	 1.8835984154	 0.9823379997	 0.137335
H	-0.7874683984	 5.3936182948	-1.2177952945	 0.123717
H	-2.3314871741	 4.4117286408	-1.1950789082	 0.12054
H	-2.1901208401	 4.3597532652	 1.1481274519	 0.237073
H	 1.4123190554	 4.2483539877	 0.0921252073	 0.12619
H	 2.1835635021	 1.7233000591	 0.015889415	 0.119893
75.196	216.5735	295.0271	328.3861	421.6503	464.9184	503.9772	614.9725	682.3322	800.0674	819.036	829.6571	841.4484	906.8989	959.1966	971.8907	985.0115	1001.3014	1062.0375	1089.7477	1132.9439	1167.5634	1179.8561	1232.928	1263.0475	1321.1646	1340.5703	1404.8589	1450.1293	1509.5046	1636.3227	1817.9216	3051.1646	3102.1682	3104.9598	3189.2415	3199.7931	3231.7974	3495.9106
O=C1CC2(CN2)C=C1	O=C1C[C@]2(CN2)C=C1	
InChI=1S/C6H7NO/c8-5-1-2-6(3-5)4-7-6/h1-2,7H,3-4H2	InChI=1S/C6H7NO/c8-5-1-2-6(3-5)4-7-6/h1-2,7H,3-4H2/t6-/m0/s1
