21
gdb 94390	2.95459	1.32283	1.18785	1.7863	82.87	-0.2376	0.0291	0.2668	1159.2303	0.182832	-387.090652	-387.082153	-387.081209	-387.124084	32.826	
C	-0.3922203555	 1.4210799589	-0.0217982754	-0.418501
C	 0.0622526794	-0.0295862451	-0.0679329448	-0.0938
C	 1.4136874074	-0.3527337421	-0.7342547234	-0.086286
O	 1.8608292452	-1.0866190537	 0.4191939748	-0.320829
C	 0.6860697555	-0.6983700371	 1.1911107866	 0.4368
C	 1.0918420117	 0.1683410786	 2.4087585528	-0.31377
C	 1.0341774147	-0.797246992	 3.5668897693	-0.064733
C	 0.4312132889	-1.9376527796	 3.2354655816	-0.065429
C	-0.01493037	-1.9346547063	 1.7955227702	-0.313529
H	 0.3989926565	 2.0820466543	 0.346854781	 0.121505
H	-0.6732824992	 1.7668787836	-1.0226773838	 0.116745
H	-1.2664111443	 1.5481280746	 0.6260318678	 0.119495
H	-0.7416272413	-0.6541306785	-0.4705526849	 0.076781
H	 1.3887842795	-0.9748312888	-1.6368484646	 0.098182
H	 2.0427109879	 0.5277274324	-0.9305821434	 0.091037
H	 2.0849456768	 0.6011318787	 2.2474639822	 0.114457
H	 0.3979901831	 1.0061019117	 2.5631322111	 0.104003
H	 1.4227258561	-0.5536125555	 4.5494295928	 0.090022
H	 0.2498169221	-2.7710263039	 3.9048284482	 0.090521
H	-1.1084065217	-1.8454886824	 1.7156708089	 0.101699
H	 0.274052317	-2.8325643077	 1.2385263028	 0.115629
60.9394	81.6756	194.2865	229.7692	269.5053	360.0258	383.1598	401.9994	461.4301	506.8116	675.2565	723.2063	782.2475	788.26	863.4557	900.7323	911.2724	922.5298	955.5014	973.8341	984.0737	1009.4713	1030.1462	1067.1321	1084.1238	1127.8485	1139.6377	1153.2289	1170.4066	1186.0762	1208.4284	1231.1873	1280.9499	1289.1496	1338.117	1343.1055	1367.1506	1390.4612	1411.8199	1459.7153	1466.4223	1495.6886	1498.7554	1529.7667	1687.5232	2993.6466	3001.2803	3015.3895	3028.8164	3040.0712	3057.331	3066.6662	3068.4995	3092.8234	3101.8243	3183.0124	3208.3128
CC1COC11CC=CC1	C[C@H]1CO[C@]21CC=CC2	
InChI=1S/C8H12O/c1-7-6-9-8(7)4-2-3-5-8/h2-3,7H,4-6H2,1H3	InChI=1S/C8H12O/c1-7-6-9-8(7)4-2-3-5-8/h2-3,7H,4-6H2,1H3/t7-/m0/s1
