20
gdb 105384	2.64099	1.22105	0.98672	4.9098	76.75	-0.2478	0.0132	0.261	1265.8011	0.170104	-440.29736	-440.287724	-440.286779	-440.331882	35.681	
C	-0.0981988287	 1.5352857533	-0.0519323921	-0.414441
C	 0.1558504757	 0.0443172287	-0.024096171	-0.064188
C	 1.5496842759	-0.5297107984	-0.0676575118	-0.293843
C	 0.7077669477	-0.6925493371	 1.1796582864	 0.299225
C	 1.162547417	 0.0244502692	 2.4500931688	-0.124299
O	 2.4805896755	-0.2932974996	 2.8276824554	-0.423334
N	 0.1154711704	-1.9999833845	 1.3929857033	-0.326936
C	 0.7371805891	-3.0349686614	 2.0019217885	 0.155107
O	 1.8554689508	-3.0098955773	 2.4880901845	-0.337094
H	 0.7107074116	 2.0970165597	 0.4221581484	 0.131404
H	-0.1686799151	 1.8826427022	-1.0881158372	 0.1244
H	-1.0342998619	 1.798818745	 0.4526784212	 0.11937
H	-0.585978745	-0.5294027335	-0.5784509635	 0.079334
H	 1.7346110606	-1.4087334231	-0.6735594138	 0.116671
H	 2.3882025405	 0.1536962349	 0.012968954	 0.134184
H	 1.1398678648	 1.1066273269	 2.2930520299	 0.101527
H	 0.4362606651	-0.2004418704	 3.2487547876	 0.082197
H	 2.5357337774	-1.2639976671	 2.8242605811	 0.301363
H	-0.8342210646	-2.1479961664	 1.0870353288	 0.250116
H	 0.109678843	-3.945734871	 2.0218453815	 0.089235
59.7745	111.4918	154.0096	196.4728	222.9775	243.6648	267.8767	281.4905	400.011	408.4423	456.9342	532.2875	556.2049	635.8408	696.8607	773.5991	863.0655	884.6101	926.1373	946.4273	994.8571	1026.0188	1031.8544	1061.7518	1093.7582	1098.0867	1129.6992	1179.125	1202.7813	1230.6594	1286.3838	1315.5824	1385.7426	1407.3437	1423.7717	1432.6688	1480.4902	1485.942	1497.016	1499.8709	1504.8668	1514.6096	1778.8568	2960.1874	2965.9795	3033.975	3080.7199	3093.8824	3102.886	3121.5869	3140.0426	3230.0269	3615.214	3642.7791
CC1CC1(CO)NC=O	C[C@H]1C[C@]1(CO)NC=O	
InChI=1S/C6H11NO2/c1-5-2-6(5,3-8)7-4-9/h4-5,8H,2-3H2,1H3,(H,7,9)	InChI=1S/C6H11NO2/c1-5-2-6(5,3-8)7-4-9/h4-5,8H,2-3H2,1H3,(H,7,9)/t5-,6+/m0/s1
