16
gdb 75239	3.09675	1.49979	1.097	1.653	72.83	-0.2345	-0.0587	0.1758	1073.5504	0.125812	-434.074401	-434.066388	-434.065444	-434.106935	30.39	
N	 0.0347342057	 1.3146261884	 0.0709512889	-0.569194
C	-0.0466623058	-0.036997925	 0.0239296451	 0.30352
N	-1.1191274888	-0.7462222269	 0.0303901787	-0.305621
C	-0.7613435394	-2.1716298419	 0.0158886863	-0.264695
C	 0.7623995475	-2.2567015677	 0.0080288385	 0.187017
C	 1.5697557713	-3.30541726	 0.6966162166	-0.27065
N	 1.5443640809	-3.24586128	-0.7635702268	-0.331387
C	 1.228628294	-0.8337876071	-0.0193275623	 0.311129
O	 2.3509406806	-0.3906393097	-0.0575343084	-0.332019
H	 0.9331793027	 1.7172002735	-0.1434704113	 0.271891
H	-0.7889357681	 1.861245377	-0.1172451569	 0.264742
H	-1.2066102216	-2.6671394068	 0.8873161144	 0.118569
H	-1.1982439236	-2.6444186534	-0.8742661225	 0.115488
H	 2.5168576679	-3.0153591258	 1.1434805685	 0.140835
H	 1.0279135735	-4.0956747467	 1.2104981863	 0.122147
H	 0.9029854432	-3.9494711679	-1.1263095652	 0.238228
67.1302	219.4305	225.4563	247.8459	271.3333	332.6989	359.1809	455.9869	473.7385	540.0678	580.4091	656.9553	734.429	770.6493	865.9984	882.9437	934.3695	977.3116	985.8817	996.3244	1054.4453	1097.788	1137.8726	1161.1424	1206.5229	1266.1916	1288.2987	1306.8745	1397.6924	1429.7241	1492.7029	1498.0846	1607.6139	1719.455	1831.0784	3011.4916	3043.4907	3104.4024	3198.0664	3478.8249	3594.9445	3720.1763
NC1=NCC2(CN2)C1=O	NC1=NC[C@]2(CN2)C1=O	
InChI=1S/C5H7N3O/c6-4-3(9)5(1-7-4)2-8-5/h8H,1-2H2,(H2,6,7)	InChI=1S/C5H7N3O/c6-4-3(9)5(1-7-4)2-8-5/h8H,1-2H2,(H2,6,7)/t5-/m0/s1
