22
gdb 6470	3.63631	1.2534	1.14746	1.5253	78.13	-0.2542	0.0679	0.3221	1169.9286	0.198982	-350.200217	-350.190833	-350.189889	-350.233907	35.421	
C	 0.1049416984	 1.585879924	 0.0961413102	-0.406596
C	 0.0620869608	 0.0660557983	 0.0490920589	 0.062824
C	 1.0452261306	-0.6749339644	-0.9019879881	-0.286674
C	 1.324131425	-1.7191426445	 0.2249403486	 0.340927
C	 0.5166086384	-3.0066495439	 0.0460743187	-0.463493
C	 2.8030895997	-2.018361677	 0.4621975272	-0.125637
O	 3.0547542717	-2.7332846419	 1.6641488178	-0.424135
C	 0.6639985272	-0.7334294299	 1.2392128222	-0.266755
H	 1.1230556955	 1.9439358523	 0.2884907088	 0.109562
H	-0.228775069	 2.0249099077	-0.8510945767	 0.111695
H	-0.5402134522	 1.9783479799	 0.8904132071	 0.113191
H	-0.9647776714	-0.2627576936	-0.1443953108	 0.068507
H	 0.6456614808	-1.0567749386	-1.845958314	 0.090299
H	 1.9303408194	-0.0675132398	-1.1235658647	 0.090515
H	 0.8960082951	-3.6000621465	-0.7949890751	 0.109363
H	 0.5521490381	-3.6275396627	 0.949193794	 0.107299
H	-0.5386195977	-2.792173925	-0.1510432248	 0.11852
H	 3.2197225829	-2.5473961691	-0.4121999399	 0.080086
H	 3.3550527084	-1.077318212	 0.5631347757	 0.099356
H	 2.7118078757	-3.6251913116	 1.5561382596	 0.283578
H	 1.4134601769	-0.1533929858	 1.7874087437	 0.096475
H	-0.0348988644	-1.1600963259	 1.9637333815	 0.091093
69.7789	97.5158	207.4559	233.1815	246.2553	257.8523	305.4751	319.9857	356.6086	364.6207	423.8511	469.3626	629.5101	742.2099	832.0221	867.9049	890.7808	903.3692	931.5665	956.0856	966.1772	974.9304	1051.5553	1078.0172	1095.8943	1131.6902	1149.0712	1179.3381	1222.2524	1236.449	1243.7353	1290.2741	1305.199	1321.4865	1373.2769	1379.1614	1405.9766	1412.1439	1418.5959	1474.2639	1486.7383	1493.615	1496.6501	1497.143	1500.4439	1509.6053	2958.4047	3016.6076	3020.2351	3032.3864	3037.6539	3047.1733	3062.1707	3078.8056	3085.9042	3088.018	3091.3129	3094.5088	3101.3817	3829.5697
CC1CC(C)(CO)C1	C[C@H]1C[C@@](C)(CO)C1	
InChI=1S/C7H14O/c1-6-3-7(2,4-6)5-8/h6,8H,3-5H2,1-2H3	InChI=1S/C7H14O/c1-6-3-7(2,4-6)5-8/h6,8H,3-5H2,1-2H3/t6-,7+
