15
gdb 14924	4.86764	1.47253	1.20081	4.1056	61.57	-0.2859	0.01	0.2959	953.4462	0.120634	-399.80718	-399.800306	-399.799362	-399.83838	25.559	
N	-0.0047847727	-1.147079462	-0.065299694	-0.31056
C	 0.0212455717	 0.0064525409	-0.0249081208	 0.281976
C	-0.003988471	 1.4723108902	 0.039346185	-0.024511
C	-0.7423038907	 1.9857755803	 1.2901178709	-0.213723
C	-0.5746469167	 3.5068691295	 1.3462836376	-0.100895
O	 0.799921016	 3.8582180648	 1.25984979	-0.226086
C	 1.3779410664	 3.3498516529	 0.0937153268	 0.01855
O	 1.3371943296	 1.9397112445	 0.0316232942	-0.244936
H	-0.5272276354	 1.836961866	-0.8622626806	 0.115888
H	-1.7998958794	 1.7076514977	 1.25011923	 0.122807
H	-0.2938698592	 1.5284671935	 2.1762879491	 0.138794
H	-1.135926835	 3.9815264469	 0.5234309819	 0.097657
H	-0.9452978635	 3.9135660936	 2.2896638355	 0.127259
H	 0.8720475535	 3.7699395117	-0.7971150111	 0.083923
H	 2.4324207562	 3.6280048894	 0.1005633255	 0.133856
116.2366	159.5867	253.89	296.692	395.3305	421.3877	477.0944	555.0886	558.3051	664.6173	841.8768	874.4968	927.1803	982.2238	1033.0952	1042.7442	1059.7965	1110.8955	1149.0601	1200.9021	1231.0413	1268.9802	1308.4963	1332.1799	1364.1524	1385.2479	1397.2049	1443.8939	1468.722	1494.8078	1508.0474	2371.2521	2920.3039	2953.9027	2968.1154	3061.3207	3105.946	3117.2037	3131.0971
N#CC1CCOCO1	N#C[C@H]1CCOCO1	
InChI=1S/C5H7NO2/c6-3-5-1-2-7-4-8-5/h5H,1-2,4H2	InChI=1S/C5H7NO2/c6-3-5-1-2-7-4-8-5/h5H,1-2,4H2/t5-/m1/s1
