18
gdb 95431	2.72428	1.2042	0.85865	6.7049	79.82	-0.2097	-0.0207	0.189	1296.1603	0.148693	-439.116069	-439.107428	-439.106484	-439.149344	32.38	
O	-0.0615253882	 1.4466222152	 0.0766400403	-0.419577
C	-0.003701085	 0.0320301244	-0.001417875	 0.090233
C	 0.8198809054	-0.5320542408	 1.1720686794	-0.185061
N	 0.7691428864	-1.9868614462	 1.1638706171	-0.306375
C	-0.3775076143	-2.6215946104	 0.80770434	-0.015542
C	-1.4533181311	-1.9910520749	 0.2716889404	 0.123248
C	-1.4361058591	-0.4994889203	 0.0394710959	-0.308623
C	-2.6090099756	-2.7766051914	-0.1061062045	 0.081185
O	-3.6219704947	-2.3346538313	-0.6162313803	-0.314793
H	 0.8023514203	 1.8021166634	-0.1547760365	 0.284417
H	 0.4702785428	-0.2921203074	-0.9404327711	 0.081775
H	 1.8652075847	-0.2148521843	 1.0895390819	 0.101489
H	 0.415499939	-0.1159947191	 2.1062829012	 0.120541
H	 1.4603093753	-2.493970977	 1.6892620472	 0.254042
H	-0.3817167216	-3.6985993719	 0.9527090872	 0.117959
H	-1.9810132495	 0.0324869336	 0.8301454126	 0.122509
H	-1.954920772	-0.2639380749	-0.8939450466	 0.132741
H	-2.5100495329	-3.8678541465	 0.1094562907	 0.039832
91.98	155.735	178.7591	198.6323	281.318	315.5046	353.6639	383.4105	429.1986	438.7641	481.8821	542.2369	606.6245	737.1392	878.8141	887.2366	923.7119	950.0738	1001.6473	1029.3721	1076.1134	1087.5255	1102.85	1182.3925	1217.443	1240.1785	1267.9155	1294.4943	1307.9743	1339.9919	1382.7397	1401.492	1431.6821	1443.1742	1483.1395	1502.4534	1530.1104	1687.7449	1766.2055	2832.77	2984.2977	3002.8596	3031.4583	3065.5709	3093.0605	3171.5969	3656.6931	3818.9794
OC1CNC=C(C1)C=O	O[C@H]1CNC=C(C1)C=O	
InChI=1S/C6H9NO2/c8-4-5-1-6(9)3-7-2-5/h2,4,6-7,9H,1,3H2	InChI=1S/C6H9NO2/c8-4-5-1-6(9)3-7-2-5/h2,4,6-7,9H,1,3H2/t6-/m1/s1
