15
gdb 61695	2.16398	1.25985	1.02772	4.152	75.	-0.2733	-0.01	0.2634	1210.7269	0.106973	-420.564288	-420.554476	-420.553532	-420.59893	35.054	
C	-0.0276745629	 1.6045002359	-0.0527311669	-0.401432
C	-0.0154897242	 0.0632197655	 0.0156341944	-0.026829
O	 0.753814372	-0.3504258047	 1.1867797346	-0.217417
C	 0.182201451	-0.2613961605	 2.4093151036	 0.175107
O	 0.7955389509	-0.5010945543	 3.4053048167	-0.272202
C	-1.3845673095	-0.4740807861	 0.0431023599	 0.329309
C	-2.5123087985	-0.8868733169	 0.0467885134	-0.46114
C	 0.7046955865	-0.4914987271	-1.1346458668	 0.347746
C	 1.2878739696	-0.9087921383	-2.096307946	-0.430165
H	 1.001707333	 1.9682148248	-0.0412846215	 0.150282
H	-0.5185522106	 1.9330981255	-0.9708264917	 0.147804
H	-0.5693495447	 2.0137600719	 0.803529621	 0.133593
H	-0.8802592442	 0.0316886798	 2.3819235489	 0.098727
H	-3.5049942925	-1.2667577552	 0.0488657248	 0.215664
H	 1.8057308439	-1.2932575502	-2.9407880945	 0.210951
85.2713	116.878	125.8843	152.913	186.759	218.5816	250.1695	314.4513	388.3596	467.0601	470.8638	513.9444	560.7473	624.1759	647.9979	650.2771	683.8253	686.62	778.1061	931.2529	953.8378	1044.3682	1065.0354	1137.8914	1164.906	1237.9977	1402.119	1432.2748	1481.0505	1484.6277	1861.0571	2236.8419	2251.3225	3006.6188	3056.0808	3140.1705	3150.1966	3495.6571	3499.4393
CC(OC=O)(C#C)C#C	CC(OC=O)(C#C)C#C	
InChI=1S/C7H6O2/c1-4-7(3,5-2)9-6-8/h1-2,6H,3H3	InChI=1S/C7H6O2/c1-4-7(3,5-2)9-6-8/h1-2,6H,3H3
