17
gdb 66662	4.3591	1.20719	1.15135	1.1375	85.19	-0.214	0.0341	0.2481	1117.3848	0.133936	-347.41794	-347.410127	-347.409183	-347.449824	31.24	
C	-0.0311792714	 1.503769584	-0.0100662967	-0.522903
C	 0.0084531446	 0.0120488874	 0.0111565203	 0.355806
C	-0.0585282876	-1.0027370606	-1.1247507586	-0.148934
C	 0.8092317244	-1.9923834661	-0.2968713755	-0.152023
C	 0.8816053043	-0.9914868849	 0.8340552396	-0.222499
C	-0.2666731792	-2.0144894415	 0.802551767	 0.358443
C	-0.6057246465	-3.0272938414	 1.72459217	 0.022086
C	-0.9103501387	-3.8890230252	 2.5101150115	-0.380703
C	-1.1214245367	-1.0069484787	-0.0334264032	-0.234258
H	 0.9374568103	 1.9279108464	-0.2995586387	 0.123097
H	-0.7773011579	 1.8576285748	-0.7300719742	 0.12379
H	-0.2969815685	 1.9127334635	 0.9717967691	 0.124857
H	-0.1665097215	-0.8438726604	-2.1892543691	 0.09004
H	 1.4921169571	-2.7853853779	-0.5696836361	 0.099842
H	 1.6293379871	-0.8601039257	 1.6050451409	 0.09775
H	-1.1746679248	-4.6491497177	 3.2021124734	 0.174115
H	-2.190749645	-0.857895976	-0.1011556096	 0.091494
121.68	146.1889	221.1431	256.0313	278.5006	474.7181	487.2936	497.1638	542.0641	604.2174	661.3814	665.7126	757.9743	784.5931	819.9833	838.7004	853.3074	869.233	886.5503	904.3898	954.5724	976.528	989.7776	1051.3347	1094.2834	1101.62	1124.6916	1152.7692	1219.744	1240.8232	1265.8523	1381.7868	1407.3928	1438.8437	1481.2865	1498.6859	2224.7475	3019.4599	3079.1147	3091.7053	3195.7437	3201.562	3209.6579	3214.5657	3503.92
CC12C3C4C1C4(C#C)C23	C[C@@]12[C@H]3[C@H]4[C@@H]1[C@@]4(C#C)[C@@H]23	
InChI=1S/C9H8/c1-3-9-5-4-6(9)8(4,2)7(5)9/h1,4-7H,2H3	InChI=1S/C9H8/c1-3-9-5-4-6(9)8(4,2)7(5)9/h1,4-7H,2H3/t4-,5-,6+,7-,8-,9+/m0/s1
