20
gdb 117246	2.518	1.13452	1.10124	2.1702	76.91	-0.2342	-0.0003	0.2338	1266.5387	0.168953	-440.270651	-440.260548	-440.259604	-440.306518	35.363	
C	 0.9692991271	 0.1063087179	 0.3246991753	-0.244243
O	 1.13529212	 0.0124600256	-1.0808630214	-0.241131
C	 0.017128512	-0.5557747791	-1.7472058129	-0.159763
C	 0.0259264746	-2.075509309	-1.5558069548	 0.369053
O	-0.5702807241	-2.6226654021	-0.648975424	-0.35671
N	 0.7549254997	-2.7659948324	-2.5041110528	-0.081651
C	 2.1150987632	-2.5160471138	-2.939228627	-0.261098
C	 1.7283441224	-3.8090158055	-2.266566945	 0.014304
C	 2.189569816	-4.1242475813	-0.8636676075	-0.406076
H	 0.1154234774	 0.7518065991	 0.5783868906	 0.111983
H	 0.8092294449	-0.8738311817	 0.7905266658	 0.134095
H	 1.8847551748	 0.5534041036	 0.719259461	 0.125607
H	-0.9273910687	-0.1592612266	-1.3521970933	 0.111327
H	 0.1156545822	-0.2905695769	-2.8033101064	 0.116514
H	 2.2744750125	-2.4881915587	-4.0143590743	 0.122794
H	 2.6966945675	-1.8014876464	-2.3632935246	 0.144465
H	 1.5993051809	-4.6755135131	-2.9136445529	 0.102625
H	 2.4129007413	-3.2105582267	-0.305807887	 0.127299
H	 1.4175443191	-4.6700443526	-0.3152872131	 0.150205
H	 3.0958163271	-4.7371930804	-0.8977962258	 0.1204
50.1118	66.7485	111.0002	148.2929	173.5115	190.1687	220.2784	299.2388	355.7515	377.9277	417.0023	450.0056	624.1478	662.6093	784.904	829.6052	911.4887	924.8248	933.7791	1021.6498	1044.5508	1066.1562	1111.5931	1129.6768	1138.5359	1161.7585	1184.0186	1194.0772	1201.7932	1225.2191	1301.8531	1372.6675	1391.0158	1413.4405	1443.4989	1473.6387	1483.834	1486.2509	1487.2848	1492.3994	1513.6248	1514.9646	1770.2941	2994.0637	3021.1844	3044.3322	3059.782	3100.197	3106.311	3108.8356	3120.4487	3121.0935	3129.9294	3200.4919
COCC(=O)N1CC1C	COCC(=O)N1C[C@H]1C	
InChI=1S/C6H11NO2/c1-5-3-7(5)6(8)4-9-2/h5H,3-4H2,1-2H3	InChI=1S/C6H11NO2/c1-5-3-7(5)6(8)4-9-2/h5H,3-4H2,1-2H3/t5-,7?/m1/s1
