21
gdb 73285	2.28466	1.68902	1.31903	2.1616	77.42	-0.2414	0.0688	0.3101	1071.8537	0.184287	-424.226491	-424.218337	-424.217393	-424.258837	32.607	
O	-0.0576089463	 1.4123501893	 0.0959215741	-0.483009
C	 0.0572137689	 0.0135889106	-0.0169719694	 0.333895
C	 0.1703290287	-0.6188423879	-1.4290457441	-0.131675
O	-0.8732407923	-1.5582133281	-1.0898000903	-0.302634
C	-1.3214202861	-0.6900252255	-0.0151232266	 0.13531
C	-1.8274248184	-1.3998661662	 1.2283748934	-0.239841
C	-0.7097259023	-1.9879353167	 2.1006441052	-0.192112
C	 0.4009131919	-0.953386373	 2.3290132079	-0.196051
C	 1.0528351369	-0.5904208428	 0.9893425961	-0.25495
H	 0.8238636187	 1.7859734701	 0.197814242	 0.276734
H	-0.1440537155	 0.0756957152	-2.2206280131	 0.094338
H	 1.1022357465	-1.119277397	-1.7134335249	 0.095168
H	-2.0851089368	 0.0040589696	-0.3962586813	 0.074312
H	-2.3923652025	-0.6645265803	 1.8161059072	 0.104248
H	-2.5429979239	-2.1722419103	 0.9231034955	 0.108996
H	-1.1278668936	-2.3246792129	 3.0550184335	 0.091247
H	-0.2824587224	-2.872990369	 1.6129503066	 0.105834
H	-0.0169004982	-0.0529643972	 2.7985726497	 0.100566
H	 1.158463315	-1.3474705989	 3.0147549878	 0.091777
H	 1.4873354834	-1.5010005485	 0.5620097477	 0.108971
H	 1.8857816884	 0.1121259894	 1.128833893	 0.078874
108.883	147.2771	250.5167	266.667	288.8265	356.6482	374.8591	426.223	458.8618	495.4139	636.0981	652.6374	742.661	800.3514	847.1341	871.6556	906.9049	942.2472	964.2028	984.5982	1002.5439	1040.2868	1055.4478	1075.6925	1107.3131	1139.7542	1158.1902	1177.1963	1179.2631	1233.9162	1272.4759	1293.1488	1300.5435	1335.0433	1358.132	1371.6552	1379.8522	1382.7199	1398.3521	1421.037	1462.9884	1476.0724	1487.7955	1497.4497	1517.6083	2990.5172	3004.4872	3011.0066	3021.8681	3026.4858	3030.1958	3060.3583	3066.559	3070.4133	3074.0294	3080.2316	3809.2903
OC12COC1CCCC2	O[C@]12CO[C@H]1CCCC2	
InChI=1S/C7H12O2/c8-7-4-2-1-3-6(7)9-5-7/h6,8H,1-5H2	InChI=1S/C7H12O2/c8-7-4-2-1-3-6(7)9-5-7/h6,8H,1-5H2/t6-,7+/m0/s1
