23
gdb 76820	2.58769	1.46351	1.14933	0.4904	91.96	-0.219	0.0281	0.2471	1195.6158	0.206782	-351.150625	-351.141782	-351.140838	-351.183702	34.944	
C	-0.2172451743	 1.5585621472	-0.0623744443	-0.39469
C	-0.0626053362	 0.045129751	-0.0147042931	-0.031311
C	 1.1673297237	-0.5373025725	-0.846120773	-0.07954
C	 1.7626997667	 0.2255417692	-2.0208708343	-0.411394
C	 1.8882187119	-0.5714676702	 0.4807550879	 0.309057
C	 2.9598311074	-0.1452977142	 1.1417514582	-0.247025
C	 2.5866051318	 0.0998921245	 2.6025680476	-0.234258
C	 1.0268120017	 0.2428116062	 2.563326865	-0.247822
C	 0.6240450234	-0.5323798107	 1.2916935628	-0.045441
H	 0.718718892	 2.070358397	 0.1844535177	 0.120324
H	-0.5265903562	 1.8930023475	-1.0581822542	 0.11243
H	-0.9775997876	 1.8938691971	 0.6510066582	 0.113955
H	-1.0159534993	-0.4322269858	-0.2614358662	 0.062735
H	 0.9000226909	-1.5526048864	-1.1663301772	 0.080087
H	 2.0455653583	 1.243570165	-1.7381693149	 0.119113
H	 2.6625190535	-0.2779222375	-2.3904534704	 0.117587
H	 1.0532752103	 0.2869906416	-2.8533883584	 0.112974
H	 3.9412118055	 0.0756090185	 0.7374523168	 0.085776
H	 2.8963939795	-0.7316721064	 3.25188659	 0.101132
H	 3.0718527031	 0.996601392	 3.0043396871	 0.097302
H	 0.5476682398	-0.1318919614	 3.4723904092	 0.0901
H	 0.7651171054	 1.3022912029	 2.4721967716	 0.101114
H	 0.2086838386	-1.5214700447	 1.5196790338	 0.067794
93.7193	144.4496	200.4534	225.7915	234.5818	265.4985	274.5999	427.8074	470.5744	489.4957	581.0464	634.6439	716.9133	758.7635	788.2173	814.9647	864.9011	867.0122	906.9318	954.0386	976.6094	994.5199	1004.8012	1034.0273	1059.3196	1072.8314	1108.2168	1138.6069	1162.2566	1165.2215	1180.4327	1218.0269	1239.3755	1260.028	1274.1526	1305.3521	1327.4265	1335.8644	1357.5985	1374.7047	1406.5513	1409.7737	1482.2928	1487.0683	1493.3602	1498.7055	1500.3425	1507.5544	1731.6119	3001.991	3015.6196	3021.8657	3029.6231	3032.9203	3044.5644	3052.7748	3058.5267	3093.0091	3093.7452	3095.9344	3100.9612	3110.804	3193.3693
CC1C(C)C2=CCCC12	C[C@H]1[C@@H](C)[C]2[CH]CC[C@@H]12	
InChI=1S/C9H14/c1-6-7(2)9-5-3-4-8(6)9/h4,6-7,9H,3,5H2,1-2H3	InChI=1S/C9H14/c1-6-7(2)9-5-3-4-8(6)9/h4,6-7,9H,3,5H2,1-2H3/t6-,7+,9+/m1/s1
