18
gdb 40135	3.12443	1.46761	1.11164	1.9892	81.41	-0.2343	0.0158	0.2501	1109.0642	0.148349	-401.932233	-401.924354	-401.92341	-401.965309	30.32	
C	 0.1575370224	 1.5269380213	-0.0272128677	-0.313314
C	 1.4254111451	 0.7433727159	 0.1881714659	-0.307665
C	 0.0956319961	 0.0208562464	 0.0241738473	 0.404425
C	-0.4985449169	-0.6279625599	 1.2073546131	-0.111089
C	-0.8862858226	-1.8905726359	 1.3624179386	-0.09483
C	-0.8205724794	-3.0358489818	 0.3960878118	-0.209876
N	-0.3321278836	-2.8969128907	-0.9525766989	-0.262711
C	-0.0631062509	-1.8414486659	-1.5790054764	 0.114582
O	-0.0953937407	-0.5165603041	-1.2687721534	-0.281145
H	-0.2672872075	 2.0815694936	 0.8017749668	 0.1217
H	 0.0037126731	 1.970569475	-1.0034776236	 0.131149
H	 2.1138393899	 0.6636744291	-0.6448022604	 0.129641
H	 1.8858471354	 0.7423398494	 1.1694191772	 0.122913
H	-0.5895191065	 0.0422002542	 2.0593208784	 0.092749
H	-1.2917141068	-2.173734056	 2.3328690294	 0.090985
H	-0.2300730967	-3.8348837953	 0.8713780191	 0.126861
H	-1.8270450953	-3.476363199	 0.3136209549	 0.130163
H	 0.2150746748	-1.9196202265	-2.6308933321	 0.115463
43.477	86.0528	252.3701	289.4386	352.4419	388.5891	409.7055	440.8414	532.1829	633.9068	724.1434	767.4596	785.0595	820.5206	893.1727	900.6877	910.8136	941.3976	950.7908	979.139	996.2671	1007.3803	1040.7261	1060.0404	1080.7407	1180.1284	1193.3529	1214.0986	1284.5115	1291.3695	1312.87	1391.0702	1440.9892	1446.4146	1453.0335	1454.1736	1486.9636	1753.9657	1784.3029	2986.352	2993.7327	3127.5568	3128.9664	3140.4342	3142.794	3155.0963	3226.9709	3241.1882
C1CC11C=CCN=CO1	C1CC21C=CCN=CO2	
InChI=1S/C7H9NO/c1-2-7(3-4-7)9-6-8-5-1/h1-2,6H,3-5H2	InChI=1S/C7H9NO/c1-2-7(3-4-7)9-6-8-5-1/h1-2,6H,3-5H2
