17
gdb 89603	4.27883	0.95776	0.91278	1.9801	73.54	-0.2528	0.0414	0.2942	1297.8398	0.133768	-421.749884	-421.741286	-421.740342	-421.783494	32.564	
O	-0.0633196128	 1.4574187178	-0.0740086239	-0.432627
C	-0.0182221881	 0.0605431929	-0.0874700656	 0.143014
C	 0.4879832271	-0.6905460467	 1.2085815314	-0.339342
C	-0.8979259532	-1.336148582	 1.3074881266	 0.434935
C	-1.2864345521	-2.6538563691	 1.9218620021	-0.468466
C	-1.0456531457	-2.6960252283	 3.3620713872	 0.305813
C	-0.8313296837	-2.7174441151	 4.5437225984	-0.444986
O	-1.8412939576	-0.2520170494	 1.380912817	-0.297302
C	-1.366634564	-0.6642736963	 0.0830796916	-0.102262
H	-0.6602616536	 1.6960398212	 0.6472122919	 0.289542
H	 0.5299994059	-0.2407165962	-0.9830694531	 0.095566
H	 1.2914999214	-1.4002537621	 0.9961030588	 0.110157
H	 0.7683658127	-0.0549542075	 2.0511372357	 0.115409
H	-2.3459771461	-2.838669566	 1.7100401293	 0.146501
H	-0.718014978	-3.4554049884	 1.4320575377	 0.138809
H	-0.6518444876	-2.7390860434	 5.5901445002	 0.201063
H	-2.1174980349	-0.9397182615	-0.6496836753	 0.104176
62.86	84.1605	149.7129	246.2747	318.4377	342.742	395.7217	414.6528	448.9037	495.4375	625.3967	642.7246	650.9212	710.8797	718.1733	819.6074	875.8662	891.4457	938.2363	943.1	979.6062	994.2285	1037.3689	1113.2931	1131.4722	1168.8134	1193.0374	1236.9992	1250.7464	1286.8848	1323.9453	1329.4256	1433.1312	1446.9258	1453.2864	1482.9495	2243.676	3023.2616	3066.6192	3068.4601	3092.514	3130.1093	3179.2972	3505.44	3770.6485
OC1CC2(CC#C)OC12	O[C@H]1C[C@@]2(CC#C)O[C@@H]12	
InChI=1S/C7H8O2/c1-2-3-7-4-5(8)6(7)9-7/h1,5-6,8H,3-4H2	InChI=1S/C7H8O2/c1-2-3-7-4-5(8)6(7)9-7/h1,5-6,8H,3-4H2/t5-,6-,7+/m0/s1
