14
gdb 21916	5.08711	1.79739	1.41683	1.3183	64.26	-0.2459	0.0157	0.2616	835.2701	0.109807	-378.696417	-378.690051	-378.689107	-378.727091	23.948	
O	 0.2606531131	 1.3472061253	 0.3053601212	-0.411848
C	 0.0940051505	-0.0138327755	 0.0374438693	-0.012186
C	-1.3923629279	-0.6004035617	 0.0141111494	-0.207084
N	-1.0840225475	-0.9781814718	-1.3711769935	 0.092193
N	-1.4782783768	-1.6695792477	-2.4411931493	-0.300023
C	-0.3831520721	-1.5974255692	-3.2231758841	 0.015039
C	 0.700174314	-0.8934782353	-2.6323480041	-0.398203
C	 0.1762507495	-0.5138161672	-1.4079588022	 0.318436
H	-0.1500854153	 1.8486079245	-0.4081860001	 0.289735
H	 0.7393574422	-0.5448459894	 0.7410676574	 0.121457
H	-1.5848027157	-1.4483296698	 0.6766418386	 0.136982
H	-2.1811728581	 0.1499357048	 0.1138351755	 0.129377
H	-0.4082996355	-2.0561974872	-4.2013891082	 0.114276
H	 1.6748311296	-0.7124373199	-3.05291771	 0.11185
109.8959	151.316	286.17	375.0361	458.1786	506.4229	649.0186	670.0061	766.6637	771.0937	792.1813	851.8974	880.8115	959.3227	999.956	1034.7965	1073.9205	1130.6455	1151.8279	1189.7272	1200.9967	1260.9593	1286.7239	1302.1693	1356.1053	1403.4684	1439.2787	1475.8852	1513.2914	1556.3311	3058.9301	3093.329	3120.9416	3241.5786	3280.4306	3800.4993
OC1CN2N=CC=C12	O[C@H]1Cn2nccc12	
InChI=1S/C5H6N2O/c8-5-3-7-4(5)1-2-6-7/h1-2,5,8H,3H2	InChI=1S/C5H6N2O/c8-5-3-7-4(5)1-2-6-7/h1-2,5,8H,3H2/t5-/m0/s1
