14
gdb 14260	4.18807	1.75297	1.57576	5.1537	57.25	-0.2717	0.0091	0.2808	817.1413	0.107467	-419.675696	-419.668939	-419.667995	-419.7069	25.115	
O	-0.335390964	 1.4271976607	 0.3770985856	-0.417587
C	-0.0606671682	 0.0795722224	 0.1279457983	 0.13063
C	 0.372201331	-0.8581671445	 1.3050402292	-0.294558
C	-0.8110664169	-1.8186520828	 0.9428090919	-0.234298
C	-1.3143864136	-0.78604939	-0.1005318736	 0.090134
O	-2.4243343987	-0.4416373818	 0.7801455814	-0.243358
C	-2.074369023	-1.4147129411	 1.6937079687	 0.461939
O	-2.6468701149	-1.7111525991	 2.6907987046	-0.323008
H	 0.4978367057	 1.8966943652	 0.4851829849	 0.291917
H	 0.6199718201	-0.0542045107	-0.7266362229	 0.079752
H	 1.3621245832	-1.3022076538	 1.1892982029	 0.115316
H	 0.2931285074	-0.4081508121	 2.2963435552	 0.131627
H	-0.6138877409	-2.8722828262	 0.7648946098	 0.110317
H	-1.6667179373	-0.9967785064	-1.1087028659	 0.101175
79.0539	196.7775	243.3719	256.4604	397.3173	450.8393	570.6215	620.7973	730.9382	798.0057	809.6465	853.347	902.6853	914.6054	988.5238	1000.3333	1056.2541	1082.7368	1105.7405	1147.5977	1191.2122	1212.3463	1220.0113	1234.0074	1281.4481	1319.3125	1336.3185	1433.2688	1482.8275	1940.2816	2985.4875	3078.3672	3133.9313	3136.3088	3160.2561	3821.3213
OC1CC2C1OC2=O	O[C@H]1C[C@@H]2[C@H]1OC2=O	
InChI=1S/C5H6O3/c6-3-1-2-4(3)8-5(2)7/h2-4,6H,1H2	InChI=1S/C5H6O3/c6-3-1-2-4(3)8-5(2)7/h2-4,6H,1H2/t2-,3+,4-/m1/s1
