23
gdb 59832	4.45962	0.57779	0.55248	0.3028	97.8	-0.2263	0.0555	0.2819	2134.0467	0.204022	-351.129496	-351.118767	-351.117823	-351.167479	38.803	
C	-0.474087315	 1.3205917286	-0.1099600776	-0.379429
C	 0.0726266983	-0.1006007959	 0.0609982753	 0.05348
C	 0.8217977579	-0.5668681738	-1.192641131	-0.390157
C	 0.9929538357	-0.2090093636	 1.3025807503	-0.348097
C	 0.3281494773	 0.079449932	 2.5687518004	 0.014679
C	-0.2412949293	 0.3127816259	 3.6064247608	 0.130426
C	-0.9066400431	 0.5968966156	 4.8456147772	-0.156666
C	-2.231294277	-0.0723825394	 5.1784021037	-0.25188
C	-0.9948507343	-0.4639728954	 5.9319936629	-0.251434
H	 0.3400669836	 2.0308292259	-0.3005848148	 0.107546
H	-1.1670112019	 1.3756573853	-0.9558403833	 0.10756
H	-1.0029858912	 1.6493882723	 0.7887782461	 0.127352
H	-0.7761819766	-0.776469391	 0.2285150454	 0.08073
H	 1.6917692739	 0.0713863712	-1.3897950209	 0.111765
H	 1.1808332181	-1.5963882557	-1.0876147027	 0.109223
H	 0.1755151043	-0.5254844737	-2.0752071042	 0.110679
H	 1.4225175329	-1.2191438714	 1.3406520279	 0.118548
H	 1.8453300413	 0.4735318211	 1.171943866	 0.119683
H	-0.7989837914	 1.6184235095	 5.199743535	 0.106104
H	-2.9792085895	 0.5286361036	 5.683360249	 0.115782
H	-2.6260442584	-0.7694507125	 4.4490198067	 0.123868
H	-0.5490150114	-1.427224776	 5.7150776561	 0.124284
H	-0.8859708343	-0.1341063123	 6.9590804517	 0.115952
11.562	58.3923	70.9927	137.6142	183.7262	225.3819	253.8695	300.879	327.4565	340.4049	416.2798	436.8991	505.2257	544.4846	708.3804	795.3418	815.3174	820.4472	877.5405	896.5256	908.0678	931.5832	951.8603	968.868	1059.5279	1061.8306	1078.4846	1119.0687	1125.6653	1139.397	1183.2053	1191.3024	1200.9954	1230.1243	1257.7697	1310.143	1365.7821	1368.5253	1393.2701	1400.2077	1420.449	1466.3943	1466.6216	1488.5396	1493.0603	1497.2424	1503.1396	1510.6523	2357.5268	2999.3829	3016.2451	3022.1988	3027.9762	3036.4099	3086.5684	3092.7099	3099.6318	3114.3834	3138.2218	3138.8497	3144.6783	3223.3964	3238.6097
CC(C)CC#CC1CC1	CC(C)CC#CC1CC1	
InChI=1S/C9H14/c1-8(2)4-3-5-9-6-7-9/h8-9H,4,6-7H2,1-2H3	InChI=1S/C9H14/c1-8(2)4-3-5-9-6-7-9/h8-9H,4,6-7H2,1-2H3
