18
gdb 34069	3.92016	1.38653	1.37579	1.2182	80.67	-0.2352	0.0522	0.2873	995.7985	0.150145	-364.77818	-364.771281	-364.770337	-364.809112	28.985	
C	 0.0207058097	-1.1506580158	-0.0125528185	-0.329151
C	 0.0170867609	 0.0519963924	 0.0101992604	 0.050904
C	 0.002959033	 1.4940548842	 0.0208938403	 0.171321
C	-0.7167226905	 2.2053006371	 1.2020246319	-0.260916
C	-0.4937236636	 3.6264455431	 0.7048390958	-0.04868
C	 0.7993705855	 3.6444377773	-0.0354020044	-0.048696
C	 1.370686533	 2.234346232	 0.0070888806	-0.260877
N	-0.4857690252	 3.6301533695	-0.7809381775	-0.12792
C	-0.6877634256	 2.2199904156	-1.168061637	-0.183323
H	 0.0261902079	-2.2120760887	-0.0288217038	 0.178946
H	-1.7714974493	 1.9255923605	 1.2714141008	 0.11208
H	-0.2341445769	 2.0082717262	 2.1635628384	 0.110903
H	-0.9158828259	 4.4929777037	 1.199022702	 0.094148
H	 1.4209703163	 4.5254907506	-0.1387160409	 0.094144
H	 1.9595795854	 2.0388040462	 0.907771095	 0.110902
H	 1.9702595297	 1.9776024472	-0.8705262005	 0.11208
H	-0.2072274279	 2.0112901535	-2.1275980785	 0.112068
H	-1.7539182765	 1.9897769055	-1.2421996241	 0.112067
150.2986	151.2515	402.2709	416.4884	445.1173	515.1408	520.6189	524.0076	622.909	634.2595	670.7591	681.0497	792.5878	804.5583	847.9868	914.2194	939.364	939.9742	962.1597	967.0013	1011.8264	1037.5286	1057.4105	1114.6616	1125.6808	1162.0322	1163.1414	1215.444	1217.8441	1223.6242	1259.0298	1280.1692	1304.5255	1324.9832	1383.9789	1485.6475	1489.5504	1515.3777	2237.4581	3057.7953	3058.4956	3065.4478	3106.042	3110.4526	3115.2775	3182.9794	3193.0782	3504.4968
C#CC12CC3C(C1)N3C2	C#C[C@@]12C[C@H]3[C@@H](C1)N3C2	
InChI=1S/C8H9N/c1-2-8-3-6-7(4-8)9(6)5-8/h1,6-7H,3-5H2	InChI=1S/C8H9N/c1-2-8-3-6-7(4-8)9(6)5-8/h1,6-7H,3-5H2/t6-,7+,8+,9?
