17
gdb 48702	3.71315	1.15185	1.0111	1.9681	75.19	-0.2536	-0.0272	0.2264	1175.6352	0.134794	-421.786998	-421.779133	-421.778189	-421.819603	29.962	
O	-0.1361376813	 0.0246727101	 0.0416724671	-0.267013
C	 0.0069396583	 1.2215180102	-0.0478424287	 0.059194
C	 1.3005934134	 1.9086250593	-0.0025757744	 0.263987
C	 1.4383708285	 3.3779367978	 0.3210374634	-0.336956
C	 1.796553379	 2.956217759	-1.0628718255	-0.184313
C	 3.121437535	 2.2295351809	-1.0779777091	 0.471429
C	 4.0234391568	 2.0190378814	-2.2068392841	-0.270754
O	 4.3775281729	 2.8830443304	-1.1144554098	-0.270562
C	 2.6725838447	 1.2236946115	-0.0013737024	-0.40146
H	-0.8659906119	 1.9004648236	-0.1909957754	 0.065889
H	 0.5061045155	 3.9279746367	 0.4094567715	 0.129379
H	 2.2087341567	 3.6815467191	 1.0243583682	 0.135855
H	 1.2573741617	 3.3165883489	-1.9307543483	 0.109676
H	 4.5924775716	 1.0928248426	-2.2759450743	 0.122291
H	 3.8364606641	 2.5217639182	-3.1552540144	 0.118927
H	 3.2204888318	 1.2613062412	 0.9440737425	 0.1178
H	 2.6268743632	 0.1927870693	-0.3569762163	 0.13663
75.5235	152.4808	177.0601	282.6128	291.6273	369.5122	392.8495	477.0059	494.7966	572.1212	736.979	755.0338	808.2065	854.5509	879.3274	935.5719	942.8442	976.7459	981.9506	1010.5553	1046.9554	1093.1118	1106.3579	1119.7267	1138.1124	1161.7184	1178.943	1232.3347	1249.9469	1288.0079	1379.6999	1435.4059	1445.1683	1478.0891	1491.6185	1539.8583	1801.5216	2857.7478	3066.33	3080.0875	3118.6019	3129.1713	3167.0381	3188.6269	3206.1892
O=CC12CC1C1(CO1)C2	O=C[C@]12C[C@H]1[C@]1(CO1)C2	
InChI=1S/C7H8O2/c8-3-6-1-5(6)7(2-6)4-9-7/h3,5H,1-2,4H2	InChI=1S/C7H8O2/c8-3-6-1-5(6)7(2-6)4-9-7/h3,5H,1-2,4H2/t5-,6-,7-/m1/s1
