21
gdb 102176	2.17211	1.08871	0.78366	1.8368	84.52	-0.2601	0.0535	0.3136	1490.1457	0.179758	-387.039051	-387.028813	-387.027868	-387.074765	37.216	
C	 0.3001959447	-0.4307633553	 1.591000247	-0.388882
C	-0.0685772617	-0.1299393389	 0.1349186669	-0.184777
C	-1.4286179741	-0.6986898416	-0.3027300381	-0.004637
C	-1.8296209247	-0.2147173321	-1.7211354018	-0.368008
C	-2.0061240002	 1.2285403087	-1.8177323703	 0.299734
C	-2.1547047594	 2.4203577135	-1.8755760716	-0.446252
C	-1.4331192256	-2.2133111145	-0.2885235558	 0.083908
C	-2.036764302	-3.0027857167	 0.7921533598	-0.182152
O	-2.703999899	-2.8477954414	-0.4609642506	-0.245324
H	 1.2572347624	 0.0304795162	 1.8530697678	 0.116013
H	-0.4564681403	-0.036811335	 2.2786591626	 0.116454
H	 0.3893430022	-1.5056813468	 1.7766076849	 0.117948
H	-0.0864697603	 0.9536322634	-0.0219383344	 0.117273
H	 0.7123995846	-0.5212061619	-0.5323440996	 0.092919
H	-2.2024171667	-0.3523803933	 0.3939836586	 0.086294
H	-1.0676539618	-0.5396948662	-2.4432028142	 0.12416
H	-2.76081819	-0.7180000718	-2.005636539	 0.149972
H	-2.289961307	 3.4713307276	-1.9414595561	 0.193486
H	-0.6306641485	-2.6802670896	-0.8661257362	 0.090932
H	-1.6690032473	-4.0055361284	 1.0060280821	 0.115291
H	-2.4993841355	-2.4895679656	 1.6341888879	 0.115647
68.4902	81.2997	93.8279	131.4634	186.2407	229.4358	245.5907	322.1874	351.7955	361.6266	419.7902	496.1571	561.7714	613.5066	639.0514	757.0421	822.7589	858.0536	871.8761	931.0504	958.0546	973.9341	1019.5751	1024.9303	1087.5338	1110.4358	1122.1423	1159.441	1166.0249	1187.3573	1231.5292	1268.584	1288.7649	1310.6105	1335.5432	1363.0921	1380.6065	1413.506	1447.9772	1474.0534	1490.2513	1501.1703	1508.6565	1530.1967	2235.9608	3011.3967	3013.4081	3033.0133	3035.72	3064.8271	3070.4203	3075.2318	3082.91	3101.2457	3108.3952	3168.2079	3506.8821
CCC(CC#C)C1CO1	CC[C@@H](CC#C)[C@H]1CO1	
InChI=1S/C8H12O/c1-3-5-7(4-2)8-6-9-8/h1,7-8H,4-6H2,2H3	InChI=1S/C8H12O/c1-3-5-7(4-2)8-6-9-8/h1,7-8H,4-6H2,2H3/t7-,8+/m0/s1
