18
gdb 10215	3.98237	1.05679	0.88157	3.7254	65.47	-0.2537	-0.0353	0.2184	1301.1669	0.151219	-422.067497	-422.058042	-422.057098	-422.102335	32.28	
C	-0.0109325504	 1.4699104132	 0.0832566526	-0.232222
O	 0.1030005654	 0.0674446338	-0.009022629	-0.235295
C	 0.6412356265	-0.5209854553	 1.1537940226	-0.083722
C	 0.6662675695	-2.0410437942	 0.9591872039	-0.122621
C	 1.4432868438	-2.7705535361	 2.0675134928	-0.07452
O	 1.5840467912	-4.148923897	 1.8109013983	-0.427105
C	-0.7449797524	-2.5786553269	 0.8122239336	 0.160697
O	-1.1314246631	-3.6208448176	 1.2923173354	-0.268021
H	 0.9691617399	 1.946633993	 0.2381877598	 0.110416
H	-0.4324856995	 1.8248589462	-0.8597196173	 0.134154
H	-0.6750296361	 1.7712935576	 0.9080975125	 0.109774
H	 1.6645618135	-0.1541988226	 1.3395109075	 0.100316
H	 0.0378466528	-0.2511416374	 2.0383478178	 0.095612
H	 1.1639716231	-2.2318157605	-0.0035935776	 0.126484
H	 2.4547878817	-2.3552007601	 2.1345300865	 0.107897
H	 0.9497794259	-2.5852618541	 3.0360267233	 0.091623
H	 0.6835210794	-4.4994831399	 1.7853210401	 0.29487
H	-1.4302557113	-1.9410919421	 0.218349497	 0.111662
75.371	89.3097	104.2645	137.3762	171.9614	230.9842	240.5214	332.2617	347.7017	378.2124	487.9592	580.0078	664.2246	831.5013	917.0734	927.6153	975.9891	1077.0452	1090.8488	1120.1357	1140.9756	1161.9048	1185.6876	1212.6624	1232.0124	1246.412	1271.3219	1357.8252	1388.5391	1416.3844	1422.3526	1454.8861	1482.0225	1486.6269	1502.0418	1506.2564	1531.7786	1801.4527	2939.879	2948.1604	2968.9243	2977.2424	2979.9861	3015.6217	3024.2116	3065.3405	3121.5822	3755.1115
COCC(CO)C=O	COC[C@@H](CO)C=O	
InChI=1S/C5H10O3/c1-8-4-5(2-6)3-7/h2,5,7H,3-4H2,1H3	InChI=1S/C5H10O3/c1-8-4-5(2-6)3-7/h2,5,7H,3-4H2,1H3/t5-/m1/s1
