16
gdb 37404	2.91248	2.25242	1.81382	0.4409	65.1	-0.2352	0.0494	0.2846	791.5874	0.127921	-437.803628	-437.798032	-437.797088	-437.833278	24.328	
N	-0.0368516272	 1.4980802146	 0.0257098031	-0.304042
C	 1.4485033636	 1.4365401496	 0.0119141847	-0.104077
C	 1.9839536369	 1.2662707975	 1.4397631682	 0.050674
O	 0.9794660715	 1.3431461022	 2.4715129753	-0.260347
C	 1.4648523898	 0.0558701593	 2.0845182252	 0.057559
C	 0.7098607562	-0.7945641831	 1.0728114813	 0.004088
O	 1.7511781691	-1.1151693986	 0.0867619219	-0.296924
C	 1.3032932331	-0.0053829302	-0.6867250333	 0.119796
C	-0.0781918264	 0.0383481997	-0.0343445895	-0.049158
H	-0.4064636969	 1.9059115658	 0.8801854053	 0.233072
H	 1.9428284264	 2.2360601131	-0.5432478402	 0.072747
H	 2.9487437077	 1.6862035834	 1.7080273386	 0.104291
H	 2.0283767433	-0.472498201	 2.8506052569	 0.10818
H	 0.2451972118	-1.6973749772	 1.4726860928	 0.078469
H	 1.5361571181	-0.0726675045	-1.7482178614	 0.097171
H	-0.984185327	-0.4347193507	-0.416166759	 0.088502
285.7998	339.8809	409.4852	484.0701	559.1173	643.4034	676.767	718.1486	756.0074	797.2196	820.4576	856.4898	860.0188	902.2207	950.6908	967.9464	1001.3018	1006.4288	1037.6359	1051.3497	1059.0937	1096.1098	1127.3162	1137.1381	1196.6174	1225.1035	1241.038	1267.5523	1298.4667	1303.1189	1320.4308	1331.7033	1364.4026	1395.3749	1442.7986	3086.6836	3092.8611	3103.012	3133.3132	3134.1756	3160.4655	3509.784
N1C2C3OC3C3OC2C13	N1[C@H]2[C@H]3O[C@H]3[C@@H]3O[C@H]2[C@H]13	
InChI=1S/C6H7NO2/c7-1-3-2(7)5-6(9-5)4(1)8-3/h1-7H	InChI=1S/C6H7NO2/c7-1-3-2(7)5-6(9-5)4(1)8-3/h1-7H/t1-,2+,3-,4+,5+,6-/m0/s1
