19
gdb 84616	2.57349	1.52145	1.17171	2.8396	81.44	-0.2424	-0.024	0.2184	1105.1329	0.159015	-385.905852	-385.897552	-385.896608	-385.938532	31.984	
C	-0.1747662962	 1.610232488	-0.1681191105	-0.396266
C	 0.0071412334	 0.0889283141	-0.0503780137	-0.133076
C	 0.848393748	-0.5267984104	-1.15337095	-0.079998
C	 1.8209249922	-1.3126850742	-0.686994508	-0.09037
C	 1.8703682704	-1.3180285607	 0.8017380856	-0.099793
C	 2.1629805109	-0.004342057	 1.4574768429	-0.319403
C	 0.7110512579	-0.3800758404	 1.2283485994	 0.247416
C	-0.087556306	-0.7567515563	 2.4147236125	 0.068638
O	 0.3688901739	-1.083142244	 3.4861973314	-0.280023
H	 0.7871137004	 2.1298992022	-0.125354043	 0.121291
H	-0.6557877746	 1.8724353526	-1.1160281022	 0.116604
H	-0.8028704228	 1.9937475173	 0.6421487322	 0.120103
H	-0.9980600241	-0.363448827	-0.072431161	 0.084638
H	 0.6574821242	-0.3188007561	-2.2006910947	 0.098614
H	 2.5231538405	-1.8751806817	-1.2918178163	 0.103882
H	 2.0582987457	-2.229205565	 1.3589177146	 0.111521
H	 2.4696386625	-0.0272685818	 2.4974995805	 0.141491
H	 2.5870296308	 0.7865603423	 0.8488592239	 0.119101
H	-1.1899125371	-0.7358991918	 2.2484098462	 0.065629
100.6721	154.5416	203.0834	228.5116	240.4734	263.9015	354.9374	449.3434	519.5188	551.6147	666.7691	730.7511	738.3312	768.5356	820.5477	875.0422	898.7168	942.1544	960.5717	982.1953	1038.2357	1052.4156	1062.4527	1078.6673	1089.3718	1101.4182	1118.1607	1157.3475	1213.072	1267.1226	1308.8354	1339.4193	1358.7052	1391.2406	1411.5572	1431.4298	1457.1537	1495.6818	1498.5181	1669.5677	1800.041	2857.8691	2966.4641	3035.6159	3102.9686	3111.0904	3134.1188	3176.1623	3184.208	3208.4047	3232.0014
CC1C=CC2CC12C=O	C[C@H]1C=C[C@H]2C[C@@]12C=O	
InChI=1S/C8H10O/c1-6-2-3-7-4-8(6,7)5-9/h2-3,5-7H,4H2,1H3	InChI=1S/C8H10O/c1-6-2-3-7-4-8(6,7)5-9/h2-3,5-7H,4H2,1H3/t6-,7-,8+/m0/s1
