22
gdb 113385	2.90121	0.94638	0.81861	2.3203	79.02	-0.2512	0.0677	0.319	1501.3419	0.193804	-441.457106	-441.446851	-441.445907	-441.49262	37.753	
C	 0.4997424793	 1.4413229406	 0.1691643223	-0.376511
C	-0.2245477265	 0.1273001504	-0.1471337804	-0.198579
C	 0.3999072836	-0.5840906248	-1.3278722205	-0.049891
N	 1.6092416008	-1.3894560438	-1.0790083341	-0.378148
C	 0.3839393641	-2.0524453684	-1.5824936564	 0.253401
C	-0.1762127141	-3.0620716726	-0.5985423844	-0.132338
O	 0.7020114182	-4.1880294015	-0.4994163737	-0.423017
C	 0.4067323764	-2.5424709025	-3.0217699813	-0.130539
O	 1.3380105519	-3.5921759934	-3.219424241	-0.430029
H	 1.551087019	 1.2523929184	 0.4069390941	 0.130722
H	 0.4661865913	 2.1290956917	-0.6832229814	 0.112966
H	 0.0430233343	 1.9483062953	 1.0242057405	 0.114104
H	-0.1978546314	-0.5210912835	 0.7333696823	 0.105759
H	-1.2813361442	 0.3253615182	-0.3680454971	 0.099432
H	 0.4099775103	 0.0236946984	-2.2345037645	 0.081207
H	 2.2807169987	-1.295046827	-1.8373930339	 0.237999
H	-0.3332102317	-2.6140080952	 0.3886454659	 0.102391
H	-1.1348729067	-3.4579733609	-0.9488990346	 0.11384
H	 1.549985722	-3.8246109222	-0.2115007822	 0.297947
H	-0.6115815234	-2.847018397	-3.3183859246	 0.086595
H	 0.708374591	-1.7277414555	-3.6908957532	 0.095147
H	 1.2014628371	-4.2153827847	-2.4910126419	 0.287543
65.5353	88.7639	106.7114	155.1783	181.7605	230.4538	250.9021	314.5145	344.2566	367.6263	429.5318	453.3929	515.7195	636.9773	646.0373	738.6147	789.4578	862.3855	912.202	934.8878	940.3486	982.4018	1009.9316	1033.709	1069.9492	1077.8318	1094.3902	1111.3275	1127.6905	1200.2764	1228.5027	1240.7358	1298.0207	1313.0834	1344.7777	1354.6425	1375.8299	1393.7577	1407.3786	1429.2958	1471.9132	1474.5514	1479.4338	1495.1522	1497.6072	1507.898	1510.7409	2957.5226	3028.8969	3033.8589	3039.9548	3048.3294	3076.6238	3088.4988	3092.2716	3107.0923	3114.0392	3495.837	3720.2905	3770.8147
CCC1NC1(CO)CO	CC[C@H]1NC1(CO)CO	
InChI=1S/C6H13NO2/c1-2-5-6(3-8,4-9)7-5/h5,7-9H,2-4H2,1H3	InChI=1S/C6H13NO2/c1-2-5-6(3-8,4-9)7-5/h5,7-9H,2-4H2,1H3/t5-/m1/s1
