16
gdb 37163	3.96623	1.90781	1.653	2.8116	70.51	-0.23	0.0599	0.2898	819.0463	0.126329	-400.587685	-400.582123	-400.581178	-400.617201	24.734	
N	-0.0339186945	 1.4588624196	-0.2477454444	-0.329134
C	 1.2800939461	 0.8177594632	 0.0193992354	-0.031199
C	 0.0305874678	-0.0066292829	-0.0547879897	-0.219121
C	 0.3669778946	-0.7134040532	-1.3469197594	 0.510374
O	-0.0516061578	-1.6723378288	-2.3504578697	-0.399821
C	 1.2957870193	-1.1623777539	-2.7920564024	-0.014055
C	 1.8751940615	-1.1194186679	-1.3609927837	-0.10002
C	 2.0907318724	 0.4217324746	-1.2532719132	-0.125205
C	 1.0050765396	 0.288595435	-2.3450111428	-0.075928
H	-0.3710856605	 1.8978603195	 0.6074472731	 0.231974
H	 1.7805107715	 1.0066220221	 0.963006327	 0.095283
H	-0.4124232396	-0.4909039805	 0.8065821117	 0.105355
H	 1.6727057171	-1.5779393754	-3.7244034644	 0.09596
H	 2.3220556665	-1.9354190565	-0.7936413	 0.082725
H	 3.0540613353	 0.9036998623	-1.4161015276	 0.071498
H	 0.4611554508	 1.057849513	-2.8845114399	 0.101314
305.8059	342.9289	429.8302	545.84	554.1196	675.1619	706.6465	741.6549	775.0129	796.6003	827.0978	857.2131	861.0624	873.4688	897.2211	917.5849	924.7973	943.0022	1005.1451	1040.1008	1059.4846	1077.8035	1102.4829	1121.4245	1128.3537	1142.2236	1170.2553	1199.3466	1214.4026	1216.3973	1244.4427	1292.8746	1327.1941	1348.5241	1383.5839	3115.268	3124.1384	3141.5666	3171.0825	3172.67	3193.2173	3484.8402
N1C2C1C13OC4C1C2C34	N1[C@H]2[C@@H]1[C@]13O[C@@H]4[C@H]1[C@H]2[C@H]34	
InChI=1S/C7H7NO/c8-4-1-2-5-3(1)7(2,9-5)6(4)8/h1-6,8H	InChI=1S/C7H7NO/c8-4-1-2-5-3(1)7(2,9-5)6(4)8/h1-6,8H/t1-,2+,3-,4-,5+,6-,7-/m1/s1
