18
gdb 79779	2.9667	1.99721	1.79721	1.599	73.53	-0.2033	0.0624	0.2657	845.8613	0.150481	-401.849096	-401.842796	-401.841852	-401.879336	26.974	
O	 0.0574506919	 1.4633803888	 0.1603106669	-0.434586
C	-0.0094589803	 0.0725597751	-0.0532525403	 0.151899
C	-1.390877654	-0.5937219786	-0.076085372	-0.09106
C	-2.2942732955	-0.1197202062	-1.2863746106	-0.06664
C	-1.5547072157	 0.8858097896	-2.1851378821	-0.17829
N	-0.5830867972	-0.1980795297	-2.5893987212	-0.168234
C	 0.2895384433	-0.6161763921	-1.4120791959	-0.07732
C	-0.7558075195	-1.7079646211	-0.9988532652	-0.059748
C	-1.6299257528	-1.2256276675	-2.164985204	 0.009578
H	 0.9838467721	 1.7253162322	 0.1663109174	 0.284267
H	 0.5991592598	-0.4630093025	 0.6947956093	 0.070336
H	-1.904016648	-0.7964878626	 0.8630615407	 0.068385
H	-3.3629318855	-0.0287628666	-1.0837490393	 0.062256
H	-2.1495640795	 1.1439682833	-3.0682804799	 0.097075
H	-1.1201404126	 1.783021038	-1.7501219079	 0.12846
H	 1.3258144403	-0.8011452177	-1.7021958943	 0.067442
H	-0.5319502328	-2.7264897853	-0.6914553726	 0.068602
H	-2.1157447938	-1.8255216871	-2.9359438491	 0.067579
235.4338	239.2911	253.7048	422.8867	518.8986	558.1037	618.8582	704.0288	743.7141	766.9618	795.0134	811.321	831.9955	875.5146	897.6338	938.6259	943.5152	976.8708	1003.9534	1022.1184	1036.8399	1085.0247	1095.1416	1130.2964	1153.2692	1173.8448	1178.4103	1182.6885	1197.3607	1213.2059	1235.1096	1262.8626	1278.0959	1283.1754	1294.5263	1329.6245	1344.8188	1430.0696	1500.6187	2956.351	3042.166	3079.5917	3083.1792	3095.8839	3116.4337	3141.5651	3159.9748	3815.0087
OC1C2C3CN4C1C2C34	O[C@H]1[C@H]2[C@H]3CN4[C@@H]1[C@@H]2[C@@H]34	
InChI=1S/C7H9NO/c9-7-3-2-1-8-5(2)4(3)6(7)8/h2-7,9H,1H2	InChI=1S/C7H9NO/c9-7-3-2-1-8-5(2)4(3)6(7)8/h2-7,9H,1H2/t2-,3+,4+,5-,6-,7+/m1/s1
