17
gdb 68275	2.42599	1.52003	1.47155	4.1688	73.28	-0.248	0.0204	0.2683	1002.685	0.136095	-417.961839	-417.953486	-417.952542	-417.994254	32.483	
N	-0.0614960083	 1.3887244771	-0.1444857239	-0.619383
C	 0.0504408121	-0.0240581266	-0.0530402538	 0.296822
C	 0.6696775883	-0.9692357442	-1.1202015707	-0.280392
C	 0.0839607792	-1.9169805177	-0.0334797056	-0.107414
C	 0.6993946384	-0.9740612432	 1.034435161	-0.302837
C	-1.1777878247	-0.9839702581	-0.0205065988	 0.317304
O	-1.9547556861	-0.8790571128	 1.147900027	-0.484212
C	-2.0556401893	-1.0316004814	-1.1966378971	 0.217454
N	-2.7931305993	-1.1081991183	-2.08373572	-0.348303
H	-0.5239715333	 1.7677387576	 0.67637206	 0.243793
H	 0.8525668675	 1.8244065744	-0.2132663984	 0.236118
H	 0.2058681365	-0.9775029201	-2.1083028359	 0.131043
H	 1.7592453761	-0.9549685742	-1.185494461	 0.101024
H	 0.0769053616	-3.0049053895	-0.0399426154	 0.091495
H	 1.7908039297	-0.9594135637	 1.0748732271	 0.093632
H	 0.2472933884	-0.9795271763	 2.0243476137	 0.117122
H	-2.6362041668	-1.5597729431	 1.1318294018	 0.296734
126.9125	164.6827	172.4288	259.7293	280.7612	322.3656	359.6597	405.1194	510.6672	526.6666	536.0298	611.089	679.6131	687.9542	789.3961	809.1864	850.9052	933.8983	941.9751	958.4968	994.9645	1037.1429	1076.202	1086.5789	1116.1597	1142.663	1175.9416	1199.9478	1214.6682	1228.1009	1307.8966	1325.3919	1389.6237	1492.6773	1538.6175	1645.2805	2347.6338	3071.7704	3077.7599	3139.3902	3143.7626	3163.4981	3500.6265	3582.0996	3813.0236
NC12CC(C1)C2(O)C#N	N[C@@]12C[C@@H](C1)[C@]2(O)C#N	
InChI=1S/C6H8N2O/c7-3-6(9)4-1-5(6,8)2-4/h4,9H,1-2,8H2	InChI=1S/C6H8N2O/c7-3-6(9)4-1-5(6,8)2-4/h4,9H,1-2,8H2/t4-,5-,6-/m1/s1
