18
gdb 46295	3.19849	1.29475	1.21002	2.6114	78.66	-0.2504	0.0099	0.2603	1101.6123	0.149417	-401.960095	-401.952383	-401.951439	-401.99268	29.531	
N	-0.0297956507	 1.2042982823	-0.1998676592	-0.54747
C	 0.0270391769	-0.0268795476	 0.0274061275	 0.38861
O	 1.0801052862	-0.8228469092	 0.4240311727	-0.259759
C	 0.2268887692	-2.0079136023	 0.4598776345	-0.131561
C	-0.9934964077	-1.1582492841	-0.0023561745	 0.172629
C	-2.2227419083	-1.0094982778	 0.9288773452	-0.29841
C	-3.3968712391	-1.715284044	 0.2037317672	-0.267018
C	-2.8994044083	-1.8330332013	-1.2148391944	-0.071571
C	-1.6092708301	-1.5242935426	-1.3278235476	-0.116688
H	 0.8753883096	 1.6555546824	-0.0573354078	 0.226896
H	 0.5814946286	-2.7667467082	-0.2422109474	 0.117691
H	 0.1691062601	-2.4185918448	 1.4716880459	 0.117155
H	-2.0360089721	-1.4041009619	 1.930942784	 0.102512
H	-2.4374967834	 0.0577610126	 1.0314173011	 0.138105
H	-3.6103755082	-2.7075060334	 0.6243532829	 0.109686
H	-4.3296988782	-1.1455903923	 0.2783307244	 0.113704
H	-3.5324145731	-2.1592386825	-2.0328255043	 0.101267
H	-1.0255376515	-1.5530994752	-2.2408791402	 0.104223
80.6497	114.7169	165.1682	234.8982	325.079	383.9973	460.1209	570.4513	670.1313	680.7047	758.5397	779.2421	806.0918	850.665	862.3091	919.7891	930.9646	952.1605	973.2063	980.2447	1001.0857	1011.8434	1079.1402	1113.3438	1151.4437	1165.5508	1195.3528	1212.4509	1234.6313	1259.5431	1311.2278	1319.9288	1362.3326	1386.1763	1479.9686	1496.9673	1513.806	1684.5113	1819.2882	3015.6015	3053.4784	3057.0804	3066.2593	3108.7955	3115.447	3185.5116	3210.3925	3475.9823
N=C1OCC11CCC=C1	[NH][C]1OC[C@]21CCC=C2	
InChI=1S/C7H9NO/c8-6-7(5-9-6)3-1-2-4-7/h1,3,8H,2,4-5H2	InChI=1S/C7H9NO/c8-6-7(5-9-6)3-1-2-4-7/h1,3,8H,2,4-5H2/t7-/m1/s1
