17
gdb 36249	4.35248	1.16888	1.09846	4.4628	75.61	-0.2322	0.0244	0.2567	1113.9197	0.137216	-380.804324	-380.797083	-380.796139	-380.836661	28.185	
N	 0.0448462796	-1.095728536	 0.2588095526	-0.306149
C	 0.0090070257	 0.0381782617	 0.0416627049	 0.277529
C	-0.040599019	 1.4817327839	-0.206541875	-0.299035
N	 1.2900892051	 2.0752779298	-0.0771571008	-0.086674
C	 1.3915613725	 3.5311425076	-0.1028927685	-0.023981
C	 1.1913342608	 4.0869202835	 1.3335651653	-0.088043
C	 0.976252663	 2.8730964053	 2.2347141049	-0.251233
C	 1.9478024089	 2.1300378854	 1.2677403984	-0.02252
C	 2.527752319	 3.5400231757	 0.8618798033	-0.100586
H	-0.3842216477	 1.6470305323	-1.2346628458	 0.154092
H	-0.8045785476	 1.9175608201	 0.4570910302	 0.136322
H	 1.2298586963	 4.120116624	-0.9973242052	 0.102758
H	 0.9225536858	 5.120086673	 1.5122220204	 0.092696
H	 1.4586127129	 3.018979351	 3.2041637074	 0.113266
H	-0.0298963884	 2.4696008006	 2.3922683292	 0.096484
H	 2.4949519351	 1.2410232775	 1.5726646681	 0.099456
H	 3.5258489282	 3.9467530946	 0.8081568408	 0.105619
48.0517	121.9405	244.4939	315.3385	392.5039	466.6591	510.6485	578.5652	721.6355	750.5869	784.9761	794.708	808.7143	865.7593	893.6438	941.7815	954.7558	989.7034	1006.8373	1019.1618	1027.435	1058.6325	1075.886	1097.7184	1120.4693	1159.5817	1174.1882	1184.2458	1229.5536	1254.5753	1265.2359	1318.2568	1352.9384	1379.0616	1474.8571	1512.0562	2366.5022	2980.9549	3044.2133	3057.2468	3106.7739	3148.5711	3191.2361	3202.5977	3237.7429
N#CCN1C2C3CC1C23	N#CCN1[C@H]2[C@H]3C[C@@H]1[C@@H]23	
InChI=1S/C7H8N2/c8-1-2-9-5-3-4-6(5)7(4)9/h4-7H,2-3H2	InChI=1S/C7H8N2/c8-1-2-9-5-3-4-6(5)7(4)9/h4-7H,2-3H2/t4-,5+,6-,7-/m0/s1
