17
gdb 99731	2.77606	0.62992	0.62501	0.9601	69.84	-0.179	0.0453	0.2243	1842.0156	0.132231	-492.321846	-492.310343	-492.309399	-492.362043	37.448	
C	-0.3503642987	 1.2624041924	 1.1642550941	-0.228459
O	 0.4256853743	 0.0826448088	 1.2742507385	-0.235393
C	 0.0501405213	-0.910339683	 0.3889771051	-0.06312
C	 0.9664915063	-1.4970686362	-0.3949061965	 0.254575
N	 2.3360907643	-1.2302420089	-0.3166674997	-0.55876
N	 0.6528958379	-2.4657886311	-1.3728664196	-0.563757
H	-0.3338332027	-2.6917787354	-1.3873559551	 0.245011
H	 1.1935288964	-3.3151489339	-1.2371571078	 0.245938
C	 1.4452342353	-1.5288614103	-4.0760916711	 0.591697
O	 2.3791214347	-0.9860240384	-3.6402054812	-0.305421
O	 0.5298415433	-2.0552847271	-4.5600696926	-0.296834
H	-0.247271146	 1.7252682535	 0.1728629681	 0.107465
H	-1.4165955018	 1.0563485675	 1.3407949584	 0.107817
H	 0.0058905771	 1.9567782053	 1.9294844996	 0.123769
H	-0.9894089712	-1.2284722055	 0.4222911308	 0.070701
H	 2.5172517772	-0.461192383	 0.3161001199	 0.250535
H	 2.7445520522	-1.0621815348	-1.2296045909	 0.254236
18.8786	28.684	73.778	76.0121	90.8558	117.6512	172.5615	183.0368	295.5159	350.1553	408.7232	425.6815	471.2317	572.0132	591.7865	658.6652	689.0861	715.8903	821.842	844.5787	933.8106	1005.6339	1129.7099	1165.2701	1179.3203	1196.371	1242.8297	1327.2928	1376.1133	1420.3555	1479.3559	1484.8256	1505.5079	1628.2365	1633.5337	1769.6157	2431.196	2984.7457	3037.8888	3113.0468	3141.861	3495.7247	3520.4228	3607.7912	3625.4434	18.8789	28.6845	73.7781	76.0132	90.8559	117.6513	172.5616	183.0373	295.5162	350.1546	408.7231	425.6814	471.2316	572.0131	591.7865	658.6652	689.0862	715.8899	821.8418	844.5783	933.8106	1005.6343	1129.7102	1165.2703	1179.32	1196.3709	1242.8298	1327.2926	1376.1133	1420.3555	1479.3556	1484.8253	1505.5075	1628.2371	1633.5338	1769.6159	2431.196	2984.7457	3037.8889	3113.0469	3141.861	3495.7245	3520.4227	3607.7911	3625.4433
COC(C(N)=[NH2+])C([O-])=O	CO[CH]C(=[NH2])N.C(=O)=O	
InChI=1S/C4H8N2O3/c1-9-2(3(5)6)4(7)8/h2H,1H3,(H3,5,6)(H,7,8)	InChI=1S/C3H8N2O.CO2/c1-6-2-3(4)5;2-1-3/h2H,4-5H2,1H3;
