13
gdb 20678	3.31049	2.3302	1.37913	2.0987	66.16	-0.2459	-0.0803	0.1656	831.7173	0.094533	-394.739311	-394.732217	-394.731273	-394.770674	25.978	
C	 0.0529092814	 1.5090614231	 0.0286100173	-0.478483
C	-0.0031660233	 0.0142482163	 0.0108664374	 0.156111
C	-0.1056096995	-0.7081766098	-1.121564228	 0.04061
O	-0.158887293	-2.0450850086	-1.1823457646	-0.252078
N	-0.1004356674	-2.7935343511	 0.1018325588	 0.045877
N	-0.0079446341	-2.1581213184	 1.1329838306	-0.138192
C	 0.0530485261	-0.7207881344	 1.2536122039	 0.326467
N	 0.1499091887	-0.1872093203	 2.4073101905	-0.500254
H	 0.9756176793	 1.8538665787	 0.5069185789	 0.151094
H	 0.0018254367	 1.9194186061	-0.9836315775	 0.119847
H	-0.772185725	 1.9181655039	 0.6210320754	 0.151034
H	-0.1555004319	-0.2626852816	-2.1119635743	 0.143904
H	 0.171301732	-0.9136352538	 3.1254473516	 0.234065
81.3087	184.1104	266.9532	276.9525	383.0068	399.988	463.5061	487.2369	537.6091	595.4924	761.692	773.9038	879.724	893.5845	929.2386	1011.8247	1041.2852	1069.849	1164.3893	1228.9262	1315.7312	1412.8743	1424.4709	1466.8865	1486.4879	1640.5701	1707.124	1714.9267	3037.5746	3096.3382	3120.2794	3170.5008	3471.0392
CC1=CON=NC1=N	CC1=CO[N]N=C1[NH]	
InChI=1S/C4H5N3O/c1-3-2-8-7-6-4(3)5/h2,5H,1H3	InChI=1S/C4H5N3O/c1-3-2-8-7-6-4(3)5/h2,5H,1H3
