21
gdb 36913	4.38251	0.89423	0.78374	1.7049	83.71	-0.2331	0.0315	0.2646	1476.8668	0.183291	-387.080392	-387.0718	-387.070856	-387.114574	32.33	
C	-0.0076663701	 1.5285815168	 0.274294352	-0.243673
C	-0.0775332244	 0.0206035485	 0.2497601489	 0.098756
C	-1.2610214902	-0.7069629168	-0.2234140576	-0.183386
O	-0.0895295655	-0.6123075713	-1.0357289883	-0.230846
C	 1.399278059	 2.0813859657	 0.0192008557	 0.037631
C	 1.9790278194	 1.7776371403	-1.3926564859	-0.2512
C	 2.795155387	 3.008760517	-1.7036250118	-0.063504
C	 2.5400521616	 4.0072305592	-0.8601339597	-0.06317
C	 1.5040649875	 3.6250418053	 0.169857937	-0.277922
H	-0.7039170618	 1.9277990125	-0.4740434396	 0.099894
H	-0.3622253605	 1.8724399658	 1.2560381564	 0.098489
H	 0.564046322	-0.4857155099	 0.9748435361	 0.087981
H	-1.4828596136	-1.7002741186	 0.164644499	 0.112089
H	-2.1243307767	-0.1473077202	-0.5821997952	 0.111389
H	 2.0806248891	 1.6361529562	 0.7560019326	 0.073686
H	 2.5652043448	 0.8525298814	-1.4105924128	 0.105884
H	 1.179660021	 1.6360093646	-2.1331080104	 0.114181
H	 3.4752757136	 3.0610202358	-2.5470811139	 0.088474
H	 2.9780334434	 4.9982854963	-0.9086731787	 0.087538
H	 0.5427057665	 4.1158155323	-0.0475896255	 0.099144
H	 1.7739707081	 3.924845959	 1.1894082317	 0.098565
65.6014	72.919	97.4777	169.3372	284.223	346.5808	393.8176	436.856	459.0292	623.3453	717.6132	777.5746	787.0264	832.7915	860.2393	900.7988	922.5227	955.7262	964.6606	976.4721	978.9878	1020.8609	1063.0062	1082.0163	1113.1237	1116.2547	1134.182	1154.2928	1157.9969	1171.3307	1207.1628	1269.5317	1287.7994	1295.997	1304.958	1327.8847	1339.3035	1378.535	1382.7144	1447.9578	1469.7016	1484.2556	1493.1043	1529.9065	1688.5954	2988.5704	3010.183	3012.1764	3019.921	3046.8992	3055.6476	3064.6428	3079.3691	3086.271	3165.3082	3178.2484	3204.0946
C(C1CO1)C1CC=CC1	C([C@H]1CO1)[C@H]1CC=CC1	
InChI=1S/C8H12O/c1-2-4-7(3-1)5-8-6-9-8/h1-2,7-8H,3-6H2	InChI=1S/C8H12O/c1-2-4-7(3-1)5-8-6-9-8/h1-2,7-8H,3-6H2/t8-/m0/s1
