18
gdb 66978	2.67634	1.69322	1.2398	4.1385	77.05	-0.228	0.0201	0.2481	1036.1447	0.147774	-401.913129	-401.90536	-401.904416	-401.945326	30.064	
C	 0.1642961461	 1.5034598063	 0.1004103755	-0.510704
C	 0.1429799386	 0.0096191231	 0.0444764012	 0.363582
C	-0.9521690978	-0.8894675861	 0.6799312856	-0.128516
C	-0.9217818279	-2.2184090363	-0.0781448263	-0.239705
C	 0.6157764596	-1.9882048217	-0.1797322254	-0.032988
C	 0.5107159424	-1.0235412187	 1.0673638875	-0.158411
N	 0.7360552865	-0.7851638662	-1.0351464283	-0.086723
C	 0.5388002967	-0.7306361206	-2.3836762259	 0.125662
O	 0.6413196058	-1.678584867	-3.1342861176	-0.328086
H	 1.1788100856	 1.8869102308	-0.0480558271	 0.13543
H	-0.4867468439	 1.9485937514	-0.6594987423	 0.13273
H	-0.1894138917	 1.8440794324	 1.0782799081	 0.132302
H	-1.7593761284	-0.4619685863	 1.261755855	 0.092891
H	-1.1541172653	-3.0541457045	 0.5866292931	 0.109913
H	-1.4660410359	-2.3206565539	-1.0216691559	 0.116233
H	 1.3245946357	-2.7927287044	-0.3500392614	 0.104573
H	 1.0447713097	-0.9581415357	 2.0040262319	 0.102517
H	 0.3427367043	 0.3033917075	-2.7347408375	 0.0693
99.5832	167.0102	208.0115	229.9521	280.9266	306.592	448.7513	546.7995	569.3562	617.9458	730.4327	792.551	811.1826	840.7909	857.2858	898.4143	915.4988	960.7725	993.0217	1020.1588	1032.3169	1071.4284	1091.0937	1092.8731	1123.336	1147.9221	1164.1762	1200.2252	1257.9991	1263.6663	1289.4926	1371.5354	1404.9639	1425.2086	1444.1721	1481.2192	1495.0528	1501.1871	1785.5021	2921.9493	3034.5899	3055.4158	3098.4503	3111.2997	3115.811	3171.6751	3194.0877	3223.5794
CC12C3CC(C13)N2C=O	C[C@]12[C@H]3C[C@H]([C@@H]13)N2C=O	
InChI=1S/C7H9NO/c1-7-4-2-5(6(4)7)8(7)3-9/h3-6H,2H2,1H3	InChI=1S/C7H9NO/c1-7-4-2-5(6(4)7)8(7)3-9/h3-6H,2H2,1H3/t4-,5+,6-,7-/m0/s1
