20
gdb 113258	2.91186	0.87497	0.80136	2.5885	78.13	-0.2598	0.0203	0.2802	1505.1595	0.168505	-440.261744	-440.251615	-440.250671	-440.297208	36.587	
C	 0.0599492614	 1.4994384152	-0.4970430455	-0.452202
C	 0.0021799965	 0.0784513497	 0.0151100725	 0.387765
C	 1.2245998796	-0.7868468531	 0.0561398685	-0.352216
C	 0.5548556355	-0.3591722713	 1.3534917752	-0.091976
C	 1.253457506	 0.5694171925	 2.3206426964	-0.08269
O	 2.1079550102	-0.1348757862	 3.2081620288	-0.41245
O	-1.1518550606	-0.6145372	-0.4355262542	-0.222006
C	-2.304338271	-0.3623782832	 0.2235021836	 0.114872
N	-3.3878681461	-0.8549271785	-0.1949842882	-0.440868
H	 1.0021417359	 1.9833701209	-0.2308105982	 0.125289
H	-0.0293746286	 1.4982155398	-1.5876835863	 0.140246
H	-0.7579215663	 2.105098127	-0.0919038353	 0.122939
H	 1.1113645736	-1.8164953656	-0.2614036784	 0.136047
H	 2.1698158851	-0.3239789032	-0.2121891009	 0.113725
H	-0.0197268434	-1.1395438189	 1.8449103844	 0.109388
H	 1.8052273772	 1.3494842748	 1.7736963328	 0.085926
H	 0.5248518697	 1.0787013527	 2.96110786	 0.114037
H	 2.7218059485	-0.6469892086	 2.6706890911	 0.28422
H	-2.1698426463	 0.2667769749	 1.1130004003	 0.090972
H	-4.1505735868	-0.586527049	 0.4236310735	 0.228981
63.5284	94.6387	128.8582	150.4567	162.9905	218.1358	246.9146	320.1295	351.6786	367.4503	417.7508	437.2977	532.6543	588.2095	756.8542	822.8286	853.2296	876.716	912.7776	945.1367	974.6239	1037.7756	1049.8368	1053.3043	1070.1829	1097.348	1116.3513	1134.0702	1164.648	1225.7697	1250.8432	1286.4714	1318.7922	1361.4071	1406.4931	1416.6768	1418.1449	1434.1382	1478.1031	1483.587	1503.9362	1507.0686	1744.4811	2982.4943	3033.3721	3039.7837	3064.5439	3103.2589	3126.9318	3131.0875	3152.4981	3225.7822	3515.419	3807.6315
CC1(CC1CO)OC=N	C[C@]1(C[C@H]1CO)O[CH][NH]	
InChI=1S/C6H11NO2/c1-6(9-4-7)2-5(6)3-8/h4-5,7-8H,2-3H2,1H3	InChI=1S/C6H11NO2/c1-6(9-4-7)2-5(6)3-8/h4-5,7-8H,2-3H2,1H3/t5-,6+/m0/s1
