19
gdb 70998	3.18782	1.54693	1.41947	1.3886	75.83	-0.237	0.0443	0.2813	996.7801	0.159438	-422.908693	-422.901341	-422.900397	-422.939871	30.523	
C	 0.005718891	 1.5858495105	 0.1491645517	-0.481188
C	-0.0054237469	 0.0914174756	 0.0037494173	 0.371007
C	-1.3590929327	-0.7768019197	-0.2237271296	-0.359805
C	-0.2408678376	-1.8015886396	-0.6029571854	 0.357865
C	 0.4600486724	-1.9336509166	 0.7720126968	-0.124605
O	 0.5847447135	-0.5453166373	 1.1268650478	-0.285217
O	 0.1870943088	-2.8057502561	-1.562526009	-0.357422
C	 1.3297207606	-1.9032201307	-1.8657451597	-0.188727
C	 0.4966725941	-0.7052673365	-1.2909278488	-0.085969
H	 1.0329512731	 1.9400447498	 0.2772280937	 0.135713
H	-0.4249211395	 2.0634433495	-0.734212545	 0.1222
H	-0.5724838705	 1.8877475438	 1.0279288445	 0.132113
H	-1.962849815	-0.9445671362	 0.673175121	 0.103907
H	-1.9641983296	-0.4325693963	-1.0608287091	 0.115462
H	-0.1534434446	-2.4672279326	 1.5066923733	 0.105008
H	 1.4467098527	-2.4031257263	 0.7255157835	 0.106562
H	 2.2269567753	-2.2120839064	-1.3242625245	 0.119879
H	 1.5239582765	-1.8674113829	-2.9397981641	 0.120238
H	-0.1062932815	-0.3388220922	-2.1246589843	 0.092979
201.2491	226.8775	250.3695	278.1689	350.9404	400.2202	469.7112	495.5783	574.5419	604.6081	642.906	656.1042	760.4187	838.331	869.2876	900.313	931.9077	971.1286	984.5084	1002.5625	1020.7509	1032.0178	1056.3005	1096.9165	1110.0877	1137.4838	1159.5848	1172.2425	1184.5031	1221.3172	1245.9441	1284.0723	1298.8554	1362.8533	1395.5006	1414.7273	1477.4286	1488.6792	1489.5413	1498.4345	1537.055	3037.6527	3043.9053	3059.7984	3061.2779	3071.7466	3088.9671	3114.2148	3127.1264	3128.0453	3158.3386
CC12CC3(CO1)OCC23	C[C@]12C[C@@]3(CO1)OC[C@H]23	
InChI=1S/C7H10O2/c1-6-3-7(4-9-6)5(6)2-8-7/h5H,2-4H2,1H3	InChI=1S/C7H10O2/c1-6-3-7(4-9-6)5(6)2-8-7/h5H,2-4H2,1H3/t5-,6-,7+/m1/s1
