17
gdb 90195	4.03836	1.55267	1.3956	2.272	71.06	-0.2304	0.0653	0.2957	931.7004	0.136784	-421.70908	-421.702515	-421.701571	-421.739752	27.544	
O	-0.0148378026	 1.4142970733	 0.0503501064	-0.434016
C	-0.0047016841	 0.0011498128	-0.0018158524	 0.124593
C	 0.5296229547	-0.677712554	 1.3402054029	-0.390247
C	-0.7822205059	-1.3403226218	 1.664617368	 0.479291
O	-1.4768421488	-2.1896082128	 2.6128275956	-0.399366
C	-2.4740198724	-1.8622172896	 1.5342747388	 0.003586
C	-1.988459999	-0.4021144165	 1.3777786435	-0.085519
C	-1.4828070127	-0.4911625285	-0.0781363102	-0.110268
C	-1.432229375	-1.9591525075	 0.3951323125	-0.107296
H	 0.8949604646	 1.7276305973	 0.0424194362	 0.286382
H	 0.5773051638	-0.3535580868	-0.8646171299	 0.071406
H	 1.3536071769	-1.3744453055	 1.1644824049	 0.108072
H	 0.838565169	 0.0879906292	 2.05630988	 0.112097
H	-3.464957242	-2.2955362457	 1.6586849505	 0.095364
H	-2.2692723182	 0.4651997322	 1.9714609845	 0.09075
H	-2.0557222975	-0.1480692453	-0.938682995	 0.073843
H	-1.0843803708	-2.8552359811	-0.1177442861	 0.081328
126.6739	295.6145	308.4361	377.0696	443.4046	494.2626	545.064	667.6132	700.6	742.9837	770.6075	804.7051	814.9942	866.8623	893.7762	918.3015	938.4882	948.6065	987.6151	1009.8773	1037.6165	1073.7873	1099.6404	1127.067	1137.3388	1159.8206	1173.7598	1191.231	1210.6706	1221.5956	1254.023	1270.8483	1304.0505	1333.0392	1366.4568	1418.3814	1490.0703	2995.1321	3059.3055	3114.2788	3118.3604	3126.0199	3134.1867	3149.6064	3819.3287
OC1CC23OC4C2C1C34	O[C@H]1C[C@@]23O[C@H]4[C@@H]2[C@@H]1[C@@H]34	
InChI=1S/C7H8O2/c8-2-1-7-4-3(2)5(7)6(4)9-7/h2-6,8H,1H2	InChI=1S/C7H8O2/c8-2-1-7-4-3(2)5(7)6(4)9-7/h2-6,8H,1H2/t2-,3-,4+,5-,6+,7-/m0/s1
