16
gdb 55255	3.28595	1.2357	0.99564	6.0632	66.47	-0.2277	0.0257	0.2534	1157.2843	0.127035	-471.264221	-471.256188	-471.255244	-471.297312	30.154	
O	-0.2676885436	-0.0468997124	 0.5672779537	-0.368421
C	-0.1270728135	 1.1695649401	 0.0249691901	 0.418818
O	 0.9187242652	 1.5859568969	-0.3975233584	-0.341652
C	-1.4293936433	 1.9931361333	 0.0272421168	-0.124375
C	-1.6696544942	 2.7243505677	-1.3207767429	-0.195176
N	-2.7504002006	 1.9088014363	-1.8956248193	-0.337509
C	-3.2614823514	 1.138426843	-0.8653024546	 0.436496
N	-4.4411372847	 0.4683642618	-1.0680596086	-0.578723
H	-4.6007873422	 0.13593725	-2.0075218313	 0.261367
H	-4.6387867669	-0.2198319914	-0.3565934582	 0.268806
N	-2.5889758552	 1.1147034512	 0.2366776252	-0.36226
H	-1.3264976959	 2.7068452036	 0.853143471	 0.115398
H	-1.9940704086	 3.7594895905	-1.1661417616	 0.110697
H	-0.773949043	 2.7243661114	-1.9452072323	 0.145896
H	-3.4119195333	 2.367636247	-2.5053124801	 0.247457
H	-1.2270885788	-0.1362056791	 0.7530233004	 0.303183
75.3708	85.0485	176.6388	264.7518	355.1205	381.4678	404.3145	488.0179	515.933	567.6964	603.9747	693.401	715.8777	745.802	786.0109	824.0352	838.1993	978.8492	1004.9741	1019.0953	1078.1208	1087.981	1163.6423	1198.2627	1226.1241	1269.2797	1309.5457	1323.7061	1369.8202	1418.6422	1503.734	1542.1921	1623.5775	1708.646	1866.8367	3030.3438	3044.4259	3110.6392	3503.7968	3575.192	3600.8222	3682.2091
[O-]C(=O)C1CNC(=[NH2+])N1	OC(=O)[C@H]1CN[C](N)[N]1	
InChI=1S/C4H7N3O2/c5-4-6-1-2(7-4)3(8)9/h2H,1H2,(H,8,9)(H3,5,6,7)	InChI=1S/C4H7N3O2/c5-4-6-1-2(7-4)3(8)9/h2H,1H2,(H,8,9)(H3,5,6,7)/t2-/m1/s1
