19
gdb 109907	2.11431	1.6434	1.00533	3.9502	77.98	-0.2366	-0.0488	0.1878	1192.6321	0.158715	-423.058326	-423.049201	-423.048257	-423.092627	33.668	
C	-0.0936230396	 1.5573020607	-0.0376549804	-0.396866
C	 0.0905754122	 0.0382361893	-0.0810442387	-0.162344
C	 0.7421241203	-0.5277397535	 1.202071973	-0.141769
C	 0.7574028044	-2.077460438	 1.2726877609	 0.047552
O	-0.0891264983	-2.6521860169	 0.285786398	-0.42043
C	 2.216678831	-2.4421897926	 1.0838234775	-0.084306
C	 3.0253144995	-1.3799843963	 1.1032461668	-0.166262
C	 2.2303997295	-0.139390071	 1.279117366	 0.379061
O	 2.6689616618	 0.976478957	 1.4442918084	-0.336552
H	 0.8560640213	 2.0731306176	 0.1210388184	 0.146938
H	-0.5319232301	 1.9156937264	-0.974405365	 0.10695
H	-0.7670257344	 1.8468227193	 0.7772340403	 0.109056
H	-0.8747333204	-0.4568074531	-0.2151180865	 0.116597
H	 0.6965054301	-0.2462147889	-0.949441797	 0.102115
H	 0.2247084028	-0.0996942342	 2.0669841418	 0.095871
H	 0.4319482806	-2.4048299109	 2.2732882456	 0.086001
H	-0.1331403207	-3.6006210417	 0.4425522077	 0.287567
H	 2.528651734	-3.4764105797	 0.9710625884	 0.111122
H	 4.1051075059	-1.3697249636	 1.0231905547	 0.119697
42.5163	108.1282	192.7795	214.3712	229.3575	235.9022	274.3619	337.8164	388.4798	493.3877	506.5181	650.6248	708.4991	752.0898	767.4437	827.2452	846.2667	884.9803	950.5051	1003.548	1024.4236	1042.1144	1075.3118	1097.6051	1111.4675	1135.043	1189.2014	1221.6857	1248.3058	1289.2226	1319.6792	1341.6272	1356.4387	1367.2233	1414.4946	1416.1587	1491.126	1496.9838	1512.3717	1656.4593	1806.3816	2964.0368	3034.4913	3039.5296	3058.258	3089.4601	3099.7547	3132.1361	3176.5884	3222.6008	3822.6486
CCC1C(O)C=CC1=O	CC[C@H]1[C@@H](O)C=CC1=O	
InChI=1S/C7H10O2/c1-2-5-6(8)3-4-7(5)9/h3-6,8H,2H2,1H3	InChI=1S/C7H10O2/c1-2-5-6(8)3-4-7(5)9/h3-6,8H,2H2,1H3/t5-,6-/m0/s1
