18
gdb 70228	3.89727	1.08709	0.95295	4.8205	85.75	-0.2465	-0.0404	0.2061	1254.3352	0.148628	-364.83983	-364.831734	-364.83079	-364.872277	31.315	
C	-0.0443855409	 1.5630737379	 0.0495539976	-0.487234
C	 0.0511553424	 0.0562826695	 0.0030558022	 0.32735
C	-0.8117262411	-0.8087928492	 0.9120432024	-0.31394
C	 0.6819837974	-0.8104350179	 1.0924208389	-0.093524
C	 1.4826593381	-1.9217162257	 0.4199224134	-0.330137
C	 1.1706782295	-1.7211847554	-1.0586304579	 0.177973
C	 0.4216162462	-0.6249760159	-1.2667260992	-0.224771
C	 1.6268541452	-2.6149409919	-2.0628118009	 0.202872
N	 2.0204020451	-3.3597407984	-2.8590564148	-0.340684
H	 0.8894244007	 2.0345330265	-0.2753327434	 0.126113
H	-0.8481181	 1.9293180917	-0.5993820788	 0.125387
H	-0.2586493618	 1.9082027821	 1.0653645948	 0.122485
H	-1.3954615987	-0.2891126551	 1.6652999883	 0.116914
H	-1.2958371406	-1.6825880624	 0.487751694	 0.119733
H	 1.0865491469	-0.3487720291	 1.9855320811	 0.094782
H	 2.5590232582	-1.8244001091	 0.605615749	 0.127009
H	 1.1929273628	-2.9215002476	 0.7632763974	 0.13042
H	 0.1011089006	-0.2743430899	-2.2412955241	 0.119251
112.3063	149.842	198.9595	226.0045	295.2115	329.7157	398.6376	476.6409	520.0142	554.2932	571.2808	605.6821	754.0647	808.8616	854.0161	882.1714	904.2923	937.7904	958.1456	977.5891	1026.7576	1064.5028	1090.9725	1097.1161	1112.0151	1156.7269	1194.1953	1246.3117	1276.7654	1316.0148	1337.5974	1392.2196	1420.5293	1476.3148	1488.66	1489.7595	1501.8224	1659.6617	2332.4943	3028.6562	3034.1251	3067.4004	3089.5035	3106.8432	3123.6212	3178.9179	3202.5004	3212.7488
CC12CC1CC(=C2)C#N	C[C@]12C[C@H]1CC(=C2)C#N	
InChI=1S/C8H9N/c1-8-3-6(5-9)2-7(8)4-8/h3,7H,2,4H2,1H3	InChI=1S/C8H9N/c1-8-3-6(5-9)2-7(8)4-8/h3,7H,2,4H2,1H3/t7-,8+/m1/s1
