17
gdb 108286	2.79929	1.40951	1.09409	4.4792	68.18	-0.2595	-0.0129	0.2466	1127.0791	0.135137	-458.962614	-458.95443	-458.953486	-458.995708	30.191	
C	-0.0258341331	 1.5863153287	 0.0214023103	-0.387166
C	 0.0598083939	 0.0590948581	 0.142518495	-0.285008
C	-1.2840121253	-0.6033182379	 0.0182174994	 0.411383
C	-2.3756852032	-0.5046706802	 1.0991718245	-0.12728
O	-2.6730648654	-1.9208863166	 0.9767721469	-0.284915
C	-1.6351139486	-2.1064407245	-0.0051724103	-0.153742
C	-2.1538714054	-1.8048733617	-1.4231320941	 0.450413
O	-2.6462539669	-2.3759038409	-2.3386528266	-0.316375
O	-1.874879375	-0.4542983557	-1.3216371097	-0.290983
H	 0.9672794777	 2.0362994452	 0.1003197072	 0.12412
H	-0.4566779877	 1.8737684501	-0.94145242	 0.146133
H	-0.6501048782	 2.0152469267	 0.8125772488	 0.122431
H	 0.7204741688	-0.342827968	-0.6340966131	 0.118052
H	 0.4947540904	-0.2232700936	 1.1086597624	 0.114031
H	-2.0040167726	-0.2708422264	 2.1033150819	 0.116126
H	-3.2297158445	 0.1321959699	 0.8512238998	 0.129018
H	-0.989501795	-2.9656786533	 0.1782342175	 0.113762
80.48	125.7055	163.7594	218.8389	237.9547	335.1105	359.8706	409.3997	482.5105	633.2743	695.3107	760.5245	788.2637	840.8924	859.756	947.1217	976.837	984.926	1007.2975	1012.6225	1022.1952	1085.399	1131.4612	1155.6123	1194.2909	1213.4325	1268.5533	1277.1955	1311.0029	1355.3311	1397.6407	1413.4295	1476.3089	1499.5648	1502.7014	1508.4319	1942.5669	3033.3403	3037.9646	3042.3248	3073.3475	3099.2867	3111.0901	3118.8185	3126.4324
CCC12COC1C(=O)O2	CC[C@]12CO[C@H]1C(=O)O2	
InChI=1S/C6H8O3/c1-2-6-3-8-4(6)5(7)9-6/h4H,2-3H2,1H3	InChI=1S/C6H8O3/c1-2-6-3-8-4(6)5(7)9-6/h4H,2-3H2,1H3/t4-,6-/m0/s1
