20
gdb 104344	3.21716	1.2371	1.10452	1.6053	74.69	-0.2449	0.0178	0.2628	1179.4191	0.17092	-440.300616	-440.291358	-440.290414	-440.334729	34.373	
C	-0.0192178737	 1.5658117109	-0.1054202369	-0.397878
C	 0.0095302159	 0.0398130966	 0.0329835103	-0.197392
C	 0.7367482292	-0.4821527744	 1.2783274135	 0.3016
O	 2.054445804	 0.0672214046	 1.2418304839	-0.475257
C	 0.0447928248	-0.060993204	 2.5783665035	-0.102773
O	 0.7290892385	-0.6095782194	 3.7194791719	-0.234648
C	 1.144972782	-1.8966680611	 3.5867936931	 0.101329
N	 1.1988162544	-2.6138306473	 2.5486444101	-0.26773
C	 0.7979676685	-2.0209350234	 1.2735343254	-0.18418
H	 0.9927633692	 1.973778525	-0.0602141613	 0.142758
H	-0.4649404007	 1.8527089262	-1.0623305113	 0.113269
H	-0.6117324924	 2.0403208271	 0.6837456923	 0.112549
H	-1.0112269664	-0.3611585436	 0.0323409842	 0.096115
H	 0.5146012741	-0.3929983148	-0.838910372	 0.110528
H	 2.5146932493	-0.19775018	 2.0455245345	 0.291243
H	 0.0727593656	 1.0205902551	 2.7143304259	 0.125223
H	-0.998297271	-0.4014028282	 2.5949098713	 0.109722
H	 1.4761631033	-2.2787042559	 4.5509688351	 0.126587
H	-0.1726035988	-2.4444190474	 0.9840986378	 0.10825
H	 1.518825744	-2.3366787859	 0.5116815987	 0.120687
68.2025	92.0946	142.7672	203.0697	234.0215	257.0024	333.5237	347.5015	397.391	425.4759	493.3676	545.0503	586.9599	744.2324	781.164	877.947	905.1051	923.4248	960.8079	964.3095	970.7698	999.5207	1049.0169	1071.596	1107.4926	1157.5099	1191.2089	1202.7787	1262.3921	1281.4461	1334.0531	1341.4626	1357.0562	1384.5472	1405.2414	1412.0997	1426.3638	1464.3637	1478.4641	1495.5308	1502.7908	1510.3962	1736.0558	3020.8599	3027.1538	3034.7841	3044.0614	3064.0829	3071.1165	3104.5345	3128.0416	3134.6673	3157.7755	3812.4773
CCC1(O)COC=NC1	CC[C@@]1(O)COC=NC1	
InChI=1S/C6H11NO2/c1-2-6(8)3-7-5-9-4-6/h5,8H,2-4H2,1H3	InChI=1S/C6H11NO2/c1-2-6(8)3-7-5-9-4-6/h5,8H,2-4H2,1H3/t6-/m0/s1
