16
gdb 123956	3.49454	1.58208	1.13084	4.9302	69.93	-0.2442	-0.0032	0.241	1026.1483	0.127607	-437.889549	-437.882911	-437.881967	-437.920638	26.236	
C	-0.023516099	 1.535238259	-0.0048074909	-0.226157
C	 1.4034841463	 2.084386917	 0.0389254966	-0.076207
O	 2.1166074826	 1.6911733149	 1.2254819705	-0.256782
C	 1.9590085849	 0.3979570455	 1.5466425171	 0.43486
N	 2.7190340153	-0.174392471	 2.4484542176	-0.253374
O	 2.2251235692	-1.4826707007	 2.5274958132	-0.173456
C	 1.2016462478	-1.6268859598	 1.6708310475	-0.034211
C	 0.964434516	-0.4720733251	 1.0015771322	 0.063783
C	-0.0196123362	-0.0066028781	-0.0278701934	-0.342352
H	-0.5664464682	 1.8958363741	 0.8761577873	 0.123765
H	-0.5289122177	 1.9361022853	-0.8888735253	 0.110699
H	 1.9710628843	 1.7497356499	-0.8409371355	 0.112973
H	 1.4103685648	 3.1758215424	 0.055915453	 0.126191
H	 0.7405145695	-2.6029803844	 1.6529654639	 0.149682
H	-1.0234045612	-0.3988364922	 0.1633973276	 0.120026
H	 0.2683648917	-0.3578499369	-1.0273543915	 0.120559
116.7015	216.1106	317.0334	356.1558	410.2342	456.3102	536.4116	588.4612	671.2957	710.7599	737.9106	831.9005	870.5504	884.2595	916.1191	928.1931	967.1983	1007.6189	1078.788	1102.0386	1153.3663	1209.4528	1221.0623	1231.2126	1286.8563	1307.0263	1353.6726	1372.0699	1399.2503	1456.0629	1476.8416	1489.3158	1502.4351	1556.052	1677.0679	3011.2071	3020.2076	3045.5939	3074.0423	3095.8768	3114.9189	3255.1852
C1COC2=NOC=C2C1	C1COc2nocc2C1	
InChI=1S/C6H7NO2/c1-2-5-4-9-7-6(5)8-3-1/h4H,1-3H2	InChI=1S/C6H7NO2/c1-2-5-4-9-7-6(5)8-3-1/h4H,1-3H2
