19
gdb 103052	2.61352	1.49427	1.14773	1.0477	82.43	-0.2387	0.0367	0.2753	1130.2498	0.157502	-385.811371	-385.802452	-385.801508	-385.844642	33.958	
C	 0.0858282905	 1.1884920713	-0.308039412	-0.256026
O	-0.0478892981	-0.1235995072	 0.2141502209	-0.286909
C	-1.3345374179	-0.6548104743	 0.0820431497	 0.252139
C	-2.3593682771	 0.0224686999	 0.8436662174	 0.282682
C	-3.1989498142	 0.6056809092	 1.4777276205	-0.430714
C	-1.7960797368	-1.2666520636	-1.2297992294	-0.128986
C	-0.5994197348	-1.8605999119	-1.9844939012	-0.244228
C	-0.2715420717	-2.7528374984	-0.7454739469	-0.240316
C	-1.4740916242	-2.1497144944	-0.0103550032	-0.125098
H	 1.1358358855	 1.4658040748	-0.1932343716	 0.126465
H	-0.1859414473	 1.2275950697	-1.372022405	 0.110473
H	-0.5400596352	 1.903960228	 0.2405670163	 0.123127
H	-3.9398570289	 1.1132382324	 2.0442920023	 0.192262
H	-2.7565973058	-1.0030681478	-1.6555984221	 0.095859
H	-0.9121302426	-2.4510068932	-2.8480932039	 0.105335
H	 0.1722255022	-1.1542814552	-2.3005880901	 0.104994
H	-0.4072576796	-3.8160588657	-0.9531387044	 0.103538
H	 0.6992123562	-2.5976220193	-0.2712018666	 0.116146
H	-2.1441588503	-2.6754757342	 0.6587040892	 0.099257
115.264	143.4291	150.7721	174.7456	195.9575	268.1484	314.0071	427.8562	469.1286	530.2157	569.0905	583.923	662.14	676.7855	772.1409	782.3156	841.8978	886.27	937.8617	976.3065	984.3114	1019.447	1023.421	1066.6882	1096.6054	1112.1815	1178.5645	1184.4863	1218.3227	1224.8797	1247.8034	1253.213	1262.0822	1286.8695	1385.2041	1472.4374	1476.5039	1484.5842	1496.0195	1510.2435	2229.7565	3000.3084	3059.1003	3064.9333	3074.9182	3111.4147	3124.7876	3131.4852	3182.0589	3192.9113	3501.6776
COC1(C#C)C2CCC12	CO[C@@]1(C#C)[C@H]2CC[C@@H]12	
InChI=1S/C8H10O/c1-3-8(9-2)6-4-5-7(6)8/h1,6-7H,4-5H2,2H3	InChI=1S/C8H10O/c1-3-8(9-2)6-4-5-7(6)8/h1,6-7H,4-5H2,2H3/t6-,7+,8-
