20
gdb 32584	3.24952	1.0564	0.86439	1.2535	84.98	-0.1666	0.0593	0.2259	1397.0816	0.171882	-399.35308	-399.343093	-399.342149	-399.388608	36.626	
C	-0.0175751026	 1.4964187699	 0.1003980409	-0.364923
C	-0.0184254417	-0.028655415	-0.0568984357	-0.152205
N	-1.3409934672	-0.6181282979	-0.0429761443	 0.024027
C	-2.0419437346	-0.9732689819	 1.0888096244	-0.183007
C	-3.3188975589	-1.3311404707	 0.7140286577	 0.175444
N	-4.3755643707	-1.8624917769	 1.4917312161	-0.619011
C	-3.4031331158	-1.177185753	-0.7012606707	 0.190981
N	-4.5874641619	-1.4228272571	-1.4311228342	-0.621059
C	-2.1757524342	-0.7266622553	-1.136390763	-0.184701
H	 1.0068891632	 1.8827725425	 0.0783469535	 0.112297
H	-0.5819726356	 1.9694726966	-0.7083881886	 0.127564
H	-0.4761048659	 1.7887622532	 1.0495137651	 0.12626
H	 0.466902149	-0.3090725903	-0.9984881758	 0.11164
H	 0.5642077129	-0.4902239514	 0.7478613241	 0.111825
H	-1.5723451045	-0.9549980757	 2.0599954431	 0.097841
H	-5.2307351792	-1.3328638228	 1.3499338834	 0.241565
H	-4.159435866	-1.8466410344	 2.4811794432	 0.233136
H	-5.0116261493	-2.2969504553	-1.1348882428	 0.241743
H	-4.4161198272	-1.4753627778	-2.427887308	 0.233207
H	-1.8241808198	-0.4840586268	-2.1269955586	 0.097374
48.0232	62.7302	82.5268	200.6969	231.691	268.9506	297.3639	305.3946	322.4407	389.9116	501.5522	588.0616	593.5059	610.5747	632.8183	696.2332	700.6192	794.6567	811.9064	824.6277	856.4736	941.7613	1025.0286	1095.1686	1102.197	1123.1733	1126.8311	1205.2428	1228.9426	1271.2793	1309.5067	1388.8212	1405.8316	1430.0481	1442.2812	1463.1888	1485.0365	1487.4553	1506.4731	1595.6051	1620.7587	1648.7245	1667.1926	3036.0074	3038.1602	3074.6223	3110.8851	3121.7255	3246.3943	3250.7002	3492.7144	3496.1665	3592.8422	3596.1059
CCN1C=C(N)C(N)=C1	CCn1cc(N)c(N)c1	
InChI=1S/C6H11N3/c1-2-9-3-5(7)6(8)4-9/h3-4H,2,7-8H2,1H3	InChI=1S/C6H11N3/c1-2-9-3-5(7)6(8)4-9/h3-4H,2,7-8H2,1H3
