16
gdb 65547	2.94635	1.56265	1.33685	2.5918	68.07	-0.2649	0.0098	0.2747	971.8651	0.12478	-437.866843	-437.859324	-437.85838	-437.898629	29.317	
O	-0.0825915283	 1.381868688	 0.0010796408	-0.46496
C	-0.0035939494	-0.0243074614	 0.0276235099	 0.295136
C	 0.4550907094	-0.6369463126	 1.403616005	-0.298007
C	-0.8728613879	-1.3412108479	 1.7513821788	 0.082035
C	-1.258409332	-2.0739254307	 0.4459656492	-0.250251
C	-1.4551432739	-0.5971529502	 0.0481645883	 0.047117
O	-1.8531412757	-0.3108094306	 1.4116806498	-0.287156
C	 0.7854703389	-0.5162083628	-1.1138045181	 0.223051
N	 1.4160254675	-0.8875039355	-2.0091245392	-0.343285
H	 0.8094431243	 1.7437364509	 0.0450711485	 0.293212
H	 1.3081344626	-1.3135300081	 1.3225888856	 0.12473
H	 0.6824021685	 0.1686468427	 2.1042517068	 0.125805
H	-0.995303839	-1.7662685029	 2.7465284598	 0.094243
H	-0.5160033824	-2.6823806047	-0.0749679222	 0.122939
H	-2.2144175882	-2.589098582	 0.5332249535	 0.126925
H	-2.1338435543	-0.234190032	-0.7212403366	 0.108467
130.4423	155.7508	224.5487	260.5589	328.5034	428.6207	447.1673	497.5477	545.677	578.2197	643.8905	763.4552	820.9594	848.0353	887.959	913.3	925.9574	951.5026	997.706	1018.9283	1041.5861	1082.2247	1109.6611	1136.8432	1204.3398	1221.3783	1229.4501	1253.7664	1265.1925	1314.8683	1323.8865	1360.4976	1469.2578	1491.9785	2346.4289	3077.7519	3081.3909	3136.0588	3138.7409	3150.9493	3158.6608	3808.2783
OC1(CC2CC1O2)C#N	O[C@]1(C[C@@H]2C[C@H]1O2)C#N	
InChI=1S/C6H7NO2/c7-3-6(8)2-4-1-5(6)9-4/h4-5,8H,1-2H2	InChI=1S/C6H7NO2/c7-3-6(8)2-4-1-5(6)9-4/h4-5,8H,1-2H2/t4-,5+,6+/m0/s1
