23
gdb 41878	2.78812	1.45983	1.06363	0.2753	90.24	-0.233	0.0289	0.2618	1204.6206	0.209113	-351.161327	-351.153257	-351.152313	-351.193934	32.721	
C	-0.0562144986	 1.5051961217	-0.2570892589	-0.242183
C	 1.4474758827	 1.6413200509	 0.1069011562	-0.238458
C	 1.4106960421	 0.2186958729	 0.7389445982	 0.018651
C	 1.3888720934	 0.1926942873	 2.2695816407	-0.266387
C	 1.1732384765	-1.186735115	 2.8554713312	-0.067611
C	 0.3005034184	-2.1197463388	 2.468062739	-0.027469
C	-0.7513176363	-2.0587643929	 1.3873831579	-0.248561
C	-1.0953884175	-0.6588167373	 0.8574903039	-0.225296
C	 0.0256203955	-0.0180730772	 0.0494906103	 0.051062
H	-0.7079371219	 2.0305334225	 0.4483079472	 0.095236
H	-0.3516428771	 1.7940724144	-1.2688170955	 0.093708
H	 2.0917155142	 1.6916330315	-0.7749294399	 0.095985
H	 1.7209940963	 2.4628616688	 0.775490811	 0.091477
H	 2.2009560853	-0.4556231563	 0.3955670646	 0.063081
H	 2.3451322557	 0.5853730622	 2.6362703551	 0.094676
H	 0.6293645051	 0.8931428753	 2.6458002188	 0.104326
H	 1.8280504316	-1.4425327859	 3.6863832202	 0.079853
H	 0.3252493655	-3.0684280598	 3.0035447942	 0.078544
H	-0.4483629914	-2.7065323854	 0.5494020377	 0.103376
H	-1.6640650943	-2.5248725845	 1.7832762061	 0.099161
H	-1.9950156616	-0.7238153249	 0.2318665197	 0.088553
H	-1.3634900953	-0.0142589828	 1.7038854778	 0.095598
H	 0.1694584219	-0.587600367	-0.8764103754	 0.062678
63.2901	168.9146	209.4244	283.1345	305.2611	357.8706	408.7709	421.3678	558.4745	644.2502	667.5735	715.2387	753.4442	821.4554	840.1512	873.8523	910.6812	922.4818	948.0924	977.777	982.1555	1000.0018	1012.4122	1038.896	1055.5964	1097.3347	1118.54	1159.1833	1177.8866	1216.0856	1231.2875	1244.0168	1259.4105	1265.9794	1277.0262	1288.7809	1304.5243	1335.6042	1355.2793	1378.5299	1384.9938	1394.5415	1427.3823	1474.6733	1477.9964	1481.1815	1494.5402	1503.7359	1727.2333	2985.0898	3002.1659	3013.8517	3023.1992	3027.9361	3039.6049	3046.1927	3050.5051	3056.7035	3062.3343	3090.9489	3109.1918	3119.1768	3146.9873
C1CC2CC=CCCC12	C1C[C@H]2CC=CCC[C@@H]12	
InChI=1S/C9H14/c1-2-4-8-6-7-9(8)5-3-1/h1-2,8-9H,3-7H2	InChI=1S/C9H14/c1-2-4-8-6-7-9(8)5-3-1/h1-2,8-9H,3-7H2/t8-,9+/m1/s1
