21
gdb 75574	2.46842	1.44103	1.07489	2.1371	87.24	-0.228	-0.0164	0.2116	1211.9805	0.182698	-387.0975	-387.088452	-387.087508	-387.130721	34.728	
C	-0.2053962944	 1.4962507112	 0.039779953	-0.493834
C	-0.0331319703	-0.0026886107	 0.002136517	 0.250668
C	 0.036068363	-0.6784428519	-1.158957369	-0.183186
C	 0.0814947011	-2.1855015643	-1.2369675677	-0.110326
O	 1.3087020505	-2.7821086431	-0.8247318681	-0.255019
C	 1.8826689525	-2.1660403019	 0.3254583864	-0.110326
C	 0.9036111851	-1.7712508088	 1.4047925245	-0.183186
C	 0.0517487555	-0.737151653	 1.2842070132	 0.250668
C	-0.823598585	-0.2913168869	 2.4300294344	-0.493834
H	 0.587576873	 1.9785387528	 0.6238800023	 0.1281
H	-0.1904778138	 1.9171922318	-0.9685497366	 0.124351
H	-1.1562387274	 1.7785107749	 0.5072080611	 0.129408
H	 0.0089973484	-0.1261834788	-2.0952201856	 0.085895
H	-0.7380103061	-2.5931395549	-0.6242845252	 0.093655
H	-0.0717313507	-2.5202879423	-2.2665974016	 0.102778
H	 2.6060867138	-2.8897518475	 0.7109529084	 0.102778
H	 2.4383296388	-1.2686051174	 0.0108332203	 0.093655
H	 0.9325705024	-2.3270117377	 2.3389244635	 0.085895
H	-0.7082781152	-0.9539772996	 3.2912642372	 0.124351
H	-0.572793111	 0.7259362725	 2.7533765165	 0.129408
H	-1.8829635404	-0.2791111143	 2.146871556	 0.128101
115.8427	158.5583	184.9545	201.0153	227.3579	281.7691	311.2567	336.1748	397.5952	403.3267	479.5025	625.609	645.1361	660.4071	717.0178	839.9365	844.7664	895.9775	920.2837	980.9001	1028.0862	1050.0966	1056.282	1073.4978	1076.0646	1083.5408	1121.0223	1164.1442	1230.3831	1279.3407	1307.142	1320.6305	1389.9578	1398.	1407.2999	1411.5665	1415.5384	1474.8514	1477.7338	1491.4286	1495.265	1498.7992	1500.8222	1656.6946	1701.9644	2972.2869	2977.2883	3022.8632	3025.8932	3073.3174	3075.5504	3083.3471	3085.3622	3116.0915	3117.7122	3153.4611	3154.44
CC1=CCOCC=C1C	CC1=CCOCC=C1C	
InChI=1S/C8H12O/c1-7-3-5-9-6-4-8(7)2/h3-4H,5-6H2,1-2H3	InChI=1S/C8H12O/c1-7-3-5-9-6-4-8(7)2/h3-4H,5-6H2,1-2H3
