16
gdb 67238	3.88883	1.25241	1.17649	3.322	70.09	-0.2319	0.0162	0.2481	1057.4715	0.124256	-437.831292	-437.823865	-437.822921	-437.863221	28.809	
O	-0.3680256907	 1.4933021803	-0.1099847247	-0.448598
C	-0.0326121541	 0.1749186474	-0.0333680304	 0.370796
C	-0.9073415686	-1.0441469304	 0.0073801449	-0.134239
C	-0.1794777753	-1.6859329785	-1.1740387819	-0.229891
C	 1.0194088306	-0.7614925789	-0.8061739987	-0.121562
N	 1.4536988775	-1.2522607843	 0.5221306208	-0.040347
C	 2.1581116715	-2.3950517032	 0.7712569007	 0.137261
O	 2.8798376329	-2.9480764862	-0.0303733409	-0.324164
C	 0.200420524	-0.7862249068	 1.0942934633	-0.14274
H	 0.3401564815	 2.0182740558	 0.2822667961	 0.298073
H	-1.9494881912	-1.1079557731	 0.292231104	 0.102723
H	 0.0210551026	-2.7608901494	-1.1653746041	 0.118708
H	-0.6346643293	-1.3900369189	-2.1219056059	 0.117162
H	 1.7944866099	-0.4879607064	-1.5158277519	 0.107072
H	 2.0488030202	-2.7246638285	 1.825285372	 0.071156
H	-0.0033614715	-0.7166063189	 2.1538789368	 0.118589
88.9965	169.3017	246.9459	286.6871	336.269	371.5968	442.8853	549.405	575.3389	627.1583	711.8116	766.4741	795.8851	873.5126	906.5635	923.853	946.7419	972.0911	1027.1567	1031.7256	1057.7873	1091.7185	1107.5127	1137.3242	1158.9855	1190.6901	1210.1367	1260.0817	1278.0818	1317.3194	1384.5862	1429.8759	1482.551	1510.3002	1790.8823	2920.3202	3061.6744	3123.9453	3171.1256	3206.7486	3220.3911	3779.7529
OC12C3CC1N(C=O)C23	O[C@@]12[C@H]3C[C@@H]1N(C=O)[C@@H]23	
InChI=1S/C6H7NO2/c8-2-7-4-1-3-5(7)6(3,4)9/h2-5,9H,1H2	InChI=1S/C6H7NO2/c8-2-7-4-1-3-5(7)6(3,4)9/h2-5,9H,1H2/t3-,4-,5+,6-/m0/s1
