18
gdb 63861	2.31327	1.59265	1.27274	4.3667	77.81	-0.248	0.0115	0.2595	1064.8067	0.147849	-398.095233	-398.086541	-398.085597	-398.128056	33.52	
C	-0.0504718554	 1.5510661683	 0.0640628511	-0.436709
C	-0.0001105896	 0.0336097023	-0.0182061381	 0.244363
N	-1.3375630466	-0.4942919866	-0.2256227774	-0.54918
C	 1.1452237518	-0.5869704504	-0.9333997761	-0.273073
C	 1.7260658192	-1.2826852832	 0.2986489364	-0.115187
N	 2.0784660952	-0.2194161657	 1.2509396228	-0.361641
C	 0.6679577023	-0.6908049939	 1.1854286552	 0.221577
C	 0.0182367094	-1.2541382728	 2.3218942374	 0.187091
N	-0.5043176307	-1.7183777252	 3.2449326255	-0.349922
H	 0.9274447014	 1.9519560472	 0.3356619173	 0.143171
H	-0.3374910207	 1.9732369336	-0.9062715841	 0.110853
H	-0.7908830129	 1.8660279754	 0.8046516025	 0.134791
H	-1.740019155	-0.1016930709	-1.0716102918	 0.230761
H	-1.3222192172	-1.5036195017	-0.3436888372	 0.22941
H	 0.7277408224	-1.2813837251	-1.6656720547	 0.103199
H	 1.8264779755	 0.1106815768	-1.4263146642	 0.11303
H	 2.1816317726	-2.2629565254	 0.3654369359	 0.117978
H	 2.5061152384	-0.6524976726	 2.0696192993	 0.249487
113.498	138.6183	194.735	225.8515	274.5484	296.2836	353.9086	379.7684	446.5605	474.8341	532.7955	581.4765	613.2139	644.8609	800.0949	825.1335	863.5222	884.6984	908.4645	951.7677	982.7743	1000.1741	1036.8017	1062.1182	1093.4242	1146.6339	1165.6483	1224.1835	1259.4153	1281.0171	1309.6992	1364.8284	1391.4155	1413.2826	1472.947	1488.8473	1498.0847	1655.2132	2343.2063	3035.604	3065.6533	3104.7026	3126.6163	3143.0767	3195.8334	3478.3387	3485.3302	3568.7709
CC1(N)CC2NC12C#N	C[C@@]1(N)C[C@H]2N[C@@]12C#N	
InChI=1S/C6H9N3/c1-5(8)2-4-6(5,3-7)9-4/h4,9H,2,8H2,1H3	InChI=1S/C6H9N3/c1-5(8)2-4-6(5,3-7)9-4/h4,9H,2,8H2,1H3/t4-,5-,6-/m1/s1
