19
gdb 75634	1.97828	1.79445	1.14963	3.598	76.8	-0.2326	-0.0081	0.2245	1131.4461	0.156438	-423.023252	-423.01357	-423.012626	-423.057401	35.541	
C	-0.1350051016	 1.5991149722	 0.0578020698	-0.425521
C	 0.0626236411	 0.0887848416	 0.0444707733	-0.17311
C	 1.1209008356	-0.5656365478	-0.8891852863	 0.371639
O	 1.2573332726	-0.5717181786	-2.0815857811	-0.322988
C	 1.7767291817	-1.3167285635	 0.2342103913	 0.141977
C	 2.3629986171	-2.6975378221	 0.1804908435	-0.499553
C	 2.199713952	-0.281736492	 1.2909400369	-0.394746
C	 0.7613439017	-0.6554205259	 1.2008040439	 0.348062
O	 0.0883330121	-1.3151309926	 2.2098006495	-0.460578
H	 0.7850159974	 2.1287332434	 0.3243537172	 0.116921
H	-0.4415904725	 1.9463666825	-0.9336548404	 0.138395
H	-0.9122136275	 1.8932166087	 0.7710529509	 0.117478
H	-0.8873346447	-0.4190494109	-0.1686337219	 0.109638
H	 3.3608061078	-2.6884252004	-0.2702356561	 0.134038
H	 2.4491607503	-3.1182898313	 1.1872059676	 0.128205
H	 1.7341667605	-3.3669966038	-0.4142217436	 0.133306
H	 2.7387026243	-0.7395447049	 2.1157899352	 0.123162
H	 2.5649905796	 0.7016648615	 1.0091063942	 0.12145
H	 0.0567637823	-0.7445810162	 2.9851037361	 0.292226
93.4602	142.2227	161.4501	178.755	191.8556	207.7973	220.7304	279.2878	359.0727	413.9735	479.0694	554.2297	612.4208	628.2204	695.0781	751.2367	774.8065	841.9532	918.7288	968.8068	983.4996	1034.8108	1070.6179	1074.3191	1100.6837	1125.0487	1174.6748	1188.75	1220.6347	1305.6223	1337.3506	1356.8465	1404.3636	1409.665	1418.0787	1481.6504	1493.987	1496.5205	1498.0582	1506.5549	1874.2193	3032.9723	3034.7572	3035.3447	3100.7995	3101.0541	3108.5797	3109.1132	3114.1328	3198.9142	3803.6407
CC1C(=O)C2(C)CC12O	C[C@H]1C(=O)[C@@]2(C)C[C@@]12O	
InChI=1S/C7H10O2/c1-4-5(8)6(2)3-7(4,6)9/h4,9H,3H2,1-2H3	InChI=1S/C7H10O2/c1-4-5(8)6(2)3-7(4,6)9/h4,9H,3H2,1-2H3/t4-,6+,7+/m0/s1
