20
gdb 116793	6.71852	0.56792	0.54674	4.5639	81.26	-0.238	0.0155	0.2535	2021.6806	0.169385	-440.248703	-440.23865	-440.237706	-440.286206	33.698	
C	-0.1352907513	 1.3056176904	 0.063286498	-0.249687
O	-0.0347652078	-0.1134748241	 0.0489313587	-0.191347
C	 0.6147003917	-0.6407282557	-1.0057147131	 0.132706
N	 0.7656460592	-1.8850535479	-1.1117922163	-0.211922
C	 1.4843512827	-2.3811665591	-2.2689748037	-0.179657
C	 2.6846138275	-3.2161013264	-1.8324638644	-0.011828
C	 2.352311615	-4.5691977827	-1.1680519029	-0.068613
O	 2.9022210655	-5.303084464	-2.2860865628	-0.274725
C	 3.3330530395	-4.0886410078	-2.9294446368	-0.088552
H	 0.8535959115	 1.778495188	 0.1022836758	 0.127829
H	-0.6805803756	 1.6790400234	-0.8120020674	 0.128446
H	-0.6899152283	 1.5645849122	 0.9657336387	 0.148617
H	 0.9798703417	 0.100481508	-1.7353365697	 0.072328
H	 0.8062134142	-3.0230751318	-2.8482647681	 0.111162
H	 1.8205701277	-1.5732516915	-2.9442340826	 0.079144
H	 3.3833993241	-2.5944268948	-1.2676525803	 0.075139
H	 2.8893701773	-4.7832259644	-0.2358879811	 0.097831
H	 1.2854886975	-4.7718349262	-1.0204665764	 0.113138
H	 2.909615039	-3.9823474259	-3.9377276906	 0.09496
H	 4.4268442988	-4.0239695197	-2.9984933049	 0.095031
34.395	49.2507	60.4082	76.8816	146.1864	185.3633	213.7139	312.4422	336.9829	420.0804	472.2684	611.2905	791.3362	867.8782	887.4074	915.3534	973.4232	993.109	1025.8888	1037.9169	1050.1858	1092.5793	1117.1306	1149.103	1160.5207	1175.9786	1178.2678	1182.8228	1245.2932	1278.0527	1283.452	1308.6124	1343.0432	1380.6358	1394.6558	1414.5746	1485.3716	1492.5905	1495.004	1500.6539	1512.7075	1538.3016	1775.3327	2935.2789	2982.0337	2997.7452	3015.6525	3019.311	3023.1654	3037.2371	3065.6266	3077.7562	3084.6504	3146.5485
COC=NCC1COC1	COC=NCC1COC1	
InChI=1S/C6H11NO2/c1-8-5-7-2-6-3-9-4-6/h5-6H,2-4H2,1H3	InChI=1S/C6H11NO2/c1-8-5-7-2-6-3-9-4-6/h5-6H,2-4H2,1H3
