19
gdb 116050	3.14829	1.23225	0.92366	2.0403	80.84	-0.2253	-0.0346	0.1907	1255.347	0.160192	-423.020996	-423.01263	-423.011686	-423.054314	32.044	
O	-0.071151388	 1.4471010999	 0.0759141011	-0.427781
C	 0.0049494978	 0.0410206412	 0.120609672	-0.066179
C	-1.3773286826	-0.6017757279	-0.0075214668	 0.024269
O	-1.9150962126	-0.095460938	-1.2374573277	-0.265605
C	-3.3199741445	-0.0140284007	-1.3066961065	-0.139067
C	-4.0771711329	-1.3036512449	-1.1786699986	-0.077964
C	-3.6302125955	-2.5183611196	-0.8275438545	-0.075484
C	-2.2976842778	-2.9132707196	-0.3803175185	-0.081572
C	-1.3029160783	-2.1041855043	 0.0043953864	-0.072635
H	-0.607364594	 1.6452356094	-0.7019118008	 0.285754
H	 0.653140028	-0.3595129879	-0.6765867875	 0.095146
H	 0.4482966918	-0.2346407759	 1.0831394805	 0.109192
H	-2.0060571984	-0.2427651949	 0.8234391485	 0.091181
H	-3.7122133896	 0.7098999009	-0.5690073168	 0.105193
H	-3.5282773779	 0.4177238752	-2.2949593031	 0.12312
H	-5.1302519763	-1.2054733555	-1.4385172308	 0.096295
H	-4.3550968064	-3.3290843869	-0.8546837942	 0.090423
H	-2.1296260439	-3.9863019649	-0.3252912803	 0.093302
H	-0.3639619087	-2.5426402357	 0.3349153075	 0.092412
52.2512	131.6638	180.1137	269.6717	284.5592	342.9763	391.9798	446.8406	454.1985	488.6201	559.607	671.9317	728.0411	776.1502	814.3203	872.0031	892.6094	960.6533	989.795	1008.4393	1010.386	1031.4869	1082.4689	1096.5595	1103.7522	1157.1842	1226.971	1245.318	1259.8672	1280.975	1286.6822	1367.0072	1386.5398	1405.9807	1420.9843	1437.6865	1456.6078	1475.5106	1499.8231	1682.4526	1715.99	2935.7874	2965.9849	2979.7074	3033.3974	3077.7977	3131.1009	3141.7629	3154.2319	3167.8584	3781.6897
OCC1OCC=CC=C1	OC[C@H]1OCC=CC=C1	
InChI=1S/C7H10O2/c8-6-7-4-2-1-3-5-9-7/h1-4,7-8H,5-6H2	InChI=1S/C7H10O2/c8-6-7-4-2-1-3-5-9-7/h1-4,7-8H,5-6H2/t7-/m0/s1
