20
gdb 80487	2.1548	1.69061	1.50008	2.6187	74.2	-0.2171	0.0415	0.2586	1019.8116	0.171866	-440.251382	-440.242757	-440.241812	-440.284311	33.536	
C	 0.1053751496	 1.7118202901	-0.3122381958	-0.339129
N	 0.1412616063	 0.2824089915	-0.0273240898	-0.085597
C	 1.2906423282	-0.5678920142	-0.2603538245	-0.040994
C	 2.6893735586	 0.0342586124	-0.3837272276	-0.254163
C	 2.9991955808	 0.7666531583	 0.9463011745	 0.078248
O	 3.0803663657	 2.1685149127	 0.7826827523	-0.427341
C	 1.8447091682	 0.3676150237	 1.9391421647	 0.047095
O	 1.3325219559	 1.5131365008	 2.6317821536	-0.429371
C	 0.7678243449	-0.3312970749	 1.1279827178	-0.047329
H	 1.0655395912	 2.2320142881	-0.235979531	 0.132719
H	-0.2790923957	 1.8409157413	-1.3297774886	 0.115189
H	-0.6026457322	 2.1821143832	 0.3761631132	 0.125123
H	 1.0877475869	-1.488082401	-0.8043927052	 0.085651
H	 3.4069181081	-0.775158894	-0.5547080804	 0.09974
H	 2.7859343208	 0.7316265843	-1.2215843806	 0.121793
H	 3.9591962921	 0.4137369988	 1.3483817067	 0.072361
H	 2.5020396409	 2.5388807159	 1.467840662	 0.284496
H	 2.2273491779	-0.3557885202	 2.6697343098	 0.079782
H	 1.7703338147	 1.5767311266	 3.4857338905	 0.296698
H	 0.1460772171	-1.0474923537	 1.6616671185	 0.085027
83.6455	154.3375	190.9356	231.9209	246.5238	317.7059	334.8182	398.2323	457.1672	531.8918	572.0458	596.7553	673.3493	734.3644	763.9545	775.3636	850.9031	902.5574	947.2146	1000.1256	1029.8266	1052.7435	1081.8611	1094.6636	1125.8983	1144.0813	1175.6637	1187.5441	1221.0548	1231.4423	1241.4234	1309.3636	1330.1585	1333.3007	1343.159	1382.3047	1417.8303	1422.181	1430.5583	1465.4065	1479.1131	1505.3573	1523.5201	2986.2567	3025.0353	3028.1508	3049.1931	3090.375	3092.7106	3110.3718	3117.4717	3127.7597	3686.807	3834.1362
CN1C2CC(O)C(O)C12	CN1[C@H]2C[C@@H](O)[C@@H](O)[C@@H]12	
InChI=1S/C6H11NO2/c1-7-3-2-4(8)6(9)5(3)7/h3-6,8-9H,2H2,1H3	InChI=1S/C6H11NO2/c1-7-3-2-4(8)6(9)5(3)7/h3-6,8-9H,2H2,1H3/t3-,4+,5-,6+,7?/m0/s1
