19
gdb 112255	2.53727	1.13366	0.85489	2.9672	71.59	-0.2737	0.0038	0.2775	1368.8314	0.15836	-460.190826	-460.18137	-460.180425	-460.225678	33.901	
C	 0.1950912098	 1.6977379308	 0.0305744939	-0.39061
C	-0.1881795238	 0.2158328533	 0.1184677048	-0.20599
C	 0.5659029917	-0.497080096	 1.2431048638	-0.211363
C	 0.4921528538	-2.0321545093	 1.4366857378	 0.081446
C	-0.1906823065	-2.9071263981	 0.4036404738	-0.07059
O	 0.1276908093	-4.2685849836	 0.6097277955	-0.418056
O	 1.9571731684	-2.1202744388	 1.2667538948	-0.271831
C	 2.0576737648	-0.7701128668	 1.0279205636	 0.462755
O	 3.0359786846	-0.1565208128	 0.7440317049	-0.32336
H	 1.2706257264	 1.8109445693	-0.1304940572	 0.152631
H	-0.3307428346	 2.1868984838	-0.7941449538	 0.118273
H	-0.0630510811	 2.2268713646	 0.9543592555	 0.117971
H	-1.265904511	 0.1157914017	 0.2949761591	 0.108512
H	 0.018054237	-0.272440151	-0.8401684281	 0.11271
H	 0.4107167922	 0.035353109	 2.187444208	 0.116553
H	 0.2305037917	-2.3641061812	 2.4446685227	 0.106085
H	-1.2777751333	-2.8172538144	 0.503673494	 0.120003
H	 0.0835631989	-2.5765054358	-0.6090722465	 0.097993
H	 1.0879043416	-4.3426830849	 0.5581311832	 0.296868
80.6759	96.1586	117.4939	131.2092	175.1858	247.8456	293.1942	318.895	408.6723	450.3788	462.9369	558.1042	697.0372	764.8175	782.2892	827.0172	865.9321	912.7624	984.5512	1006.4998	1047.1153	1081.7286	1100.9287	1121.1339	1146.7087	1170.5711	1210.0167	1227.5996	1281.0797	1300.4047	1333.7937	1351.7369	1379.9487	1404.8359	1415.5324	1434.4348	1488.2434	1496.0923	1500.1258	1512.1241	1928.4068	2997.3436	3033.2713	3039.3288	3055.7274	3073.5102	3074.7571	3091.4606	3108.5372	3125.8145	3797.941
CCC1C(CO)OC1=O	CC[C@H]1[C@@H](CO)OC1=O	
InChI=1S/C6H10O3/c1-2-4-5(3-7)9-6(4)8/h4-5,7H,2-3H2,1H3	InChI=1S/C6H10O3/c1-2-4-5(3-7)9-6(4)8/h4-5,7H,2-3H2,1H3/t4-,5+/m0/s1
