15
gdb 69799	2.67993	1.93191	1.31459	3.5629	64.13	-0.2457	-0.0551	0.1906	941.8553	0.111219	-457.733293	-457.72583	-457.724886	-457.765147	28.3	
C	-0.0517188332	 1.5525865308	 0.0228184023	-0.484794
C	 0.1419764969	 0.0658194729	 0.0370629763	 0.265036
O	-0.7300683512	-0.7176914507	 0.8758940682	-0.258284
C	 0.666756772	-0.7692956855	 1.1386302252	-0.062988
C	 1.3319759334	-2.0183132297	 0.5527301631	 0.009094
O	 0.4127999627	-2.8745584435	-0.1099386837	-0.217519
C	 1.1868871244	-1.9744720508	-0.9148281244	-0.093442
C	 0.5088008079	-0.6555193214	-1.2635169947	 0.378486
O	 0.4303158542	-0.1782935237	-2.365774104	-0.300434
H	 0.8529498408	 2.0596279197	-0.3255110262	 0.134923
H	-0.8648026736	 1.8195448047	-0.6586013306	 0.150427
H	-0.2994000191	 1.9090208939	 1.0252264965	 0.133625
H	 1.0021563062	-0.3554827031	 2.0853862342	 0.10983
H	 2.1694818403	-2.4918673734	 1.0556930874	 0.114364
H	 1.8647522784	-2.4245282401	-1.6342324296	 0.121676
118.6381	162.0938	213.2331	248.9557	290.6903	366.0942	460.9052	541.6888	591.3116	651.2324	706.9123	786.1504	813.0398	837.8728	870.7785	889.9436	939.4607	990.1645	1026.889	1066.5428	1074.33	1103.7938	1126.9314	1236.2633	1272.3676	1277.8854	1313.152	1392.5102	1408.5001	1440.6771	1477.4531	1490.0206	1843.2613	3048.1061	3116.514	3134.4943	3154.8184	3162.4999	3173.2886
CC12OC1C1OC1C2=O	C[C@]12O[C@H]1[C@H]1O[C@H]1C2=O	
InChI=1S/C6H6O3/c1-6-4(7)2-3(8-2)5(6)9-6/h2-3,5H,1H3	InChI=1S/C6H6O3/c1-6-4(7)2-3(8-2)5(6)9-6/h2-3,5H,1H3/t2-,3+,5+,6-/m1/s1
