16
gdb 18115	4.16062	2.11391	1.57108	3.0075	66.44	-0.25	0.001	0.251	811.2734	0.132789	-383.73927	-383.732828	-383.731884	-383.770124	24.456	
C	 0.2206754406	 1.2614429182	 0.3778369133	-0.062306
C	 1.4631442888	 1.9378687992	-0.2712525276	-0.338291
C	 2.1222942577	 0.6964341964	-0.7637975343	 0.224884
C	 3.2209921955	-0.0015066125	-0.5071777501	-0.226572
C	 2.9477338562	-1.4581971188	-0.7915403474	-0.10998
O	 1.5417524456	-1.5358658627	-1.0525059516	-0.272508
C	 1.031186485	-0.2321210265	-1.2250182656	 0.196192
O	-0.0847190555	 0.1003876029	-0.4121607145	-0.273228
H	 0.4532617942	 0.9653591684	 1.4096445052	 0.10525
H	-0.6641808811	 1.9042913354	 0.3901827404	 0.110328
H	 1.1539721325	 2.6006917417	-1.0876858587	 0.119185
H	 2.0532990277	 2.5123020552	 0.4449307694	 0.116754
H	 4.1401912986	 0.3510721176	-0.0564793112	 0.109181
H	 3.5053847432	-1.8534301875	-1.6545932586	 0.110778
H	 3.197320554	-2.0875420904	 0.074076293	 0.116765
H	 0.706784747	-0.1284660666	-2.2723198317	 0.073568
98.5062	133.5388	266.121	365.2247	422.1768	609.8583	649.8602	711.4187	786.4523	817.8878	855.8368	911.5238	918.2925	946.717	969.1306	983.1368	1036.1261	1049.7342	1064.4286	1095.7993	1177.5438	1187.3447	1195.0092	1221.3249	1282.815	1293.7795	1346.204	1363.2401	1394.1751	1407.0783	1482.3827	1515.0006	1522.2069	1750.4172	2974.7327	2987.0124	3012.0478	3021.558	3041.8825	3084.6167	3120.4222	3215.1752
C1CC2=CCOC2O1	C1C[C]2[CH]CO[C@H]2O1	
InChI=1S/C6H8O2/c1-3-7-6-5(1)2-4-8-6/h1,6H,2-4H2	InChI=1S/C6H8O2/c1-3-7-6-5(1)2-4-8-6/h1,6H,2-4H2/t6-/m0/s1
