18
gdb 61038	2.84011	1.20601	0.99466	5.1882	74.58	-0.2494	-0.0252	0.2242	1229.9078	0.145778	-439.116451	-439.107109	-439.106165	-439.151801	32.698	
C	 0.1413671908	 1.3141652633	-0.3711287842	-0.394403
C	-0.0313633283	-0.1555592857	 0.0200600445	-0.074934
C	 0.6287198361	-0.4824900031	 1.3654789406	 0.169453
O	 1.4795692379	 0.1991849941	 1.8689214118	-0.240276
N	-1.4074798903	-0.6051730741	 0.0424544852	-0.087248
C	-2.3248660849	-1.0709597324	-1.0081742888	-0.173182
C	-3.4551622743	-1.038863749	 0.0598028213	-0.370938
C	-2.3697948011	-0.5037606721	 1.0215351587	 0.41516
O	-2.305408534	-0.1284703304	 2.1634947396	-0.37129
H	 1.1987511036	 1.5850734753	-0.3416630307	 0.143451
H	-0.2448481053	 1.4961961902	-1.377709299	 0.11342
H	-0.3931658831	 1.9555557359	 0.3342489302	 0.147325
H	 0.4958725137	-0.7956219785	-0.7059502863	 0.115859
H	 0.2883518992	-1.4375867018	 1.8172993056	 0.096293
H	-2.4524621509	-0.3638454923	-1.8344637921	 0.118174
H	-2.0736639713	-2.0586028222	-1.4081482533	 0.116231
H	-4.2669214911	-0.335826438	-0.1329976694	 0.138658
H	-3.8678606268	-2.0092837192	 0.3398405863	 0.138247
34.1985	86.5719	98.6923	165.9718	187.9941	224.6438	258.6078	382.527	391.1331	462.8229	565.5645	601.0436	735.4267	780.5588	821.1074	841.1914	914.569	940.1936	997.9365	1045.666	1083.2263	1099.9599	1132.7485	1150.0593	1157.0141	1186.9247	1218.8939	1269.5726	1309.0004	1339.5948	1397.7367	1412.4394	1422.7501	1461.8577	1486.1731	1495.2002	1530.0882	1838.4888	1868.7932	2918.9912	2986.8873	3038.6101	3052.7223	3083.6362	3092.0384	3127.6528	3141.4609	3150.1247
CC(C=O)N1CCC1=O	C[C@@H](C=O)N1CCC1=O	
InChI=1S/C6H9NO2/c1-5(4-8)7-3-2-6(7)9/h4-5H,2-3H2,1H3	InChI=1S/C6H9NO2/c1-5(4-8)7-3-2-6(7)9/h4-5H,2-3H2,1H3/t5-/m0/s1
