17
gdb 14865	2.82671	1.70738	1.16793	3.9124	65.65	-0.2311	-0.0222	0.2088	1031.4735	0.140729	-400.962681	-400.954175	-400.953231	-400.99648	29.514	
C	-0.1331698734	 1.4044877225	 0.0132799708	-0.240199
O	-0.0814832248	 0.0355360997	 0.3530899617	-0.238699
C	-1.295958464	-0.635899254	 0.1554602372	 0.12906
C	-1.5739889074	-1.1278192798	-1.29385786	-0.194778
N	-1.113958948	-2.4790434136	-0.9008620337	-0.319469
C	-1.1693041608	-2.142514207	 0.5368820608	-0.102434
C	 0.0784490599	-2.5212641273	 1.3166302198	 0.178198
O	 0.0893559153	-2.7271390108	 2.5022637973	-0.252449
H	 0.8480217447	 1.8285733667	 0.2364193819	 0.136581
H	-0.3505793884	 1.5572079458	-1.0540423121	 0.111184
H	-0.8962080213	 1.9354885313	 0.6030150156	 0.11059
H	-2.1200538342	-0.0961535935	 0.6398509479	 0.077512
H	-2.6346991234	-1.0575652937	-1.5687506166	 0.095883
H	-0.9706083752	-0.6628232105	-2.0812811092	 0.110432
H	-1.7035033224	-3.2492055198	-1.1925710187	 0.224724
H	-2.0492289436	-2.4989410364	 1.0868428385	 0.085259
H	 0.9890929771	-2.5978085897	 0.6859087988	 0.088605
64.5471	91.9961	112.9563	167.5666	195.6935	285.5434	338.9343	421.3823	484.979	511.4721	645.4078	822.7353	863.1237	930.7601	960.315	1003.1619	1037.4141	1053.3002	1081.6243	1129.5134	1145.0721	1180.5053	1182.6824	1201.3629	1252.1256	1266.1713	1295.4849	1334.7445	1382.8196	1389.7667	1403.7257	1481.0295	1487.9205	1505.3275	1508.1912	1831.4923	2916.6958	2980.0701	3006.2801	3016.779	3030.7297	3034.9961	3064.5657	3124.6532	3547.2097
COC1CNC1C=O	CO[C@H]1CN[C@H]1C=O	
InChI=1S/C5H9NO2/c1-8-5-2-6-4(5)3-7/h3-6H,2H2,1H3	InChI=1S/C5H9NO2/c1-8-5-2-6-4(5)3-7/h3-6H,2H2,1H3/t4-,5-/m0/s1
