17
gdb 65453	4.04848	0.78004	0.74473	3.6516	77.69	-0.2412	-0.0215	0.2197	1517.8844	0.131777	-421.779	-421.769312	-421.768368	-421.81423	34.938	
O	-0.0533040228	 1.3167219799	 0.1812722856	-0.446398
C	 0.0145239831	-0.0712329446	-0.0094028516	 0.185006
C	-0.5210343344	-0.956637762	 1.1055014902	-0.344686
C	-1.3317458569	-0.7525217286	-0.155375116	-0.065291
C	-2.6053924389	 0.0704392856	-0.1489908396	-0.305557
C	-3.7669329487	-0.6929529964	 0.4531094298	 0.16842
O	-4.8544788534	-0.8009164825	-0.0509926016	-0.240169
C	 1.1263317083	-0.531113955	-0.8004856118	 0.298289
C	 2.0757254058	-0.8971694931	-1.4419481651	-0.455932
H	 0.737133339	 1.5868054983	 0.6619731913	 0.292233
H	-0.0508203391	-1.9173999593	 1.2779184678	 0.129795
H	-0.8381212717	-0.425728417	 1.997129463	 0.123344
H	-1.3356662573	-1.5894182341	-0.8466119941	 0.116711
H	-2.4438596669	 0.9713399816	 0.4559762111	 0.141075
H	-2.8833223792	 0.3919686984	-1.1566181876	 0.128897
H	-3.5410613333	-1.1661153014	 1.4371234297	 0.073478
H	 2.9053626963	-1.2205011299	-2.020799501	 0.200784
53.1908	71.6953	124.3668	144.9908	203.9397	254.0235	282.4583	351.0524	406.3311	439.349	520.555	552.6754	582.5964	603.1511	681.4334	703.4469	781.2219	845.3898	892.802	922.6278	939.3887	1037.8295	1057.3133	1081.0949	1095.5096	1161.7948	1223.5746	1236.9312	1267.325	1292.8805	1343.8995	1412.564	1428.0327	1460.1376	1478.6002	1835.525	2232.6723	2861.5917	3043.0199	3103.3637	3136.3045	3162.4543	3231.9208	3500.9162	3801.5063
OC1(CC1CC=O)C#C	O[C@]1(C[C@H]1CC=O)C#C	
InChI=1S/C7H8O2/c1-2-7(9)5-6(7)3-4-8/h1,4,6,9H,3,5H2	InChI=1S/C7H8O2/c1-2-7(9)5-6(7)3-4-8/h1,4,6,9H,3,5H2/t6-,7+/m1/s1
