23
gdb 111755	2.36231	1.22793	0.9693	0.9752	86.19	-0.2358	0.0855	0.3213	1360.0032	0.204665	-388.25443	-388.244582	-388.243638	-388.289387	36.704	
C	 0.2142914615	 1.4121590902	 0.1565268097	-0.369026
C	-0.2179448957	-0.0375226111	-0.0962179228	-0.213772
C	 0.5213429449	-0.6700336372	-1.2594663098	-0.052893
C	 1.9357683485	-1.229777398	-1.2062123084	-0.163621
C	 2.188122677	-1.9825765832	 0.1076696703	-0.225489
C	 0.9845226641	-2.9298367241	-0.2114767965	-0.303983
C	 0.7513288361	-2.1372790087	-1.5082808784	 0.407199
O	 0.4498808743	-2.728928787	-2.7191117658	-0.276211
C	-0.9306261652	-3.0014769575	-2.8834035695	-0.255132
H	 1.2824211168	 1.4673432558	 0.391520129	 0.119583
H	 0.0395151602	 2.0362325699	-0.7269054398	 0.11272
H	-0.3389189271	 1.8537203506	 0.9915265452	 0.108078
H	-0.0682415699	-0.6242650993	 0.8165236883	 0.099022
H	-1.2968336592	-0.06823157	-0.2977129444	 0.093354
H	 0.3583559957	-0.1556878362	-2.2066646665	 0.085155
H	 2.7054180702	-0.8711811822	-1.8789815831	 0.088571
H	 3.1415942868	-2.5145635051	 0.1136565066	 0.105069
H	 2.116677978	-1.3937449691	 1.0272557393	 0.097496
H	 1.3160325825	-3.9482389896	-0.4263742909	 0.108452
H	 0.1639501318	-2.9694755931	 0.5118295796	 0.092039
H	-1.3007172309	-3.706809332	-2.1254592933	 0.1098
H	-1.5314186601	-2.0826936383	-2.8269109795	 0.108508
H	-1.0537504401	-3.4501351648	-3.8718782792	 0.12508
63.0634	86.5089	141.4491	170.6319	193.1039	215.119	274.5882	282.1538	359.3732	407.5275	475.7268	527.4925	648.4058	723.9658	769.5415	799.3088	828.6006	899.5888	925.3951	947.1272	955.1285	999.7053	1026.5164	1056.2585	1059.4897	1099.9263	1114.6296	1132.9827	1159.8863	1180.4624	1203.3935	1215.2209	1231.3931	1235.1777	1249.6226	1290.2149	1303.0753	1323.9049	1359.035	1409.3257	1449.8233	1475.2092	1483.2251	1487.8691	1493.1224	1498.086	1505.5009	1508.1225	1513.8354	2988.6418	3020.9425	3030.5536	3040.3736	3046.5957	3054.9005	3061.8501	3098.2666	3098.9228	3103.3092	3114.8543	3117.0857	3117.7875	3184.604
CCC1C2CCC12OC	CC[C@H]1[C@H]2CC[C@@]12OC	
InChI=1S/C8H14O/c1-3-6-7-4-5-8(6,7)9-2/h6-7H,3-5H2,1-2H3	InChI=1S/C8H14O/c1-3-6-7-4-5-8(6,7)9-2/h6-7H,3-5H2,1-2H3/t6-,7+,8+/m0/s1
