13
gdb 27603	3.69344	1.20451	0.9083	3.4085	74.99	-0.2603	-0.0723	0.188	1164.6574	0.092016	-415.693583	-415.686648	-415.685703	-415.725125	26.29	
O	 0.0824952698	 1.3445977833	-0.0691380895	-0.41073
C	 0.067427351	 0.000826945	-0.0447971259	 0.465979
C	 0.0397988771	-0.6870261066	-1.2628468481	-0.306776
C	 0.0246447642	-2.0770676821	-1.2102811137	 0.215526
C	 0.0373325781	-2.7250647315	 0.0349880548	-0.219228
C	 0.0648396799	-1.9320309085	 1.1709669308	 0.012346
N	 0.0797850409	-0.5946436207	 1.1429037183	-0.357662
C	-0.0037550926	-2.8418838796	-2.4214061884	 0.219698
N	-0.0266916398	-3.4639112254	-3.3966018275	-0.319662
H	 0.1007582206	 1.6336933285	 0.8542707112	 0.304993
H	 0.0308353388	-0.1478008532	-2.2004811722	 0.139384
H	 0.0259920535	-3.8046081431	 0.1020553663	 0.12789
H	 0.0755565585	-2.3873431762	 2.1573455139	 0.128242
141.8103	152.112	217.8058	401.2561	408.5504	455.1352	489.6337	549.6774	568.4785	589.1328	681.8497	759.548	766.2678	851.613	904.9886	966.1367	988.7617	1007.4536	1121.9879	1166.4268	1211.6847	1308.3912	1327.0934	1359.8119	1484.8034	1516.731	1595.9706	1653.3629	2352.2188	3171.0344	3227.7578	3228.0512	3764.9515
OC1=CC(=CC=N1)C#N	Oc1cc(ccn1)C#N	
InChI=1S/C6H4N2O/c7-4-5-1-2-8-6(9)3-5/h1-3H,(H,8,9)	InChI=1S/C6H4N2O/c7-4-5-1-2-8-6(9)3-5/h1-3H,(H,8,9)
