14
gdb 12426	3.83161	2.08441	1.38343	2.0008	67.38	-0.1951	-0.0293	0.1658	838.3	0.110545	-378.774679	-378.768029	-378.767085	-378.805582	25.351	
O	 0.0029040728	-0.0664783459	 0.0036391603	-0.374715
C	-0.0135188429	 1.1459721507	 0.0095677653	 0.436207
N	-1.1692370999	 1.8483908817	-0.3123708316	-0.357342
C	-1.5535213343	 3.1374263299	 0.0958507892	-0.027541
C	-0.7663306594	 4.217420595	 0.1712282113	-0.11502
C	 0.6556391366	 4.2382063013	-0.1214624381	-0.115031
C	 1.4718949199	 3.1792979643	-0.0567858086	-0.027507
N	 1.1228255752	 1.8762617282	 0.3384450346	-0.357373
H	-1.9216469898	 1.1954436253	-0.4701280786	 0.25845
H	-2.6098283132	 3.2112783807	 0.3333181788	 0.113789
H	-1.2341919635	 5.1484990803	 0.4727716287	 0.096918
H	 1.0979832469	 5.1846214562	-0.4136263769	 0.096919
H	 2.5257686272	 3.2841941526	-0.2933790795	 0.113791
H	 1.8926807246	 1.2424696896	 0.4900435753	 0.258455
112.2898	129.3378	346.3589	359.9222	420.5952	505.0453	561.6357	610.6383	611.5048	749.377	766.6958	769.6442	774.8599	907.496	929.5973	931.0513	936.0671	964.185	1046.6638	1156.7031	1244.1176	1280.4197	1313.3209	1431.4699	1463.2517	1474.3692	1495.8444	1708.6583	1723.4237	1811.4062	3169.1897	3173.8753	3188.5335	3196.5405	3628.4931	3631.1961
O=C1NC=CC=CN1	O=c1[nH]cccc[nH]1	
InChI=1S/C5H6N2O/c8-5-6-3-1-2-4-7-5/h1-4H,(H2,6,7,8)	InChI=1S/C5H6N2O/c8-5-6-3-1-2-4-7-5/h1-4H,(H2,6,7,8)
