17
gdb 97726	5.24697	0.67744	0.65591	1.7093	81.27	-0.2419	0.0068	0.2487	1719.6129	0.134454	-421.749254	-421.740321	-421.739376	-421.784497	32.08	
O	 0.0995215158	 1.4252886931	-0.1831492969	-0.399649
C	 0.0651008598	 0.0239364905	 0.0449753118	-0.209077
C	-1.2878219283	-0.5229072057	 0.1268701402	 0.289984
C	-2.4155024957	-0.951044157	 0.141909047	-0.204742
C	-3.7517637996	-1.4259440758	 0.2232795615	 0.281421
C	-4.8239242899	-1.1060683034	 1.2860550664	-0.31428
C	-5.4361631814	-2.5283161211	 1.0393745582	-0.242015
C	-4.3507886201	-2.7653361825	-0.017333337	-0.051089
O	-4.4686311026	-1.7343692002	-0.9924902581	-0.283424
H	-0.452365136	 1.6060198375	-0.9514521387	 0.290128
H	 0.6269738118	-0.5248674298	-0.7278979564	 0.123192
H	 0.5930805891	-0.1367754415	 0.9916745684	 0.142567
H	-4.4061760855	-0.9945166978	 2.2881195579	 0.12021
H	-5.4511109302	-0.2449485551	 1.047723462	 0.116226
H	-5.3401406637	-3.1808185742	 1.9099043951	 0.11179
H	-6.4595605676	-2.5692385247	 0.6603361296	 0.116991
H	-3.880429916	-3.6915854224	-0.3280267311	 0.111766
26.32	80.4023	97.0598	177.8766	271.5623	283.2047	343.1861	405.889	479.2861	495.4779	542.6111	617.8283	729.6095	774.363	864.7533	884.3099	925.717	933.0233	972.1914	990.6911	1027.2044	1052.8254	1070.6625	1141.2199	1176.9424	1212.809	1215.8204	1222.3778	1270.3179	1284.3028	1357.43	1413.6459	1429.3069	1464.6934	1487.5844	1487.734	2351.7987	2977.0001	3061.78	3070.9245	3079.5134	3124.1027	3142.33	3185.6868	3815.219
OCC#CC12CCC1O2	OCC#C[C@]12CC[C@H]1O2	
InChI=1S/C7H8O2/c8-5-1-3-7-4-2-6(7)9-7/h6,8H,2,4-5H2	InChI=1S/C7H8O2/c8-5-1-3-7-4-2-6(7)9-7/h6,8H,2,4-5H2/t6-,7+/m1/s1
