17
gdb 24209	4.14399	1.61328	1.41116	4.3757	77.84	-0.2105	0.0342	0.2447	929.7799	0.141102	-380.870646	-380.864621	-380.863676	-380.901079	25.132	
C	-0.0441673959	 1.5867750632	-0.043357601	-0.215869
C	 1.5013859252	 1.3615901633	 0.0088024351	-0.025487
C	 1.1920153439	 0.1782289155	 0.9814999839	-0.215873
C	-0.0499074252	 0.0102947978	 0.022772423	-0.187561
C	 0.6657689432	-0.3039396384	-1.2722783589	 0.335507
C	 0.8261630907	-1.0085841352	-2.4332133869	-0.269056
N	 1.9347031165	-0.5318039399	-3.1147213949	-0.285843
C	 2.4326794556	 0.4418650035	-2.3777610421	-0.019186
N	 1.6942504744	 0.6151588483	-1.249809883	 0.021091
H	-0.4335307187	 2.053481077	 0.8642442403	 0.107789
H	-0.449641077	 2.0608120329	-0.939176322	 0.116457
H	 2.2335493463	 2.1426223118	 0.1990794666	 0.093745
H	 1.9174789236	-0.6363686203	 1.0232737562	 0.116465
H	 0.9156660867	 0.5161575063	 1.9827980147	 0.107789
H	-0.9311231839	-0.5613180751	 0.3000747792	 0.088552
H	 0.2330422559	-1.8176709756	-2.8294108747	 0.104422
H	 3.3034722685	 1.0337250651	-2.6146510756	 0.127059
97.2891	301.2216	413.1679	481.8151	512.5032	656.8121	681.0986	689.2198	729.1649	797.8588	807.4602	824.5746	836.7207	870.0504	900.1917	952.2636	998.5236	1016.9431	1033.379	1061.9238	1077.5416	1101.1719	1114.4646	1157.0339	1219.3624	1222.9758	1226.9602	1228.7302	1261.5661	1271.2795	1292.0256	1366.2354	1422.5802	1475.8936	1485.0657	1509.9852	1597.9126	3064.946	3072.871	3136.2733	3140.9981	3155.1313	3162.9884	3253.6174	3256.95
C1C2CC1C1=CN=CN21	C1[C@H]2C[C@@H]1c1cncn21	
InChI=1S/C7H8N2/c1-5-2-6(1)9-4-8-3-7(5)9/h3-6H,1-2H2	InChI=1S/C7H8N2/c1-5-2-6(1)9-4-8-3-7(5)9/h3-6H,1-2H2/t5-,6+
