21
gdb 85554	2.62512	1.30749	0.93794	2.9855	85.49	-0.2324	-0.0089	0.2235	1293.237	0.182327	-387.137961	-387.128877	-387.127933	-387.171768	34.808	
C	-0.0936987812	 1.5488940903	-0.0559275216	-0.404144
C	 0.0095791292	 0.0188062093	 0.0635467774	-0.082836
C	 0.6263758252	-0.5613437177	-1.2287514507	-0.300178
C	 0.9306425095	-2.0404546386	-1.1114257007	 0.373187
O	 0.5230759035	-2.8657585637	-1.8946113517	-0.311168
C	 1.8043892387	-2.4032199531	 0.0799206963	-0.35673
C	 1.5665824376	-1.5178806765	 1.2746058202	-0.163187
C	 0.7676545212	-0.4466044759	 1.3003129497	 0.328145
C	 0.5381474601	 0.3121051533	 2.5827993761	-0.482567
H	 0.900531617	 2.0083833151	-0.0936339711	 0.117963
H	-0.6223643814	 1.8200775536	-0.9751071253	 0.118306
H	-0.6393423833	 1.9898693811	 0.7821837929	 0.119323
H	-1.0189661129	-0.366860709	 0.1480644468	 0.09619
H	-0.0255839455	-0.3981775343	-2.0904297157	 0.115556
H	 1.5772206918	-0.041262383	-1.4162263076	 0.114341
H	 1.6362020672	-3.4588424065	 0.3210938725	 0.131315
H	 2.8554750411	-2.3377937155	-0.2445488223	 0.131243
H	 2.0703378639	-1.8191831604	 2.1909611095	 0.083224
H	 1.0483379465	-0.1693965877	 3.4207838831	 0.120256
H	 0.8952846225	 1.3462665673	 2.5194198581	 0.127766
H	-0.5312638704	 0.3660636418	 2.8253802543	 0.123994
59.7086	102.4059	207.5832	240.8667	263.7764	317.4175	322.6025	345.6322	392.4376	430.4618	512.311	538.9419	579.9232	702.434	725.3746	793.9174	839.0672	873.6189	945.227	960.5351	979.3634	1038.0086	1060.9626	1072.8203	1101.6433	1114.1909	1157.4743	1185.6382	1213.1391	1253.3372	1298.0197	1318.5478	1341.8877	1345.5143	1381.2611	1409.3535	1419.1369	1447.3528	1466.5215	1481.4621	1489.2869	1500.0749	1509.5079	1731.2775	1822.9828	2975.0714	2988.5122	3012.3827	3020.1604	3033.6686	3063.2692	3070.6975	3099.2586	3104.6367	3112.7312	3117.5445	3141.4373
CC1CC(=O)CC=C1C	C[C@H]1CC(=O)CC=C1C	
InChI=1S/C8H12O/c1-6-3-4-8(9)5-7(6)2/h3,7H,4-5H2,1-2H3	InChI=1S/C8H12O/c1-6-3-4-8(9)5-7(6)2/h3,7H,4-5H2,1-2H3/t7-/m0/s1
