15
gdb 19996	3.69992	1.6663	1.32405	5.887	65.81	-0.2482	0.0079	0.2562	918.5263	0.120455	-358.793764	-358.786459	-358.785515	-358.82581	26.562	
N	 0.0512464377	-1.109766792	 0.5462493479	-0.326763
C	 0.0850777985	 0.026447602	 0.3368905751	 0.334363
C	 0.0852795648	 1.4390171523	 0.0414972743	-0.193872
N	 0.7328906909	 2.3309869684	 1.0250451503	-0.324745
C	 1.3351449033	 2.2008247528	-0.2974792289	-0.028957
C	 2.6944965159	 1.5728175469	-0.3632019771	-0.007487
C	 3.783212084	 2.139386895	 0.4757647069	-0.234241
N	 3.2242023011	 0.812569123	 0.7690091496	-0.305616
H	-0.834199512	 1.7796961481	-0.4272666029	 0.1362
H	 0.2006599104	 3.1906125415	 1.1214629047	 0.252349
H	 1.1775141403	 3.0106906379	-1.009438794	 0.10638
H	 2.9414727989	 1.1579505295	-1.3382788858	 0.104975
H	 4.8057307349	 2.1423601707	 0.1097543645	 0.12241
H	 3.5260742896	 2.9643126605	 1.1355907891	 0.114573
H	 2.5749784019	 0.8888817233	 1.5508246962	 0.25043
75.0401	110.4525	206.7089	249.2891	267.4707	409.849	550.185	587.7649	657.0951	735.3899	824.8228	847.3643	871.6573	913.7124	956.9281	970.456	985.4844	1045.3726	1091.4613	1116.7489	1143.8527	1178.7695	1192.5023	1216.7922	1241.1808	1279.3113	1311.9878	1389.0084	1418.5904	1452.0588	1507.9353	2362.6838	3108.5254	3110.9753	3132.2522	3147.8068	3196.7478	3485.2886	3524.2906
N#CC1NC1C1CN1	N#C[C@H]1N[C@H]1[C@H]1CN1	
InChI=1S/C5H7N3/c6-1-3-5(8-3)4-2-7-4/h3-5,7-8H,2H2	InChI=1S/C5H7N3/c6-1-3-5(8-3)4-2-7-4/h3-5,7-8H,2H2/t3-,4-,5-/m1/s1
