19
gdb 98656	3.93345	0.89028	0.79076	3.586	72.51	-0.2522	-0.0306	0.2217	1470.4033	0.156797	-460.161757	-460.152182	-460.151238	-460.19769	34.112	
C	-0.122531731	 1.4265826027	 0.4841047744	-0.399376
C	 0.7313142324	 0.1802751344	 0.3880777996	 0.164381
C	 0.380026891	-0.8614043376	-0.7002882828	-0.307735
C	 1.7853798059	-0.5369174201	-1.2636824972	 0.046633
O	 2.0221673883	 0.4417986303	-0.2365619588	-0.304126
C	 2.7776583715	-1.6829897984	-1.259552876	 0.313494
O	 2.6940519343	-2.5899812464	-2.061759689	-0.330854
C	 3.8892957474	-1.6800060715	-0.226560538	-0.130439
O	 4.7081405983	-2.8017452593	-0.3695829652	-0.423801
H	-0.2887133718	 1.8631551251	-0.5056079938	 0.123307
H	-1.094756298	 1.1876369931	 0.9288727701	 0.122117
H	 0.3666023826	 2.1762469895	 1.11352831	 0.133586
H	 0.8795354507	-0.2572172538	 1.3839662966	 0.085801
H	 0.2360514936	-1.8876849891	-0.3607782386	 0.126352
H	-0.4447982606	-0.5796685508	-1.3561059712	 0.122619
H	 1.7890117715	-0.0927563959	-2.2672240466	 0.114205
H	 4.4532254478	-0.7393783121	-0.3342225392	 0.130843
H	 3.4329605415	-1.6333335387	 0.7753754439	 0.120045
H	 4.3363938647	-3.2938346115	-1.1194473282	 0.292948
29.8162	49.5661	111.6248	159.4192	217.4433	238.0516	308.9934	351.18	395.9671	426.9789	498.4393	525.9315	617.0053	747.1993	809.969	876.4951	890.5428	903.8099	960.711	965.1282	1046.1511	1069.787	1088.3748	1125.7624	1133.0574	1185.3019	1199.56	1232.4847	1247.2185	1256.1471	1311.0434	1319.6296	1340.8949	1391.7228	1410.7919	1449.9235	1473.2175	1482.4178	1491.3863	1497.6507	1790.8119	2985.7322	2998.5947	3016.5537	3028.6065	3034.9622	3086.9576	3108.2608	3115.5009	3143.4212	3679.7107
CC1CC(O1)C(=O)CO	C[C@H]1C[C@@H](O1)C(=O)CO	
InChI=1S/C6H10O3/c1-4-2-6(9-4)5(8)3-7/h4,6-7H,2-3H2,1H3	InChI=1S/C6H10O3/c1-4-2-6(9-4)5(8)3-7/h4,6-7H,2-3H2,1H3/t4-,6+/m0/s1
