22
gdb 112544	2.60593	1.09464	0.96324	2.4385	83.63	-0.2363	-0.0198	0.2165	1387.7105	0.191597	-404.361524	-404.351037	-404.350093	-404.397073	38.248	
C	 0.6755812857	 2.1577986787	-0.400383403	-0.386955
C	 0.1262192093	 0.7305968898	-0.3371327321	-0.168549
C	 1.0213727704	-0.2730555036	-1.058349834	-0.082194
N	 2.342817742	-0.5442592394	-0.4168965215	-0.368272
C	 2.1587449561	-2.0349552034	-0.4537593868	 0.199459
C	 2.9653944185	-2.7455379287	-1.5462337974	-0.438798
C	 2.3238412909	-2.7068289825	 0.9065108447	-0.413685
C	 0.7024402731	-1.7662002862	-0.8901168324	 0.355288
O	-0.2787689521	-2.4404704825	-1.0014808567	-0.309192
H	 1.6739656011	 2.2047401831	 0.0457575361	 0.128282
H	 0.7501887025	 2.5103237598	-1.4355670269	 0.109781
H	 0.0304062683	 2.8542032888	 0.1435897686	 0.115831
H	 0.0233188259	 0.4186355227	 0.7084113747	 0.102719
H	-0.8732063302	 0.6810148398	-0.7859560923	 0.109343
H	 1.0907744107	-0.0088409308	-2.125850654	 0.089214
H	 3.1341093031	-0.2277886056	-0.9668058799	 0.214965
H	 4.0348867852	-2.7068843213	-1.3087247698	 0.122002
H	 2.6741844856	-3.7974832614	-1.6221138491	 0.13674
H	 2.815062896	-2.2811910377	-2.5264629658	 0.117178
H	 1.7735782857	-2.1615545239	 1.6769801458	 0.123768
H	 1.9521330127	-3.7357978521	 0.8717315628	 0.126932
H	 3.3800399994	-2.7300984237	 1.1961942192	 0.116144
57.9129	91.343	135.817	164.5067	180.9229	213.7407	233.9841	269.6332	289.0204	347.7584	368.9258	421.5065	553.1949	599.2971	683.0446	750.5064	760.8917	791.3067	874.9637	933.8965	942.2578	975.6146	979.7731	998.6599	1036.8682	1056.347	1101.0043	1130.5585	1180.3988	1195.7655	1245.1286	1267.2093	1286.218	1338.7584	1363.5422	1382.1081	1392.8768	1406.864	1412.292	1475.0403	1477.2684	1479.8265	1497.0331	1497.5079	1501.532	1509.1318	1902.7407	2975.7977	3025.6014	3030.8568	3034.2302	3035.5088	3071.7442	3093.7243	3100.6085	3104.1248	3110.1173	3110.6597	3124.2808	3529.5241
CCC1NC(C)(C)C1=O	CC[C@H]1NC(C)(C)C1=O	
InChI=1S/C7H13NO/c1-4-5-6(9)7(2,3)8-5/h5,8H,4H2,1-3H3	InChI=1S/C7H13NO/c1-4-5-6(9)7(2,3)8-5/h5,8H,4H2,1-3H3/t5-/m1/s1
