19
gdb 32797	3.22246	1.06983	0.83623	2.3767	79.32	-0.1797	0.0425	0.2222	1391.9208	0.161368	-415.415512	-415.406148	-415.405204	-415.450503	34.119	
C	-0.2648097036	 1.5340954374	-0.0341210013	-0.388188
C	-0.7716056467	 0.16689854	-0.481721578	-0.119413
N	-0.9716109084	-0.7115443628	 0.672465874	-0.392154
C	-1.4290359262	-2.0124953277	 0.4262673076	 0.276003
C	-2.5720837086	-2.4144899729	-0.2342763905	 0.173681
N	-3.659278013	-1.7618089513	-0.8510588785	-0.620798
N	-2.5588751508	-3.8006859024	-0.1341395979	-0.24773
C	-1.4568247605	-4.1534524005	 0.5676823698	 0.000523
N	-0.7475317539	-3.0994230087	 0.9193955072	-0.324596
H	-0.1391081134	 2.201322853	-0.8919158051	 0.114542
H	-0.9639490284	 1.9945844299	 0.6699258815	 0.125305
H	 0.7075423521	 1.448472245	 0.4646393467	 0.116872
H	-1.7344593216	 0.2824157879	-0.9922902256	 0.09058
H	-0.0763589598	-0.2689045329	-1.2197362745	 0.088995
H	-0.1266797594	-0.7752213272	 1.2295259212	 0.228702
H	-4.0092052962	-1.0033315872	-0.2754770983	 0.249134
H	-3.4270184289	-1.3747864335	-1.7607454298	 0.24197
H	-3.2795406878	-4.3998347344	-0.5005581295	 0.262675
H	-1.2080341249	-5.1806777417	 0.7876640111	 0.123896
40.0887	70.9392	133.2135	201.1018	247.2048	251.4507	279.5877	334.5863	389.6878	469.9782	519.4813	648.0491	680.7695	726.6056	757.9006	775.5326	789.8284	810.3874	828.4409	934.9424	957.7909	1065.8021	1114.6732	1139.0016	1141.2999	1181.8359	1223.0901	1258.7523	1293.0467	1295.5151	1373.3997	1398.0808	1414.4502	1466.5097	1489.157	1496.5333	1499.813	1521.9151	1533.3228	1645.545	1665.5075	2952.8326	3034.2141	3049.3301	3101.3941	3119.0039	3250.3577	3490.4188	3542.9083	3560.9661	3666.046
CCNC1=C(N)NC=N1	CCNc1c(N)[nH]cn1	
InChI=1S/C5H10N4/c1-2-7-5-4(6)8-3-9-5/h3,7H,2,6H2,1H3,(H,8,9)	InChI=1S/C5H10N4/c1-2-7-5-4(6)8-3-9-5/h3,7H,2,6H2,1H3,(H,8,9)
