17
gdb 5516	3.13937	1.82042	1.19067	2.0742	72.3	-0.1912	0.0428	0.234	1000.347	0.142837	-363.898272	-363.890006	-363.889062	-363.931239	30.109	
C	-0.1254584288	 1.5453083606	 0.0771353021	-0.509209
C	-0.019885818	 0.05008719	 0.0175013958	 0.186745
C	 0.0647473753	-0.7349011258	-1.1165271141	 0.240899
C	 0.1070841648	-0.3990726043	-2.5684061992	-0.205638
O	-0.5422741894	-1.4516248567	-3.2852118021	-0.426399
N	 0.1856648352	-2.0441249384	-0.7177909616	-0.275722
C	 0.1528948407	-2.1201690159	 0.6485675128	-0.089908
C	 0.0398480674	-0.8386990327	 1.1334380118	-0.231241
H	 0.8428326702	 2.0242216786	 0.2715311055	 0.121928
H	-0.5079761797	 1.963117555	-0.8598935771	 0.114879
H	-0.803385165	 1.8607185339	 0.877371327	 0.122724
H	-0.3856269951	 0.5700371055	-2.7362308331	 0.103664
H	 1.1472509516	-0.2954143301	-2.9223240957	 0.097483
H	-0.3533033727	-1.3329802723	-4.2208109701	 0.289266
H	 0.1457597474	-2.8126962908	-1.3649072041	 0.263121
H	 0.1972144535	-3.0705556661	 1.1558769284	 0.111804
H	-0.0009624972	-0.5562655105	 2.1751283436	 0.085604
68.2686	95.1119	175.2617	227.0134	258.447	295.8911	322.5722	486.0904	529.0106	618.6734	646.3248	662.2272	715.3321	751.3123	817.9998	920.1032	984.1175	1014.7993	1038.9429	1061.0542	1082.7255	1113.919	1187.4427	1213.4027	1242.7845	1273.3817	1318.9272	1415.5371	1422.9483	1458.505	1483.3941	1491.416	1499.5426	1514.2649	1517.1369	1631.7468	2945.8768	3001.8669	3017.9262	3069.2997	3095.9593	3236.9522	3266.3657	3681.084	3827.2796
CC1=C(CO)NC=C1	Cc1c(CO)[nH]cc1	
InChI=1S/C6H9NO/c1-5-2-3-7-6(5)4-8/h2-3,7-8H,4H2,1H3	InChI=1S/C6H9NO/c1-5-2-3-7-6(5)4-8/h2-3,7-8H,4H2,1H3
