19
gdb 103713	2.90214	1.16209	0.97565	3.5862	77.72	-0.2593	0.0308	0.29	1268.1028	0.157534	-419.205391	-419.195365	-419.194421	-419.239901	37.153	
C	 0.2082867962	 1.527802212	 0.2483650678	-0.375771
C	-0.1764057788	 0.0919781061	-0.1262723168	-0.251758
C	 0.6432052726	-0.437064186	-1.2844382045	 0.397359
O	 0.4921036148	 0.251850549	-2.4902156581	-0.44715
C	 2.0265723143	-0.9621837481	-1.0972281325	-0.340105
C	 0.9088208641	-1.9551275187	-1.4107965616	 0.044672
N	 0.5057463558	-2.8190177737	-0.3296857871	-0.556412
C	 0.8393349577	-2.5038479786	-2.7479523314	 0.243709
N	 0.7255994776	-2.9986781494	-3.7885648812	-0.353051
H	 1.2437042045	 1.5780711206	 0.6006962483	 0.119372
H	 0.1173899117	 2.1923552597	-0.6149840375	 0.130406
H	-0.4375481609	 1.907341789	 1.0453292606	 0.113669
H	-0.0595630372	-0.5811329836	 0.7265208302	 0.12718
H	-1.238384713	 0.0558501663	-0.4091511737	 0.088859
H	-0.4026028803	 0.1053714508	-2.819838652	 0.2909
H	 2.7438250029	-0.7518357969	-1.8807575182	 0.145367
H	 2.4216308652	-1.0282477516	-0.0902246735	 0.133442
H	-0.4179678195	-3.2052172199	-0.5000716708	 0.243717
H	 1.1465692224	-3.6028874271	-0.2450248877	 0.245594
82.3668	112.1443	135.2684	199.7234	216.0901	247.514	282.5108	306.3088	318.671	400.5881	414.4472	423.8284	470.9285	582.6974	639.9967	716.6794	728.6855	795.1624	842.0799	896.1192	918.1437	951.7961	986.9492	1046.5884	1078.8016	1099.1671	1125.6788	1214.2869	1271.4472	1279.0325	1282.9505	1302.2785	1370.3856	1407.3431	1413.7904	1471.2922	1487.7932	1494.9867	1510.2782	1663.1717	2335.3837	3007.8933	3041.6684	3097.8902	3109.9118	3124.0906	3148.929	3248.3873	3491.58	3568.2588	3787.4668
CCC1(O)CC1(N)C#N	CC[C@@]1(O)C[C@]1(N)C#N	
InChI=1S/C6H10N2O/c1-2-6(9)3-5(6,8)4-7/h9H,2-3,8H2,1H3	InChI=1S/C6H10N2O/c1-2-6(9)3-5(6,8)4-7/h9H,2-3,8H2,1H3/t5-,6+/m0/s1
