20
gdb 106892	2.833	1.30812	1.05603	3.9189	80.21	-0.2318	0.0163	0.248	1210.7821	0.169895	-403.151022	-403.141657	-403.140712	-403.185231	34.384	
C	-0.2384731993	 1.4676956602	 0.1346043408	-0.381855
C	-0.0358303992	-0.0524463051	 0.0588983851	-0.277992
C	 0.7672141007	-0.4958414003	-1.1303214252	 0.386449
C	 0.2416798537	-0.7272697393	-2.5181488153	-0.3281
C	 0.9074532816	-1.8755310978	-1.7508712734	-0.307519
C	 2.4052924631	-1.6099832921	-1.7731602517	 0.423788
O	 3.3921736139	-2.1697185216	-2.1670843761	-0.367056
N	 2.2371102722	-0.3572309227	-1.171244737	-0.141389
C	 3.0201727137	 0.8262805004	-1.4665065802	-0.352395
H	 0.7159527859	 1.9946163282	 0.2299166238	 0.12464
H	-0.7398195156	 1.8433649203	-0.7632144345	 0.12037
H	-0.8515734289	 1.7342728969	 1.0005431594	 0.118155
H	 0.4595968926	-0.4095693281	 0.9694658487	 0.112452
H	-1.0132121331	-0.5476401114	 0.0153775647	 0.106155
H	-0.8366527236	-0.8164213389	-2.6225082587	 0.122342
H	 0.7406780847	-0.2944503705	-3.3803831427	 0.124178
H	 0.3950689229	-2.795187083	-1.5063225697	 0.115764
H	 4.0078740694	 0.4928996838	-1.7954454764	 0.15616
H	 2.569633165	 1.4331405753	-2.2643842919	 0.117435
H	 3.1440041404	 1.4534643659	-0.5784154298	 0.128417
76.6025	111.7159	155.7478	163.1207	189.7781	222.685	261.7172	332.9417	380.3096	471.8245	498.2172	657.9243	705.6587	740.3089	771.3624	803.0803	894.2686	902.4398	932.8056	968.7745	986.3922	1017.0196	1030.9871	1076.3618	1097.2867	1125.0918	1150.8408	1182.4154	1221.8509	1242.8853	1304.6237	1343.3797	1349.947	1404.5181	1414.4119	1441.9987	1473.8469	1485.6292	1488.846	1498.596	1506.0883	1512.941	1882.3783	3003.7716	3030.0573	3039.0169	3067.2005	3076.0077	3110.194	3111.4252	3113.2233	3124.0222	3198.4985	3222.151
CCC12CC1C(=O)N2C	CC[C@]12C[C@H]1C(=O)N2C	
InChI=1S/C7H11NO/c1-3-7-4-5(7)6(9)8(7)2/h5H,3-4H2,1-2H3	InChI=1S/C7H11NO/c1-3-7-4-5(7)6(9)8(7)2/h5H,3-4H2,1-2H3/t5-,7-/m0/s1
