16
gdb 85493	2.39178	1.41205	1.09006	4.548	68.52	-0.2583	-0.0375	0.2208	1113.4057	0.123771	-437.925552	-437.917117	-437.916173	-437.958995	31.016	
O	 0.0179397119	 1.3794399621	-0.1456238666	-0.419555
C	 0.013761027	-0.0095175149	 0.0681062612	 0.119839
C	 0.5981651768	-0.491943939	 1.4028847943	-0.368842
C	-0.0928099338	-1.8348766702	 1.6565143887	 0.414359
O	 0.2614886306	-2.6875950549	 2.4234196889	-0.297725
C	-1.3206869103	-1.927718307	 0.7340635869	-0.338366
C	-1.4535607115	-0.5244606864	 0.0971919359	-0.197337
C	-2.3067589702	 0.3468846712	 0.9096549797	 0.293637
N	-2.9975559482	 0.9981675521	 1.5681586578	-0.322511
H	 0.92762583	 1.6930002433	-0.1300523731	 0.295336
H	 0.5158948068	-0.5370613592	-0.7590442549	 0.08776
H	 1.68537138	-0.591233161	 1.4271687622	 0.129918
H	 0.2990017993	 0.2033798222	 2.1985692622	 0.16213
H	-1.107377105	-2.6784239725	-0.0355325808	 0.144711
H	-2.2053845864	-2.2596922304	 1.2793375711	 0.16028
H	-1.8707602769	-0.5567972254	-0.9124755635	 0.136368
64.0353	117.4383	153.7759	231.5131	245.9204	319.4141	407.8342	456.1158	476.541	501.1224	522.9205	641.1685	681.4565	748.7976	800.5837	850.6873	929.4196	957.253	1014.4913	1080.6473	1119.9794	1131.6075	1167.4626	1189.0831	1221.58	1244.2681	1253.9119	1299.5744	1352.3879	1380.1317	1422.1245	1445.1228	1453.5169	1859.2923	2360.6779	2971.3484	3039.2848	3055.549	3085.9016	3117.3395	3131.0687	3827.0214
OC1CC(=O)CC1C#N	O[C@H]1CC(=O)C[C@H]1C#N	
InChI=1S/C6H7NO2/c7-3-4-1-5(8)2-6(4)9/h4,6,9H,1-2H2	InChI=1S/C6H7NO2/c7-3-4-1-5(8)2-6(4)9/h4,6,9H,1-2H2/t4-,6-/m0/s1
