23
gdb 85912	2.43211	1.26475	1.06443	1.4933	88.32	-0.2397	0.0203	0.2599	1293.3519	0.204128	-388.317883	-388.307688	-388.306744	-388.352467	38.963	
C	-0.1896873747	 1.5558470993	 0.1298615657	-0.493337
C	-0.1208947782	 0.0621962107	 0.0752476848	 0.26959
C	-0.2596969946	-0.7354127095	-0.9856872506	-0.196704
C	-0.0882918387	-2.2125329295	-0.6840386256	 0.276994
C	-1.278070396	-3.0376397421	-1.2055870105	-0.427244
C	 1.2141414899	-2.7475038501	-1.3159538521	-0.416287
C	-0.0236154104	-2.2086186124	 0.8738264327	-0.293795
C	 0.231954748	-0.7457868275	 1.3105059842	 0.047935
O	 1.5698384217	-0.4783584306	 1.7452017453	-0.437506
H	 0.7259972482	 1.9640573626	 0.5726348443	 0.135277
H	-0.3255120766	 1.9963353534	-0.8614785941	 0.118597
H	-1.0186016376	 1.8893109132	 0.7676073986	 0.125541
H	-0.4580586791	-0.3868398948	-1.9965046223	 0.083123
H	-1.3429522818	-2.9911946877	-2.298686571	 0.108019
H	-1.1757867311	-4.0916920224	-0.9237488507	 0.111724
H	-2.223457874	-2.6669618415	-0.7969053403	 0.112744
H	 2.0914148501	-2.2160305255	-0.9319566258	 0.098668
H	 1.3443378764	-3.813460284	-1.097777072	 0.113753
H	 1.2047654292	-2.627440026	-2.4050925763	 0.111007
H	-0.9817329605	-2.5470180649	 1.2812310257	 0.096856
H	 0.7493700859	-2.8705362396	 1.2743863118	 0.09999
H	-0.3784873574	-0.472252557	 2.1783517095	 0.080243
H	 2.1446235014	-0.5816958241	 0.9785522685	 0.274811
58.9001	122.1984	174.3796	227.1998	229.4015	242.6862	288.0255	300.5596	331.7072	335.6337	367.9229	438.2593	459.7412	569.0476	596.2219	644.63	791.0565	844.5454	882.9536	898.0178	924.8293	938.1284	961.3412	997.7855	1011.379	1035.668	1049.2841	1066.71	1138.5534	1153.0827	1203.8591	1247.0761	1255.3451	1269.5529	1308.0215	1311.5445	1359.1112	1394.5089	1406.5831	1417.577	1430.138	1476.1476	1478.9282	1481.0556	1489.091	1491.5409	1501.606	1505.6603	1721.4938	3019.4497	3021.0003	3024.386	3040.9971	3055.3656	3073.489	3086.1654	3091.5678	3093.0619	3097.0348	3101.0069	3113.054	3158.5358	3797.945
CC1=CC(C)(C)CC1O	CC1=CC(C)(C)C[C@H]1O	
InChI=1S/C8H14O/c1-6-4-8(2,3)5-7(6)9/h4,7,9H,5H2,1-3H3	InChI=1S/C8H14O/c1-6-4-8(2,3)5-7(6)9/h4,7,9H,5H2,1-3H3/t7-/m1/s1
