19
gdb 47401	2.6867	1.51046	1.16671	3.5941	74.61	-0.2432	-0.0273	0.2159	1097.4116	0.160192	-423.037904	-423.029834	-423.02889	-423.071173	30.368	
O	-0.1035092995	 0.0468175127	-0.2727830597	-0.321652
C	-0.0889130868	 1.2353175261	-0.0746564937	 0.348199
C	-1.3026485853	 2.1243859503	 0.2072700504	-0.319441
C	-0.7048656306	 3.4641157014	 0.6657645662	-0.224834
C	 0.6454492863	 3.5415291521	-0.0820137385	-0.30645
C	 1.1710256811	 2.104831509	-0.0631513784	 0.191586
C	 2.1878007064	 1.7208487543	 1.0574452365	-0.103744
O	 3.2181512071	 1.4405598134	 0.0993278817	-0.268543
C	 2.3187468396	 1.6788253729	-1.0011224346	-0.129707
H	-1.8477853539	 2.237494859	-0.7395974679	 0.134634
H	-1.9872082982	 1.6475867622	 0.9124820944	 0.1313
H	-1.3513394967	 4.3193749696	 0.4570443772	 0.108584
H	-0.5297022659	 3.4461125633	 1.7477767121	 0.110368
H	 0.4767336762	 3.8547578336	-1.120773916	 0.105638
H	 1.3419816498	 4.2576734294	 0.3622226875	 0.109695
H	 2.45748105	 2.5401185213	 1.7365368716	 0.101136
H	 1.9177696421	 0.8319774729	 1.6407933085	 0.11372
H	 2.1117301619	 0.7619054631	-1.5656292576	 0.119647
H	 2.6885195365	 2.4610929332	-1.6754790397	 0.099863
63.241	81.1335	177.7836	216.7526	283.0986	358.566	407.8624	527.7595	548.2321	631.6967	644.833	808.34	819.4415	843.9972	895.8514	934.3653	952.8117	966.0701	990.4555	1013.4757	1050.1116	1056.4321	1063.7442	1162.2287	1170.1629	1172.8319	1195.1249	1225.16	1245.2895	1274.6941	1299.3343	1314.9116	1337.2109	1349.7883	1375.7428	1449.2267	1490.0631	1500.9269	1505.6193	1526.6709	1837.1598	3003.4054	3016.5477	3024.7993	3030.9665	3043.8109	3056.1466	3067.6507	3090.956	3103.4266	3110.433
O=C1CCCC11COC1	O=C1CCCC21COC2	
InChI=1S/C7H10O2/c8-6-2-1-3-7(6)4-9-5-7/h1-5H2	InChI=1S/C7H10O2/c8-6-2-1-3-7(6)4-9-5-7/h1-5H2
