15
gdb 124915	2.04285	1.87256	0.98381	2.6883	77.57	-0.2296	-0.015	0.2146	1140.4232	0.11143	-416.787388	-416.778605	-416.77766	-416.820786	32.399	
C	 0.0627045394	 1.4988849675	 0.0194521582	-0.503293
C	-0.0326575245	 0.0177925682	 0.061236823	 0.362221
C	-1.1040025292	-0.8348690797	 0.0200224844	-0.088392
C	-2.4782709927	-0.5461528003	-0.0858860745	 0.183919
C	-3.6619299171	-0.3406168082	-0.1858390061	-0.423123
C	-0.4929337313	-2.136607401	 0.1056310685	 0.342273
N	-1.1671610153	-3.3321909347	 0.1658798058	-0.599222
N	 0.815364484	-2.0604529474	 0.1787373374	-0.232212
O	 1.1020037926	-0.6781376099	 0.1577889972	-0.219575
H	 0.6658460845	 1.8269510031	-0.8334099088	 0.153658
H	-0.9360821494	 1.9302039839	-0.0663581339	 0.152496
H	 0.5381486044	 1.8838807047	 0.9275390554	 0.154937
H	-4.7029874396	-0.14668777	-0.2623285788	 0.190295
H	-2.06705038	-3.3312034799	-0.2907954682	 0.262273
H	-0.6049959957	-4.1432308263	-0.0473143197	 0.263745
90.1407	119.0257	139.715	202.4789	258.9437	328.2783	366.9793	392.7599	489.1915	532.156	545.0966	570.9555	581.3988	623.1563	662.0213	678.0243	764.3619	797.0693	918.5551	1012.3918	1060.8027	1073.1846	1136.6637	1249.3867	1333.2392	1409.4121	1473.7785	1478.9419	1484.9912	1567.4213	1637.8731	1667.2812	2228.2712	3043.0292	3100.374	3143.6611	3501.9887	3571.1458	3678.0398
CC1=C(C#C)C(N)=NO1	Cc1c(C#C)c(N)no1	
InChI=1S/C6H6N2O/c1-3-5-4(2)9-8-6(5)7/h1H,2H3,(H2,7,8)	InChI=1S/C6H6N2O/c1-3-5-4(2)9-8-6(5)7/h1H,2H3,(H2,7,8)
