19
gdb 35946	3.27022	1.17064	0.90638	1.1082	83.84	-0.2368	0.0103	0.247	1282.4847	0.159663	-385.853796	-385.845298	-385.844354	-385.887098	32.702	
C	 0.1862261318	-1.2637899199	 0.4168332624	-0.457716
C	 0.0758905713	-0.0910163783	 0.1777285815	 0.307029
C	-0.0648827072	 1.3432790149	-0.0684989393	-0.224524
C	-0.8619789577	 1.9775080792	 1.1015165049	-0.082868
O	-1.3019654767	 3.2883641838	 0.8374368926	-0.240474
C	-0.3319780643	 4.3031743237	 1.0191015376	-0.07407
C	 0.639975696	 4.449576495	-0.1536709803	-0.254543
C	 1.5741704214	 3.2863510611	-0.3810323054	-0.085213
C	 1.2891754397	 1.9849471337	-0.339955133	-0.040834
H	 0.2821568957	-2.3029360614	 0.6131439484	 0.195736
H	-0.6926815472	 1.4774413372	-0.9634560479	 0.127169
H	-1.7634435988	 1.3802400134	 1.2654343634	 0.116339
H	-0.2515120635	 1.9409508661	 2.0161387952	 0.100094
H	-0.8974858834	 5.2338890885	 1.1358781331	 0.104517
H	 0.2295514151	 4.1272455797	 1.9501734171	 0.091933
H	 0.0519653165	 4.6363375745	-1.0641286927	 0.122034
H	 1.2307391907	 5.3578597125	 0.0150753222	 0.102357
H	 2.5971574388	 3.553744345	-0.6372068874	 0.091224
H	 2.0862862617	 1.2798158213	-0.5571746722	 0.101811
56.9192	144.8156	166.2507	213.5481	306.7887	347.8765	398.8448	444.6047	501.2164	521.3908	545.0102	626.4758	648.452	674.1932	720.9387	814.0907	868.4743	916.1995	981.5014	1001.098	1008.0225	1042.4117	1058.8703	1091.7578	1100.2765	1155.3445	1222.3528	1255.8282	1269.1695	1291.6333	1318.4143	1342.7321	1378.2037	1381.9445	1422.9137	1431.0598	1464.9898	1483.3804	1497.9273	1723.453	2236.715	2980.3865	2983.1668	2999.5937	3008.092	3057.9826	3069.9701	3088.8116	3141.9226	3173.6078	3504.1442
C#CC1COCCC=C1	C#C[C@H]1COCCC=C1	
InChI=1S/C8H10O/c1-2-8-5-3-4-6-9-7-8/h1,3,5,8H,4,6-7H2	InChI=1S/C8H10O/c1-2-8-5-3-4-6-9-7-8/h1,3,5,8H,4,6-7H2/t8-/m1/s1
