21
gdb 81011	2.55487	1.47672	1.23272	2.1948	77.47	-0.2515	0.0636	0.3152	1116.8361	0.183091	-424.21671	-424.208131	-424.207186	-424.249087	34.714	
C	-0.1491311797	 1.5165580453	 0.0174541953	-0.418569
C	 0.0695997061	 0.00445252	 0.0338159009	 0.044962
C	 1.0519696654	-0.5481792079	-1.0630708671	-0.315444
C	 2.022351139	-1.3038032997	-0.1435160716	 0.374943
O	 3.0972834495	-2.0184955922	-0.6819494975	-0.493633
C	 1.0753854769	-2.0260652122	 0.8486045708	-0.278493
C	 0.7779425274	-0.5623076061	 1.2914844302	-0.060035
C	 2.2729877437	-0.2623366621	 0.9919480669	 0.112058
O	 3.1642223175	-0.72594525	 1.9790328572	-0.462035
H	 0.7884316724	 2.0703777986	 0.127992503	 0.119317
H	-0.6116928874	 1.8347248307	-0.9231341572	 0.113464
H	-0.8125747053	 1.82195229	 0.8338906327	 0.115493
H	-0.9055498079	-0.4835293161	-0.0717950154	 0.074553
H	 0.5652941567	-1.2079819559	-1.7869042943	 0.102372
H	 1.5505201475	 0.2579327627	-1.6155339378	 0.086916
H	 3.4756772769	-1.5045569102	-1.4041081172	 0.281702
H	 0.255113127	-2.6164114981	 0.4310299422	 0.08557
H	 1.6220104749	-2.5892315631	 1.6024189559	 0.11449
H	 0.3422257599	-0.3337309882	 2.2632979424	 0.067669
H	 2.5330109798	 0.7613311055	 0.6885445329	 0.050495
H	 3.8503102597	-1.2230794312	 1.5153465279	 0.284204
168.646	191.088	203.7154	222.1829	300.9587	309.3987	383.853	400.3412	414.2431	453.1071	469.9859	580.5242	609.2405	670.1808	794.7783	839.7853	867.482	896.8892	931.7496	958.2242	967.4056	1011.4103	1032.3126	1046.1273	1071.4332	1114.1597	1127.8639	1152.5642	1170.8063	1202.4481	1217.1291	1232.4697	1248.2615	1259.0647	1312.999	1319.7065	1356.6356	1367.527	1385.0092	1402.4417	1414.4263	1488.6659	1497.7612	1498.9574	1510.2804	2997.4951	3027.5921	3032.0302	3035.5611	3066.939	3087.4073	3094.7152	3103.9943	3125.9263	3160.3945	3762.1514	3799.08
CC1CC2(O)CC1C2O	C[C@H]1C[C@]2(O)C[C@H]1[C@H]2O	
InChI=1S/C7H12O2/c1-4-2-7(9)3-5(4)6(7)8/h4-6,8-9H,2-3H2,1H3	InChI=1S/C7H12O2/c1-4-2-7(9)3-5(4)6(7)8/h4-6,8-9H,2-3H2,1H3/t4-,5+,6+,7-/m0/s1
