20
gdb 61219	3.29682	0.96207	0.84254	5.2614	79.37	-0.2558	0.0397	0.2955	1398.9744	0.168588	-403.150665	-403.140561	-403.139617	-403.186033	36.932	
C	 0.168947717	 1.4666019085	-0.441626641	-0.432445
C	-0.002674118	-0.0068705301	-0.066810425	-0.015134
C	 0.6057957999	-0.3181842545	 1.3269036383	-0.342702
C	 2.0440349181	-0.0775571035	 1.3905317986	 0.261167
N	 3.1824536621	 0.120989062	 1.4229685011	-0.319113
C	-1.437598595	-0.5179217284	-0.0831289067	 0.436441
O	-1.3929938429	-1.9224058379	 0.0397602649	-0.47657
C	-2.5663645612	 0.2289099143	 0.5775188994	-0.33738
C	-2.516203406	 0.0889390414	-0.9371150946	-0.3428
H	 1.2238176431	 1.7470929459	-0.3785568513	 0.148533
H	-0.1628906767	 1.6602628636	-1.4644020278	 0.127232
H	-0.3872736071	 2.1283777784	 0.2316282396	 0.119503
H	 0.5414668989	-0.6154237501	-0.7994604746	 0.109391
H	 0.1150466424	 0.2947530367	 2.0924808908	 0.142231
H	 0.4084084713	-1.3649085271	 1.5740731919	 0.166262
H	-2.2700890125	-2.2477588129	 0.2629198319	 0.285004
H	-3.30678385	-0.3516441863	 1.1206280517	 0.11048
H	-2.3815454092	 1.2077994859	 1.0070538402	 0.122767
H	-2.3107203456	 0.9749791411	-1.5257240398	 0.123203
H	-3.2112641689	-0.601997127	-1.4031678577	 0.113929
59.0605	74.3107	118.2465	139.49	222.7057	235.6014	268.9725	330.6169	361.8084	399.5829	407.7435	468.236	512.4656	546.7905	716.8633	765.4789	851.7059	864.9826	898.5881	922.7652	939.9737	971.348	986.2919	1048.3996	1069.7896	1077.5168	1099.1724	1124.3957	1171.7336	1184.8851	1245.2751	1262.2246	1306.5828	1362.9499	1371.9414	1410.2575	1426.6189	1457.8867	1470.1786	1498.9759	1504.0365	1509.2197	2357.9759	3033.0808	3040.013	3049.6039	3103.915	3109.2832	3120.9883	3124.2654	3136.5788	3202.3504	3225.3629	3832.4134
CC(CC#N)C1(O)CC1	C[C@@H](CC#N)C1(O)CC1	
InChI=1S/C7H11NO/c1-6(2-5-8)7(9)3-4-7/h6,9H,2-4H2,1H3	InChI=1S/C7H11NO/c1-6(2-5-8)7(9)3-4-7/h6,9H,2-4H2,1H3/t6-/m0/s1
