25
gdb 118718	2.43232	1.13576	0.91967	0.1907	92.82	-0.2452	0.0853	0.3305	1441.5368	0.228717	-352.336604	-352.326702	-352.325758	-352.371427	38.107	
C	-0.1398692859	 1.5723522496	 0.1576085266	-0.379944
C	-0.1443819523	 0.0489512999	 0.3120089576	-0.161063
C	-1.4081126371	-0.6045191578	-0.2682954958	-0.262855
C	-1.4641494961	-2.1170713025	-0.096391994	 0.362217
C	-0.4400909962	-2.8755681629	-0.9306096275	-0.462707
C	-1.7611102759	-2.7781759045	 1.2296426441	-0.086633
C	-2.7903832752	-1.9986528827	 2.0604638155	-0.245273
C	-3.8115308486	-2.116576345	 0.8827535062	-0.245436
C	-2.76148421	-2.8783237412	 0.0651057219	-0.106535
H	 0.7668366978	 2.0156723654	 0.5814500278	 0.108875
H	-0.1903820434	 1.8643636283	-0.8975235848	 0.112285
H	-0.9996893264	 2.0251949616	 0.6644336189	 0.111873
H	 0.7475711778	-0.3650248063	-0.1733629681	 0.095564
H	-0.0613297423	-0.2152069661	 1.3740812535	 0.098957
H	-2.2823395295	-0.1337375498	 0.1932171305	 0.094531
H	-1.4771950568	-0.3692077546	-1.3400941939	 0.086003
H	 0.5857534805	-2.6050494799	-0.6594524978	 0.11678
H	-0.5408333148	-3.9568692498	-0.7930368319	 0.111964
H	-0.5696476099	-2.6618024345	-1.9980888048	 0.111823
H	-1.1057846284	-3.5455872959	 1.6273107294	 0.074384
H	-3.1198355306	-2.5486702468	 2.9446866448	 0.100406
H	-2.5025130708	-0.9899167546	 2.3738517223	 0.094753
H	-4.6636873745	-2.7466607264	 1.1476254722	 0.099976
H	-4.1970770315	-1.186616226	 0.4522292127	 0.095303
H	-2.9786051301	-3.7310583976	-0.5692617852	 0.074754
67.4255	73.731	147.1015	209.8112	229.1384	254.4716	262.5228	303.1328	331.5754	375.7482	467.3446	490.4181	687.4328	737.8626	745.4689	788.2166	837.9782	845.998	874.4195	900.483	935.7361	958.5823	974.6322	998.1738	1027.7232	1032.2061	1047.0823	1068.0609	1081.0554	1110.7001	1115.2535	1143.9492	1204.4615	1222.5547	1247.3381	1260.3744	1273.9367	1291.9365	1299.614	1323.3152	1330.8547	1389.2815	1409.2074	1416.5699	1423.66	1475.0489	1487.2709	1492.6126	1497.0702	1498.7631	1504.1505	1506.6123	1511.4958	3005.4101	3023.9102	3026.2968	3027.2041	3043.6158	3048.9608	3051.4609	3071.5378	3087.7703	3091.6229	3093.8512	3098.5109	3099.4343	3110.4808	3157.0085	3168.6146
CCCC1(C)C2CCC12	CCC[C@@]1(C)[C@H]2CC[C@@H]12	
InChI=1S/C9H16/c1-3-6-9(2)7-4-5-8(7)9/h7-8H,3-6H2,1-2H3	InChI=1S/C9H16/c1-3-6-9(2)7-4-5-8(7)9/h7-8H,3-6H2,1-2H3/t7-,8+,9-
