23
gdb 109761	2.49695	1.09412	0.91753	2.434	81.98	-0.2476	0.0579	0.3055	1402.2565	0.204488	-425.408702	-425.398275	-425.397331	-425.444009	39.159	
C	 0.7273339424	 0.8878407807	 1.4357389233	-0.39341
C	-0.1504217531	-0.3418561234	 1.715903812	 0.028496
C	-0.7424714181	-0.2966845042	 3.131600846	-0.391497
C	-1.2407277928	-0.4459013695	 0.6632945123	-0.032123
C	-0.9849877474	-1.094524551	-0.6694857696	 0.077119
O	 0.2540905767	-1.7071169984	-0.8731245915	-0.429315
C	-1.9498342568	-1.7493216291	 0.2985384564	-0.138647
C	-1.5591116049	-3.0961094961	 0.8698493234	-0.10691
O	-1.2221589034	-4.0434819323	-0.1594185134	-0.420031
H	 1.526608419	 0.9754339192	 2.179196907	 0.105665
H	 1.1871792517	 0.8177590142	 0.4461547588	 0.13095
H	 0.1368155015	 1.8113929715	 1.4729987692	 0.104904
H	 0.4955537131	-1.221336352	 1.629714815	 0.086984
H	-1.3951492262	 0.5758177928	 3.2559617347	 0.109339
H	-1.3398889937	-1.1884097158	 3.3482361023	 0.1091
H	 0.0479499907	-0.2282711086	 3.8866164188	 0.109601
H	-1.8888265248	 0.428525595	 0.6305701386	 0.079017
H	-1.3993327916	-0.6196707528	-1.5589290778	 0.080629
H	 0.0800031866	-2.6550026927	-0.9676366006	 0.294679
H	-3.0061731304	-1.6575346293	 0.0559315966	 0.080327
H	-0.6625244095	-3.0322222867	 1.4876047002	 0.127564
H	-2.3635098262	-3.4947564588	 1.5028243438	 0.100951
H	-1.9890671828	-4.1315272627	-0.7354419453	 0.286606
60.3855	95.5926	131.3891	176.5725	227.3821	232.4769	253.5353	281.2506	311.3534	347.6411	399.8201	416.0769	551.3951	572.1181	609.505	654.038	773.6477	797.3414	843.7932	910.9084	931.0253	951.2532	967.0995	995.8968	1032.0784	1044.3514	1053.7714	1128.5713	1132.2096	1147.4868	1185.1323	1200.8134	1231.9837	1258.1886	1303.6662	1346.9901	1353.4543	1373.3043	1394.2848	1395.1204	1398.6496	1418.7947	1426.0407	1446.2043	1488.2132	1491.0921	1503.2905	1505.9858	1511.7165	3012.8633	3022.67	3026.83	3053.7031	3086.3083	3091.5683	3094.2891	3098.4076	3113.4011	3114.8824	3121.5379	3134.1643	3715.1694	3811.3855
CC(C)C1C(O)C1CO	CC(C)[C@H]1[C@@H](O)[C@H]1CO	
InChI=1S/C7H14O2/c1-4(2)6-5(3-8)7(6)9/h4-9H,3H2,1-2H3	InChI=1S/C7H14O2/c1-4(2)6-5(3-8)7(6)9/h4-9H,3H2,1-2H3/t5-,6+,7-/m0/s1
