18
gdb 12504	3.54705	1.83249	1.27519	1.0094	79.21	-0.2097	-0.0218	0.1879	974.8652	0.154663	-347.809623	-347.801999	-347.801055	-347.841571	28.877	
C	 0.0707745168	 1.5306651796	 0.0812726434	-0.48422
C	 0.0150467155	 0.0351669457	-0.0546281524	 0.294414
C	 0.0710021598	-0.5797456321	-1.2469297843	-0.153592
C	-0.0216557552	-2.0105898407	-1.5140799106	-0.064047
C	 0.0713802648	-3.046962851	-0.6672102791	-0.093071
C	 0.4049640636	-3.0417458972	 0.7961408433	-0.133644
O	 0.8226557458	-1.8153047982	 1.3437462792	-0.233197
C	-0.1127878664	-0.7517585197	 1.2317918907	-0.188718
H	 0.9502258145	 1.8421406043	 0.6606609724	 0.130502
H	 0.1097186767	 2.025004734	-0.8926709362	 0.122725
H	-0.805038742	 1.9154924826	 0.6212978708	 0.124571
H	 0.1524803955	 0.0464895048	-2.1332523676	 0.078375
H	-0.2181791864	-2.2560452965	-2.5560489935	 0.08482
H	-0.0817776883	-4.0476724185	-1.0689926991	 0.089708
H	-0.4484823391	-3.4596506731	 1.3637271528	 0.094564
H	 1.2450339937	-3.7282109207	 0.9692655713	 0.120677
H	 0.0748644192	-0.0951426318	 2.0883734765	 0.106181
H	-1.1411162587	-1.1358374316	 1.3356445623	 0.103952
68.8748	172.095	215.5649	276.1629	318.9916	366.4623	398.5823	447.5166	536.0473	613.5313	720.5156	793.7839	845.7903	896.1235	905.7348	938.8847	987.5637	1006.6768	1015.5732	1037.7302	1069.8954	1092.3541	1157.0233	1208.2446	1250.3342	1274.9821	1328.0356	1374.3994	1396.4797	1410.1751	1417.0083	1442.217	1472.9332	1476.2849	1484.4033	1490.0228	1689.8645	1718.7332	2918.8906	2969.0872	3008.3859	3029.7598	3051.2207	3063.0417	3113.1367	3126.1277	3139.137	3155.0034
CC1=CC=CCOC1	CC1=CC=CCOC1	
InChI=1S/C7H10O/c1-7-4-2-3-5-8-6-7/h2-4H,5-6H2,1H3	InChI=1S/C7H10O/c1-7-4-2-3-5-8-6-7/h2-4H,5-6H2,1H3
