20
gdb 78084	2.65518	1.22257	0.99657	4.4022	84.26	-0.2649	0.0339	0.2988	1265.5929	0.170657	-366.009985	-366.000939	-365.999994	-366.043496	34.255	
C	 0.0146757344	 1.5608078109	 0.0229959302	-0.424451
C	 0.1005579158	 0.0500891548	 0.0866299306	-0.064795
C	 1.3269011167	-0.7802857265	-0.2014534594	-0.113552
C	 2.5963210128	-0.0857410101	 0.3339887835	-0.157334
C	 1.9515993819	-0.0879220297	 1.7687155137	-0.308835
C	 0.6960475322	-0.7716881442	 1.2014048248	 0.34651
C	-0.0597435844	-1.8451345754	 1.9314423374	-0.499937
C	 3.8033449231	-0.8900737286	 0.2320211453	 0.263208
N	 4.7588430457	-1.5362611874	 0.1492002032	-0.328425
H	 0.8962273618	 2.056660831	 0.4381130205	 0.119922
H	-0.0960022901	 1.9004822348	-1.0124115374	 0.124786
H	-0.8536794898	 1.9211160868	 0.5849141596	 0.122644
H	-0.7865608041	-0.4354360753	-0.3183909016	 0.090528
H	 1.3405267254	-1.5631653431	-0.9502420995	 0.103055
H	 2.802781795	 0.9016361489	-0.0918107604	 0.118278
H	 2.5041777745	-0.7363057815	 2.4506602084	 0.130646
H	 1.8254658207	 0.8917292855	 2.2387321595	 0.107551
H	-0.6184943193	-1.4299410335	 2.7791773485	 0.123141
H	-0.7814676153	-2.3376749457	 1.27181193	 0.12189
H	 0.615645183	-2.6136358417	 2.323965063	 0.125171
91.1394	150.349	180.0196	200.9073	211.8242	263.6083	286.1413	321.0464	431.7438	486.8121	542.2161	557.0279	624.9281	739.362	749.5302	835.8274	894.9043	928.7245	934.2919	975.7984	988.0123	1039.5879	1046.8539	1085.0826	1103.9294	1125.6842	1153.2411	1168.3868	1209.9617	1236.8092	1248.8455	1296.5132	1332.7613	1349.7362	1416.779	1418.7748	1463.6423	1484.5895	1489.7697	1496.9155	1504.0382	1507.6823	2353.9616	3021.5461	3035.0972	3052.8311	3061.508	3080.7639	3094.1585	3098.4196	3104.5563	3123.	3124.8695	3185.4697
CC1C2C(CC12C)C#N	C[C@H]1[C@H]2[C@@H](C[C@@]12C)C#N	
InChI=1S/C8H11N/c1-5-7-6(4-9)3-8(5,7)2/h5-7H,3H2,1-2H3	InChI=1S/C8H11N/c1-5-7-6(4-9)3-8(5,7)2/h5-7H,3H2,1-2H3/t5-,6-,7-,8-/m0/s1
