23
gdb 121240	2.60745	0.97066	0.78327	1.3759	84.13	-0.2361	0.0794	0.3155	1583.6095	0.203574	-425.395851	-425.385392	-425.384448	-425.432181	37.286	
C	-0.0305909883	 1.5184666267	-0.0699230262	-0.383338
C	-0.2267867115	 0.0186041422	-0.2144847238	-0.032012
O	 0.8781898256	-0.5080111597	-0.9230595791	-0.248171
C	 0.8306591714	-1.9026154217	-1.0905294325	 0.088116
C	-0.0306997316	-2.3429828	-2.3155748854	-0.257626
C	 1.2494217349	-2.2731570806	-3.1950323201	-0.259149
C	 2.0731229386	-2.3825683107	-1.8798301665	 0.155257
O	 3.2347463746	-1.6338664294	-1.6990514932	-0.232399
C	 4.3273554908	-2.1193719192	-2.4448487132	-0.236403
H	 0.8994622187	 1.7319472907	 0.4640578281	 0.129692
H	 0.0236042758	 1.9945669001	-1.0531003581	 0.12512
H	-0.8631032469	 1.9607932615	 0.4856080309	 0.111181
H	-0.299617312	-0.4610361562	 0.7765756007	 0.084535
H	-1.169907067	-0.195596459	-0.7434206314	 0.084454
H	 0.6322027477	-2.397060628	-0.1283935622	 0.057228
H	-0.4135103506	-3.3612718314	-2.2060506455	 0.101193
H	-0.8562034231	-1.6811278306	-2.5830841465	 0.106749
H	 1.3910889477	-3.0367757633	-3.9626032097	 0.091698
H	 1.3716438076	-1.2801812526	-3.633892917	 0.118907
H	 2.2553546215	-3.445652865	-1.6467369536	 0.060657
H	 4.5752828846	-3.1590108568	-2.1752828134	 0.10005
H	 4.1372507471	-2.0826530927	-3.5280723274	 0.107369
H	 5.1850457642	-1.4818667742	-2.2173701746	 0.126894
63.766	73.7831	96.4648	116.7345	140.3908	200.6118	237.2375	247.0752	318.9075	350.2527	421.855	483.4816	555.9142	698.1943	745.0659	820.4597	856.1083	905.9346	917.7896	954.2714	960.75	1022.0217	1061.1755	1088.6983	1109.9667	1152.4643	1154.8259	1173.5354	1183.9477	1189.1809	1209.7439	1234.9462	1254.2376	1259.1103	1279.62	1295.9947	1309.3894	1366.3074	1397.1365	1403.014	1439.8987	1468.7672	1480.0185	1482.6753	1486.0931	1493.3639	1499.9504	1509.3917	1528.457	2951.9967	2956.3445	2969.5609	2983.9423	2993.1523	3017.7193	3044.8597	3065.3464	3070.0657	3114.1848	3118.1771	3118.4756	3123.1145	3132.917
CCOC1CCC1OC	CCO[C@H]1CC[C@H]1OC	
InChI=1S/C7H14O2/c1-3-9-7-5-4-6(7)8-2/h6-7H,3-5H2,1-2H3	InChI=1S/C7H14O2/c1-3-9-7-5-4-6(7)8-2/h6-7H,3-5H2,1-2H3/t6-,7+/m1/s1
