18
gdb 8444	2.74151	2.12972	1.7971	1.6744	67.51	-0.2461	0.0717	0.3178	851.8638	0.151133	-384.912235	-384.903873	-384.902929	-384.944162	32.087	
C	-0.0974857406	 1.5269154987	 0.0496397681	-0.513491
C	 0.1351960084	 0.053663379	 0.0178805485	 0.412846
O	-0.7358474731	-0.8198678175	 0.7493387007	-0.299113
C	 0.680729556	-0.9115981303	 0.9860736469	-0.04355
C	 1.2548785676	-1.8072400623	-0.1139362973	-0.30828
C	 0.6707787213	-0.7874138002	-1.171948317	 0.344523
C	-0.3566251598	-1.3127719872	-2.1603260655	-0.460394
O	 1.6851162568	-0.0250525297	-1.8045529397	-0.48144
H	 0.7685360068	 2.0504153838	-0.3635123613	 0.144119
H	-0.9749081233	 1.7962920261	-0.5491257023	 0.127482
H	-0.2683514994	 1.8653286463	 1.0751148823	 0.128819
H	 1.0172657593	-0.7716880205	 2.0073436504	 0.099819
H	 2.3467132306	-1.8019029018	-0.1493744715	 0.104741
H	 0.875448175	-2.8323814763	-0.1312706919	 0.100656
H	-1.1799632466	-1.7946951608	-1.6282425026	 0.14
H	-0.754433881	-0.4957281473	-2.7706901478	 0.120656
H	 0.0934186254	-2.0535685926	-2.8332954048	 0.104382
H	 2.0717289266	-0.5636281775	-2.5031399251	 0.278226
146.7614	186.4613	210.2949	229.6113	257.6632	270.8095	338.076	387.9638	451.3865	472.5537	521.1606	647.1174	659.3998	779.2043	842.1764	867.5903	917.3396	953.6739	963.0979	979.379	1041.2919	1082.2003	1108.4905	1120.4167	1186.1528	1204.0314	1234.362	1246.6943	1270.8374	1374.7942	1397.5538	1400.3789	1451.3582	1476.2648	1480.9022	1491.2421	1495.6556	1503.9304	3025.0866	3038.4056	3059.8069	3091.4304	3104.0607	3124.1101	3130.0435	3131.2054	3180.1813	3807.2549
CC12OC1CC2(C)O	C[C@]12O[C@H]1C[C@]2(C)O	
InChI=1S/C6H10O2/c1-5(7)3-4-6(5,2)8-4/h4,7H,3H2,1-2H3	InChI=1S/C6H10O2/c1-5(7)3-4-6(5,2)8-4/h4,7H,3H2,1-2H3/t4-,5-,6-/m0/s1
