23
gdb 120629	3.35545	0.75587	0.69008	1.7459	83.94	-0.2494	0.0717	0.3211	1753.3424	0.202675	-425.400796	-425.389796	-425.388852	-425.437406	39.607	
C	 0.382080825	 1.5902462994	 0.1980743185	-0.397608
C	-0.1244544312	 0.165860436	-0.0622194149	-0.226565
C	 0.5508215352	-0.4904989885	-1.2535687198	 0.393297
O	 0.3428794126	 0.1933749927	-2.4683514301	-0.474981
C	 1.8715198141	-1.2090055057	-1.0974922331	-0.346277
C	 0.609045724	-1.9806213037	-1.4380935676	-0.056334
C	 0.008446417	-2.9676660648	-0.4742495555	-0.08568
O	 0.6619281819	-4.2100774941	-0.6470104645	-0.229074
C	 0.1355280592	-5.2198229995	 0.1773625084	-0.224175
H	 1.4616332075	 1.5999274686	 0.3847507233	 0.11738
H	 0.1776328005	 2.245030262	-0.6555932715	 0.114044
H	-0.1127763696	 2.0296723905	 1.0689255552	 0.116523
H	 0.0360413486	-0.4436072134	 0.8329836345	 0.096589
H	-1.2064396499	 0.1907797146	-0.2419164431	 0.104313
H	 0.8869330735	 0.9879930838	-2.4549368001	 0.281899
H	 2.61074691	-1.0853233614	-1.8808717098	 0.110689
H	 2.278722131	-1.3267242668	-0.0977884023	 0.107709
H	 0.5266485108	-2.2866931114	-2.4764192588	 0.104018
H	 0.1181504713	-2.6270747253	 0.5688193671	 0.079701
H	-1.0737606734	-3.0816750996	-0.6621531369	 0.087841
H	 0.2408705563	-4.9746897513	 1.2470416595	 0.099387
H	-0.932689503	-5.4010917903	-0.0251172465	 0.101482
H	 0.6933461585	-6.1365955919	-0.0292572018	 0.125822
54.2986	85.8541	93.8352	110.245	185.1667	226.2879	235.9315	257.253	294.8103	306.1517	336.718	400.2717	436.3685	484.6488	595.6164	690.3837	785.0042	864.3278	884.4229	919.774	935.6148	977.9156	999.5409	1031.4192	1047.3957	1072.1091	1087.5369	1131.8364	1151.7837	1174.8279	1192.0047	1219.3725	1234.381	1277.7019	1294.3924	1313.4967	1327.4019	1372.1094	1397.4222	1405.5859	1440.4343	1475.1281	1480.055	1484.2444	1491.7131	1502.0621	1503.3843	1511.3797	1525.6493	2944.9082	2964.3981	2977.5835	3003.9409	3030.0393	3032.9932	3073.5223	3101.8872	3108.0453	3111.5305	3125.5706	3162.6228	3217.3935	3804.2605
CCC1(O)CC1COC	CC[C@@]1(O)C[C@H]1COC	
InChI=1S/C7H14O2/c1-3-7(8)4-6(7)5-9-2/h6,8H,3-5H2,1-2H3	InChI=1S/C7H14O2/c1-3-7(8)4-6(7)5-9-2/h6,8H,3-5H2,1-2H3/t6-,7+/m0/s1
