20
gdb 31648	3.50618	1.05536	0.82749	0.7605	85.8	-0.157	0.0577	0.2147	1418.2541	0.171482	-399.34525	-399.335151	-399.334207	-399.380593	36.463	
C	 0.0816967852	 1.4137270983	-0.0702230257	-0.316311
N	-0.2718186512	 0.0284427112	 0.1877453844	-0.387235
C	 0.4891244446	-0.6723704131	 1.135996261	 0.300432
C	 0.6214126725	-2.0432435663	 1.2267677557	-0.225863
N	 1.409808959	-2.3298979391	 2.3293920989	-0.002747
C	 1.8044232246	-3.6543533688	 2.7500656235	-0.34185
C	 1.7588523884	-1.1572625224	 2.9452578606	 0.278224
N	 2.6076255894	-1.1805446336	 4.0759026834	-0.610422
C	 1.2109759468	-0.1087102912	 2.2294770501	-0.32393
H	 1.1401619163	 1.5656303563	-0.340674718	 0.101843
H	-0.5427325082	 1.7951095229	-0.882682169	 0.113166
H	-0.1262387874	 2.0240758868	 0.8152082508	 0.126854
H	-0.3798394278	-0.4977792882	-0.6680503803	 0.224041
H	 0.2157120414	-2.8341946544	 0.6169809065	 0.094603
H	 2.6557808024	-3.5620959148	 3.4262519362	 0.15461
H	 0.9932408296	-4.1793195493	 3.2706096316	 0.123246
H	 2.0988121628	-4.250735761	 1.8811237578	 0.129197
H	 2.0919001522	-1.2834644391	 4.9458200929	 0.241126
H	 3.1343208292	-0.3176319331	 4.1380116466	 0.24385
H	 1.3124997104	 0.9362634589	 2.4768145331	 0.077166
50.2173	88.6464	131.7682	163.873	187.237	205.6173	233.8307	301.6045	328.0005	382.9539	517.1338	546.7348	590.1973	631.9944	658.8129	668.2793	703.0666	736.6917	817.5485	834.3686	989.2467	1061.9895	1084.786	1148.4301	1149.433	1155.4312	1164.3922	1204.4816	1220.31	1256.2033	1374.857	1411.1181	1440.6154	1456.5133	1474.758	1484.5002	1496.2076	1511.4695	1520.3403	1535.5181	1547.6711	1630.1341	1657.3233	2961.2704	3017.2361	3059.5891	3080.6753	3107.5758	3141.8762	3249.8669	3256.2633	3482.2865	3575.904	3585.0789
CNC1=CN(C)C(N)=C1	CNc1cn(C)c(N)c1	
InChI=1S/C6H11N3/c1-8-5-3-6(7)9(2)4-5/h3-4,8H,7H2,1-2H3	InChI=1S/C6H11N3/c1-8-5-3-6(7)9(2)4-5/h3-4,8H,7H2,1-2H3
