19
gdb 82198	2.56756	1.80984	1.35787	2.0435	73.29	-0.2485	0.0703	0.3188	1003.1242	0.159512	-423.005006	-422.997007	-422.996063	-423.037025	31.999	
C	-0.2234124937	 1.4751054972	 0.0384467521	-0.492592
C	 0.1259358821	 0.0158664668	-0.0073293616	 0.369814
O	-0.6392882807	-0.8510017889	 0.860798882	-0.307284
C	 0.7899004035	-0.7711645303	 1.0413793497	-0.0391
C	 1.5612999343	-1.92271447	 0.4298900654	-0.060047
C	 0.7312992439	-3.0158482001	-0.1958642608	-0.296234
C	 1.2597330037	-1.8939757991	-1.0549396893	-0.072283
C	 0.3784865221	-0.6721269226	-1.3608031562	 0.0623
O	-0.8293040091	-0.9400938463	-2.0500342434	-0.437253
H	 0.5968454925	 2.0852169685	-0.3544383879	 0.122681
H	-1.1095777925	 1.6668527045	-0.5760262015	 0.139217
H	-0.4372081508	 1.7896368557	 1.0629464243	 0.128387
H	 1.1055499987	-0.3455522123	 1.9904614566	 0.094445
H	 2.5480976696	-2.1382282327	 0.8217506819	 0.086471
H	 1.202531341	-3.9838258324	-0.3266742558	 0.110729
H	-0.3207168062	-3.0517577241	 0.0571691904	 0.126875
H	 2.0235396903	-2.1449134461	-1.7818408362	 0.088511
H	 0.9353962213	 0.0107605689	-2.0120762171	 0.086341
H	-1.3861684498	-1.4358503667	-1.4375507625	 0.289021
123.5469	196.8094	219.5088	230.9069	272.1021	362.9881	389.9685	463.7567	531.9325	574.0207	633.0642	681.2396	729.4588	784.3524	814.6035	840.5755	883.6094	935.2657	948.9542	981.7997	1032.0855	1040.8036	1066.5331	1080.6849	1090.4858	1103.9062	1112.4499	1114.8305	1196.1012	1228.1511	1280.9817	1292.4457	1319.4103	1344.5057	1380.4058	1405.3583	1431.8586	1451.8133	1479.3121	1486.1265	1497.9952	3035.7733	3053.7112	3100.7896	3123.7996	3142.0376	3146.9312	3171.7911	3184.8865	3232.8218	3790.3357
CC12OC1C1CC1C2O	C[C@]12O[C@H]1[C@H]1C[C@H]1[C@H]2O	
InChI=1S/C7H10O2/c1-7-5(8)3-2-4(3)6(7)9-7/h3-6,8H,2H2,1H3	InChI=1S/C7H10O2/c1-7-5(8)3-2-4(3)6(7)9-7/h3-6,8H,2H2,1H3/t3-,4+,5-,6+,7-/m1/s1
