18
gdb 14838	2.91023	1.60919	1.1405	4.5178	72.19	-0.2495	0.0156	0.2651	1068.2445	0.154637	-343.977787	-343.96948	-343.968535	-344.010783	30.094	
C	 0.0803859928	 1.539529465	-0.1419156725	-0.392381
C	 0.0224978734	 0.009252823	-0.170103476	-0.181786
C	-1.3764966117	-0.5273195342	 0.118207611	 1.*^-6
C	-2.3833521279	-0.4345094375	-1.0627875138	-0.176264
N	-2.1107974576	-1.8561807911	-1.3781958411	-0.298849
C	-1.5573117214	-2.0784073925	-0.0277978259	-0.145268
C	-0.3724549974	-2.936672949	 0.0346867757	 0.303554
N	 0.5645745736	-3.6096111857	 0.107130471	-0.333217
H	 1.0908295162	 1.896350677	-0.3610450556	 0.122113
H	-0.5942279743	 1.9825313424	-0.8825728434	 0.118513
H	-0.2050809317	 1.9288897483	 0.8417149895	 0.115983
H	 0.3565848783	-0.3628560596	-1.1457634604	 0.12226
H	 0.7212233854	-0.3995084893	 0.5695112362	 0.116258
H	-1.7446538135	-0.1382452408	 1.0703299717	 0.083306
H	-3.4091019641	-0.2284536127	-0.728256544	 0.096776
H	-2.1323709871	 0.2551285949	-1.875421755	 0.112273
H	-2.9101399199	-2.4309089078	-1.6199405172	 0.228327
H	-2.2836102832	-2.4569116305	 0.7060429098	 0.108401
104.0906	109.0379	123.5695	211.2612	220.8782	273.2775	365.7018	402.3378	547.2178	562.0214	671.017	772.1783	800.7341	836.4715	923.3758	958.4428	986.1805	1002.5419	1032.3851	1050.6866	1089.7737	1116.9245	1147.37	1171.5005	1223.7746	1254.0418	1292.6933	1321.1222	1342.61	1362.085	1393.2127	1394.5375	1413.4851	1486.2864	1500.586	1506.078	1524.7327	2354.0328	2993.4213	3006.966	3031.2482	3035.0268	3064.2146	3067.5632	3084.4455	3100.9062	3109.278	3536.4272
CCC1CNC1C#N	CC[C@H]1CN[C@H]1C#N	
InChI=1S/C6H10N2/c1-2-5-4-8-6(5)3-7/h5-6,8H,2,4H2,1H3	InChI=1S/C6H10N2/c1-2-5-4-8-6(5)3-7/h5-6,8H,2,4H2,1H3/t5-,6-/m0/s1
