16
gdb 66528	2.91783	1.68845	1.26224	2.2526	80.12	-0.2137	0.0159	0.2297	1003.4557	0.122379	-363.459101	-363.451422	-363.450478	-363.490962	30.17	
C	 0.0463161719	 1.532658776	-0.0222630197	-0.525941
C	 0.0005284468	 0.0432060521	-0.0048897034	 0.27516
C	 0.5760640351	-0.9919129382	-0.9843477527	-0.178119
C	 0.976692429	-0.9986646219	 0.4719290996	-0.068669
N	-0.1252078016	-1.9935752156	 0.8377243347	-0.215338
C	-0.5555476745	-1.9691585057	-0.5966414152	-0.120437
C	-1.1424260877	-0.9656291501	 0.3488867114	 0.293922
C	-2.4403621189	-0.797929766	 0.8825824596	 0.030624
C	-3.5487149076	-0.6175978104	 1.3171759548	-0.377933
H	 1.0446589089	 1.8823160353	-0.3067858839	 0.126884
H	-0.6701911558	 1.9475693728	-0.7398706793	 0.130826
H	-0.185930378	 1.9487745255	 0.9643764407	 0.13433
H	 1.1490423938	-0.8332755725	-1.8865668948	 0.100081
H	 1.9322881518	-0.9303506138	 0.9762834153	 0.104067
H	-1.0183068307	-2.8209660061	-1.0808037002	 0.107726
H	-4.5245249525	-0.4684396113	 1.708190483	 0.182819
120.4471	151.8803	207.3009	251.6301	272.8508	472.9891	489.0526	540.7143	583.8496	619.15	666.1935	672.5738	749.6697	780.6864	829.2859	857.1612	864.7767	891.1853	906.1161	932.4831	993.1293	1013.1254	1052.0753	1095.9808	1104.2737	1176.5216	1188.9416	1247.8642	1253.2314	1366.5469	1406.9555	1445.0785	1479.2177	1498.0028	2228.8533	3025.24	3088.0546	3096.425	3183.5754	3191.4589	3221.5562	3502.0768
CC12C3C1N1C3C21C#C	C[C@@]12[C@H]3[C@@H]1N1[C@H]3[C@]21C#C	
InChI=1S/C8H7N/c1-3-8-6-4-5(9(6)8)7(4,8)2/h1,4-6H,2H3	InChI=1S/C8H7N/c1-3-8-6-4-5(9(6)8)7(4,8)2/h1,4-6H,2H3/t4-,5-,6+,7+,8+,9?/m0/s1
