15
gdb 32310	2.7204	1.62055	1.02209	3.2572	73.33	-0.214	-0.0377	0.1763	1102.6796	0.114427	-454.002597	-453.994891	-453.993947	-454.034971	28.562	
C	 0.0043131421	 1.3770667975	 0.0076286634	-0.231302
O	-0.0387480398	-0.050578693	 0.0030827908	-0.226717
C	-1.2491535504	-0.6105807864	 0.0105410781	 0.325837
N	-2.3324572003	 0.0951927767	 0.0215274882	-0.355028
C	-3.5451948248	-0.5533417085	 0.0287460197	-0.062773
C	-3.6334718749	-1.9021186029	 0.0246261669	-0.017914
N	-2.4728646002	-2.6398380375	 0.0129772047	-0.342326
C	-1.194443403	-2.0985404653	 0.0050283425	 0.351192
O	-0.1915839372	-2.7829564286	-0.0054040076	-0.370455
H	 1.0630699453	 1.6361940309	-7.9826*^-6	 0.136038
H	-0.4985046454	 1.7835153466	-0.8745273515	 0.137264
H	-0.4841794504	 1.7774314854	 0.9005564501	 0.137252
H	-4.43095639	 0.0685095177	 0.0378585505	 0.117703
H	-4.5648047004	-2.4521885446	 0.0299067745	 0.133701
H	-2.5027423206	-3.6500285479	 0.0096192124	 0.267527
111.5863	146.4556	180.7008	219.7748	295.9001	356.1348	477.8086	528.1252	561.6897	583.0767	587.7825	705.9253	773.8443	785.2048	809.5308	900.1598	911.6579	1031.7184	1094.3001	1132.5183	1178.0418	1199.7816	1253.8133	1293.8044	1341.7203	1418.5533	1467.2126	1478.5796	1488.6481	1495.7217	1600.3768	1657.1073	1796.3599	3044.0779	3114.824	3156.8943	3209.0804	3230.2517	3608.9917
COC1=NC=CNC1=O	COc1ncc[nH]c1=O	
InChI=1S/C5H6N2O2/c1-9-5-4(8)6-2-3-7-5/h2-3H,1H3,(H,6,8)	InChI=1S/C5H6N2O2/c1-9-5-4(8)6-2-3-7-5/h2-3H,1H3,(H,6,8)
