24
gdb 96680	3.33255	0.74138	0.64629	0.9311	89.64	-0.2409	0.0343	0.2752	1867.4952	0.21347	-405.569396	-405.557387	-405.556443	-405.609378	41.346	
C	 0.020509039	 1.4785475346	 0.0437868015	-0.321198
N	 0.0048311698	 0.0266346809	 0.0602719101	-0.290564
C	 0.5209429188	-0.5969157974	-0.9152267373	 0.40716
C	 1.1802976984	-0.0186078288	-2.1426616724	-0.490641
O	 0.532483137	-1.9479228539	-0.950913705	-0.256995
C	-0.0606216066	-2.6318664109	 0.1602175401	-0.037112
C	 0.0520707867	-4.1333611545	-0.0895567465	 0.015928
C	-0.4356506026	-4.8998609635	 1.14673978	-0.392604
C	-0.7113927249	-4.5561201779	-1.3509742033	-0.381255
H	 1.030285528	 1.8967860085	-0.0805963497	 0.108522
H	-0.6047328377	 1.892853147	-0.7607844031	 0.112307
H	-0.376973082	 1.8519199372	 0.9913338001	 0.122668
H	 2.0485808056	 0.5859044119	-1.8601910826	 0.142808
H	 1.5043677687	-0.8115994546	-2.8164137239	 0.13948
H	 0.4870366768	 0.6426356955	-2.6724860521	 0.14138
H	 0.4550854121	-2.3347717339	 1.0801761922	 0.108084
H	-1.1065856006	-2.3174390187	 0.2626384161	 0.108743
H	 1.1169036352	-4.357831707	-0.2389719345	 0.079781
H	-1.4932207825	-4.6912395661	 1.3476057332	 0.115435
H	-0.3346539869	-5.9795812072	 0.9996575896	 0.113602
H	 0.1340047495	-4.6276355072	 2.0414883993	 0.113289
H	-1.7862290583	-4.3706088919	-1.2347969815	 0.109044
H	-0.3657286995	-3.9978795598	-2.224369745	 0.124216
H	-0.5783802539	-5.624245842	-1.5509023554	 0.107921
9.6602	43.3799	66.219	97.292	115.7442	182.3528	217.2143	230.7155	251.0773	286.7695	297.0886	314.9936	406.7364	424.5156	521.7347	580.2138	634.7372	814.471	858.45	912.9772	929.3949	957.9543	975.6467	986.7713	1050.3374	1067.7857	1103.7387	1114.8769	1150.3418	1170.2932	1190.8885	1200.734	1268.2082	1307.566	1331.0407	1371.6978	1390.673	1396.18	1406.3573	1424.5829	1442.9976	1479.4246	1481.3268	1487.9105	1488.9817	1490.1431	1502.0781	1508.3627	1510.3433	1515.2182	1742.2207	2982.0722	3014.5148	3025.5753	3027.9739	3029.2664	3034.285	3044.7876	3072.7854	3090.1013	3094.7933	3096.2021	3101.1117	3103.6511	3121.6035	3153.3637
CN=C(C)OCC(C)C	CN=C(C)OCC(C)C	
InChI=1S/C7H15NO/c1-6(2)5-9-7(3)8-4/h6H,5H2,1-4H3	InChI=1S/C7H15NO/c1-6(2)5-9-7(3)8-4/h6H,5H2,1-4H3
