15
gdb 11347	4.79674	1.34692	1.06562	5.0919	67.53	-0.239	-0.0228	0.2162	1051.2001	0.1192	-399.815051	-399.807465	-399.806521	-399.847308	27.281	
O	 0.003985996	 1.4045316184	 0.0079057525	-0.406603
C	-0.0256379465	-0.007114482	 0.0023639823	-0.180774
C	-1.4419148961	-0.4694560065	 0.0122559514	 0.286867
C	-2.5617185141	 0.2564759286	 0.0230654126	-0.262241
C	-3.7182206188	-0.6441538286	 0.0295950793	 0.419984
N	-4.9430060138	-0.3243142048	 0.0400904275	-0.551964
O	-3.2456145831	-1.941561281	 0.0222036768	-0.251664
C	-1.8198713514	-1.9279010153	 0.0111719804	-0.173269
H	 0.9225522515	 1.6880650938	 0.0002844112	 0.295702
H	 0.4820177094	-0.4232643208	-0.8863525273	 0.106919
H	 0.4968413574	-0.4305506765	 0.8789613579	 0.106869
H	-2.6505627009	 1.3310531873	 0.0268622804	 0.140734
H	-5.529796026	-1.1601559599	 0.0423274433	 0.220655
H	-1.4584173328	-2.4599331468	-0.8801092662	 0.124386
H	-1.4446215407	-2.464695606	 0.8938579177	 0.124399
81.6472	159.0743	174.2822	204.3736	238.3372	402.2751	422.6232	467.4829	636.6395	691.2561	713.5103	858.8768	893.8531	898.9976	931.7588	987.0267	1029.2597	1068.9198	1069.8871	1104.2638	1164.9351	1199.3339	1214.7661	1254.1896	1261.8551	1336.821	1389.6197	1471.1315	1501.0436	1506.082	1708.9345	1760.6555	2941.029	2953.6453	3002.5635	3029.5703	3274.6158	3477.6241	3839.9463
OCC1=CC(=N)OC1	OC[C]1C=C([NH])OC1	
InChI=1S/C5H7NO2/c6-5-1-4(2-7)3-8-5/h1,6-7H,2-3H2	InChI=1S/C5H7NO2/c6-5-1-4(2-7)3-8-5/h1,6-7H,2-3H2
