20
gdb 14398	3.2066	2.48862	1.99648	0.1538	77.98	-0.2598	0.0962	0.356	795.4911	0.179913	-311.846319	-311.839871	-311.838927	-311.876272	27.542	
C	 0.0324460005	 1.5482588421	-0.0471226321	-0.509047
C	-0.0057635395	 0.0413930002	-0.062029165	 0.376868
C	 0.4166071047	-0.8087272428	-1.2719842159	-0.283296
C	-0.329207603	-1.9447050641	-0.5267107256	-0.042957
C	 0.6016913973	-2.1610994791	 0.6866473303	-0.204392
C	 0.370265275	-0.7551999159	 1.2772344782	-0.073901
C	-1.1452384152	-0.8172469508	 1.6082055117	-0.242447
C	-1.2995933074	-0.8398573003	 0.0824216853	-0.057444
H	 1.0667380522	 1.9136863688	-0.0486943676	 0.115169
H	-0.4667765796	 1.9673811677	-0.9280146852	 0.112524
H	-0.4569914986	 1.9618157692	 0.8417774824	 0.115196
H	-0.1110900475	-0.4762687531	-2.1723677263	 0.088282
H	 1.4789155886	-0.9520559593	-1.5016172614	 0.081276
H	-0.7100253802	-2.8208940486	-1.0505291756	 0.05684
H	 0.2813581383	-2.9556338817	 1.3674456019	 0.087913
H	 1.6343000122	-2.3598646714	 0.3844215819	 0.088008
H	 1.097588418	-0.3624200715	 1.9885196998	 0.054332
H	-1.5019973466	-1.6620757871	 2.2068249033	 0.084272
H	-1.5298146433	 0.1153121971	 2.0305358379	 0.094183
H	-2.228234836	-0.6289940093	-0.4483667581	 0.058623
212.4483	246.8282	280.4946	408.9574	439.4445	482.4489	579.4796	658.0394	692.2126	791.7704	829.8717	849.1788	880.2484	888.1734	919.5407	933.317	961.7779	981.3752	989.8567	997.8347	1024.8525	1068.0406	1080.1159	1099.7684	1140.6611	1168.4432	1180.5181	1201.2878	1211.3508	1232.1548	1240.7932	1250.6326	1271.1751	1306.0512	1320.0045	1340.3074	1412.3129	1487.3677	1490.4566	1492.6151	1501.4333	1521.194	3018.7142	3027.3258	3039.9531	3047.831	3078.4044	3081.7819	3087.8464	3090.904	3097.8934	3106.9883	3109.8466	3120.4142
CC12CC3CC1CC23	C[C@@]12C[C@H]3C[C@@H]1C[C@@H]23	
InChI=1S/C8H12/c1-8-4-5-2-6(8)3-7(5)8/h5-7H,2-4H2,1H3	InChI=1S/C8H12/c1-8-4-5-2-6(8)3-7(5)8/h5-7H,2-4H2,1H3/t5-,6-,7-,8-/m1/s1
