20
gdb 70633	2.36205	1.55572	1.15338	4.2054	82.44	-0.2776	0.0384	0.3159	1132.6208	0.172679	-366.041796	-366.033435	-366.032491	-366.07449	32.62	
C	-0.4048186817	 1.3349760551	-0.0593557403	-0.489656
C	 0.0064297033	-0.1116180669	 0.0643245996	 0.361419
C	-0.6216480898	-1.0022882259	 1.1092557999	-0.333934
C	 0.8463173435	-0.65528799	 1.2017016578	-0.080077
C	 1.8456891222	-1.6598378277	 0.6495996051	-0.22861
C	 1.2735622387	-2.0732749535	-0.7238615394	-0.247881
C	 0.4889929385	-0.8217519608	-1.2112511775	-0.195739
C	-0.5884818638	-1.1450845109	-2.1465777423	 0.274662
N	-1.4485965498	-1.3989180406	-2.8763679746	-0.334631
H	 0.4002915227	 1.9438321431	-0.4881359364	 0.115931
H	-1.2844608758	 1.4429583334	-0.7038538317	 0.138335
H	-0.6565489629	 1.7550246463	 0.9189135373	 0.12025
H	-1.2883834274	-0.5177509003	 1.8142584768	 0.11567
H	-0.9206664589	-2.0134628831	 0.853073703	 0.119505
H	 1.1659046928	 0.0038690309	 2.0021335052	 0.087121
H	 2.8206407134	-1.1732455341	 0.5276528612	 0.105485
H	 1.9971108706	-2.5265463203	 1.3014731279	 0.107715
H	 2.0433908311	-2.3710907094	-1.4385786788	 0.117343
H	 0.5898202104	-2.9194588833	-0.622374494	 0.128932
H	 1.1774762027	-0.1420484619	-1.7307218489	 0.118164
102.4198	133.7484	213.0693	234.3165	263.3942	309.3357	377.6211	419.5792	501.9006	530.5708	567.6201	631.434	703.5879	815.2924	828.8273	872.9259	904.3185	947.4141	957.4153	987.9882	1006.4103	1041.8811	1058.3855	1071.0419	1081.37	1104.9716	1128.0304	1187.5585	1220.2237	1257.0517	1288.4793	1295.0092	1326.1834	1339.1998	1355.2751	1406.9261	1425.3709	1489.349	1490.4539	1494.4313	1503.5402	1517.1266	2353.3527	3021.4836	3024.5384	3034.8841	3070.294	3080.7316	3084.5981	3105.4773	3120.0028	3133.454	3163.0225	3214.4381
CC12CC1CCC2C#N	C[C@]12C[C@H]1CC[C@H]2C#N	
InChI=1S/C8H11N/c1-8-4-6(8)2-3-7(8)5-9/h6-7H,2-4H2,1H3	InChI=1S/C8H11N/c1-8-4-6(8)2-3-7(8)5-9/h6-7H,2-4H2,1H3/t6-,7+,8+/m1/s1
