15
gdb 28825	3.04005	1.52546	1.22173	4.159	75.94	-0.2511	-0.0921	0.1591	1028.8868	0.113543	-412.997442	-412.989749	-412.988805	-413.029769	28.476	
C	-0.5998802932	 1.2395230941	 0.1983034862	-0.480214
C	-0.014974819	-0.12760827	-0.0061276	 0.302989
N	-0.1382515849	-0.7029331999	-1.153385233	-0.265197
C	 0.3898186312	-1.9599699065	-1.4222269508	 0.061912
N	 0.4669820502	-2.991064155	-0.6670629991	-0.234533
C	 0.0283973719	-2.862599872	 0.667915274	 0.339385
N	-0.8759016597	-3.5492403087	 1.2242283546	-0.481487
N	 0.7989153963	-1.9507248802	 1.4294039259	-0.167065
C	 0.7498941941	-0.7145206981	 1.1219255574	-0.03371
H	 0.1877018396	 1.9608415206	 0.4470575151	 0.14825
H	-1.1167117994	 1.5653649651	-0.7044075899	 0.15601
H	-1.2994032047	 1.2327868213	 1.0423133124	 0.157041
H	 0.7126112552	-2.0677082193	-2.4578314833	 0.136234
H	-1.2894855348	-4.1846659113	 0.5397237719	 0.229521
H	 1.324472247	-0.01602847	 1.7364351687	 0.130865
90.6692	129.4392	193.3462	268.6754	319.1326	352.524	395.6895	480.4527	532.2898	636.0667	662.7237	741.4858	825.4586	851.1258	903.3177	907.2059	926.5255	964.5748	992.3895	1030.7244	1059.1493	1166.4253	1239.2733	1305.2448	1399.9932	1402.0603	1421.4669	1465.3105	1473.6316	1611.4619	1662.6673	1700.1098	1743.2132	3033.5655	3087.37	3093.9205	3137.7449	3156.6675	3476.3852
CC1=NC=NC(=N)N=C1	CC1=NC=N[C]([NH])N=C1	
InChI=1S/C5H6N4/c1-4-2-7-5(6)9-3-8-4/h2-3,6H,1H3	InChI=1S/C5H6N4/c1-4-2-7-5(6)9-3-8-4/h2-3,6H,1H3
