18
gdb 68317	3.57366	1.05429	0.94204	4.4384	76.96	-0.2529	0.0367	0.2896	1271.8029	0.146645	-401.905232	-401.896768	-401.895823	-401.9387	31.804	
C	 0.0426224004	 1.4719625856	 0.0961320907	-0.516425
C	-0.0144040803	-0.0151216557	-0.0588174223	 0.389579
C	 0.6443403312	-0.9358903846	-1.1207458505	-0.262334
C	 0.0609773374	-1.8130600702	 0.0055623015	 0.04453
O	 0.6179731415	-0.8622471476	 0.9958955	-0.344868
C	-1.2448318572	-0.9792030983	-0.0363701576	-0.019661
C	-2.130021264	-0.9621344733	 1.2088953195	-0.382361
C	-2.9780191405	-2.1487946399	 1.2977531192	 0.258331
N	-3.6408549656	-3.0942548257	 1.3482182574	-0.310416
H	 1.0820204588	 1.808353939	 0.1512584958	 0.142647
H	-0.4346415327	 1.9597690443	-0.7595146416	 0.132965
H	-0.471386192	 1.7910653661	 1.0081917393	 0.134848
H	 0.1885394953	-0.9901216396	-2.1125761612	 0.100542
H	 1.7333123917	-0.8918853935	-1.1483788103	 0.113174
H	 0.1925606779	-2.8762902131	 0.2013372188	 0.110991
H	-1.8266387098	-1.04057175	-0.9601853693	 0.090859
H	-1.4884502598	-0.9067595384	 2.0937274159	 0.169985
H	-2.7751981322	-0.0755972052	 1.2087979047	 0.147614
59.8658	110.8654	182.3155	200.5151	273.6359	322.5701	373.543	399.1931	464.9898	576.2674	636.8694	658.3197	726.0512	766.9266	832.636	887.5723	915.4587	940.8119	957.7773	999.3901	1024.2649	1044.6112	1096.5048	1122.6679	1136.7203	1164.2871	1199.4269	1218.4753	1241.1731	1246.7662	1311.7484	1328.4176	1399.639	1416.3291	1468.557	1476.4092	1488.7073	1495.7626	2360.5925	3040.1842	3043.9891	3064.2745	3077.2887	3098.909	3112.9762	3118.4197	3134.7925	3152.405
CC12CC(O1)C2CC#N	C[C@@]12C[C@@H](O1)[C@H]2CC#N	
InChI=1S/C7H9NO/c1-7-4-6(9-7)5(7)2-3-8/h5-6H,2,4H2,1H3	InChI=1S/C7H9NO/c1-7-4-6(9-7)5(7)2-3-8/h5-6H,2,4H2,1H3/t5-,6-,7+/m1/s1
