21
gdb 119012	3.04817	1.03278	0.94772	2.1004	74.99	-0.2442	0.0772	0.3214	1354.8851	0.182088	-461.353673	-461.344151	-461.343207	-461.388641	34.922	
C	-0.0029749931	 1.3666634761	 0.073146142	-0.229712
O	 0.0078634507	-0.0428012567	 0.0924359544	-0.256271
C	-1.2663869931	-0.6231696604	-0.1196298967	-0.121449
C	-1.1000080399	-2.1356335581	 0.0218508028	 0.396873
O	-0.4987716418	-2.4274621552	 1.2718286256	-0.487159
C	-2.4594586164	-2.864980477	-0.1058269216	-0.301512
C	-2.349859624	-3.6401229583	-1.4361368644	-0.07398
O	-1.2784866319	-3.033943464	-2.1523689626	-0.245598
C	-0.3048537711	-2.7178844205	-1.1748114359	-0.143366
H	 1.0197610138	 1.7047003496	 0.2558384253	 0.131178
H	-0.338003462	 1.7543560193	-0.9005400571	 0.112699
H	-0.6611087006	 1.7777833019	 0.8537712256	 0.110398
H	-1.982784546	-0.2520201359	 0.6309924997	 0.092116
H	-1.6516017488	-0.3760074037	-1.1213220683	 0.103108
H	 0.1870094177	-1.7586069139	 1.3958261474	 0.285388
H	-2.5959338997	-3.5216423098	 0.7553167588	 0.123094
H	-3.2913030924	-2.1546132709	-0.1219912572	 0.102533
H	-2.1281829332	-4.7025360226	-1.2492856769	 0.094329
H	-3.2455993532	-3.581509033	-2.0591263281	 0.106215
H	 0.4087994103	-2.014594338	-1.6089697016	 0.111097
H	 0.2319885445	-3.6151229388	-0.8279902712	 0.090021
47.2795	85.1167	130.2825	167.8565	226.2097	244.8419	323.7727	340.4306	375.7908	434.0953	449.1689	502.2685	634.6415	682.8129	814.5342	829.4361	935.4701	942.8706	971.1509	990.6758	996.9926	1019.4481	1099.045	1114.95	1153.6423	1163.7374	1177.5746	1193.2581	1223.832	1231.3231	1261.7463	1272.109	1293.627	1314.9804	1344.8444	1371.8287	1402.4219	1429.8939	1477.8814	1486.1016	1486.8771	1498.8001	1506.5816	1521.1136	1523.8471	2966.815	2979.221	2982.3121	2985.3439	3012.6108	3029.4503	3059.9536	3094.9434	3110.6669	3117.8503	3121.6766	3771.254
COCC1(O)CCOC1	COC[C@@]1(O)CCOC1	
InChI=1S/C6H12O3/c1-8-4-6(7)2-3-9-5-6/h7H,2-5H2,1H3	InChI=1S/C6H12O3/c1-8-4-6(7)2-3-9-5-6/h7H,2-5H2,1H3/t6-/m0/s1
