16
gdb 31100	3.29092	1.17673	0.88936	2.6007	68.09	-0.1779	0.0493	0.2272	1239.2503	0.125849	-471.235051	-471.226312	-471.225368	-471.268264	32.754	
N	-0.0409361595	 1.3743963541	-0.1246850792	-0.613757
C	-0.0853032271	-0.0274578751	-0.1271568799	 0.224158
C	-1.1098118177	-0.9331274331	-0.0584968734	 0.171128
C	-2.5789586449	-0.6526481785	-0.0266138863	-0.183573
O	-2.9208662106	 0.5395683026	-0.743002935	-0.415251
N	-0.5998681308	-2.2337308109	 0.0252285348	-0.419951
C	 0.6898142019	-2.0873066754	 0.0036214217	 0.423485
O	 1.6246745571	-3.0558368467	 0.0410644737	-0.429743
N	 1.0819725787	-0.7854044218	-0.0897796366	-0.343119
H	 0.4538077395	 1.7481151846	-0.9304719645	 0.236468
H	-0.9947539088	 1.7218108876	-0.1560325032	 0.259086
H	-3.122386752	-1.5271649361	-0.4109773294	 0.110398
H	-2.9421567213	-0.4751800186	 0.993356903	 0.119439
H	-2.6459048829	 0.4000717647	-1.6559568299	 0.280354
H	 1.1415015702	-3.8896802808	 0.0976874855	 0.311959
H	 2.0256108882	-0.4393359764	-0.0538497112	 0.26892
77.2666	176.16	201.4855	230.4404	297.664	304.3953	344.9909	376.7695	402.5365	431.8017	436.6778	522.0388	638.6018	658.3886	714.1046	737.821	806.7393	884.7667	978.124	1035.2192	1056.7008	1101.9292	1174.412	1190.4111	1227.2241	1273.3315	1303.1268	1372.625	1414.2448	1470.9628	1507.5074	1554.1702	1636.7909	1643.1792	1682.2485	3007.2329	3044.3383	3475.714	3569.4685	3671.9347	3801.3304	3806.3763
NC1=C(CO)N=C(O)N1	Nc1c(CO)nc(O)[nH]1	
InChI=1S/C4H7N3O2/c5-3-2(1-8)6-4(9)7-3/h8H,1,5H2,(H2,6,7,9)	InChI=1S/C4H7N3O2/c5-3-2(1-8)6-4(9)7-3/h8H,1,5H2,(H2,6,7,9)
