17
gdb 74857	2.4949	1.8436	1.23901	1.0922	73.82	-0.2439	-0.0116	0.2324	1016.6814	0.135219	-421.793556	-421.785842	-421.784898	-421.82558	29.876	
C	 0.0505289768	 1.4935909932	 0.0486613082	-0.507951
C	 0.0062202808	 0.001772016	-0.0122302922	 0.257617
C	-0.1195394505	-0.7839579531	-1.0923086845	-0.211183
C	-0.0619242785	-2.2284331591	-0.7183070778	-0.004919
O	 1.1897984114	-2.6214698625	-0.0952624275	-0.258417
C	 0.0838521662	-2.2815107802	 0.7428407684	-0.080734
C	 0.1132994231	-0.8492208353	 1.2202230846	 0.363967
C	 0.7257802117	-0.4364428255	 2.4912218568	-0.241802
O	-0.6936040757	-0.5078819229	 2.3601195904	-0.281495
H	 1.0498672942	 1.8531241239	 0.3243415268	 0.134351
H	-0.2107038165	 1.9381980601	-0.9145824639	 0.129235
H	-0.6461541581	 1.8660309745	 0.8077317988	 0.145831
H	-0.2132872056	-0.4347919325	-2.1134522657	 0.105148
H	-0.5418882009	-3.0025416741	-1.3079662284	 0.102574
H	-0.3120391389	-3.0621213215	 1.3863965269	 0.107549
H	 1.180938364	-1.1919891468	 3.1300456328	 0.122952
H	 1.1365303265	 0.5666885658	 2.5941139163	 0.117277
121.5839	169.3935	205.3104	241.8164	263.1159	376.5928	465.0709	471.4252	538.5017	618.6402	684.8493	751.4797	809.6827	846.9802	867.0137	880.9481	907.7951	964.4588	976.5691	1003.2946	1033.4734	1064.1837	1099.2219	1128.7968	1144.914	1168.4424	1231.7696	1244.7098	1306.1087	1341.8405	1384.6861	1408.0861	1430.2476	1475.6185	1491.3435	1527.4999	1685.3318	3025.7357	3080.314	3084.8438	3121.6895	3157.2563	3171.8338	3174.2733	3207.4407
CC1=CC2OC2C11CO1	CC1=C[C@H]2O[C@H]2[C@]21CO2	
InChI=1S/C7H8O2/c1-4-2-5-6(9-5)7(4)3-8-7/h2,5-6H,3H2,1H3	InChI=1S/C7H8O2/c1-4-2-5-6(9-5)7(4)3-8-7/h2,5-6H,3H2,1H3/t5-,6-,7-/m1/s1
