17
gdb 51955	4.54608	0.74654	0.6893	3.5478	72.09	-0.2505	-0.0314	0.2191	1599.2886	0.134381	-455.154827	-455.145415	-455.14447	-455.191071	32.193	
O	-0.4608603735	 0.565967153	 0.4836965754	-0.231129
C	 0.053592578	 1.5446949988	 0.012923987	 0.15624
C	 1.5010721496	 1.6121640387	-0.4504839604	-0.241012
N	 1.6759564471	 2.4998193135	-1.5765449184	-0.3438
C	 2.4927134104	 3.6002170748	-1.5051961938	 0.442452
O	 3.0480462672	 3.9664781575	-0.4893757219	-0.374463
N	 2.6444442426	 4.2250936515	-2.763718767	-0.144505
C	 1.5979195176	 5.1300020293	-3.2550371443	-0.237059
C	 2.9137635629	 5.6505790601	-2.7846862895	-0.207656
H	-0.5010788018	 2.5029034025	-0.1169239799	 0.079278
H	 2.0994482876	 2.0302087622	 0.3691503254	 0.176818
H	 1.8611612783	 0.5975068369	-0.6520439416	 0.13325
H	 1.4059194625	 2.1876491876	-2.4953005614	 0.257342
H	 1.3765893978	 5.0583718818	-4.3160176963	 0.127454
H	 0.7352388235	 5.2938401698	-2.6140724667	 0.132855
H	 2.9484778391	 6.150260469	-1.8215358043	 0.146673
H	 3.6595011212	 5.9689909428	-3.5064026024	 0.127261
43.4666	56.1345	61.2831	95.927	206.6293	242.8181	305.7706	344.5601	416.6273	491.5934	568.435	607.1046	744.7008	781.0386	827.3025	856.3524	931.9322	967.904	1045.7774	1053.2705	1097.0549	1118.7067	1131.8037	1138.156	1177.7971	1181.803	1224.1346	1264.0569	1327.4595	1354.6523	1410.1414	1446.668	1495.3586	1516.8058	1532.1252	1788.8372	1842.2631	2871.383	3036.5476	3089.03	3109.6653	3125.7786	3196.2433	3218.8425	3642.3629
O=CCNC(=O)N1CC1	O=CCNC(=O)N1CC1	
InChI=1S/C5H8N2O2/c8-4-1-6-5(9)7-2-3-7/h4H,1-3H2,(H,6,9)	InChI=1S/C5H8N2O2/c8-4-1-6-5(9)7-2-3-7/h4H,1-3H2,(H,6,9)
