19
gdb 51667	4.20215	0.92833	0.87473	3.7303	76.12	-0.2464	-0.0209	0.2254	1358.8255	0.158529	-422.999213	-422.990737	-422.989792	-423.033723	30.944	
O	-0.2924581248	 0.1962534305	 0.0307718851	-0.241026
C	-0.0296265537	 1.3716709946	 0.006307724	 0.156098
C	 1.3724990458	 1.933729686	-0.1142415877	-0.301581
C	 1.4956368141	 2.8702568198	-1.3133346348	 0.132898
O	 0.6388307841	 4.0375631622	-1.2081524867	-0.318234
C	 1.7257565513	 4.9244607227	-1.5547922493	 0.131395
C	 2.3862775697	 5.5676921517	-0.3170294075	-0.229384
C	 3.3920162262	 4.373488948	-0.2519716877	-0.236939
C	 2.7472619732	 3.7499542717	-1.5210369905	-0.112405
H	-0.8263518944	 2.1438247683	 0.0701063987	 0.098293
H	 1.5863525092	 2.4942117457	 0.8047023486	 0.120012
H	 2.0795810717	 1.1026325807	-0.1989053803	 0.121039
H	 1.2514132044	 2.3140846024	-2.2305667531	 0.088133
H	 1.4927652022	 5.5440362045	-2.4245257757	 0.079478
H	 2.8643841092	 6.5295185066	-0.5206726934	 0.104762
H	 1.7049877888	 5.6813109425	 0.5288632159	 0.112037
H	 4.4279906712	 4.6758899038	-0.4184827509	 0.110003
H	 3.3664099706	 3.7630727781	 0.6538157844	 0.105656
H	 3.408817831	 3.4746313401	-2.3410875392	 0.079763
52.7135	61.534	86.4368	171.0116	250.1596	365.8775	418.3611	438.048	527.2787	653.8175	727.8377	775.4751	823.5505	844.2569	855.1203	914.9765	929.1386	951.7453	983.2922	1025.031	1033.009	1084.0351	1094.3328	1107.5878	1142.7255	1173.6365	1206.5888	1224.6457	1236.5229	1252.0744	1273.3744	1280.6424	1309.5149	1320.101	1349.0413	1394.8343	1423.013	1448.0014	1464.0732	1491.5395	1830.3941	2905.8379	2988.4114	3032.2359	3060.8232	3068.7407	3077.1239	3101.4859	3107.2933	3120.1688	3128.8002
O=CCC1OC2CCC12	O=CC[C@H]1O[C@H]2CC[C@@H]12	
InChI=1S/C7H10O2/c8-4-3-7-5-1-2-6(5)9-7/h4-7H,1-3H2	InChI=1S/C7H10O2/c8-4-3-7-5-1-2-6(5)9-7/h4-7H,1-3H2/t5-,6+,7-/m1/s1
