25
gdb 118147	3.14906	0.76425	0.65101	1.9998	89.05	-0.2412	0.0735	0.3146	1813.3985	0.227998	-389.479339	-389.468639	-389.467695	-389.515949	38.606	
C	-0.0296046075	 1.565346681	-0.1894520834	-0.379385
C	 0.0181546886	 0.0450381448	-0.0104706148	-0.176888
C	-1.3772189773	-0.5885921038	 0.0513204986	-0.163735
C	-1.3966124809	-2.1260167556	 0.1437973974	 0.000159
C	-0.7760895245	-2.6446407506	 1.4497333249	-0.400964
C	-2.8239692786	-2.6514871848	-0.0118545213	-0.008273
C	-3.516144084	-2.5057082677	-1.387317421	-0.094048
O	-3.7544142686	-3.9247893818	-1.4722246518	-0.274135
C	-3.0263201551	-4.1660211306	-0.2517853542	-0.09541
H	 0.9762989338	 1.9945010912	-0.2322877262	 0.111631
H	-0.5486646885	 1.8396134948	-1.1146774604	 0.113918
H	-0.5607762773	 2.0450763321	 0.6402966329	 0.11384
H	 0.5816037966	-0.4038897491	-0.8394612602	 0.094895
H	 0.5782234072	-0.1919242068	 0.9017447677	 0.099441
H	-1.9278568711	-0.172529259	 0.9078232078	 0.089544
H	-1.9363100083	-0.2809709093	-0.8430836775	 0.093484
H	-0.806113846	-2.5224180116	-0.6968234576	 0.070061
H	-0.8242312379	-3.7372074371	 1.5053075653	 0.115613
H	 0.2754332535	-2.3600950635	 1.542659884	 0.118364
H	-1.3093356115	-2.2436078866	 2.3202329062	 0.112379
H	-3.445556831	-2.2749661357	 0.8075017585	 0.073614
H	-4.4493644542	-1.9307353696	-1.4144320247	 0.099965
H	-2.8598771435	-2.1522819762	-2.1957278066	 0.093113
H	-2.0993102346	-4.7288430654	-0.4332680266	 0.093369
H	-3.6297142093	-4.708920889	 0.485444293	 0.099446
63.6073	74.7176	89.211	112.4873	133.7539	217.7676	243.8805	251.5339	303.2651	321.0499	370.6122	444.5668	502.3428	741.8648	752.7207	846.88	871.1743	879.0252	894.1954	929.8293	976.1655	985.6532	1010.0223	1021.5523	1043.1677	1052.7273	1077.3606	1103.8516	1150.4347	1161.5589	1166.781	1186.7708	1210.9518	1260.6615	1272.3175	1291.0781	1310.0113	1326.3691	1334.4297	1365.4674	1373.0538	1396.156	1405.1454	1410.8168	1415.5509	1479.911	1493.484	1498.4771	1500.4296	1505.1615	1511.0735	1511.7592	1536.4068	2983.6206	2989.0334	2999.1703	3001.1094	3019.3215	3028.3541	3029.2742	3031.3414	3038.1157	3046.9766	3059.6977	3063.0415	3091.7122	3096.2136	3101.6916	3111.721
CCCC(C)C1COC1	CCC[C@@H](C)C1COC1	
InChI=1S/C8H16O/c1-3-4-7(2)8-5-9-6-8/h7-8H,3-6H2,1-2H3	InChI=1S/C8H16O/c1-3-4-7(2)8-5-9-6-8/h7-8H,3-6H2,1-2H3/t7-/m1/s1
