23
gdb 40821	3.59952	1.00465	0.84313	1.3528	85.8	-0.239	0.0921	0.3311	1433.1133	0.208077	-388.290191	-388.281637	-388.280693	-388.323557	33.681	
C	-0.178456003	 1.4126605909	-0.1748227364	-0.27517
C	 1.2544298803	 1.0256481993	 0.0978243348	-0.278081
C	 0.1828871541	-0.0355019669	 0.0420430791	 0.026923
C	-0.2550985777	-0.7611706403	 1.2967618286	 0.000785
C	-1.6896981666	-1.3081759471	 1.1883377034	-0.203996
C	-2.0501743486	-2.1409614989	 2.4261834759	-0.212627
C	-0.9732185988	-3.1973019152	 2.6819698371	-0.062727
O	 0.3133071837	-2.6150925309	 2.8038649841	-0.246976
C	 0.7002083817	-1.916780856	 1.6334702074	-0.079158
H	-0.7229434799	 1.9211027799	 0.6145218446	 0.10996
H	-0.4439691752	 1.7368049669	-1.1749665588	 0.109956
H	 1.9689704998	 1.0853332495	-0.7156356754	 0.110405
H	 1.6679979002	 1.2759612214	 1.069606111	 0.111591
H	 0.1827613416	-0.6574354972	-0.8512103884	 0.077891
H	-0.2174949383	-0.0551737006	 2.1389960952	 0.069497
H	-2.3995199175	-0.4860343606	 1.0463354577	 0.09535
H	-1.7607566262	-1.9410703514	 0.2916728727	 0.089843
H	-2.1208687815	-1.4896168705	 3.3061341092	 0.101556
H	-3.0248486264	-2.6272215167	 2.3020567704	 0.091245
H	-1.1544551418	-3.7347581087	 3.6175926721	 0.10219
H	-0.9751547284	-3.9378619273	 1.8618573555	 0.079685
H	 0.749077991	-2.6127225127	 0.7756441833	 0.076419
H	 1.7119614175	-1.543964947	 1.8176511069	 0.105438
76.4082	113.482	159.4776	239.6051	260.9608	349.2323	405.1848	423.323	451.3157	476.8241	564.9386	774.5611	816.135	828.0369	860.4581	864.5755	890.6581	907.5166	940.1599	969.2121	985.5555	1006.6936	1043.9967	1057.0222	1076.731	1112.7836	1132.4792	1139.2946	1148.6788	1189.2882	1198.5803	1205.9687	1225.3149	1245.0976	1284.9709	1304.4146	1322.8003	1338.0559	1370.5614	1375.0571	1394.5887	1416.5556	1426.1181	1469.3176	1477.6504	1487.0973	1490.5929	1503.3691	1505.8786	2937.1763	2947.4567	2999.7658	3010.4627	3026.449	3063.8034	3072.2026	3079.9731	3083.5162	3121.9007	3127.4842	3132.6964	3205.3646	3220.3888
C1CC1C1CCCOC1	C1CC1[C@H]1CCCOC1	
InChI=1S/C8H14O/c1-2-8(6-9-5-1)7-3-4-7/h7-8H,1-6H2	InChI=1S/C8H14O/c1-2-8(6-9-5-1)7-3-4-7/h7-8H,1-6H2/t8-/m0/s1
