18
gdb 128089	3.94624	1.01784	0.87869	1.359	73.51	-0.2214	-0.0224	0.199	1337.8638	0.147877	-435.255779	-435.246888	-435.245944	-435.290233	31.783	
C	 0.1785929533	 1.4762838717	 0.2045054354	-0.316475
N	-0.1457542722	 0.0909880251	-0.0952388049	-0.278188
C	 0.5534137572	-0.4848308926	-1.2340398336	-0.07368
C	 2.0984803813	-0.5138985332	-1.148071356	-0.404864
C	 0.0552463564	-1.8802869889	-1.4848345085	 0.390372
N	-0.6089604906	-2.5781581492	-0.6028701311	-0.185776
O	-0.8167547824	-3.809332836	-1.2445866407	-0.155067
C	-0.2478809976	-3.6967101182	-2.4437532724	 0.102815
N	 0.310082686	-2.5518823196	-2.667701055	-0.309544
H	 1.228560355	 1.6697420053	 0.4813461114	 0.098896
H	-0.0534556596	 2.0999197705	-0.666995011	 0.120994
H	-0.4526575497	 1.8179721129	 1.0299897986	 0.123831
H	-0.031236379	-0.4982340976	 0.7218480164	 0.230761
H	 0.2810287931	 0.105679288	-2.1197777691	 0.109682
H	 2.4987349184	 0.4996596719	-1.0660024492	 0.122277
H	 2.4219411262	-1.0871086064	-0.2724952968	 0.118545
H	 2.5239425824	-0.9780507028	-2.0418668244	 0.139211
H	-0.3094892684	-4.5522554308	-3.1004848392	 0.16621
45.8749	84.0387	148.6398	179.0858	223.7082	267.5794	308.2208	360.6635	421.012	486.4566	630.0418	674.9143	740.6588	784.492	877.8445	904.1509	909.3487	985.3182	987.687	1030.7085	1065.277	1082.212	1149.4212	1153.1296	1164.6191	1216.697	1272.8929	1316.856	1341.1966	1388.0736	1402.3462	1459.905	1483.248	1486.9765	1498.4291	1504.1449	1524.0727	1529.6359	1600.2275	2961.9063	3018.0048	3039.8	3052.7927	3101.6252	3115.3105	3126.3625	3265.661	3539.0862
CNC(C)C1=NOC=N1	CN[C@@H](C)c1nocn1	
InChI=1S/C5H9N3O/c1-4(6-2)5-7-3-9-8-5/h3-4,6H,1-2H3	InChI=1S/C5H9N3O/c1-4(6-2)5-7-3-9-8-5/h3-4,6H,1-2H3/t4-/m0/s1
