20
gdb 85326	2.35053	1.73568	1.14454	2.9114	79.01	-0.2139	-0.0193	0.1945	1110.051	0.171725	-403.15361	-403.145401	-403.144457	-403.186457	31.661	
C	-0.0323675506	 1.4957299824	-0.0542621981	-0.320448
N	 0.1041512063	 0.0562848848	-0.0201785301	-0.062267
C	 0.6775878685	-0.5544663299	-1.2079734825	-0.280101
C	 1.1254992792	-1.9455338626	-0.744977589	 0.402195
O	 1.4139572804	-2.8649368714	-1.4652638853	-0.316062
C	 1.1702180259	-1.9433508432	 0.7806401257	-0.15188
C	 2.5973262377	-1.6846371612	 1.3570035638	-0.22952
C	 2.2660080121	-0.1698380672	 1.4582999723	-0.247797
C	 0.7570546021	-0.5033829347	 1.1544509292	 0.020054
H	 0.9324940202	 2.0282849933	-0.1507444325	 0.096456
H	-0.6607782748	 1.7911483514	-0.901016626	 0.122876
H	-0.5194165628	 1.841080746	 0.8637454751	 0.119699
H	-0.0443490239	-0.6256323418	-2.0286865733	 0.129664
H	 1.5662812016	-0.0237174737	-1.6069932772	 0.103128
H	 0.6167870925	-2.79507925	 1.1796296866	 0.099593
H	 2.7258402121	-2.1562211999	 2.3335181713	 0.112576
H	 3.4345898416	-1.9785504342	 0.719974425	 0.11589
H	 2.4710490287	 0.3062554315	 2.4192160997	 0.102727
H	 2.7361175547	 0.4294606517	 0.6735484789	 0.105853
H	 0.1132264583	-0.3895290012	 2.0311353466	 0.077363
78.5991	133.9526	204.6869	219.1223	246.9712	297.3077	442.6284	475.5041	523.9478	560.0239	629.7038	713.3528	747.949	793.6975	852.9493	902.7718	927.3847	939.4508	953.093	998.5581	1033.4963	1077.3913	1106.8313	1149.0877	1153.6789	1184.9725	1191.9706	1208.6208	1230.8938	1232.2721	1254.0214	1260.3735	1289.5123	1302.8768	1344.3174	1371.9708	1456.3569	1477.0226	1482.4443	1494.4186	1501.0637	1508.9619	1849.7972	2897.3037	2931.9915	3054.3562	3059.4664	3062.2808	3063.6628	3069.5948	3098.4398	3100.553	3109.566	3127.1332
CN1CC(=O)C2CCC12	CN1CC(=O)[C@H]2CC[C@@H]12	
InChI=1S/C7H11NO/c1-8-4-7(9)5-2-3-6(5)8/h5-6H,2-4H2,1H3	InChI=1S/C7H11NO/c1-8-4-7(9)5-2-3-6(5)8/h5-6H,2-4H2,1H3/t5-,6+/m0/s1
