21
gdb 118196	3.75398	0.6856	0.67451	5.8356	76.27	-0.2424	0.0205	0.2629	1742.3889	0.182026	-457.555317	-457.544798	-457.543853	-457.59211	37.075	
C	-0.2041185888	 1.7114906505	-0.2453850878	-0.341849
N	-0.1153854095	 0.2489390334	-0.2190165945	-0.099689
H	 1.6190820484	-0.0599384721	 0.6167409587	 0.294839
C	-1.4145182592	-0.4014155695	-0.0166861963	-0.116502
C	-1.9315934026	-0.2873395934	 1.4198826471	-0.168625
N	-3.1831316978	-1.0403377511	 1.5379551644	-0.50587
C	 0.6203872054	-0.2468455126	-1.3824802362	-0.299609
C	 2.1401269344	-0.1858829963	-1.1569316381	 0.409661
O	 2.4764399219	-0.1064983359	 0.1403284928	-0.361028
O	 2.9444841276	-0.2411007517	-2.0455795176	-0.330953
H	 0.7971486681	 2.1390774009	-0.3467880353	 0.142476
H	-0.8210176715	 2.0735688728	-1.0855728357	 0.112582
H	-0.633463411	 2.0858039311	 0.6858128096	 0.131272
H	-2.1733567803	-0.001690614	-0.715203842	 0.083849
H	-1.308997581	-1.4659402316	-0.2417248993	 0.12274
H	-1.1921169559	-0.7403611382	 2.0894574864	 0.112756
H	-2.0212955217	 0.7708060817	 1.714566714	 0.086592
H	-3.4663985166	-1.0890535137	 2.5112262905	 0.23304
H	-3.9297254921	-0.5500639988	 1.053304699	 0.227711
H	 0.3737330136	-1.3012253998	-1.5440295756	 0.140189
H	 0.3891867584	 0.2851640683	-2.3160861743	 0.126418
42.3519	59.6632	88.7103	128.4592	165.8619	223.0339	232.4107	257.3509	334.8624	363.9625	408.7597	430.5518	559.8239	581.5706	661.7058	800.393	842.3556	856.9995	873.5997	898.1484	977.1847	1004.9874	1059.5048	1067.5827	1105.5535	1147.092	1165.5045	1178.5678	1219.2612	1248.6529	1294.6242	1323.4684	1339.4572	1347.6212	1382.342	1413.1555	1436.2459	1459.2677	1471.2837	1495.9509	1501.1691	1505.066	1516.5156	1661.6941	1880.211	2933.0456	2963.1114	2967.3523	3011.7198	3063.2335	3081.3904	3088.1831	3094.3487	3131.4144	3489.0808	3493.2085	3571.6937
C[NH+](CCN)CC([O-])=O	CN(CCN)CC(=O)O	
InChI=1S/C5H12N2O2/c1-7(3-2-6)4-5(8)9/h2-4,6H2,1H3,(H,8,9)	InChI=1S/C5H12N2O2/c1-7(3-2-6)4-5(8)9/h2-4,6H2,1H3,(H,8,9)
