19
gdb 57109	2.91594	1.19042	0.91787	1.1353	77.31	-0.2415	0.0332	0.2747	1284.0455	0.15823	-422.99048	-422.981187	-422.980243	-423.025159	34.176	
O	-0.160509302	 1.3954616569	 0.1068345029	-0.420239
C	 0.0208122214	-0.0186070655	 0.1364397204	-0.069082
C	 0.4783766602	-0.5288259816	-1.1554502201	 0.305014
C	 0.8947998542	-0.8848778196	-2.2253378592	-0.442605
C	 0.9819198853	-0.4219691583	 1.2821575264	 0.120067
C	 0.4558001814	 0.0022620422	 2.6671513022	-0.255813
C	-0.1746910213	-1.2933434938	 3.203242042	-0.224353
C	 0.7393995245	-2.351020366	 2.5831887994	-0.05852
O	 1.1019347178	-1.8426806132	 1.3010013446	-0.267132
H	 0.5958065178	 1.774000014	-0.3549166528	 0.287728
H	-0.9673392632	-0.4365595488	 0.3646544916	 0.1145
H	 1.2485493618	-1.2204460562	-3.1688494629	 0.198928
H	 1.9641154522	 0.0219070889	 1.0670822476	 0.071039
H	 1.2887753548	 0.312167211	 3.3055716922	 0.101273
H	-0.2383718734	 0.8411157451	 2.5944509305	 0.126592
H	-0.2039563559	-1.3396396774	 4.2944102896	 0.10359
H	-1.1983017753	-1.4122437133	 2.8326722022	 0.109605
H	 1.6396087398	-2.5016446405	 3.19981903	 0.09078
H	 0.2598402397	-3.323702224	 2.4381446235	 0.108629
55.9034	69.7093	124.2688	209.4819	225.5726	255.5663	278.7249	353.0851	420.4196	499.2145	588.2088	600.0105	630.7247	669.4785	719.7027	845.78	883.5153	914.7331	932.3964	948.199	962.1624	1014.6808	1057.1358	1076.0731	1111.8673	1139.4019	1190.8692	1203.6428	1242.9348	1264.1009	1285.5172	1312.4079	1326.2687	1343.8164	1381.4033	1393.9705	1415.0146	1488.7407	1501.0188	1527.0125	2234.3764	2979.1675	2999.9747	3041.5603	3050.6446	3061.174	3079.9041	3108.4407	3125.3158	3503.7359	3807.9612
OC(C#C)C1CCCO1	O[C@@H](C#C)[C@H]1CCCO1	
InChI=1S/C7H10O2/c1-2-6(8)7-4-3-5-9-7/h1,6-8H,3-5H2	InChI=1S/C7H10O2/c1-2-6(8)7-4-3-5-9-7/h1,6-8H,3-5H2/t6-,7+/m0/s1
