17
gdb 28632	5.55017	0.9759	0.83427	1.1192	95.63	-0.2244	-0.0253	0.1991	1355.7905	0.136231	-347.601688	-347.593285	-347.59234	-347.635547	31.565	
C	-0.0071322507	 1.5362736188	 0.0103926269	-0.494536
C	-0.0090676091	 0.0281857691	 0.0023014163	 0.299531
C	-0.0056005086	-0.6856761503	-1.2004100303	-0.173449
C	 0.0210959591	-2.0734450961	-1.2150476289	-0.192833
C	 0.0428193267	-2.7984907829	-0.0133605252	 0.146664
C	 0.0352276975	-2.086563489	 1.1962792796	-0.19285
C	 0.0084484187	-0.6986863671	 1.1970298277	-0.173529
C	 0.0667427314	-4.222666613	-0.0212512005	 0.224264
C	 0.0875900766	-5.4270615358	-0.0279351529	-0.421815
H	 1.0166117993	 1.930988036	 0.0027083785	 0.137239
H	-0.5165674783	 1.9416858794	-0.8685966431	 0.127878
H	-0.4997341534	 1.9321479912	 0.9031863462	 0.127799
H	-0.0258981624	-0.1441971635	-2.141672793	 0.092834
H	 0.0212103991	-2.6108439355	-2.1565957468	 0.104505
H	 0.0463445456	-2.6341475016	 2.1318740376	 0.104503
H	-0.0007776788	-0.1674669496	 2.1442888659	 0.092847
H	 0.1057521473	-6.4885266902	-0.0338283179	 0.190949
27.5307	100.5671	144.3204	242.923	335.6804	411.6358	418.4095	426.5365	532.2111	547.2168	582.653	639.3326	657.902	697.0471	734.1866	828.7891	841.5753	858.8435	948.8685	969.8007	1005.6621	1033.6261	1061.4525	1136.8683	1202.1933	1227.9596	1235.6438	1314.6579	1333.6161	1412.3496	1433.6736	1487.4147	1489.7645	1539.7007	1594.263	1651.1943	2225.1035	3027.4591	3086.2371	3115.0749	3168.1125	3168.9528	3197.8984	3199.5678	3504.0883
CC1=CC=C(C=C1)C#C	Cc1ccc(cc1)C#C	
InChI=1S/C9H8/c1-3-9-6-4-8(2)5-7-9/h1,4-7H,2H3	InChI=1S/C9H8/c1-3-9-6-4-8(2)5-7-9/h1,4-7H,2H3
