18
gdb 85192	2.37155	1.3065	0.93118	3.5606	79.48	-0.2468	0.0279	0.2747	1267.518	0.145721	-401.939407	-401.930009	-401.929065	-401.974298	33.959	
C	 0.1459800823	 1.675658953	 0.0475994067	-0.399346
C	 0.0607207087	 0.1572767494	 0.075599294	 0.055202
C	 0.9179990051	-0.6318041853	-0.9618071296	-0.398591
C	 1.604885863	-1.2805797977	 0.2586384011	 0.416408
O	 2.4357631279	-2.1280370078	 0.4566175445	-0.373131
N	 0.8551616446	-0.5155382397	 1.1219166998	-0.07053
C	 0.7233801359	-0.6101431674	 2.5594431291	-0.332788
C	 1.0060306123	 0.6365685593	 3.2721183653	 0.310309
C	 1.2199114711	 1.6577502869	 3.8676354319	-0.44565
H	 1.1891447017	 2.0040543734	 0.0084646902	 0.126203
H	-0.3760740564	 2.0640049906	-0.8331083162	 0.120463
H	-0.3131208878	 2.1150042507	 0.9375666133	 0.133271
H	-0.9879925158	-0.16788016	 0.092019502	 0.082264
H	 0.3737480691	-1.335137244	-1.5942920204	 0.131899
H	 1.5778087441	-0.0165590953	-1.5770695448	 0.131505
H	-0.284372061	-0.960577448	 2.8272562836	 0.137332
H	 1.426666192	-1.391557629	 2.8714565483	 0.170768
H	 1.4216561531	 2.5575892008	 4.3945171611	 0.20441
45.9786	81.288	113.6923	205.7279	217.7196	241.7215	301.9837	329.488	424.8294	442.8871	541.4514	589.7777	621.2478	663.0427	706.4094	762.0904	826.9039	910.7011	930.7922	951.07	1024.3056	1054.9125	1076.064	1102.2376	1144.8415	1185.7144	1215.9411	1257.739	1311.768	1369.2616	1386.5528	1407.8	1416.6124	1460.3202	1465.1743	1488.0357	1495.1488	1876.3874	2240.7483	2995.9337	3015.5683	3038.3707	3065.0399	3084.1669	3111.1447	3118.6192	3142.8186	3504.2283
CC1CC(=O)N1CC#C	C[C@H]1CC(=O)N1CC#C	
InChI=1S/C7H9NO/c1-3-4-8-6(2)5-7(8)9/h1,6H,4-5H2,2H3	InChI=1S/C7H9NO/c1-3-4-8-6(2)5-7(8)9/h1,6H,4-5H2,2H3/t6-/m0/s1
