12
gdb 20706	3.4134	2.42293	1.42942	3.0022	59.11	-0.2666	-0.1023	0.1643	795.9364	0.08337	-414.661019	-414.654299	-414.653355	-414.692148	24.062	
C	 0.0776333909	 1.4681096223	 0.0146204748	-0.470171
C	-0.0016215683	-0.0203737629	-0.0270948922	 0.211352
N	-0.1073740964	-0.6596862465	-1.1430132878	-0.281044
C	-0.1723551953	-2.036782451	-1.0577448143	 0.097086
N	-0.1415535081	-2.7784503451	-0.0063661843	-0.054246
O	-0.027642288	-2.101558707	 1.2053515389	-0.242002
C	 0.046915205	-0.731945381	 1.2771621461	 0.413625
O	 0.1451000055	-0.201047464	 2.3493181505	-0.310202
H	 1.003887658	 1.781024351	 0.5087081086	 0.164471
H	 0.0319624616	 1.8747480792	-0.9954648378	 0.150399
H	-0.7390199987	 1.8706453914	 0.6237141732	 0.164453
H	-0.2614138163	-2.5813116664	-1.9918762857	 0.156278
101.3041	143.8855	242.3729	292.1408	396.7739	502.9633	541.1203	555.5369	586.8404	711.8961	780.9422	902.9998	950.6228	957.2334	991.8418	1044.7537	1098.477	1193.8619	1312.4954	1356.3215	1407.8402	1455.3056	1461.6728	1587.1877	1671.4477	1836.2646	3045.3096	3099.3678	3162.8204	3203.4676
CC1=NC=NOC1=O	Cc1ncnoc1=O	
InChI=1S/C4H4N2O2/c1-3-4(7)8-6-2-5-3/h2H,1H3	InChI=1S/C4H4N2O2/c1-3-4(7)8-6-2-5-3/h2H,1H3
