16
gdb 99564	2.36117	1.21366	0.95481	4.1812	71.44	-0.2831	0.0063	0.2894	1252.4597	0.120766	-437.836603	-437.826571	-437.825627	-437.871948	34.928	
C	 0.2418495489	 1.3566719069	 0.2115978891	-0.249806
O	-0.052130787	-0.0128248806	-0.0193922968	-0.244995
C	 0.5555655201	-0.5628741918	-1.1611402331	-0.044174
C	 2.0266016901	-0.6328996191	-1.0139354575	 0.281213
N	 3.1765462858	-0.6540123298	-0.906763893	-0.318311
C	-0.0483243088	-1.9836376482	-1.3265788247	-0.090736
O	 0.1445239087	-2.7344472164	-0.1499226026	-0.405436
C	-1.4586182165	-1.8817754174	-1.7203427075	 0.320891
C	-2.6137690177	-1.8051803029	-2.0405069846	-0.430003
H	 1.3147222858	 1.514346639	 0.3799527919	 0.141725
H	-0.0849923918	 1.9782647881	-0.633445255	 0.12167
H	-0.3109728095	 1.6466258291	 1.1064828005	 0.144112
H	 0.3323294834	 0.0333004044	-2.0590205331	 0.12705
H	 0.5123997192	-2.5010227375	-2.1126648929	 0.14063
H	-0.241427777	-2.2203183831	 0.5710692791	 0.300499
H	-3.6360510637	-1.7475850508	-2.3240166298	 0.205671
64.476	84.2585	123.2253	159.0923	185.0551	192.6253	241.25	287.683	348.3323	399.2668	415.7206	491.2412	566.7172	599.2709	643.8792	679.8207	733.5894	879.3075	923.8646	1002.2975	1025.6392	1089.8248	1153.3307	1183.5443	1207.4234	1270.2047	1300.6415	1339.2108	1361.3466	1428.8485	1481.7267	1488.3239	1507.134	2238.686	2357.5409	2999.1875	3003.7506	3061.9854	3066.5265	3138.8165	3501.1291	3784.1912
COC(C#N)C(O)C#C	CO[C@@H](C#N)[C@@H](O)C#C	
InChI=1S/C6H7NO2/c1-3-5(8)6(4-7)9-2/h1,5-6,8H,2H3	InChI=1S/C6H7NO2/c1-3-5(8)6(4-7)9-2/h1,5-6,8H,2H3/t5-,6-/m0/s1
