15
gdb 132053	2.35465	1.84848	1.04214	3.6646	73.06	-0.2162	-0.0371	0.1791	1061.492	0.113903	-458.145711	-458.138006	-458.137062	-458.177982	28.973	
C	-0.0390677389	 1.5290683509	 0.0156915594	-0.485558
C	-0.0280045174	 0.0315178218	-0.0023703448	 0.078344
C	-0.1224335578	-0.7160395428	-1.1316268425	 0.261159
F	-0.232977615	-0.1178123977	-2.313911608	-0.063274
N	-0.1190955198	-2.0760664503	-1.2231400418	-0.324904
C	-0.0133270147	-2.6986799189	-0.0965146792	 0.103012
N	 0.0886697199	-2.0811365012	 1.1054862114	-0.357784
C	 0.0909954588	-0.6747810456	 1.2644762521	 0.315301
N	 0.1861774672	-0.0670356036	 2.3886369336	-0.54432
H	 0.8775180506	 1.9115139892	 0.4767494551	 0.144759
H	-0.1323892311	 1.9328532218	-0.9926231409	 0.129378
H	-0.8659118157	 1.8967667222	 0.6322079406	 0.144756
H	-0.0023569237	-3.7850983245	-0.0765584441	 0.141965
H	 0.1678996866	-2.6443956996	 1.9400183628	 0.259816
H	 0.261680141	-0.7142177917	 3.1736259963	 0.197351
125.0053	134.5898	185.3105	272.0846	287.1397	367.1881	494.0057	512.5293	534.018	554.9793	621.6989	695.1446	696.6114	767.6056	794.3719	880.4051	935.6866	947.8066	1059.2511	1063.2553	1132.8429	1193.2438	1221.0378	1287.3555	1385.2453	1413.09	1440.1225	1471.4768	1476.0952	1481.8111	1631.2192	1672.4481	1721.6278	3043.5006	3092.6608	3150.9445	3173.3718	3471.5682	3609.131
CC1=C(F)N=CNC1=N	CC1=C(NC=N[C@H]1F)[NH]	
InChI=1S/C5H6FN3/c1-3-4(6)8-2-9-5(3)7/h2H,1H3,(H2,7,8,9)	InChI=1S/C5H7FN3/c1-3-4(6)8-2-9-5(3)7/h2,4,7H,1H3,(H,8,9)/t4-/m1/s1
