25
gdb 39492	2.03193	1.66261	1.16636	0.1576	90.94	-0.2564	0.0737	0.3301	1206.8837	0.233143	-352.348449	-352.339899	-352.338955	-352.381077	35.031	
C	 0.0136635748	 1.3916513724	-0.5185042109	-0.308458
C	 1.291782117	 0.7263700541	-0.0534355589	 0.002653
C	 2.1280182416	 1.1849904112	 1.1493222683	-0.22963
C	 2.0124786688	 0.3377487102	 2.436970021	-0.185211
C	 0.9725833679	 0.8349017087	 3.4681082133	-0.183295
C	-0.3272548181	 1.4365272665	 2.9142197073	-0.187545
C	-1.3201085677	 0.4814236343	 2.2309188415	-0.188894
C	-0.7943199649	-0.5257650174	 1.1932313281	-0.219599
C	-0.0231598246	-0.0354801435	-0.0284463895	 0.003538
H	-0.411567491	 2.1551138938	 0.1235848342	 0.112093
H	-0.1229373102	 1.5923003628	-1.5762809133	 0.10149
H	 1.9245251553	 0.3996873822	-0.8746703191	 0.079487
H	 3.1736693064	 1.1607801804	 0.824762654	 0.093374
H	 1.9300437184	 2.2383789436	 1.3804778257	 0.098919
H	 1.817140172	-0.7015911238	 2.1571915641	 0.100789
H	 2.986930123	 0.3259415642	 2.9390325149	 0.086435
H	 0.7375437906	 0.0192833541	 4.1647372097	 0.08879
H	 1.4491197673	 1.6151756552	 4.0755057335	 0.092393
H	-0.8582818222	 1.9166688881	 3.7459987718	 0.089504
H	-0.0714969515	 2.2565300964	 2.2350601729	 0.097721
H	-1.8240723973	-0.1080634132	 3.0082897208	 0.090553
H	-2.10663014	 1.0891440291	 1.7651216937	 0.094253
H	-0.2008218849	-1.2951769771	 1.7020402048	 0.099403
H	-1.6762147087	-1.0577485676	 0.8126727472	 0.092883
H	-0.0773514521	-0.7715937147	-0.8279720351	 0.078352
108.5822	170.6086	229.8058	244.4831	268.143	284.5473	343.9026	388.7447	481.0996	537.0015	607.3169	690.8403	707.273	768.1237	785.3225	822.5493	844.1094	856.4518	904.3025	920.0185	981.3281	995.2931	1023.2617	1032.6539	1060.5139	1062.3805	1119.0524	1125.2003	1148.1818	1154.2056	1159.2047	1198.5001	1210.3496	1250.3598	1273.3454	1291.1919	1307.366	1320.5182	1360.9043	1371.4778	1382.8392	1385.0934	1398.2681	1401.7209	1412.6362	1427.6166	1478.4656	1485.3563	1487.3712	1491.8937	1494.8189	1511.9933	1513.7018	3006.2691	3009.4139	3018.884	3027.3288	3028.6905	3034.5647	3038.5041	3041.7447	3053.065	3060.6929	3071.6576	3084.6826	3112.1547	3126.9799	3132.5972	3210.6234
C1C2CCCCCCC12	C1[C@H]2CCCCCC[C@@H]12	
InChI=1S/C9H16/c1-2-4-6-9-7-8(9)5-3-1/h8-9H,1-7H2	InChI=1S/C9H16/c1-2-4-6-9-7-8(9)5-3-1/h8-9H,1-7H2/t8-,9+
