16
gdb 66774	2.47707	2.29337	1.81395	1.955	65.98	-0.2305	0.0618	0.2923	819.7061	0.126078	-437.813874	-437.807489	-437.806545	-437.844259	26.41	
O	 0.2372720566	 1.4341531271	 0.1528424325	-0.477582
C	 0.0844793906	 0.0705391617	 0.0568877593	 0.35047
C	-1.2009372068	-0.8463425736	 0.1206493649	-0.164026
C	-0.4470254051	-1.8218625458	-0.7021010752	-0.080748
C	 0.6148320896	-0.7993129381	-1.1249789194	 0.036264
O	 1.9555303089	-1.15697622	-0.8772432838	-0.279285
C	 2.0800455709	-1.2862795461	 0.5539941689	-0.091695
C	 0.7229359662	-0.8563204059	 1.0999389539	-0.042122
N	-0.3633415498	-1.8720656709	 0.8026474535	-0.148735
H	 0.0131202344	 1.8401779218	-0.6915613914	 0.288759
H	-2.2543811739	-0.6977101148	 0.3103702265	 0.106894
H	-0.7791283319	-2.7187035389	-1.2084776592	 0.102485
H	 0.5140745394	-0.3987944664	-2.1355483258	 0.082385
H	 2.3028107304	-2.3266897591	 0.8215084357	 0.113851
H	 2.900016705	-0.645858676	 0.8997859455	 0.111633
H	 0.6900801055	-0.551862625	 2.1455059042	 0.091451
221.6134	236.722	286.9757	336.3461	422.9188	515.4738	631.172	681.2718	701.7044	771.6016	783.7587	823.4222	872.0465	903.2408	913.9476	957.3453	986.5566	995.0192	1009.4681	1012.8561	1057.6878	1072.1659	1096.1507	1149.5795	1166.565	1179.2474	1213.0213	1245.8951	1287.165	1302.5753	1317.4802	1336.2234	1375.7346	1426.4026	1508.1364	3022.3184	3064.0144	3106.0952	3128.1413	3198.7124	3222.2855	3802.7493
OC12C3C4C1OCC2N34	O[C@@]12[C@H]3[C@H]4[C@@H]1OC[C@@H]2N34	
InChI=1S/C6H7NO2/c8-6-2-1-9-5(6)3-4(6)7(2)3/h2-5,8H,1H2	InChI=1S/C6H7NO2/c8-6-2-1-9-5(6)3-4(6)7(2)3/h2-5,8H,1H2/t2-,3-,4+,5-,6-,7?/m0/s1
