15
gdb 27115	3.22047	1.18323	0.90667	3.2791	69.71	-0.1914	-0.0024	0.1891	1219.0384	0.112794	-453.986085	-453.977456	-453.976512	-454.019979	30.989	
N	-0.4099277441	 1.2761639926	 0.336605653	-0.61918
C	-0.1342979363	-0.0801520181	 0.0840500634	 0.183528
C	-1.0398214347	-1.0393370915	-0.3045191027	 0.269814
N	-0.4027539941	-2.2596391537	-0.3776040555	-0.29637
C	 0.913418369	-2.0876405382	-0.0455492512	-0.07901
C	 1.1103697589	-0.7587387753	 0.2543442806	-0.218364
O	-2.3654143715	-0.9205492825	-0.6532000525	-0.227196
C	-3.2638856782	-0.8513772017	 0.3798471342	 0.153061
O	-4.4306645674	-0.7206595866	 0.1899734669	-0.255668
H	 0.4069593645	 1.8578720794	 0.2004965046	 0.245837
H	-1.1578460655	 1.6282331783	-0.249656658	 0.247819
H	-0.8324523464	-3.1049248608	-0.7095747417	 0.270519
H	 1.6005375574	-2.9174757217	-0.0468356941	 0.125188
H	 2.0403427164	-0.3103708233	 0.5691841923	 0.094956
H	-2.762023898	-0.9255218368	 1.3610649606	 0.105066
52.0188	119.4249	148.3639	180.0729	262.2461	272.8418	373.4765	404.6225	434.3434	520.242	625.7511	657.5822	688.6478	706.1573	789.7515	810.8924	848.8371	913.9132	1048.0714	1055.2982	1091.6098	1104.376	1127.3619	1252.8643	1267.9256	1345.4575	1395.4949	1448.2419	1493.184	1524.9242	1651.5956	1674.3703	1878.7881	2989.2351	3245.7712	3275.6537	3525.8598	3615.6357	3689.984
NC1=C(NC=C1)OC=O	Nc1c([nH]cc1)OC=O	
InChI=1S/C5H6N2O2/c6-4-1-2-7-5(4)9-3-8/h1-3,7H,6H2	InChI=1S/C5H6N2O2/c6-4-1-2-7-5(4)9-3-8/h1-3,7H,6H2
