19
gdb 95840	2.59185	1.32837	1.10749	1.7458	76.57	-0.2564	0.0326	0.289	1176.0501	0.158878	-422.997334	-422.988673	-422.987729	-423.030412	33.266	
C	 0.0517320184	 1.5724188427	 0.0798882344	-0.403256
C	 0.05033489	 0.0541668022	 0.0311733131	 0.127987
C	 0.6789685271	-0.5148086158	-1.2463424657	-0.215511
C	 0.8145961566	-2.0482773696	-1.1334367296	-0.086212
O	 1.4670152272	-2.3839473102	 0.0927283141	-0.237838
C	 0.8275104052	-1.8123373464	 1.2119375274	 0.010956
O	 0.7922821166	-0.4137711238	 1.1612182423	-0.251205
C	-0.477078631	-2.7357190721	-1.2776535061	 0.35202
C	-1.5318860974	-3.2976568039	-1.4081513883	-0.492134
H	 1.0739504998	 1.9566599749	 0.0096529827	 0.126221
H	-0.5334939574	 1.9831967573	-0.7484057239	 0.116007
H	-0.3818787117	 1.9219207194	 1.0207088698	 0.126322
H	-0.984660165	-0.3188084737	 0.1122265231	 0.079008
H	 0.0837326169	-0.2515781942	-2.12595722	 0.109603
H	 1.6829660881	-0.0940211324	-1.3653296606	 0.11068
H	 1.4866912188	-2.4138346527	-1.9167306031	 0.117013
H	-0.1959922252	-2.2161153266	 1.3022132388	 0.089276
H	 1.4251582781	-2.0913724819	 2.0816086046	 0.118022
H	-2.4585771353	-3.8034473132	-1.5258644528	 0.203042
97.5992	128.2488	198.6167	220.256	268.0338	300.3502	348.9632	402.9627	430.6293	490.3545	577.1063	619.5579	633.3269	675.2788	734.523	798.9344	857.9988	891.1616	930.9803	969.3576	1008.4193	1053.6767	1078.4947	1121.0286	1140.3847	1154.9375	1211.7466	1249.885	1283.3562	1309.2816	1338.4993	1369.029	1382.2268	1399.048	1412.7621	1444.5277	1463.6218	1483.1365	1499.4111	1507.5757	2228.7203	2955.6724	2966.4056	3041.4219	3046.2586	3058.2745	3101.1737	3116.7372	3117.238	3121.698	3500.5845
CC1CC(OCO1)C#C	C[C@H]1C[C@@H](OCO1)C#C	
InChI=1S/C7H10O2/c1-3-7-4-6(2)8-5-9-7/h1,6-7H,4-5H2,2H3	InChI=1S/C7H10O2/c1-3-7-4-6(2)8-5-9-7/h1,6-7H,4-5H2,2H3/t6-,7-/m0/s1
