13
gdb 124372	5.2508	0.99847	0.84336	4.8063	62.46	-0.2799	-0.0724	0.2074	1267.0468	0.087886	-486.037003	-486.028907	-486.027963	-486.071154	27.66	
C	-0.1632327173	 1.5337191575	 0.0124039015	-0.50616
C	 0.1603554016	 0.0521822698	 0.001069158	 0.406682
O	 1.2731928818	-0.4079232268	-0.0107580431	-0.293563
N	-0.9799708514	-0.7581785968	 0.0079024496	-0.426865
C	-1.0022536339	-2.1294510789	 0.0010851622	 0.55423
N	 0.0006794283	-2.9659737293	-0.0116110803	-0.164411
O	-0.6230458518	-4.1872459521	-0.0127326446	-0.134128
N	-1.9828143133	-4.0149806894	-0.0011680711	 0.055949
N	-2.2262377705	-2.7790146564	 0.0083648711	-0.236649
H	 0.7719270713	 2.0915360816	 0.0080055189	 0.166553
H	-0.7549483014	 1.8109697099	-0.866338935	 0.15023
H	-0.740604399	 1.800774744	 0.9037548851	 0.150225
H	-1.8928709343	-0.3287835031	 0.0182150277	 0.277906
55.5679	65.9657	96.7644	145.7579	344.0287	357.5637	358.4091	523.104	593.2103	606.4763	657.1114	775.0409	781.4067	816.5948	924.692	956.214	998.0776	1053.1819	1066.3179	1112.7645	1219.2231	1281.5722	1390.8138	1451.5427	1473.3405	1482.1145	1564.7816	1637.5869	1834.9325	3044.8191	3107.7656	3171.4849	3629.4119
CC(=O)NC1=NON=N1	CC(=O)Nc1nonn1	
InChI=1S/C3H4N4O2/c1-2(8)4-3-5-7-9-6-3/h1H3,(H,4,6,8)	InChI=1S/C3H4N4O2/c1-2(8)4-3-5-7-9-6-3/h1H3,(H,4,6,8)
