23
gdb 95343	2.87244	1.30271	1.0303	1.905	84.39	-0.2369	0.0731	0.31	1252.3449	0.208375	-388.295379	-388.286984	-388.28604	-388.32828	33.293	
C	-0.0715697746	 1.5600519422	 0.0229309918	-0.401464
C	-0.0064580317	 0.0305844202	-0.0188700868	 0.038837
C	 0.7770516741	-0.4779319326	-1.2402506123	-0.187883
C	 0.6824120653	-2.0046540851	-1.3739386224	-0.25146
C	 1.0156111478	-2.7500560744	-0.0830097168	-0.015167
C	 2.4614008739	-2.8563829971	 0.4442146017	-0.096618
O	 2.0378977855	-2.5030310025	 1.7772616384	-0.290991
C	 0.7427946714	-2.0645853997	 1.2837149817	 0.094923
C	 0.6316937493	-0.5305816284	 1.2641117119	-0.208457
H	 0.9341780692	 1.992227353	 0.0868691151	 0.113356
H	-0.5501854054	 1.9627552076	-0.8760839917	 0.108795
H	-0.6382114111	 1.9111973819	 0.8918748875	 0.110691
H	-1.0361962174	-0.3520793434	-0.0966251722	 0.066102
H	 0.3981317818	-0.0096047014	-2.1561179083	 0.089741
H	 1.8258504108	-0.1632424561	-1.1433441346	 0.093509
H	-0.3439540694	-2.2599055388	-1.6687271836	 0.097587
H	 1.3266125148	-2.362669057	-2.1868846649	 0.095107
H	 0.5611504252	-3.7442226134	-0.1010315027	 0.079463
H	 2.9366498681	-3.8429199941	 0.4085825685	 0.101023
H	 3.1570047912	-2.1143483675	 0.0243318347	 0.091119
H	-0.0657422486	-2.5082037019	 1.8755772932	 0.073334
H	 1.6482985177	-0.1271195299	 1.3518166318	 0.106182
H	 0.0842159621	-0.1831398815	 2.1475122	 0.09227
96.3503	111.3842	214.4862	238.2585	291.5989	320.1903	395.9699	428.0452	449.8301	466.1201	628.693	692.9128	771.7396	823.8482	864.1264	893.3332	930.153	932.8436	945.1909	990.6386	1000.7035	1013.6753	1030.5795	1079.7494	1101.3137	1133.341	1146.9473	1157.133	1162.0893	1179.3786	1238.9917	1261.3359	1280.543	1300.0625	1319.9864	1333.9617	1344.5992	1360.8895	1371.1227	1385.2723	1396.6968	1401.8795	1412.2297	1481.9434	1486.5984	1497.2778	1500.1641	1502.0099	1527.9973	2980.7096	2990.0047	3010.1408	3014.1036	3023.2871	3027.6597	3032.2699	3048.8127	3052.3761	3059.4016	3069.5275	3075.8476	3091.1162	3096.8066
CC1CCC2COC2C1	C[C@H]1CC[C@H]2CO[C@H]2C1	
InChI=1S/C8H14O/c1-6-2-3-7-5-9-8(7)4-6/h6-8H,2-5H2,1H3	InChI=1S/C8H14O/c1-6-2-3-7-5-9-8(7)4-6/h6-8H,2-5H2,1H3/t6-,7-,8-/m0/s1
