14
gdb 123602	4.18569	1.69211	1.45557	5.0396	66.47	-0.2743	-0.0356	0.2388	862.1416	0.103885	-432.746239	-432.740579	-432.739635	-432.776146	23.403	
C	-0.0258508342	 1.5062453491	-0.0795776998	-0.185827
C	 1.5395002154	 1.3683169643	-0.0139159729	-0.182747
C	 1.1677016218	 0.1552227987	 0.9155072045	-0.185827
N	-0.081520445	-0.035049713	 0.0250682423	-0.216883
C	 0.6242141005	-0.3160935508	-1.2030070538	 0.417478
N	 0.5864175237	-1.100189896	-2.2222817875	-0.248722
O	 1.6856956967	-0.6898734991	-2.9836525164	-0.179822
N	 2.3848647749	 0.3768588186	-2.3739839951	-0.245692
C	 1.7219956826	 0.5885685743	-1.2914652815	 0.372327
H	-0.4623299984	 1.9444540209	 0.819746734	 0.133192
H	-0.4828185354	 1.9179166348	-0.9807937367	 0.139958
H	 2.2135940507	 2.1721640258	 0.2689241438	 0.109416
H	 1.8358086403	-0.7066144697	 0.9522843115	 0.139957
H	 0.8540044963	 0.4544513124	 1.9171966775	 0.133192
187.0293	308.2255	460.6711	500.8337	572.0917	598.9626	678.4494	712.0968	735.067	775.1434	822.7477	826.5544	845.8879	848.0907	911.6848	983.0443	1022.8447	1047.2966	1059.616	1092.5279	1127.4845	1167.1746	1210.981	1235.0173	1246.9546	1301.0103	1358.7928	1494.2368	1526.5675	1621.7881	1697.6246	3076.1561	3081.3537	3149.5481	3152.3138	3164.539
C1C2CN1C1=NON=C21	C1[C@H]2CN1c1nonc21	
InChI=1S/C5H5N3O/c1-3-2-8(1)5-4(3)6-9-7-5/h3H,1-2H2	InChI=1S/C5H5N3O/c1-3-2-8(1)5-4(3)6-9-7-5/h3H,1-2H2
