18
gdb 75322	2.399	1.7072	1.19456	2.817	78.76	-0.2268	-0.0272	0.1997	1071.5749	0.147047	-401.945717	-401.937434	-401.93649	-401.978467	31.375	
C	 0.1904534081	 1.5027378378	 0.1756737849	-0.502665
C	 0.0650080196	 0.0163630092	 0.0736142257	 0.255697
C	-0.072292152	-0.7329253974	-1.0236594317	-0.192926
C	-0.1740365933	-2.2023279351	-0.6908351617	-0.214468
N	-0.0045876932	-2.3020976101	 0.7802742701	-0.139823
C	 1.2779437861	-1.8506976781	 1.2809626076	-0.268346
C	 0.1129437668	-0.8913754648	 1.2682625802	 0.149633
C	-0.5744018859	-0.5937997351	 2.5521468613	 0.097649
O	-1.0361933336	 0.4766622426	 2.8639711419	-0.267794
H	 1.1515151807	 1.7863528805	 0.6228834129	 0.127029
H	 0.1190207719	 1.9720551992	-0.8088386239	 0.119639
H	-0.5854866344	 1.9113853806	 0.8285977679	 0.162376
H	-0.0929610444	-0.3565408157	-2.0400307661	 0.099723
H	-1.1521252015	-2.6229025735	-0.9588387342	 0.121799
H	 0.5846427007	-2.8149343788	-1.1940368041	 0.118095
H	 1.5917239672	-2.3197448456	 2.2107569601	 0.12371
H	 2.0785583053	-1.6182264841	 0.5816769153	 0.124382
H	-0.6271459281	-1.4730489014	 3.2315812138	 0.086292
85.5875	162.5065	200.0065	208.9491	269.9698	287.7869	347.5598	430.6954	452.953	595.2256	608.0378	698.1724	748.5154	779.9001	814.1388	849.2563	945.1218	957.1867	994.3404	1029.3116	1043.6645	1054.1794	1074.6635	1116.919	1147.3055	1160.0999	1217.7809	1259.0067	1304.2142	1338.2459	1368.1297	1415.6891	1425.8655	1473.6335	1484.5389	1492.8303	1499.3783	1709.8696	1813.9778	2893.1269	3015.7724	3029.4696	3047.7258	3092.3463	3092.5608	3128.361	3182.8087	3198.6344
CC1=CCN2CC12C=O	CC1=CCN2C[C@@]12C=O	
InChI=1S/C7H9NO/c1-6-2-3-8-4-7(6,8)5-9/h2,5H,3-4H2,1H3	InChI=1S/C7H9NO/c1-6-2-3-8-4-7(6,8)5-9/h2,5H,3-4H2,1H3/t7-,8?/m1/s1
