19
gdb 8220	4.68319	1.11711	1.07951	2.9414	72.7	-0.2233	-0.0098	0.2135	1172.3197	0.164135	-365.05484	-365.046094	-365.045149	-365.089175	30.92	
C	 0.2895125284	 0.3777263551	 0.9023789248	-0.462449
C	-0.1633545718	 0.3922601826	-0.5439632627	 0.37244
O	 0.3084689497	 1.1430689538	-1.3655937607	-0.294267
C	-1.2944941049	-0.568145394	-0.9276273274	-0.253237
N	-1.2510469897	-1.8312922326	-0.2287207903	-0.073033
C	-0.3096591154	-2.8762599095	-0.6909534548	-0.161549
C	-1.383504524	-3.9405132759	-0.3641548758	-0.224866
C	-2.3890515612	-2.7641119907	-0.3749263988	-0.155431
H	 0.9796051639	 1.2042446795	 1.0762595416	 0.133781
H	-0.5693986938	 0.4444406171	 1.5778962507	 0.136661
H	 0.7828034058	-0.5724083506	 1.1310356287	 0.147799
H	-2.2309238212	-0.0603903604	-0.6520006965	 0.123446
H	-1.2911306094	-0.6654534923	-2.0279027609	 0.099706
H	-0.1000864822	-2.8141211436	-1.7715307125	 0.093391
H	 0.642844305	-2.916394609	-0.1517693158	 0.10228
H	-1.5369832837	-4.734528491	-1.0947194372	 0.108365
H	-1.2560993625	-4.3760535943	 0.6282293342	 0.115306
H	-3.1358745533	-2.7063906825	 0.4239635327	 0.103068
H	-2.9004902098	-2.6703115518	-1.3466586493	 0.08859
47.865	75.5744	117.0219	123.9451	190.299	317.7396	347.8298	416.1666	480.5592	540.0658	691.1958	766.1162	801.3988	846.6193	873.2493	928.0926	941.7408	992.8487	1005.3266	1036.8355	1115.5841	1132.4438	1143.5403	1207.1843	1215.0908	1228.4696	1235.2149	1264.7918	1272.8014	1299.8876	1341.7673	1369.9189	1382.7484	1451.7947	1459.919	1471.4707	1487.6688	1505.1991	1532.3131	1816.1552	2949.5457	2966.6539	2975.7522	3022.4685	3046.6176	3055.6283	3059.564	3088.9091	3108.0727	3145.1798	3154.1615
CC(=O)CN1CCC1	CC(=O)CN1CCC1	
InChI=1S/C6H11NO/c1-6(8)5-7-3-2-4-7/h2-5H2,1H3	InChI=1S/C6H11NO/c1-6(8)5-7-3-2-4-7/h2-5H2,1H3
