17
gdb 93648	1.93736	1.7673	1.45623	4.3982	66.7	-0.2505	0.0093	0.2599	998.2199	0.137457	-455.145877	-455.137483	-455.136539	-455.178996	31.681	
O	-0.5674072197	 1.2913663096	 0.8788269473	-0.443316
C	-0.135757561	 0.1273690879	 0.1822097258	 0.074115
C	 0.7920463855	-0.8014821291	 1.0055948619	-0.212669
N	 0.0446101209	-2.044586568	 1.3107478102	-0.281406
C	-1.3686362531	-1.7644887426	 1.0459761724	-0.222068
C	-1.9874475784	-1.1299266837	 2.2243882524	 0.310838
N	-2.4267005368	-0.5696480862	 3.1356171104	-0.331609
C	-1.3570589762	-0.7662044239	-0.1609796651	 0.128143
O	-2.5302132458	-0.0490740737	-0.3811678469	-0.426427
H	-0.799792987	 1.0517908341	 1.7858169133	 0.301543
H	 0.3465636723	 0.504042057	-0.721993984	 0.103327
H	 1.715834781	-1.0418194912	 0.4742013471	 0.120633
H	 1.0783794423	-0.2916115367	 1.9333655241	 0.128427
H	 0.3462098536	-2.7985063573	 0.7060609713	 0.235578
H	-1.9154155841	-2.6825559173	 0.8196006041	 0.12905
H	-1.1394874992	-1.3675193296	-1.0525144466	 0.090482
H	-2.4062485245	 0.801668181	 0.0678358024	 0.295361
79.0369	108.1424	146.7739	251.429	293.231	354.7979	386.3977	419.9417	497.8309	545.5689	593.9297	603.4478	675.376	716.8057	760.0104	829.8933	890.9275	893.7116	990.4511	1012.1873	1047.9616	1091.8229	1112.0698	1151.0178	1181.0207	1231.2199	1262.6127	1273.5351	1302.4975	1333.8409	1357.3169	1364.8931	1428.828	1444.6591	1462.7715	1501.2675	2347.9808	3033.5463	3036.375	3090.2966	3096.8306	3106.1592	3556.1778	3705.1842	3766.6842
OC1CNC(C#N)C1O	O[C@H]1CN[C@@H](C#N)[C@H]1O	
InChI=1S/C5H8N2O2/c6-1-3-5(9)4(8)2-7-3/h3-5,7-9H,2H2	InChI=1S/C5H8N2O2/c6-1-3-5(9)4(8)2-7-3/h3-5,7-9H,2H2/t3-,4-,5+/m0/s1
