16
gdb 91288	3.01164	1.55443	1.33464	6.0277	64.35	-0.2507	0.0515	0.3022	975.9208	0.125476	-475.052965	-475.045303	-475.044359	-475.085435	28.956	
O	 0.2483358429	 1.2706778816	-0.328862585	-0.410867
C	 0.1171689991	-0.1008354857	-0.0592978204	 0.079426
C	 0.283854689	-0.5091071334	 1.4407988514	-0.278487
C	-1.2613722216	-0.6104212559	 1.5804610549	-0.025166
N	-1.9399527024	 0.6003237731	 1.9608579298	-0.364807
C	-2.6021586813	 1.2236253877	 0.9278672633	 0.485712
O	-3.314387278	 2.1842841922	 0.9783454763	-0.389031
O	-2.3298023659	 0.5371930673	-0.2342119933	-0.228069
C	-1.3978742162	-0.4876090145	 0.0343427578	 0.106283
H	 1.164196188	 1.5216446547	-0.1712615608	 0.289882
H	 0.6917057548	-0.7113651347	-0.769064919	 0.074107
H	 0.7817140303	-1.4741303282	 1.5702007276	 0.107274
H	 0.7653691379	 0.2381420602	 2.0754429008	 0.106366
H	-1.6568214238	-1.4983862006	 2.0835765397	 0.086611
H	-2.1300077427	 0.8823428694	 2.9064245747	 0.261748
H	-1.6717870202	-1.3840338931	-0.5221176877	 0.099018
81.723	95.9237	243.6151	263.8019	335.3286	378.2508	399.2608	500.0511	566.0873	660.2821	724.1606	761.6652	766.5096	846.974	871.883	919.1803	924.569	941.4273	1036.3304	1057.0938	1119.4851	1124.6603	1156.0432	1190.5968	1216.6995	1236.2159	1266.7073	1274.6962	1322.583	1354.4305	1393.3371	1414.3699	1420.7998	1459.9673	1901.2136	3003.3988	3047.7726	3062.9468	3113.4295	3123.1097	3682.2638	3818.7736
OC1CC2NC(=O)OC12	O[C@H]1C[C@H]2NC(=O)O[C@@H]12	
InChI=1S/C5H7NO3/c7-3-1-2-4(3)9-5(8)6-2/h2-4,7H,1H2,(H,6,8)	InChI=1S/C5H7NO3/c7-3-1-2-4(3)9-5(8)6-2/h2-4,7H,1H2,(H,6,8)/t2-,3+,4-/m1/s1
