15
gdb 52298	3.46807	1.02528	0.83068	5.837	62.43	-0.2845	-0.0096	0.2749	1299.8398	0.111613	-494.936755	-494.928298	-494.927354	-494.97138	28.816	
O	 0.470031447	 0.1054522559	 0.4729480435	-0.263278
C	 0.5273241371	 1.2905238123	 0.5714273985	 0.186048
O	 0.7388033468	 2.0922909686	-0.5028414273	-0.181406
C	 0.8134986506	 3.4983000365	-0.2853731777	-0.116124
C	 2.268575259	 3.9472454142	-0.1895182136	-0.193912
C	 2.5548822366	 5.430881223	 0.1102217513	-0.105517
O	 3.202446835	 5.0612199011	 1.3705912201	-0.232684
C	 2.9489468227	 3.7283425146	 1.1685558194	 0.457308
O	 3.1867328762	 2.819379054	 1.8955841162	-0.313822
H	 0.4057184862	 1.8565050615	 1.5129293743	 0.092427
H	 0.3272442946	 3.9689500459	-1.1444519092	 0.137836
H	 0.2564623479	 3.7816274984	 0.6174249891	 0.124128
H	 2.8391784217	 3.5314461558	-1.0227831246	 0.138898
H	 3.2560960506	 5.9349697817	-0.5562631082	 0.138747
H	 1.6830269483	 6.0622893467	 0.2988682583	 0.131352
54.1036	64.0437	122.833	167.9443	176.6869	306.953	356.7425	384.9067	499.7691	663.8562	709.4556	769.178	816.6199	894.7844	955.4583	1023.6247	1033.8486	1043.691	1082.9719	1113.6752	1132.8669	1151.575	1170.9704	1229.4186	1288.5062	1331.4036	1367.2511	1403.3368	1434.2952	1502.6664	1518.1019	1877.8501	1935.626	2976.7258	3025.3125	3072.5452	3090.8723	3104.7072	3137.1217
O=COCC1COC1=O	O=COC[C@H]1COC1=O	
InChI=1S/C5H6O4/c6-3-8-1-4-2-9-5(4)7/h3-4H,1-2H2	InChI=1S/C5H6O4/c6-3-8-1-4-2-9-5(4)7/h3-4H,1-2H2/t4-/m0/s1
