19
gdb 66923	2.1911	1.94487	1.52602	0.8616	73.52	-0.2175	0.0655	0.283	975.1399	0.157192	-422.956038	-422.947584	-422.94664	-422.98823	33.59	
C	 0.030143656	 1.5613052598	-0.0694716248	-0.469343
C	 0.0138597918	 0.0372872757	-0.0049193136	 0.244409
C	-1.3735377669	-0.5378754622	-0.2867257838	-0.444663
C	 1.1266532185	-0.7238342413	-0.8026868878	 0.028339
O	 2.3767891838	-0.0876848478	-0.4014521926	-0.290119
C	 2.1791068785	-0.7168830335	 0.8649232342	-0.012563
C	 1.242212766	-1.7701682928	 0.3675028441	-0.198348
C	 0.6739000699	-0.6439110044	 1.2092941874	 0.313591
O	 0.1751786918	-0.7683730972	 2.4881253824	-0.461402
H	 1.0465265888	 1.9438857862	 0.0432718405	 0.131656
H	-0.3684502443	 1.9206933606	-1.0251127317	 0.111569
H	-0.5966248624	 1.987368445	 0.722998705	 0.106674
H	-1.7482870798	-0.1921660046	-1.2566119775	 0.10992
H	-1.3645202415	-1.6324090971	-0.293590962	 0.117745
H	-2.0866105971	-0.2188546551	 0.4805143498	 0.121977
H	 1.0504812169	-0.9129644315	-1.8721020835	 0.082265
H	 2.982211666	-0.7374316344	 1.5905484635	 0.110486
H	 1.2146243797	-2.8479552262	 0.4369821228	 0.106303
H	 0.4066830944	 0.023812421	 2.9857317375	 0.291504
180.2088	189.39	204.2216	229.3522	257.871	288.5795	339.8675	353.9494	421.939	540.7677	588.7476	621.6748	652.127	780.0669	797.7889	837.3745	842.9029	915.0081	926.885	950.6789	954.2806	977.4114	1010.1981	1023.1177	1050.1027	1119.9985	1137.2616	1177.542	1198.2236	1221.0573	1240.4962	1281.1766	1303.735	1330.8059	1395.2407	1416.7882	1437.1755	1484.8657	1485.279	1504.2046	1509.5216	3025.5934	3030.9593	3082.5813	3094.9527	3103.5647	3129.9638	3135.9939	3201.4828	3221.6348	3794.5784
CC1(C)C2OC3C2C13O	CC1(C)[C@H]2O[C@@H]3[C@H]2[C@]13O	
InChI=1S/C7H10O2/c1-6(2)4-3-5(9-4)7(3,6)8/h3-5,8H,1-2H3	InChI=1S/C7H10O2/c1-6(2)4-3-5(9-4)7(3,6)8/h3-5,8H,1-2H3/t3-,4-,5+,7+/m0/s1
