20
gdb 73157	2.58405	1.58381	1.36376	0.8156	78.36	-0.2396	0.0638	0.3034	1046.1761	0.171666	-403.094557	-403.086427	-403.085482	-403.127072	32.527	
O	 0.2494326181	 1.5034233905	 0.0211274303	-0.475149
C	 0.0901235306	 0.1154339653	 0.0862446533	 0.345725
C	-1.3734301885	-0.348486946	-0.0256580106	-0.266949
C	-1.1480578614	-1.3376715413	 1.159786601	-0.218363
C	 0.3017694135	-0.8110069427	 1.3546193038	-0.105967
C	 1.3897596031	-1.6112590783	 0.5851649205	-0.310993
C	 1.126894807	-0.7494038597	-0.6581437645	 0.284498
C	 1.1744661092	-1.0605230105	-2.1008564561	-0.311689
N	 2.1955164529	-0.1849568202	-1.4835662994	-0.371534
H	 1.1509303613	 1.7178237528	 0.2878038754	 0.282298
H	-2.0558179951	 0.4652627118	 0.2306580742	 0.111818
H	-1.6754119079	-0.7744435225	-0.9858786843	 0.097544
H	-1.8078182632	-1.1584072653	 2.0110072577	 0.105196
H	-1.2080783858	-2.3977689185	 0.899568142	 0.099831
H	 0.5624344889	-0.4247951502	 2.3403753788	 0.067189
H	 2.4018846891	-1.4674667482	 0.9738769967	 0.108878
H	 1.2030025063	-2.6840892658	 0.4814431109	 0.100068
H	 1.5476284977	-2.0239065426	-2.438843613	 0.117845
H	 0.42586412	-0.6095449964	-2.7484758216	 0.11366
H	 1.9612173541	 0.7856345877	-1.6934579251	 0.226096
63.9548	187.0765	232.9888	241.609	332.2554	356.1352	379.7075	446.1878	456.822	544.8181	644.8703	705.4769	761.645	805.9076	849.924	873.365	893.4124	922.5737	942.8079	969.4038	987.9039	1013.3436	1034.4695	1068.8889	1097.898	1108.8249	1111.9346	1139.3134	1184.4978	1216.5092	1230.4705	1241.9763	1258.4278	1273.7694	1282.2277	1295.4907	1328.9636	1362.4687	1407.6066	1472.7798	1477.8054	1495.0783	1511.0266	3049.6514	3057.9494	3064.0452	3097.8342	3099.6854	3102.3468	3110.696	3124.5418	3184.7128	3455.3616	3793.1724
OC12CCC1CC21CN1	O[C@]12CC[C@H]1C[C@]12CN1	
InChI=1S/C7H11NO/c9-7-2-1-5(7)3-6(7)4-8-6/h5,8-9H,1-4H2	InChI=1S/C7H11NO/c9-7-2-1-5(7)3-6(7)4-8-6/h5,8-9H,1-4H2/t5-,6+,7+/m0/s1
