23
gdb 112620	2.57665	1.07479	0.92505	2.4296	82.01	-0.2452	0.0718	0.317	1416.0561	0.204037	-425.424233	-425.413968	-425.413024	-425.459642	38.276	
C	 0.5915856616	 1.2977140048	-0.3690315355	-0.379367
C	 0.2424411886	-0.1602506983	-0.0577750258	-0.193009
C	 0.5588698459	-0.5383828016	 1.3794380392	 0.175626
C	 0.5285988382	-2.0309912806	 1.7693161145	-0.386873
C	 2.0263565623	-1.8487497994	 2.1073706917	 0.416001
C	 2.4152529187	-1.9626105991	 3.5723560475	-0.437734
C	 3.012035808	-2.573656095	 1.1880476574	-0.094117
O	 4.2707205331	-1.9310702324	 1.2088419442	-0.422248
O	 1.9770247623	-0.4459881041	 1.6883611039	-0.356648
H	 1.6510373417	 1.486386115	-0.173261717	 0.131721
H	 0.3888197101	 1.5398836824	-1.4162867307	 0.113021
H	 0.0087217774	 1.9858124641	 0.2532873272	 0.114489
H	-0.8267959919	-0.3426777285	-0.2311304987	 0.097013
H	 0.7906197921	-0.8301500095	-0.7318838087	 0.097697
H	-0.0101020502	 0.1072655133	 2.0635751372	 0.073396
H	-0.1109954534	-2.2861019921	 2.6155748231	 0.106968
H	 0.3225933617	-2.7156547985	 0.9424624281	 0.104745
H	 2.3193646688	-2.9996781044	 3.9129131477	 0.113589
H	 3.4547528148	-1.6517531237	 3.7059274699	 0.137049
H	 1.77391502	-1.3317137815	 4.1937331908	 0.114588
H	 3.1679176718	-3.6054504496	 1.5232365219	 0.104237
H	 2.5992597775	-2.6096790374	 0.1671680845	 0.078844
H	 4.082456961	-0.999060784	 1.0365948175	 0.291013
50.3567	99.4391	116.0938	160.8675	226.0149	234.1956	250.3955	308.7355	341.7006	370.6725	404.5112	480.5873	501.9208	525.7911	673.8466	774.3797	801.3763	881.9498	895.9624	903.8433	953.2713	959.9157	974.787	1001.7383	1027.1575	1068.8152	1091.9461	1106.2108	1140.6645	1198.1375	1204.9831	1233.0843	1275.7959	1280.7412	1295.5851	1310.2174	1347.921	1377.5552	1405.1335	1407.2529	1414.5032	1432.1759	1472.9858	1479.8119	1493.5198	1495.4534	1497.9751	1500.756	1508.3221	2973.1213	2997.3985	3017.2861	3036.8921	3037.1106	3056.8117	3065.6908	3067.4001	3104.0335	3108.2677	3117.6005	3124.7609	3127.9188	3768.7081
CCC1CC(C)(CO)O1	CC[C@H]1C[C@@](C)(CO)O1	
InChI=1S/C7H14O2/c1-3-6-4-7(2,5-8)9-6/h6,8H,3-5H2,1-2H3	InChI=1S/C7H14O2/c1-3-6-4-7(2,5-8)9-6/h6,8H,3-5H2,1-2H3/t6-,7-/m0/s1
