13
gdb 27668	3.13789	1.29585	0.91887	6.5084	69.01	-0.2082	0.0021	0.2103	1161.3946	0.09122	-448.979688	-448.971688	-448.970744	-449.012125	29.592	
N	 0.0374687886	 1.3697039245	 0.2364199475	-0.60192
C	-0.0351291359	-0.0089073172	 0.0813845897	 0.385593
N	-1.1080234201	-0.7429107823	 0.1300698031	-0.362828
C	-0.655844841	-2.0638854606	 0.0315897804	 0.055995
C	-1.4713221148	-3.2148699887	 0.0386373003	 0.178508
N	-2.0700764985	-4.209056319	 0.0339863967	-0.369512
C	 0.7134435702	-2.0773090615	-0.0931117353	 0.342735
O	 1.6314956333	-3.0437010429	-0.2315543273	-0.418622
N	 1.112605655	-0.7680088318	-0.0618496377	-0.343083
H	 0.5269486541	 1.8419275487	-0.5154333143	 0.253979
H	-0.8962076095	 1.7504659576	 0.3313621838	 0.269543
H	 1.1795287817	-3.8972641466	-0.2441586276	 0.328402
H	 2.067365587	-0.4498100202	-0.0321413394	 0.281209
125.7969	141.5634	222.1822	249.4899	303.5619	351.0974	375.0812	433.7938	475.605	533.8653	537.6789	623.186	670.6781	690.3236	716.2371	793.0733	829.1277	1016.3119	1130.4449	1155.5028	1210.4185	1280.2002	1326.1336	1465.9937	1528.9055	1617.0324	1640.5568	1671.9031	2326.2893	3523.1957	3621.4088	3660.9113	3793.4606
NC1=NC(C#N)=C(O)N1	Nc1nc(C#N)c(O)[nH]1	
InChI=1S/C4H4N4O/c5-1-2-3(9)8-4(6)7-2/h9H,(H3,6,7,8)	InChI=1S/C4H4N4O/c5-1-2-3(9)8-4(6)7-2/h9H,(H3,6,7,8)
