19
gdb 48022	5.12279	0.63772	0.60917	4.0798	88.98	-0.2605	-0.0561	0.2044	1832.0672	0.159435	-385.888762	-385.879293	-385.878349	-385.926682	32.363	
O	-0.9064676793	 0.7456952636	-0.0472753079	-0.232911
C	 0.0926257662	 0.8989911894	 0.6191486453	 0.016112
C	 1.1806879869	 1.7744699008	 0.2768569275	 0.063629
C	 2.1152701315	 2.4991316793	 0.0243969578	 0.062855
C	 3.2151220159	 3.3815774519	-0.3177847925	-0.160956
C	 3.8836330679	 3.0615125302	-1.6792218697	-0.201058
C	 4.6918485515	 4.3368250699	-2.0109382607	-0.213684
C	 4.017781018	 5.4947946976	-1.2158614028	-0.214405
C	 2.8076800405	 4.8660068121	-0.4934504313	-0.199826
H	 0.2359208663	 0.351406727	 1.5736255361	 0.094236
H	 3.9797379196	 3.3220067073	 0.4693130994	 0.106829
H	 4.4958014528	 2.1574507345	-1.6407104143	 0.109118
H	 3.0974073646	 2.8936325407	-2.4223085814	 0.118406
H	 5.7353049191	 4.2202634146	-1.7037011793	 0.105555
H	 4.702481215	 4.5263666181	-3.0872004929	 0.10752
H	 4.7184829948	 5.9115146509	-0.4858128652	 0.10522
H	 3.7109527056	 6.320739276	-1.8623578102	 0.106567
H	 1.9112318419	 4.9103138309	-1.1207655066	 0.11789
H	 2.5685368309	 5.3502200551	 0.4563247488	 0.108903
15.9172	22.1598	69.3317	88.4026	164.4957	254.0224	285.7896	382.1295	501.7796	538.7146	627.9648	658.5462	760.8161	821.1854	854.1264	892.0277	908.3742	955.8962	972.0479	980.6764	1022.4983	1053.036	1070.2714	1170.7052	1187.1891	1198.9438	1228.1471	1256.8837	1294.4728	1312.1649	1322.8698	1331.121	1339.493	1377.4541	1423.7603	1486.3771	1495.0081	1497.7631	1518.727	1764.2264	2323.082	2910.5398	3008.0252	3049.9221	3052.6771	3057.0506	3063.2945	3085.8912	3101.9146	3108.7423	3117.3118
O=CC#CC1CCCC1	O=CC#CC1CCCC1	
InChI=1S/C8H10O/c9-7-3-6-8-4-1-2-5-8/h7-8H,1-2,4-5H2	InChI=1S/C8H10O/c9-7-3-6-8-4-1-2-5-8/h7-8H,1-2,4-5H2
