14
gdb 42289	3.05851	1.32439	0.93519	4.6317	70.77	-0.2817	-0.0734	0.2083	1156.3422	0.101382	-432.897855	-432.889691	-432.888746	-432.931419	28.552	
N	-0.0968344024	 1.356404528	 0.0129856256	-0.48769
C	 0.012889819	 0.0896011923	 0.0024052342	 0.263158
C	-1.1814117715	-0.7390588263	 0.0076881398	 0.305214
N	-2.0991336567	-1.4410700599	 0.0107219061	-0.320812
N	 1.1893515796	-0.6520105401	-0.0137577762	-0.161183
C	 1.4943865192	-2.0990507138	-0.0270050795	-0.177892
C	 3.0022046807	-1.7121430923	-0.0378096672	-0.375992
C	 2.5291050545	-0.2496972787	-0.0229797995	 0.426859
O	 3.0190969038	 0.8444462329	-0.0195070361	-0.340566
H	 0.8268939573	 1.795975023	 0.0079623725	 0.265645
H	 1.1478467488	-2.6220612038	 0.8667093764	 0.147115
H	 1.1316872612	-2.6090906899	-0.9218041906	 0.147115
H	 3.570220151	-2.004325928	 0.8466485761	 0.154516
H	 3.5541509953	-1.9914560933	-0.9364836615	 0.154515
65.0548	115.8767	122.5834	186.9561	214.5389	319.612	410.4823	457.5384	539.9563	603.4011	669.2094	717.0093	781.6658	810.2202	912.8202	941.8509	980.751	1050.0775	1074.3307	1136.8034	1154.7398	1192.999	1224.6965	1268.3331	1333.305	1402.4923	1458.1088	1521.4021	1678.6414	1874.6385	2360.8421	3074.7271	3095.496	3128.4086	3154.1686	3467.9027
N=C(C#N)N1CCC1=O	[NH][C](C#N)N1CCC1=O	
InChI=1S/C5H5N3O/c6-3-4(7)8-2-1-5(8)9/h7H,1-2H2	InChI=1S/C5H5N3O/c6-3-4(7)8-2-1-5(8)9/h7H,1-2H2
