18
gdb 116028	2.70452	1.46526	1.05348	4.1646	75.35	-0.2295	-0.0575	0.172	1139.4935	0.148811	-439.098295	-439.090027	-439.089083	-439.131337	31.338	
O	 0.1756285365	 1.4376283438	 0.0629751022	-0.4187
C	 0.0337352139	 0.036514539	 0.0575398866	-0.088626
C	-1.4236051494	-0.4434557989	 0.0382301406	-0.098903
N	-2.1329308623	-0.1266994206	 1.2745899474	-0.301889
C	-3.47069096	-0.6905019271	 1.3320092171	-0.216276
C	-4.253770118	-0.3418583235	 0.1025640794	-0.024456
C	-3.6703384429	 0.1036007857	-1.0164783431	-0.149598
C	-2.2038715793	 0.1962692243	-1.1173458847	 0.419323
O	-1.6424795775	 0.7101324068	-2.0689443298	-0.362677
H	-0.148665577	 1.735935342	-0.7956569356	 0.296894
H	 0.5504155983	-0.4221878288	-0.7974979928	 0.10053
H	 0.5186583012	-0.3350791741	 0.9688492987	 0.097602
H	-1.4027888941	-1.5366072753	-0.1700030129	 0.0688
H	-1.5866377512	-0.4124845107	 2.0789766206	 0.225548
H	-3.48610882	-1.7977997399	 1.435432007	 0.10098
H	-3.9891172213	-0.2988027512	 2.2160251731	 0.123757
H	-5.3324957641	-0.4628220204	 0.1573850136	 0.115853
H	-4.2363253727	 0.3992361391	-1.8939409572	 0.111838
80.8751	107.3712	177.063	258.4756	286.3012	316.3158	395.4479	469.4941	500.126	516.9746	590.4909	671.4979	698.9366	743.4971	829.8987	882.3171	894.882	945.0101	989.6846	1016.2283	1034.613	1078.2579	1128.3038	1130.4256	1175.6698	1209.3469	1240.5195	1249.2048	1311.0445	1339.3805	1393.5123	1407.7052	1415.1403	1433.576	1477.4611	1482.278	1501.2819	1683.9685	1764.9801	2849.4652	2865.1024	3003.2729	3041.052	3054.2412	3165.8993	3193.7194	3536.0133	3784.1614
OCC1NCC=CC1=O	OC[C@H]1NCC=CC1=O	
InChI=1S/C6H9NO2/c8-4-5-6(9)2-1-3-7-5/h1-2,5,7-8H,3-4H2	InChI=1S/C6H9NO2/c8-4-5-6(9)2-1-3-7-5/h1-2,5,7-8H,3-4H2/t5-/m1/s1
