25
gdb 121392	3.87354	0.81168	0.70987	1.1784	90.05	-0.2415	0.0895	0.331	1713.3517	0.23028	-389.518472	-389.508787	-389.507843	-389.553314	36.9	
C	-0.0122352722	 1.5593774969	 0.0741483326	-0.381036
C	 0.0062090479	 0.0300382487	 0.0154529227	-0.16857
C	 0.6969897219	-0.5105653657	-1.2408861971	-0.183735
C	 0.75260803	-2.0339734645	-1.304774536	 0.139483
C	 1.3462172637	-2.5623038004	-2.6172216129	-0.199862
C	 1.4792930315	-4.0913108587	-2.5806805782	-0.211688
C	 2.2286463888	-4.5277407082	-1.3141005952	-0.192327
C	 1.5846338831	-3.8892264869	-0.0820757006	-0.061563
O	 1.5263580607	-2.4779242049	-0.1917728451	-0.261109
H	 1.0046683185	 1.9678301454	 0.0721694522	 0.113113
H	-0.5389220803	 1.9859873299	-0.7874472485	 0.108833
H	-0.5119510873	 1.918474978	 0.9794210517	 0.109162
H	 0.5149372167	-0.374125129	 0.8965193135	 0.115187
H	-1.0233432233	-0.3511338545	 0.0525312286	 0.087171
H	 0.1786803657	-0.1465631462	-2.1378514099	 0.08788
H	 1.7242530007	-0.1262884961	-1.2934873751	 0.098139
H	-0.2737245987	-2.4361639505	-1.2004811081	 0.053512
H	 0.7172881216	-2.2475118994	-3.4580581835	 0.090011
H	 2.3340879095	-2.105321661	-2.7606783828	 0.097407
H	 0.4771247855	-4.5421984445	-2.5810743751	 0.093288
H	 1.9868955601	-4.4570341757	-3.4796411872	 0.093358
H	 2.227718516	-5.6189955103	-1.210080607	 0.090685
H	 3.2758166731	-4.2056120093	-1.3712378808	 0.101319
H	 0.568578893	-4.2984351313	 0.0614556308	 0.080166
H	 2.1598966137	-4.1008507118	 0.8245621808	 0.101178
70.5486	85.6057	108.7022	185.4358	240.8147	247.8665	300.4725	333.4948	348.0963	456.6275	481.8257	498.4397	589.0786	741.9375	807.2533	833.8705	857.3531	871.953	896.9004	920.9782	940.7434	981.9689	1023.0674	1046.9655	1060.5739	1079.1202	1104.5433	1115.1305	1145.2581	1187.5566	1198.9873	1228.2022	1259.2976	1285.2299	1291.9487	1308.8272	1329.9549	1343.7202	1364.5714	1376.6339	1384.7658	1389.9024	1406.8623	1413.292	1419.0467	1468.9197	1475.7494	1482.2427	1491.6242	1493.6111	1499.4655	1501.7866	1510.746	2914.3018	2948.4463	3012.5901	3013.1907	3019.2605	3023.2237	3026.5691	3027.1529	3052.041	3064.473	3068.9211	3073.422	3075.1868	3078.4989	3097.2788	3099.2476
CCCC1CCCCO1	CCC[C@H]1CCCCO1	
InChI=1S/C8H16O/c1-2-5-8-6-3-4-7-9-8/h8H,2-7H2,1H3	InChI=1S/C8H16O/c1-2-5-8-6-3-4-7-9-8/h8H,2-7H2,1H3/t8-/m0/s1
