13
gdb 11215	4.73245	1.49475	1.32459	3.2891	54.14	-0.2718	-0.0505	0.2213	889.951	0.096024	-435.790242	-435.783232	-435.782288	-435.822224	24.601	
O	-0.8110226524	 0.8364559803	 0.5315065279	-0.226965
C	 0.2511650323	 0.8187372738	-0.0299715775	 0.133674
C	 1.2805288642	 1.9457573657	 0.0821710685	 0.017414
C	 1.3534575836	 2.5535048925	 1.4957175315	-0.200108
N	 2.487316693	 1.8109395211	 2.0110024958	-0.364141
C	 3.2808796795	 1.3092651998	 1.0057929106	 0.47994
O	 4.3769749369	 0.8359534394	 1.0795878639	-0.378901
O	 2.5829773831	 1.4208212769	-0.1799624414	-0.247674
H	 0.5701416037	-0.0142569237	-0.6914315528	 0.11355
H	 1.0462617053	 2.6918457678	-0.6853328108	 0.132499
H	 1.5330355629	 3.6355289803	 1.4680093604	 0.120045
H	 0.4283629033	 2.355804902	 2.042830715	 0.151215
H	 2.9276919446	 2.031100404	 2.8888246388	 0.269453
70.0355	118.1435	156.5489	268.5584	389.936	469.5642	506.9877	587.6848	733.2818	741.8355	768.2746	838.3319	917.1963	954.3863	1037.4239	1068.9975	1101.8931	1115.7672	1210.4451	1224.0623	1284.494	1337.4594	1368.4087	1398.6976	1433.378	1536.6805	1838.2874	1905.9777	2922.7184	3022.3487	3056.7338	3100.7493	3664.1916
O=CC1CNC(=O)O1	O=C[C@H]1CNC(=O)O1	
InChI=1S/C4H5NO3/c6-2-3-1-5-4(7)8-3/h2-3H,1H2,(H,5,7)	InChI=1S/C4H5NO3/c6-2-3-1-5-4(7)8-3/h2-3H,1H2,(H,5,7)/t3-/m1/s1
