17
gdb 48700	3.48434	1.2569	1.06529	4.1808	75.95	-0.2395	-0.0278	0.2117	1144.5027	0.134074	-421.773185	-421.765284	-421.76434	-421.805704	30.413	
O	 0.0074164234	-0.0209901936	-0.0553120947	-0.263914
C	 0.077022072	 1.1799285846	-0.1273986407	 0.068153
C	 1.317934599	 1.961813645	-0.0758137781	 0.364829
C	 1.4009268275	 3.4062025667	 0.3703160861	-0.342416
C	 1.8194996452	 3.0617561645	-1.0273809197	-0.254473
C	 3.1008558537	 2.2666184598	-0.9878120624	 0.459675
C	 3.9495504468	 1.8087582743	-2.1213667952	-0.339676
C	 4.5310852716	 2.6825763965	-1.0132397215	-0.339512
O	 2.5917104685	 1.333684452	-0.0153920468	-0.323549
H	-0.8276770577	 1.8217180349	-0.2422181266	 0.069704
H	 0.452446398	 3.9275959936	 0.4548196837	 0.130132
H	 2.1414281552	 3.6510017342	 1.1252255541	 0.135726
H	 1.3432684266	 3.4571032876	-1.9146354912	 0.120459
H	 4.2279823648	 0.7609820093	-2.1320111728	 0.137991
H	 3.7880321158	 2.2505856975	-3.0993644521	 0.120393
H	 4.769689505	 3.7175203871	-1.2339251643	 0.121997
H	 5.1924844245	 2.2030063259	-0.3000517281	 0.13448
83.5092	150.6562	180.8834	263.5658	289.7948	342.1992	426.3808	493.3619	525.4621	570.1632	748.1998	766.8102	785.5858	853.6195	865.3063	894.3633	941.9442	952.7529	969.1043	988.9906	998.5559	1042.8682	1048.7507	1071.9765	1073.0288	1083.4389	1176.0957	1186.0524	1235.9255	1276.9292	1356.4196	1405.7118	1436.1991	1448.7867	1469.2192	1508.2162	1816.0106	2858.1793	3124.9226	3132.362	3135.1451	3205.2828	3217.6292	3220.1926	3231.0234
O=CC12CC1C1(CC1)O2	O=C[C@]12C[C@H]1C1(CC1)O2	
InChI=1S/C7H8O2/c8-4-7-3-5(7)6(9-7)1-2-6/h4-5H,1-3H2	InChI=1S/C7H8O2/c8-4-7-3-5(7)6(9-7)1-2-6/h4-5H,1-3H2/t5-,7+/m0/s1
