15
gdb 132587	3.1383	1.32167	0.93546	2.1827	71.87	-0.2319	-0.0228	0.2092	1159.2929	0.112224	-461.975717	-461.967915	-461.966971	-462.007915	29.687	
C	 0.0182364475	 1.4970877216	 0.0280267867	-0.524146
C	 0.0224861068	-0.0107953851	 0.023106222	 0.216704
N	-0.0462327091	-0.6311826136	-1.1560476089	-0.298126
C	-0.0450168415	-1.9632337034	-1.2032739229	-0.131848
C	 0.0264551771	-2.7298887889	-0.0481459988	 0.260966
F	 0.0252950602	-4.0619496623	-0.1345304192	-0.074765
C	 0.0989889743	-2.1241493396	 1.1939330586	-0.306982
C	 0.0968525865	-0.7338090702	 1.2282112307	 0.326557
O	 0.1678929051	-0.1302348044	 2.444373551	-0.433114
H	 0.9320709923	 1.9113111578	 0.4752851357	 0.130024
H	-0.0454529514	 1.8544877771	-1.0001561888	 0.155925
H	-0.837030369	 1.9059956176	 0.5830311571	 0.129966
H	-0.1018260565	-2.4417182332	-2.1762177744	 0.118122
H	 0.1553902767	-2.7043105682	 2.1066116367	 0.127527
H	 0.158113361	 0.8251729649	 2.3263458145	 0.30319
136.1109	146.7182	235.0741	298.7128	331.055	331.8977	373.1083	472.1774	489.1793	502.346	570.2069	642.5997	733.9857	752.4609	765.442	907.3201	909.0639	974.5195	1021.9075	1055.0019	1157.7208	1177.7501	1269.6559	1279.3385	1329.1864	1336.0986	1400.2792	1461.2088	1486.9398	1489.33	1525.0535	1617.9711	1653.5215	3007.2894	3053.4326	3145.9125	3176.9304	3216.3014	3827.6944
CC1=NC=C(F)C=C1O	Cc1ncc(F)cc1O	
InChI=1S/C6H6FNO/c1-4-6(9)2-5(7)3-8-4/h2-3,9H,1H3	InChI=1S/C6H6FNO/c1-4-6(9)2-5(7)3-8-4/h2-3,9H,1H3
