17
gdb 114350	2.7092	1.65146	1.37184	2.7511	63.49	-0.235	0.0651	0.3002	975.6084	0.136066	-496.061293	-496.053481	-496.052537	-496.093539	30.096	
O	-0.2999759626	 1.6047052221	 0.0147385619	-0.415255
C	-0.1152073968	 0.2121642457	-0.1399946946	-0.093072
C	-1.4387180742	-0.5386467522	-0.0755784211	 0.200382
O	-2.1220049632	-0.1486236505	 1.1104559728	-0.283087
C	-3.4955912057	-0.0687037855	 0.8017259707	-0.007704
C	-3.9329447488	 1.1677340412	 0.0199031839	 0.092051
O	-3.1308659988	 2.2846860323	-0.1035781111	-0.43885
C	-3.5967405354	-0.1222801791	-0.6993928191	-0.025512
O	-2.2667664227	-0.1630103148	-1.1678599507	-0.278093
H	-0.7604795119	 1.7278274007	 0.8554889647	 0.299306
H	 0.341069168	 0.0485698529	-1.1200548822	 0.130734
H	 0.5571153225	-0.1990934581	 0.6269948931	 0.107436
H	-1.2811636484	-1.6308531864	-0.0814399046	 0.081601
H	-4.1479476113	-0.5962445424	 1.4888845365	 0.109358
H	-4.9861091502	 1.4246278728	 0.0993747921	 0.108798
H	-2.3039874833	 2.0266847893	-0.5425879721	 0.303848
H	-4.3047688073	-0.7128646479	-1.2709050902	 0.108059
128.179	133.5323	206.9359	229.4489	286.5395	318.6393	369.8404	570.9801	628.8315	671.5537	725.6873	738.4243	745.3805	768.5014	780.0378	871.8016	886.131	956.0763	1042.0822	1066.2663	1071.9945	1088.4514	1099.9811	1106.0124	1115.0605	1154.916	1211.0277	1227.4192	1288.4102	1335.5194	1359.1493	1370.2579	1380.5841	1407.4261	1432.1753	1454.5853	1488.1021	2960.7731	3010.0838	3104.382	3147.3623	3160.9753	3172.6615	3680.3149	3773.5257
OCC1OC2C(O)C2O1	OC[C@H]1O[C@H]2[C@@H](O)[C@H]2O1	
InChI=1S/C5H8O4/c6-1-2-8-4-3(7)5(4)9-2/h2-7H,1H2	InChI=1S/C5H8O4/c6-1-2-8-4-3(7)5(4)9-2/h2-7H,1H2/t2-,3+,4-,5+
