17
gdb 54958	3.14165	1.06972	0.95419	4.3755	77.45	-0.2411	0.0035	0.2446	1268.0326	0.133664	-417.982175	-417.972377	-417.971433	-418.01688	35.735	
C	 0.026087074	 1.6026685175	-0.4327346139	-0.470623
C	-0.0436254229	 0.1295734567	-0.0786935835	 0.133864
N	 1.2416657735	-0.5909577203	-0.076419251	-0.33681
C	 0.5552090163	-0.4177008327	 1.2044272132	-0.182787
C	 1.2084601988	 0.4819869084	 2.2264940154	 0.435421
N	 0.8108796937	 0.2224893145	 3.5089706196	-0.534966
O	 2.0059226748	 1.3560575135	 1.9536187214	-0.356304
C	-1.2053870254	-0.5767661854	-0.5646123176	 0.279814
C	-2.1663573566	-1.160795813	-0.9925616333	-0.444506
H	 0.931198343	 2.0384351219	-0.0109436684	 0.174286
H	 0.0398165806	 1.7166676818	-1.5206451503	 0.126628
H	-0.8499785286	 2.1315275123	-0.0454911828	 0.119815
H	 1.1137382139	-1.5438511101	-0.4081126496	 0.243069
H	 0.0343196717	-1.2802796246	 1.6148193931	 0.089325
H	 0.076055627	-0.4277551585	 3.7250050913	 0.260162
H	 1.1323872221	 0.8426748608	 4.2341472014	 0.263915
H	-3.0159205862	-1.6738062829	-1.3706223549	 0.199696
58.8582	109.2157	144.0447	167.8494	192.114	225.9856	271.9824	334.0477	375.0278	422.7981	523.9119	554.6541	575.9094	610.2525	642.1731	652.9938	664.5438	759.2045	824.661	866.9257	931.4991	996.8355	1071.0749	1077.6104	1084.9221	1106.7395	1200.9029	1273.73	1309.4153	1330.9276	1410.0509	1461.9182	1492.6465	1494.6341	1617.6027	1800.9777	2230.1843	3048.1515	3112.8756	3125.7108	3164.8993	3501.3706	3508.0719	3603.4	3738.4653
CC1(NC1C(N)=O)C#C	C[C@]1(N[C@H]1C(=O)N)C#C	
InChI=1S/C6H8N2O/c1-3-6(2)4(8-6)5(7)9/h1,4,8H,2H3,(H2,7,9)	InChI=1S/C6H8N2O/c1-3-6(2)4(8-6)5(7)9/h1,4,8H,2H3,(H2,7,9)/t4-,6-/m0/s1
