22
gdb 69313	2.88762	1.32884	1.26329	1.5493	87.49	-0.2263	0.0187	0.245	1165.2484	0.193572	-367.208661	-367.19953	-367.198586	-367.241512	36.382	
C	-0.046467741	 1.5674650038	 0.0390065887	-0.496929
C	 0.0853824479	 0.0684180401	-0.0204598898	 0.30604
N	-0.7912294806	-0.7943608617	 0.8312100563	-0.377215
C	 0.6734587432	-0.7866004855	 1.0466128978	-0.132835
C	 1.4277961474	-1.9611700991	 0.4044214725	 0.256258
C	 2.9385942434	-1.8254407213	 0.6711150413	-0.425182
C	 0.9157147553	-3.326618656	 0.8944920981	-0.419528
C	 1.1216647934	-1.7403238535	-1.0727098318	-0.102863
C	 0.4216875727	-0.6296895605	-1.3037043942	-0.128889
H	 0.8373395584	 2.0583949227	-0.3825814323	 0.126361
H	-0.9191265568	 1.910493917	-0.52927879	 0.124872
H	-0.1626061777	 1.9128646935	 1.0716998242	 0.113183
H	-1.2167196634	-0.2096200529	 1.550525851	 0.218553
H	 1.0578948312	-0.3592620745	 1.9689512936	 0.073932
H	 3.1568134315	-1.9448318046	 1.739052565	 0.108277
H	 3.5025885008	-2.5912846665	 0.1281951073	 0.112044
H	 3.3092660509	-0.8460573287	 0.3525893362	 0.113999
H	-0.1670773692	-3.3919339405	 0.7687191404	 0.139255
H	 1.3847711913	-4.1439736775	 0.3356095552	 0.104325
H	 1.1513591902	-3.4722204103	 1.9548038623	 0.104521
H	 1.4391183027	-2.4533284033	-1.8273310295	 0.089655
H	 0.0939312086	-0.2723855905	-2.2736484322	 0.092166
127.0754	187.9884	208.0428	230.1145	245.8618	274.3305	319.4039	323.3145	373.2705	409.9796	487.3743	556.12	605.4421	641.4167	758.1885	784.9706	817.6885	846.1656	902.5326	924.2697	945.3201	946.9109	963.7473	984.0762	1027.7293	1037.2143	1062.4964	1102.9842	1124.8049	1143.2344	1190.4559	1228.4063	1257.9848	1302.6068	1323.2863	1370.5443	1389.023	1404.7528	1416.1514	1439.8987	1484.1626	1485.0266	1486.7358	1499.9664	1500.9423	1510.7368	1670.8079	3021.6654	3024.1343	3029.0559	3086.0442	3086.5907	3091.8792	3098.0888	3103.1581	3130.4475	3141.9646	3172.636	3200.254	3458.8882
CC12NC1C(C)(C)C=C2	C[C@]12N[C@H]1C(C)(C)C=C2	
InChI=1S/C8H13N/c1-7(2)4-5-8(3)6(7)9-8/h4-6,9H,1-3H3	InChI=1S/C8H13N/c1-7(2)4-5-8(3)6(7)9-8/h4-6,9H,1-3H3/t6-,8+/m0/s1
