23
gdb 106577	2.56883	1.39757	1.22245	0.2203	89.86	-0.2207	0.0157	0.2364	1189.9815	0.206131	-351.133371	-351.124524	-351.12358	-351.166424	35.425	
C	 0.0775646342	 1.5454716126	 0.149993801	-0.3811
C	-0.0157288827	 0.0370460146	-0.1121540359	-0.305119
C	-1.4293614351	-0.5064873095	-0.0454086184	 0.312489
C	-2.3110172586	-0.454979389	 1.2581207439	-0.2508
C	-3.1332032465	-1.5325309685	 0.4753243933	-0.09594
C	-3.5849008322	-0.6944811704	-0.7289716263	-0.092634
C	-2.4794197945	-0.0273287913	-1.0685379317	-0.121456
C	-1.7372208741	-2.0599899413	-0.0241806133	 0.015139
C	-1.5978910937	-2.9283943916	-1.2622551113	-0.434104
H	 1.1131915666	 1.8935813139	 0.0875207213	 0.110526
H	-0.5102208532	 2.1153082915	-0.5772258446	 0.116634
H	-0.3000859351	 1.7969014592	 1.1466871619	 0.119536
H	 0.4106539059	-0.1907499794	-1.098601502	 0.095611
H	 0.6067865513	-0.4965723656	 0.6175810109	 0.091115
H	-1.7993511384	-0.8471257203	 2.144006091	 0.0858
H	-2.8176878473	 0.4861781139	 1.4828474687	 0.088933
H	-3.8593864009	-2.1822596339	 0.9642518614	 0.053959
H	-4.5695748081	-0.6827290873	-1.1747128892	 0.095671
H	-2.3113603089	 0.6783612824	-1.8705612806	 0.093963
H	-1.1955996039	-2.5234684258	 0.8105593459	 0.062903
H	-2.125140478	-2.4998995318	-2.1184050919	 0.11712
H	-0.5435061071	-3.0489984418	-1.53582106	 0.111072
H	-2.0025509798	-3.9302594103	-1.079104934	 0.110681
85.5167	149.4299	195.3349	226.1807	245.0085	268.4903	327.6676	396.3421	494.4356	550.9642	573.106	612.0823	714.0939	739.2518	758.8431	781.3834	831.5452	875.6481	894.1737	910.9406	927.7263	949.4252	977.2129	1034.588	1044.8662	1050.1768	1071.8029	1091.6044	1109.3128	1139.5102	1173.1112	1189.944	1206.2247	1225.3051	1259.0725	1276.8024	1303.7865	1351.1885	1370.7035	1392.7547	1409.8391	1411.8013	1484.7324	1492.6683	1498.0933	1500.829	1502.8186	1506.5441	1626.4126	3012.0468	3020.3362	3031.0176	3034.3509	3042.3009	3044.3422	3086.1667	3102.0553	3104.1253	3112.4303	3114.266	3117.191	3211.487	3239.699
CCC12CC(C=C1)C2C	CC[C@@]12C[C@@H](C=C1)[C@H]2C	
InChI=1S/C9H14/c1-3-9-5-4-8(6-9)7(9)2/h4-5,7-8H,3,6H2,1-2H3	InChI=1S/C9H14/c1-3-9-5-4-8(6-9)7(9)2/h4-5,7-8H,3,6H2,1-2H3/t7-,8-,9+/m1/s1
