17
gdb 89145	2.24747	1.64267	1.16581	2.1213	74.54	-0.2418	0.0346	0.2763	1073.4026	0.134058	-421.754993	-421.746418	-421.745474	-421.787606	33.661	
O	 0.0873902859	 1.3812204699	-0.2438167643	-0.43365
C	 0.0037160168	 0.0065508342	-0.0022920497	 0.144456
C	 0.2902134382	-0.5687133885	 1.4369999967	-0.365417
C	-1.0637571393	-1.2820580623	 1.3629926325	 0.383903
O	-1.3044458358	-2.5816252853	 1.75542526	-0.454446
C	-2.1985486848	-0.2753353731	 1.2194128887	-0.300315
C	-2.1982104813	 1.0387962737	 1.7987089575	 0.315375
C	-2.1899262019	 2.133430844	 2.3034190884	-0.446802
C	-1.3668425134	-0.6905427585	 0.0034106149	-0.167437
H	-0.516488338	 1.8260704457	 0.3643325192	 0.288441
H	 0.6638871253	-0.4687011617	-0.7320723755	 0.100761
H	 1.1324089933	-1.263313013	 1.4511152633	 0.112813
H	 0.4067934483	 0.1704579504	 2.2341528516	 0.106711
H	-1.3687201726	-2.6030203368	 2.7172656809	 0.29108
H	-3.166332655	-0.7707314664	 1.2237094776	 0.121734
H	-2.1972758401	 3.0965307786	 2.7512303055	 0.20283
H	-1.8625872253	-1.1350507808	-0.851388577	 0.099962
135.5279	143.1048	176.0432	264.5212	278.4721	362.8569	376.8517	418.3273	453.6358	472.4815	544.0157	568.9796	582.1515	659.3878	667.5763	730.1107	807.9599	854.0557	910.1145	967.4827	971.4328	976.6149	1039.6158	1073.8345	1111.5443	1139.6518	1193.1826	1212.1536	1237.7362	1293.825	1307.1746	1319.1044	1334.6731	1444.9042	1455.3381	1490.9108	2216.6392	3062.3074	3080.3192	3125.3463	3144.3366	3186.5159	3499.5437	3765.229	3789.0086
OC1CC2(O)C(C#C)C12	O[C@H]1C[C@@]2(O)[C@@H](C#C)[C@@H]12	
InChI=1S/C7H8O2/c1-2-4-6-5(8)3-7(4,6)9/h1,4-6,8-9H,3H2	InChI=1S/C7H8O2/c1-2-4-6-5(8)3-7(4,6)9/h1,4-6,8-9H,3H2/t4-,5-,6-,7+/m0/s1
