17
gdb 38477	3.57175	1.70539	1.55022	1.5204	71.18	-0.2359	0.0686	0.3046	887.353	0.137305	-421.712017	-421.705832	-421.704887	-421.74216	26.555	
C	-0.036047183	 1.6116564411	 0.1868375873	-0.259621
C	 1.4464133484	 1.2394888061	 0.0863562139	-0.020874
O	 1.154247109	 0.0164902256	 0.9145317849	-0.371789
C	 0.0914852184	 0.0936261647	-0.1278183034	 0.41979
C	-0.9488311912	-0.8420617958	-0.7105911262	-0.402673
C	-0.8466048337	-0.4296367181	-2.1978573459	 0.061408
O	-0.9284350014	 0.9795546326	-2.4378537256	-0.244056
C	 0.375217325	 0.3909833942	-2.4704098908	-0.03664
C	 1.1682824989	 0.3512776137	-1.1782311141	-0.015339
H	-0.3738931335	 1.8326614064	 1.2001824443	 0.101242
H	-0.4710264872	 2.2557686642	-0.5736737591	 0.128205
H	 2.3413699253	 1.7950459053	 0.3670623365	 0.094552
H	-0.6631546495	-1.8943872202	-0.6048361781	 0.126828
H	-1.9569175548	-0.7077564112	-0.309410349	 0.124038
H	-1.316267142	-1.0496848748	-2.9575883611	 0.102498
H	 0.8567729199	 0.3985333206	-3.4449795014	 0.101023
H	 1.8955180416	-0.4642961145	-1.2445907822	 0.091409
252.7778	261.2932	375.7373	403.2816	428.1233	541.5726	582.076	687.1675	713.9082	741.0565	821.33	834.3034	838.2046	886.0847	910.2835	921.5533	955.0181	977.6038	983.4551	1023.6134	1062.6555	1083.2116	1103.4204	1119.8949	1144.7719	1181.6909	1195.147	1205.3469	1247.2964	1256.2297	1272.5038	1280.6479	1336.3144	1369.3869	1395.8895	1468.6421	1496.8254	3054.0344	3065.7193	3090.5916	3107.4127	3119.2348	3140.9395	3152.1463	3181.3165
C1C2OC11CC3OC3C21	C1[C@H]2O[C@]31C[C@H]1O[C@H]1[C@@H]23	
InChI=1S/C7H8O2/c1-3-5-6-4(8-6)2-7(1,5)9-3/h3-6H,1-2H2	InChI=1S/C7H8O2/c1-3-5-6-4(8-6)2-7(1,5)9-3/h3-6H,1-2H2/t3-,4-,5-,6-,7-/m1/s1
