17
gdb 47972	5.55641	0.69879	0.68961	3.9535	88.62	-0.2637	-0.062	0.2017	1636.1246	0.135847	-384.619672	-384.611426	-384.610482	-384.654898	29.775	
O	-0.0728727682	-0.0207310161	 0.0084599051	-0.228353
C	 0.0162060539	 1.1863002406	 0.0065329972	-0.018185
C	 1.2561061775	 1.9155460587	 0.0004433697	 0.359615
C	 2.2794828276	 2.560800631	-0.0055892643	-0.374123
C	 3.5013989044	 3.3066636531	-0.013300046	 0.267402
C	 4.6282136318	 3.2657071265	-1.1026248081	-0.242936
C	 5.1242861594	 4.2715566511	-0.0247222133	-0.081165
C	 3.6855378761	 4.8616464563	-0.0039843286	-0.246723
C	 4.6527053739	 3.2497787663	 1.0492647032	-0.243055
H	-0.8869460866	 1.8307717797	 0.009364939	 0.097316
H	 5.1727888755	 2.3229421368	-1.1917380881	 0.106679
H	 4.3615935536	 3.6755362138	-2.0796972725	 0.103821
H	 6.059594725	 4.8286169845	-0.0312461029	 0.084649
H	 3.3533287693	 5.3897426878	-0.9010468707	 0.102282
H	 3.3740369709	 5.376234922	 0.9082182604	 0.102289
H	 4.4086228073	 3.6451065885	 2.0381333121	 0.10382
H	 5.1989354285	 2.3058640293	 1.1120425779	 0.106667
13.7682	78.2802	96.2341	204.2102	271.9692	392.6696	477.1348	511.8391	555.3556	566.4074	689.3746	792.491	793.4503	881.9608	925.4102	942.859	945.8282	961.5768	995.6985	1022.6905	1038.4014	1095.9232	1097.2904	1126.4421	1127.7902	1165.3176	1166.8632	1232.6391	1233.0987	1248.7978	1316.175	1422.8625	1496.3101	1498.2192	1550.794	1764.1811	2316.854	2913.3877	3056.2708	3058.8865	3064.28	3125.1627	3130.6083	3131.7191	3132.3416
O=CC#CC12CC(C1)C2	O=CC#C[C@@]12C[C@@H](C1)C2	
InChI=1S/C8H8O/c9-3-1-2-8-4-7(5-8)6-8/h3,7H,4-6H2	InChI=1S/C8H8O/c9-3-1-2-8-4-7(5-8)6-8/h3,7H,4-6H2/t7-,8+
