13
gdb 20489	5.09608	2.01256	1.46946	1.8886	59.39	-0.2473	-0.0179	0.2295	782.0789	0.09785	-398.573299	-398.567364	-398.56642	-398.603686	21.771	
C	-0.0554915713	 1.4950454024	 0.098202434	-0.180545
O	 1.2521194444	 1.9333487204	-0.294101899	-0.281624
C	 2.1403107879	 0.8352700573	-0.6095149232	-0.183682
C	 1.297697495	-0.3789862495	-0.3895709266	 0.136592
C	 0.0692213141	 0.0128842726	 0.0072033829	 0.347174
O	-0.7458841305	-1.0124460934	 0.2253596945	-0.219188
N	-0.0133659602	-2.189366888	-0.0443226864	-0.137922
C	 1.1889476925	-1.7911575308	-0.4053468131	-0.126409
H	-0.2835416401	 1.848984802	 1.1133597	 0.130875
H	-0.8124277589	 1.9086554416	-0.582823191	 0.13088
H	 2.4894463155	 0.9478723088	-1.6445753588	 0.122024
H	 3.0173831917	 0.8883141361	 0.0491686641	 0.122024
H	 1.9187982497	-2.5469765095	-0.6594843476	 0.1398
98.5706	204.2987	252.6527	419.0743	593.6406	631.0102	652.7693	719.8408	850.3392	863.0503	885.3003	905.3751	980.6674	1018.229	1059.3732	1068.911	1145.903	1160.5589	1204.1582	1214.6545	1315.7	1336.522	1408.1498	1432.2154	1514.5324	1517.896	1528.9532	1657.7476	2999.718	3008.0184	3026.073	3033.1484	3244.1978
C1OCC2=C1ON=C2	C1OCc2c1onc2	
InChI=1S/C5H5NO2/c1-4-2-7-3-5(4)8-6-1/h1H,2-3H2	InChI=1S/C5H5NO2/c1-4-2-7-3-5(4)8-6-1/h1H,2-3H2
