17
gdb 41350	3.18333	1.87925	1.56684	1.1708	66.36	-0.2561	0.066	0.3222	875.3995	0.138574	-458.929904	-458.92362	-458.922676	-458.960304	26.077	
C	 0.0803875033	 1.4616268857	-0.1474745924	-0.191048
O	 1.4963093236	 1.4113355533	 0.1791623499	-0.304311
C	 1.3342853037	 0.0993743955	 0.783944402	 0.126677
C	 2.1190247984	-1.1264065884	 0.2821966898	-0.279301
C	 0.946020954	-1.8238424083	-0.455842798	 0.185289
O	-0.0571205268	-2.2496161743	 0.4898656108	-0.294772
C	-0.9014335707	-1.0924646072	 0.7181066733	-0.163532
C	-0.0209743375	-0.042546752	 0.0671159508	 0.320954
O	 0.347333265	-0.7474451278	-1.1343562336	-0.271454
H	-0.4810401229	 2.0656762182	 0.5759666403	 0.108076
H	-0.1045157283	 1.8136267333	-1.1655150767	 0.127027
H	 1.3004020714	 0.1841484138	 1.8754745539	 0.081689
H	 2.9110708991	-0.8594704378	-0.4219466976	 0.124209
H	 2.5344451903	-1.7261762036	 1.0941921658	 0.111559
H	 1.1854591265	-2.6492563509	-1.1259507158	 0.097209
H	-1.8740226876	-1.2293933408	 0.2326619046	 0.110659
H	-1.0353981916	-0.9498780389	 1.7943006427	 0.111069
189.7914	275.3556	317.6477	371.9118	424.8647	473.3143	605.1156	691.8172	740.6173	814.913	838.6199	842.2764	877.8077	889.2835	926.3063	952.0252	980.1583	991.9137	1030.8315	1055.6806	1086.5567	1107.5248	1128.2859	1171.6622	1174.7099	1213.0238	1238.8765	1253.2015	1285.9372	1314.8389	1322.499	1352.3124	1365.4213	1388.2208	1466.4561	1503.2454	1517.3485	3027.0818	3035.9337	3046.8553	3074.0936	3093.3234	3103.6295	3132.334	3133.1403
C1OC2CC3OCC12O3	C1O[C@@H]2C[C@H]3OC[C@@]12O3	
InChI=1S/C6H8O3/c1-4-6(2-7-4)3-8-5(1)9-6/h4-5H,1-3H2	InChI=1S/C6H8O3/c1-4-6(2-7-4)3-8-5(1)9-6/h4-5H,1-3H2/t4-,5+,6+/m1/s1
