23
gdb 90335	2.2416	1.53852	1.4369	0.4709	91.57	-0.2194	0.0245	0.2439	1120.2601	0.20657	-351.150815	-351.142072	-351.141128	-351.183436	35.275	
C	-0.1914460057	 1.4827434543	-0.1064255372	-0.403912
C	 0.0237027175	-0.0227592341	-0.0532237333	-0.038019
C	 1.298245912	-0.5122117494	-0.8540622062	-0.348308
C	 1.9837876041	-0.5709019408	 0.4887738708	 0.292237
C	 3.0235248908	-0.1279714958	 1.1869950781	-0.241614
C	 2.5949337726	 0.0973645939	 2.6359716731	-0.239996
C	 1.037385718	 0.214643668	 2.5350898347	-0.300782
C	 0.6926605441	-0.6052274769	 1.2688885194	 0.311148
C	 0.1481700509	-1.9991301848	 1.5981461723	-0.458855
H	 0.7302716492	 2.026411804	 0.1282630864	 0.119264
H	-0.5126535415	 1.7922108365	-1.1068686077	 0.111664
H	-0.9607689552	 1.8030796524	 0.6044605331	 0.114461
H	-0.8987718365	-0.5436031497	-0.3303716378	 0.062454
H	 1.1357149762	-1.4886235247	-1.3210909077	 0.107638
H	 1.7151965453	 0.1685030728	-1.601456122	 0.104875
H	 4.0081501869	 0.1297791158	 0.8130227645	 0.087037
H	 2.8985230554	-0.7291022032	 3.2942436582	 0.101627
H	 3.0460994668	 1.0025310981	 3.0572551506	 0.098145
H	 0.52770161	-0.1436546117	 3.4352121817	 0.086688
H	 0.7674602141	 1.2674222798	 2.4052741663	 0.099132
H	-0.8642359083	-1.929243242	 2.0136129959	 0.110795
H	 0.0985481301	-2.6379903483	 0.7100547501	 0.109736
H	 0.7795945434	-2.5050236941	 2.3365846068	 0.114584
107.6686	187.2852	233.6621	246.5133	254.0105	265.5813	317.3663	378.5	425.8556	473.2646	544.2996	645.2495	697.0641	735.1496	798.9382	816.3041	847.6635	866.2405	894.7416	903.5885	945.6778	970.8512	997.3762	1025.5147	1046.2418	1060.4461	1095.4716	1108.7246	1156.4183	1182.0749	1204.0777	1214.9441	1222.4467	1238.6225	1262.2776	1304.4102	1311.4652	1334.2358	1356.167	1406.3593	1410.2972	1476.4264	1482.6342	1493.7103	1494.8758	1496.5031	1498.271	1504.8095	1734.373	3004.4696	3020.6216	3026.5102	3040.664	3046.3536	3050.2764	3059.0983	3085.6105	3090.0548	3093.6696	3094.8907	3096.7755	3099.5048	3190.5013
CC1CC2=CCCC12C	C[C@H]1C[C]2[CH]CC[C@@]12C	
InChI=1S/C9H14/c1-7-6-8-4-3-5-9(7,8)2/h4,7H,3,5-6H2,1-2H3	InChI=1S/C9H14/c1-7-6-8-4-3-5-9(7,8)2/h4,7H,3,5-6H2,1-2H3/t7-,9-/m0/s1
