17
gdb 85125	1.81253	1.65586	1.31198	3.7866	69.	-0.2679	-0.0501	0.2177	1087.2012	0.133293	-459.005994	-458.996721	-458.995777	-459.04027	32.836	
C	-0.404885237	 1.2622038436	-0.136145013	-0.417144
C	 0.1968447656	-0.1205079012	-0.0506233711	 0.117934
O	 1.5014070607	-0.1936774145	-0.7532431693	-0.260857
C	 2.155575912	-0.5893416737	 0.3698831334	 0.443815
O	 3.312891108	-0.8141980987	 0.5212542059	-0.326909
C	 0.8820393143	-0.5964016653	 1.2519881013	-0.042766
C	 0.9551493623	 0.3179351628	 2.4763421218	-0.466382
C	 0.5154039425	-2.0125007161	 1.6680399089	 0.126902
O	-0.340051213	-2.6803527412	 1.1494718968	-0.241145
H	 0.2804136842	 2.0286759617	 0.2343464798	 0.130225
H	-0.6504646015	 1.4975479288	-1.1754392994	 0.143759
H	-1.3295905965	 1.3052770935	 0.4482340274	 0.134061
H	-0.4665115857	-0.8820788033	-0.463571942	 0.127503
H	 1.334962627	 1.3081755468	 2.2166496758	 0.143382
H	-0.029683539	 0.4347216245	 2.939129789	 0.137638
H	 1.6343303244	-0.1108611464	 3.2193484157	 0.14762
H	 1.1211368917	-2.3994529313	 2.515739469	 0.102363
70.2546	104.8327	160.1828	188.414	217.2034	221.5935	250.9835	281.892	345.6329	454.6412	532.8373	610.0887	677.6679	719.1157	750.3036	853.6223	872.6699	942.5989	1000.6268	1039.2363	1052.5113	1107.26	1149.5205	1161.9251	1206.854	1250.0918	1321.1434	1393.2597	1407.4277	1417.1454	1426.4713	1480.2376	1487.7387	1499.9018	1505.6594	1822.519	1927.0405	2903.8584	3043.8466	3047.5024	3107.0463	3114.6422	3118.2524	3127.9835	3134.5252
CC1OC(=O)C1(C)C=O	C[C@H]1OC(=O)[C@]1(C)C=O	
InChI=1S/C6H8O3/c1-4-6(2,3-7)5(8)9-4/h3-4H,1-2H3	InChI=1S/C6H8O3/c1-4-6(2,3-7)5(8)9-4/h3-4H,1-2H3/t4-,6-/m1/s1
