18
gdb 44465	4.08818	1.36971	1.24779	3.355	76.52	-0.2433	0.0204	0.2637	1027.3754	0.150785	-401.920593	-401.913982	-401.913038	-401.951368	28.032	
O	 0.0799685761	-0.0236952411	-0.0276064609	-0.354408
C	-0.0210409492	 1.1769103396	-0.0542081159	 0.393234
C	-1.3541503694	 1.9976175526	-0.102659723	-0.418169
C	-0.850593487	 3.4021641672	-0.4310962252	 0.030206
C	-0.7242110834	 4.7452521343	 0.3748833144	-0.087116
C	-0.0636546578	 3.9617586013	 1.5311769446	-0.267687
C	 0.5463852233	 3.390719075	 0.2018209072	 0.376165
C	 0.7180271735	 4.8585913024	-0.274120004	-0.289008
N	 1.0547949649	 2.0764215649	-0.0083005717	-0.448501
H	-2.0267653788	 1.5696188723	-0.8474184087	 0.129349
H	-1.8349020531	 1.8836185677	 0.8735656177	 0.136035
H	-0.8339673417	 3.5534119932	-1.5148325205	 0.078311
H	-1.4471836999	 5.555438699	 0.4593175042	 0.083324
H	 0.6147523845	 4.5243076367	 2.1772059348	 0.092164
H	-0.7019509812	 3.2978002229	 2.1163824071	 0.098754
H	 0.7578460368	 5.0255553498	-1.3530308575	 0.10403
H	 1.4347818327	 5.484015221	 0.2642759053	 0.096212
H	 1.9349554399	 1.7307037712	 0.3452290922	 0.247104
116.2204	311.5362	342.781	434.5562	473.4446	511.557	525.6452	565.2434	592.7584	659.2003	741.9667	772.6033	793.9715	835.5648	887.6299	903.8681	961.1549	963.6725	981.2829	1030.0353	1051.5307	1078.4726	1117.9939	1125.2972	1144.3556	1153.8117	1175.9216	1198.113	1210.5657	1222.0352	1237.1072	1242.0114	1303.3786	1390.2491	1412.0534	1463.7779	1500.0679	1541.7013	1840.4654	3052.6724	3056.396	3064.6804	3074.0904	3124.5312	3125.6592	3128.4063	3131.5546	3615.4136
O=C1CC2C3CC2(C3)N1	O=C1C[C@H]2[C@H]3C[C@@]2(C3)N1	
InChI=1S/C7H9NO/c9-6-1-5-4-2-7(5,3-4)8-6/h4-5H,1-3H2,(H,8,9)	InChI=1S/C7H9NO/c9-6-1-5-4-2-7(5,3-4)8-6/h4-5H,1-3H2,(H,8,9)/t4-,5-,7-/m0/s1
