25
gdb 86543	3.67413	0.92383	0.90743	0.1261	93.01	-0.2552	0.083	0.3382	1478.9645	0.228758	-352.341508	-352.331768	-352.330823	-352.375905	38.171	
C	-0.7518650637	 1.0404254684	-0.2258958662	-0.412858
C	 0.2636049549	-0.0749614904	-0.0280288947	 0.078924
C	 1.6323754783	 0.032005543	-0.7610322013	-0.2573
C	 2.3631544347	-0.3964057904	 0.5513377184	-0.050705
C	 1.0292703164	-0.1471310187	 1.3250866394	-0.257319
C	 2.9193954487	-1.8100085897	 0.5907877811	 0.403072
C	 1.9788519947	-2.9436650025	 0.2213927126	-0.475542
C	 4.3729049163	-1.9748135231	 0.2075778308	-0.309379
C	 3.9543649399	-2.0990587808	 1.6547203133	-0.309364
H	-0.3060548281	 2.0192512522	-0.013014921	 0.10815
H	-1.125500021	 1.0627178868	-1.2561164059	 0.111325
H	-1.6153342651	 0.9173641983	 0.4379744	 0.111324
H	-0.207664465	-1.0390316072	-0.2470263134	 0.067928
H	 1.7812595654	-0.5978134424	-1.6424110071	 0.094085
H	 1.8667284004	 1.064625213	-1.0390231386	 0.090353
H	 3.1680743413	 0.2852705999	 0.8426013034	 0.056852
H	 1.0334039835	 0.8170421332	 1.8435896073	 0.090358
H	 0.7168937941	-0.9140755453	 2.0391355693	 0.094092
H	 1.6037644015	-2.8426506823	-0.8029634427	 0.117065
H	 2.4918609327	-3.9080674162	 0.286868597	 0.109156
H	 1.1136724194	-2.9882937306	 0.891975923	 0.117059
H	 4.6659484863	-2.8774315394	-0.3186433819	 0.104719
H	 4.9305315718	-1.0919340383	-0.0874962897	 0.106642
H	 4.2299494195	-1.2999265974	 2.3351157327	 0.106643
H	 3.9645074928	-3.0856391	 2.106445554	 0.104718
71.4399	71.8599	191.4192	234.5548	245.0312	245.414	293.5168	310.1403	362.5794	384.2787	436.5518	496.0869	666.5854	674.7196	785.8071	800.4826	859.2557	868.7575	881.3148	900.8881	923.2167	946.4795	953.5206	971.9888	997.0211	1036.0694	1056.7447	1061.1812	1077.8392	1104.9843	1123.9087	1137.5492	1142.8286	1187.9233	1225.4831	1228.5918	1264.6235	1279.4022	1285.6366	1292.0805	1335.4667	1369.9221	1397.2681	1409.2934	1425.5727	1467.6594	1471.4173	1492.7795	1496.7794	1499.8885	1500.7168	1502.8304	1508.8406	3018.9913	3030.0359	3037.4445	3043.3385	3043.7566	3055.1214	3086.1986	3086.8399	3090.1211	3097.0392	3098.3349	3102.0887	3123.7974	3128.4294	3200.639	3214.8665
CC1CC(C1)C1(C)CC1	C[C@H]1C[C@@H](C1)C1(C)CC1	
InChI=1S/C9H16/c1-7-5-8(6-7)9(2)3-4-9/h7-8H,3-6H2,1-2H3	InChI=1S/C9H16/c1-7-5-8(6-7)9(2)3-4-9/h7-8H,3-6H2,1-2H3/t7-,8-
