23
gdb 76624	2.26069	1.36404	1.08062	1.9613	85.16	-0.2523	0.075	0.3273	1260.3232	0.203925	-388.260559	-388.250491	-388.249547	-388.295634	38.104	
C	-0.6572822301	-0.6775325621	-1.0328499421	-0.418889
C	 0.1005286625	-1.4247704303	 0.0450192228	-0.03026
C	 1.6113839614	-1.5331616137	 0.0505641284	-0.028645
C	 2.4665424915	-0.7998921675	-0.9631754481	-0.410371
C	 0.8977647235	-0.8128373603	 1.1822477904	-0.102416
C	 1.1042647562	 0.6399974968	 1.517765359	 0.391026
C	 2.4939149787	 0.979346164	 2.0231045911	-0.448896
C	 0.2513691352	 1.735024093	 1.0192551817	-0.229734
O	 0.0567937636	 1.2107072725	 2.3294329243	-0.277414
H	-0.1192622019	 0.1940556494	-1.4102712973	 0.118756
H	-0.83737413	-1.3410475367	-1.8864227456	 0.114541
H	-1.6344525766	-0.3393301704	-0.6713866448	 0.124626
H	-0.41381578	-2.3362051383	 0.3415760802	 0.084826
H	 2.0087444357	-2.5120286923	 0.3082645265	 0.080332
H	 2.1290927663	 0.2258405277	-1.1331615325	 0.120542
H	 3.5083732644	-0.7479973212	-0.6287298641	 0.119028
H	 2.459383148	-1.315868253	-1.9299999785	 0.115172
H	 0.8441690989	-1.3878226613	 2.1056419375	 0.093573
H	 3.2427538694	 0.8630357879	 1.2341683688	 0.122522
H	 2.5251021161	 2.0083071212	 2.3904033338	 0.122596
H	 2.7707869974	 0.3141371763	 2.8483098525	 0.122009
H	 0.6645028881	 2.7437650813	 0.9739704577	 0.102143
H	-0.555421808	 1.5432277869	 0.3189266383	 0.114932
29.0833	149.0172	178.3438	189.6965	206.2233	257.6751	260.8398	284.4575	329.708	362.0169	396.2129	465.2965	533.8126	584.9077	705.0927	760.616	784.9412	806.9562	886.7004	924.4372	953.7296	957.5782	999.686	1036.3383	1052.9656	1076.7664	1112.4334	1128.6928	1138.6883	1148.4687	1162.7293	1177.2419	1192.6865	1227.8078	1281.2261	1378.5982	1385.6281	1405.8435	1410.3566	1417.6923	1422.4338	1451.42	1484.0037	1490.8822	1496.2387	1497.3003	1506.6569	1515.4224	1535.197	3029.7578	3033.4535	3038.4119	3080.7585	3083.8919	3085.7581	3104.177	3106.2466	3108.0978	3119.4816	3124.2369	3127.6255	3139.8169	3190.4594
CC1C(C)C1C1(C)CO1	C[C@H]1[C@@H](C)[C@H]1[C@@]1(C)CO1	
InChI=1S/C8H14O/c1-5-6(2)7(5)8(3)4-9-8/h5-7H,4H2,1-3H3	InChI=1S/C8H14O/c1-5-6(2)7(5)8(3)4-9-8/h5-7H,4H2,1-3H3/t5-,6+,7-,8-/m1/s1
