23
gdb 122671	4.42086	0.72523	0.68654	0.5839	82.86	-0.2571	0.0896	0.3467	1771.7013	0.206079	-425.442284	-425.432382	-425.431438	-425.478665	35.45	
C	 0.1709494625	 1.383588147	-0.1522243372	-0.381465
C	 0.2956671361	-0.1360614097	-0.0178010914	-0.182541
C	 0.7801804185	-0.5577585592	 1.3621101133	-0.044641
O	 0.8588247001	-1.9760646974	 1.3993144788	-0.261433
C	 1.2899035953	-2.4938499606	 2.6322424232	 0.229893
C	 1.2420546373	-4.0340791652	 2.5372352261	-0.262687
C	 2.7224856379	-4.4645161271	 2.6368274087	-0.209564
C	 3.4646222546	-3.153883136	 2.3498741666	-0.087858
O	 2.6306079721	-2.146200137	 2.9202633387	-0.250813
H	 1.1330007109	 1.8793502401	 0.0181563141	 0.117119
H	-0.1738582789	 1.663256277	-1.151914551	 0.115549
H	-0.5435650362	 1.7916743727	 0.5712539979	 0.115626
H	-0.6703853022	-0.6161030433	-0.2126945821	 0.103065
H	 0.994324228	-0.5269358263	-0.7666109911	 0.104286
H	 1.7629982012	-0.1189153536	 1.581367343	 0.104439
H	 0.0826496207	-0.2027989978	 2.1403540781	 0.081293
H	 0.6863868534	-2.0656391159	 3.4451727156	 0.066128
H	 0.6294421336	-4.4640433799	 3.3320487304	 0.106959
H	 0.7958638191	-4.3067443607	 1.5789500442	 0.121529
H	 2.9581573176	-4.8114024768	 3.6470936404	 0.107737
H	 2.9834643127	-5.2614923929	 1.9365595252	 0.102996
H	 4.4466239198	-3.0807808981	 2.8231204492	 0.105396
H	 3.581213936	-2.9920274093	 1.2686947093	 0.098984
43.7305	58.0543	72.1946	127.897	168.346	224.6115	234.1971	301.6137	338.6007	485.33	578.4203	617.3856	742.8816	764.0488	838.7648	872.0488	898.7988	905.0077	930.2704	935.1672	960.1599	996.4143	1045.9254	1056.4711	1072.3433	1110.1797	1140.4172	1160.686	1192.3072	1212.3697	1233.0346	1258.3563	1267.1963	1308.8258	1312.6886	1320.04	1331.6273	1360.2955	1378.8526	1400.1423	1411.5665	1441.3929	1482.0699	1491.9183	1498.1371	1499.8846	1508.2689	1519.4624	1528.7865	2958.9438	3003.5759	3005.5519	3027.3949	3031.6389	3037.3463	3059.608	3070.5492	3079.7582	3099.5059	3099.6786	3107.3187	3108.8339	3131.2549
CCCOC1CCCO1	CCCO[C@H]1CCCO1	
InChI=1S/C7H14O2/c1-2-5-8-7-4-3-6-9-7/h7H,2-6H2,1H3	InChI=1S/C7H14O2/c1-2-5-8-7-4-3-6-9-7/h7H,2-6H2,1H3/t7-/m1/s1
