17
gdb 105596	1.76293	1.71593	1.2174	3.3839	68.64	-0.2673	-0.0516	0.2157	1110.7044	0.134161	-458.996891	-458.987784	-458.98684	-459.031439	31.901	
C	-0.0841756625	 1.6112047525	-0.0283250273	-0.401729
C	 0.1276178278	 0.0930170545	 0.04168272	-0.257071
C	 0.7665074638	-0.5273088242	-1.2200321284	-0.004106
C	 0.6299363565	-2.0476421346	-1.4042797963	-0.130108
O	-0.2246461949	-1.8387500536	-2.5833380156	-0.238847
C	-0.1487646387	-0.4831178444	-2.4693378303	 0.440163
O	-0.6651068166	 0.3488872636	-3.1436271275	-0.323101
C	 2.154370863	 0.0185844806	-1.5039121316	 0.116975
O	 3.1409497475	-0.6657076226	-1.5954945041	-0.242371
H	 0.8608229804	 2.1618126381	-0.0234824124	 0.125363
H	-0.6342443766	 1.8882721394	-0.931451645	 0.156913
H	-0.659598147	 1.9457364956	 0.8392677982	 0.126545
H	 0.7490102053	-0.1673226092	 0.9070537723	 0.119783
H	-0.8394809027	-0.3992961563	 0.1961025248	 0.120923
H	 1.5476853006	-2.568336659	-1.6746263575	 0.153722
H	 0.0792254549	-2.5773899753	-0.625503585	 0.127539
H	 2.2016809491	 1.1186078449	-1.6314390443	 0.109405
60.9834	94.7995	122.3063	154.2031	203.9182	257.7489	273.3352	316.4599	384.4242	467.3289	631.5804	682.5223	724.9167	787.672	808.7693	903.7587	912.1337	958.152	1007.3029	1030.6056	1055.261	1113.3769	1152.6717	1158.4005	1199.3351	1231.4516	1306.6103	1343.7247	1370.0609	1415.3105	1428.0694	1491.8685	1502.5367	1511.011	1512.6781	1816.5313	1922.7429	2934.2876	3029.1087	3048.9668	3065.8623	3088.8943	3115.6607	3129.6944	3162.7032
CCC1(COC1=O)C=O	CC[C@]1(COC1=O)C=O	
InChI=1S/C6H8O3/c1-2-6(3-7)4-9-5(6)8/h3H,2,4H2,1H3	InChI=1S/C6H8O3/c1-2-6(3-7)4-9-5(6)8/h3H,2,4H2,1H3/t6-/m1/s1
