16
gdb 127612	3.48717	1.64755	1.12688	2.4142	78.51	-0.1978	0.0142	0.2119	1029.9196	0.127857	-396.958567	-396.9511	-396.950156	-396.990957	28.133	
C	-0.0152638395	 1.4244572986	-0.0410069061	-0.335658
N	-0.0074500588	-0.0166870267	 0.0257148683	-0.11404
N	-0.0347184816	-0.753209985	-1.117965748	-0.268014
C	-0.0168978862	-2.036876058	-0.754809197	-0.136719
C	 0.0236358784	-2.1319029908	 0.6498445919	 0.228989
C	 0.0290544406	-0.819700248	 1.1253388144	 0.402708
C	 0.0692711921	-0.8433795095	 2.5490081272	-0.330434
C	 0.0868597071	-2.1816668746	 2.8823762207	-0.045224
N	 0.0595677629	-2.9663654367	 1.7454363816	-0.412821
H	 0.8908655047	 1.8456962192	 0.409030951	 0.132459
H	-0.0557458628	 1.7021789689	-1.0939517007	 0.157891
H	-0.888673602	 1.8381288226	 0.4756060497	 0.132506
H	-0.0339315109	-2.805448038	-1.511976928	 0.105567
H	 0.0839749693	-0.0198229117	 3.2440963683	 0.099727
H	 0.1172525104	-2.6420900849	 3.8579813199	 0.120954
H	 0.0654669563	-3.9696987353	 1.738063817	 0.262108
48.2078	151.3945	240.9137	265.54	322.3085	369.559	529.5924	607.5862	624.036	631.1418	698.3574	710.5865	752.2453	802.0329	828.1609	836.6696	928.4926	1006.0915	1069.0016	1100.5058	1152.4262	1154.9961	1208.2117	1250.7476	1309.7142	1342.4079	1395.2927	1423.0605	1445.6394	1483.4744	1487.4746	1508.5914	1518.5428	1561.1676	1622.1693	3026.401	3078.9261	3159.5768	3249.6609	3251.6518	3269.4216	3700.5471
CN1N=CC2=C1C=CN2	Cn1ncc2c1cc[nH]2	
InChI=1S/C6H7N3/c1-9-6-2-3-7-5(6)4-8-9/h2-4,7H,1H3	InChI=1S/C6H7N3/c1-9-6-2-3-7-5(6)4-8-9/h2-4,7H,1H3
