18
gdb 54411	3.31768	1.38512	1.19016	4.6707	70.96	-0.2594	0.0071	0.2665	1063.9393	0.150762	-439.103245	-439.095934	-439.094989	-439.135188	28.98	
O	 0.1137618232	 0.1424041776	 0.2971573843	-0.339369
C	-0.0644216104	 1.2940428532	 0.0059477919	 0.343737
O	 0.9276629819	 2.1007783964	-0.4195557827	-0.375592
C	-1.4081327974	 1.9811664711	 0.0408933541	 0.176488
C	-2.2728264233	 2.1130611876	-1.252367563	-0.230187
C	-2.7993423759	 3.3295059258	-0.4544773895	-0.00294
C	-3.5425631826	 2.6565266216	 0.7251646776	-0.231097
C	-2.4572381374	 1.5925247891	 1.1021287698	-0.26631
N	-1.3896369513	 3.4864412416	 0.0460686553	-0.361107
H	-1.342445466	 3.8783885171	 0.9885179608	 0.216957
H	 0.5262219871	 2.9775908257	-0.5688176077	 0.304872
H	-1.6785605945	 2.4016574991	-2.1190726106	 0.118567
H	-2.9603400834	 1.2997852406	-1.4859899086	 0.113396
H	-3.2601279495	 4.1928368632	-0.934576997	 0.080535
H	-3.743691835	 3.3623156012	 1.5361801622	 0.103555
H	-4.4949746286	 2.2134846452	 0.4220477156	 0.110573
H	-2.7939143998	 0.5603303176	 0.9932834496	 0.127439
H	-2.0692119971	 1.7135305263	 2.1168674878	 0.110486
84.6158	175.5869	190.9423	315.4415	376.4107	427.5823	495.9664	565.9524	681.326	723.5348	743.6457	761.691	831.8981	846.9557	850.6396	878.0765	920.0993	945.7005	983.1148	984.8859	1032.7038	1075.9032	1112.2122	1115.8539	1146.8383	1164.2296	1203.5686	1224.1451	1230.7485	1277.2457	1291.7975	1307.5503	1324.4896	1345.3503	1408.4561	1486.606	1494.0182	1515.4626	1869.4414	3057.4301	3073.6524	3090.6872	3100.8687	3119.1637	3127.4618	3161.2089	3428.772	3607.089
[O-]C(=O)C12CC(CC1)[NH2+]2	O=C(O)[C@@]12C[C@@H](CC1)N2	
InChI=1S/C6H9NO2/c8-5(9)6-2-1-4(3-6)7-6/h4,7H,1-3H2,(H,8,9)	InChI=1S/C6H9NO2/c8-5(9)6-2-1-4(3-6)7-6/h4,7H,1-3H2,(H,8,9)/t4-,6+/m1/s1
