15
gdb 125066	3.12803	1.39042	1.03166	3.1386	68.12	-0.2587	-0.0385	0.2202	1106.4779	0.111606	-453.905764	-453.897837	-453.896893	-453.939032	28.423	
C	-0.4397790617	 1.028461024	 1.0412630827	-0.507225
C	-0.1837024125	-0.1448708761	 0.1662350885	 0.321463
C	-0.9694001773	-0.9063828551	-0.6532083248	 0.164321
N	-0.1458825884	-1.8481047169	-1.2295421292	-0.183986
N	 1.0362595967	-1.7204409813	-0.8230007556	-0.013859
O	 1.0618458747	-0.6214556384	 0.0902100381	-0.207838
C	-2.4081218844	-0.8511410959	-0.9811742562	-0.026823
C	-3.4664472645	-0.9508440802	 0.0403393776	-0.175253
O	-3.1294055247	 0.3061030958	-0.5512092447	-0.22715
H	-0.2487053822	 0.7801303789	 2.0906066248	 0.151997
H	 0.22426785	 1.8563809261	 0.7739909939	 0.156903
H	-1.4752037197	 1.347799776	 0.9248372838	 0.172743
H	-2.6444606768	-1.1923061247	-1.9881589149	 0.122297
H	-4.4420442928	-1.3478181104	-0.2342523564	 0.130403
H	-3.1848159065	-1.0665543517	 1.0852519124	 0.122007
46.703	151.0849	167.4735	189.9431	255.3997	321.695	406.8651	460.1506	652.9273	668.4886	684.8202	696.685	742.0706	866.1789	905.0002	999.7801	1003.6855	1031.9394	1071.3375	1094.5565	1151.0568	1170.3586	1197.3515	1236.6726	1281.7878	1345.3735	1411.4652	1441.5115	1476.9041	1481.2115	1489.4746	1525.7736	1651.7365	3045.5657	3090.7707	3102.1702	3125.7687	3162.9346	3184.7395
CC1=C(N=NO1)C1CO1	Cc1c(nno1)[C@H]1CO1	
InChI=1S/C5H6N2O2/c1-3-5(4-2-8-4)6-7-9-3/h4H,2H2,1H3	InChI=1S/C5H6N2O2/c1-3-5(4-2-8-4)6-7-9-3/h4H,2H2,1H3/t4-/m1/s1
