23
gdb 103929	3.1888	1.09979	1.02876	1.1669	86.09	-0.2369	0.0716	0.3085	1325.359	0.203849	-388.272681	-388.262814	-388.26187	-388.306743	38.325	
C	-0.075061945	 1.566457469	-0.0557592837	-0.404416
C	 0.1025361093	 0.0437253732	-0.0832777209	-0.220414
C	 0.6919383041	-0.5316441412	 1.2056600096	 0.425405
O	 1.997252479	-0.0169506061	 1.4446120115	-0.492297
C	-0.1845949694	-0.5039596584	 2.5137373969	-0.357002
C	 0.0069005068	-2.0246401857	 2.6536000216	 0.375363
C	 0.2562307589	-2.735352883	 3.9520261932	-0.500237
C	-0.5665795111	-2.6943068273	 1.4370089862	-0.344914
C	 0.7937567926	-2.053701565	 1.3402898382	-0.122114
H	 0.8856037149	 2.0845078105	 0.0446357006	 0.109749
H	-0.5328903831	 1.9249616845	-0.9823222004	 0.118623
H	-0.7179557935	 1.8822017159	 0.7738137269	 0.119429
H	-0.8665751208	-0.4288665096	-0.2769734407	 0.093802
H	 0.763411844	-0.2369139707	-0.9124747017	 0.101405
H	 1.920827646	 0.933807067	 1.5768122368	 0.274083
H	 0.3225032307	 0.0642261894	 3.2974543369	 0.097188
H	-1.220247287	-0.1556238144	 2.4258048066	 0.082338
H	-0.6433932546	-2.7462785943	 4.5801468177	 0.11567
H	 0.5512689216	-3.7763579058	 3.7823255541	 0.115661
H	 1.0548221532	-2.2500449274	 4.5245804874	 0.119339
H	-0.5523493668	-3.7801933849	 1.4558075818	 0.107956
H	-1.4274483362	-2.2793469331	 0.9171001833	 0.100178
H	 1.6853887963	-2.6129727326	 1.0812468882	 0.085205
89.0405	122.1511	153.5865	207.0011	228.468	277.9611	298.9247	314.9276	341.272	387.2887	435.2635	451.7695	499.4249	594.1553	676.6669	778.8149	799.3873	817.5164	886.188	898.3612	950.5078	959.4639	983.7465	994.44	1013.8259	1034.0458	1058.1644	1071.6274	1091.0455	1103.3972	1153.84	1166.3994	1217.7877	1246.2439	1255.7637	1285.0205	1314.0095	1333.6514	1391.8837	1396.4339	1408.3097	1423.4026	1468.4918	1476.5471	1485.9089	1497.3637	1499.8558	1506.2372	1510.8071	3017.2659	3026.5402	3030.6687	3033.4205	3067.9412	3075.7852	3093.2218	3093.6664	3101.47	3102.5898	3103.9572	3178.1905	3189.9626	3808.2203
CCC1(O)CC2(C)CC12	CC[C@@]1(O)C[C@@]2(C)C[C@@H]12	
InChI=1S/C8H14O/c1-3-8(9)5-7(2)4-6(7)8/h6,9H,3-5H2,1-2H3	InChI=1S/C8H14O/c1-3-8(9)5-7(2)4-6(7)8/h6,9H,3-5H2,1-2H3/t6-,7-,8-/m1/s1
