20
gdb 86779	2.75827	1.05943	0.95203	4.0956	79.25	-0.2703	0.0417	0.3121	1317.2178	0.170354	-403.156074	-403.14659	-403.145646	-403.190505	35.137	
C	-0.6377047265	 1.3484193052	-0.1789787764	-0.417642
C	-0.0463305975	-0.0503919073	-0.094588397	 0.009703
C	 1.3050655406	-0.3576137281	-0.7962862041	 0.103727
O	 2.0993276041	 0.8191707052	-0.8210122848	-0.428665
C	 1.653455855	-1.309145717	 0.3813034448	-0.260947
C	 0.5569022777	-0.6115793782	 1.2376114651	-0.011177
C	 1.1095878309	 0.4634053479	 2.1904559945	-0.361486
C	 1.8463987017	-0.1261272538	 3.3070027231	 0.260979
N	 2.4301857103	-0.6117242984	 4.1785385266	-0.312525
H	 0.0921524131	 2.1154185202	 0.0882528464	 0.134989
H	-0.9749402917	 1.5610709552	-1.1987327923	 0.119395
H	-1.5053859826	 1.4467330295	 0.4826519165	 0.113714
H	-0.7810152944	-0.7790207015	-0.4541491458	 0.081849
H	 1.2471151665	-0.8053890833	-1.7970579753	 0.065825
H	 2.9935997069	 0.5694449148	-1.0757081935	 0.287997
H	 1.4046408904	-2.35014145	 0.1600791964	 0.10795
H	 2.6803449647	-1.2645117876	 0.7552054975	 0.108989
H	-0.0994820287	-1.2811309172	 1.7988260158	 0.084896
H	 1.7795690467	 1.1347980352	 1.6442581824	 0.165878
H	 0.2955488829	 1.0749600993	 2.5959933302	 0.146552
62.5688	118.3636	136.2938	188.773	210.8331	246.7209	307.673	338.6666	398.3272	412.0316	432.808	537.753	545.0773	710.2532	812.2823	836.3137	862.0332	902.0059	922.9685	944.2705	992.6686	999.5329	1054.2393	1081.7294	1140.2064	1148.0469	1162.3664	1194.9222	1227.6804	1249.4216	1269.3606	1286.7819	1312.0031	1330.4293	1371.64	1381.1903	1406.4856	1419.4574	1469.6587	1477.1509	1490.993	1503.6145	2358.3969	3008.1073	3036.2386	3046.8087	3048.2587	3057.9098	3073.4898	3095.9972	3098.2307	3114.3925	3128.88	3814.4065
CC1C(O)CC1CC#N	C[C@H]1[C@@H](O)C[C@H]1CC#N	
InChI=1S/C7H11NO/c1-5-6(2-3-8)4-7(5)9/h5-7,9H,2,4H2,1H3	InChI=1S/C7H11NO/c1-5-6(2-3-8)4-7(5)9/h5-7,9H,2,4H2,1H3/t5-,6-,7+/m1/s1
