14
gdb 21267	3.51664	1.89228	1.24	2.9229	60.06	-0.199	0.032	0.231	919.6949	0.107754	-415.857931	-415.850248	-415.849304	-415.889967	27.631	
C	-0.0673569574	 1.4290963153	 0.0285711037	-0.246631
O	-0.0044346993	 0.0173564874	 0.0490828906	-0.257695
C	 0.6101843497	-0.5435952561	-1.0197920172	 0.208305
C	 1.1925409776	 0.0217065119	-2.1385938526	-0.148921
N	 1.6565711403	-1.0165545097	-2.8862928878	-0.212242
N	 1.4128064261	-2.2232820939	-2.3241993886	-0.320932
C	 0.7813468447	-1.9398826394	-1.1976565395	 0.327581
O	 0.3603906455	-2.8897969698	-0.3366424684	-0.428297
H	 0.9380395236	 1.8733104346	 0.0122052712	 0.116984
H	-0.6282283533	 1.7910576288	-0.8448297018	 0.116981
H	-0.5824173402	 1.7349903395	 0.9404812433	 0.136829
H	 1.307632445	 1.0466733528	-2.4479096916	 0.131768
H	 2.1361609506	-0.9765851784	-3.7664111993	 0.273897
H	 0.6124963472	-3.7413587131	-0.7151161122	 0.302375
82.5041	198.0633	199.7154	223.4689	291.5113	330.2107	357.6608	430.4931	559.8106	623.8122	633.7008	711.6284	745.68	786.3661	932.8133	1071.5958	1078.2893	1150.5032	1181.6863	1218.1033	1254.4746	1282.5733	1332.1579	1457.9404	1479.7672	1485.4115	1493.5807	1507.7698	1594.3835	1655.997	2989.9507	3042.8612	3135.1706	3275.4368	3706.5254	3796.9804
COC1=CNN=C1O	COc1c[nH]nc1O	
InChI=1S/C4H6N2O2/c1-8-3-2-5-6-4(3)7/h2H,1H3,(H2,5,6,7)	InChI=1S/C4H6N2O2/c1-8-3-2-5-6-4(3)7/h2H,1H3,(H2,5,6,7)
