21
gdb 94687	2.42731	1.61455	1.19266	1.5745	78.32	-0.2411	0.0659	0.307	1119.7522	0.18135	-424.226597	-424.2174	-424.216456	-424.259683	35.774	
C	-0.1180256073	 1.4434649372	-0.1410244157	-0.402217
C	 0.0125587675	-0.0568717279	 0.0652921474	 0.085677
O	 0.7096765942	-0.604758437	-1.0638020044	-0.268983
C	 1.3162108216	-1.8278810176	-0.6799144446	-0.146101
C	 1.6582734094	-1.6636344884	 0.7919533237	 0.342616
O	 1.9644214749	-2.7904079804	 1.548631251	-0.468777
C	 2.3081897072	-0.3718970542	 1.1725182235	-0.37188
C	 0.7977525097	-0.5168962787	 1.2891511586	 0.240445
C	 0.1332295813	-0.5318876739	 2.6411705351	-0.498582
H	 0.8659382345	 1.9208184649	-0.1450262296	 0.122154
H	-0.6082256831	 1.6538261484	-1.095818927	 0.124861
H	-0.7186527816	 1.8879992233	 0.6587377858	 0.114677
H	-0.9971192168	-0.5033883564	 0.1248349366	 0.057689
H	 0.6258535642	-2.683375725	-0.8011062585	 0.074049
H	 2.1817367285	-1.992682229	-1.3300046487	 0.112155
H	 1.1967321441	-3.374371745	 1.545182089	 0.28233
H	 2.8602075399	-0.3789635559	 2.1059356252	 0.118352
H	 2.7282392253	 0.2521585997	 0.3898808993	 0.11961
H	 0.7191454822	-1.1271727204	 3.3481325989	 0.12871
H	 0.0283719834	 0.4766078402	 3.0565195658	 0.122571
H	-0.8705848392	-0.9708838138	 2.5849062188	 0.110645
131.008	181.8215	199.5841	211.7506	228.2018	254.4035	300.369	322.544	386.5968	413.7371	465.6538	532.1776	578.4589	638.6452	691.1632	750.2711	850.2412	886.1964	926.7319	939.0548	969.4093	1042.4089	1058.0775	1068.9672	1083.7949	1098.8696	1118.7999	1147.4333	1165.3694	1219.8352	1257.3377	1286.0016	1308.3489	1360.8987	1372.2566	1390.2914	1410.2944	1414.7558	1421.541	1484.0017	1486.7968	1492.8129	1496.1081	1504.9089	1515.2371	2927.1817	2933.8904	3021.2813	3042.0706	3069.2745	3078.6691	3103.3374	3114.4936	3120.6435	3128.0583	3220.2261	3781.2095
CC1OCC2(O)CC12C	C[C@H]1OC[C@@]2(O)C[C@@]12C	
InChI=1S/C7H12O2/c1-5-6(2)3-7(6,8)4-9-5/h5,8H,3-4H2,1-2H3	InChI=1S/C7H12O2/c1-5-6(2)3-7(6,8)4-9-5/h5,8H,3-4H2,1-2H3/t5-,6+,7+/m1/s1
