19
gdb 37493	3.34867	2.16699	1.91163	1.2259	83.3	-0.1873	-0.0664	0.1208	813.2654	0.162602	-348.627009	-348.621268	-348.620324	-348.656463	26.359	
C	-0.0531006728	 1.5588594769	-0.0362697654	-0.258568
C	 1.473529204	 1.3824308052	-0.0193333584	-0.009421
C	 1.2833678172	 0.0469953063	 0.8058528592	-0.037769
C	-0.0698473593	 0.016195325	 0.0141005416	-0.027003
C	 0.6119988096	-0.468895832	-1.2760134821	-0.069402
C	 1.4625233486	-1.6251759953	-0.8349514171	-0.087807
C	 2.2018187764	-1.0079940956	 0.1539494831	-0.025907
C	 3.141460725	-0.194893662	-0.780766194	-0.247323
C	 1.8811043913	 0.6565615971	-1.3063291315	-0.044284
H	-0.4268864103	 2.0063953846	 0.8891220648	 0.09672
H	-0.5166426979	 2.0507010447	-0.8984469834	 0.086696
H	 2.15141163	 2.1668087763	 0.3197960171	 0.064278
H	 1.256488475	 0.1303173503	 1.8906395929	 0.065161
H	-0.9450584268	-0.5474484833	 0.3371667572	 0.065672
H	 0.0076829144	-0.553139161	-2.1797825586	 0.06607
H	 1.9391893324	-2.2713877596	-1.5707580881	 0.098506
H	 3.8778486588	 0.4552969888	-0.2951585509	 0.097971
H	 3.6363279642	-0.7885424766	-1.550932357	 0.10532
H	 2.0090542703	 1.2824891603	-2.1947258094	 0.061091
369.4081	380.5931	394.9104	423.9601	577.9073	620.784	655.9342	674.3837	742.9362	818.5005	839.8797	857.3319	868.8954	879.1293	890.0672	924.6857	945.9242	952.843	977.5277	991.4453	1004.9503	1030.0441	1060.7644	1074.6949	1087.0848	1108.4772	1130.3122	1179.8196	1190.5046	1215.4357	1224.8254	1236.9664	1241.4731	1248.9225	1261.7012	1284.3826	1303.3142	1312.795	1452.4275	1497.8028	1502.6466	3037.1046	3038.1346	3068.3343	3095.4419	3103.6184	3103.8606	3113.3411	3117.1937	3127.3968	3133.2508
C1C2C3C1C1C=C3CC21	C1[C@H]2[C@H]3[C@@H]1[C@@H]1[CH][C]3C[C@H]21	
InChI=1S/C9H10/c1-4-2-6-5(1)7-3-8(6)9(4)7/h1,5-9H,2-3H2	InChI=1S/C9H10/c1-4-2-6-5(1)7-3-8(6)9(4)7/h1,5-9H,2-3H2/t5-,6+,7+,8-,9-/m1/s1
