20
gdb 76665	2.74463	0.995	0.91511	3.8438	77.52	-0.2285	0.0387	0.2671	1395.8983	0.168679	-440.303083	-440.292567	-440.291623	-440.339701	37.126	
C	-0.2345753794	 1.385799007	 0.2380211448	-0.416288
C	 0.0759738118	-0.0849604883	 0.0854315296	-0.063444
C	 1.4558736238	-0.5621682271	-0.3258906632	 0.020873
O	 2.5099966498	 0.3584672503	-0.4247621514	-0.425427
C	 0.9760795321	-0.8135882146	 1.0755970764	 0.020963
N	 1.6459487458	-0.0989343477	 2.113356014	-0.317184
C	 1.3047383115	-0.2448915839	 3.4274530377	 0.405521
C	 2.2016432861	 0.4942801234	 4.409658157	-0.486037
O	 0.3651947916	-0.9311764337	 3.7876869295	-0.375946
H	 0.6274364083	 1.9405643946	 0.6146407197	 0.118365
H	-0.532705268	 1.8293130064	-0.7188517719	 0.111959
H	-1.05766504	 1.5339871094	 0.9439517489	 0.134753
H	-0.7438454608	-0.6862781741	-0.299090866	 0.092188
H	 1.5379636204	-1.4100402481	-1.0043854974	 0.094499
H	 2.3423231168	 0.9371370555	-1.1756022304	 0.296841
H	 0.6916649213	-1.818419151	 1.3657091241	 0.120404
H	 2.4621080992	 0.4283019828	 1.8463931994	 0.256404
H	 2.8458207761	 1.2399899639	 3.9362423826	 0.112482
H	 1.5735056045	 0.9808289991	 5.1585989371	 0.14971
H	 2.8326335792	-0.2317906341	 4.9318032096	 0.149364
37.4665	66.3237	96.5742	128.5301	150.2172	197.8741	236.4642	270.8329	283.9959	390.4058	492.1043	501.8719	587.0753	594.4011	634.1211	661.7851	762.0643	795.7784	904.5812	960.4918	976.6109	1009.5634	1031.3876	1050.6559	1073.8073	1111.6789	1143.3711	1171.9825	1196.8794	1246.1277	1268.3511	1303.7147	1361.1468	1379.0586	1394.6993	1416.7253	1448.8314	1471.3837	1487.0404	1495.3359	1502.7389	1531.1678	1778.907	3035.596	3047.9235	3094.8891	3107.2234	3118.1121	3123.2921	3139.3315	3144.5905	3179.5654	3634.7885	3812.1223
CC1C(O)C1NC(C)=O	C[C@H]1[C@@H](O)[C@H]1NC(=O)C	
InChI=1S/C6H11NO2/c1-3-5(6(3)9)7-4(2)8/h3,5-6,9H,1-2H3,(H,7,8)	InChI=1S/C6H11NO2/c1-3-5(6(3)9)7-4(2)8/h3,5-6,9H,1-2H3,(H,7,8)/t3-,5+,6-/m1/s1
