18
gdb 71731	2.61279	2.04949	1.49043	2.8521	73.71	-0.2173	0.0649	0.2823	926.6673	0.148097	-401.888173	-401.880767	-401.879823	-401.919423	30.175	
C	-0.0808352552	 1.4735531762	 0.0590933693	-0.500785
C	-0.0283677678	-0.0277451505	-0.0421122955	 0.225729
C	-0.4211430597	-0.7879045596	-1.2963170186	-0.29774
C	-0.1897227068	-2.1955752904	-0.7965382585	-0.043041
C	 0.9193269908	-2.2443597554	 0.1904231171	-0.139835
N	-0.5017661472	-2.3187823675	 0.66503799	-0.155498
C	-0.3739680872	-0.8940624227	 1.1609329884	-0.124225
C	 1.0526669368	-0.8001538684	 0.7200711475	 0.336594
O	 2.1288305884	-0.2472014471	 1.3754192378	-0.461361
H	 0.5413327781	 1.9466171122	-0.7100136702	 0.113855
H	-1.1030202179	 1.8463951148	-0.0681108718	 0.123152
H	 0.285063135	 1.8122369571	 1.0326765836	 0.133058
H	-1.465990183	-0.6156727521	-1.5785560649	 0.107541
H	 0.2138446779	-0.546767008	-2.1572669701	 0.099765
H	-0.4534528434	-3.0645964693	-1.3898515579	 0.095543
H	 1.6166012725	-3.0601743895	 0.3454061662	 0.097975
H	-0.9036900888	-0.5710006611	 2.0472924752	 0.100931
H	 2.7382583675	 0.1113994713	 0.7196137024	 0.288343
179.2661	204.2977	227.41	292.4266	327.1346	373.445	425.3639	551.3274	592.0055	633.2052	720.6899	737.2403	756.6366	804.496	826.0478	900.4188	932.7214	952.8263	962.3815	990.8393	999.4345	1033.5607	1048.0818	1085.6365	1116.5888	1155.7313	1181.8824	1202.6388	1216.0038	1246.7323	1270.7549	1308.6836	1355.4677	1374.8676	1417.4927	1463.6093	1489.1849	1491.4011	1506.3851	3025.0695	3033.3786	3074.6277	3081.6326	3109.1985	3168.9011	3179.7665	3202.1028	3777.9682
CC12CC3C4N3C1C24O	C[C@]12C[C@H]3[C@@H]4N3[C@H]1[C@]24O	
InChI=1S/C7H9NO/c1-6-2-3-4-7(6,9)5(6)8(3)4/h3-5,9H,2H2,1H3	InChI=1S/C7H9NO/c1-6-2-3-4-7(6,9)5(6)8(3)4/h3-5,9H,2H2,1H3/t3-,4-,5+,6-,7-,8?/m0/s1
