17
gdb 62523	1.78152	1.55374	1.08425	4.6434	72.33	-0.2426	-0.0491	0.1935	1168.4766	0.132024	-458.965642	-458.956079	-458.955135	-459.000084	34.333	
C	-0.0143034116	 1.4888866172	-0.3629428943	-0.478914
C	 0.0078813534	 0.0120970634	-0.0453644249	 0.381718
O	-1.1666658974	-0.6681268406	-0.3661548001	-0.442597
C	 1.298838869	-0.8173498645	-0.2035676927	-0.203834
C	 2.5782774421	-0.2198074428	-0.6369921119	 0.141997
O	 3.0556824256	 0.8194600324	-0.236537663	-0.275584
C	 0.6605751914	-0.5426642732	 1.1822670632	-0.168501
C	 1.3123566719	 0.3181789591	 2.213167395	 0.146159
O	 1.2724012515	 0.0389905279	 3.3874195391	-0.264761
H	 0.9425779927	 1.9680165198	-0.1565656916	 0.16774
H	-0.2358572255	 1.6366288236	-1.4270476435	 0.116397
H	-0.8000740846	 1.9805889939	 0.2178382579	 0.14189
H	-1.3975027563	-0.4562048205	-1.2782374424	 0.289283
H	 1.1188171942	-1.8217306245	-0.5716706186	 0.113914
H	 3.0997036384	-0.8099307755	-1.4222328849	 0.089899
H	 0.1631461702	-1.4070084147	 1.6094158564	 0.1309
H	 1.827251305	 1.2234365692	 1.8480663165	 0.114295
65.1544	116.1238	169.5266	205.453	216.9986	227.6669	271.0508	311.2541	337.4782	398.5743	433.4111	447.3603	522.1769	663.8162	725.9476	813.5506	873.9402	936.4015	1003.8917	1014.6515	1047.683	1058.6711	1085.9393	1093.636	1145.9756	1198.4353	1258.8544	1325.6301	1344.8953	1415.9768	1419.2064	1432.289	1451.3447	1499.1556	1505.2118	1790.1304	1806.4066	2891.0657	2989.1535	3033.4668	3100.3201	3157.3819	3172.5062	3182.4622	3791.7383
CC1(O)C(C=O)C1C=O	C[C@@]1(O)[C@@H](C=O)[C@H]1C=O	
InChI=1S/C6H8O3/c1-6(9)4(2-7)5(6)3-8/h2-5,9H,1H3	InChI=1S/C6H8O3/c1-6(9)4(2-7)5(6)3-8/h2-5,9H,1H3/t4-,5+,6+
