21
gdb 81237	2.80609	1.52969	1.38948	1.5984	82.6	-0.241	0.0933	0.3342	1055.2398	0.184706	-387.017955	-387.010292	-387.009347	-387.049874	31.032	
C	-0.0998975866	 1.5830790729	 0.0961007047	-0.45219
C	 0.0479204285	 0.0717819723	-0.0028322827	 0.044519
C	 1.2024331992	-0.6021564377	-0.7940121313	-0.101771
C	 2.1794009553	-0.2044265479	 0.375898331	-0.325974
C	 0.8840099759	-0.7479658164	 1.0482691809	 0.297168
C	 0.2951709838	-1.3528995245	 2.2920950745	-0.199481
O	-0.6305151858	-2.3239292056	 1.7608775878	-0.284848
C	-0.3444645691	-2.665584525	 0.3768157224	-0.123083
C	 0.9357952105	-1.9116760199	 0.0328422736	-0.018974
H	 0.834870972	 2.1084503311	 0.305859092	 0.117087
H	-0.5005416781	 1.9871525496	-0.8404558167	 0.117858
H	-0.8099224947	 1.8433231832	 0.8891795568	 0.119874
H	-0.932378595	-0.3610214304	-0.2134681677	 0.074177
H	 1.4109761491	-0.5229251262	-1.8628927612	 0.069644
H	 3.0742785508	-0.8225962532	 0.4853659383	 0.09683
H	 2.4205147651	 0.8516245058	 0.4948216041	 0.098212
H	 1.0588676366	-1.843133217	 2.9143966442	 0.093219
H	-0.2792391739	-0.6630434727	 2.9192512568	 0.104088
H	-0.2004680463	-3.749741805	 0.3131899878	 0.096947
H	-1.2192824191	-2.4076536944	-0.2300960358	 0.105345
H	 1.8177373916	-2.5521562791	 0.1271591207	 0.071354
109.7682	164.4311	207.4858	258.7439	338.0299	390.6257	446.7375	523.0018	581.7471	662.2972	724.878	776.2802	794.0889	821.6619	866.4925	869.2454	920.8288	967.3012	1004.3937	1012.029	1018.0222	1035.0643	1059.2622	1095.7791	1104.9482	1118.502	1140.3007	1151.7235	1174.6722	1198.7614	1204.5466	1215.7587	1222.4599	1255.4014	1288.5059	1343.7721	1374.1114	1402.4759	1408.4098	1428.4273	1495.4043	1497.0995	1513.9179	1530.1471	1533.8854	2989.53	3030.5488	3033.6269	3049.3542	3065.3291	3066.5011	3070.7252	3081.0682	3087.3684	3091.7398	3119.8241	3139.4452
CC1C2CC11COCC21	C[C@H]1[C@H]2C[C@]31COC[C@@H]23	
InChI=1S/C8H12O/c1-5-6-2-8(5)4-9-3-7(6)8/h5-7H,2-4H2,1H3	InChI=1S/C8H12O/c1-5-6-2-8(5)4-9-3-7(6)8/h5-7H,2-4H2,1H3/t5-,6+,7-,8+/m0/s1
