20
gdb 37960	2.53792	1.98811	1.422	0.9659	77.58	-0.2229	0.0849	0.3078	970.363	0.174259	-403.100132	-403.093209	-403.092265	-403.131016	29.15	
C	 0.0200560893	 1.5965379992	 0.1313656259	-0.319353
C	 1.5540682651	 1.5041533306	 0.128129545	-0.037599
C	 1.5197236234	 0.0118743963	-0.1284475872	-0.108955
C	-0.0184292176	 0.0334129289	-0.0401573562	 0.136864
O	-0.7983183664	-0.6052983383	-1.0172550328	-0.256584
C	-0.7686990693	-0.0658226888	-2.3267509728	-0.071916
C	 0.6207762004	 0.043208725	-2.9614547785	-0.208648
C	 1.4962033068	 1.1790219354	-2.4199317716	-0.155894
N	 2.0741801778	 0.935023181	-1.0915157857	-0.071545
H	-0.4053953875	 1.9138349438	 1.0852082358	 0.107692
H	-0.4185892503	 2.2071853904	-0.6614412171	 0.103687
H	 2.222894991	 2.0714073571	 0.7662069209	 0.093456
H	 2.1554745941	-0.781248596	 0.2531442947	 0.086929
H	-0.3288119443	-0.4239019945	 0.9038200457	 0.092848
H	-1.391763704	-0.743952654	-2.9184127108	 0.106929
H	-1.2574332503	 0.9221527295	-2.3471783111	 0.08739
H	 1.1471952549	-0.9127749326	-2.8534291523	 0.114258
H	 0.4800535514	 0.2075912199	-4.0376989294	 0.097921
H	 2.3369952596	 1.3325593199	-3.1069266088	 0.105733
H	 0.925131146	 2.117857467	-2.4214120036	 0.096787
183.8667	225.0804	284.1098	362.3065	382.5986	431.4065	480.5223	537.3113	635.4426	691.3268	769.6162	802.1564	840.8262	846.0799	900.5581	907.3362	949.6862	961.8671	993.8634	1014.8624	1026.1414	1045.1066	1079.7257	1087.5757	1125.8934	1145.7112	1199.1457	1214.1625	1230.5689	1253.5095	1262.5546	1271.9031	1309.3728	1314.4798	1371.2909	1383.536	1388.5323	1410.8773	1424.5314	1465.5952	1477.8071	1501.328	1519.8804	2971.8227	3009.0053	3023.003	3044.5898	3067.0551	3069.8478	3073.0436	3075.6399	3120.6564	3153.5196	3172.8072
C1C2C3C1OCCCN23	C1[C@H]2[C@H]3[C@@H]1OCCCN23	
InChI=1S/C7H11NO/c1-2-8-5-4-6(7(5)8)9-3-1/h5-7H,1-4H2	InChI=1S/C7H11NO/c1-2-8-5-4-6(7(5)8)9-3-1/h5-7H,1-4H2/t5-,6+,7-,8?/m0/s1
