13
gdb 10371	2.41245	2.22763	1.395	3.1185	63.97	-0.2785	-0.0043	0.2741	877.3078	0.09411	-361.406121	-361.398401	-361.397457	-361.439111	27.013	
C	-0.0659010708	-1.2421649898	-0.0971706713	-0.413233
C	-0.0529694819	-0.0422428288	-0.0592416664	 0.266897
C	-0.0094175623	 1.4076547458	 0.0171603721	-0.076355
C	-0.1093576222	 2.0222403531	 1.4608807209	-0.0908
O	 1.2135711428	 2.5648749589	 1.3797635311	-0.255426
C	 1.4250339738	 2.0499237504	 0.06018401	-0.090805
C	-0.9089740507	 2.0249899001	-0.9561331948	 0.247652
N	-1.6120564233	 2.538568577	-1.7155758376	-0.330045
H	-0.0853573697	-2.3036928237	-0.1395297133	 0.213586
H	-0.8769802717	 2.7946153295	 1.5710141437	 0.134226
H	-0.2114437841	 1.2681045896	 2.2470173574	 0.130044
H	 2.2318449584	 1.3121536735	 0.0165842335	 0.13004
H	 1.5891487516	 2.8391002045	-0.6802252653	 0.13422
34.1599	127.7726	176.5361	190.8736	240.9496	465.3265	476.8245	540.5267	577.6411	585.0947	651.8988	661.3316	843.103	892.7235	978.2717	983.6898	984.4665	1066.0694	1144.031	1155.9332	1165.1147	1263.3067	1309.1263	1367.5377	1504.9726	1530.1035	2246.4097	2361.1765	3036.888	3046.3361	3100.2166	3101.9517	3499.2323
C#CC1(COC1)C#N	C#CC1(COC1)C#N	
InChI=1S/C6H5NO/c1-2-6(3-7)4-8-5-6/h1H,4-5H2	InChI=1S/C6H5NO/c1-2-6(3-7)4-8-5-6/h1H,4-5H2
