15
gdb 51699	3.6198	1.05124	0.9093	3.8605	65.58	-0.2676	0.003	0.2706	1257.5157	0.113009	-491.096891	-491.088803	-491.087858	-491.130988	28.306	
N	-0.0568265443	 1.1816448266	-0.4171481309	-0.425123
C	-0.0415038891	-0.0474078028	-0.1522097546	 0.129968
O	-1.2050411371	-0.7524993781	-0.2091847276	-0.191868
C	-1.1164097863	-2.1277116366	 0.0710889686	 0.168688
C	-2.5272790819	-2.7183745064	 0.0464583352	-0.128733
O	-2.6166705319	-3.2972772395	-1.2550788996	-0.244731
C	-1.3719142762	-3.3906886596	-1.7990236582	 0.493169
N	-1.0442050568	-3.9150297256	-2.8883584241	-0.567913
O	-0.4517980074	-2.825293359	-0.9616748783	-0.218446
H	 0.8784476468	 1.5727268749	-0.323849342	 0.238836
H	 0.8251702686	-0.6547540421	 0.134162656	 0.1093
H	-0.5609840122	-2.2986861245	 0.9978782256	 0.112639
H	-2.6585134426	-3.4944070052	 0.8070667441	 0.130879
H	-3.2888703374	-1.9459266197	 0.1554872326	 0.154572
H	-1.8580052221	-4.3132804524	-3.3504405566	 0.238764
52.9026	87.2182	117.0673	138.4122	220.2702	385.3116	438.1951	508.0537	628.1775	713.2866	734.1312	812.2599	827.8305	830.7669	897.3461	915.9975	992.0608	1006.4311	1042.4429	1057.974	1091.0671	1125.9947	1146.9911	1225.3729	1255.7937	1273.3774	1368.9393	1386.8558	1416.8729	1433.4886	1509.9215	1756.705	1815.1726	3052.6727	3058.0396	3078.3221	3140.7818	3520.6378	3542.0224
N=COC1COC(=N)O1	[NH][CH]O[C@H]1CO[C]([NH])O1	
InChI=1S/C4H6N2O3/c5-2-8-3-1-7-4(6)9-3/h2-3,5-6H,1H2	InChI=1S/C4H6N2O3/c5-2-8-3-1-7-4(6)9-3/h2-3,5-6H,1H2/t3-/m1/s1
