15
gdb 50947	1.78336	1.30724	0.786	5.2636	74.4	-0.2812	-0.0027	0.2786	1378.6298	0.109885	-416.773843	-416.764268	-416.763323	-416.809746	32.714	
N	-0.0356247805	 1.3124851826	-0.2059196086	-0.428507
C	-0.0036618433	 0.060062621	-0.0947181699	 0.137731
O	-1.1658508371	-0.6260499772	 0.0479421941	-0.177403
C	-1.0818826057	-2.049494352	-0.0062433896	-0.105015
C	-2.319912566	-2.5849673188	 0.7431887687	-0.348342
C	-2.2806789684	-2.2608487985	 2.1668838212	 0.267522
N	-2.2339112821	-2.0245841877	 3.296330608	-0.295504
C	-1.0521701774	-2.5370800144	-1.3848525839	 0.337204
C	-1.0340174772	-2.9403175803	-2.5158300132	-0.421652
H	 0.9096317644	 1.6844680254	-0.2696319164	 0.237152
H	 0.8872292653	-0.5815334958	-0.0824488624	 0.098778
H	-0.1774526751	-2.3855807112	 0.5197558642	 0.132131
H	-3.2160609807	-2.1519183623	 0.2893200054	 0.18111
H	-2.373731298	-3.6704813974	 0.6194530113	 0.168812
H	-1.0103225584	-3.2900084134	-3.5191879088	 0.215983
42.5356	73.6194	92.2325	114.6316	186.0122	215.0814	261.7439	379.2221	393.2536	495.4523	504.0849	573.5877	640.3532	658.2287	691.2827	820.9952	873.0279	945.2956	986.9879	1024.6028	1038.479	1073.9261	1115.9697	1232.6493	1280.126	1294.2968	1357.488	1369.6204	1426.9652	1453.6684	1753.2548	2242.0638	2370.6219	3011.8562	3034.2777	3068.9975	3115.8865	3498.6908	3522.6675
N=COC(CC#N)C#C	[NH][CH]O[C@@H](CC#N)C#C	
InChI=1S/C6H6N2O/c1-2-6(3-4-7)9-5-8/h1,5-6,8H,3H2	InChI=1S/C6H6N2O/c1-2-6(3-4-7)9-5-8/h1,5-6,8H,3H2/t6-/m1/s1
