19
gdb 115224	4.09752	0.96931	0.82706	4.0959	72.51	-0.261	0.0093	0.2704	1380.6504	0.159293	-460.194386	-460.18539	-460.184445	-460.228963	32.277	
C	-0.0361640865	 1.4543551255	-0.0650078776	-0.245062
O	 0.1187614092	 0.0536382174	 0.0404259364	-0.2432
C	 0.6856705169	-0.570008542	-1.0932589552	 0.101877
C	 1.2542228763	-1.9185085366	-0.6773747655	-0.240082
C	 1.8395444104	-2.6198768933	-1.9059879195	-0.345993
C	 0.9981010311	-2.5566483364	-3.1760215839	 0.410977
O	 1.1662708726	-3.3017865675	-4.1013514774	-0.320553
O	 0.0878720418	-1.5550615134	-3.2970957351	-0.226825
C	-0.3826252512	-0.8103863562	-2.1652122462	-0.082467
H	 0.9220394511	 1.9501748028	-0.2814778089	 0.11197
H	-0.7593288852	 1.7452963092	-0.8399757233	 0.112726
H	-0.4051183509	 1.806338265	 0.9009990417	 0.135369
H	 1.4894952365	 0.058389911	-1.5128595452	 0.074053
H	 2.0158498375	-1.7891590721	 0.0967003555	 0.112847
H	 0.4452046869	-2.5129453647	-0.2365624788	 0.117697
H	 2.7983852256	-2.1586142179	-2.1778661108	 0.142577
H	 2.0547449105	-3.673794077	-1.7181786929	 0.142221
H	-1.2220563717	-1.3464567423	-1.7043107173	 0.121664
H	-0.7634322411	 0.1260009784	-2.5790591559	 0.120204
61.0051	70.1979	135.032	170.2367	179.5732	279.6951	356.6506	415.9425	426.522	492.9487	518.2839	574.6981	702.3492	764.7548	831.219	925.1391	947.739	1000.2585	1020.4129	1097.6935	1106.3732	1127.2898	1153.7967	1181.3904	1184.9375	1203.6559	1232.9508	1265.1531	1285.8221	1335.993	1348.9581	1367.1958	1392.0719	1429.5979	1461.7795	1480.5123	1493.7679	1499.9087	1508.5636	1518.8427	1846.5109	2962.5995	2985.77	3030.4709	3033.3646	3036.617	3044.4767	3093.4849	3106.183	3112.9882	3120.3684
COC1CCC(=O)OC1	CO[C@H]1CCC(=O)OC1	
InChI=1S/C6H10O3/c1-8-5-2-3-6(7)9-4-5/h5H,2-4H2,1H3	InChI=1S/C6H10O3/c1-8-5-2-3-6(7)9-4-5/h5H,2-4H2,1H3/t5-/m0/s1
