21
gdb 91173	2.47977	1.80837	1.7326	0.3511	84.66	-0.2149	0.0191	0.234	960.3538	0.185999	-349.960552	-349.953368	-349.952424	-349.991654	30.36	
C	-0.4561518567	 1.5147060513	 0.0507452474	-0.396872
C	-0.0017737549	 0.0484039364	 0.0127643024	 0.018171
C	 0.7704605957	-0.3769574553	-1.2794999145	-0.216569
C	 2.2537483616	-0.545872636	-0.8489557632	-0.088698
C	 2.8846384128	 0.8340514324	-0.7244183479	-0.082996
C	 2.8405662815	 1.2693321293	 0.5353905106	-0.077483
C	 2.2891340535	 0.2222004974	 1.4458475323	-0.080995
C	 0.9098456545	-0.4002041318	 1.1636994499	-0.052603
C	 2.1560405371	-1.0365894837	 0.6182907534	-0.08517
H	 0.3848320357	 2.2044249292	-0.0445707987	 0.122119
H	-1.1583361969	 1.7233035474	-0.7641455353	 0.105118
H	-0.9697320543	 1.7354322144	 0.992928784	 0.10676
H	-0.9101298887	-0.5624620119	 0.082430641	 0.069722
H	 0.3847879122	-1.3367865528	-1.6416735842	 0.090835
H	 0.6522320639	 0.3461381653	-2.0935036173	 0.090523
H	 2.8022803651	-1.2198447347	-1.5130687139	 0.064091
H	 3.1806101238	 1.4184151338	-1.5887951907	 0.089327
H	 3.1372371348	 2.2537439388	 0.8792572089	 0.090292
H	 2.6224170845	 0.1792186638	 2.477837589	 0.077875
H	 0.426910089	-0.8311243533	 2.0356544398	 0.077486
H	 2.5347407957	-2.0026607701	 0.9289894767	 0.079068
145.9173	209.0997	229.3063	330.2815	363.7237	422.6229	578.1307	626.4559	665.713	725.1489	735.212	777.0031	800.0697	801.2825	827.5922	882.8763	915.2561	934.9691	945.5583	982.1771	986.0031	1007.7407	1015.7044	1029.0154	1054.6855	1094.227	1105.9895	1124.9736	1131.3163	1162.3531	1213.1188	1231.022	1282.9719	1289.5897	1308.0605	1328.9065	1351.6795	1371.341	1377.6651	1396.4722	1408.8623	1489.7159	1496.8723	1506.8838	1667.8662	3013.0041	3030.6742	3036.0468	3064.288	3076.6094	3090.3534	3127.8163	3145.9749	3157.8557	3180.4259	3181.7951	3207.7782
CC1CC2C=CC3C1C23	C[C@H]1C[C@H]2C=C[C@H]3[C@@H]1[C@@H]23	
InChI=1S/C9H12/c1-5-4-6-2-3-7-8(5)9(6)7/h2-3,5-9H,4H2,1H3	InChI=1S/C9H12/c1-5-4-6-2-3-7-8(5)9(6)7/h2-3,5-9H,4H2,1H3/t5-,6+,7-,8+,9-/m0/s1
