14
gdb 43543	2.64299	1.44021	1.05061	1.0391	67.7	-0.2685	-0.0631	0.2054	1087.0755	0.099444	-436.675529	-436.667585	-436.666641	-436.70859	28.657	
O	 0.0268347551	 0.2762572594	-1.1229624384	-0.281318
C	 0.0018272432	 1.2311123454	-0.4093101389	 0.340485
C	-1.1009137633	 1.9561264934	 0.3964921838	-0.370975
C	-0.0920145884	 3.1303003025	 0.6559678005	-0.265681
C	 0.0896244331	 3.5620619773	 2.0293532644	 0.28177
N	 0.2556237878	 3.8882023147	 3.1261767522	-0.323021
C	 1.0376778025	 2.2541943738	 0.0426077094	 0.33295
C	 2.3988214856	 2.007618592	 0.5446235513	-0.241968
O	 2.1496557503	 2.7191455153	-0.6699941226	-0.246395
H	-1.9977224572	 2.2179345521	-0.1671843624	 0.157284
H	-1.3889238172	 1.4132965579	 1.2999505009	 0.163415
H	-0.300474801	 3.9930703964	 0.0180806182	 0.150801
H	 2.7592903351	 2.607686835	 1.377708467	 0.154674
H	 2.8347795444	 1.0182445848	 0.4249697846	 0.147978
63.723	121.6737	196.9997	207.1598	245.8429	338.1637	427.4044	496.6462	523.5786	607.621	621.7891	696.5391	796.6886	838.2482	911.3657	932.0172	1012.488	1030.1509	1054.1721	1088.0128	1132.7295	1146.0057	1167.2677	1204.6132	1219.3306	1336.8906	1400.4605	1440.9115	1516.8089	1907.146	2357.0167	3082.9709	3087.0739	3097.6432	3144.0637	3199.6657
O=C1CC(C#N)C11CO1	O=C1C[C@@H](C#N)[C@]21CO2	
InChI=1S/C6H5NO2/c7-2-4-1-5(8)6(4)3-9-6/h4H,1,3H2	InChI=1S/C6H5NO2/c7-2-4-1-5(8)6(4)3-9-6/h4H,1,3H2/t4-,6-/m0/s1
