17
gdb 105450	2.78765	1.37083	1.17295	0.6443	69.47	-0.2374	-0.0443	0.1931	1079.7232	0.136588	-455.157929	-455.149576	-455.148632	-455.191089	30.912	
O	 0.0265671844	 1.4118072285	 0.1480219872	-0.433027
C	 0.0129307829	-0.0039571076	 0.1343411884	-0.1225
C	-1.4131089269	-0.5504394905	-0.0193684535	 0.168304
C	-1.5128110074	-2.0879716131	 0.2533879399	-0.22699
N	-2.0364905026	-2.2226721472	 1.6233138896	-0.234243
C	-2.4303393414	-1.0609173681	 1.9664553845	 0.064272
N	-2.3062948394	-0.0357864581	 1.0327737685	-0.332741
C	-2.0082581984	-0.1568307535	-1.3613580307	 0.130361
O	-1.4424207324	 0.5185777176	-2.1874017795	-0.270666
H	-0.1848778319	 1.6848783597	-0.7539161932	 0.300299
H	 0.6461476379	-0.4124639168	-0.6656649867	 0.107933
H	 0.4214943468	-0.3370173034	 1.0939279152	 0.120611
H	-2.2023742681	-2.578123349	-0.4462553108	 0.116705
H	-0.5418039266	-2.5834186451	 0.1522857127	 0.123134
H	-2.8879105336	-0.8420965342	 2.9269466764	 0.13379
H	-2.0837148098	 0.8983178835	 1.3563945184	 0.254841
H	-3.0436919137	-0.5259882328	-1.5241115666	 0.099917
95.0055	109.3763	146.4559	201.6628	278.4001	323.264	375.9752	429.3217	467.566	546.8807	557.3967	657.6486	782.8433	820.7275	879.5636	923.8573	929.5169	964.531	974.8399	987.5631	1076.9498	1097.6079	1112.9759	1137.7124	1165.3208	1238.5608	1286.4747	1322.5701	1336.5268	1377.639	1396.2523	1415.4107	1427.9633	1490.3986	1491.5996	1695.2927	1808.1847	2908.3323	3010.3453	3020.3789	3072.3045	3083.1703	3189.2097	3563.4976	3778.2875
OCC1(CN=CN1)C=O	OC[C@]1(C[N][CH]N1)C=O	
InChI=1S/C5H8N2O2/c8-2-5(3-9)1-6-4-7-5/h2,4,9H,1,3H2,(H,6,7)	InChI=1S/C5H8N2O2/c8-2-5(3-9)1-6-4-7-5/h2,4,9H,1,3H2,(H,6,7)/t5-/m0/s1
