17
gdb 62197	5.44032	0.60171	0.56016	1.8458	74.69	-0.2686	0.0009	0.2695	1847.9866	0.136257	-414.186233	-414.176364	-414.17542	-414.222207	33.97	
N	 0.0288639985	 1.533339169	 0.0620507205	-0.500608
C	 0.0280068937	 0.0735279466	-0.0113113166	-0.134542
C	 0.7166781385	-0.5242631972	-1.2649087036	-0.143154
N	 0.0481311555	-0.0138875596	-2.4565340843	-0.308377
C	 0.7738943213	-0.296282729	-3.6919456133	-0.265735
C	 0.049958705	 0.2289896934	-4.8528071728	 0.257
N	-0.5325075627	 0.6242354815	-5.7681344095	-0.287612
C	 0.6406082841	-0.4941716182	 1.1969368355	 0.288532
N	 1.1540557384	-0.9568151024	 2.1223063863	-0.309874
H	 0.9751375359	 1.8681753585	 0.2229347244	 0.23955
H	-0.2532175542	 1.8805379936	-0.851743261	 0.248452
H	-1.0217145568	-0.2548641237	-0.0208814296	 0.134596
H	 1.7604597246	-0.1890377474	-1.283375766	 0.123024
H	 0.7290237767	-1.6253542906	-1.1994852603	 0.112863
H	-0.8885825861	-0.4013794568	-2.5237675687	 0.238902
H	 1.7544285308	 0.1925644569	-3.6439875285	 0.164143
H	 0.9665435568	-1.3694665746	-3.8663242427	 0.14284
42.9337	76.3488	94.7732	152.8127	155.1262	239.6285	269.9608	325.3591	328.2818	391.9658	425.3305	543.7892	578.6141	596.4073	783.88	854.8123	896.8299	932.7113	948.4509	997.6984	1038.9486	1104.1004	1145.7561	1154.0699	1200.3133	1236.4276	1299.099	1320.6056	1356.5418	1398.6751	1421.4978	1488.2321	1500.1105	1505.6292	1662.3587	2366.7531	2371.1882	2955.5553	2965.0839	3007.31	3056.5332	3062.3165	3481.6801	3511.1555	3564.1809
NC(CNCC#N)C#N	N[C@@H](CNCC#N)C#N	
InChI=1S/C5H8N4/c6-1-2-9-4-5(8)3-7/h5,9H,2,4,8H2	InChI=1S/C5H8N4/c6-1-2-9-4-5(8)3-7/h5,9H,2,4,8H2/t5-/m1/s1
