22
gdb 66144	3.13174	1.00543	0.91515	1.8176	82.56	-0.2428	0.0748	0.3177	1397.8028	0.193061	-404.294576	-404.284967	-404.284022	-404.329727	36.149	
C	 0.4284570708	 1.5225105596	-0.1092200946	-0.445167
C	-0.2016092736	 0.1459890395	-0.0760582905	 0.432953
C	 0.4705460908	-1.0133565258	-0.7774383584	-0.333951
C	 0.4429291771	-0.9348294537	 0.7371098995	-0.310889
O	-1.6055972072	 0.1559100626	 0.0153283135	-0.289578
C	-2.3290272039	 0.5045225442	-1.1580999775	-0.107972
C	-2.7652206453	-0.6962789207	-1.9645247403	 0.018759
C	-3.1716074949	-0.5247701175	-3.38082334	-0.250185
N	-1.9341000329	-1.2508682538	-3.0462396031	-0.307746
H	 1.519486623	 1.4479060458	-0.0944961121	 0.117025
H	 0.1506147875	 2.0822869157	-1.0094232151	 0.111825
H	 0.1097849289	 2.1042975274	 0.7618248778	 0.12543
H	-0.1582485133	-1.7588080155	-1.24825809	 0.145757
H	 1.4116272161	-0.8269622101	-1.2852880746	 0.106505
H	 1.3605636962	-0.7053083126	 1.2677356266	 0.108939
H	-0.2267550706	-1.6129896936	 1.2527284848	 0.122968
H	-3.2185831388	 1.0429971913	-0.8078749048	 0.109432
H	-1.7592148285	 1.1941552741	-1.7978387687	 0.08366
H	-3.2664037142	-1.4599374174	-1.3732255813	 0.100623
H	-3.9676147909	-1.1337813159	-3.7990655165	 0.121407
H	-3.0881223933	 0.4679266836	-3.8179561654	 0.109725
H	-1.1318097432	-0.6451573172	-3.2037168394	 0.230478
36.5311	85.3087	104.6357	208.3141	234.904	261.9514	312.3509	344.2797	378.326	403.701	445.4792	562.1157	691.707	780.9662	786.8757	831.4979	860.0679	895.1715	927.8969	934.5507	939.8739	964.4518	1018.2032	1038.8225	1053.9821	1061.2043	1079.5029	1089.3346	1126.1511	1131.696	1158.1044	1191.0637	1222.361	1253.7799	1273.1886	1297.5819	1319.1831	1337.6592	1378.4349	1416.7547	1431.9976	1457.9478	1478.2572	1488.5034	1492.9309	1507.6392	1511.8425	2997.6698	3031.5114	3050.6669	3092.4135	3104.2634	3113.6253	3132.6374	3134.2381	3138.2132	3190.1387	3222.5466	3235.815	3493.1574
CC1(CC1)OCC1CN1	CC1(CC1)OC[C@H]1CN1	
InChI=1S/C7H13NO/c1-7(2-3-7)9-5-6-4-8-6/h6,8H,2-5H2,1H3	InChI=1S/C7H13NO/c1-7(2-3-7)9-5-6-4-8-6/h6,8H,2-5H2,1H3/t6-/m1/s1
