17
gdb 117602	2.08592	1.20136	0.99851	4.7537	74.09	-0.3049	-0.0277	0.2772	1291.6129	0.132753	-418.014769	-418.004596	-418.003652	-418.050306	35.283	
C	-0.0393441943	 1.5404035232	-0.1512730094	-0.385912
C	 0.0420230662	 0.038355551	 0.0502418186	-0.070461
O	 0.7184279907	-0.5034775411	-1.0928738825	-0.267752
C	 0.7541435271	-1.9078753238	-1.2052473507	 0.085096
C	 1.5350240807	-2.6063064187	-0.0683361276	-0.422075
C	-0.6229912715	-2.4740848495	-1.2764922982	 0.282368
N	-1.6986885868	-2.8940952965	-1.283451418	-0.324545
C	 1.433105685	-2.1828662253	-2.492747121	 0.308659
N	 1.9911070239	-2.4229946502	-3.4736122439	-0.314532
H	 0.9607721767	 1.9715026946	-0.246706796	 0.136642
H	-0.6065657006	 1.7768988784	-1.0549569003	 0.141271
H	-0.5372993644	 2.0029489874	 0.7056724598	 0.12746
H	 0.5975081755	-0.2008652752	 0.9664029476	 0.107671
H	-0.960636756	-0.4017986745	 0.1325196471	 0.127162
H	 1.0082407164	-2.4894311438	 0.8800102646	 0.150147
H	 1.6362308197	-3.6724208689	-0.2812587308	 0.162052
H	 2.5265899618	-2.1543466172	 0.0010936406	 0.156749
58.177	94.5798	125.0937	134.3829	188.933	220.0931	243.6641	252.448	312.8638	350.0167	424.2462	489.9761	525.9119	573.834	617.8065	705.2176	828.4745	872.0688	928.3548	967.8249	1056.6746	1109.4947	1129.9705	1161.5948	1185.3397	1222.8824	1306.9818	1399.9624	1404.8877	1427.9948	1481.943	1482.8216	1488.173	1499.5127	1525.5053	2358.1336	2376.4219	3010.1711	3050.5753	3051.6758	3063.5531	3126.5365	3133.0451	3149.2856	3154.5241
CCOC(C)(C#N)C#N	CCOC(C)(C#N)C#N	
InChI=1S/C6H8N2O/c1-3-9-6(2,4-7)5-8/h3H2,1-2H3	InChI=1S/C6H8N2O/c1-3-9-6(2,4-7)5-8/h3H2,1-2H3
