17
gdb 33886	3.43815	1.51668	1.32546	3.5159	76.94	-0.2511	0.0135	0.2645	981.5206	0.13939	-380.832743	-380.826097	-380.825153	-380.863671	27.369	
N	 0.0958251694	-1.0861247929	-0.0408414953	-0.346268
C	 0.0609060453	 0.0704278611	 0.0041579485	 0.207988
C	-0.0098481752	 1.4972501516	 0.0490007328	 0.214589
N	 0.3315170467	 2.2991564579	-1.1610138217	-0.371594
C	 1.1936563078	 2.3861311388	 0.0292591753	-0.07624
C	 0.7756585998	 3.4385604409	 1.0748767273	-0.051908
C	-0.7115193977	 3.7169344757	 0.7184895801	-0.227711
C	-0.8844462087	 2.2224515773	 1.1025881808	-0.102408
C	 0.2081536734	 2.4957059315	 2.1951498826	-0.222424
H	 0.7687418977	 1.6830752387	-1.8451183174	 0.248284
H	 2.2029968888	 1.9931598712	-0.0026524487	 0.117635
H	 1.4843876078	 4.2375918161	 1.2882279591	 0.076379
H	-1.1816552354	 4.3663009984	 1.4584513144	 0.103167
H	-0.9584846403	 4.0290994511	-0.2933175735	 0.132338
H	-1.8521454092	 1.7799661782	 1.3318155359	 0.083617
H	 0.8261220878	 1.653880877	 2.5199439587	 0.107459
H	-0.179133678	 3.0408378174	 3.0585477109	 0.107098
135.9566	158.5378	370.3028	400.989	477.8947	523.7809	554.9548	576.2565	618.9613	696.3149	814.9394	836.7682	844.9637	854.1367	900.5398	919.5604	935.9768	983.6769	999.1411	1023.6524	1041.6211	1067.9941	1085.6338	1098.5215	1111.2046	1165.0279	1226.9392	1235.082	1245.9253	1252.1572	1268.3706	1308.7949	1322.8984	1393.6876	1481.9505	1516.2869	2342.9394	3060.2595	3093.6106	3124.3269	3128.3935	3137.0821	3170.6068	3189.8322	3488.5911
N#CC12NC1C1CC2C1	N#C[C@]12N[C@H]1[C@H]1C[C@@H]2C1	
InChI=1S/C7H8N2/c8-3-7-5-1-4(2-5)6(7)9-7/h4-6,9H,1-2H2	InChI=1S/C7H8N2/c8-3-7-5-1-4(2-5)6(7)9-7/h4-6,9H,1-2H2/t4-,5+,6-,7+/m0/s1
