17
gdb 77617	2.22373	1.58543	1.27309	1.6687	76.86	-0.2291	0.0248	0.2539	1065.9959	0.132819	-421.74918	-421.740127	-421.739183	-421.782449	34.093	
C	 0.054832446	 1.5534532335	-0.085253689	-0.488088
C	 0.0579576936	 0.068963069	 0.0271820374	 0.380025
O	 0.5048717436	-0.712117597	-1.0814008973	-0.318127
C	 1.1877074486	-1.6471175646	-0.2069222517	-0.139351
C	 0.6720975683	-0.932096966	 1.0369464997	 0.022459
C	 1.3048281344	-0.7693064938	 2.2920708666	 0.177644
C	 1.8006556716	-0.6463664009	 3.3839903347	-0.4395
C	-0.8486313461	-0.75894963	 0.8810993006	-0.009765
O	-1.479719234	-0.0821550988	 1.9163379298	-0.41815
H	 1.061298029	 1.9426989163	-0.2624355976	 0.130297
H	-0.5834925705	 1.8564555608	-0.9230825491	 0.137906
H	-0.3488363601	 1.9884032776	 0.8311231849	 0.149456
H	 0.8593534348	-2.6811979613	-0.3634227039	 0.109809
H	 2.2732482506	-1.5740218807	-0.3303201717	 0.121296
H	 2.2624515622	-0.5230687179	 4.3322108754	 0.192121
H	-1.4211204351	-1.56739128	 0.4203937902	 0.096425
H	-1.1524222068	-0.4307855962	 2.7553176609	 0.295544
110.5593	118.8326	186.8221	218.9139	256.1618	267.7173	296.6205	352.5022	405.604	471.6353	536.6662	558.9955	587.2305	628.6902	671.8613	697.6885	737.0364	840.8903	940.5215	993.9115	1012.1546	1054.011	1098.5469	1123.6115	1158.1189	1161.8709	1210.7798	1263.1717	1319.194	1334.9734	1379.8053	1405.9607	1450.4477	1479.2953	1494.5224	1518.5491	2221.6326	3028.0648	3039.8349	3074.7915	3082.1815	3104.4184	3143.0667	3500.3272	3762.4488
CC12OCC1(C#C)C2O	C[C@@]12OC[C@]1(C#C)[C@H]2O	
InChI=1S/C7H8O2/c1-3-7-4-9-6(7,2)5(7)8/h1,5,8H,4H2,2H3	InChI=1S/C7H8O2/c1-3-7-4-9-6(7,2)5(7)8/h1,5,8H,4H2,2H3/t5-,6-,7+/m0/s1
