12
gdb 29261	3.26802	1.4827	1.01995	3.7341	61.09	-0.247	-0.0607	0.1864	1045.1265	0.076898	-509.794969	-509.787456	-509.786512	-509.827554	27.364	
O	-0.0714740228	 1.3682087265	-0.2106122619	-0.407442
C	 0.0259158014	 0.0292126089	-0.0257718905	 0.113058
C	 1.1551297602	-0.6881170004	 0.0477616841	-0.044698
O	 1.187657957	-2.0340445287	 0.2350525567	-0.191096
C	 0.0323855195	-2.7418393376	 0.3611109952	 0.481037
N	 0.1016396087	-3.9816269272	 0.5326177996	-0.531312
O	-1.1394971228	-2.0401893801	 0.2912142109	-0.255023
C	-1.2588085348	-0.6638902962	 0.1016395202	 0.430736
O	-2.3468703706	-0.1800513056	 0.0598303078	-0.299261
H	 0.8088747572	 1.7535568183	-0.2857035899	 0.308373
H	 2.154459223	-0.2777942905	-0.0332223631	 0.147188
H	-0.8297029161	-4.3825806176	 0.6108101509	 0.24844
57.8615	121.6192	278.4846	311.0016	334.5458	378.4286	386.3619	464.3843	530.8457	620.5412	700.5972	719.4055	769.7408	812.8969	829.0796	871.0196	933.5724	1040.9967	1071.5566	1197.8165	1253.4969	1284.028	1373.067	1459.503	1717.1015	1779.464	1885.0572	3211.2678	3547.4395	3813.102
OC1=COC(=N)OC1=O	OC1=CO[C]([NH])OC1=O	
InChI=1S/C4H3NO4/c5-4-8-1-2(6)3(7)9-4/h1,5-6H	InChI=1S/C4H3NO4/c5-4-8-1-2(6)3(7)9-4/h1,5-6H
