17
gdb 13317	4.94252	1.24794	1.11444	4.3445	67.87	-0.2653	0.0294	0.2947	1063.9083	0.144039	-363.884357	-363.876721	-363.875777	-363.917159	27.421	
N	-0.2746898881	-1.0520329797	 0.2798670434	-0.307479
C	-0.1411445957	 0.0952503646	 0.2380390962	 0.257462
C	 0.0601769404	 1.5414809536	 0.175706161	-0.348516
C	 1.5141913188	 1.9266403361	-0.1802421813	 0.012518
C	 1.6749245369	 3.4682350003	-0.2722239631	-0.269502
C	 2.4259315224	 3.8392626558	 1.0338417224	-0.068602
O	 2.3943907317	 2.6778700207	 1.8532492826	-0.241936
C	 2.4815022938	 1.5760025707	 0.9654558331	-0.099785
H	-0.6356851943	 1.957060526	-0.5612425921	 0.148824
H	-0.2004814253	 1.9762848946	 1.1477068473	 0.162853
H	 1.7959221787	 1.4301951974	-1.111709114	 0.096603
H	 2.2476154205	 3.7572916085	-1.1562607702	 0.113009
H	 0.7041807089	 3.9674450376	-0.3376536286	 0.109987
H	 3.4668724345	 4.1211796048	 0.8130866433	 0.096759
H	 1.9616431845	 4.655618011	 1.5922226579	 0.114031
H	 2.2136882696	 0.6695115043	 1.5137234997	 0.130442
H	 3.5073015725	 1.4613288337	 0.5787297023	 0.093332
59.5329	86.935	148.4099	222.3002	331.4514	379.1723	401.9189	531.224	684.6487	716.8351	809.6573	851.6191	917.1438	924.3357	948.4808	961.0863	983.3081	1008.6051	1093.3196	1113.1866	1143.9834	1206.726	1226.8295	1239.0118	1261.9972	1293.7792	1300.1671	1332.2177	1359.8063	1376.3697	1402.1762	1468.8546	1497.3596	1509.0941	1525.4109	2360.029	2973.5702	2986.01	3043.7764	3063.3007	3077.9046	3090.872	3096.1597	3104.4523	3112.9628
N#CCC1CCOC1	N#CC[C@H]1CCOC1	
InChI=1S/C6H9NO/c7-3-1-6-2-4-8-5-6/h6H,1-2,4-5H2	InChI=1S/C6H9NO/c7-3-1-6-2-4-8-5-6/h6H,1-2,4-5H2/t6-/m0/s1
