21
gdb 59506	2.3649	1.09656	0.8195	0.9855	79.44	-0.2559	-0.0345	0.2213	1444.2463	0.179213	-424.221847	-424.211518	-424.210574	-424.258272	36.683	
C	-1.632706891	 0.7841040186	-0.6519076891	-0.393737
C	-1.312452687	-0.6529019962	-1.0902092614	-0.001423
C	-2.3453816849	-1.1938188287	-2.0900020645	-0.405949
C	 0.0792569657	-0.7041891492	-1.6859901734	 0.083271
O	 1.1951287391	-0.6959018274	-0.7798044232	-0.270344
C	 1.0081611256	-1.8436663188	-1.6058847112	 0.044485
C	 0.6929948916	-3.1596846164	-0.912445793	-0.314102
C	 0.2963520319	-4.2078361876	-1.9323133943	 0.15418
O	-0.8240843257	-4.6228000671	-2.083376541	-0.227399
H	-0.8848599929	 1.1535783565	 0.0559305122	 0.129526
H	-1.6485563197	 1.4628372754	-1.5129757041	 0.112751
H	-2.6145128518	 0.8343561883	-0.1710875719	 0.113823
H	-1.3226488721	-1.2856178874	-0.1959230213	 0.082008
H	-2.3142170365	-0.6326439572	-3.0316151727	 0.111675
H	-2.1679070247	-2.2496220603	-2.3142330451	 0.141054
H	-3.3577292234	-1.0993506247	-1.6848721627	 0.116406
H	 0.2149374152	-0.0336076517	-2.5396640529	 0.087799
H	 1.7519714983	-1.9337680994	-2.401661524	 0.092773
H	 1.5986442993	-3.499968171	-0.3924544539	 0.125363
H	-0.110453338	-3.0455928506	-0.1839969063	 0.134324
H	 1.1294533709	-4.5738551251	-2.5757633963	 0.083515
44.8938	54.9214	78.5048	158.9087	195.3932	232.4936	245.7215	274.3182	329.1025	376.8657	394.0276	482.2358	510.7697	561.8945	768.9067	806.7959	876.2086	892.0318	934.3161	965.5724	976.3479	984.5046	1010.1206	1077.9654	1121.1094	1135.603	1171.4782	1187.0005	1194.3415	1215.6863	1276.2349	1308.705	1316.1871	1343.9389	1401.0199	1407.7113	1424.7238	1429.915	1471.7251	1488.3929	1491.972	1494.2457	1507.0652	1517.0686	1830.9146	2866.7022	3028.0149	3028.8346	3030.9619	3043.4977	3063.6194	3077.0481	3093.7529	3100.4864	3112.5798	3116.8381	3135.3533
CC(C)C1OC1CC=O	CC(C)[C@H]1O[C@H]1CC=O	
InChI=1S/C7H12O2/c1-5(2)7-6(9-7)3-4-8/h4-7H,3H2,1-2H3	InChI=1S/C7H12O2/c1-5(2)7-6(9-7)3-4-8/h4-7H,3H2,1-2H3/t6-,7+/m0/s1
