21
gdb 108318	2.94553	1.30291	1.08721	1.3366	78.36	-0.2412	0.0585	0.2997	1217.6387	0.181304	-424.197904	-424.188793	-424.187849	-424.231698	34.27	
C	-0.0197314213	 1.5887357681	 0.1045630893	-0.382876
C	 0.1203725324	 0.0724357145	-0.084966632	-0.28343
C	 0.6784899789	-0.5991334928	 1.1436760376	 0.428747
C	 2.1642419619	-0.4575491685	 1.5328726779	-0.123204
O	 2.2521339686	-1.8754865684	 1.8352155313	-0.292437
C	 0.8938510073	-2.1036620686	 1.422663034	-0.031341
C	-0.1391545476	-1.9217602218	 2.5526329793	 0.132244
C	 0.2464164993	-2.2775122834	 3.9703632858	-0.410894
O	-0.1802308454	-0.4826473962	 2.304636887	-0.359508
H	 0.9533641403	 2.0616424558	 0.2768749288	 0.117383
H	-0.4640606757	 2.0543385494	-0.7795639529	 0.114483
H	-0.6572206478	 1.8066773588	 0.9656172827	 0.141685
H	-0.8595867711	-0.3647880599	-0.3096970658	 0.105044
H	 0.7732620267	-0.1478607556	-0.9384491715	 0.101274
H	 2.8416976268	-0.1894148681	 0.7115766827	 0.098768
H	 2.3589335482	 0.1740631595	 2.4053556632	 0.111388
H	 0.7932170712	-2.9366090073	 0.7236932211	 0.080641
H	-1.1101022554	-2.3635151069	 2.2846031691	 0.074278
H	 1.2674541527	-1.9523142735	 4.1810113711	 0.135735
H	-0.4363405067	-1.7959630686	 4.6768421461	 0.125287
H	 0.1862840267	-3.3608482765	 4.1206438051	 0.116733
85.7444	107.783	152.2171	211.7684	219.1161	241.2404	310.2248	330.4439	396.0841	435.2983	565.5311	662.4582	681.4492	784.8145	814.1342	873.1346	896.0118	940.0904	960.3462	974.7392	991.1837	1008.9549	1025.4921	1069.1875	1098.9023	1125.5497	1148.1735	1154.1156	1192.0467	1197.7096	1265.5558	1296.0902	1306.2774	1324.1417	1355.9753	1374.597	1397.1365	1406.1822	1408.7631	1477.5742	1483.2823	1492.8132	1498.8083	1502.6223	1509.8506	2994.6943	3011.6524	3029.5758	3038.889	3041.5193	3066.2293	3082.6012	3089.7737	3105.7893	3108.8216	3124.1631	3135.788
CCC12COC1C(C)O2	CC[C@]12CO[C@H]1[C@@H](C)O2	
InChI=1S/C7H12O2/c1-3-7-4-8-6(7)5(2)9-7/h5-6H,3-4H2,1-2H3	InChI=1S/C7H12O2/c1-3-7-4-8-6(7)5(2)9-7/h5-6H,3-4H2,1-2H3/t5-,6+,7+/m1/s1
