18
gdb 117098	2.63421	0.91157	0.7222	3.918	73.13	-0.2907	-0.0537	0.237	1569.8817	0.144654	-439.115955	-439.105744	-439.1048	-439.152763	35.264	
C	-0.0422467159	 1.5472048061	-0.0557243215	-0.389624
C	-0.0271911211	 0.0177408496	-0.0070162599	-0.168015
C	 0.6613828247	-0.5957703741	-1.2279352994	-0.299928
C	 0.7081932939	-2.1014409196	-1.2134834453	 0.354074
O	 0.2552390227	-2.7958530018	-0.3350727242	-0.304889
C	 1.4100474623	-2.8360545541	-2.3984265281	-0.072203
O	 1.4200592369	-4.2100880469	-2.1771920402	-0.406912
C	 0.7311209787	-2.4850981371	-3.6627755133	 0.260894
N	 0.1951164298	-2.1871920661	-4.6422347184	-0.318379
H	 0.9737643742	 1.9563063822	-0.0856056967	 0.117802
H	-0.5727076755	 1.9132776194	-0.9415022168	 0.122755
H	-0.5410225757	 1.9606801434	 0.8253952218	 0.123487
H	 0.4792085275	-0.3276603738	 0.9006022268	 0.117358
H	-1.0500090872	-0.3684728209	 0.0552684127	 0.121479
H	 0.1697285027	-0.286676485	-2.1606437954	 0.161462
H	 1.6961377551	-0.2340901458	-1.3236951276	 0.13394
H	 2.4399223685	-2.4506307541	-2.4631174141	 0.141442
H	 0.8721509984	-4.3387578015	-1.3823196106	 0.305259
31.1375	58.0968	92.1559	115.3334	167.2389	242.147	247.7089	318.7195	325.6174	406.0484	426.4808	462.6855	553.385	602.5768	705.6957	755.8409	820.306	896.211	904.5149	958.4762	1043.0503	1051.4833	1102.5099	1136.9353	1156.8403	1226.4089	1261.9995	1326.4551	1329.5446	1343.8602	1402.0317	1416.8038	1429.9565	1444.9889	1488.575	1500.062	1508.0144	1814.3552	2353.4216	2990.2189	3013.6633	3032.8181	3045.4454	3051.327	3079.6201	3104.4703	3111.2625	3639.0826
CCCC(=O)C(O)C#N	CCCC(=O)[C@@H](O)C#N	
InChI=1S/C6H9NO2/c1-2-3-5(8)6(9)4-7/h6,9H,2-3H2,1H3	InChI=1S/C6H9NO2/c1-2-3-5(8)6(9)4-7/h6,9H,2-3H2,1H3/t6-/m0/s1
