18
gdb 30186	3.64294	1.33235	1.12537	2.5388	78.62	-0.1968	0.0416	0.2384	1098.3394	0.151028	-401.989309	-401.981911	-401.980967	-402.021008	29.871	
O	 0.0734081994	 1.4045773897	 0.0242346034	-0.434738
C	 0.0261905538	-0.0147412516	 0.0352619203	 0.142487
C	 0.6303601131	-0.5782503698	 1.366536198	-0.370246
C	-0.6176192746	-0.7280480532	 2.1759820712	 0.286232
C	-1.7736275598	-0.7046491594	 1.4357233135	 0.284662
C	-1.4496456051	-0.5276552016	-0.0234964235	-0.369175
C	-2.861689223	-0.9223960498	 2.3253847445	-0.338118
C	-2.3148365935	-1.0688240389	 3.5836994533	-0.073352
N	-0.9414237228	-0.9562556053	 3.4845435779	-0.377628
H	-0.4825630942	 1.7073697006	 0.7524096202	 0.279675
H	 0.6088678592	-0.3244281618	-0.8358789441	 0.080528
H	 1.1400187737	-1.5380758736	 1.2001827067	 0.105402
H	 1.3733081844	 0.1246704961	 1.7578389853	 0.108532
H	-2.0662242643	 0.2016068007	-0.5588820224	 0.10732
H	-1.5169652748	-1.4740627126	-0.5775407637	 0.102358
H	-3.9151597309	-0.9644139	 2.0935417033	 0.092441
H	-2.7849011848	-1.2286137139	 4.5411571708	 0.115423
H	-0.3020593561	-1.0088995856	 4.2579877555	 0.258197
93.028	208.2222	231.8198	378.021	383.9629	388.354	461.5612	488.0101	628.7438	637.0234	656.4042	701.8623	710.7017	790.4074	819.2459	854.3775	886.4771	929.0582	941.8095	1025.2548	1052.1033	1062.1428	1085.1204	1135.6494	1166.0298	1172.4129	1219.6732	1259.3539	1270.2138	1314.1694	1323.8125	1357.6379	1432.7534	1439.6856	1478.7777	1485.032	1490.7461	1523.1955	1606.7925	3001.5576	3010.2318	3066.6669	3070.8069	3085.1925	3241.5709	3265.1132	3680.4666	3782.362
OC1CC2=C(C1)C=CN2	O[C@H]1Cc2c(C1)cc[nH]2	
InChI=1S/C7H9NO/c9-6-3-5-1-2-8-7(5)4-6/h1-2,6,8-9H,3-4H2	InChI=1S/C7H9NO/c9-6-3-5-1-2-8-7(5)4-6/h1-2,6,8-9H,3-4H2/t6-/m1/s1
