19
gdb 70227	3.92445	1.08078	0.94969	0.927	92.65	-0.2154	-0.0163	0.1991	1284.8285	0.158705	-348.733475	-348.724988	-348.724044	-348.766096	33.565	
C	-0.0521875132	 1.5655545376	 0.0689425224	-0.486152
C	 0.0451413662	 0.0593060862	 0.006821553	 0.33713
C	-0.816697756	-0.811928011	 0.9089492305	-0.316203
C	 0.6795137267	-0.8100718324	 1.0881293507	-0.093957
C	 1.4864534757	-1.9084659268	 0.4040699088	-0.336113
C	 1.1832007218	-1.7031739753	-1.0789372087	 0.171616
C	 0.4247573512	-0.608431308	-1.2702471759	-0.249584
C	 1.6585770163	-2.5904496856	-2.0722314141	 0.214544
C	 2.0912817343	-3.3701483464	-2.8838730297	-0.425124
H	 0.8823127588	 2.0405893036	-0.2497222498	 0.12081
H	-0.8537497759	 1.9384465291	-0.5794635236	 0.119537
H	-0.2698829651	 1.9024467423	 1.087180861	 0.116563
H	-1.4006231452	-0.3044810544	 1.6709673239	 0.10806
H	-1.2964882925	-1.6846647247	 0.4773044618	 0.112937
H	 1.0797221354	-0.3538767893	 1.9864837222	 0.085047
H	 2.5620495417	-1.8073493657	 0.5951309154	 0.115541
H	 1.2033305237	-2.914424044	 0.7359493016	 0.118669
H	 0.097630288	-0.2506635906	-2.2400769295	 0.097956
H	 2.465925078	-4.0474635547	-3.6103608599	 0.188724
110.2061	144.0444	201.2991	225.9031	284.1588	322.6823	398.6861	475.2648	522.9509	525.1823	536.9581	579.2565	605.3135	636.3578	754.202	809.8305	854.9367	879.3135	892.2298	932.0295	959.7035	974.7942	1026.3936	1061.1601	1088.7747	1096.8007	1111.3811	1157.5379	1191.9117	1242.5179	1277.0976	1311.4926	1335.2551	1391.1089	1418.8798	1475.9032	1488.2544	1489.2458	1502.1004	1655.922	2217.893	3024.6231	3027.6166	3059.9535	3084.2564	3101.5977	3118.9633	3172.1013	3197.261	3207.8577	3504.4054
CC12CC1CC(=C2)C#C	C[C@]12C[C@H]1CC(=C2)C#C	
InChI=1S/C9H10/c1-3-7-4-8-6-9(8,2)5-7/h1,5,8H,4,6H2,2H3	InChI=1S/C9H10/c1-3-7-4-8-6-9(8,2)5-7/h1,5,8H,4,6H2,2H3/t8-,9+/m1/s1
