18
gdb 33881	3.29249	1.53069	1.32003	4.4739	79.99	-0.2658	0.0325	0.2983	999.7481	0.151029	-364.793141	-364.786375	-364.785431	-364.824137	28.117	
N	 0.0952057937	-1.0726638246	 0.0556489733	-0.354668
C	 0.0438942531	 0.083960817	 0.0285681139	 0.222338
C	-0.0414463477	 1.5116682141	 0.0010856232	 0.18918
C	 0.3781197513	 2.2675869116	-1.251332767	-0.357739
C	 1.2002460974	 2.418901202	-0.005756107	-0.064459
C	 0.7912781167	 3.4212490035	 1.0907435958	-0.043869
C	-0.7005961097	 3.7312433244	 0.7945418262	-0.246068
C	-0.8757008848	 2.2211449752	 1.100244554	-0.089747
C	 0.2371917993	 2.4400932237	 2.1841297715	-0.216613
H	 0.8151625676	 1.6485979138	-2.0277422108	 0.137085
H	-0.2413013374	 3.0693218714	-1.6323187428	 0.128784
H	 2.1948920644	 1.9904547005	 0.0241337461	 0.115324
H	 1.5067606721	 4.208774466	 1.3255536977	 0.074697
H	-1.1425636633	 4.3405164194	 1.5846727452	 0.10953
H	-0.9970993253	 4.1349227542	-0.1736842178	 0.100267
H	-1.8448300689	 1.7824140122	 1.3325787547	 0.082951
H	 0.8532164367	 1.5794323235	 2.4562488552	 0.11111
H	-0.127757695	 2.9510822322	 3.0784181089	 0.101897
133.6291	159.6929	340.3642	403.5968	474.1394	526.1811	537.1834	571.2508	610.1127	692.2752	777.6311	819.3615	837.9837	847.2764	893.3212	910.6561	941.7485	982.7366	1005.9588	1015.4401	1025.7178	1058.4678	1064.8952	1089.5659	1097.4494	1109.1358	1132.4615	1209.543	1223.8196	1236.2799	1242.7773	1267.5636	1296.1036	1299.6546	1371.7187	1477.4035	1501.8307	1540.5127	2342.2463	3061.6707	3084.3154	3120.2656	3125.5068	3131.398	3133.6924	3148.8494	3188.9045	3231.8491
N#CC12CC1C1CC2C1	N#C[C@]12C[C@H]1[C@H]1C[C@@H]2C1	
InChI=1S/C8H9N/c9-4-8-3-7(8)5-1-6(8)2-5/h5-7H,1-3H2	InChI=1S/C8H9N/c9-4-8-3-7(8)5-1-6(8)2-5/h5-7H,1-3H2/t5-,6+,7-,8-/m0/s1
