14
gdb 24375	3.8608	1.6466	1.16267	2.5589	70.77	-0.201	-0.023	0.178	965.1204	0.104172	-436.721527	-436.715065	-436.714121	-436.752926	24.548	
C	-0.0005248951	 1.5252758828	 0.1202207138	-0.184193
O	 1.2854268397	 2.0188165713	-0.3569426298	-0.236782
C	 2.2566722469	 1.1850696956	-0.7731383679	 0.131824
N	 2.2493494287	-0.0922392651	-0.8290272055	-0.35294
C	 1.0607558848	-0.6257282433	-0.3911215579	 0.342192
C	-0.0371731023	 0.0328196993	 0.0661659842	 0.160242
C	-0.9976344375	-0.9725551739	 0.393761222	-0.324261
C	-0.3935008087	-2.1601849286	 0.1042463857	-0.014031
O	 0.8675311659	-1.9650899626	-0.377349799	-0.175616
H	-0.12544917	 1.9211773916	 1.1366717378	 0.128737
H	-0.7656830542	 1.9965542196	-0.5106237972	 0.128725
H	 3.1277779153	 1.7532501735	-1.0858638924	 0.139568
H	-1.9942776398	-0.8447146662	 0.7873552973	 0.115673
H	-0.7088883938	-3.186932124	 0.1798516289	 0.140862
60.5103	224.566	237.7031	417.3824	487.4907	530.758	614.2067	635.9403	711.6814	750.4077	754.108	817.2283	857.0094	911.7314	932.6846	938.8807	1052.5859	1064.0414	1128.275	1153.034	1201.9335	1230.8849	1287.8573	1308.4141	1389.0572	1427.0621	1474.6593	1517.7444	1529.0823	1653.4274	1661.3758	3003.8616	3026.85	3191.0914	3251.5692	3291.3164
C1OC=NC2=C1C=CO2	C1OC=Nc2c1cco2	
InChI=1S/C6H5NO2/c1-2-9-6-5(1)3-8-4-7-6/h1-2,4H,3H2	InChI=1S/C6H5NO2/c1-2-9-6-5(1)3-8-4-7-6/h1-2,4H,3H2
