17
gdb 77612	2.10196	1.64799	1.29347	0.9284	76.93	-0.224	0.0105	0.2345	1063.9968	0.132766	-421.743726	-421.734636	-421.733691	-421.777111	34.057	
C	-0.0010631031	 1.6166362889	-0.0190438285	-0.490681
C	 0.0375172465	 0.1200656562	 0.0014435197	 0.148193
C	 0.6674390267	-0.7856744653	-1.0505922347	-0.136289
O	 1.1285260693	-1.7308055747	-0.0435257926	-0.322454
C	 0.6427151324	-0.8809608966	 1.0004398709	 0.243201
C	 1.3363258305	-0.7416387772	 2.227914852	 0.229657
C	 1.8851183103	-0.6331809596	 3.2945090144	-0.44093
C	-0.8635751005	-0.736090873	 0.8641396198	-0.027479
O	-1.5244935178	-0.0355477882	 1.8659475343	-0.415669
H	 0.9931005921	 2.0381402742	-0.1989881324	 0.123979
H	-0.6686782377	 1.9742314153	-0.8121779131	 0.125179
H	-0.3779986635	 1.99853595	 0.9315945119	 0.148753
H	-0.0010947555	-1.255310469	-1.7814307655	 0.108544
H	 1.5199323557	-0.3270785048	-1.5649773549	 0.115259
H	 2.3901117249	-0.5276932374	 4.2228690203	 0.197819
H	-1.4051173904	-1.5787784598	 0.4271060025	 0.095352
H	-1.3357070097	-0.464186269	 2.7090948358	 0.297565
103.465	117.1753	169.2756	224.2548	251.2687	277.4755	292.4793	351.8517	372.8308	480.8579	542.1724	562.8664	585.8968	633.647	689.0486	698.0988	762.9878	861.2219	948.7004	985.2257	996.6286	1040.7797	1095.7179	1114.9533	1150.6602	1173.8658	1232.0904	1254.6636	1313.5722	1339.3226	1360.3469	1414.9684	1444.4808	1490.3384	1494.9104	1516.4337	2224.1599	3022.6993	3031.5635	3069.1587	3073.9682	3089.8582	3136.3171	3499.3636	3785.7185
CC12COC1(C#C)C2O	C[C@@]12CO[C@]1(C#C)[C@H]2O	
InChI=1S/C7H8O2/c1-3-7-5(8)6(7,2)4-9-7/h1,5,8H,4H2,2H3	InChI=1S/C7H8O2/c1-3-7-5(8)6(7,2)4-9-7/h1,5,8H,4H2,2H3/t5-,6-,7+/m0/s1
