18
gdb 87536	2.58734	1.55462	1.14516	2.6175	77.95	-0.2435	-0.0169	0.2267	1104.8397	0.147439	-401.916041	-401.907821	-401.906877	-401.948821	31.277	
C	-0.0313335431	 1.5694111661	-0.0697899985	-0.392422
C	-0.0590768987	 0.0698456929	 0.0917260093	-0.076639
N	 1.2118084812	-0.6426324998	-0.1284934439	-0.396826
C	 0.6331337519	-0.6195127228	 1.2091107293	 0.250934
C	 1.3256656491	-0.1298872857	 2.4749684952	-0.143662
C	 0.3038900592	 0.0005830185	 3.5480742489	-0.288228
C	 0.8264829298	-1.3960225378	 3.2390643165	-0.180679
C	 0.2436487791	-1.8949572469	 1.9463998936	 0.356396
O	-0.1510123407	-2.9594670549	 1.5534887152	-0.337331
H	 0.8978813745	 1.9836052857	 0.3301472786	 0.127257
H	-0.0966282843	 1.8450364877	-1.1275091126	 0.127208
H	-0.8738099435	 2.0334290395	 0.4536918627	 0.119128
H	-0.9615814246	-0.4252508342	-0.2658789085	 0.098907
H	 1.0456019539	-1.5595353224	-0.5423575032	 0.245901
H	 2.3187278243	 0.2947410943	 2.5176423994	 0.119523
H	 0.6447909792	 0.3912498451	 4.5014785815	 0.129499
H	-0.7187121897	 0.2670018315	 3.2962846789	 0.125372
H	 1.3220977825	-1.9946987368	 3.9919064878	 0.115662
110.5075	137.4682	166.0471	183.5603	253.1988	285.6791	424.9986	436.878	557.1909	610.1331	649.0624	723.9218	804.088	827.5017	862.2591	884.9104	892.147	944.863	952.7361	994.7598	1041.307	1046.7685	1074.5877	1082.8603	1096.0957	1110.614	1138.2466	1180.3129	1237.374	1244.6388	1263.6222	1304.2523	1363.4086	1411.2797	1471.2283	1486.1566	1491.1487	1503.4468	1868.1889	3036.9038	3101.1683	3108.0043	3119.7673	3126.6087	3203.9058	3209.0114	3223.8738	3471.6447
CC1NC11C2CC2C1=O	C[C@H]1N[C@]21[C@H]1C[C@H]1C2=O	
InChI=1S/C7H9NO/c1-3-7(8-3)5-2-4(5)6(7)9/h3-5,8H,2H2,1H3	InChI=1S/C7H9NO/c1-3-7(8-3)5-2-4(5)6(7)9/h3-5,8H,2H2,1H3/t3-,4-,5+,7-/m1/s1
