13
gdb 133239	3.12185	1.46774	1.0047	4.7014	67.58	-0.2469	-0.0642	0.1827	1077.5498	0.088828	-494.022832	-494.015181	-494.014236	-494.056076	27.078	
C	 0.0494603836	 1.4706892489	 0.0292643907	-0.305832
N	 0.0388203208	 0.0127564474	-0.0038555411	 0.127884
N	-0.0712971565	-0.5832645357	-1.1784662714	-0.180818
C	-0.0804044459	-1.8903441781	-1.2023246919	-0.072426
C	 0.0223282649	-2.7395770106	-0.0245117288	 0.194424
O	 0.0167640722	-3.9596598285	-0.0146487243	-0.366771
C	 0.1357201392	-1.8946048882	 1.1718629691	 0.268555
F	 0.2389845485	-2.4879615533	 2.3406273559	-0.033867
N	 0.1431573881	-0.6040839586	 1.1784234614	-0.268917
H	 0.9849794553	 1.8240798805	 0.4694329332	 0.159573
H	-0.0417903043	 1.8198379529	-0.9969584093	 0.169276
H	-0.787877314	 1.8333849603	 0.6302255641	 0.159564
H	-0.1717567318	-2.3536018371	-2.1788443675	 0.149353
38.0933	107.7113	189.8766	296.4092	334.9406	347.8875	451.8624	479.8047	553.4934	579.2532	601.1419	719.9779	785.4581	833.8598	925.1222	959.9138	1079.7827	1150.5902	1196.0102	1280.9406	1342.4594	1359.0995	1439.1885	1448.7037	1477.8195	1506.708	1559.0721	1613.802	1756.1404	3060.3557	3128.9018	3188.0865	3198.5728
CN1N=CC(=O)C(F)=N1	Cn1ncc(=O)c(F)n1	
InChI=1S/C4H4FN3O/c1-8-6-2-3(9)4(5)7-8/h2H,1H3	InChI=1S/C4H4FN3O/c1-8-6-2-3(9)4(5)7-8/h2H,1H3
