20
gdb 115694	2.28987	1.20207	0.97216	3.1659	75.16	-0.2457	0.0238	0.2695	1291.0618	0.170516	-440.303524	-440.293506	-440.292562	-440.339432	35.878	
N	 0.4295198107	 0.7537957582	 0.7453838491	-0.527581
C	 0.2220693289	 0.0328455041	-0.3955512792	 0.406563
O	 1.0106950509	 0.0507627529	-1.3239404788	-0.368557
C	-1.0439166445	-0.8086695774	-0.4054336392	-0.108486
C	-1.5895264529	-1.2169457771	-1.7956888946	-0.227256
C	-1.7965521658	-2.6647781146	-1.2808122265	-0.237938
C	-0.8990699126	-2.3389086372	-0.0498398551	-0.015313
C	 0.5149593044	-2.9087291867	-0.1341331814	-0.083447
O	 0.5245195597	-4.313198832	 0.0792980443	-0.426754
H	 1.2903752841	 1.2681480299	 0.8373847313	 0.260382
H	-0.1946337091	 0.708526867	 1.5311178022	 0.258095
H	-1.8121908348	-0.3482115669	 0.2231899643	 0.069223
H	-2.4704056528	-0.6807021437	-2.1546017099	 0.098516
H	-0.7957328088	-1.1385700453	-2.5410326021	 0.13404
H	-2.8317494364	-2.8732297157	-0.9991451454	 0.103118
H	-1.4576131983	-3.4726378395	-1.9384365996	 0.086586
H	-1.3218291766	-2.6199339205	 0.9187616491	 0.074969
H	 0.9842429105	-2.6385751039	-1.0901754291	 0.114559
H	 1.1385685448	-2.4834793444	 0.6597875476	 0.107431
H	 0.0562488685	-4.7231559772	-0.654846967	 0.28185
37.3012	81.6641	121.898	131.997	143.6797	229.8425	259.8304	302.9181	358.5692	412.7269	445.5455	576.3099	617.1056	655.2321	758.0619	793.0611	820.6819	883.4862	906.5815	944.5206	971.9397	1026.861	1047.504	1070.8	1084.8464	1107.4426	1131.3531	1192.5696	1222.2763	1240.0426	1261.6738	1269.5197	1281.3501	1296.5411	1341.5857	1395.1227	1405.2311	1422.3555	1482.6638	1495.4919	1508.8181	1615.566	1783.5501	3014.2144	3042.0253	3050.7009	3063.5132	3074.0969	3077.4387	3096.0671	3134.1025	3601.4903	3739.799	3818.2342
NC(=O)C1CCC1CO	NC(=O)[C@H]1CC[C@H]1CO	
InChI=1S/C6H11NO2/c7-6(9)5-2-1-4(5)3-8/h4-5,8H,1-3H2,(H2,7,9)	InChI=1S/C6H11NO2/c7-6(9)5-2-1-4(5)3-8/h4-5,8H,1-3H2,(H2,7,9)/t4-,5-/m0/s1
