23
gdb 107985	2.66624	1.48914	1.27514	0.2273	89.06	-0.2743	0.0869	0.3612	1140.93	0.207977	-351.134967	-351.126833	-351.125888	-351.167571	32.823	
C	 0.0317899674	 1.5639848502	-0.0167411465	-0.378453
C	-0.0368887703	 0.0321720031	-0.038009465	-0.317956
C	-1.4478482566	-0.5049485044	-0.0135975669	 0.363307
C	-2.5847561032	-0.2568193145	-1.0417302447	-0.286357
C	-3.20449894	-1.1893258947	 0.0222404916	-0.064686
C	-1.8801113438	-2.0125362305	 0.0560651184	-0.045182
C	-1.6477497313	-2.5355685168	 1.4744270989	-0.244204
C	-2.1176845768	-1.2958880277	 2.2911674055	-0.243731
C	-2.5038870142	-0.3614665127	 1.1435530927	-0.030588
H	 1.0684900331	 1.9138329465	-0.0348330934	 0.110187
H	-0.4814093444	 1.9945813937	-0.882854008	 0.118777
H	-0.4421263916	 1.9688974021	 0.8836917489	 0.11678
H	 0.473252743	-0.3467910977	-0.9338114614	 0.095976
H	 0.5173810269	-0.3720390797	 0.8199459398	 0.095858
H	-2.9880559689	 0.7589815784	-1.1007190801	 0.083792
H	-2.4408219796	-0.6771230025	-2.0424980752	 0.081913
H	-4.2200485402	-1.5897034057	 0.05026863	 0.060167
H	-1.6422493466	-2.6631851891	-0.7892140738	 0.052941
H	-2.2407164409	-3.4309880648	 1.6871860113	 0.094203
H	-0.5984823834	-2.7899774958	 1.6570663233	 0.094265
H	-2.9662157857	-1.5188219998	 2.9461637939	 0.094463
H	-1.3241116347	-0.8773760234	 2.9191047896	 0.09389
H	-2.8923717383	 0.6312060158	 1.3828937511	 0.054639
75.469	160.1667	178.8937	239.9065	259.5527	359.1137	420.8896	458.0001	612.5935	668.1638	731.6336	741.7438	781.5758	827.0655	839.352	883.4328	911.7296	927.9947	952.6227	965.9537	974.8788	1000.2411	1009.4193	1032.4385	1054.9862	1060.9135	1084.7002	1112.6205	1138.2984	1164.3387	1183.3461	1211.5875	1216.406	1244.7267	1249.5163	1250.0801	1285.2013	1300.8792	1308.6079	1316.8701	1362.3375	1391.3812	1410.4848	1478.7909	1489.3295	1498.5264	1505.9257	1509.8749	1520.8431	3009.9087	3033.6238	3035.7702	3037.608	3040.2272	3047.634	3069.3516	3081.9398	3085.3585	3089.3982	3092.9744	3096.5532	3102.7094	3104.9683
CCC12CC3C1CCC23	CC[C@@]12C[C@H]3[C@@H]1CC[C@@H]23	
InChI=1S/C9H14/c1-2-9-5-6-7(9)3-4-8(6)9/h6-8H,2-5H2,1H3	InChI=1S/C9H14/c1-2-9-5-6-7(9)3-4-8(6)9/h6-8H,2-5H2,1H3/t6-,7-,8+,9+
