21
gdb 53408	3.87819	0.89092	0.80229	0.0584	91.14	-0.2353	0.0652	0.3005	1520.877	0.183493	-349.937845	-349.928745	-349.927801	-349.97333	33.815	
C	 0.3521624014	 1.6282125099	-0.6367447072	-0.498347
C	 0.2027583898	 0.2200881874	-0.2965890685	 0.076426
C	 0.0786563742	-0.9457641608	-0.0196879645	 0.061225
C	-0.0764712803	-2.3549328806	 0.3261850434	-0.167399
C	 0.2652957825	-2.6785180898	 1.8116435981	-0.232369
C	-0.5147526468	-3.9714898079	 2.1325834433	-0.224027
C	-1.7508442945	-3.9126836387	 1.2448594874	-0.032016
C	-2.5161511988	-2.6116133756	 1.1942165862	-0.285387
C	-1.489355667	-2.9197760424	 0.135543784	-0.021917
H	 1.0293794058	 1.7646211988	-1.4874774445	 0.144247
H	-0.6100993152	 2.078051359	-0.9063314707	 0.145064
H	 0.7595971121	 2.2018201125	 0.2035018623	 0.144061
H	 0.5932604771	-2.9456018129	-0.3150635382	 0.095069
H	 1.3420512299	-2.7787425565	 1.9662401677	 0.103053
H	-0.0698785558	-1.8544054839	 2.4468367453	 0.113889
H	 0.0789938512	-4.8538938383	 1.8643372374	 0.098059
H	-0.7492914746	-4.0544171309	 3.1995777392	 0.096461
H	-2.291536947	-4.8330131996	 1.0521231019	 0.078943
H	-3.5573112858	-2.6632990724	 0.8951032016	 0.107395
H	-2.3103880806	-1.8379191388	 1.9268319239	 0.113001
H	-1.8258301376	-3.0941570286	-0.8799996083	 0.084571
18.3571	75.7989	94.6514	203.5824	255.7925	290.7899	339.3731	384.3542	445.5134	510.491	590.5675	630.4497	765.7704	802.527	829.6853	844.6657	885.9643	932.7575	956.7998	979.1744	989.2853	1044.343	1053.2875	1055.1113	1057.7487	1086.9289	1107.2757	1130.7492	1176.4895	1187.7267	1203.9394	1224.2629	1291.0841	1306.3501	1325.6335	1340.045	1364.0749	1391.8208	1415.2395	1479.647	1479.6681	1485.8057	1493.3513	1513.3555	2368.4191	2996.9634	3023.0682	3028.3254	3061.1418	3072.3823	3082.0058	3082.4793	3110.4638	3130.7482	3161.6342	3174.1185	3212.0637
CC#CC1CCC2CC12	CC#C[C@H]1CC[C@H]2C[C@@H]12	
InChI=1S/C9H12/c1-2-3-7-4-5-8-6-9(7)8/h7-9H,4-6H2,1H3	InChI=1S/C9H12/c1-2-3-7-4-5-8-6-9(7)8/h7-9H,4-6H2,1H3/t7-,8-,9-/m0/s1
