16
gdb 49607	2.9763	1.57738	1.11737	5.7041	72.5	-0.2342	0.0033	0.2375	1056.2956	0.126148	-434.089523	-434.08181	-434.080866	-434.122066	29.031	
N	 0.0878068558	 1.2862087172	-0.0536266173	-0.421097
C	-0.0290716576	 0.0250791197	 0.0062783065	 0.078536
N	-1.237297997	-0.6559146977	-0.0439957511	-0.115164
C	-1.2930500928	-2.0936585628	-0.0138357494	-0.00781
C	-1.9614582733	-2.7488904249	 1.1781142023	-0.326928
C	-2.7529068683	-2.4425241581	-0.0808470597	-0.013128
N	-3.410475797	-1.1787917599	-0.1861716212	-0.359708
C	-2.5436128163	-0.0978270836	-0.0544043289	 0.457765
O	-2.8547185217	 1.0574330382	 0.0510049799	-0.362864
H	 1.0733393295	 1.5382818455	-0.0007155245	 0.226618
H	 0.8028284541	-0.6858462578	 0.0974492914	 0.089626
H	-0.5392071971	-2.6167044637	-0.5896000112	 0.119943
H	-1.7170274307	-3.7896762564	 1.3606037014	 0.124905
H	-2.1405086692	-2.1461673955	 2.0616588363	 0.132041
H	-3.1267742332	-3.2454787011	-0.7055559088	 0.116724
H	-4.3670819352	-1.0347104293	 0.0942057243	 0.260541
76.3839	144.3115	158.5086	218.7854	344.4783	442.0765	474.2087	479.6878	503.3808	697.506	722.755	756.2837	774.3163	812.0548	822.239	829.9033	961.5821	1002.8776	1029.7438	1055.002	1059.8016	1094.375	1137.5189	1153.1103	1204.3338	1225.8144	1249.5477	1331.2681	1383.2475	1402.5228	1428.0271	1437.2975	1470.6894	1722.4156	1870.4552	3025.3007	3134.5947	3171.9177	3183.1346	3231.698	3499.8947	3649.5931
N=CN1C2CC2NC1=O	[NH][CH]N1[C@H]2C[C@H]2NC1=O	
InChI=1S/C5H7N3O/c6-2-8-4-1-3(4)7-5(8)9/h2-4,6H,1H2,(H,7,9)	InChI=1S/C5H7N3O/c6-2-8-4-1-3(4)7-5(8)9/h2-4,6H,1H2,(H,7,9)/t3-,4+/m1/s1
