19
gdb 38051	3.47861	1.71922	1.47453	1.425	78.65	-0.225	0.0104	0.2354	938.911	0.162217	-385.84904	-385.842362	-385.841418	-385.879988	28.061	
C	-0.0783952571	 1.5542753982	 0.0644717523	-0.25369
C	 1.459436012	 1.3299962203	-0.0456285893	-0.138351
C	 1.7025004644	 0.5205277883	 1.2411814074	-0.08051
C	 0.6876377737	-0.3571673709	 1.2822788382	-0.204951
C	-0.0781277749	-0.0264170165	 0.0069327701	 0.326502
C	-1.1422692483	-0.7582806735	-0.7750624667	-0.392233
C	-0.81533271	-0.2843822344	-2.228275362	-0.071731
O	 0.5015379164	 0.3110061261	-2.2380108596	-0.295209
C	 1.1079858744	 0.1099915811	-0.9852629555	 0.1555
H	-0.4493250067	 2.0087590716	 0.9851983603	 0.089981
H	-0.5177738578	 2.026663237	-0.8160239194	 0.107411
H	 2.1649885636	 2.1168203668	-0.3094849592	 0.063397
H	 2.5262709062	 0.6486753178	 1.9293854211	 0.100596
H	 0.4662840157	-1.1298697468	 2.0047693996	 0.103846
H	-1.0224138683	-1.8430765183	-0.682567011	 0.108406
H	-2.168673938	-0.5069428936	-0.4941044105	 0.107636
H	-0.8397272328	-1.1166963119	-2.9416676008	 0.103681
H	-1.5259401168	 0.4754736023	-2.5721868149	 0.107687
H	 1.8550272842	-0.6932241538	-1.0198380702	 0.062032
86.464	255.3993	320.4001	387.977	455.9385	532.0304	565.4608	666.9735	691.9677	723.7798	743.096	822.0885	863.6559	866.4383	901.5767	911.4511	918.2471	939.7322	966.8423	968.6875	1012.8789	1057.5649	1057.589	1092.0324	1117.387	1136.104	1177.6141	1207.5637	1218.7646	1227.942	1242.4166	1249.4993	1261.3415	1305.8474	1349.596	1354.8046	1393.6074	1487.4196	1492.2594	1525.3726	1599.3147	3022.4477	3027.5278	3046.3291	3061.3129	3070.9595	3098.0774	3124.3971	3138.4797	3217.2483	3243.0114
C1C2C=CC11CCOC21	C1[C@H]2C=C[C@]31CCO[C@@H]23	
InChI=1S/C8H10O/c1-2-8-3-4-9-7(8)6(1)5-8/h1-2,6-7H,3-5H2	InChI=1S/C8H10O/c1-2-8-3-4-9-7(8)6(1)5-8/h1-2,6-7H,3-5H2/t6-,7+,8-/m1/s1
