15
gdb 132853	3.03829	1.33225	0.9314	2.1971	72.97	-0.2118	-0.0421	0.1697	1158.9233	0.112937	-461.984852	-461.977114	-461.976169	-462.017136	29.308	
C	-0.0305023809	 1.5150469255	 0.0123419676	-0.470898
C	-0.0033555374	 0.0175758947	-0.0385329041	 0.144544
C	-0.0226176075	-0.7037009662	-1.19595327	-0.274435
C	 0.0053747143	-2.1221454577	-1.1781432078	 0.221618
F	-0.0149392839	-2.789058161	-2.3385264385	-0.080389
C	 0.0520307529	-2.7900267627	-0.0012683204	-0.101342
N	 0.0711394297	-2.0636766782	 1.1586440558	-0.36724
C	 0.0469323741	-0.6676409827	 1.2542337985	 0.383319
O	 0.067885304	-0.1189136964	 2.3470466934	-0.395984
H	 0.854930411	 1.897180473	 0.5316928584	 0.147169
H	-0.0730779777	 1.949760616	-0.9889337269	 0.1156
H	-0.892180077	 1.8631868124	 0.5918733596	 0.147354
H	-0.0599780369	-0.2068932728	-2.1609434685	 0.118936
H	 0.0750509223	-3.8684884089	 0.0724984783	 0.146319
H	 0.1059128228	-2.539146985	 2.0494251146	 0.265428
126.1296	136.2742	209.6096	273.7748	355.8531	358.066	423.6236	463.441	497.7344	552.8636	586.282	677.6815	706.622	785.2319	805.9446	849.6517	920.4675	979.4978	1015.8704	1067.059	1108.4159	1187.4305	1228.2384	1286.4579	1345.9545	1413.4685	1436.5748	1463.4745	1466.4524	1492.8149	1610.604	1697.3183	1764.7389	3037.9889	3091.456	3127.3062	3178.5294	3231.6938	3612.8038
CC1=CC(F)=CNC1=O	Cc1cc(F)c[nH]c1=O	
InChI=1S/C6H6FNO/c1-4-2-5(7)3-8-6(4)9/h2-3H,1H3,(H,8,9)	InChI=1S/C6H6FNO/c1-4-2-5(7)3-8-6(4)9/h2-3H,1H3,(H,8,9)
