18
gdb 89774	1.98607	1.7185	1.02608	2.4056	79.68	-0.2253	0.0293	0.2546	1185.0797	0.144993	-401.856115	-401.847184	-401.84624	-401.889728	33.352	
C	-0.0323473206	 1.5012254135	 0.0237334968	-0.329022
N	-0.0434741144	 0.0579682758	 0.1038249638	-0.063669
C	-1.2971929155	-0.6274105542	 0.486799272	-0.261042
C	-0.4662445882	-1.5708964307	 1.3527072124	 0.4293
C	-0.8012972631	-2.5193782569	 2.4065377089	-0.267811
O	-0.3530808428	-2.9501855218	 1.1086556766	-0.249854
C	 0.7138763699	-0.5821567412	 1.2114871495	-0.291446
C	 2.0373574656	-1.0872633683	 0.8988988315	 0.356799
C	 3.1377845062	-1.5088951538	 0.6638464569	-0.415525
H	 0.9847233179	 1.8489097471	-0.182157105	 0.13301
H	-0.6731284535	 1.83000596	-0.8006460947	 0.126104
H	-0.3853471567	 1.9931233927	 0.9509791337	 0.090236
H	-1.9857027433	-0.0029283356	 1.0799974811	 0.091632
H	-1.8433205637	-1.0816936533	-0.3459182613	 0.123813
H	-0.0988836412	-2.6932562676	 3.2206146827	 0.123456
H	-1.8448561128	-2.7326789443	 2.6343827203	 0.119587
H	 0.7661327328	 0.0642934872	 2.1064817237	 0.08707
H	 4.1042442531	-1.8892079888	 0.4422682009	 0.197362
81.5631	108.1292	157.9386	226.8211	251.163	302.3619	313.7069	350.8038	391.3908	510.7837	538.8513	565.6717	620.6917	662.676	785.0359	833.7401	862.6322	912.5669	955.5218	980.6575	1048.0536	1074.911	1119.7044	1132.3093	1158.6371	1167.056	1171.4859	1204.8782	1209.4129	1276.642	1310.6389	1361.0749	1450.608	1452.8503	1487.7503	1496.4439	1507.8997	1545.5747	2239.3983	2920.2544	2930.5197	2968.1286	3063.8403	3071.8047	3082.3132	3107.3428	3169.7013	3502.8134
CN1CC2(CO2)C1C#C	CN1C[C@]2(CO2)[C@H]1C#C	
InChI=1S/C7H9NO/c1-3-6-7(5-9-7)4-8(6)2/h1,6H,4-5H2,2H3	InChI=1S/C7H9NO/c1-3-6-7(5-9-7)4-8(6)2/h1,6H,4-5H2,2H3/t6-,7+/m1/s1
