20
gdb 17352	4.27133	1.21897	1.04601	0.0036	76.44	-0.2347	0.0737	0.3084	1192.6733	0.177213	-345.136283	-345.127462	-345.126518	-345.170236	32.418	
C	-0.1174675787	 1.5842981771	-0.1064969728	-0.394862
C	-0.0581684734	 0.084191192	 0.055237926	 0.003431
N	 1.2363623369	-0.5723592845	-0.1918525767	-0.350877
C	 0.6496739633	-0.6233892581	 1.1611073137	-0.008933
C	 1.4076707849	 0.0743126207	 2.2433252497	-0.009105
N	 0.8228451178	 0.019340426	 3.596939358	-0.350866
C	 2.1185408484	-0.6338409944	 3.3468702846	 0.003584
C	 2.1815239927	-2.1341244385	 3.5054489602	-0.394809
H	 0.8116458575	 2.0583260084	 0.2173871598	 0.124545
H	-0.2726332695	 1.8493108529	-1.1579831869	 0.118154
H	-0.9452165063	 2.0065658114	 0.4735159829	 0.117879
H	-0.9441427177	-0.4319702244	-0.3149525791	 0.079791
H	 1.1113948333	-1.4598588146	-0.6702109861	 0.229131
H	 0.1937526211	-1.5585849293	 1.4773265164	 0.081818
H	 1.8610039541	 1.0112030609	 1.9284237911	 0.081688
H	 0.9465242144	 0.9061447578	 4.0769173967	 0.229135
H	 3.0037913391	-0.1163884622	 3.7169854241	 0.079779
H	 1.2535288975	-2.6097933505	 3.1807783692	 0.124458
H	 3.0101161451	-2.5530488275	 2.9242244279	 0.117922
H	 2.3377031897	-2.4010058933	 4.5563120714	 0.118136
35.7827	116.8863	160.385	181.9716	218.776	238.8008	376.8323	401.1301	442.6116	452.9589	576.7973	778.1892	781.1561	836.4317	839.0319	906.7695	940.8143	972.1578	990.6312	1005.0546	1018.4946	1042.5365	1063.301	1100.6715	1134.7397	1150.8913	1172.2413	1234.3759	1249.538	1259.8045	1267.2378	1293.9836	1350.3814	1404.4381	1411.2106	1437.7689	1449.6999	1481.4095	1489.0076	1494.2597	1500.5364	1522.0472	3035.8488	3035.9239	3094.6534	3095.0555	3097.7998	3098.4651	3125.6445	3127.2305	3134.3158	3143.9343	3508.2567	3508.5252
CC1NC1C1NC1C	C[C@H]1N[C@H]1[C@H]1N[C@H]1C	
InChI=1S/C6H12N2/c1-3-5(7-3)6-4(2)8-6/h3-8H,1-2H3	InChI=1S/C6H12N2/c1-3-5(7-3)6-4(2)8-6/h3-8H,1-2H3/t3-,4+,5-,6+
