14
gdb 42633	2.81913	1.7265	1.28263	2.1668	72.84	-0.2367	-0.0196	0.217	957.7702	0.100074	-399.457537	-399.450388	-399.449444	-399.48907	27.818	
O	 0.0235731203	 0.0703974273	 0.0854045461	-0.313248
C	-0.0053534925	 1.2627378929	 0.0847980091	 0.422134
C	-1.0771649972	 2.3012446551	-0.058098552	-0.182844
C	-0.0871045781	 3.1792611469	-0.7804956096	-0.09268
N	-0.5791210672	 3.585580189	 0.5372829297	-0.138281
C	 0.7581251774	 3.2588792703	 1.1523448641	-0.188075
C	 1.0917046457	 2.3729082215	-0.0715045868	 0.058234
C	 2.4079498569	 2.0810053525	-0.5331119981	 0.04638
C	 3.5197686696	 1.8335027636	-0.9193161967	-0.324968
H	-2.1425459176	 2.1932848506	-0.203833201	 0.131472
H	-0.1756918775	 3.7183304355	-1.7129947755	 0.132844
H	 1.3464049533	 4.1768436886	 1.1955762871	 0.13479
H	 0.7213387962	 2.7763318222	 2.1344099263	 0.122841
H	 4.4997868808	 1.6069756338	-1.2603479628	 0.191402
124.5214	146.862	189.8876	363.8989	412.5264	468.9692	505.8619	607.8167	616.4345	651.1029	665.8106	745.7678	759.8848	779.8919	836.8631	859.32	906.5075	966.4368	980.9347	1023.5742	1066.7092	1095.9108	1139.0184	1158.0358	1210.6098	1241.0043	1292.5067	1332.1184	1507.2264	1896.6743	2237.0953	3053.801	3128.967	3221.7731	3232.5826	3500.429
O=C1C2C3N2CC13C#C	O=C1[C@@H]2[C@H]3N2C[C@@]13C#C	
InChI=1S/C7H5NO/c1-2-7-3-8-4(5(7)8)6(7)9/h1,4-5H,3H2	InChI=1S/C7H5NO/c1-2-7-3-8-4(5(7)8)6(7)9/h1,4-5H,3H2/t4-,5+,7+,8?/m0/s1
