20
gdb 85054	2.31783	1.53557	1.18113	2.8579	75.04	-0.238	0.0219	0.2599	1128.503	0.171537	-440.337118	-440.327948	-440.327004	-440.370619	34.98	
C	-0.0340146513	 1.5752181703	-0.1662159223	-0.392973
C	-0.0162879255	 0.0557479127	 0.0351133682	 0.006889
N	 0.6888894064	-0.6294778682	-1.048252152	-0.303449
C	 1.9807059191	-0.962439203	-0.7632943065	 0.382243
O	 2.8319865883	-1.3370124746	-1.5444087147	-0.397717
C	 2.199148718	-0.6838828999	 0.7336910464	 0.006286
O	 2.994627669	 0.4921117428	 0.8492803713	-0.436149
C	 0.7838458724	-0.4443250794	 1.2763294148	 0.001184
C	 0.6986301413	 0.4237859127	 2.5287856453	-0.412259
H	 0.9842147109	 1.9725786287	-0.1734064763	 0.142274
H	-0.5154023559	 1.8293856497	-1.116664445	 0.108751
H	-0.5969217969	 2.0677125536	 0.6321289458	 0.121265
H	-1.0483668899	-0.3105853259	 0.0890529091	 0.082876
H	 0.3977277007	-0.5538473838	-2.0121175477	 0.247663
H	 2.6949514444	-1.5347864031	 1.218503705	 0.08442
H	 3.7571946709	 0.3642098855	 0.2714752335	 0.296186
H	 0.385120478	-1.4388143017	 1.5106035992	 0.08826
H	 1.1577469523	 1.4010489141	 2.3710521386	 0.143212
H	-0.3432315463	 0.5715022599	 2.8320566253	 0.11125
H	 1.2214808341	-0.0572717704	 3.3610749119	 0.119788
85.3796	121.5897	224.9341	238.5477	249.5832	256.4492	269.7879	359.3276	401.974	440.7693	482.6681	522.3107	559.8448	671.5347	711.664	753.5162	770.2187	896.0702	919.7701	960.4254	987.5185	1020.8757	1052.2366	1099.8384	1132.6493	1152.0903	1184.9732	1220.5586	1263.3581	1309.175	1333.0121	1354.7426	1369.1845	1390.2895	1407.7656	1411.7868	1417.004	1439.2713	1487.1405	1497.1108	1501.4117	1510.024	1821.2396	3016.2049	3025.2393	3036.9588	3038.9125	3044.7968	3101.6481	3104.531	3130.7941	3139.0804	3612.9276	3785.3113
CC1NC(=O)C(O)C1C	C[C@H]1NC(=O)[C@@H](O)[C@H]1C	
InChI=1S/C6H11NO2/c1-3-4(2)7-6(9)5(3)8/h3-5,8H,1-2H3,(H,7,9)	InChI=1S/C6H11NO2/c1-3-4(2)7-6(9)5(3)8/h3-5,8H,1-2H3,(H,7,9)/t3-,4+,5-/m0/s1
