17
gdb 53464	7.35822	0.53751	0.50561	3.1549	90.34	-0.2442	-0.0467	0.1976	2168.3962	0.13113	-384.660397	-384.649114	-384.64817	-384.701795	36.084	
C	 0.1679517046	 1.485280819	 0.0083541335	-0.498645
C	 0.0614375162	 0.0340465323	 0.002439933	 0.103058
C	-0.034956901	-1.1648721905	-0.0024034827	 0.049919
C	-0.1546997033	-2.6119393294	-0.0082147963	-0.464569
C	-1.6007208847	-3.1335663342	-0.0037829856	 0.226937
O	-2.571458089	-2.4137708259	 0.0039030291	-0.268399
C	-1.7022030267	-4.5792922628	-0.0096745421	-0.029147
C	-1.777464176	-5.783977111	-0.0146707973	 0.143817
C	-1.8937288059	-7.2318865315	-0.0202249492	-0.504711
H	 0.7025714729	 1.8502337002	-0.875595328	 0.146315
H	-0.8235240792	 1.951098149	 0.0124556906	 0.154633
H	 0.7063721268	 1.8427520054	 0.8930531288	 0.146323
H	 0.3438009254	-3.0521481496	-0.8835465329	 0.153441
H	 0.3519046731	-3.0598154272	 0.8585315195	 0.153442
H	-2.4726372232	-7.5706928918	-0.8862069781	 0.164893
H	-0.9119046243	-7.7147870206	-0.0571901768	 0.157777
H	-2.4107928859	-7.5816253714	 0.8799349243	 0.164917
7.0539	20.1166	29.9165	57.6675	108.4085	143.5356	205.5972	264.069	294.5786	369.5691	382.0895	385.6007	437.4769	566.026	566.9927	751.5439	818.5342	939.5059	963.1718	1044.528	1051.7794	1054.6426	1054.8539	1170.7214	1185.9577	1210.6044	1338.7699	1409.7628	1414.3322	1435.4654	1470.149	1473.1572	1477.976	1478.2209	1778.7964	2338.9305	2382.9287	3009.7217	3027.051	3032.1805	3034.881	3086.9202	3089.9271	3096.0026	3099.6093
CC#CCC(=O)C#CC	CC#CCC(=O)C#CC	
InChI=1S/C8H8O/c1-3-5-7-8(9)6-4-2/h7H2,1-2H3	InChI=1S/C8H8O/c1-3-5-7-8(9)6-4-2/h7H2,1-2H3
