15
gdb 20559	4.60296	1.4864	1.48048	5.1471	62.02	-0.3136	-0.04	0.2737	909.4087	0.11887	-392.121692	-392.114167	-392.113222	-392.154362	26.341	
C	-0.0054015182	 1.5516312736	 0.0165983366	-0.391338
C	-0.0342628069	 0.0218924373	-0.017672895	 0.042943
C	-1.4507380153	-0.5565800718	 0.0185673691	-0.391287
N	 0.6746674249	-0.4655469385	-1.2141671263	 0.161467
N	 0.3048360292	-0.2081092938	-2.4563607598	-0.126018
N	 1.1801382462	-0.8125505269	-3.2049815709	-0.080364
N	 2.0750681934	-1.433028221	-2.4158281267	-0.088604
N	 1.7624268316	-1.2182097589	-1.1725026472	-0.11649
H	 1.0213249238	 1.9257818107	-0.0061397195	 0.14066
H	-0.5485773357	 1.9679576627	-0.8355827166	 0.152569
H	-0.4805513848	 1.9016551478	 0.936818933	 0.134078
H	 0.5552957296	-0.381581955	 0.8091051159	 0.135076
H	-2.0347254963	-0.2026947571	-0.8348539846	 0.152494
H	-1.4294673361	-1.6492099976	-0.0007528666	 0.14072
H	-1.9487053555	-0.2366896015	 0.9376855086	 0.134094
35.7715	137.8859	211.8827	218.4381	266.8895	320.4822	424.9916	488.8725	652.1051	747.8727	767.2735	892.4461	941.741	958.2842	986.4459	1059.5964	1105.6312	1141.4812	1150.7369	1177.8735	1207.4185	1250.7529	1341.4676	1348.9509	1372.2623	1402.855	1423.0466	1438.3207	1482.3562	1488.1662	1496.7053	1511.7556	3050.1559	3053.4679	3092.9782	3127.3993	3130.9409	3132.6234	3139.4129
CC(C)N1N=NN=N1	CC(C)n1nnnn1	
InChI=1S/C3H7N5/c1-3(2)8-6-4-5-7-8/h3H,1-2H3	InChI=1S/C3H7N5/c1-3(2)8-6-4-5-7-8/h3H,1-2H3
