19
gdb 103761	3.37661	1.00856	0.8969	0.95	68.59	-0.2376	0.0597	0.2973	1325.1486	0.155855	-497.263155	-497.252788	-497.251844	-497.298085	38.238	
O	-0.1145561827	 1.3487824369	-0.3740754239	-0.437197
C	 0.0006613665	 0.0027075243	 0.0957594092	-0.144026
C	-1.3985258867	-0.5590436291	 0.0746189438	 0.365777
O	-2.2945230408	 0.2009995267	 0.8378853318	-0.485161
C	-1.916458472	-1.2382122448	-1.1857848558	-0.404397
C	-1.617883396	-2.0320826018	 0.0786372975	 0.365778
O	-0.4653222097	-2.8281681923	 0.108720906	-0.485162
C	-2.7551710117	-2.6306252517	 0.8673446691	-0.144027
O	-2.9720604338	-3.9300508999	 0.3102171353	-0.437197
H	 0.6810166384	 1.825452295	-0.1225759743	 0.292078
H	 0.6689500357	-0.5948166023	-0.5339931108	 0.109377
H	 0.3838317415	-0.0179549577	 1.1258933321	 0.09848
H	-2.1510435992	 1.1142243189	 0.5565030653	 0.288687
H	-2.9556947289	-1.0730975693	-1.4468639388	 0.114183
H	-1.230615251	-1.3536829033	-2.0174835309	 0.114183
H	-0.770390656	-3.7186969263	-0.1095313709	 0.288687
H	-2.4633064372	-2.7047824453	 1.9245758784	 0.098481
H	-3.6493476113	-2.0013748089	 0.7986056925	 0.109377
H	-3.4829201049	-4.446716509	 0.9390901544	 0.292078
78.9345	108.7364	146.9477	164.2011	227.6753	242.3348	255.5717	287.1915	343.0744	394.1531	400.4954	416.6588	422.1109	468.1612	473.4345	695.2633	718.929	798.9658	910.0631	913.4086	943.7574	983.8602	1026.0736	1039.1808	1044.3715	1049.8901	1111.0661	1205.157	1210.571	1233.7714	1237.3497	1275.4042	1286.923	1327.6378	1366.5666	1419.731	1445.6339	1451.5087	1509.9797	1511.0198	1542.0428	3002.5865	3004.1528	3066.0736	3066.3881	3134.008	3231.6464	3766.4793	3766.8445	3843.1092	3843.1283
OCC1(O)CC1(O)CO	OC[C@@]1(O)C[C@]1(O)CO	
InChI=1S/C5H10O4/c6-2-4(8)1-5(4,9)3-7/h6-9H,1-3H2	InChI=1S/C5H10O4/c6-2-4(8)1-5(4,9)3-7/h6-9H,1-3H2/t4-,5-/m0/s1
