20
gdb 62866	2.81165	1.86088	1.462	3.3382	77.66	-0.2333	0.0729	0.3061	963.3754	0.173086	-403.095296	-403.088072	-403.087128	-403.126382	30.93	
C	-0.0652554225	 1.5886798563	 0.0229780273	-0.434428
C	-0.0666781088	 0.0586899149	 0.0071803015	 0.435145
O	-1.4143493554	-0.2694354931	-0.1327755025	-0.496094
C	 1.0271908337	-0.5971588159	-0.9292358039	-0.112343
C	 2.0488555007	-0.2633301347	 0.218383351	-0.233288
C	 0.8183420419	-0.6180771207	 1.1306737998	-0.112323
C	 0.7611333465	-2.1266368496	 0.814098058	-0.033915
N	-0.3585657871	-2.5948063277	-0.0493610834	-0.377689
C	 0.9106810188	-2.1116574262	-0.6609654769	-0.033907
H	 0.914602908	 2.0526630377	 0.1271700125	 0.107464
H	-0.5214339876	 1.94407165	-0.905627435	 0.12287
H	-0.6993984648	 1.9260882027	 0.8480450374	 0.122878
H	-1.4458191826	-1.2459960996	-0.1458384075	 0.297765
H	 1.1711952083	-0.2722684561	-1.9600957881	 0.061571
H	 2.9095960842	-0.9316913547	 0.2988633524	 0.090714
H	 2.3827049839	 0.7706808148	 0.2627310832	 0.104565
H	 0.7518694061	-0.3142572543	 2.1757770999	 0.06157
H	 1.2522486074	-2.8442034622	 1.4611787863	 0.096958
H	-0.3678900499	-3.6117516725	-0.0606360504	 0.235527
H	 1.5231176492	-2.8170780892	-1.2106131615	 0.096959
143.1519	199.7221	325.2402	339.4956	433.5005	443.1628	469.0693	515.084	610.435	673.0438	696.8496	749.8588	770.7754	807.688	820.1142	861.215	892.5551	899.3679	911.9506	943.4542	982.6118	992.5518	1045.8472	1052.4054	1072.6367	1078.1439	1103.3943	1117.2472	1149.791	1156.888	1203.5644	1220.7379	1239.3628	1248.4075	1253.649	1296.7683	1336.2681	1391.7796	1408.4415	1481.1544	1483.0117	1504.2917	1523.7716	3051.9047	3074.8763	3109.1632	3111.9102	3112.3282	3143.791	3167.0339	3172.2076	3182.7195	3500.7643	3500.9827
CC1(O)C2CC1C1NC21	C[C@@]1(O)[C@H]2C[C@@H]1[C@H]1N[C@@H]21	
InChI=1S/C7H11NO/c1-7(9)3-2-4(7)6-5(3)8-6/h3-6,8-9H,2H2,1H3	InChI=1S/C7H11NO/c1-7(9)3-2-4(7)6-5(3)8-6/h3-6,8-9H,2H2,1H3/t3-,4+,5-,6+,7+
