14
gdb 19728	4.22777	2.42663	2.23898	2.1423	54.56	-0.2584	0.0832	0.3416	653.5267	0.109655	-419.642619	-419.63739	-419.636446	-419.671742	21.476	
C	-0.0097220057	 1.5505931122	-0.0038933884	-0.086698
O	 1.3895548463	 1.8992144317	 0.0327358984	-0.275783
C	 2.0642959221	 0.6357634089	 0.0243000631	 0.142801
O	 1.2421309492	-0.2080197203	-0.7447231414	-0.224243
C	 0.0492502349	 0.0013719086	 0.0196490835	-0.025663
C	 0.5042941946	-0.3578958787	 1.4439520128	 0.037962
O	 1.5649083267	-1.3077134426	 1.4966058805	-0.235279
C	 1.9022960413	 0.0797084161	 1.4515669977	 0.009888
H	-0.5282270795	 1.979951424	 0.8600315019	 0.109196
H	-0.4575864489	 1.9299667863	-0.9277401416	 0.117107
H	 3.0566439498	 0.7376573943	-0.4104161567	 0.102484
H	-0.7893067091	-0.5372981825	-0.4163835564	 0.102514
H	-0.1655640051	-0.2983157771	 2.2952679554	 0.111355
H	 2.4177265933	 0.5108471591	 2.3020791912	 0.114358
265.2325	338.8308	394.4611	505.2294	644.5076	678.6475	812.2285	835.3374	847.4806	883.4879	902.5842	910.047	932.3893	957.5102	977.6868	990.2989	1040.7832	1057.87	1092.8075	1114.7514	1187.5407	1231.9254	1247.3321	1266.3411	1289.0517	1306.3139	1334.5619	1359.61	1416.8169	1516.1527	3039.9212	3087.8136	3149.3024	3152.9793	3173.6062	3191.3965
C1OC2OC1C1OC21	C1O[C@@H]2O[C@H]1[C@H]1O[C@@H]21	
InChI=1S/C5H6O3/c1-2-3-4(8-3)5(6-1)7-2/h2-5H,1H2	InChI=1S/C5H6O3/c1-2-3-4(8-3)5(6-1)7-2/h2-5H,1H2/t2-,3-,4-,5-/m1/s1
