21
gdb 119724	3.08562	0.93637	0.84984	1.8742	78.82	-0.239	0.067	0.306	1438.4041	0.181764	-424.186215	-424.176635	-424.175691	-424.220927	35.66	
O	-0.0438311017	 1.4057162867	 0.0904292858	-0.41796
C	 0.0120442297	-0.0106966059	 0.1535575392	-0.065133
C	-1.3896469905	-0.548754362	-0.1253976748	-0.300322
C	-1.4490937271	-2.0517471778	-0.1086458401	 0.295914
C	-0.8589760165	-2.9699618734	-1.1948810356	-0.278671
C	-2.0882686735	-3.9200112078	-1.0612251303	-0.216271
C	-2.6629236653	-3.0105491059	 0.0304131648	-0.160721
C	-1.6845520986	-2.8533001486	 1.1448339036	 0.059149
O	-0.8957837769	-3.9463095355	 1.5274691671	-0.420515
H	 0.8419799828	 1.7502026336	 0.2360142335	 0.285086
H	 0.719903572	-0.4159149774	-0.5876675905	 0.088728
H	 0.3479786021	-0.354367217	 1.1461812371	 0.077408
H	-2.0762421208	-0.1329841434	 0.6217689193	 0.103904
H	-1.7173920228	-0.1630427359	-1.0992557592	 0.104317
H	-0.8138016565	-2.4798127024	-2.1707233675	 0.099147
H	 0.1194511292	-3.4072409167	-0.9748821151	 0.088593
H	-2.7018374125	-3.9315073687	-1.9641775384	 0.098664
H	-1.879119339	-4.9476073184	-0.7558159091	 0.11096
H	-3.7129979449	-2.7739650047	 0.1632421527	 0.083558
H	-2.0590658894	-2.2578989	 1.9797177821	 0.080641
H	-0.0446035099	-3.6095818287	 1.8259262554	 0.283524
68.3007	94.9124	110.866	215.6231	240.9696	261.3303	278.8378	310.8413	333.7863	344.8463	482.8599	580.1038	702.1794	763.6417	790.1892	798.8028	808.6932	909.2742	955.4372	958.7307	998.767	1006.5775	1020.5357	1047.876	1081.3025	1091.8753	1140.734	1161.3514	1207.2973	1221.9099	1239.2156	1245.658	1253.066	1262.6562	1287.5257	1314.4629	1322.6861	1341.7842	1356.681	1458.1984	1464.7128	1472.718	1487.6651	1506.3332	1526.4569	2956.4407	2983.4737	3023.604	3048.9872	3065.9201	3068.8239	3085.5458	3096.6445	3122.665	3168.3416	3807.0325	3829.3596
OCCC12CCC1C2O	OCC[C@]12CC[C@H]1[C@H]2O	
InChI=1S/C7H12O2/c8-4-3-7-2-1-5(7)6(7)9/h5-6,8-9H,1-4H2	InChI=1S/C7H12O2/c8-4-3-7-2-1-5(7)6(7)9/h5-6,8-9H,1-4H2/t5-,6+,7+/m0/s1
