20
gdb 40673	3.92191	1.07443	0.97515	1.858	79.4	-0.2252	0.0724	0.2976	1269.4848	0.170533	-403.068084	-403.059632	-403.058688	-403.101775	32.06	
C	-0.2338638012	 1.0210721505	-0.5627401326	-0.28413
C	 0.9417275291	 1.2475431407	 0.3643371457	-0.270377
C	 0.4218268589	-0.1415107296	 0.1547627488	 0.04963
N	-0.1481868189	-0.8839116397	 1.2528551604	-0.130891
C	-1.3288623845	-0.3883915769	 1.9624139376	-0.333362
C	-1.4087740361	-1.5678393213	 1.0708083096	 0.302889
C	-2.2331429483	-1.762755834	-0.2029592601	-0.139675
O	-2.4771352407	-3.1401615633	 0.1551186153	-0.277741
C	-1.6697797975	-3.0426219493	 1.3517076602	-0.138366
H	-1.2048438203	 1.3737681109	-0.2336666919	 0.114463
H	-0.0785156251	 1.104571968	-1.633002041	 0.114643
H	 1.9039032551	 1.515466172	-0.0572078954	 0.116974
H	 0.7296191512	 1.7105846508	 1.3225072244	 0.119726
H	 1.0298672495	-0.7924856933	-0.4668163581	 0.100103
H	-1.3031693765	-0.5065604758	 3.0431254377	 0.11928
H	-1.8160108194	 0.5233682182	 1.6203545523	 0.114613
H	-3.1627346154	-1.1850334203	-0.2804519858	 0.103237
H	-1.674016317	-1.6706933654	-1.1428766097	 0.106666
H	-0.7789492427	-3.6821142106	 1.3095881083	 0.108478
H	-2.2453701504	-3.2751582817	 2.2563505943	 0.103843
55.3633	97.637	144.0853	169.4301	297.4012	331.7161	357.1657	456.9081	509.3422	614.5475	693.4337	779.4447	814.1035	855.2602	877.0835	884.733	918.4559	943.1343	976.4328	982.7491	1025.6987	1031.8827	1052.9232	1074.4337	1110.4327	1117.4464	1130.1168	1141.7843	1146.4933	1161.119	1185.9481	1194.4955	1217.4656	1258.1714	1301.7199	1344.2018	1394.1463	1445.209	1463.7265	1499.4227	1505.1847	1516.9057	1530.2682	3005.3983	3016.7892	3051.3445	3057.817	3089.6735	3133.6741	3136.6241	3147.3468	3172.1484	3211.291	3225.7707
C1CC1N1CC11COC1	C1CC1N1CC21COC2	
InChI=1S/C7H11NO/c1-2-6(1)8-3-7(8)4-9-5-7/h6H,1-5H2	InChI=1S/C7H11NO/c1-2-6(1)8-3-7(8)4-9-5-7/h6H,1-5H2
