20
gdb 17169	3.76455	1.80998	1.54174	0.226	79.16	-0.2792	0.0945	0.3737	924.9486	0.177801	-311.801968	-311.794684	-311.79374	-311.833366	28.99	
C	-0.0771959908	 1.5386228734	 0.0210581016	-0.377504
C	 0.0803564916	 0.0138086789	-0.0330560042	-0.318015
C	 0.8009355441	-0.4653757155	-1.267547527	 0.387796
C	 2.2376344756	-0.1321720784	-1.7366870774	-0.310321
C	 1.6967720519	-1.0826364459	-2.8184919149	-0.03999
C	 0.9137558098	-1.9523241239	-1.778396645	-0.085728
C	-0.3993059058	-1.8602723548	-2.580632514	-0.268436
C	 0.25495909	-0.4750664709	-2.7497815029	-0.071351
H	 0.8971764397	 2.0378825377	 0.003905741	 0.118869
H	-0.6532228715	 1.9063902359	-0.834650318	 0.116867
H	-0.595675546	 1.8503533248	 0.9328665351	 0.110912
H	 0.6279987792	-0.3303731016	 0.8546954718	 0.096836
H	-0.9083017147	-0.461496198	 0.0160877603	 0.097875
H	 2.4341264195	 0.9015253842	-2.0417460982	 0.08715
H	 3.0564502268	-0.5081976774	-1.1127073886	 0.08498
H	 2.1877733552	-1.454677255	-3.7191068632	 0.06566
H	 1.3204987765	-2.7915072789	-1.2099195397	 0.062982
H	-0.4687107381	-2.482156696	-3.4792279336	 0.088172
H	-1.3355812725	-1.9057326065	-2.0149207813	 0.089405
H	-0.0990452403	 0.3932024979	-3.3094164118	 0.063842
84.4496	177.5051	203.9699	290.9291	352.1457	419.1112	464.9202	615.3487	716.6841	757.6932	785.4823	862.8286	869.3534	878.3361	902.0163	912.2173	958.7294	981.5554	992.8214	1025.9987	1028.6787	1052.4757	1061.0942	1121.8891	1128.4161	1154.3816	1159.0915	1168.5004	1188.3702	1217.3842	1239.1998	1247.4788	1284.7097	1315.0595	1326.3892	1377.3415	1410.252	1478.1878	1499.8722	1506.2725	1509.1252	1510.5273	3011.4515	3026.2388	3034.3906	3035.1474	3043.0835	3081.695	3086.2434	3087.7442	3089.8204	3102.8345	3104.5769	3105.4851
CCC12CC3C1CC23	CC[C@@]12C[C@H]3[C@@H]1C[C@@H]23	
InChI=1S/C8H12/c1-2-8-4-5-6(8)3-7(5)8/h5-7H,2-4H2,1H3	InChI=1S/C8H12/c1-2-8-4-5-6(8)3-7(5)8/h5-7H,2-4H2,1H3/t5-,6-,7+,8+
