20
gdb 45422	2.44519	1.69144	1.67247	3.3815	78.52	-0.2459	0.0394	0.2853	973.3169	0.175791	-403.193972	-403.186751	-403.185807	-403.225588	29.329	
N	-0.0474363343	 1.2869944816	 0.0111841243	-0.548395
C	-0.032098805	 0.0214145799	 0.0039245898	 0.416254
O	 1.125058334	-0.7113638049	-0.0067229177	-0.265032
C	 0.9054436513	-2.1419549368	-0.0134312836	 0.099706
C	 0.1337718556	-2.5216478574	 1.2557514771	-0.216007
C	-1.2133227141	-1.7475851001	 1.259281867	-0.221634
C	-1.2672629278	-0.8430584026	 0.0059588721	-0.080938
C	-1.227365928	-1.7335189542	-1.2579196721	-0.221645
C	 0.1195467172	-2.5076886355	-1.2779709698	-0.216011
H	 0.9100150724	 1.6477730076	 0.0078888266	 0.213529
H	 1.9053883765	-2.5803164216	-0.021470733	 0.082998
H	-0.0191196898	-3.6052887661	 1.2778321092	 0.103227
H	 0.7388071835	-2.2630422854	 2.1291348904	 0.112732
H	-2.0666850081	-2.4330290444	 1.2421621853	 0.100427
H	-1.3095957288	-1.1380894091	 2.1615827657	 0.116038
H	-2.1459618739	-0.1982002556	 0.0144786918	 0.09232
H	-2.0806118128	-2.4190536023	-1.238971213	 0.100429
H	-1.3335425852	-1.1139729482	-2.1522284594	 0.116038
H	 0.7147472191	-2.2395941859	-2.1552408263	 0.11273
H	-0.0338210518	-3.5910082188	-1.3101644343	 0.103234
88.6851	164.7411	265.7563	354.5576	369.4542	421.7797	523.7981	529.7003	627.5162	728.2061	787.1715	804.8826	816.2699	839.0198	882.5088	883.6168	905.2671	944.4792	953.5603	1015.027	1041.0529	1056.4302	1068.7068	1069.5561	1121.0551	1159.7259	1204.8451	1226.6244	1263.4846	1265.1446	1297.0175	1316.0489	1322.8424	1337.4042	1365.7094	1375.4713	1381.1174	1409.0869	1476.4098	1487.9053	1498.1088	1511.8209	1761.7305	3044.2825	3045.9558	3054.8232	3057.2231	3083.3104	3084.8735	3093.4635	3103.3082	3106.8971	3116.4421	3449.4516
N=C1OC2CCC1CC2	[NH][C]1O[C@H]2CC[C@@H]1CC2	
InChI=1S/C7H11NO/c8-7-5-1-3-6(9-7)4-2-5/h5-6,8H,1-4H2	InChI=1S/C7H11NO/c8-7-5-1-3-6(9-7)4-2-5/h5-6,8H,1-4H2/t5-,6+
