19
gdb 62060	4.25032	0.68101	0.61087	3.6647	77.5	-0.245	0.0112	0.2561	1775.105	0.15817	-419.178642	-419.168967	-419.168023	-419.21427	34.436	
O	 0.1096595313	 1.4737583222	 0.1256550611	-0.407296
C	 0.0145944348	 0.0664940263	-0.009349051	-0.023009
C	 0.6035896925	-0.4590589541	-1.3282566862	-0.204502
C	-0.0886679299	 0.1505688938	-2.548718458	-0.150237
N	 0.5549421637	-0.3085303538	-3.7711151277	-0.063131
C	 0.0281687394	-1.5349303463	-4.3638075415	-0.222371
C	-0.2318588607	-0.2111965726	-4.9942865616	-0.221095
C	 0.6351197081	-0.6187414843	 1.1446913018	 0.258471
N	 1.149079148	-1.1411202697	 2.0381561983	-0.314127
H	 1.0442657761	 1.7109608396	 0.1539992748	 0.296501
H	-1.0604735785	-0.1473801688	 0.0193588467	 0.140157
H	 1.6758199606	-0.2335944361	-1.3646770856	 0.12173
H	 0.5115804448	-1.5510561493	-1.3473650195	 0.123518
H	-1.1675145329	-0.0968582553	-2.5244916068	 0.080123
H	-0.0109686618	 1.2414943858	-2.5064656087	 0.120846
H	 0.7640778432	-2.2143746638	-4.7833626071	 0.121792
H	-0.8125553413	-2.0207910155	-3.8697129951	 0.109271
H	-1.2445022976	 0.1825638767	-4.9207422294	 0.112162
H	 0.3121078104	 0.0959354351	-5.8827391945	 0.121197
57.4203	65.4384	98.4277	142.0969	192.7089	240.1436	285.7566	334.0151	379.9638	420.5441	446.4107	587.1296	592.6999	765.3018	791.3667	843.0149	877.6145	918.5184	966.9234	1020.4548	1037.9418	1066.143	1095.2855	1110.8789	1115.6352	1119.7686	1162.5275	1177.4887	1231.4312	1271.517	1295.5094	1323.781	1333.3948	1350.954	1405.0263	1421.3444	1480.9069	1490.9363	1502.5862	1523.7597	2355.0471	2918.3622	3039.5948	3051.5808	3072.6709	3090.7227	3092.4313	3097.7217	3178.6289	3192.6676	3796.4973
OC(CCN1CC1)C#N	O[C@@H](CCN1CC1)C#N	
InChI=1S/C6H10N2O/c7-5-6(9)1-2-8-3-4-8/h6,9H,1-4H2	InChI=1S/C6H10N2O/c7-5-6(9)1-2-8-3-4-8/h6,9H,1-4H2/t6-/m0/s1
