17
gdb 123792	5.10189	0.93746	0.84013	4.2525	74.52	-0.2044	-0.0005	0.2039	1346.5845	0.136674	-417.968408	-417.96031	-417.959366	-418.002178	29.998	
C	-0.3706663596	 0.9981317132	-0.2565659149	-0.261501
C	 1.0462381996	 1.1107062837	 0.2540988035	-0.290131
C	 0.4603570602	-0.2450876136	-0.0045155383	 0.040552
N	 0.1852016678	-1.1085696133	 1.1029562812	-0.413336
C	-1.003725995	-1.8184256888	 1.1489631319	 0.192364
C	-1.95487528	-2.0007857791	 0.1870449886	-0.003993
O	-2.9286988305	-2.8214310304	 0.6481490636	-0.170988
N	-2.6360661344	-3.1893533446	 1.9432269297	-0.128739
C	-1.500506484	-2.6029946387	 2.2331089063	-0.050122
H	-1.1730377548	 1.2059514072	 0.4418728302	 0.124969
H	-0.5754247014	 1.2831032895	-1.2826564297	 0.117535
H	 1.8193861636	 1.4700383304	-0.4151665358	 0.123294
H	 1.1818738393	 1.4107114959	 1.2885133207	 0.115098
H	 0.8183569931	-0.7709342489	-0.8878716842	 0.101533
H	 0.5465492552	-0.8095554177	 1.9941477307	 0.240328
H	-2.0712897767	-1.6424365486	-0.8211464217	 0.140679
H	-1.0610132223	-2.7507832962	 3.2100162983	 0.122459
48.2197	72.1596	113.6326	290.7529	304.8974	348.8503	397.523	483.8314	605.9634	668.9173	745.2869	758.6691	766.6549	827.7451	850.9037	879.3377	928.3033	941.3581	968.6988	998.2553	1040.7026	1053.4363	1079.5918	1128.3574	1130.336	1189.0155	1192.9692	1221.7553	1265.5503	1310.3364	1346.5678	1404.2989	1462.7192	1478.9769	1498.8189	1520.7301	1679.0255	3114.5859	3132.7841	3140.3831	3214.8537	3232.3726	3236.3126	3290.6889	3627.9032
C1CC1NC1=CON=C1	C1CC1Nc1conc1	
InChI=1S/C6H8N2O/c1-2-5(1)8-6-3-7-9-4-6/h3-5,8H,1-2H2	InChI=1S/C6H8N2O/c1-2-5(1)8-6-3-7-9-4-6/h3-5,8H,1-2H2
