16
gdb 43709	4.82644	1.16863	1.05482	3.2104	70.12	-0.2482	0.03	0.2781	1108.8589	0.124394	-437.832133	-437.825026	-437.824082	-437.863785	28.17	
O	 0.1207322591	-0.0815117853	 0.0010186052	-0.356719
C	-0.0049405829	 1.1114380514	 0.0091766555	 0.436046
C	-1.1900370115	 2.11583687	 0.0317020885	-0.52661
C	-0.0906736573	 3.2049454409	 0.0213947728	 0.500335
N	 0.8981927823	 2.1521929525	 0.0021721397	-0.399691
C	 0.0307473919	 4.461624927	-0.87664791	-0.034298
C	-0.9694080282	 5.1966673029	 0.0436919701	-0.225115
C	 0.0565739994	 4.4528078723	 0.9278065985	-0.034299
O	 1.1340178911	 4.9152221729	 0.0122020801	-0.327666
H	-1.8286944051	 2.0768852175	-0.8525943846	 0.137339
H	-1.8027948565	 2.0675815091	 0.93369051	 0.137358
H	 1.9063754253	 2.1909593337	-0.0128307551	 0.260549
H	 0.185041498	 4.5413107761	-1.9530310491	 0.10335
H	-0.8592004741	 6.2805364403	 0.0474060498	 0.118214
H	-2.0107396548	 4.866335379	 0.0569857808	 0.107855
H	 0.2416392932	 4.5219973197	 2.0000546279	 0.103352
83.6536	179.5181	247.1653	404.5501	416.1769	441.2595	453.3854	563.0603	571.6719	649.5221	753.459	777.3534	786.1748	868.4729	877.0263	914.1224	964.7264	1002.5115	1008.1209	1046.9636	1076.7839	1090.096	1127.4901	1149.1315	1170.8888	1172.8411	1200.2014	1211.9639	1248.029	1270.5308	1299.4164	1403.0905	1458.7032	1484.0717	1903.364	3072.0014	3085.3514	3118.9303	3124.5642	3143.3255	3160.994	3622.12
O=C1CC2(N1)C1CC2O1	O=C1C[C@@]2(N1)[C@H]1C[C@@H]2O1	
InChI=1S/C6H7NO2/c8-5-2-6(7-5)3-1-4(6)9-3/h3-4H,1-2H2,(H,7,8)	InChI=1S/C6H7NO2/c8-5-2-6(7-5)3-1-4(6)9-3/h3-4H,1-2H2,(H,7,8)/t3-,4+,6-
