17
gdb 79369	3.09099	1.47389	1.14562	4.4773	78.29	-0.253	0.0023	0.2553	1079.6207	0.136394	-380.788873	-380.781315	-380.780371	-380.820774	29.375	
C	-0.1550297205	 1.5786124395	 0.0401090375	-0.4257
C	-0.0292411409	 0.0737916965	-0.0616600677	 0.053474
C	 0.8933194905	-0.5824126346	-1.0903259082	-0.113612
C	 2.1289717271	-0.2789480205	-0.1883602362	-0.032693
C	 2.6155975743	-1.7289706321	-0.1562661809	-0.303373
C	 1.0844915803	-1.7939925582	-0.1151943842	 0.262888
C	 0.2220268649	-2.9378935419	 0.0365066887	 0.1791
N	-0.4634469801	-3.8639509613	 0.1359406398	-0.347043
N	 1.0119090988	-0.5787661831	 0.8616473349	-0.185405
H	 0.8041352391	 2.0867537213	-0.0962041886	 0.119447
H	-0.8461742551	 1.9543959454	-0.7215842059	 0.126875
H	-0.5511278027	 1.8587985017	 1.0212362298	 0.137564
H	-1.0066669744	-0.4079604503	 0.0586263588	 0.094486
H	 0.844590531	-0.6261511652	-2.18308444	 0.083881
H	 2.7098383914	 0.6388492618	-0.1311036743	 0.102954
H	 3.0947123416	-2.1147736753	-1.0581393526	 0.117948
H	 3.1263706247	-2.0489318938	 0.7544034392	 0.12921
121.9686	166.7205	206.0056	258.7926	276.2389	419.7789	450.935	534.9214	550.3721	611.0723	706.4693	742.3269	830.9245	854.5571	862.788	880.3169	942.1947	1014.7434	1023.0187	1042.611	1047.2726	1090.5831	1108.2113	1133.147	1163.0117	1168.1172	1218.0836	1236.0417	1264.6656	1280.7367	1286.4981	1404.6268	1420.9003	1492.095	1492.9326	1494.7628	2349.9665	3039.2682	3042.6729	3058.3678	3071.778	3107.019	3114.4024	3141.829	3146.4359
CC1C2C3CC2(C#N)N13	C[C@H]1[C@H]2[C@@H]3C[C@@]2(C#N)N13	
InChI=1S/C7H8N2/c1-4-6-5-2-7(6,3-8)9(4)5/h4-6H,2H2,1H3	InChI=1S/C7H8N2/c1-4-6-5-2-7(6,3-8)9(4)5/h4-6H,2H2,1H3/t4-,5-,6-,7-/m0/s1
