22
gdb 120776	3.42413	0.76288	0.6796	1.6717	84.59	-0.2322	0.0817	0.3139	1713.5489	0.193282	-404.292058	-404.282213	-404.281268	-404.327733	36.034	
O	-0.0555220689	 1.4278896356	 0.086296277	-0.422136
C	-0.0547486582	 0.0238802587	 0.3028449893	-0.064094
C	-1.3158435791	-0.5487430876	-0.3342549214	-0.196541
C	-1.398306858	-2.0538006659	-0.1987489578	-0.033544
C	-1.8978535583	-2.6910208823	 1.082612594	-0.315231
C	-2.7253703736	-2.7729185435	-0.1726751151	 0.03958
N	-3.9311495796	-1.9931208934	-0.2231479768	-0.058205
C	-4.7347744281	-2.1105796241	-1.4360063835	-0.221523
C	-5.1876741491	-2.7328251268	-0.1606000644	-0.221534
H	 0.7298203387	 1.7955906835	 0.5014086406	 0.28317
H	 0.8372950671	-0.4461913346	-0.1445743037	 0.076847
H	-0.0418515849	-0.2161961769	 1.3779911111	 0.085743
H	-2.1938234753	-0.0856995729	 0.1240709995	 0.122549
H	-1.3268963502	-0.263318458	-1.3935741779	 0.100073
H	-0.6028939514	-2.5951616629	-0.7067773737	 0.079611
H	-1.4174273541	-3.5898847388	 1.4529704012	 0.106278
H	-2.2686443707	-2.0219113003	 1.8519533359	 0.119737
H	-2.7640178371	-3.7427723004	-0.6782349749	 0.066721
H	-5.1874712495	-1.1907732644	-1.7950233471	 0.117901
H	-4.380378174	-2.7800491577	-2.2181483696	 0.109348
H	-5.1353034916	-3.8180877628	-0.0903161309	 0.109155
H	-5.9776962639	-2.2757061945	 0.4284963883	 0.116094
61.0599	77.4544	91.9442	120.455	197.1044	256.8253	261.7219	296.9877	338.6561	436.6947	477.1974	588.3412	726.502	792.6666	814.3115	834.3528	847.9165	899.3397	927.2001	970.6884	995.042	1030.4718	1049.8629	1057.4764	1075.5758	1084.4126	1115.3237	1117.3035	1121.2647	1139.108	1174.6465	1182.9147	1208.1674	1229.9397	1238.8253	1246.7791	1305.2619	1323.5219	1330.6724	1398.1032	1422.2142	1460.4064	1485.4616	1491.1789	1498.2542	1519.3304	1527.9967	2956.1167	2987.1375	3036.7858	3041.1116	3094.1908	3098.6527	3100.482	3127.2365	3132.6513	3176.743	3191.3681	3220.4614	3830.957
OCCC1CC1N1CC1	OCC[C@H]1C[C@H]1N1CC1	
InChI=1S/C7H13NO/c9-4-1-6-5-7(6)8-2-3-8/h6-7,9H,1-5H2	InChI=1S/C7H13NO/c9-4-1-6-5-7(6)8-2-3-8/h6-7,9H,1-5H2/t6-,7+/m0/s1
