16
gdb 32186	2.13577	1.73322	1.01321	2.2427	73.9	-0.2232	-0.0435	0.1797	1138.1717	0.125973	-434.113994	-434.10574	-434.104796	-434.147254	29.601	
C	 0.416411852	 0.7374733196	 0.5110061879	-0.341848
N	-0.2602596337	 0.1570143592	-0.6621156421	-0.37996
C	-1.4177735232	-0.5778120669	-0.4216505221	 0.402027
N	-2.6407747221	-0.2065711391	-0.6746847263	-0.326895
C	-3.4406541867	-1.2882473213	-0.3149077942	-0.091431
C	-2.6961352709	-2.3100651332	 0.1749369804	-0.111091
N	-1.3703789532	-1.8732196949	 0.0953100945	-0.088579
C	-0.2352260653	-2.6559751928	 0.3027069637	 0.169728
O	-0.2715208801	-3.7790900671	 0.7311929282	-0.289092
H	 1.3102535297	 1.2658469423	 0.1713578191	 0.135758
H	-0.2213048659	 1.4352057953	 1.0709953996	 0.13137
H	 0.7352160674	-0.0559946045	 1.1908064732	 0.135169
H	-0.5011377794	 0.888631141	-1.3213536606	 0.25295
H	-4.5129675108	-1.2424994376	-0.4261908077	 0.121524
H	-2.9265641303	-3.2891624284	 0.5557852257	 0.157474
H	 0.6854081425	-2.1262812614	 0.0116302907	 0.122897
96.7825	135.4858	151.8185	155.6406	219.1111	282.2617	368.1981	409.8057	567.7294	633.7152	650.3074	739.382	772.5497	792.7331	844.0951	877.2859	927.7714	1042.0766	1046.3425	1093.0235	1113.4209	1150.4895	1174.384	1209.5701	1296.4811	1378.2511	1411.2645	1433.0677	1450.593	1488.6163	1491.8914	1514.0269	1561.3008	1616.1319	1820.9086	3009.9581	3024.6529	3097.3153	3132.0842	3256.9237	3305.0009	3553.1202
CNC1=NC=CN1C=O	CNc1nccn1C=O	
InChI=1S/C5H7N3O/c1-6-5-7-2-3-8(5)4-9/h2-4H,1H3,(H,6,7)	InChI=1S/C5H7N3O/c1-6-5-7-2-3-8(5)4-9/h2-4H,1H3,(H,6,7)
