14
gdb 124977	3.25709	1.26224	0.93963	2.0191	67.84	-0.277	-0.0505	0.2265	1157.6035	0.099844	-432.864722	-432.85633	-432.855386	-432.899372	28.843	
C	 0.4199230037	 1.4336716657	-0.0427100565	-0.510557
C	 0.0507038951	-0.0105799415	-0.0866007469	 0.171342
C	 0.0145811154	-0.9318305322	-1.0907236021	 0.33975
C	 0.297019266	-0.9308006253	-2.5640484884	-0.456377
C	 1.2786462982	 0.0673559269	-2.9852379695	 0.283773
N	 2.0497450761	 0.8526716554	-3.3344297979	-0.299352
O	-0.4110932493	-2.0983804475	-0.5952495896	-0.22046
N	-0.6493482222	-1.8804247544	 0.7967925925	-0.005604
N	-0.3738591509	-0.6828563578	 1.0463419302	-0.152756
H	 0.911786979	 1.7492689356	-0.9634330718	 0.164092
H	-0.4675281435	 2.0579778657	 0.1056574995	 0.149179
H	 1.0972652431	 1.623558833	 0.7945090855	 0.155865
H	 0.6589791465	-1.9236059159	-2.8527959814	 0.192505
H	-0.6314258372	-0.7661674976	-3.1264115737	 0.188601
27.195	65.1105	126.3243	230.1281	254.3245	297.4637	374.1176	391.3811	469.5269	645.2826	662.3366	696.9537	705.5238	755.1977	943.6921	962.065	990.467	1024.9008	1070.5674	1193.6287	1198.3854	1246.3922	1313.7622	1402.3092	1425.2831	1452.478	1472.8134	1482.1508	1492.2825	1658.535	2372.7745	3033.6302	3048.6447	3080.5272	3107.2889	3153.1052
CC1=C(CC#N)ON=N1	Cc1c(CC#N)onn1	
InChI=1S/C5H5N3O/c1-4-5(2-3-6)9-8-7-4/h2H2,1H3	InChI=1S/C5H5N3O/c1-4-5(2-3-6)9-8-7-4/h2H2,1H3
