19
gdb 89220	3.10632	1.58109	1.28152	2.5137	73.59	-0.2324	0.0682	0.3005	1028.491	0.160147	-422.994173	-422.986569	-422.985625	-423.025868	30.905	
C	-0.0321840299	 1.4734877856	 0.0836197298	-0.491006
C	 0.0164677441	-0.0277065851	-0.0555138088	 0.296896
C	 0.9984236812	-0.6776780994	-1.026069199	-0.323665
C	 0.3935085967	-2.0809228233	-1.3553851636	 0.164712
O	 1.3165736384	-3.1460441141	-1.3093633291	-0.446109
C	-0.7002520598	-2.2297374306	-0.2946067954	 0.043277
O	 0.0114784492	-2.2344514634	 0.995454543	-0.32844
C	-0.3516998098	-0.858523092	 1.1616062638	 0.0635
C	-1.2780539907	-0.8336838434	-0.0175071907	-0.203196
H	 0.9308263718	 1.8703322046	 0.4239152335	 0.124259
H	-0.2709691566	 1.9522327364	-0.8730410678	 0.121049
H	-0.7930935143	 1.7836417608	 0.8082475466	 0.117061
H	 1.1073826117	-0.0662491824	-1.9274997469	 0.100529
H	 1.9974800903	-0.8001966803	-0.5952692288	 0.104221
H	-0.0409893523	-2.0938925734	-2.3609319824	 0.085764
H	 1.5691671858	-3.225065208	-0.3793444663	 0.285492
H	-1.355033731	-3.0965361103	-0.3908354162	 0.085571
H	-0.4354824804	-0.4753789626	 2.172579814	 0.102981
H	-2.2874691944	-0.4693193593	-0.1490304756	 0.097104
113.3645	218.1609	236.4864	275.746	317.6569	410.1351	467.7376	502.891	507.169	577.4742	662.4521	762.6457	766.1961	829.9209	865.5726	883.5391	892.5926	919.6574	962.354	989.8238	1015.7867	1040.9333	1056.4411	1076.502	1102.3496	1115.2227	1168.2703	1195.5792	1215.7331	1237.9037	1257.6684	1290.2051	1306.687	1323.8913	1344.5738	1403.3957	1419.4382	1440.8996	1487.7816	1492.8528	1502.8344	3022.7375	3044.5079	3054.3507	3085.2236	3087.9056	3092.3575	3113.472	3174.3832	3207.5924	3757.2446
CC12CC(O)C3OC1C23	C[C@@]12C[C@@H](O)[C@H]3O[C@@H]1[C@@H]23	
InChI=1S/C7H10O2/c1-7-2-3(8)5-4(7)6(7)9-5/h3-6,8H,2H2,1H3	InChI=1S/C7H10O2/c1-7-2-3(8)5-4(7)6(7)9-5/h3-6,8H,2H2,1H3/t3-,4+,5-,6-,7+/m1/s1
