20
gdb 91713	2.57081	1.62808	1.47087	3.1553	78.93	-0.2519	0.0343	0.2862	1018.6092	0.174261	-403.187019	-403.179555	-403.178611	-403.218696	30.416	
C	-0.1719913187	 1.5540902007	 0.0181639568	-0.412268
C	 0.0252397587	 0.03960476	 0.0030677943	 0.032849
C	 0.8746018776	-0.5026253516	-1.1977214852	-0.245007
C	 2.0099905261	-1.3061255413	-0.4954153664	-0.099979
C	 1.2587858873	-1.905596169	 0.714672388	-0.246398
C	 0.8242971478	-0.5179165773	 1.2028939548	 0.090182
O	 2.0915911583	 0.1929193145	 1.2676216765	-0.264082
C	 2.85632066	-0.2799176552	 0.2226330816	 0.437552
N	 4.0210870386	 0.1076360513	-0.0666618782	-0.567122
H	 0.7889544624	 2.0742754008	 0.0552812938	 0.134861
H	-0.7037055514	 1.8838298911	-0.8799498558	 0.115688
H	-0.7586036031	 1.8692901011	 0.8879421145	 0.112453
H	-0.9582466029	-0.4449209645	 0.0081098075	 0.076031
H	 0.2872661952	-1.1613472327	-1.8432000752	 0.10294
H	 1.276942566	 0.3015347792	-1.8189596896	 0.1195
H	 2.585224655	-1.9685882803	-1.1374457316	 0.092409
H	 0.4210363896	-2.5498160729	 0.4369144636	 0.104705
H	 1.9073262688	-2.4234378987	 1.4252626414	 0.114907
H	 0.3464822186	-0.4342194202	 2.1786909386	 0.081766
H	 4.3282932562	 0.8320581652	 0.5859817709	 0.219012
106.7987	196.7091	240.0876	269.8818	373.1846	418.0307	453.3734	494.2874	560.9676	712.2473	739.0714	755.8741	831.0858	844.1376	876.651	896.4935	921.8524	940.9808	956.3487	962.0105	970.2619	1011.456	1047.6565	1061.2576	1082.4059	1128.4144	1152.2145	1198.7915	1204.3516	1246.6688	1261.3863	1286.782	1309.3754	1314.1795	1332.4006	1368.7471	1380.1538	1412.8307	1489.3578	1496.5983	1501.9487	1503.3479	1790.2295	3030.8959	3036.6498	3059.9977	3069.17	3098.7655	3107.6913	3120.4428	3125.0037	3126.9086	3154.3696	3460.9635
CC1CC2CC1OC2=N	C[C@H]1C[C@@H]2C[C@H]1O[C]2[NH]	
InChI=1S/C7H11NO/c1-4-2-5-3-6(4)9-7(5)8/h4-6,8H,2-3H2,1H3	InChI=1S/C7H11NO/c1-4-2-5-3-6(4)9-7(5)8/h4-6,8H,2-3H2,1H3/t4-,5+,6+/m0/s1
