19
gdb 26337	4.00903	1.01731	0.83278	0.6275	79.84	-0.1612	0.0708	0.232	1375.7437	0.158775	-419.221974	-419.212318	-419.211374	-419.25633	35.708	
C	 0.0256807475	 1.3871406023	 0.2837121256	-0.327355
N	-0.0215534848	 0.0615370371	-0.311939885	-0.153347
C	 1.2024749795	-0.6940695503	-0.1424920167	-0.320132
C	-1.2009005129	-0.6693664304	-0.0964839705	 0.349807
C	-1.3023057131	-2.0171849214	 0.1730393335	-0.207007
N	-2.6597523298	-2.3277402679	 0.2374675967	-0.315528
C	-3.3866229057	-1.2012161008	 0.0316974707	 0.417357
O	-4.7404067044	-1.30722099	 0.0655781222	-0.439086
C	-2.5372451709	-0.1422626095	-0.1799376305	-0.430289
H	 0.9076155038	 1.9178959085	-0.0884974139	 0.1134
H	-0.8557059749	 1.9642073148	-0.0034423307	 0.124437
H	 0.0749767968	 1.3672329178	 1.3872766838	 0.099089
H	 1.3588273905	-1.0452455727	 0.8945001359	 0.095052
H	 1.1871836179	-1.5705137019	-0.7977911061	 0.124004
H	 2.0564542931	-0.071409656	-0.4239740011	 0.112413
H	-0.5569329551	-2.7771940501	 0.3219257251	 0.107883
H	-3.0555101131	-3.2318936588	 0.4208278806	 0.261069
H	-5.1136509257	-0.4397937473	-0.1156175636	 0.305556
H	-2.8308224685	 0.8730346965	-0.3927645461	 0.082677
50.9011	139.5615	195.698	201.825	215.7868	245.9526	262.6773	313.4096	365.5733	399.4108	425.8043	514.4575	573.216	587.4456	655.4088	670.7174	721.0069	727.3586	927.1847	999.1486	1023.6028	1076.3505	1116.0726	1125.049	1164.4268	1172.6859	1181.5599	1234.3486	1269.4026	1322.0126	1355.4632	1430.6079	1442.6988	1473.6069	1482.5213	1491.7497	1501.7318	1514.7724	1558.4421	1590.4132	1639.6748	2931.8973	2946.015	3061.6296	3070.4118	3107.823	3121.7181	3251.9776	3291.7248	3699.154	3852.0728
CN(C)C1=CNC(O)=C1	CN(C)c1c[nH]c(O)c1	
InChI=1S/C6H10N2O/c1-8(2)5-3-6(9)7-4-5/h3-4,7,9H,1-2H3	InChI=1S/C6H10N2O/c1-8(2)5-3-6(9)7-4-5/h3-4,7,9H,1-2H3
