21
gdb 84348	2.08602	1.53588	1.26539	0.6374	88.73	-0.2452	0.0163	0.2615	1147.7977	0.181786	-349.9377	-349.92841	-349.927466	-349.971238	36.083	
C	 0.9651189907	 1.4761724956	-0.2328085163	-0.394482
C	 0.1564067512	 0.1860084754	-0.0054971517	-0.037582
C	 0.3983368452	-0.8149443729	-1.1137751768	-0.060734
C	 1.1583976759	-1.8359967018	-0.7278045898	-0.077579
C	 1.5554099056	-1.7227889246	 0.7382229314	-0.228136
C	 2.9709251114	-1.3808320962	 0.8821878367	 0.366153
C	 4.1384591432	-1.1102515667	 0.9892583201	-0.507521
C	 0.5461273667	-0.6384749641	 1.2604644736	 0.008603
C	 0.9943011722	 0.1500940787	 2.4871961751	-0.418468
H	 2.0385390846	 1.2674668551	-0.2654490904	 0.132633
H	 0.684905999	 1.9400067055	-1.1845498799	 0.108857
H	 0.7799905657	 2.2075182968	 0.5600698578	 0.112786
H	-0.9044956708	 0.4623805786	 0.0534795115	 0.070733
H	 0.02788838	-0.6632662859	-2.1225296641	 0.09246
H	 1.5168946419	-2.6430580253	-1.3557428399	 0.10058
H	 1.3875881073	-2.6665291779	 1.2738486971	 0.101735
H	 5.1690401766	-0.872664902	 1.0833165657	 0.194281
H	-0.3506349196	-1.2080901719	 1.5316550903	 0.080901
H	 1.9201857538	 0.7004510231	 2.30329428	 0.132756
H	 0.2231792376	 0.8666588435	 2.7898964211	 0.109128
H	 1.1739407918	-0.5198645031	 3.3346158487	 0.112896
74.1825	138.8424	173.1664	245.214	245.5945	268.5519	282.9575	326.9898	417.99	476.4412	525.2353	573.2527	612.5526	631.3218	677.2818	744.9347	764.0931	784.1684	847.0673	921.1462	967.9192	974.9866	986.0016	1000.8611	1042.2272	1086.8176	1100.7848	1137.1874	1152.6427	1174.3684	1234.5512	1290.6628	1305.4595	1341.6489	1359.1484	1363.3207	1364.0394	1406.2304	1416.4594	1489.3252	1495.8727	1503.1925	1508.681	1686.5422	2224.2609	3007.9685	3012.3875	3032.8409	3033.4702	3039.0847	3095.3089	3099.4424	3115.4089	3122.7152	3178.4358	3210.1894	3503.2068
CC1C=CC(C#C)C1C	C[C@H]1C=C[C@@H](C#C)[C@H]1C	
InChI=1S/C9H12/c1-4-9-6-5-7(2)8(9)3/h1,5-9H,2-3H3	InChI=1S/C9H12/c1-4-9-6-5-7(2)8(9)3/h1,5-9H,2-3H3/t7-,8-,9+/m0/s1
