13
gdb 129889	5.52693	1.33523	1.07656	4.4714	67.81	-0.2034	-0.0173	0.1861	1018.17	0.092058	-448.922474	-448.915855	-448.914911	-448.953258	25.857	
N	 0.0592449237	 1.3631706788	 0.1501064799	-0.587448
C	-0.0478806192	-0.0122844565	 0.0548267316	 0.316078
C	-1.1919020859	-0.78786869	 0.0334710603	-0.25456
N	-0.6960203109	-2.0977046906	 0.004445967	-0.041134
C	-0.9521911817	-3.4354206303	-0.0346218932	 0.038965
N	 0.1394353785	-4.1464043086	-0.0528539614	-0.139724
O	 1.2090834242	-3.2092766405	-0.0262328872	-0.247017
C	 0.6671307939	-1.9859161427	 0.0081022832	 0.537234
N	 1.1214137702	-0.7684703581	 0.0355627897	-0.442823
H	 0.9600682044	 1.6992156047	-0.1602302026	 0.261464
H	-0.7037213153	 1.8828212498	-0.2579219988	 0.251111
H	-2.2402083135	-0.555093758	 0.0523632549	 0.132148
H	-1.9332215985	-3.8826984481	-0.0477728134	 0.175705
154.4859	269.538	309.2101	325.3234	334.2548	537.5396	549.8674	576.4728	598.013	623.6861	718.4415	752.7466	790.4329	858.0893	860.8272	886.3134	987.1909	995.6897	1091.484	1203.0603	1222.5766	1233.3704	1377.9519	1390.1874	1451.0696	1580.7223	1604.0828	1648.7253	1657.0602	3279.8694	3304.4824	3566.4683	3669.7184
NC1=CN2C=NOC2=N1	Nc1cn2cnoc2n1	
InChI=1S/C4H4N4O/c5-3-1-8-2-6-9-4(8)7-3/h1-2H,5H2	InChI=1S/C4H4N4O/c5-3-1-8-2-6-9-4(8)7-3/h1-2H,5H2
