20
gdb 80888	2.47753	1.74605	1.46542	1.5429	77.64	-0.2241	0.0702	0.2944	1002.1164	0.17234	-403.092169	-403.084425	-403.083481	-403.123692	32.22	
C	-0.1480721984	 1.565292342	-0.018195687	-0.466112
C	-0.0298565334	 0.0456388407	-0.0169627442	-0.008418
C	 1.0973794506	-0.5965533706	-0.8874849305	-0.070137
C	 2.091724719	-0.2617740711	 0.2759166283	-0.301237
C	 0.8107252457	-0.5947824534	 1.1349387164	 0.407906
O	 0.6623450115	-0.2688108649	 2.4798937105	-0.495549
C	 0.7083421722	-2.1051859115	 0.8421594557	-0.07672
N	-0.3985188566	-2.5103946101	-0.0571986332	-0.341874
C	 0.9143644686	-2.1101335904	-0.6212572046	-0.037008
H	 0.8065258883	 2.0931396073	 0.0661511389	 0.111537
H	-0.6265054033	 1.9077775905	-0.9418095405	 0.122125
H	-0.7851305407	 1.8941724408	 0.8118273338	 0.116422
H	-1.0170533621	-0.3943117181	-0.1525485275	 0.104757
H	 1.2792701967	-0.2710605738	-1.9110055082	 0.062464
H	 2.9619708592	-0.9131052758	 0.3994092789	 0.088278
H	 2.4013334806	 0.7838402676	 0.3174103153	 0.091195
H	 0.7553357786	 0.685052941	 2.5713375508	 0.281234
H	 1.1472334622	-2.814403906	 1.5342225353	 0.092877
H	-0.4464922901	-3.5276052904	-0.0591932309	 0.228223
H	 1.5253648315	-2.8404225739	-1.1394974574	 0.090036
174.9724	201.5852	244.2451	288.2545	308.1217	383.5615	424.0898	443.5459	534.319	595.8192	624.2311	656.0834	774.1054	807.0654	839.9874	858.5216	908.1719	920.9104	926.9782	929.3112	957.4688	1028.3989	1043.0432	1066.2447	1081.1404	1099.5571	1114.3425	1137.0888	1146.0342	1173.0467	1218.1989	1228.2648	1238.0629	1275.2059	1284.413	1323.2111	1362.7347	1398.0669	1405.8408	1415.0062	1495.6138	1500.9397	1516.3672	3027.2524	3058.7931	3085.0297	3094.5843	3118.2861	3124.314	3128.0421	3172.1715	3184.7785	3488.3964	3814.5824
CC1C2CC1(O)C1NC21	C[C@H]1[C@H]2C[C@]1(O)[C@H]1N[C@@H]21	
InChI=1S/C7H11NO/c1-3-4-2-7(3,9)6-5(4)8-6/h3-6,8-9H,2H2,1H3	InChI=1S/C7H11NO/c1-3-4-2-7(3,9)6-5(4)8-6/h3-6,8-9H,2H2,1H3/t3-,4+,5-,6-,7+/m0/s1
