18
gdb 77218	2.73591	1.07605	0.85295	3.8382	81.26	-0.245	0.0203	0.2653	1358.3984	0.145826	-401.928958	-401.919554	-401.91861	-401.963933	33.723	
C	-0.4251107666	 1.2652111488	-0.0022681792	-0.407838
C	 0.0722351393	-0.1657662295	 0.1126347526	 0.041143
C	 0.9097528894	-0.7333095524	-1.093010138	-0.211742
C	 2.0404289267	-1.0734983205	-0.0634968341	-0.18076
N	 1.2596131654	-0.3788987123	 0.9582451197	-0.054431
C	 1.4188888744	-0.4201688331	 2.3021892601	 0.130493
O	 2.3943722383	-0.874428674	 2.8635121628	-0.32704
C	 0.3347070993	-1.8245828357	-1.8472171964	 0.321322
C	-0.1518537281	-2.7370955032	-2.4603747042	-0.451951
H	 0.3914123863	 1.9411936315	-0.2738497134	 0.126254
H	-1.2051440099	 1.3304219821	-0.7680477644	 0.132107
H	-0.8541376142	 1.6106075495	 0.9435504001	 0.130094
H	-0.7504557748	-0.8402430719	 0.3785136035	 0.101157
H	 1.2132904909	 0.0763084185	-1.7631496974	 0.113334
H	 2.1595838272	-2.1423676011	 0.1363410511	 0.135087
H	 3.0193205651	-0.631671931	-0.2661137376	 0.129991
H	 0.5575932685	 0.0289156356	 2.8388165261	 0.068854
H	-0.5766508674	-3.5420873314	-3.0075541211	 0.203927
40.8764	92.1451	137.638	182.0535	197.5949	240.0268	296.8196	319.6632	411.2858	458.6237	510.0227	582.485	632.1392	641.6243	705.7747	813.1415	866.9355	912.0401	1006.8623	1033.3127	1043.507	1064.8157	1095.2132	1128.4324	1160.8868	1192.1589	1232.3764	1262.0287	1301.1369	1348.7733	1381.6448	1396.3672	1408.3335	1441.064	1486.1213	1495.2272	1517.1759	1791.6916	2239.5111	2919.9869	3032.8066	3036.0434	3055.6945	3063.941	3107.3084	3108.6642	3115.2771	3503.1395
CC1C(CN1C=O)C#C	C[C@H]1[C@@H](CN1C=O)C#C	
InChI=1S/C7H9NO/c1-3-7-4-8(5-9)6(7)2/h1,5-7H,4H2,2H3	InChI=1S/C7H9NO/c1-3-7-4-8(5-9)6(7)2/h1,5-7H,4H2,2H3/t6-,7+/m0/s1
