17
gdb 117015	5.27406	0.53563	0.49074	5.6398	78.26	-0.2586	-0.0487	0.2098	2171.6401	0.131506	-458.915019	-458.904194	-458.90325	-458.953485	35.214	
C	 0.0575142974	 1.401342922	-0.1290762767	-0.226609
O	 0.0082032497	-0.0022466999	-0.0126592167	-0.211712
C	 0.6182614456	-0.654914122	-1.0797353468	-0.158509
C	 0.5303712585	-2.1663535911	-0.8930749055	 0.209614
O	 0.0007763478	-2.6945552878	 0.0547310897	-0.258633
C	 1.1476121748	-2.9195889241	-1.969745769	 0.010138
C	 1.6606614684	-3.5455669999	-2.8647439396	 0.125303
C	 2.286278349	-4.2782136862	-3.9564295483	-0.218188
O	 2.170259009	-5.672402697	-3.7307288883	-0.400414
H	 1.0939343802	 1.7731323501	-0.1578392446	 0.106338
H	-0.4599500633	 1.7549758366	-1.0348336074	 0.106344
H	-0.4429691225	 1.8145542939	 0.7491431972	 0.136538
H	 0.1482317925	-0.4040952354	-2.049151431	 0.113048
H	 1.6865105495	-0.3861539017	-1.1806914085	 0.113027
H	 1.8021323831	-3.9753647476	-4.8998149017	 0.128942
H	 3.3404073089	-3.9620861029	-4.0270398274	 0.128968
H	 2.5926627114	-6.1221097767	-4.4697827555	 0.295804
20.3965	59.6665	68.8173	87.4223	152.1998	156.5209	223.7827	227.2805	236.616	369.3245	377.7488	405.0271	514.3678	586.0521	630.873	811.1567	949.1569	1012.6227	1016.2955	1025.2134	1072.0448	1168.9388	1174.5012	1183.6138	1243.1119	1245.9744	1248.7251	1256.9133	1403.5717	1457.0388	1465.9935	1487.689	1490.8188	1491.2633	1515.1149	1788.299	2335.1443	2933.2829	2953.8737	2962.4865	2972.4951	2981.0887	3017.1266	3123.2351	3821.4335
COCC(=O)C#CCO	COCC(=O)C#CCO	
InChI=1S/C6H8O3/c1-9-5-6(8)3-2-4-7/h7H,4-5H2,1H3	InChI=1S/C6H8O3/c1-9-5-6(8)3-2-4-7/h7H,4-5H2,1H3
