20
gdb 13287	7.04245	0.77782	0.73845	2.1389	72.11	-0.244	0.0763	0.3204	1548.4527	0.176155	-386.10375	-386.094591	-386.093647	-386.138986	31.271	
C	 0.0291662881	 1.3622421921	-0.0949377359	-0.228946
O	 0.0174982901	-0.0390350511	 0.0279859772	-0.22854
C	-1.2828172028	-0.5826649401	 0.0037794151	-0.048426
C	-1.1802225912	-2.0968132667	 0.1398320703	-0.228397
C	-2.5386817949	-2.7837204052	 0.1076434277	-0.023276
C	-3.2673150974	-2.9038225872	-1.2529442309	-0.076121
O	-3.3277468864	-4.3397017085	-1.1483681008	-0.270955
C	-2.5593864942	-4.3288421464	 0.0717031785	-0.091216
H	 1.0725229581	 1.6856401068	-0.0653576188	 0.127568
H	-0.4186072407	 1.6942114672	-1.0454770473	 0.10308
H	-0.5174865131	 1.8504867599	 0.7278835359	 0.102652
H	-1.89101915	-0.1643653475	 0.8257813095	 0.083198
H	-1.7937820759	-0.3135814136	-0.9382126969	 0.086007
H	-0.5468866707	-2.4811979062	-0.6692330053	 0.110015
H	-0.6654203043	-2.3288367611	 1.0801884976	 0.108955
H	-3.1875265773	-2.3793167332	 0.8907314052	 0.079168
H	-4.2654756586	-2.454802242	-1.3212899895	 0.100539
H	-2.6736932591	-2.5802890556	-2.1200454042	 0.096152
H	-1.573547916	-4.7964468322	-0.0594442361	 0.09784
H	-3.083857784	-4.8325475995	 0.8924731586	 0.100701
50.7317	68.6235	91.0508	121.961	147.3585	234.1186	291.0839	317.9	422.1672	483.3874	753.4202	806.0265	879.4101	894.8214	958.6289	979.1904	988.3331	1031.006	1045.3103	1101.2751	1122.64	1155.6212	1164.0251	1165.5632	1177.2228	1200.6877	1226.9384	1247.5841	1268.6804	1306.7696	1311.357	1319.8009	1368.9262	1402.1981	1430.3603	1482.2129	1485.7156	1490.929	1504.8781	1512.1653	1531.5801	1537.1745	2936.6451	2961.022	2968.3186	2992.6091	3004.9073	3010.1026	3029.7651	3040.425	3047.9308	3061.2416	3077.9621	3113.5562
COCCC1COC1	COCCC1COC1	
InChI=1S/C6H12O2/c1-7-3-2-6-4-8-5-6/h6H,2-5H2,1H3	InChI=1S/C6H12O2/c1-7-3-2-6-4-8-5-6/h6H,2-5H2,1H3
