21
gdb 111894	2.7589	1.23241	0.95173	1.6736	84.6	-0.2333	0.0086	0.2419	1323.1371	0.182062	-387.089758	-387.080739	-387.079795	-387.123483	34.199	
C	-0.1489103397	 1.5583202124	 0.0740604902	-0.387881
C	-0.1016760924	 0.0319088263	-0.0333242436	-0.16934
C	 0.7235378729	-0.4899220661	-1.2264612426	-0.061453
C	 2.2076248443	-0.1634519437	-1.1768467044	-0.187058
C	 2.9943917178	-1.2418616652	-1.2725995312	 0.323828
C	 4.4883663296	-1.3033408859	-1.2615776543	-0.501188
C	 2.1336663219	-2.4678677104	-1.3609576833	-0.070023
O	 1.3141037077	-2.6724146035	-0.1837111817	-0.26005
C	 0.7365131724	-2.0170179419	-1.3175949272	 0.023346
H	 0.8446447141	 1.9841612504	 0.2466411322	 0.117972
H	-0.5500708199	 2.0107377056	-0.8401628785	 0.111388
H	-0.7879315845	 1.8706697786	 0.9058265697	 0.114046
H	 0.311055608	-0.4022733351	 0.883195226	 0.116425
H	-1.1247752498	-0.3541651465	-0.1277129521	 0.093852
H	 0.2826118227	-0.0857422739	-2.1509508213	 0.077165
H	 2.5732778519	 0.848622243	-1.0384209701	 0.093228
H	 4.930069	-0.3049484425	-1.2034466169	 0.124758
H	 4.8542815516	-1.8896520135	-0.4094236353	 0.135044
H	 4.8741632968	-1.7914159403	-2.1657009582	 0.125426
H	 2.4690095289	-3.3790128222	-1.8493245887	 0.090282
H	-0.0830754542	-2.5506541157	-1.7926442088	 0.090233
85.6574	127.8701	156.2054	182.8268	216.3344	252.147	311.0656	345.4296	452.2598	489.5687	593.6477	594.9657	732.0631	800.9513	813.8165	846.9485	864.8481	884.3015	913.3841	955.0204	977.4097	1011.8614	1044.943	1062.7496	1066.6448	1098.9619	1124.7036	1130.6489	1196.3187	1255.4871	1268.6226	1276.7473	1295.8018	1332.5374	1367.4451	1371.0608	1412.1982	1414.8824	1417.8625	1479.0177	1489.0679	1490.7238	1501.1724	1508.032	1703.5985	2985.8793	3018.3216	3025.6621	3031.6013	3065.2107	3074.8646	3100.1466	3105.8624	3111.4194	3138.6858	3153.8858	3186.4212
CCC1C=C(C)C2OC12	CC[C@H]1C=C(C)[C@H]2O[C@@H]12	
InChI=1S/C8H12O/c1-3-6-4-5(2)7-8(6)9-7/h4,6-8H,3H2,1-2H3	InChI=1S/C8H12O/c1-3-6-4-5(2)7-8(6)9-7/h4,6-8H,3H2,1-2H3/t6-,7+,8-/m0/s1
