14
gdb 130287	3.54512	1.62541	1.11594	3.1646	69.5	-0.2071	0.0207	0.2278	1000.6959	0.104212	-432.868637	-432.861754	-432.86081	-432.899587	27.416	
N	 0.0014790755	 1.384503112	 0.1552493519	-0.590145
C	 0.060315363	 0.0074724974	 0.0402032673	 0.259427
N	-1.0560332599	-0.7015886293	 0.010472498	-0.245587
O	-0.6623416599	-2.0898878909	-0.0167216782	-0.264289
C	 0.6656712177	-2.0740292155	-0.0239722878	 0.49814
C	 1.2251574442	-0.8204673918	 0.0113801706	 0.150801
C	 2.6468118349	-1.0085693487	 0.0148447216	-0.362806
C	 2.8546467872	-2.3642946126	-0.0208229906	-0.051535
N	 1.6221780664	-3.0328677501	-0.0435186098	-0.416383
H	 0.7192654592	 1.8716217256	-0.3618502671	 0.255232
H	-0.919848629	 1.7557111075	-0.0366404623	 0.259484
H	 3.4226806674	-0.2601501589	 0.0442703474	 0.104544
H	 3.771010736	-2.9316102221	-0.0320664665	 0.12811
H	 1.4873433275	-4.0279516626	-0.0680875346	 0.275007
179.9299	245.8619	265.3185	333.1912	376.1424	423.0873	538.8536	603.9331	608.2533	634.0582	668.5797	688.4195	717.2236	778.6789	786.3901	812.25	893.6839	930.3401	1051.9957	1083.797	1134.2386	1173.0001	1255.6684	1323.0239	1385.3627	1486.6769	1525.7286	1543.3795	1581.1597	1633.4159	1652.419	3254.1046	3275.5032	3553.4462	3655.6054	3691.0467
NC1=NOC2=C1C=CN2	Nc1noc2c1cc[nH]2	
InChI=1S/C5H5N3O/c6-4-3-1-2-7-5(3)9-8-4/h1-2,7H,(H2,6,8)	InChI=1S/C5H5N3O/c6-4-3-1-2-7-5(3)9-8-4/h1-2,7H,(H2,6,8)
