19
gdb 119479	4.99574	0.78177	0.75529	1.6513	71.52	-0.2505	0.0711	0.3216	1519.8656	0.157801	-460.116549	-460.10739	-460.106446	-460.151052	33.928	
O	 0.118162984	 1.4145018868	 0.2107757733	-0.415592
C	 0.0573545768	 0.0022261677	 0.1120473421	-0.06037
C	-1.3672751798	-0.5042134276	-0.1560740747	-0.338881
C	-1.4275074702	-1.9890486834	-0.3275203993	 0.431575
C	-0.9086216495	-2.8590831987	-1.482807543	-0.345756
C	-2.0066306921	-3.9287385722	-1.0993428323	 0.144911
O	-1.5879982793	-5.2003229674	-0.6949012223	-0.433685
C	-2.4667073254	-2.9762475543	 0.0184344912	-0.100902
O	-1.3098723034	-2.810349619	 0.859118716	-0.309313
H	-0.3602356466	 1.6758624174	 1.0040347309	 0.28323
H	 0.7123134999	-0.2654399264	-0.7239805747	 0.117643
H	 0.4589723813	-0.4876588164	 1.0113195587	 0.107306
H	-2.0195076795	-0.2185055904	 0.6786544992	 0.101546
H	-1.7514658202	-0.0125851877	-1.0575302694	 0.11482
H	-1.0736231176	-2.4231193817	-2.4715094237	 0.110343
H	 0.1278025669	-3.1937751448	-1.3945834424	 0.108192
H	-2.7470013499	-4.0645969616	-1.8910261951	 0.095331
H	-1.0457975021	-5.0612691528	 0.0926174381	 0.288269
H	-3.4374359234	-2.8634580977	 0.4896460676	 0.101331
66.8603	87.4582	98.3339	168.8248	272.7357	300.4295	333.0389	368.2459	419.3596	442.2539	494.3714	636.1704	708.6767	717.8105	782.9077	818.1109	878.6761	925.0309	941.0656	971.1855	1011.8064	1040.1191	1050.5076	1076.5205	1118.3722	1125.8952	1149.6395	1193.0631	1218.9713	1246.3292	1272.1398	1299.7453	1315.4183	1332.579	1396.848	1420.0981	1432.993	1446.7252	1470.2914	1485.076	1513.1098	2999.8378	3027.5726	3062.7734	3064.7957	3086.075	3092.087	3123.3746	3176.0114	3769.6827	3816.409
OCCC12CC(O)C1O2	OCC[C@]12C[C@@H](O)[C@H]1O2	
InChI=1S/C6H10O3/c7-2-1-6-3-4(8)5(6)9-6/h4-5,7-8H,1-3H2	InChI=1S/C6H10O3/c7-2-1-6-3-4(8)5(6)9-6/h4-5,7-8H,1-3H2/t4-,5-,6+/m1/s1
