16
gdb 31176	2.47574	1.33865	0.91803	5.075	74.57	-0.2519	-0.0502	0.2017	1243.2177	0.124132	-437.935128	-437.926749	-437.925805	-437.969031	29.608	
C	-0.0001508472	 1.6076212406	 0.2861944613	-0.377655
C	-0.0232677385	 0.1154744043	-0.0932700334	-0.302291
C	-1.3986390555	-0.444743201	-0.178690492	 0.315471
C	-2.1816251819	-0.9712131711	-1.1726280059	 0.054392
C	-1.8263669658	-1.1537736689	-2.5812976083	 0.077967
O	-2.5499032949	-1.620129357	-3.4279836692	-0.259116
N	-3.4230574084	-1.3282679167	-0.6378107733	-0.281647
C	-3.3321081065	-1.0107572875	 0.602245787	 0.068616
O	-2.1349632751	-0.4664679241	 0.9679591108	-0.18259
H	 1.0310327567	 1.9638980351	 0.3564137756	 0.126587
H	-0.5213782306	 2.2099128841	-0.4633504964	 0.132121
H	-0.485726479	 1.7710749075	 1.2517044828	 0.138375
H	 0.4721896855	-0.0374811106	-1.0560128036	 0.130668
H	 0.5457430317	-0.4590276332	 0.6484563478	 0.134241
H	-0.7947063715	-0.8162976396	-2.8290381395	 0.064902
H	-4.067289829	-1.1169206319	 1.3846344063	 0.159958
48.4163	132.3867	153.8873	178.1027	224.2772	266.4767	328.2238	391.8384	533.6038	624.2371	676.0991	736.7847	788.8259	807.0071	852.8011	947.7959	971.0503	1024.1545	1026.1866	1076.9315	1089.629	1132.7248	1233.4275	1288.3766	1319.405	1348.9302	1380.2618	1409.2232	1436.2826	1474.305	1496.5618	1506.0922	1582.7163	1618.6851	1805.3178	2871.2515	3034.5578	3048.1855	3093.1061	3122.8264	3129.5951	3277.2543
CCC1=C(C=O)N=CO1	CCc1c(C=O)nco1	
InChI=1S/C6H7NO2/c1-2-6-5(3-8)7-4-9-6/h3-4H,2H2,1H3	InChI=1S/C6H7NO2/c1-2-6-5(3-8)7-4-9-6/h3-4H,2H2,1H3
