19
gdb 111949	3.17664	1.21783	0.94475	3.9061	78.91	-0.2376	-0.0493	0.1883	1254.7101	0.158309	-423.049963	-423.040752	-423.039808	-423.084967	33.21	
C	 0.1095331135	 1.4852773811	 0.0053652121	-0.239333
O	-0.1114796236	 0.094950381	-0.068057971	-0.236073
C	 0.586089297	-0.5516231905	-1.1193851853	 0.070379
C	 2.035504724	-0.8414177643	-0.7713274044	-0.071926
C	 2.3656059273	-2.1254298204	-0.9358075224	-0.178583
C	 1.1876802487	-2.9049296836	-1.3856887916	 0.381464
O	 1.1554179563	-4.0816129655	-1.6612560019	-0.336923
C	-0.0171443883	-1.9464033669	-1.4247344686	-0.15878
C	-1.1050116002	-2.4126872442	-0.4479532552	-0.376987
H	 1.1541552162	 1.7370588246	 0.241301279	 0.107427
H	-0.1606254277	 1.9875353162	-0.9366923737	 0.109121
H	-0.5268732455	 1.8686977677	 0.8062942051	 0.134023
H	 0.5460678787	 0.0892905282	-2.0163005666	 0.078513
H	 2.7063396014	-0.0585645664	-0.4339377676	 0.117292
H	 3.3340650418	-2.5809628584	-0.7704523892	 0.119466
H	-0.4267004374	-1.9720741	-2.4401196101	 0.101242
H	-0.7454558827	-2.3949438959	 0.583971911	 0.126943
H	-1.9838898491	-1.7675322404	-0.5051185341	 0.121595
H	-1.3913683002	-3.4367732023	-0.7005009153	 0.131141
25.5652	85.9942	177.129	203.0282	222.2593	229.1088	266.5396	339.7726	378.2628	481.123	517.0996	680.2552	698.432	743.4178	787.3797	822.5867	894.5162	966.2328	993.6558	1012.023	1043.6706	1096.7183	1104.8996	1120.9461	1162.6391	1183.4251	1191.1953	1224.4232	1259.4987	1316.6902	1324.6871	1355.985	1379.4097	1404.9505	1478.4301	1491.0989	1491.8955	1497.6148	1509.7039	1653.0307	1815.1205	2953.3841	2977.5241	3024.5484	3053.181	3054.1985	3117.6212	3129.3243	3135.1748	3190.9878	3223.1162
COC1C=CC(=O)C1C	CO[C@H]1C=CC(=O)[C@H]1C	
InChI=1S/C7H10O2/c1-5-6(8)3-4-7(5)9-2/h3-5,7H,1-2H3	InChI=1S/C7H10O2/c1-5-6(8)3-4-7(5)9-2/h3-5,7H,1-2H3/t5-,7+/m1/s1
