19
gdb 78036	2.55263	1.4821	1.31402	0.8824	70.54	-0.232	0.0649	0.297	1064.3023	0.159053	-460.145671	-460.137177	-460.136233	-460.178079	33.518	
C	 0.0469993965	 1.55357281	-0.0373500944	-0.408669
C	 0.0669848287	 0.0349107248	 0.0416564466	 0.113092
O	 0.8013440065	-0.4791983835	-1.0921887583	-0.286983
C	 1.2208730823	-1.8062181081	-0.7739363479	-0.166973
C	 1.5131683308	-1.7896146858	 0.7223912249	 0.29547
O	 1.4883401793	-3.0019020663	 1.4077600086	-0.464234
C	 2.2892286657	-0.5961583369	 1.2115049256	 0.051622
O	 3.073632499	 0.212255262	 0.3860087036	-0.433955
C	 0.7703982342	-0.5721684724	 1.2444570483	-0.17576
H	 1.0548665535	 1.9621063846	 0.0695367733	 0.134866
H	-0.3720854488	 1.8798791634	-0.9935462908	 0.125845
H	-0.5746715412	 1.9601430139	 0.7660508952	 0.120407
H	-0.9646978211	-0.3506494613	-0.00142263	 0.081048
H	 0.4306996195	-2.5448591716	-0.9759286326	 0.110088
H	 2.0867643293	-2.0337349397	-1.40508796	 0.109578
H	 2.366577423	-3.3946218288	 1.3556976251	 0.288609
H	 2.7620241502	-0.718070901	 2.1812715721	 0.109418
H	 2.6059694234	 0.2886538123	-0.4576652868	 0.297374
H	 0.2623321291	-0.5965782856	 2.2015864777	 0.099157
144.5567	208.9234	235.0051	240.2095	254.0886	279.8726	317.3114	369.6483	450.7711	514.0447	543.5428	573.1818	604.239	714.5054	739.6017	817.168	861.2368	913.5327	961.182	977.4437	1021.1597	1043.4569	1069.2355	1092.7984	1107.264	1148.8943	1154.5033	1208.8459	1236.1827	1268.1338	1311.2768	1325.6204	1334.7215	1347.6763	1387.093	1413.9024	1422.4896	1478.8302	1492.6415	1501.1707	1517.0578	2968.8101	2997.8925	3045.8947	3069.7057	3117.0087	3130.8716	3164.1479	3184.0682	3735.311	3799.3689
CC1OCC2(O)C(O)C12	C[C@H]1OC[C@@]2(O)[C@@H](O)[C@@H]12	
InChI=1S/C6H10O3/c1-3-4-5(7)6(4,8)2-9-3/h3-5,7-8H,2H2,1H3	InChI=1S/C6H10O3/c1-3-4-5(7)6(4,8)2-9-3/h3-5,7-8H,2H2,1H3/t3-,4-,5+,6+/m1/s1
