17
gdb 29372	5.78586	0.90822	0.79264	2.7454	81.04	-0.2103	0.0364	0.2468	1415.7845	0.135615	-380.888513	-380.879547	-380.878603	-380.92353	32.576	
C	-0.8662284973	 1.3195010525	-0.6733133833	-0.487754
C	-0.1912859264	 0.0961397614	-0.1440569038	 0.276911
C	 0.9686346819	-0.4957430193	-0.5749047726	-0.192887
N	 1.152812388	-1.5901574728	 0.2444613456	-0.274003
C	 0.1151521161	-1.6153094481	 1.1221245382	 0.368848
C	-0.0420552781	-2.669210505	 2.1869834681	-0.475427
C	 1.0284255093	-3.6604620824	 2.184189224	 0.287713
C	 1.9226815278	-4.463527958	 2.1596528198	-0.436367
N	-0.7133685049	-0.6159104525	 0.9181864375	-0.36215
H	-0.3076958396	 1.7450528885	-1.5116000173	 0.11469
H	-1.8807231279	 1.0926461525	-1.0187595349	 0.130938
H	-0.9561983947	 2.0877214734	 0.1024018248	 0.130937
H	 1.6604107583	-0.2500336421	-1.3633337927	 0.122745
H	 1.9048206992	-2.259448935	 0.2185217976	 0.26706
H	-0.0927806196	-2.1797411255	 3.1677471962	 0.162531
H	-1.0105395051	-3.1677324836	 2.0544379915	 0.162532
H	 2.6998429532	-5.1874818042	 2.1614782113	 0.203681
16.1258	111.0133	118.8997	180.0618	255.521	305.1278	327.7782	384.0997	473.7642	562.1297	620.0381	659.4269	662.5223	670.8606	694.2707	723.2515	748.6916	948.454	957.3077	989.4975	1012.9444	1032.4379	1065.2606	1114.0268	1206.7088	1243.593	1287.5874	1310.2977	1370.3311	1415.7397	1459.4287	1476.0763	1479.1361	1498.5945	1554.8117	1608.5326	2239.2103	3027.8247	3033.0166	3052.6727	3086.6879	3114.1594	3272.8692	3502.9149	3654.3345
CC1=CNC(CC#C)=N1	Cc1c[nH]c(CC#C)n1	
InChI=1S/C7H8N2/c1-3-4-7-8-5-6(2)9-7/h1,5H,4H2,2H3,(H,8,9)	InChI=1S/C7H8N2/c1-3-4-7-8-5-6(2)9-7/h1,5H,4H2,2H3,(H,8,9)
