16
gdb 15103	5.95916	0.80516	0.74446	0.808	80.25	-0.2358	0.0394	0.2752	1505.3824	0.128654	-309.39027	-309.381611	-309.380666	-309.425011	30.789	
C	-0.0903800472	-0.9215466447	-0.8337079085	-0.447447
C	 0.0051959185	 0.0983285354	-0.2074460392	 0.319501
C	 0.1062460916	 1.3419804894	 0.560460792	-0.493189
C	 1.4031559339	 2.0099504862	 0.4374881005	 0.071578
C	 2.4697034906	 2.5607245987	 0.3388957061	 0.090131
C	 3.7412777071	 3.2141508301	 0.2267286723	-0.155044
C	 4.4981352749	 3.1932581122	-1.092440866	-0.250836
C	 3.8856325953	 4.474858418	-0.6121599331	-0.252415
H	-0.1685772565	-1.8233582537	-1.3885236063	 0.198453
H	-0.6943762819	 2.0254471129	 0.2442731548	 0.157917
H	-0.0949136048	 1.1277101405	 1.6194978651	 0.159699
H	 4.35654049	 3.1725605079	 1.1209706589	 0.109505
H	 5.5752930432	 3.0810526757	-1.0431133071	 0.118484
H	 4.0254892098	 2.6805999787	-1.9214837556	 0.12944
H	 2.9962742863	 4.8349353135	-1.1152019357	 0.12615
H	 4.5379050592	 5.2519752893	-0.230056668	 0.118072
21.7592	70.7241	124.3094	175.984	286.9744	315.7277	323.9125	442.9641	511.7654	561.2158	620.0646	644.4877	712.8396	796.1948	821.8472	894.1903	897.499	932.7336	949.6554	1059.54	1063.3941	1080.3864	1118.1032	1182.4664	1201.1749	1229.0661	1233.1481	1335.8269	1393.0828	1451.6975	1467.2262	1498.2049	2246.1062	2370.1489	3004.9167	3028.2573	3141.2118	3142.2742	3147.4104	3225.9873	3240.9901	3506.9009
C#CCC#CC1CC1	C#CCC#CC1CC1	
InChI=1S/C8H8/c1-2-3-4-5-8-6-7-8/h1,8H,3,6-7H2	InChI=1S/C8H8/c1-2-3-4-5-8-6-7-8/h1,8H,3,6-7H2
