19
gdb 91634	3.04588	1.72377	1.53235	1.7809	72.97	-0.2455	0.0909	0.3364	948.5718	0.161869	-423.02031	-423.01343	-423.012486	-423.051226	28.763	
C	-0.2063347782	 1.5491090166	-0.0646049277	-0.413679
C	 0.0381970951	 0.0523152629	 0.0216600073	 0.151848
O	 0.8618711332	-0.4028507979	-1.0806350615	-0.296511
C	 1.8868756057	-1.1821806163	-0.4620979297	 0.181827
O	 1.2612824645	-1.7507535084	 0.6753276261	-0.253875
C	 0.8375664208	-0.4946414182	 1.2375541015	-0.005588
C	 2.150671875	 0.2801697507	 1.3561188853	-0.040431
C	 3.408154878	-0.5357898892	 1.5163356353	-0.314175
C	 2.9077023592	-0.2116890858	 0.1331387103	-0.070488
H	 0.7303556522	 2.1110273348	-0.0499840306	 0.12408
H	-0.7274125881	 1.7873418309	-0.9959869429	 0.130604
H	-0.8345701599	 1.884748103	 0.7679235932	 0.113869
H	-0.920064295	-0.4819962395	-0.0299085845	 0.082559
H	 2.2309822497	-1.9561527045	-1.1477824387	 0.091303
H	 0.2591224213	-0.6662428214	 2.145049732	 0.086382
H	 2.1361544224	 1.3226223395	 1.6449837148	 0.09593
H	 4.284629918	 0.0108871244	 1.8464693228	 0.111519
H	 3.3365513254	-1.5549492778	 1.8770960691	 0.126923
H	 3.445264801	 0.4536477963	-0.529769772	 0.097901
153.9253	223.6558	269.8328	354.6894	376.3282	469.1716	531.0884	593.9943	650.5382	741.6913	789.7402	829.5971	834.032	854.2541	880.9911	900.8877	927.2688	958.0877	983.8496	1005.2828	1052.0802	1065.8087	1078.1261	1087.8454	1094.3301	1110.9216	1112.1659	1146.0917	1190.9045	1257.7047	1268.9481	1294.638	1321.4734	1332.4148	1352.8163	1376.7416	1386.2502	1410.0836	1474.8594	1486.1139	1502.0689	3010.4935	3041.4339	3109.5212	3124.6841	3128.7737	3130.8189	3141.103	3197.6235	3205.2826	3231.2056
CC1OC2OC1C1CC21	C[C@H]1O[C@@H]2O[C@H]1[C@H]1C[C@@H]21	
InChI=1S/C7H10O2/c1-3-6-4-2-5(4)7(8-3)9-6/h3-7H,2H2,1H3	InChI=1S/C7H10O2/c1-3-6-4-2-5(4)7(8-3)9-6/h3-7H,2H2,1H3/t3-,4+,5-,6-,7-/m1/s1
