17
gdb 76010	2.56176	1.23727	1.06203	0.8608	83.93	-0.2385	0.0182	0.2568	1201.9014	0.131241	-384.606946	-384.596895	-384.59595	-384.641506	36.999	
C	-0.1384463752	 1.5585248306	 0.0706702953	-0.413603
C	-0.0096378162	 0.054711666	 0.0464832052	-0.061596
C	 1.3244955692	-0.632116128	-0.2270990673	-0.313908
C	 2.5412151999	 0.1032447126	-0.3764791066	 0.33047
C	 3.5826720406	 0.6972447648	-0.4841168369	-0.444135
C	 0.6710956579	-0.6802746906	 1.1781709535	 0.159226
O	 1.2249963113	 0.1302476796	 2.1678901841	-0.440238
C	 0.1562309106	-1.9490239758	 1.624953281	 0.29746
C	-0.2587600586	-3.0147456799	 1.997875104	-0.430483
H	 0.7325273782	 2.0214329442	 0.5348650735	 0.146618
H	-0.2374497787	 1.947126103	-0.9479065174	 0.121303
H	-1.0267834092	 1.8560756764	 0.636452278	 0.125616
H	-0.8570839755	-0.4754834545	-0.3772518046	 0.106087
H	 1.2734673217	-1.5606974417	-0.7867669498	 0.12689
H	 4.4951249383	 1.2284300828	-0.5966217914	 0.198705
H	 2.1314315335	-0.1603692606	 2.3243310512	 0.294765
H	-0.6318841677	-3.9499944588	 2.3351493384	 0.196823
93.4843	102.917	146.5367	155.1677	168.0025	227.7981	252.1428	326.5424	369.0097	438.6423	472.7291	549.2454	583.4159	585.0139	602.242	632.248	653.3995	676.4519	706.7007	789.0648	834.7462	968.4246	1021.25	1024.1235	1070.1728	1124.5974	1146.2587	1228.605	1249.3275	1345.5417	1360.3375	1416.0662	1424.9881	1490.9172	1498.0038	2228.4653	2233.0307	3045.0445	3104.5284	3147.0776	3157.1744	3166.3487	3501.4299	3503.6243	3787.3626
CC1C(C#C)C1(O)C#C	C[C@H]1[C@@H](C#C)[C@]1(O)C#C	
InChI=1S/C8H8O/c1-4-7-6(3)8(7,9)5-2/h1-2,6-7,9H,3H3	InChI=1S/C8H8O/c1-4-7-6(3)8(7,9)5-2/h1-2,6-7,9H,3H3/t6-,7+,8-/m0/s1
