21
gdb 76797	1.96427	1.76072	1.15616	1.0352	77.9	-0.2541	0.0504	0.3045	1143.3078	0.181306	-424.198368	-424.188818	-424.187873	-424.232285	36.629	
C	 0.7287407394	 1.5471426391	 0.1540046428	-0.426141
C	-0.0208120987	 0.22696206	 0.0066878338	-0.077652
C	 0.6374586744	-0.7883872242	-0.9926840367	 0.060965
O	 1.5294823191	-0.3214317297	-1.9757129074	-0.427323
C	 1.1880422516	-1.5658863761	 0.2121816016	 0.276266
C	 1.697774369	-2.968546505	 0.2935425408	-0.336851
C	 2.651145874	-1.8121848402	 0.4766367343	-0.336411
C	 0.2458065995	-0.8059850258	 1.1577453551	 0.060964
O	 0.7326545006	-0.3572373647	 2.3993986624	-0.427323
H	 1.80034184	 1.4051519606	 0.348018633	 0.09575
H	 0.6425330419	 2.1445852421	-0.7580710469	 0.131802
H	 0.3247934496	 2.1303184901	 0.9864614167	 0.131802
H	-1.0783375097	 0.4295868398	-0.1842579	 0.070988
H	-0.1171426034	-1.3603536753	-1.5407482108	 0.090072
H	 2.2332566685	 0.1626839869	-1.5313281807	 0.279573
H	 1.4375104723	-3.5535462249	 1.170268622	 0.117849
H	 1.764986652	-3.5388426172	-0.6277907291	 0.117849
H	 3.3555929238	-1.6061705356	-0.3234952747	 0.114087
H	 3.0277006942	-1.6208963672	 1.4768933972	 0.114087
H	-0.6519077748	-1.3843815378	 1.3954626449	 0.090072
H	 1.5464939468	 0.1318463751	 2.2393782118	 0.279574
61.8694	192.582	204.7578	212.1867	218.1547	241.1206	255.7415	267.7867	350.7824	395.8123	501.6757	536.1485	574.9638	621.3054	774.9891	783.667	812.9085	813.7634	877.0708	934.9821	936.3255	1001.5885	1029.5199	1049.8989	1064.6467	1084.0006	1096.6528	1121.0524	1166.366	1186.0132	1195.2264	1224.9308	1276.267	1277.9845	1283.6647	1298.6223	1350.862	1380.3057	1405.0637	1428.9873	1448.7652	1451.3881	1494.4328	1496.3504	1506.7147	3015.3801	3055.5457	3063.4235	3073.7989	3089.1849	3116.8395	3119.4851	3122.0702	3198.9848	3213.3265	3813.768	3814.5664
CC1C(O)C2(CC2)C1O	C[C@H]1[C@@H](O)C2(CC2)[C@H]1O	
InChI=1S/C7H12O2/c1-4-5(8)7(2-3-7)6(4)9/h4-6,8-9H,2-3H2,1H3	InChI=1S/C7H12O2/c1-4-5(8)7(2-3-7)6(4)9/h4-6,8-9H,2-3H2,1H3/t4-,5+,6-
