22
gdb 8006	3.04789	1.64096	1.39791	1.3484	77.42	-0.2589	0.0679	0.3268	1031.5671	0.200746	-350.228763	-350.219874	-350.218929	-350.262005	34.062	
C	 0.3073093032	 1.5340097632	 0.1127182508	-0.397083
C	-0.0082272189	 0.0402919496	-0.0126684271	 0.055211
C	 0.7065464224	-0.6185369541	-1.2284247	-0.219378
C	 1.305715271	-1.9423535773	-0.7099771234	 0.039318
C	 2.4453509829	-2.5105423034	-1.5527672093	-0.408915
C	 1.6753323811	-1.5963545475	 0.7410738948	 0.122851
O	 2.859674408	-0.798315252	 0.700933871	-0.439607
C	 0.4619108635	-0.7877711892	 1.2220926364	-0.253112
H	 1.3820884885	 1.6823905074	 0.2619256037	 0.12046
H	 0.0142975566	 2.0789828714	-0.7914275918	 0.108719
H	-0.2200249149	 1.9861727305	 0.9602114588	 0.103658
H	-1.0926445245	-0.0714071397	-0.1209115296	 0.064635
H	 0.032319475	-0.7743993392	-2.0759160908	 0.086528
H	 1.517389527	 0.0300761157	-1.5777265163	 0.104024
H	 0.5010917742	-2.688605351	-0.6501087059	 0.06526
H	 3.2855833577	-1.8123198577	-1.5834594487	 0.133496
H	 2.8105373084	-3.458289875	-1.142253393	 0.105092
H	 2.115377307	-2.698316451	-2.5799603534	 0.105357
H	 1.8482201224	-2.4967697633	 1.3496239851	 0.050532
H	 3.0355125862	-0.4879087805	 1.5941328317	 0.280778
H	 0.7076661586	-0.156620564	 2.084187919	 0.079178
H	-0.3234296153	-1.4781217329	 1.5504864382	 0.092997
47.5493	139.8695	217.1094	247.9553	265.8229	284.0606	307.2848	364.007	389.0245	400.633	512.8806	590.0485	715.9173	790.7884	842.8576	863.1329	891.123	918.0796	955.0715	976.7236	1005.5323	1029.8261	1061.1968	1075.1305	1101.0794	1159.2037	1161.1156	1206.9241	1229.1957	1240.7662	1289.9777	1297.2134	1329.822	1339.0532	1357.4575	1369.3755	1384.3803	1404.0307	1408.4952	1425.4904	1480.438	1492.1411	1495.9344	1498.8112	1503.4453	1504.7577	2982.544	3006.8786	3023.7041	3026.0698	3034.1034	3036.579	3044.0098	3070.0475	3086.164	3090.9131	3093.5634	3102.4744	3123.5132	3826.0796
CC1CC(C)C(O)C1	C[C@H]1C[C@@H](C)[C@@H](O)C1	
InChI=1S/C7H14O/c1-5-3-6(2)7(8)4-5/h5-8H,3-4H2,1-2H3	InChI=1S/C7H14O/c1-5-3-6(2)7(8)4-5/h5-8H,3-4H2,1-2H3/t5-,6+,7-/m0/s1
