15
gdb 69015	2.75678	1.40106	1.17119	4.2039	73.76	-0.2576	-0.0139	0.2437	1075.9308	0.11003	-420.594605	-420.586194	-420.58525	-420.627609	31.225	
C	-0.0325706975	 1.5827789615	 0.0539480575	-0.489808
C	 0.0231294172	 0.0865037059	 0.0102829652	 0.021688
C	-0.9061018634	-0.8499797606	 0.7887599577	-0.366326
C	 0.5723260365	-0.9640148677	 0.976579355	 0.268782
O	 1.1041556832	-1.7496734873	-0.1401160016	-0.293019
C	 0.7071146726	-0.7631751878	-1.0346082144	 0.442022
O	 0.9373461299	-0.708707925	-2.1974583604	-0.322776
C	 1.3278651562	-0.8519613004	 2.1672396289	 0.229469
C	 1.9588640427	-0.7509534683	 3.1858350776	-0.404381
H	 0.9349154076	 2.0214411541	-0.2058521233	 0.144789
H	-0.777335853	 1.9615692064	-0.653282773	 0.145963
H	-0.3091592312	 1.9300188493	 1.0535784029	 0.134664
H	-1.4531578143	-0.3612454033	 1.5893742952	 0.142479
H	-1.4283434933	-1.6605742358	 0.2905685004	 0.141551
H	 2.5212750469	-0.6672583009	 4.0831487525	 0.204902
107.0915	117.6693	142.021	201.4907	259.6132	306.6744	420.2217	461.3515	512.03	549.5882	590.8621	627.5982	679.3683	702.0778	726.0647	762.6557	836.4748	898.4431	962.5754	983.1951	1021.6773	1082.6756	1102.1638	1146.1513	1184.6348	1334.0718	1392.3768	1422.2947	1481.2207	1487.7823	1495.5474	1944.5271	2241.8392	3041.6681	3108.9725	3118.7709	3124.4841	3219.9549	3499.9205
CC12CC1(OC2=O)C#C	C[C@]12C[C@]1(OC2=O)C#C	
InChI=1S/C7H6O2/c1-3-7-4-6(7,2)5(8)9-7/h1H,4H2,2H3	InChI=1S/C7H6O2/c1-3-7-4-6(7,2)5(8)9-7/h1H,4H2,2H3/t6-,7-/m1/s1
