25
gdb 111753	2.2824	1.17019	0.93512	0.2302	93.24	-0.2383	0.0845	0.3228	1441.4093	0.228774	-352.340792	-352.330737	-352.329793	-352.375882	38.18	
C	 0.039786889	 1.4272012364	-0.2860721002	-0.369953
C	 0.0398088762	-0.0217712314	 0.2167506211	-0.212747
C	-1.3356147451	-0.6579851209	 0.1482936997	-0.028258
C	-1.9679925164	-1.2467003692	-1.091076637	-0.140416
C	-0.9436862998	-2.0110657074	-1.9380575755	-0.226408
C	-0.609730875	-2.9049825265	-0.7023115501	-0.288843
C	-1.6528723427	-2.1324642967	 0.1286679738	 0.348096
C	-2.5773383829	-2.7794132353	 1.1256630441	-0.292369
C	-1.8682128239	-3.1820093501	 2.4266582364	-0.371638
H	 1.0370228894	 1.8734655005	-0.2175398768	 0.107362
H	-0.2827931358	 1.4796297015	-1.3312854853	 0.118723
H	-0.6448188287	 2.0497850558	 0.3008906444	 0.110934
H	 0.7648622558	-0.6038204479	-0.3616578959	 0.0984
H	 0.3948336276	-0.0485987534	 1.2555325472	 0.092873
H	-2.0723610993	-0.1107395052	 0.7382415854	 0.073207
H	-2.9346147141	-0.9062814415	-1.4469388437	 0.074778
H	-1.4078358669	-2.5835080076	-2.7442243316	 0.099451
H	-0.1237624644	-1.4245436334	-2.36602493	 0.093801
H	-0.902722288	-3.9465817963	-0.8606269252	 0.096703
H	 0.4225706494	-2.8936194308	-0.3378772305	 0.091999
H	-3.4000679952	-2.0900708846	 1.3551392128	 0.092325
H	-3.0392913084	-3.6682624601	 0.6739862154	 0.090427
H	-2.5610768343	-3.6623476036	 3.1247633226	 0.108423
H	-1.0522245625	-3.8857542328	 2.2300232625	 0.116764
H	-1.4376965141	-2.3072233095	 2.9250662364	 0.116366
61.6423	88.8702	126.1962	178.3261	209.3614	218.544	271.8644	283.8515	320.2807	385.4544	466.4241	523.0636	646.3408	724.6212	772.0107	783.2695	800.8572	823.2315	877.0133	921.9426	945.5322	952.2398	986.4386	1002.3813	1015.5211	1021.0871	1071.251	1080.9385	1101.0966	1119.7999	1145.4275	1173.2285	1219.3805	1231.4127	1242.0047	1250.8012	1284.0579	1298.7163	1325.793	1336.2762	1357.5113	1373.4569	1407.7255	1409.5062	1470.8086	1477.6139	1481.4514	1492.1914	1496.6763	1498.9038	1506.797	1508.6998	1511.8694	3006.8402	3020.0492	3029.7129	3031.7824	3040.5815	3042.672	3047.7843	3063.2346	3085.4421	3094.6305	3099.7235	3101.6657	3102.781	3103.8134	3106.4232	3163.1103
CCC1C2CCC12CC	CC[C@H]1[C@H]2CC[C@@]12CC	
InChI=1S/C9H16/c1-3-7-8-5-6-9(7,8)4-2/h7-8H,3-6H2,1-2H3	InChI=1S/C9H16/c1-3-7-8-5-6-9(7,8)4-2/h7-8H,3-6H2,1-2H3/t7-,8+,9-/m0/s1
