15
gdb 127887	3.92266	1.21876	0.94726	5.2383	77.85	-0.2258	-0.0594	0.1664	1194.6123	0.113327	-446.28087	-446.27257	-446.271626	-446.313922	30.541	
C	 0.0658130744	 1.4183553307	-0.0349125023	-0.327446
N	 0.1025625417	-0.0293681237	-0.0266304872	-0.277552
C	 0.4791198677	-0.6713003928	 1.001265211	 0.402227
N	 0.8769400583	 0.0114661888	 2.2161701966	-0.190961
N	 1.5530370527	-0.5731743144	 3.0775064597	-0.052536
N	 1.9198853649	-1.9017217938	 2.8286388223	-0.304264
C	 1.177512141	-2.6320601732	 1.9181783528	 0.470815
N	 1.1950533005	-3.9968826884	 2.06971695	-0.570318
N	 0.4674095937	-2.0631927419	 1.0110012192	-0.338579
H	 0.7732801785	 1.7844134808	-0.7896907303	 0.12344
H	-0.929166636	 1.737564422	-0.3671250344	 0.124741
H	 0.2943018226	 1.8960290638	 0.9230978408	 0.130995
H	 2.2506642822	-2.3382004139	 3.6770376771	 0.271065
H	 2.0465636474	-4.4117673435	 2.4184017059	 0.261476
H	 0.7982677303	-4.4796024804	 1.2754043989	 0.276898
79.0823	124.7214	150.9999	239.6791	288.662	351.7463	372.7151	433.0515	509.1959	552.4735	585.0523	588.0848	630.4378	716.7298	723.8422	791.6008	915.8204	948.052	1024.751	1056.291	1116.7038	1130.5118	1163.4884	1282.8668	1360.0138	1433.1969	1449.26	1490.6284	1494.9832	1621.0774	1643.263	1706.7032	1742.7033	3014.5336	3064.6904	3095.1822	3566.0922	3609.7572	3676.0255
CN=C1N=NNC(N)=N1	CN=c1nn[nH]c(N)n1	
InChI=1S/C3H6N6/c1-5-3-6-2(4)7-9-8-3/h1H3,(H3,4,5,6,7,8)	InChI=1S/C3H6N6/c1-5-3-6-2(4)7-9-8-3/h1H3,(H3,4,5,6,7,8)
