25
gdb 57523	2.61321	1.07886	0.98667	1.67	88.61	-0.2591	0.0702	0.3293	1397.9529	0.225726	-389.484822	-389.473931	-389.472987	-389.520205	41.638	
C	-0.1319039908	 1.2013153492	-0.8494539852	-0.396294
C	-0.2087397778	-0.2853264948	-0.4577378262	 0.259083
C	 0.1093667009	-0.4527276147	 1.0409941078	-0.406226
C	-1.6478912222	-0.7887985711	-0.6927924872	-0.396929
C	 0.7246611301	-1.1510405974	-1.3522140775	-0.268241
C	 2.1539573843	-0.6922675228	-1.6154885991	 0.408854
C	 3.1239756796	-0.5571212563	-0.4590545034	-0.460749
C	 2.7118181498	-0.9655937661	-2.9529937477	-0.223739
O	 2.2795130282	 0.3490789544	-2.6034189433	-0.27263
H	 0.8578649275	 1.6244429692	-0.6572828071	 0.119437
H	-0.3416748012	 1.3416436585	-1.9139869442	 0.118062
H	-0.8631987889	 1.7837510926	-0.2777855382	 0.100147
H	-0.6245014088	 0.0887735739	 1.6481113676	 0.108762
H	 0.0685998255	-1.5071200028	 1.337498095	 0.104845
H	 1.0963811849	-0.0686385218	 1.3071662631	 0.111272
H	-1.9516730106	-0.6500844534	-1.7360106915	 0.109393
H	-1.7409264237	-1.854843856	-0.4553769288	 0.105442
H	-2.3587590177	-0.2441358686	-0.0620472031	 0.107253
H	 0.7637669432	-2.1670434283	-0.9346854385	 0.092359
H	 0.2471189695	-1.2412139179	-2.3343905205	 0.09465
H	 3.1295559498	-1.4624270592	 0.1568241665	 0.118627
H	 4.1371335296	-0.3844548191	-0.8309709085	 0.120316
H	 2.8606324214	 0.2867760034	 0.1840790998	 0.133879
H	 3.787931376	-1.0879469671	-3.0734291542	 0.105878
H	 2.1057217312	-1.4752018333	-3.7016002256	 0.106551
48.1329	99.9913	174.7185	204.4482	236.2828	252.7796	270.7635	282.4891	309.3104	333.5862	366.6002	385.4756	402.5431	415.0838	451.3229	538.0948	733.1149	752.5505	829.7978	885.9822	897.3989	928.8562	931.6948	941.7622	957.739	967.9844	1018.568	1046.9182	1070.8211	1101.8847	1138.01	1159.3339	1195.2568	1225.2688	1267.2287	1276.24	1327.4033	1351.2672	1396.625	1402.2595	1406.7122	1423.5372	1437.4322	1463.4629	1479.2826	1480.4696	1482.501	1488.525	1499.2558	1508.2458	1511.7366	1517.0918	1532.8023	3009.2408	3021.1215	3029.3412	3036.1149	3042.6583	3060.4473	3075.1253	3086.6425	3091.6814	3094.0952	3101.91	3110.6146	3113.3549	3117.2388	3126.8227	3159.0976
CC(C)(C)CC1(C)CO1	CC(C)(C)C[C@@]1(C)CO1	
InChI=1S/C8H16O/c1-7(2,3)5-8(4)6-9-8/h5-6H2,1-4H3	InChI=1S/C8H16O/c1-7(2,3)5-8(4)6-9-8/h5-6H2,1-4H3/t8-/m0/s1
