20
gdb 99724	1.69319	1.51038	1.01401	1.4651	77.1	-0.2259	-0.0387	0.1872	1293.4086	0.166895	-440.315383	-440.304404	-440.30346	-440.352644	37.879	
C	-0.3320523732	-1.6161073981	-0.5047824682	-0.323365
N	-0.514213825	-0.7112866032	 0.6307774203	-0.282276
C	 0.6377400154	-0.6552316224	 1.5120503441	-0.181844
C	 1.6798073517	 0.405685012	 1.059148078	 0.383628
C	 3.0846758768	 0.2687872358	 1.5884115423	-0.486116
O	 1.327850962	 1.2928061187	 0.3153197283	-0.307619
C	 0.2644693152	-0.3416074242	 2.9860767328	 0.366496
C	-1.124117615	 0.1910015223	 3.2472169657	-0.470729
O	 1.0786002063	-0.5099847891	 3.8651712797	-0.300824
H	-0.2476067726	-2.6467339383	-0.1435089577	 0.124223
H	-1.2138951884	-1.562216704	-1.1490901783	 0.125509
H	 0.5546578153	-1.3964584651	-1.1221011568	 0.105575
H	-0.6491693052	 0.2294152526	 0.2658826984	 0.232162
H	 1.1349092986	-1.6308443119	 1.5478583315	 0.111695
H	 3.5630246135	-0.5895545864	 1.1002099514	 0.143318
H	 3.6607979705	 1.1699774801	 1.3740496419	 0.139983
H	 3.0639262405	 0.0524741218	 2.6599593179	 0.176038
H	-1.8725118254	-0.5044126866	 2.8600558767	 0.161217
H	-1.2525448716	 0.3586062495	 4.3168377834	 0.137267
H	-1.2696827693	 1.1315094065	 2.7023999588	 0.14566
36.9812	53.0459	81.9476	153.5644	158.9025	171.2614	194.9835	211.7923	305.6145	329.4148	380.1181	468.1358	493.4688	518.1996	609.7254	624.9093	761.5545	812.8544	869.718	953.2382	968.379	1003.8197	1036.3639	1076.3467	1131.1907	1161.6671	1173.3388	1195.5641	1230.1176	1239.1879	1343.7229	1378.0772	1384.2741	1451.7553	1458.3888	1464.016	1465.3649	1472.3195	1492.2121	1503.0319	1529.3321	1791.5875	1809.7427	2968.4133	3036.1911	3043.0408	3060.2165	3064.3456	3107.5843	3109.53	3114.0878	3156.6945	3163.2074	3486.0121
CNC(C(C)=O)C(C)=O	CNC(C(=O)C)C(=O)C	
InChI=1S/C6H11NO2/c1-4(8)6(7-3)5(2)9/h6-7H,1-3H3	InChI=1S/C6H11NO2/c1-4(8)6(7-3)5(2)9/h6-7H,1-3H3
