20
gdb 32815	3.18832	1.06641	0.83902	1.3987	84.16	-0.1918	0.0427	0.2345	1407.241	0.170821	-403.178744	-403.169133	-403.168189	-403.213766	34.618	
C	-0.7184268002	 1.3967345856	 0.4369260441	-0.218298
O	-0.8497858094	 0.0067324563	 0.6062351443	-0.229046
C	-0.673908429	-0.7067584974	-0.6128053207	-0.19812
C	-0.8354268221	-2.1753439591	-0.3825624154	 0.207151
C	-1.9385670068	-2.804221897	 0.1665679541	 0.233638
C	-3.2258678692	-2.2489676515	 0.6826425308	-0.514886
N	-1.6715672136	-4.1514800303	 0.1718474676	-0.286498
C	-0.4288722084	-4.399119113	-0.359437851	-0.093271
C	 0.1136090332	-3.1880891806	-0.7106330796	-0.24651
H	-0.876973655	 1.8634725696	 1.4124677927	 0.122941
H	 0.2842073301	 1.6719372284	 0.0712638116	 0.100958
H	-1.4594056044	 1.7979831069	-0.2740650965	 0.098204
H	-1.4011087797	-0.3301586233	-1.3543810198	 0.084918
H	 0.3281065764	-0.5052381379	-1.0259492274	 0.088757
H	-4.0594426048	-2.4017923507	-0.0157258215	 0.121467
H	-3.5118108075	-2.7086918682	 1.6364630226	 0.118581
H	-3.1136819746	-1.1774353978	 0.8547979311	 0.154798
H	-2.2926492105	-4.852306013	 0.5378189248	 0.254191
H	-0.0432297746	-5.4029937732	-0.4321280445	 0.113268
H	 1.08622699	-3.0307858536	-1.1527998775	 0.087758
56.2184	94.7315	119.5456	127.1302	229.371	235.0077	254.3892	330.2849	380.571	406.2473	491.1984	638.2404	650.0361	684.0271	703.5781	778.344	822.9659	917.0929	971.8035	984.431	1005.1339	1063.4858	1088.9625	1116.8153	1137.456	1178.674	1195.2505	1221.2854	1251.4522	1280.0239	1308.9657	1403.1978	1419.6971	1437.5104	1476.0084	1480.6294	1484.3436	1494.5354	1498.1094	1503.8541	1521.1965	1525.9492	1627.5451	2935.9724	2962.5951	2979.0901	3003.6705	3012.5473	3060.4503	3109.2803	3139.834	3239.0742	3269.8189	3674.0353
COCC1=C(C)NC=C1	COCc1c(C)[nH]cc1	
InChI=1S/C7H11NO/c1-6-7(5-9-2)3-4-8-6/h3-4,8H,5H2,1-2H3	InChI=1S/C7H11NO/c1-6-7(5-9-2)3-4-8-6/h3-4,8H,5H2,1-2H3
