21
gdb 99775	2.0554	1.31325	0.864	3.6427	74.88	-0.2526	0.0636	0.3163	1362.4428	0.180414	-461.330746	-461.320557	-461.319612	-461.366264	37.355	
C	-0.0676167503	 1.5245574569	 0.3923005974	-0.412009
C	-0.113749007	 0.0334094703	 0.0590775351	 0.113802
O	 0.3187663657	-0.7436691324	 1.1769540529	-0.439534
C	-1.5192409165	-0.4795758036	-0.2921117238	-0.050962
C	-2.0544800439	 0.0929814557	-1.6211494234	-0.05756
O	-3.4374707584	-0.1339483142	-1.7825744769	-0.434972
C	-1.5011960242	-1.998330169	-0.3585558234	 0.105088
C	-2.2000868399	-2.8496439186	 0.6038152043	-0.173419
O	-2.7461997478	-2.641776438	-0.7068965328	-0.267744
H	 0.9511399425	 1.8174385576	 0.6719245835	 0.10617
H	-0.3608752115	 2.1468467612	-0.4574342816	 0.127712
H	-0.7289937566	 1.7466634557	 1.235434023	 0.12973
H	 0.5485414528	-0.1603148419	-0.8033678982	 0.066645
H	 1.197925532	-0.4417148286	 1.4265829305	 0.282464
H	-2.2126009709	-0.1667353192	 0.4984847439	 0.085756
H	-1.9166576176	 1.1783030328	-1.6529548776	 0.10094
H	-1.4700524984	-0.3296609057	-2.4581252038	 0.081176
H	-3.5942914642	-1.0636019887	-1.5687622869	 0.296663
H	-0.6445373797	-2.4254333914	-0.8815425332	 0.097925
H	-1.846392977	-3.8608116848	 0.7947268207	 0.120086
H	-2.7538717991	-2.3870192844	 1.4184363304	 0.122043
50.6227	74.4591	137.2364	179.1303	217.5196	226.7077	268.6476	307.4549	349.9656	382.0962	405.2634	449.0108	485.8506	519.0788	568.1002	807.6781	838.2855	885.0487	928.7349	941.9154	972.757	1046.8544	1074.7503	1080.8135	1091.1021	1113.2222	1136.8305	1153.7773	1161.1585	1184.3179	1233.4423	1248.7476	1299.8964	1301.6475	1317.1221	1375.5579	1388.9534	1409.5921	1424.8591	1449.4672	1467.2231	1496.6969	1498.75	1514.1201	1529.5265	2938.0285	2947.0089	3032.6068	3037.7418	3072.5021	3094.3431	3098.6922	3105.5499	3123.5975	3184.2386	3747.7203	3816.4315
CC(O)C(CO)C1CO1	C[C@@H](O)[C@@H](CO)[C@H]1CO1	
InChI=1S/C6H12O3/c1-4(8)5(2-7)6-3-9-6/h4-8H,2-3H2,1H3	InChI=1S/C6H12O3/c1-4(8)5(2-7)6-3-9-6/h4-8H,2-3H2,1H3/t4-,5-,6-/m1/s1
