23
gdb 105520	2.0597	1.44871	1.05626	2.2871	81.02	-0.2408	0.0663	0.307	1267.0784	0.203949	-425.403359	-425.392945	-425.392001	-425.438935	38.433	
C	-0.1313821288	 1.4439513552	 0.3377162305	-0.409564
C	-0.0631812644	-0.0429098699	-0.0261746455	-0.248813
C	 0.7408647033	-0.4201606455	-1.2811707843	 0.306614
C	 0.3588686588	 0.2834277599	-2.6079534503	-0.134662
O	 1.7252187419	 0.6708820449	-2.8480739471	-0.281365
C	 2.1160558276	 0.2537920477	-1.5209990198	-0.111549
C	 0.8237349242	-1.9575505945	-1.380908999	 0.072688
C	 1.4197541135	-2.5240022277	-2.6724574979	-0.421218
O	 1.6065238333	-2.3612210258	-0.2545551783	-0.440078
H	 0.8524310089	 1.8503086129	 0.5908423442	 0.122278
H	-0.5445035333	 2.0552627785	-0.4708308378	 0.11872
H	-0.774365136	 1.58392416	 1.2123406611	 0.114724
H	 0.3504605162	-0.6028466835	 0.8182186318	 0.12435
H	-1.0861341973	-0.4207444989	-0.1664111262	 0.090784
H	-0.0475080165	-0.3360998874	-3.4152084794	 0.095444
H	-0.2944330622	 1.1566069236	-2.4813005192	 0.092878
H	 2.3308285393	 1.1132878914	-0.875279116	 0.095278
H	 2.9870888284	-0.4084724057	-1.5272548913	 0.107252
H	-0.2033418022	-2.3495212183	-1.2772722981	 0.060993
H	 1.5115345775	-3.6129530465	-2.5820743804	 0.100472
H	 0.7802263209	-2.3294492787	-3.5370724058	 0.123245
H	 2.4121947125	-2.1159057905	-2.8770653153	 0.138884
H	 1.7138386643	-3.3163868212	-0.2926333758	 0.282647
64.1036	70.9919	89.456	187.013	214.0153	239.5039	269.5677	290.5167	319.5447	355.6428	367.0943	436.2963	478.4101	562.1504	632.6874	772.4311	810.0507	863.5172	921.8206	947.5298	952.9991	989.1691	1013.8651	1032.8553	1035.7075	1060.0171	1096.8072	1123.4146	1151.2727	1159.055	1171.3012	1222.0381	1235.5893	1273.9025	1302.9219	1328.0659	1360.6946	1372.2024	1386.0062	1414.2004	1414.9139	1423.1101	1485.8765	1487.9782	1493.0634	1502.311	1506.0992	1528.0546	1545.8349	2941.4642	3007.6795	3011.4315	3030.4933	3036.1016	3041.2411	3056.7455	3078.4849	3079.3149	3102.4219	3104.4168	3111.9051	3135.1666	3824.694
CCC1(COC1)C(C)O	CCC1(COC1)[C@@H](C)O	
InChI=1S/C7H14O2/c1-3-7(6(2)8)4-9-5-7/h6,8H,3-5H2,1-2H3	InChI=1S/C7H14O2/c1-3-7(6(2)8)4-9-5-7/h6,8H,3-5H2,1-2H3/t6-/m1/s1
