18
gdb 19534	3.45012	1.79728	1.60275	2.9258	66.34	-0.2444	0.0755	0.3199	878.5164	0.155669	-384.917061	-384.90966	-384.908716	-384.949308	27.863	
O	 0.1864571073	 1.0390904442	 0.7051206046	-0.426456
C	 0.0341093394	 0.018612189	-0.2671639872	-0.08193
C	-1.3592094242	-0.5862597584	-0.2501877301	-0.07149
C	-1.638017766	-2.0866044395	-0.1519036024	-0.092411
C	-0.5130479422	-3.0380738192	 0.2545454641	-0.264678
C	-0.3074866154	-2.72977316	 1.7564467332	-0.066027
O	-0.8874487578	-1.439680282	 2.003841221	-0.269515
C	-1.8762197504	-1.191553946	 1.0271985714	 0.067619
H	 0.0350498634	 0.6070431256	 1.5549581017	 0.291801
H	 0.2218005261	 0.487740808	-1.238155974	 0.107142
H	 0.8008740503	-0.7583963428	-0.1400523985	 0.083105
H	-2.100533365	-0.0326075765	-0.8205585293	 0.091844
H	-2.4647238998	-2.4841630049	-0.7282845282	 0.094047
H	-0.8181116632	-4.0770452622	 0.1043282582	 0.109579
H	 0.403756687	-2.8841386485	-0.3217096835	 0.115229
H	-0.8096240336	-3.4806712636	 2.3826759783	 0.101762
H	 0.7441517573	-2.6824439527	 2.0528838209	 0.112807
H	-2.8549484433	-0.9539003005	 1.4314105096	 0.097571
64.4997	89.8615	175.8182	268.6104	334.8516	480.0738	521.1589	612.0815	670.3844	728.0521	775.7546	790.0247	848.2246	891.0141	929.6565	966.6118	989.5402	1002.781	1052.746	1066.5323	1077.7423	1104.8049	1124.9419	1135.925	1196.9001	1222.9694	1243.4969	1248.154	1301.629	1312.1316	1344.8863	1384.4967	1402.5271	1418.861	1439.8149	1497.1427	1509.0129	1520.7848	3003.0275	3004.9551	3057.7635	3073.8563	3084.1068	3101.8784	3140.8815	3158.2607	3180.7767	3780.776
OCC1C2CCOC12	OC[C@H]1[C@H]2CCO[C@@H]12	
InChI=1S/C6H10O2/c7-3-5-4-1-2-8-6(4)5/h4-7H,1-3H2	InChI=1S/C6H10O2/c7-3-5-4-1-2-8-6(4)5/h4-7H,1-3H2/t4-,5+,6-/m1/s1
