15
gdb 42868	3.26238	1.43755	1.40706	3.5835	67.17	-0.233	-0.0451	0.188	960.58	0.113944	-453.943659	-453.936492	-453.935548	-453.975336	27.881	
N	-0.065990949	 1.2259718438	 0.3392820079	-0.572179
C	-0.0175998915	-0.0007524566	 0.0303044045	 0.445338
N	-1.1545204412	-0.7842733799	-0.0737869401	-0.316152
C	-1.0460599163	-2.086377032	-0.721620933	-0.124543
C	-0.0049715551	-2.0049701223	-1.8854525309	-0.276922
C	 1.0842636242	-1.9873225096	-0.7779747235	-0.007573
O	 1.1633916437	-0.672795637	-0.1921814675	-0.274869
C	 0.0783332347	-2.8376384518	 0.0437362124	 0.441579
O	 0.1455106207	-3.7661516216	 0.7865643817	-0.294319
H	 0.872394305	 1.6154304898	 0.3880910638	 0.226552
H	-2.0100239104	-0.2601537234	-0.1681602078	 0.266088
H	-2.0254699719	-2.5409089943	-0.8576229974	 0.10773
H	 0.0364817079	-2.9237862589	-2.4752388358	 0.131776
H	-0.0534803033	-1.1252597212	-2.5292729865	 0.13328
H	 2.1053556825	-2.316587765	-0.9605271979	 0.114216
88.7611	165.5671	239.0029	377.7111	419.3436	445.5001	452.7729	498.8052	553.9543	677.5697	710.4319	791.4413	814.5635	828.7997	836.2197	884.9105	962.9545	965.9349	1015.7279	1070.4323	1093.8462	1115.9469	1121.822	1157.9144	1223.5996	1236.0553	1268.0245	1337.1079	1396.3297	1431.8238	1468.385	1768.778	1916.2766	3074.1771	3143.0858	3144.408	3145.7868	3532.67	3639.333
N=C1NC2CC(O1)C2=O	[NH][C]1N[C@H]2C[C@@H](O1)C2=O	
InChI=1S/C5H6N2O2/c6-5-7-2-1-3(9-5)4(2)8/h2-3H,1H2,(H2,6,7)	InChI=1S/C5H6N2O2/c6-5-7-2-1-3(9-5)4(2)8/h2-3H,1H2,(H2,6,7)/t2-,3+/m0/s1
