21
gdb 97943	5.88991	0.5646	0.53416	1.5251	89.41	-0.2346	0.0539	0.2885	2134.3176	0.181265	-387.05052	-387.040289	-387.039345	-387.088305	35.455	
C	-0.0165567573	 1.5769026297	-0.0433807676	-0.363323
C	-0.0800667984	 0.0438928901	 0.0845968619	-0.31235
C	 0.658535727	-0.466436795	 1.2352037959	 0.116297
C	 1.2678618096	-0.8635615045	 2.1952633902	 0.022178
C	 2.0063393224	-1.3825831076	 3.340544132	-0.366671
C	 2.2156496188	-2.8971579086	 3.2854771292	 0.175423
C	 2.8464501352	-3.5717175335	 4.5237290147	-0.301094
C	 1.5559223056	-4.4142979357	 4.536964701	-0.057203
O	 0.9880730956	-3.639574685	 3.4608201758	-0.284421
H	 1.0174080616	 1.915366277	-0.1534480827	 0.125291
H	-0.5840508267	 1.9116839653	-0.9170073492	 0.112026
H	-0.4351030831	 2.0581953004	 0.8447455788	 0.126851
H	-1.1283180894	-0.2739947606	 0.1550559591	 0.128858
H	 0.3108500985	-0.4153410885	-0.8326556133	 0.125782
H	 2.996067442	-0.9073184618	 3.3998061374	 0.122288
H	 1.4835223309	-1.1399974555	 4.2747965715	 0.124238
H	 2.6987192839	-3.1648003457	 2.3361183396	 0.081175
H	 3.78055675	-4.1102305708	 4.3590988757	 0.110253
H	 2.9613399783	-2.9048963428	 5.3814899627	 0.109071
H	 1.689432714	-5.4669151328	 4.2555334938	 0.100782
H	 0.9440489316	-4.3667408343	 5.4451482836	 0.104548
17.0009	52.1145	71.2849	96.7529	143.6841	189.0012	266.5835	287.574	381.4302	391.6656	481.8651	514.8432	733.7715	743.7151	786.0576	812.8623	868.8943	890.3708	961.6799	967.6302	1010.6034	1037.9167	1078.1697	1095.1488	1104.2584	1123.4679	1165.1242	1167.4736	1211.5224	1233.4702	1256.4268	1285.4802	1288.799	1317.4738	1351.3656	1369.9605	1393.721	1408.1073	1456.6082	1477.4303	1489.6076	1494.1004	1505.7343	1533.3088	2369.2211	3005.4126	3008.7553	3015.4859	3018.5427	3042.867	3044.8987	3047.9764	3055.8192	3074.0404	3115.542	3121.9237	3131.7084
CCC#CCC1CCO1	CCC#CC[C@H]1CCO1	
InChI=1S/C8H12O/c1-2-3-4-5-8-6-7-9-8/h8H,2,5-7H2,1H3	InChI=1S/C8H12O/c1-2-3-4-5-8-6-7-9-8/h8H,2,5-7H2,1H3/t8-/m0/s1
