15
gdb 56426	2.28521	1.2866	1.02366	2.3938	68.	-0.2561	-0.0982	0.1579	1200.9422	0.107415	-457.747129	-457.737116	-457.736172	-457.783099	34.513	
C	 0.4065767843	 1.3840774738	 0.0433730083	-0.481395
C	 0.0788388135	-0.0848157364	 0.0556084595	 0.322261
O	-0.1938855561	-0.7275210462	 1.0410438971	-0.269054
C	 0.0537474388	-0.7898248149	-1.316164531	 0.260641
O	-0.011384813	-0.1712614467	-2.3509131857	-0.298044
C	 0.0940076047	-2.3288954167	-1.3235742491	-0.101988
O	-0.287737309	-2.8155073249	-2.5821269754	-0.408962
C	 1.4592592476	-2.7134343762	-0.93564251	 0.314948
C	 2.5904580303	-2.9924882723	-0.6406962045	-0.46637
H	 1.4428877794	 1.5234241516	-0.2862475473	 0.159677
H	-0.2216985519	 1.9043911708	-0.6850884153	 0.165183
H	 0.2762282355	 1.8014138263	 1.0417827001	 0.149904
H	-0.6087118616	-2.6956438253	-0.5661989798	 0.148133
H	-0.1167506544	-2.0977381293	-3.2109571888	 0.295553
H	 3.5814510217	-3.2663670838	-0.372990868	 0.209513
41.2108	61.8087	109.7129	116.2067	179.2623	227.0536	295.9177	328.9575	355.2038	382.46	467.3452	524.5713	555.2359	608.3687	639.4899	681.7524	691.562	838.9651	900.239	963.1186	1032.5729	1057.3784	1116.2548	1220.9824	1280.5817	1317.1109	1384.7591	1422.5182	1454.4803	1460.6721	1804.3666	1811.8628	2228.4656	3045.3014	3052.0509	3110.5958	3165.2614	3500.707	3715.5794
CC(=O)C(=O)C(O)C#C	CC(=O)C(=O)[C@@H](O)C#C	
InChI=1S/C6H6O3/c1-3-5(8)6(9)4(2)7/h1,5,8H,2H3	InChI=1S/C6H6O3/c1-3-5(8)6(9)4(2)7/h1,5,8H,2H3/t5-/m0/s1
