15
gdb 53858	3.37171	0.85734	0.77851	4.6134	69.53	-0.2692	-0.0482	0.221	1440.2488	0.113505	-450.168675	-450.159572	-450.158628	-450.20395	31.997	
N	 0.2135280716	 0.184839381	 1.2058102391	-0.547397
C	 0.0382209176	-0.0525893252	-0.1552495476	 0.257888
N	 0.864888093	 0.3630864643	-1.0243942594	-0.469625
C	-1.149113521	-0.9308091796	-0.5326294315	 0.37117
O	-1.5786630638	-0.9631135627	-1.6683026373	-0.362547
N	-1.6685761314	-1.6693112852	 0.4987303375	-0.33763
C	-2.7159496872	-2.6437902263	 0.2511722216	-0.281146
C	-2.2700584842	-4.021086473	 0.492234389	 0.255088
N	-1.9180490573	-5.0991263964	 0.7111680375	-0.291009
H	 0.9877546787	 0.8145953185	 1.3790070497	 0.265747
H	-0.6216243618	 0.4652183814	 1.703414537	 0.256071
H	 0.5817466505	 0.0150581023	-1.9423728188	 0.245338
H	-1.1243789845	-1.7387243636	 1.3460107617	 0.273653
H	-3.5943321969	-2.4458354264	 0.8761010571	 0.163693
H	-3.0107051134	-2.527065369	-0.7962263654	 0.200706
33.4397	71.3012	94.7347	189.634	249.6727	311.5255	362.0238	371.7112	395.7913	476.8309	514.7713	596.7434	618.1703	647.566	739.9911	821.3096	847.0936	928.459	933.8782	1033.5445	1088.4797	1117.3031	1166.8672	1220.7928	1274.2746	1372.7493	1425.8683	1467.6767	1522.261	1624.3503	1736.8738	1788.0466	2365.9405	3045.1754	3102.7899	3475.0413	3535.1835	3617.8408	3637.2837
NC(=N)C(=O)NCC#N	NC(=N)C(=O)NCC#N	
InChI=1S/C4H6N4O/c5-1-2-8-4(9)3(6)7/h2H2,(H3,6,7)(H,8,9)	InChI=1S/C4H6N4O/c5-1-2-8-4(9)3(6)7/h2H2,(H3,6,7)(H,8,9)
