20
gdb 68859	2.42093	1.81652	1.35032	1.2771	77.92	-0.2417	0.0798	0.3214	1036.1033	0.170864	-403.13171	-403.123336	-403.122392	-403.164029	33.16	
C	 0.0119353164	 1.5330817178	-0.063313775	-0.487884
C	 0.1728116339	 0.038799695	-0.0036824683	 0.35342
C	 0.3515579268	-0.7416993845	-1.3100199188	-0.284983
C	 1.0945737506	-2.0020466703	-0.8908675132	-0.023871
N	 2.4506545046	-1.7266140979	-0.3570548279	-0.345725
C	 1.3278520567	-1.9929692725	 0.5707487047	-0.137813
C	 0.7532661608	-0.716330534	 1.126820225	 0.390791
C	 1.3067207917	-0.1434057738	 2.4008765339	-0.498345
O	-0.674482921	-0.6618504994	 0.9317370264	-0.348813
H	 0.8836801202	 1.994958847	-0.5383724225	 0.126544
H	-0.8716318351	 1.7970857935	-0.6555466115	 0.125584
H	-0.1143459069	 1.9611835482	 0.9331534297	 0.127143
H	-0.6254709716	-0.9766142751	-1.746499586	 0.107012
H	 0.9244931416	-0.163302963	-2.0424626573	 0.106627
H	 0.9289095815	-2.9315152528	-1.4248775976	 0.087305
H	 3.0166711915	-2.568201028	-0.4415543895	 0.23
H	 1.3247092893	-2.899177806	 1.1693340898	 0.087787
H	 2.389913297	-0.0127078149	 2.3110694316	 0.135472
H	 0.8528035775	 0.8202283698	 2.6409156411	 0.12648
H	 1.1156471248	-0.8223209591	 3.2396895754	 0.123271
156.1864	175.9892	179.0872	202.2687	251.8497	341.0932	373.4724	430.6658	466.0587	502.5168	561.4971	649.5537	704.7679	758.0119	815.6528	863.259	876.	892.7266	921.2126	964.8909	969.7328	991.0884	1049.3283	1078.937	1113.1364	1118.0562	1152.3987	1176.5715	1204.1021	1227.9393	1238.0971	1269.8213	1336.2821	1373.5394	1405.5982	1411.9982	1432.0007	1453.7236	1469.5939	1477.4361	1485.6323	1496.32	1512.6625	3034.4641	3037.0019	3042.2131	3085.4286	3095.8881	3098.6822	3126.7845	3133.1158	3152.8364	3170.2852	3493.2439
CC12CC3NC3C1(C)O2	C[C@@]12C[C@H]3N[C@H]3[C@]1(C)O2	
InChI=1S/C7H11NO/c1-6-3-4-5(8-4)7(6,2)9-6/h4-5,8H,3H2,1-2H3	InChI=1S/C7H11NO/c1-6-3-4-5(8-4)7(6,2)9-6/h4-5,8H,3H2,1-2H3/t4-,5-,6-,7+/m1/s1
