19
gdb 106898	2.91745	1.25729	1.04178	3.2625	76.08	-0.2376	-0.0257	0.2119	1212.1107	0.156791	-423.013631	-423.004374	-423.00343	-423.047829	33.967	
C	-0.2908612889	 1.4906562665	-0.0850542959	-0.383334
C	 0.0654613956	 0.0043273502	 0.0631024747	-0.304023
C	 0.8444238457	-0.5265312233	-1.1010087439	 0.428414
O	 0.1575102722	-0.8080457528	-2.321698083	-0.281364
C	 0.8706792472	-1.8971749471	-1.6853353483	-0.203275
C	 2.3247163844	-1.6894362612	-2.0859894759	 0.430357
O	 3.1848479361	-2.3907627752	-2.529086565	-0.305925
C	 2.3114946183	-0.2360977089	-1.512435812	-0.186721
C	 2.6123975295	 0.9262947866	-2.449447654	-0.417031
H	 0.6075205413	 2.1130636653	-0.1429552423	 0.12462
H	-0.8778461212	 1.6594445324	-0.9924358776	 0.136742
H	-0.8799712676	 1.8323065232	 0.7705959868	 0.120206
H	 0.6521361452	-0.1516044788	 0.9767034526	 0.109762
H	-0.8498955011	-0.5891169931	 0.163611042	 0.117047
H	 0.3072600994	-2.7926612693	-1.4491169901	 0.119516
H	 2.9763926953	-0.2281410273	-0.6385348179	 0.101395
H	 1.8832288193	 0.9577870978	-3.2627706226	 0.138703
H	 2.5892108354	 1.8851458459	-1.9222554602	 0.119871
H	 3.6084065239	 0.8070949792	-2.8867370576	 0.13504
66.5303	97.3958	166.1249	204.1687	208.5337	226.5865	253.7809	327.8672	398.5524	496.3507	543.2709	612.4502	680.8813	711.3729	766.3147	786.4409	859.4228	872.432	959.9537	1001.0163	1016.5832	1052.5256	1061.6888	1076.2795	1102.4809	1139.4904	1192.5456	1213.3884	1224.9669	1307.3752	1334.3452	1352.5715	1403.0765	1409.5141	1440.0302	1471.6294	1491.5158	1500.0282	1504.0373	1508.4091	1897.1368	3031.0071	3034.8042	3041.4138	3043.5801	3074.2742	3106.8379	3114.669	3120.6822	3127.3582	3189.4642
CCC12OC1C(=O)C2C	CC[C@]12O[C@H]1C(=O)[C@H]2C	
InChI=1S/C7H10O2/c1-3-7-4(2)5(8)6(7)9-7/h4,6H,3H2,1-2H3	InChI=1S/C7H10O2/c1-3-7-4(2)5(8)6(7)9-7/h4,6H,3H2,1-2H3/t4-,6+,7-/m1/s1
