15
gdb 123972	3.82766	1.62072	1.14887	2.3059	72.53	-0.1994	0.0136	0.213	985.4958	0.117603	-413.021801	-413.014977	-413.014033	-413.053173	26.434	
C	 0.0204420305	 1.5467539932	-0.0318067112	-0.286518
N	 1.3913806173	 2.0729912771	 0.0207962925	-0.259203
C	 2.3735836555	 1.2945508759	 0.237251812	 0.083
N	 2.3414961448	-0.076434765	 0.4474013178	-0.412837
C	 1.130733856	-0.711981118	 0.2296800727	 0.407254
N	 0.9379350059	-2.0211656338	 0.2119158297	-0.346274
N	-0.3910286898	-2.1221977734	-0.0538778967	-0.195686
C	-1.0044571399	-0.9185792355	-0.1953596208	-0.154062
C	-0.0346547689	 0.0432700001	-0.0146070811	 0.147941
H	-0.5323480395	 1.9795315596	 0.8157404175	 0.117262
H	-0.4607000287	 1.9578460007	-0.9294015918	 0.116833
H	 3.3778122872	 1.7155889389	 0.2854762951	 0.113098
H	 3.1944942087	-0.6108866973	 0.4430870012	 0.259226
H	-0.8036203927	-3.036222116	-0.1079257484	 0.275216
H	-2.0598314363	-0.8464864064	-0.4079190585	 0.134749
73.5847	236.9298	317.0193	358.5141	403.7825	415.5393	502.904	543.3397	629.5706	641.5721	734.1495	759.0465	789.923	902.5849	941.9653	956.661	959.527	1027.7319	1068.375	1106.9258	1181.5999	1229.0949	1252.8773	1293.7162	1338.0296	1405.1585	1418.3455	1469.7638	1484.7341	1498.7794	1562.2323	1648.6993	1736.6089	2983.0297	3013.7088	3132.3764	3256.6907	3651.0478	3695.6259
C1N=CNC2=NNC=C12	C1N=CNc2n[nH]cc12	
InChI=1S/C5H6N4/c1-4-2-8-9-5(4)7-3-6-1/h2-3H,1H2,(H2,6,7,8,9)	InChI=1S/C5H6N4/c1-4-2-8-9-5(4)7-3-6-1/h2-3H,1H2,(H2,6,7,8,9)
