22
gdb 110580	3.09781	1.27089	1.05948	1.7308	86.76	-0.2248	0.082	0.3068	1248.7967	0.193755	-367.127002	-367.118232	-367.117288	-367.160271	34.092	
C	 0.0140180769	 1.6136472428	-0.1193656981	-0.376813
C	 0.0262077384	 0.1171986928	 0.2156200325	-0.218848
C	-1.3506880911	-0.5235360602	 0.1182245331	-0.034266
C	-1.9465437624	-0.8730206183	-1.2517279388	-0.013841
C	-1.1107174118	-2.1747445436	-1.4301092377	-0.114381
C	-2.4025362433	-2.9413452565	-1.6764912965	-0.196929
N	-2.8738675432	-1.9457018237	-0.6216628358	-0.194975
C	-1.4852450956	-2.0578306936	 0.0911117069	 0.354135
C	-1.2476947268	-3.0432587142	 1.1971740958	-0.524363
H	 1.012757847	 2.05065672	-0.0238449474	 0.11198
H	-0.3297459349	 1.7887985529	-1.1444268821	 0.117573
H	-0.6562070368	 2.1624066706	 0.551242758	 0.117242
H	 0.7251970586	-0.4028148112	-0.4519330021	 0.094457
H	 0.4141670696	-0.023842748	 1.2329960694	 0.097248
H	-2.0731640141	-0.0421845608	 0.7905198303	 0.072112
H	-2.3305424071	-0.2236669109	-2.0412663223	 0.075118
H	-0.1185227909	-2.2933045214	-1.8789987031	 0.061522
H	-2.8998747172	-2.8129847504	-2.6438815261	 0.096712
H	-2.4633309355	-3.9869748714	-1.3572526282	 0.096408
H	-1.4792163493	-4.0656784749	 0.8808749496	 0.124731
H	-0.2003934898	-3.0187943638	 1.5173147181	 0.123753
H	-1.8752243706	-2.804699876	 2.0620581846	 0.131425
80.0085	145.835	177.842	198.6726	248.5416	257.3422	314.9183	352.7876	504.6611	529.2865	626.7146	700.9956	745.2652	804.5616	820.6396	858.9087	865.5728	901.3934	920.4062	934.6126	969.2096	1021.3042	1046.9898	1055.0375	1083.3641	1101.7063	1104.1987	1134.5733	1167.3319	1172.0636	1180.289	1215.4828	1242.0466	1265.4371	1287.4784	1296.7437	1322.0745	1351.5896	1402.7926	1411.8108	1425.1732	1482.7937	1484.883	1487.5061	1499.5909	1507.1204	1519.9908	3016.2735	3024.0516	3030.1388	3031.5028	3032.1908	3044.6206	3051.9837	3089.569	3093.076	3099.6381	3099.8873	3103.7666	3104.3579
CCC1C2C3CN2C13C	CC[C@H]1[C@H]2[C@@H]3CN2[C@]13C	
InChI=1S/C8H13N/c1-3-5-7-6-4-9(7)8(5,6)2/h5-7H,3-4H2,1-2H3	InChI=1S/C8H13N/c1-3-5-7-6-4-9(7)8(5,6)2/h5-7H,3-4H2,1-2H3/t5-,6-,7-,8+/m0/s1
