17
gdb 117613	2.21657	1.18731	0.96024	2.5689	77.09	-0.264	0.014	0.278	1304.166	0.130718	-421.727336	-421.716947	-421.716003	-421.762735	37.315	
C	 0.1365618935	 1.3681471544	 0.0757533381	-0.231822
O	 0.0886089224	-0.0403621104	 0.0041081911	-0.252936
C	 0.6062235928	-0.5589558024	-1.1987347762	-0.088049
C	 0.6018770869	-2.1016089383	-1.0468029511	-0.045653
O	 1.306414202	-2.4449071863	 0.1403921678	-0.439494
C	-0.7874917238	-2.6014603381	-1.0013327165	 0.363885
C	-1.9180590917	-3.0027858512	-0.9487099369	-0.491674
C	 1.3074373533	-2.6908389854	-2.1912740148	 0.342705
C	 1.8799706049	-3.1284471493	-3.1509803905	-0.438637
H	 1.1678287017	 1.7426640938	-0.0084854769	 0.11382
H	-0.4680250951	 1.8317863948	-0.717486634	 0.115595
H	-0.2704931596	 1.657078922	 1.0471023408	 0.135346
H	 0.0007926528	-0.2578660072	-2.0650280654	 0.111363
H	 1.6448986384	-0.2327290533	-1.3555408583	 0.108614
H	 0.96030061	-1.8436227802	 0.8150360208	 0.293887
H	-2.9149530691	-3.3662498248	-0.9009926315	 0.200805
H	 2.3841292907	-3.5363683481	-3.9922878165	 0.202245
63.4513	110.4406	119.5643	131.43	179.4406	223.8739	235.8898	285.7796	362.328	412.518	433.0062	477.6409	505.6802	557.1904	620.1644	642.5899	645.7078	663.5557	675.1259	759.7246	939.515	978.4873	1055.6461	1104.789	1142.9369	1166.4723	1189.8309	1227.9114	1271.5268	1380.5366	1417.1599	1477.1042	1487.0098	1496.6864	1518.3453	2236.8375	2248.9488	2981.8157	2994.6099	3034.601	3042.0024	3123.4545	3501.0104	3501.5911	3754.4526
COCC(O)(C#C)C#C	COCC(O)(C#C)C#C	
InChI=1S/C7H8O2/c1-4-7(8,5-2)6-9-3/h1-2,8H,6H2,3H3	InChI=1S/C7H8O2/c1-4-7(8,5-2)6-9-3/h1-2,8H,6H2,3H3
