17
gdb 65588	2.93833	1.33547	1.22495	1.1877	71.25	-0.2691	0.0214	0.2904	1065.9975	0.137203	-418.00269	-417.994648	-417.993704	-418.035691	30.684	
N	-0.1167998108	 1.4087550665	 0.1513146282	-0.529929
C	-0.0022435764	-0.0430795248	 0.0002176947	 0.126525
C	 0.6890232546	-0.6901633976	 1.2451265044	-0.275074
C	-0.0491546373	-1.9985156202	 1.4754595958	 0.044565
O	-1.3240018068	-1.8125096648	 2.0983904895	-0.246351
C	-1.2883204583	-2.0137116226	 0.6820157962	 0.044565
C	-1.4106962765	-0.7159102666	-0.0993194581	-0.275072
C	 0.7767602465	-0.4072035141	-1.209462843	 0.239706
N	 1.3890584023	-0.64844382	-2.1610490553	-0.344549
H	 0.8086421352	 1.8269307026	 0.2054196271	 0.243169
H	-0.560335931	 1.8101384131	-0.6711259459	 0.243169
H	 1.7586474569	-0.8393263333	 1.0806763117	 0.123036
H	 0.555002507	-0.024777058	 2.1025472874	 0.135729
H	 0.4879566169	-2.897675389	 1.7643907259	 0.105874
H	-1.7597432814	-2.9252400468	 0.3251769725	 0.105873
H	-2.1448631702	-0.0578798073	 0.3738259985	 0.135729
H	-1.7061870409	-0.8818128871	-1.1378523495	 0.123035
43.0059	167.1194	182.4227	258.8935	338.4035	365.3503	381.3598	419.4788	521.8657	589.2236	643.2735	708.7095	726.2048	805.9592	858.9155	871.0097	903.7695	927.291	949.2221	963.0076	1036.6268	1050.4228	1110.991	1123.886	1165.0605	1192.3814	1259.0761	1271.2354	1284.1266	1313.5352	1336.3097	1352.2153	1432.478	1470.7862	1479.6691	1662.7729	2336.2002	3064.8634	3066.8613	3118.386	3118.6799	3149.4952	3161.4996	3482.692	3560.3481
NC1(CC2OC2C1)C#N	N[C@]1(C[C@H]2O[C@H]2C1)C#N	
InChI=1S/C6H8N2O/c7-3-6(8)1-4-5(2-6)9-4/h4-5H,1-2,8H2	InChI=1S/C6H8N2O/c7-3-6(8)1-4-5(2-6)9-4/h4-5H,1-2,8H2/t4-,5+,6+
