17
gdb 50940	1.72621	1.63183	0.90579	0.9819	70.12	-0.2545	-0.0482	0.2063	1248.1434	0.135326	-455.143709	-455.134714	-455.13377	-455.178259	31.725	
O	 0.0643113649	 0.8519673367	 1.3907292592	-0.32396
C	-0.0241868961	 1.4149263023	 0.3186107541	 0.156884
N	 1.0223477649	 1.6892059855	-0.50441984	-0.275881
C	 2.3506028859	 1.1793631238	-0.2473971713	-0.101773
C	 3.0709481972	 0.9923924354	-1.5735626634	 0.160808
O	 2.5938468947	 1.2895794106	-2.6395437892	-0.254201
C	 3.1941192523	 2.0784295872	 0.6538739938	 0.00587
C	 3.0682297006	 1.9687673689	 2.1260368113	-0.239957
N	 4.2933530926	 1.5049733232	 1.4477178891	-0.322926
H	-0.9848791723	 1.7726775818	-0.0980199899	 0.089478
H	 0.8475744471	 1.9912635879	-1.4538112418	 0.263256
H	 2.2717121885	 0.1977549821	 0.2448292603	 0.118482
H	 4.0991448555	 0.5869021061	-1.4868845843	 0.111945
H	 3.4267176392	 3.0485528412	 0.2186592142	 0.103383
H	 3.1991616479	 2.8562330047	 2.7377108866	 0.125826
H	 2.3605929317	 1.2402001734	 2.5073519263	 0.151071
H	 4.2812566554	 0.4888131691	 1.3835877851	 0.231695
68.9864	93.9319	114.1217	177.847	190.011	248.704	291.7258	356.266	402.9873	475.8618	588.2515	695.0631	779.0451	815.1884	862.5295	891.7105	954.9717	965.3614	1000.0849	1035.0877	1070.1314	1116.0541	1138.646	1158.8968	1202.5237	1222.1833	1245.3239	1273.4	1297.3634	1337.1518	1405.9651	1417.8039	1428.3616	1508.5726	1516.7659	1792.3606	1825.4517	2936.8422	2956.5071	3000.9548	3123.4743	3128.4603	3220.2914	3483.3781	3586.7146
O=CNC(C=O)C1CN1	O=CN[C@@H](C=O)[C@H]1CN1	
InChI=1S/C5H8N2O2/c8-2-5(7-3-9)4-1-6-4/h2-6H,1H2,(H,7,9)	InChI=1S/C5H8N2O2/c8-2-5(7-3-9)4-1-6-4/h2-6H,1H2,(H,7,9)/t4-,5+/m1/s1
