21
gdb 93651	2.41099	1.43455	1.15545	2.6512	77.83	-0.2462	-0.0263	0.2199	1169.1486	0.181432	-424.268098	-424.258642	-424.257698	-424.301937	36.195	
C	 0.008748734	 1.5375966858	 0.0285922212	-0.419083
C	-0.005784786	-0.0038564762	-0.0227728436	 0.188853
C	-1.4514723916	-0.5184297658	 0.0465932503	-0.434293
C	 0.7950769157	-0.5453123316	-1.2409429382	-0.26424
C	 2.2292538581	-0.7984398025	-0.7211670275	-0.25307
C	 1.9775357413	-1.3697145661	 0.6779565292	 0.070086
O	 3.0621521096	-1.3474073993	 1.5614517413	-0.444906
C	 0.809174842	-0.520572778	 1.1709324814	 0.360162
O	 0.6421629155	-0.2493544905	 2.3366634278	-0.35669
H	 1.0229063896	 1.9374130815	-0.0715828952	 0.120443
H	-0.5973434822	 1.9443159383	-0.787399887	 0.116076
H	-0.3986765311	 1.8907661809	 0.979608782	 0.137317
H	-2.0299749874	-0.1473992944	-0.806011756	 0.118213
H	-1.4905390217	-1.6125277919	 0.0283433785	 0.115452
H	-1.9362728195	-0.1770103533	 0.96604544	 0.134718
H	 0.3575563383	-1.4892612468	-1.5860168029	 0.101595
H	 0.7729223731	 0.1456309326	-2.0875965887	 0.105152
H	 2.8050949657	-1.4688230079	-1.3624081788	 0.110461
H	 2.7896936779	 0.1384173692	-0.6261953775	 0.114468
H	 1.5839299319	-2.3994776713	 0.5609233566	 0.088815
H	 2.697661887	-1.0632518827	 2.4134499172	 0.290473
57.3336	174.9895	199.9512	216.3895	239.7919	270.6806	295.3391	335.5863	358.5418	394.5484	420.5553	504.3859	543.5787	583.3154	693.0701	756.5108	819.5475	882.6421	925.9104	957.2383	974.9912	979.9283	1005.3159	1053.9467	1069.7842	1095.9246	1152.5449	1195.7061	1229.9208	1235.9685	1264.7618	1272.6977	1314.5211	1337.3643	1375.1681	1392.7448	1415.0014	1420.8228	1479.5337	1486.7894	1495.2295	1499.9765	1504.0957	1510.6557	1826.7201	2905.2751	3030.0271	3034.0892	3041.1514	3052.2133	3095.1517	3099.1868	3103.1979	3111.5796	3113.5169	3121.4553	3712.6831
CC1(C)CCC(O)C1=O	CC1(C)CC[C@@H](O)C1=O	
InChI=1S/C7H12O2/c1-7(2)4-3-5(8)6(7)9/h5,8H,3-4H2,1-2H3	InChI=1S/C7H12O2/c1-7(2)4-3-5(8)6(7)9/h5,8H,3-4H2,1-2H3/t5-/m1/s1
