21
gdb 73686	2.29238	1.75978	1.36114	1.4885	76.6	-0.2457	0.0799	0.3256	1046.4543	0.185139	-424.239329	-424.231407	-424.230463	-424.271698	31.284	
C	 8.3963*^-6	 1.5082640218	 0.0003678516	-0.475108
C	-0.0079983479	-0.0204373839	-0.0071456046	 0.318224
C	-1.4203683358	-0.6309054519	 0.0819864887	-0.14791
O	-1.2692539395	-1.8561456788	 0.7815062589	-0.247008
C	-0.3553538009	-1.5796789091	 1.8355022746	-0.106377
C	 0.7198523887	-0.6676543053	 1.2216354779	-0.080206
C	 1.9191247691	-1.4078050364	 0.5876323806	-0.096694
O	 2.1134029805	-0.823343344	-0.6902996964	-0.241434
C	 0.8087264769	-0.5914550703	-1.1926885825	-0.137307
H	 1.023353157	 1.8877808556	-0.0816471023	 0.129439
H	-0.5750176226	 1.9127699899	-0.8407064652	 0.115221
H	-0.4363110498	 1.9050689906	 0.9234010836	 0.113272
H	-2.0994717752	 0.0473780136	 0.6260414552	 0.082664
H	-1.8654921365	-0.8530151745	-0.8927588239	 0.107815
H	-0.8699247922	-1.0714572655	 2.6672231337	 0.087199
H	 0.0305838701	-2.5351905239	 2.2031794572	 0.108945
H	 1.0602691131	 0.0888559672	 1.9323936092	 0.075195
H	 2.8500581495	-1.303628955	 1.1507960083	 0.106419
H	 1.690607141	-2.4820838452	 0.4874835885	 0.091712
H	 0.3581226539	-1.5342926331	-1.5436952327	 0.092353
H	 0.8901048443	 0.0967787983	-2.0385808704	 0.103587
73.5764	196.484	253.7954	257.9211	270.4176	343.3211	382.1862	403.1166	549.8545	601.6342	647.5136	727.6591	789.9801	866.5038	917.2463	942.4403	960.8136	967.8604	978.0593	996.6799	1012.2977	1029.2324	1102.3525	1108.503	1138.8784	1176.679	1188.3401	1203.2474	1235.4067	1250.0353	1282.1394	1290.1216	1305.3509	1334.4425	1359.7115	1370.0445	1387.0336	1404.1107	1422.9901	1495.1326	1497.5941	1500.3616	1506.3038	1516.5771	1518.5447	2959.1115	2962.6023	2971.3962	2971.876	3025.3569	3074.6102	3079.041	3081.7835	3086.3615	3091.1404	3096.6227	3104.1382
CC12COCC1COC2	C[C@]12COC[C@H]1COC2	
InChI=1S/C7H12O2/c1-7-4-8-2-6(7)3-9-5-7/h6H,2-5H2,1H3	InChI=1S/C7H12O2/c1-7-4-8-2-6(7)3-9-5-7/h6H,2-5H2,1H3/t6-,7+
