17
gdb 128136	2.01831	1.78377	1.00191	1.7908	71.79	-0.1986	0.0455	0.2441	1160.5662	0.137617	-451.329953	-451.320745	-451.319801	-451.363765	33.855	
C	 0.0184138017	 1.4848513652	-0.1826882195	-0.325213
N	 0.0187480131	 0.0223253453	-0.0526322492	-0.414371
C	 0.6406246679	-0.4725987725	 1.1205750414	 0.017164
C	 1.7559902348	-1.2962449867	 1.1300933174	 0.36785
N	 2.4126107688	-1.8868048177	 0.0566082324	-0.60442
N	 2.0842705073	-1.5094568401	 2.423931635	-0.283813
N	 1.2188587144	-0.8882744671	 3.2973846806	-0.350745
C	 0.3684764836	-0.2713107925	 2.5006755863	 0.377445
O	-0.6452729634	 0.4817159894	 2.9836968378	-0.436936
H	 1.0516748178	 1.8391399823	-0.2507895051	 0.11912
H	-0.4972574442	 1.7621701591	-1.1075815266	 0.110467
H	-0.4638221205	 2.003389948	 0.6583142245	 0.122991
H	-0.9324358125	-0.3219741507	-0.1303986017	 0.229197
H	 2.0286257469	-1.5133417749	-0.8055859278	 0.257772
H	 3.4178561619	-1.7607393647	 0.0711509409	 0.247502
H	 2.7374068693	-2.180468532	 2.7865173007	 0.266533
H	-0.5816493069	 0.4511790795	 3.9469609029	 0.299457
69.7532	146.6229	179.6363	197.4686	259.099	267.8171	294.0758	299.4206	393.3531	417.7726	462.558	569.5763	586.6271	659.565	701.9385	735.8466	783.1527	814.981	836.933	1045.383	1068.7694	1098.0273	1141.9036	1170.2115	1177.3706	1222.921	1317.6315	1360.7245	1448.8917	1464.3644	1474.8792	1487.8871	1520.6042	1559.1739	1589.2591	1628.7613	1676.4554	3000.2641	3071.5895	3105.1753	3510.2081	3510.6787	3600.872	3691.1918	3787.6067
CNC1=C(N)NN=C1O	CNc1c(N)[nH]nc1O	
InChI=1S/C4H8N4O/c1-6-2-3(5)7-8-4(2)9/h6H,1H3,(H4,5,7,8,9)	InChI=1S/C4H8N4O/c1-6-2-3(5)7-8-4(2)9/h6H,1H3,(H4,5,7,8,9)
