15
gdb 27702	2.94151	1.29416	0.90381	2.8694	81.64	-0.1922	-0.0002	0.1919	1232.6588	0.111897	-416.8313	-416.822425	-416.82148	-416.865716	32.293	
C	-0.0160167638	 1.4421104185	 0.0321523758	-0.505483
C	 0.0185310966	-0.0474943027	-0.0256769503	 0.343132
N	 0.0533271374	-0.7736975368	-1.1352440568	-0.373991
C	 0.0762058823	-2.0701115288	-0.7287448793	 0.235701
O	 0.1137489318	-3.0878969869	-1.6058553998	-0.424526
C	 0.0559879631	-2.1770753364	 0.6507218954	 0.083913
N	 0.0186403604	-0.8412952362	 1.0703549542	-0.361513
C	 0.0663806799	-3.269207969	 1.527010105	 0.255554
C	 0.0748026431	-4.1972461266	 2.2978912328	-0.445788
H	 0.8527866008	 1.8481902227	 0.5626719787	 0.13826
H	-0.012012707	 1.8327726892	-0.9858676051	 0.159724
H	-0.9153496885	 1.8080420852	 0.5404927761	 0.138113
H	 0.1190804404	-2.6883236033	-2.4846010202	 0.302639
H	-0.0038472748	-0.5457287263	 2.0319745852	 0.268152
H	 0.0826788381	-5.0250312426	 2.9620144182	 0.186114
25.2475	129.2599	129.802	227.3835	283.1356	330.7787	394.8193	395.9217	419.4008	503.5825	505.2279	543.7536	589.153	655.018	683.5942	685.9352	742.1939	818.4085	1001.3032	1045.1472	1059.7007	1148.5377	1211.3025	1258.962	1347.1583	1409.9428	1445.5289	1454.2097	1481.9489	1508.0455	1568.0441	1657.836	2220.6163	3032.5464	3082.6772	3151.4644	3503.7811	3665.7533	3799.849
CC1=NC(O)=C(N1)C#C	Cc1nc(O)c([nH]1)C#C	
InChI=1S/C6H6N2O/c1-3-5-6(9)8-4(2)7-5/h1,9H,2H3,(H,7,8)	InChI=1S/C6H6N2O/c1-3-5-6(9)8-4(2)7-5/h1,9H,2H3,(H,7,8)
