16
gdb 34654	3.58211	1.16925	0.91693	4.5121	81.22	-0.2452	-0.0678	0.1773	1219.3035	0.125597	-400.762391	-400.754556	-400.753611	-400.795319	29.082	
N	 0.0693977215	-1.2106996483	 0.4642230091	-0.333488
C	 0.0034010133	-0.0660788281	 0.3024818599	 0.217277
C	-0.0527512744	 1.3548782407	 0.096150674	 0.156169
C	-1.2676218837	 1.9382064475	 0.0598891915	-0.149736
C	-1.4957048798	 3.4100177865	-0.1380944453	-0.15392
O	-0.6304381406	 4.2263624059	 0.6317270315	-0.230718
C	 0.6269582062	 4.4944613307	 0.0607336652	-0.144877
C	 1.526254072	 3.316180786	-0.1688118526	-0.076264
C	 1.24769632	 2.0079375855	-0.1114356927	-0.12042
H	-2.1464991468	 1.3149187632	 0.1917857074	 0.124664
H	-1.4179440136	 3.6606199174	-1.2096611608	 0.118089
H	-2.5120657007	 3.6642249471	 0.1779412134	 0.128884
H	 0.5243910996	 5.0602423282	-0.8835237825	 0.108265
H	 1.1189800905	 5.1738886741	 0.7686886471	 0.133348
H	 2.5550221816	 3.5960933069	-0.3893364811	 0.10898
H	 2.0705379549	 1.3159535465	-0.2641756342	 0.113749
52.452	153.3074	163.8018	260.256	342.8684	352.4274	409.4946	462.1038	567.459	593.551	625.3396	707.1429	771.4533	844.5316	874.8753	899.5984	943.3536	1000.6382	1016.3005	1054.1323	1067.4674	1143.0633	1184.3202	1248.7395	1272.4001	1328.2268	1353.8433	1391.2247	1413.9623	1446.0594	1468.0689	1477.426	1662.4436	1712.05	2340.6505	2937.2405	2965.3585	3043.2693	3078.6157	3142.7512	3175.7806	3182.5371
N#CC1=CCOCC=C1	N#CC1=CCOCC=C1	
InChI=1S/C7H7NO/c8-6-7-2-1-4-9-5-3-7/h1-3H,4-5H2	InChI=1S/C7H7NO/c8-6-7-2-1-4-9-5-3-7/h1-3H,4-5H2
