15
gdb 18544	4.2905	2.01612	1.61215	2.7492	67.05	-0.2534	0.0043	0.2577	797.7564	0.121188	-362.674518	-362.668369	-362.667425	-362.704784	24.134	
N	-0.0949495428	 1.2153302943	-0.6129193093	-0.547344
C	-0.0554980908	 0.0702986387	-0.107154473	 0.441092
O	 0.9704191015	-0.5988208791	 0.5335256232	-0.270631
C	 0.1714894346	-1.8257464796	 0.6450063005	 0.110694
C	-0.1713800438	-2.1900840583	 2.0926952479	-0.279915
C	-1.5012584896	-1.5051327154	 2.3165118395	-0.059087
C	-1.980466756	-0.9249323344	 1.2155719909	-0.074694
C	-1.0466782102	-1.0751438155	 0.0416603861	-0.207037
H	 0.7978761947	 1.7004436729	-0.5072697282	 0.227748
H	 0.6356976157	-2.6211525962	 0.0606124564	 0.095164
H	-0.2401772869	-3.2764723282	 2.2328410445	 0.113558
H	 0.6131248127	-1.8327428689	 2.7705753255	 0.129777
H	-1.9921586217	-1.49815955	 3.2833010243	 0.103006
H	-2.9077100515	-0.3698129105	 1.1452168284	 0.112055
H	-1.5064299458	-1.4272909398	-0.8832787967	 0.105614
125.3553	191.0797	324.1242	419.2205	458.9507	626.03	657.958	740.8845	774.7374	824.2703	848.7625	861.2429	874.2872	945.1647	966.484	977.1436	1000.7486	1019.264	1029.0019	1042.6596	1129.8926	1179.4501	1207.4592	1218.022	1271.0108	1280.6545	1327.3402	1346.1147	1378.9458	1466.3396	1675.4513	1821.8086	3025.9651	3063.1925	3099.5428	3109.6938	3192.6238	3220.3467	3474.0094
N=C1OC2CC=CC12	[NH][C]1O[C@H]2CC=C[C@@H]12	
InChI=1S/C6H7NO/c7-6-4-2-1-3-5(4)8-6/h1-2,4-5,7H,3H2	InChI=1S/C6H7NO/c7-6-4-2-1-3-5(4)8-6/h1-2,4-5,7H,3H2/t4-,5+/m1/s1
