19
gdb 106718	2.46775	1.57382	1.24072	1.676	75.85	-0.2293	0.0732	0.3025	1089.4297	0.15807	-422.959981	-422.95135	-422.950406	-422.993163	33.06	
C	 0.0736541622	 1.3077885082	-0.2976852213	-0.254056
O	-0.0234601324	-0.0278553024	 0.1678085687	-0.284267
C	-1.3033105775	-0.5356362678	 0.1376738343	 0.348388
C	-1.9466647956	-1.0421927098	-1.1443003969	-0.390377
C	-1.6880656959	-2.0144796141	-0.0232104661	 0.319476
O	-0.8982132956	-3.1198962717	-0.2717651141	-0.454744
C	-2.7002035496	-1.875039648	 1.0851616292	-0.119698
C	-2.0535580974	-1.3631949529	 2.351091965	-0.309952
C	-2.3277696285	-0.3879597938	 1.2382736781	-0.11718
H	 1.1285123047	 1.5875412094	-0.248550658	 0.126538
H	-0.276287296	 1.39613602	-1.335546752	 0.112218
H	-0.5075613488	 1.9994492499	 0.3283556994	 0.11067
H	-2.9569554473	-0.7616392179	-1.4315215857	 0.102525
H	-1.2455168092	-1.150678148	-1.9666744569	 0.122188
H	-0.4341454884	-3.3460528725	 0.5424148943	 0.286356
H	-3.7055958953	-2.2812781885	 1.078963838	 0.089954
H	-2.7097220977	-1.2927095619	 3.2133774532	 0.112795
H	-1.0273434759	-1.6255956751	 2.5943982918	 0.111432
H	-3.0381319458	 0.423855347	 1.3460524989	 0.087735
75.9303	138.1314	166.673	229.2208	237.5157	295.5219	328.4085	441.2122	447.6522	561.6535	569.9255	601.7887	734.646	792.1637	819.0951	850.2887	859.4843	922.7552	964.7792	985.9367	1026.2892	1055.1522	1060.785	1077.059	1081.8859	1091.3878	1133.7632	1169.4403	1179.9815	1208.812	1222.1418	1250.1216	1308.5828	1347.724	1359.6076	1402.7172	1475.1001	1487.381	1487.9242	1503.1422	1507.0295	2992.1734	3046.4845	3107.1839	3114.6367	3119.2745	3169.7848	3177.9408	3202.4767	3203.7233	3792.3704
COC12CC1(O)C1CC21	CO[C@@]12C[C@]1(O)[C@H]1C[C@@H]21	
InChI=1S/C7H10O2/c1-9-7-3-6(7,8)4-2-5(4)7/h4-5,8H,2-3H2,1H3	InChI=1S/C7H10O2/c1-9-7-3-6(7,8)4-2-5(4)7/h4-5,8H,2-3H2,1H3/t4-,5+,6-,7+/m0/s1
