18
gdb 82795	2.54487	2.08391	1.68567	1.6453	74.31	-0.2158	-0.0013	0.2145	880.3078	0.150786	-401.910818	-401.904162	-401.903218	-401.941557	27.771	
O	 0.1957628601	 1.4078198436	 0.2014346371	-0.426829
C	 0.0303360976	 0.0266803944	 0.0420574145	 0.112997
C	-1.39801102	-0.5887901751	-0.0198776555	-0.010639
C	-2.5123132369	 0.2187014136	-0.7161458127	-0.27701
C	-2.0050222702	-0.4067949007	-2.0616866498	-0.03053
C	-1.1225669736	 0.4811566345	-2.8924474139	-0.082064
C	 0.1526889126	 0.360573767	-2.5175105324	-0.094482
C	 0.2740541559	-0.6127177518	-1.3796759072	-0.089794
N	-1.0583781571	-1.3161463494	-1.3076929015	-0.134717
H	-0.1644211935	 1.8375928454	-0.5841710787	 0.279179
H	 0.6352977158	-0.4420939747	 0.8223115647	 0.095722
H	-1.6953395125	-1.1948690131	 0.8397142971	 0.073112
H	-3.5152651388	-0.1062579702	-0.4311589259	 0.111603
H	-2.4627541246	 1.3074865437	-0.6325655086	 0.101329
H	-2.7663877667	-0.9362865284	-2.6427595794	 0.080657
H	-1.5019592027	 1.1330061347	-3.6713014735	 0.105501
H	 0.9961445368	 0.896836466	-2.9360842632	 0.110003
H	 1.1377848977	-1.2803888396	-1.4509780211	 0.075962
138.9255	215.5583	305.9448	375.8834	433.6335	530.425	561.9735	642.9707	673.8604	739.9572	779.5908	814.4266	832.9181	844.756	869.4948	921.6725	963.1131	969.8339	995.3948	1011.1775	1044.523	1048.4272	1077.4504	1104.2459	1131.0265	1150.042	1193.8796	1210.5138	1242.5294	1248.2874	1272.1961	1292.0614	1300.5259	1333.7665	1349.9008	1368.3145	1439.8668	1485.1326	1662.6782	3050.6719	3055.9593	3059.4603	3067.3753	3085.576	3115.5649	3190.684	3215.4593	3769.9295
OC1C2CC3C=CC1N23	O[C@H]1[C@H]2C[C@H]3C=C[C@@H]1N23	
InChI=1S/C7H9NO/c9-7-5-2-1-4-3-6(7)8(4)5/h1-2,4-7,9H,3H2	InChI=1S/C7H9NO/c9-7-5-2-1-4-3-6(7)8(4)5/h1-2,4-7,9H,3H2/t4-,5+,6-,7-/m1/s1
