21
gdb 41829	2.25474	2.12129	1.84028	0.35	84.99	-0.217	0.0242	0.2412	921.1545	0.188154	-349.977707	-349.971116	-349.970172	-350.008086	28.941	
C	-0.000207028	 1.5012220375	 0.1753682569	-0.214706
C	 1.3842987789	 2.1486640166	-0.0508535738	-0.193444
C	 2.1955370817	 1.4029977069	-1.1337699683	-0.069923
C	 2.5166563364	-0.0105213711	-0.5974715493	-0.221183
C	 1.2299243782	-0.7763431063	-0.3732712984	-0.055522
C	-0.018943884	-0.0119863191	-0.0245995911	-0.042688
C	 0.1578683643	-0.5850403767	-1.4377479359	-0.080438
C	 0.4713060585	 0.3437155041	-2.5483081291	-0.03919
C	 1.4143117567	 1.2833702256	-2.4253514111	-0.100044
H	-0.3513351589	 1.7367028203	 1.1855279418	 0.092549
H	-0.7239634926	 1.9532241571	-0.512867771	 0.104554
H	 1.2547986563	 3.2021615614	-0.3213459942	 0.089837
H	 1.9660513234	 2.1320836578	 0.880206029	 0.088904
H	 3.1316441718	 1.9430914364	-1.3102978183	 0.063758
H	 3.1499077674	-0.5503454963	-1.3120033918	 0.09365
H	 3.0803136106	 0.0752866752	 0.339535668	 0.090921
H	 1.3338671705	-1.7772513554	 0.0348214419	 0.077566
H	-0.7476373126	-0.5404332407	 0.5831499813	 0.078931
H	-0.4604276317	-1.4411914509	-1.685296863	 0.074848
H	-0.0999981461	 0.2447892455	-3.4670989732	 0.081022
H	 1.625682029	 1.973622672	-3.2362977104	 0.080596
188.2664	289.6738	344.6503	392.2167	419.8889	513.8166	537.6897	643.535	668.0232	714.7343	763.6177	777.1384	802.2428	825.3979	863.19	898.1023	912.1819	940.0795	978.2952	990.295	1022.2334	1041.6943	1063.3376	1072.1382	1088.2163	1093.9123	1127.8059	1175.8296	1189.6334	1205.1209	1218.8329	1250.9188	1306.9086	1329.9126	1343.6852	1348.1277	1369.1581	1385.0588	1389.0519	1420.7815	1432.2519	1481.9865	1487.2655	1499.919	1692.5882	3014.3935	3019.6295	3032.0336	3047.5542	3057.1823	3060.7558	3073.7926	3138.806	3146.5342	3153.7531	3165.5025	3180.5507
C1CC2CC3C1C3C=C2	C1C[C@H]2C[C@H]3[C@@H]1[C@H]3C=C2	
InChI=1S/C9H12/c1-3-7-8-4-2-6(1)5-9(7)8/h1,3,6-9H,2,4-5H2	InChI=1S/C9H12/c1-3-7-8-4-2-6(1)5-9(7)8/h1,3,6-9H,2,4-5H2/t6-,7+,8-,9+/m0/s1
