21
gdb 58780	2.54666	1.27189	1.22596	1.829	78.81	-0.2365	0.0722	0.3087	1190.3813	0.180346	-424.192278	-424.182605	-424.181661	-424.22661	36.414	
C	-0.0029595504	 1.4773620377	-0.1727857332	-0.397119
C	 0.0122009968	-0.0235884609	 0.1421478149	 0.013955
O	 0.5857375175	-0.2791500938	 1.4186851223	-0.436615
C	-1.3650811751	-0.6150768172	 0.0799019193	 0.452503
C	-2.1728661799	-1.0232863875	-1.1122941974	-0.398406
C	-1.9307283045	-2.0187625812	 0.014605784	 0.185573
C	-1.2912835056	-3.3637383767	-0.1645175355	-0.491629
C	-2.7785428904	-1.5873928743	 1.2077546289	-0.128021
O	-2.2439275564	-0.2334199953	 1.1588825818	-0.345053
H	 1.0014634784	 1.8905518763	-0.0511773412	 0.12054
H	-0.3412753464	 1.661525119	-1.1974445062	 0.114011
H	-0.6799583007	 2.0017632578	 0.509390793	 0.127184
H	 0.647232846	-0.5438789847	-0.58525378	 0.087741
H	-0.1005763472	-0.0543362326	 2.0598932791	 0.284575
H	-3.151682771	-0.5785005863	-1.2745494433	 0.111527
H	-1.6065051654	-1.2301196416	-2.0161246947	 0.114133
H	-0.5279863365	-3.3352361068	-0.9484730949	 0.12321
H	-0.8072446426	-3.7004075099	 0.7585300058	 0.127739
H	-2.0292318743	-4.1211196026	-0.4553997296	 0.121946
H	-3.8696025608	-1.6027127368	 1.0990255727	 0.104301
H	-2.4926985015	-2.0790380826	 2.1450783342	 0.107905
63.9189	106.3788	159.3735	185.1074	225.8595	258.7756	278.4596	339.2878	366.914	417.4596	433.6075	508.3948	550.4069	606.5044	713.6714	784.3745	865.4956	892.734	919.5169	954.08	972.3115	988.3498	1018.7481	1032.5864	1051.1305	1089.4181	1100.9612	1120.1298	1155.1272	1167.5651	1241.0358	1270.7628	1294.5205	1329.3788	1358.0075	1396.7079	1401.1376	1420.9602	1440.6354	1484.3657	1488.0427	1493.201	1496.4978	1508.5921	1522.2694	3018.5342	3024.983	3037.7454	3039.578	3069.3466	3084.0995	3101.2688	3106.5456	3110.3754	3124.2364	3198.2505	3774.967
CC(O)C12CC1(C)CO2	C[C@@H](O)[C@@]12C[C@]1(C)CO2	
InChI=1S/C7H12O2/c1-5(8)7-3-6(7,2)4-9-7/h5,8H,3-4H2,1-2H3	InChI=1S/C7H12O2/c1-5(8)7-3-6(7,2)4-9-7/h5,8H,3-4H2,1-2H3/t5-,6-,7+/m1/s1
