15
gdb 27434	2.39494	1.66715	0.98352	4.5452	81.78	-0.2326	-0.0858	0.1468	1123.5984	0.114438	-416.841331	-416.833607	-416.832663	-416.873957	29.26	
N	 0.0308731727	 1.3924298419	 0.1369651288	-0.568243
C	-0.0290140618	 0.0133527987	 0.050540868	 0.317357
C	-1.2370606348	-0.6233241361	 0.0296353074	-0.267827
C	-1.565465339	-2.0414369878	 0.0125778185	 0.335908
O	-2.7411729136	-2.3990832916	 0.0183041576	-0.383197
C	-0.5063262098	-3.0627249715	-0.0285933415	-0.139699
C	 0.8407509351	-2.946004836	-0.0383037013	-0.011119
N	 1.6637745532	-1.8428134494	-0.002985757	-0.260491
C	 1.2898971439	-0.6157614448	 0.0398883118	 0.007204
H	 0.8686509615	 1.8430503891	-0.1959987937	 0.26142
H	-0.8150858867	 1.9022206545	-0.06361783	 0.264446
H	-2.1296394256	-0.0004226033	 0.0360049552	 0.101108
H	-0.9132327721	-4.0704563571	-0.0571993865	 0.119669
H	 1.4109665874	-3.8722096266	-0.0753056443	 0.117314
H	 2.1115973396	 0.1076423699	 0.076431037	 0.106151
50.3501	162.8881	255.5698	330.9655	358.3621	367.7985	438.5882	450.4899	504.0313	505.5396	574.2169	639.7939	731.0946	806.5785	849.2682	880.9015	921.3126	962.2049	974.3478	1030.3234	1033.244	1126.9092	1260.9371	1280.1425	1323.2194	1401.5689	1452.1362	1483.0267	1593.1223	1633.2456	1654.6696	1683.1936	1706.1796	3062.1055	3142.3827	3148.0359	3173.9891	3585.8427	3693.8122
NC1=CC(=O)C=CN=C1	Nc1cc(=O)ccnc1	
InChI=1S/C6H6N2O/c7-5-3-6(9)1-2-8-4-5/h1-4H,7H2	InChI=1S/C6H6N2O/c7-5-3-6(9)1-2-8-4-5/h1-4H,7H2
