20
gdb 88561	3.56708	1.23814	1.07298	1.3673	79.88	-0.2183	0.0728	0.2911	1189.7251	0.170426	-403.073829	-403.065376	-403.064432	-403.106966	32.51	
C	 0.1147341726	-1.9447748042	 2.9212461055	-0.323896
N	-0.1067906427	-1.5297898643	 1.5394076226	-0.092297
C	-1.1735893499	-0.5813593901	 1.2633856353	-0.251891
C	 0.2605538162	-0.1931969049	 1.0783979929	-0.137941
C	 0.870076821	 0.8841668431	 1.9020628298	 0.446818
C	 1.3710890601	 2.2433852362	 1.3639899166	-0.29324
C	 2.3927632084	 2.2919558708	 2.5531831401	-0.239429
C	 1.838133085	 0.9427868641	 3.0195535263	-0.05777
O	 0.4275922112	 1.12726519	 3.2443564274	-0.288544
H	-0.0974372438	-1.1681000055	 3.6653315556	 0.133955
H	-0.5250033264	-2.8107213032	 3.1199285291	 0.11915
H	 1.1546915676	-2.269144904	 3.0339142727	 0.115334
H	-1.8048796681	-0.7985422679	 0.4050957445	 0.11198
H	-1.682783459	-0.1270849258	 2.1121385611	 0.122746
H	 0.661556391	-0.1925933391	 0.0650718386	 0.088851
H	 1.8650422482	 2.1658492777	 0.3924240539	 0.108804
H	 0.6120875716	 3.0280791955	 1.3277758884	 0.111083
H	 3.430835767	 2.2393482555	 2.2169452322	 0.108209
H	 2.2811926575	 3.1092177954	 3.2693520836	 0.113368
H	 2.3232340726	 0.1553718506	 3.5844164838	 0.10471
63.7756	150.1928	175.3007	218.2545	269.8447	275.9073	365.053	401.884	495.3619	538.3016	675.5082	735.5897	759.4485	773.4789	869.2626	885.3447	925.0059	933.4582	944.955	983.8742	1031.9567	1036.2781	1062.1033	1094.7554	1116.9123	1124.8119	1140.4428	1158.335	1176.3656	1209.4299	1212.7769	1221.3701	1258.2279	1273.0238	1337.2094	1391.4557	1447.0819	1460.1507	1463.5775	1488.3783	1495.5623	1508.5687	1512.1373	3017.6925	3064.3204	3071.7563	3087.5632	3090.5655	3095.3229	3104.1516	3116.3818	3132.4781	3177.7283	3189.7873
CN1CC1C12CCC1O2	CN1C[C@H]1[C@]12CC[C@H]1O2	
InChI=1S/C7H11NO/c1-8-4-5(8)7-3-2-6(7)9-7/h5-6H,2-4H2,1H3	InChI=1S/C7H11NO/c1-8-4-5(8)7-3-2-6(7)9-7/h5-6H,2-4H2,1H3/t5-,6+,7+,8?/m0/s1
