14
gdb 133056	4.99489	0.99675	0.83526	2.9916	67.01	-0.2592	-0.054	0.2052	1255.9082	0.101156	-478.012436	-478.004761	-478.003817	-478.045427	27.677	
O	-0.0050695818	 1.4262818548	 0.0072933224	-0.415715
C	-0.0043226698	 0.0123641828	 0.0021776011	-0.151978
C	-1.4279930168	-0.4845747499	 0.0128315391	 0.283909
C	-2.5257537273	 0.3732293834	 0.0240055444	-0.054513
N	-3.7827972388	-0.0902645414	 0.0331595505	-0.290922
C	-3.9134964744	-1.393103931	 0.0309516897	 0.310685
F	-5.1480827559	-1.8825497572	 0.0400046646	-0.065592
C	-2.8334038515	-2.2777288122	 0.0199294879	-0.143766
N	-1.5905800252	-1.8146980671	 0.0108778233	-0.279876
H	 0.906313581	 1.7302725997	 0.0006376834	 0.297777
H	 0.5002158625	-0.3961509918	-0.8875073272	 0.116244
H	 0.5156826347	-0.402649179	 0.8798397568	 0.116263
H	-2.3900013148	 1.4476635993	 0.0255733843	 0.14615
H	-2.9901161819	-3.3521581005	 0.0186150397	 0.131333
52.1796	124.1007	203.3104	214.9903	352.7216	381.5056	440.4387	477.9401	548.1419	551.4502	653.7997	756.0426	783.014	896.2284	919.3597	964.86	1042.1101	1045.5898	1100.8596	1200.0451	1240.1396	1241.4711	1270.8482	1304.2945	1331.0402	1384.3584	1454.3399	1503.8359	1520.6361	1600.4502	1622.54	2976.4078	3001.4108	3177.6183	3215.7873	3848.529
OCC1=CN=C(F)C=N1	OCc1cnc(F)cn1	
InChI=1S/C5H5FN2O/c6-5-2-7-4(3-9)1-8-5/h1-2,9H,3H2	InChI=1S/C5H5FN2O/c6-5-2-7-4(3-9)1-8-5/h1-2,9H,3H2
