20
gdb 54266	2.42759	1.53752	1.24789	5.7378	74.05	-0.2476	0.0305	0.2781	1090.984	0.172932	-440.333923	-440.325405	-440.32446	-440.36707	32.665	
C	-0.2952593883	 1.6741240919	-0.0995029469	-0.448803
C	 0.0647318835	 0.1929898848	-0.0127926586	 0.150388
C	 1.0053893435	-0.2824106619	-1.1780039856	-0.247866
C	 2.0896756981	-1.1621080849	-0.5076199033	-0.169523
N	 1.5342995709	-1.4244581861	 0.8321019885	-0.324218
H	-0.1125584556	-2.1024715904	 0.5282138355	 0.3088
H	 2.2282338688	-1.7584253927	 1.4914980458	 0.233676
C	 0.9054887959	-0.1604303062	 1.2378124941	-0.222207
C	-1.2234540723	-0.6604722049	-0.0357533515	 0.40443
O	-2.3015353041	-0.2159782261	-0.334052549	-0.34417
O	-1.0607390114	-1.9558133813	 0.2789976198	-0.390822
H	 0.6118198164	 2.2872804345	-0.1177700694	 0.101056
H	-0.8775064508	 1.8752575197	-1.0007004068	 0.140943
H	-0.9065261487	 1.981920886	 0.7535769243	 0.126879
H	 0.4484628672	-0.8359056422	-1.9370928853	 0.130931
H	 1.4539404598	 0.5816416285	-1.6732987963	 0.112297
H	 2.2713659059	-2.1021398798	-1.0351267526	 0.116813
H	 3.0428481064	-0.6152187767	-0.4537861781	 0.100892
H	 1.6380494795	 0.6402891473	 1.4289914293	 0.096916
H	 0.3033396553	-0.2989460195	 2.1404880961	 0.123589
75.814	113.1615	208.1594	241.6936	276.5835	314.2925	330.6479	370.0254	434.6621	550.7293	612.5354	652.2905	762.2544	766.7866	813.8558	878.3044	884.6032	925.5336	943.9243	953.4939	1006.1843	1023.7385	1048.8368	1095.7017	1147.1065	1164.3239	1190.1226	1208.2272	1228.9364	1260.7326	1285.4542	1313.6326	1322.6209	1394.4827	1413.8697	1427.4968	1484.8032	1486.4803	1492.7917	1498.3018	1511.6071	1530.5063	1849.7757	2972.6528	2988.9655	3041.3935	3071.8745	3084.5996	3086.4356	3109.9138	3117.2753	3135.1662	3264.0057	3541.0931
CC1(CC[NH2+]C1)C([O-])=O	C[C@]1(CCNC1)C(=O)O	
InChI=1S/C6H11NO2/c1-6(5(8)9)2-3-7-4-6/h7H,2-4H2,1H3,(H,8,9)	InChI=1S/C6H11NO2/c1-6(5(8)9)2-3-7-4-6/h7H,2-4H2,1H3,(H,8,9)/t6-/m1/s1
