16
gdb 125104	2.35147	1.87807	1.05094	1.1283	78.01	-0.2066	-0.0324	0.1741	1085.7563	0.126123	-434.100209	-434.092099	-434.091155	-434.134236	30.235	
C	-0.0158072071	 1.5397413638	-0.003035814	-0.505285
C	-0.0180741643	 0.0367900401	-0.0553495796	 0.142521
C	-1.1495522892	-0.707539074	 0.084377995	 0.322579
O	-2.3710495299	-0.2065927767	 0.2809008905	-0.420494
C	-1.1008393277	-2.1669013992	 0.0261318349	 0.32263
N	-2.2211672021	-2.7932031285	 0.1683413438	-0.610501
N	 0.1571973522	-2.6802588213	-0.1761650766	-0.317723
N	 1.3137194949	-1.9847926917	-0.321274321	-0.22774
C	 1.2005973572	-0.6916466617	-0.2594207348	-0.032461
H	 0.6244385329	 1.9053755588	 0.8079636719	 0.135311
H	 0.3703789908	 1.9664384667	-0.93582789	 0.135287
H	-1.0237700515	 1.9245286225	 0.1573190158	 0.151797
H	-2.9439733135	-1.005098832	 0.3368513916	 0.30936
H	-2.144260621	-3.8058843283	 0.1216000435	 0.209962
H	 0.2774359362	-3.6804018116	-0.2288069308	 0.265228
H	 2.1330984721	-0.1473596668	-0.37700787	 0.119531
15.3295	139.5794	189.2028	273.9862	288.7936	337.2655	494.231	514.5363	517.6725	572.7174	590.2446	647.4345	687.4039	706.0903	745.6004	785.3944	878.5343	919.2077	981.417	1042.9374	1061.6445	1096.2725	1154.4281	1274.8944	1315.8162	1374.0995	1406.0066	1412.8622	1439.6494	1483.9355	1490.0385	1496.3208	1600.4347	1678.4766	1717.2598	3031.4079	3080.6103	3143.3267	3174.4371	3458.8586	3519.916	3623.2428
CC1=C(O)C(=N)NN=C1	C[C@@H]1C(=C([NH])NN=C1)O	
InChI=1S/C5H7N3O/c1-3-2-7-8-5(6)4(3)9/h2H,1H3,(H2,6,8)(H,7,9)	InChI=1S/C5H8N3O/c1-3-2-7-8-5(6)4(3)9/h2-3,6,8-9H,1H3/t3-/m0/s1
