15
gdb 28296	5.32216	1.32122	1.06544	3.8064	73.82	-0.213	0.0059	0.219	1078.2259	0.114818	-416.850145	-416.843142	-416.842198	-416.881553	26.935	
C	 0.0068983283	 1.4693423475	 0.0707353237	-0.483834
C	 0.0250327215	-0.0202647024	-0.0304628148	 0.275686
C	-0.1052318673	-0.7854503199	-1.1699549531	-0.244199
N	-0.0206064627	-2.0981871136	-0.7239736842	-0.03033
C	-0.0363963304	-3.446943019	-1.0676486524	-0.134858
C	 0.126424211	-4.1204991557	 0.0901783405	-0.052319
O	 0.2453229038	-3.2529321583	 1.1584607362	-0.217253
C	 0.1512144068	-2.0129692131	 0.6282044676	 0.488983
N	 0.1876535503	-0.8057064607	 1.1087822174	-0.440388
H	 0.9423044649	 1.8447339033	 0.4994669957	 0.135727
H	-0.128794243	 1.9278056525	-0.9124971649	 0.116761
H	-0.8046118721	 1.8082517299	 0.7236274662	 0.13573
H	-0.2432857952	-0.5282254222	-2.2053688327	 0.131277
H	-0.1579370299	-3.8091879288	-2.0732243177	 0.160273
H	 0.1780810138	-5.1692564394	 0.3213006525	 0.158745
118.6976	144.9983	281.176	281.5883	337.8807	526.8423	571.2281	577.4215	649.8794	664.8643	702.2318	751.8374	770.7544	778.7865	846.3949	937.6176	981.3487	1017.0944	1061.1494	1062.2703	1142.1996	1180.4985	1205.2372	1278.2299	1317.1468	1404.899	1425.3852	1460.9265	1473.2652	1487.8399	1573.0906	1601.0788	1647.693	3034.8622	3089.7928	3117.3659	3287.5661	3291.6739	3316.3865
CC1=CN2C=COC2=N1	Cc1cn2ccoc2n1	
InChI=1S/C6H6N2O/c1-5-4-8-2-3-9-6(8)7-5/h2-4H,1H3	InChI=1S/C6H6N2O/c1-5-4-8-2-3-9-6(8)7-5/h2-4H,1H3
