16
gdb 82719	2.42258	2.10382	1.65043	4.0381	67.68	-0.2318	-0.007	0.2247	865.9531	0.125654	-437.846911	-437.839933	-437.838988	-437.878236	27.363	
O	 0.007531437	 1.4312968968	 0.0355904865	-0.418118
C	-0.0080406737	 0.0367894475	-0.0564508261	 0.138297
C	-1.414501951	-0.6000334025	 0.0033876577	-0.090849
C	-2.4086515613	 0.0626621072	-0.9739311665	-0.194343
N	-1.732635393	-0.6286846337	-2.1430286787	-0.177583
C	-0.9735795751	-1.5141689901	-1.1825157815	 0.011479
C	 0.3134771427	-0.6718873385	-1.4363220141	-0.279749
C	-0.5073307887	 0.0617387274	-2.4866011976	 0.423231
O	-0.3148508664	 0.9424761743	-3.2690057853	-0.320386
H	 0.8840088651	 1.7575044265	-0.1947729635	 0.296317
H	 0.6269485895	-0.4383850646	 0.7048377307	 0.088275
H	-1.7670462863	-0.9312818634	 0.9790970045	 0.081515
H	-3.4309715732	-0.3067158641	-0.8621319783	 0.119252
H	-2.4102564556	 1.1528001145	-1.0410107222	 0.143114
H	-1.069111768	-2.5931767584	-1.2665659334	 0.089994
H	 1.3338788081	-1.0088967189	-1.6140376923	 0.089552
119.836	170.1688	225.9407	281.4239	400.5168	470.8824	557.6095	577.9101	645.2738	772.571	779.3166	827.2187	850.8311	891.3903	896.4098	946.7393	957.4219	1004.725	1011.2802	1041.4513	1072.4581	1111.3649	1157.1961	1166.5171	1180.7802	1200.7287	1211.9859	1223.7609	1232.5483	1302.2131	1315.4183	1339.3084	1411.1165	1499.7296	1897.9762	2998.9265	3064.2119	3120.2145	3121.529	3127.1019	3156.2296	3815.3343
OC1C2CN3C2C1C3=O	O[C@H]1[C@H]2CN3[C@H]2[C@H]1C3=O	
InChI=1S/C6H7NO2/c8-5-2-1-7-4(2)3(5)6(7)9/h2-5,8H,1H2	InChI=1S/C6H7NO2/c8-5-2-1-7-4(2)3(5)6(7)9/h2-5,8H,1H2/t2-,3+,4+,5-/m0/s1
