23
gdb 91655	2.4529	1.65553	1.32871	0.0923	89.29	-0.2634	0.0979	0.3613	1102.0986	0.207984	-351.134504	-351.126499	-351.125554	-351.166381	33.407	
C	-0.2050934373	 1.5097637031	-0.0199568003	-0.420849
C	 0.0377534105	 0.0026463348	 0.0324751927	 0.058762
C	 0.9955153829	-0.5538592456	-1.0829162007	-0.230881
C	 2.0208597847	-1.2926842788	-0.1974971593	-0.099035
C	 1.1003696288	-1.9910664504	 0.8503883845	-0.229954
C	 0.8057696356	-0.519544269	 1.2747038877	-0.112866
C	 2.2800896055	-0.2569176833	 0.9110401429	 0.463542
C	 3.4491735459	-0.2284339245	 1.8396885327	-0.365956
C	 3.1407627208	 0.9634298322	 0.9445040233	-0.368948
H	 0.7332175301	 2.0709369083	 0.0083398989	 0.122606
H	-0.7283914471	 1.7868058874	-0.941858492	 0.110067
H	-0.8224964243	 1.8418163117	 0.8225024666	 0.106124
H	-0.9336896146	-0.5033278837	-0.022130563	 0.063216
H	 0.4868293043	-1.2216030652	-1.7846616472	 0.089425
H	 1.4592619047	 0.2527327494	-1.6601164212	 0.092429
H	 2.8382761417	-1.8183653296	-0.6935771879	 0.054716
H	 0.2624687859	-2.5880651429	 0.4770286945	 0.081681
H	 1.6638466312	-2.5453707762	 1.6027372175	 0.09749
H	 0.4001288605	-0.2693923105	 2.2568059634	 0.052426
H	 3.2685997767	-0.1180556911	 2.9047915849	 0.108705
H	 4.3205886015	-0.8301593138	 1.5994166671	 0.108224
H	 3.8038026957	 1.15320779	 0.1054805569	 0.10865
H	 2.7621129363	 1.8628702677	 1.4194165581	 0.110426
155.3491	182.193	226.7604	249.6635	293.432	321.7713	407.7177	457.1976	539.6973	603.8401	656.1058	775.4863	796.9846	825.7187	834.7465	865.9413	906.6726	922.855	932.0804	950.3858	962.0602	983.2905	1014.1962	1035.0086	1040.095	1052.1266	1055.48	1077.8589	1103.1822	1123.1017	1161.5305	1182.7734	1188.3971	1211.3384	1232.2883	1241.826	1258.938	1267.0509	1313.3805	1318.0778	1380.7282	1405.1711	1410.3546	1463.6359	1490.6584	1497.8633	1502.4188	1505.4654	1516.0009	3022.0128	3029.9999	3045.1686	3050.9239	3086.9871	3089.8504	3096.6203	3102.1598	3112.8443	3115.7816	3120.2847	3124.722	3191.6302	3206.4518
CC1CC2CC1C21CC1	C[C@H]1C[C@@H]2C[C@H]1C12CC1	
InChI=1S/C9H14/c1-6-4-7-5-8(6)9(7)2-3-9/h6-8H,2-5H2,1H3	InChI=1S/C9H14/c1-6-4-7-5-8(6)9(7)2-3-9/h6-8H,2-5H2,1H3/t6-,7+,8+/m0/s1
