19
gdb 80754	3.3701	1.06285	1.03411	3.7045	75.69	-0.2422	-0.0161	0.2261	1226.7435	0.159638	-423.029545	-423.021132	-423.020188	-423.062991	31.764	
O	 0.3049319921	 1.2956721118	-0.0159670922	-0.413415
C	 0.0255136228	-0.0743272981	 0.0448619275	 0.093735
C	-0.5104415914	-0.6477461809	 1.3227639251	-0.080664
C	-1.1136589965	 0.3006977909	 2.3495016621	-0.245436
C	-2.1364983677	 1.1839522852	 1.5818888951	-0.050935
C	-2.5342765263	 0.3488079956	 0.3312953427	-0.254049
C	-1.3858740391	-0.617057388	 0.0769220922	-0.102532
C	-3.3420217963	 1.5078069097	 2.4312659371	 0.149355
O	-3.7306588944	 2.6124514714	 2.7082673771	-0.251848
H	 0.1416357476	 1.5948082922	-0.9165882646	 0.290104
H	 0.7522381273	-0.6982653949	-0.4763817535	 0.088351
H	-0.0705217401	-1.569700468	 1.6874189936	 0.088546
H	-1.6224597287	-0.2958341974	 3.1183305125	 0.100299
H	-0.368259112	 0.917489407	 2.8591006836	 0.123424
H	-1.6680577964	 2.1183918899	 1.2778838327	 0.106004
H	-3.4429147904	-0.2341586307	 0.5325218031	 0.103709
H	-2.7595161652	 0.9993292323	-0.5202014084	 0.107408
H	-1.597248343	-1.515932006	-0.4931219487	 0.085144
H	-3.8810233722	 0.600568828	 2.8037379432	 0.062798
71.1627	90.3444	170.0875	216.0598	301.5887	317.0631	353.2671	412.7367	466.8519	558.4713	694.3008	699.1547	769.4034	788.2693	857.5513	892.7979	908.54	949.4923	986.7621	1038.1098	1048.8315	1057.5523	1078.2785	1105.7007	1120.4724	1126.3879	1192.5843	1219.5193	1238.7098	1274.9966	1292.1637	1308.5199	1320.3912	1343.4431	1349.271	1379.508	1426.3572	1458.6631	1484.4697	1498.0428	1834.9936	2818.2577	3018.7572	3022.3471	3068.3037	3087.3516	3092.2451	3133.6132	3156.5294	3168.1888	3806.4031
OC1C2CC(CC12)C=O	O[C@H]1[C@H]2C[C@@H](C[C@@H]12)C=O	
InChI=1S/C7H10O2/c8-3-4-1-5-6(2-4)7(5)9/h3-7,9H,1-2H2	InChI=1S/C7H10O2/c8-3-4-1-5-6(2-4)7(5)9/h3-7,9H,1-2H2/t4-,5-,6+,7-
