20
gdb 120172	3.43046	0.91952	0.83043	1.4524	76.12	-0.2424	0.0687	0.311	1431.6241	0.170554	-440.196336	-440.187213	-440.186268	-440.230863	34.144	
O	 0.0127013256	 1.385118927	-0.1615320785	-0.422284
C	-0.0297868727	-0.0116888394	 0.0918956764	-0.066637
C	-1.4228828255	-0.507116116	-0.2862138616	-0.246647
C	-1.5467350475	-2.0116942753	-0.1369700197	 0.041473
N	-1.382363134	-2.6422641587	 1.2761486212	-0.154137
C	-2.8344424886	-2.2099691609	 1.5339871488	-0.247632
C	-2.8801704846	-2.7515141693	 0.0821425322	 0.330851
O	-3.9138878793	-2.7770738764	-0.8375287932	-0.466092
C	-1.995997466	-3.8974570134	 0.6413018106	-0.232088
H	 0.8700310646	 1.7144152798	 0.122984735	 0.285265
H	 0.7294696541	-0.5483229679	-0.5007450605	 0.083107
H	 0.1650496646	-0.2382354791	 1.1502384537	 0.106772
H	-2.1606730699	 0.0431295922	 0.3033871741	 0.110231
H	-1.6135620834	-0.250321628	-1.3351276413	 0.118157
H	-0.8702029597	-2.5060766791	-0.843984507	 0.07333
H	-3.3211168057	-2.8007258606	 2.3150609951	 0.095735
H	-2.9649085737	-1.1436614809	 1.7145652273	 0.109288
H	-4.6472267973	-3.2815755889	-0.4684422429	 0.282649
H	-1.3234523212	-4.4155398899	-0.0471195799	 0.103257
H	-2.4323315898	-4.5801315253	 1.3754315002	 0.095405
55.0301	85.6375	112.4509	236.6504	247.9952	265.2132	326.0296	349.566	414.0604	469.905	606.0858	620.7219	644.8756	737.755	796.7499	820.7115	886.8499	908.9519	965.3717	979.3517	1009.4989	1054.7255	1066.2271	1083.8388	1098.2798	1120.0758	1161.8063	1173.3795	1182.6619	1189.7385	1222.8407	1240.5186	1258.2714	1294.1048	1310.6354	1331.9138	1358.2761	1446.7274	1460.2763	1488.2585	1514.5554	1528.9824	1555.4971	2966.1072	3011.2727	3033.848	3048.1103	3052.2997	3067.2067	3099.1	3122.4815	3145.2639	3806.063	3831.8011
OCCC1N2CC1(O)C2	OCC[C@H]1N2C[C@]1(O)C2	
InChI=1S/C6H11NO2/c8-2-1-5-6(9)3-7(5)4-6/h5,8-9H,1-4H2	InChI=1S/C6H11NO2/c8-2-1-5-6(9)3-7(5)4-6/h5,8-9H,1-4H2/t5-/m1/s1
