12
gdb 53771	4.51108	0.74344	0.64075	3.8742	76.54	-0.2764	-0.1353	0.1411	1604.3343	0.07416	-435.490063	-435.480778	-435.479834	-435.525903	30.399	
C	 0.4312794438	 1.3695853244	 0.0926441719	-0.490035
C	 0.250403971	-0.1233398435	 0.0990303352	 0.319818
O	 0.0570407853	-0.8027382848	 1.0764047929	-0.259569
C	 0.325024587	-0.8116979854	-1.2834978274	 0.050366
O	 0.5155629098	-0.1910597794	-2.3038921482	-0.246734
C	 0.1501875161	-2.2528760805	-1.2693376118	 0.098286
C	 0.0117097406	-3.453473346	-1.3222108344	 0.138378
C	-0.1477345684	-4.807623536	-1.3689689428	 0.220287
N	-0.283212249	-5.960431179	-1.4102631354	-0.313076
H	 1.4028126968	 1.6271592487	-0.3417635583	 0.164811
H	-0.3234414394	 1.8362083903	-0.5487116719	 0.164783
H	 0.3561225765	 1.7514516311	 1.1105609603	 0.152685
37.7448	63.1686	89.663	118.2191	194.9996	262.5359	287.1136	354.1748	411.42	447.2945	558.6826	591.8571	600.6887	639.0741	727.6079	878.2976	993.661	1036.8693	1149.2416	1276.8911	1386.947	1451.0605	1458.0263	1759.5885	1816.1805	2252.1316	2384.2836	3048.9646	3109.8911	3166.1404
CC(=O)C(=O)C#CC#N	CC(=O)C(=O)C#CC#N	
InChI=1S/C6H3NO2/c1-5(8)6(9)3-2-4-7/h1H3	InChI=1S/C6H3NO2/c1-5(8)6(9)3-2-4-7/h1H3
