13
gdb 131594	4.69276	0.99144	0.82268	1.9217	61.25	-0.2795	-0.0857	0.1938	1271.9198	0.087739	-489.839811	-489.831754	-489.83081	-489.873472	27.657	
O	 0.0055592216	 1.397962074	 0.009289359	-0.396051
C	-0.0147793328	-0.0021102618	 0.0030230244	-0.18031
C	-1.4575969532	-0.4766357679	 0.0127818938	 0.303728
O	-2.4135173425	 0.2593967125	 0.0239935317	-0.276208
C	-1.6653926787	-1.9536827691	 0.007824209	 0.24411
N	-0.6970672875	-2.8347339048	-0.0041494064	-0.145417
O	-1.2981821039	-4.0503667448	-0.004666065	-0.140768
N	-2.6683776534	-3.9336083883	 0.0072062936	-0.057564
C	-2.9064383029	-2.6544279204	 0.0148391778	-0.089747
H	 0.9239627689	 1.6826973243	 0.0026816244	 0.298955
H	 0.471358554	-0.4426585933	-0.8839118964	 0.130795
H	 0.4859588368	-0.4507528723	 0.8776926209	 0.130795
H	-3.9088018865	-2.2581895882	 0.0248792831	 0.177684
67.7271	85.1033	142.9322	196.7238	230.1545	284.6619	361.9475	493.4267	546.2913	653.8375	716.9999	760.9713	861.8949	923.8992	949.6125	967.0882	1014.8599	1026.0895	1071.1264	1145.8419	1198.9046	1244.839	1250.3575	1421.2446	1455.0602	1463.8128	1491.5102	1589.8904	1811.6029	2967.351	2989.6368	3287.6914	3839.7621
OCC(=O)C1=NON=C1	OCC(=O)c1nonc1	
InChI=1S/C4H4N2O3/c7-2-4(8)3-1-5-9-6-3/h1,7H,2H2	InChI=1S/C4H4N2O3/c7-2-4(8)3-1-5-9-6-3/h1,7H,2H2
