21
gdb 70787	2.83853	1.64924	1.40243	1.6202	81.77	-0.2331	0.0872	0.3203	1039.3711	0.183089	-387.06393	-387.056039	-387.055095	-387.095574	32.487	
C	-0.0559960636	 1.5081490717	 0.0531779069	-0.506825
C	-0.0210961817	 0.0007959201	-0.0097353355	 0.29135
C	 0.3616219763	-0.7785763186	-1.3010307123	-0.337768
C	-0.4450653442	-1.9355002908	-0.6855068989	 0.324474
C	-0.9395872333	-3.1508714512	-1.4243018738	-0.513672
C	-0.0118951394	-2.0857368706	 0.8365816002	 0.025697
C	 0.7865250515	-0.7899078716	 1.047736262	-0.250189
O	-1.3446319148	-1.6707323365	 1.2706959935	-0.300291
C	-1.3435265534	-0.9164235382	 0.0540745183	 0.030982
H	 0.9464362603	 1.9358487514	-0.0666846574	 0.116499
H	-0.6894343218	 1.9272952888	-0.7364986769	 0.111785
H	-0.4492571216	 1.8521758861	 1.0163570124	 0.121059
H	-0.1463566429	-0.3911242911	-2.1910509569	 0.092404
H	 1.426499584	-0.9121553454	-1.5187607235	 0.088976
H	-0.1130963893	-3.8219790601	-1.6861653664	 0.116287
H	-1.647813742	-3.7140392324	-0.8074034797	 0.130526
H	-1.4464662021	-2.8721890893	-2.354579623	 0.114906
H	 0.3200535457	-3.0261814241	 1.2766965446	 0.074185
H	 1.8496945971	-0.8574896474	 0.7991541692	 0.092118
H	 0.6684554778	-0.4272221846	 2.071757236	 0.10231
H	-2.3087327628	-0.5246525364	-0.2684461189	 0.075188
203.5844	206.8066	221.5467	240.417	258.7202	332.1433	420.5047	474.6752	531.4879	578.1582	623.9599	686.2421	741.0545	800.1375	852.7545	863.2524	896.5876	914.6339	934.9542	949.055	985.343	1012.7867	1022.2719	1047.2284	1076.2509	1100.6262	1140.5213	1171.0894	1191.9896	1200.6212	1221.5216	1224.7002	1240.6909	1256.5112	1312.8639	1347.5512	1367.4171	1410.0227	1414.9408	1478.8192	1492.628	1493.1043	1493.7325	1494.7101	1506.1337	3021.1399	3023.9951	3034.5278	3056.7883	3083.3468	3085.1205	3087.2729	3091.0957	3098.9613	3113.0671	3115.6418	3121.1379
CC12CC3(C)C(C1)OC23	C[C@@]12C[C@@]3(C)[C@@H](C1)O[C@@H]23	
InChI=1S/C8H12O/c1-7-3-5-8(2,4-7)6(7)9-5/h5-6H,3-4H2,1-2H3	InChI=1S/C8H12O/c1-7-3-5-8(2,4-7)6(7)9-5/h5-6H,3-4H2,1-2H3/t5-,6+,7+,8+/m1/s1
