25
gdb 87135	2.55858	1.18082	1.12714	0.1675	92.43	-0.2472	0.086	0.3332	1310.891	0.227332	-352.34117	-352.330799	-352.329855	-352.375936	40.248	
C	-0.0614147641	 1.3083763735	-0.387419155	-0.414735
C	 0.2866982111	-0.1358430147	-0.0977072592	-0.013565
C	 1.7099794203	-0.5861940688	 0.1315271561	-0.35668
C	 0.706915826	-0.6588005292	 1.2643931603	 0.278084
C	 0.9050812262	 0.3164585527	 2.4164930428	-0.466776
C	 0.1300654046	-1.9931344589	 1.7021586935	 0.317837
C	-1.2933905851	-1.9092891764	 2.2335793445	-0.462132
C	 0.4934443144	-3.2741353014	 0.9881770313	-0.32027
C	 1.0519509825	-2.993214423	 2.3627109342	-0.301977
H	 0.5825538018	 2.0049556586	 0.1561926011	 0.114125
H	 0.0532139762	 1.5259397361	-1.4554625061	 0.115466
H	-1.0986669286	 1.5344828408	-0.1145918954	 0.114404
H	-0.3148434427	-0.8460804278	-0.6614152394	 0.080805
H	 2.0584843283	-1.4886174864	-0.3572029688	 0.105571
H	 2.4714756253	 0.1846298983	 0.209499421	 0.100795
H	 1.3989871414	 1.2361149579	 2.093739679	 0.110869
H	-0.0443188314	 0.600947311	 2.8825146412	 0.115052
H	 1.531172778	-0.1377859484	 3.1925147384	 0.11666
H	-1.9718745707	-1.5067997537	 1.4726002093	 0.114467
H	-1.663037104	-2.8983181113	 2.5218022753	 0.108472
H	-1.3626576796	-1.2647976091	 3.1161135566	 0.115446
H	-0.2830541291	-4.0265956374	 0.896248572	 0.104551
H	 1.1779970244	-3.2529007425	 0.1487056895	 0.109589
H	 2.1050429735	-2.739616298	 2.4264278495	 0.109201
H	 0.6798765513	-3.5696716418	 3.2034579582	 0.104743
50.3012	142.1393	167.967	177.5863	222.3704	246.229	272.4781	295.4046	302.5001	354.5098	408.2777	452.327	479.9565	518.8567	601.5666	775.7898	788.5625	798.4778	870.749	884.8543	901.9633	923.9298	944.3833	957.0917	979.8388	1015.6023	1040.2137	1058.9975	1068.5189	1082.8419	1103.96	1120.9022	1130.9534	1137.9494	1187.6515	1192.3086	1213.7276	1294.4961	1316.1003	1355.5392	1404.6674	1414.0435	1420.79	1426.3489	1464.3115	1483.668	1491.681	1493.5883	1495.6716	1500.3489	1509.1224	1510.1559	1514.9489	3027.0852	3027.7222	3033.7315	3082.4802	3087.9695	3092.6131	3099.9332	3103.3741	3114.8515	3124.9626	3126.2015	3129.4242	3135.5129	3204.4204	3208.5646	3221.0521
CC1CC1(C)C1(C)CC1	C[C@H]1C[C@]1(C)C1(C)CC1	
InChI=1S/C9H16/c1-7-6-9(7,3)8(2)4-5-8/h7H,4-6H2,1-3H3	InChI=1S/C9H16/c1-7-6-9(7,3)8(2)4-5-8/h7H,4-6H2,1-3H3/t7-,9-/m0/s1
