18
gdb 52923	4.46728	0.92837	0.9013	1.8071	88.8	-0.2225	0.0314	0.2539	1387.3655	0.147965	-364.724572	-364.716339	-364.715395	-364.759138	30.496	
C	 0.041807217	 1.474590687	-0.0702500864	-0.518941
C	 0.0231953019	 0.0220103552	-0.0072168442	 0.40964
C	 0.0169927201	-1.1832290184	 0.0421633154	-0.510418
C	-0.0343746039	-2.5919908334	 0.1045507131	 0.378844
C	 0.6763868466	-3.6360314692	 0.9014524698	-0.093924
C	-0.6231664132	-4.3719510844	 1.2158360753	-0.246468
C	-1.1912102948	-3.6763510967	-0.0484757245	-0.142158
C	-0.3137349988	-4.2587655379	-1.1635413882	-0.153055
N	 0.8868390026	-3.5690426514	-0.5842308544	-0.186588
H	 0.7627812751	 1.8285281922	-0.8156878717	 0.153526
H	-0.9415083734	 1.8701784451	-0.3483779304	 0.150245
H	 0.316607436	 1.9159856557	 0.8944117311	 0.149319
H	 1.5643025115	-3.5228448253	 1.5093125551	 0.108511
H	-0.6228270285	-5.46721311	 1.2317536987	 0.096845
H	-1.0710342377	-3.9852976972	 2.134422028	 0.112251
H	-2.2565316525	-3.4896200297	-0.1640694915	 0.081843
H	-0.2309135296	-5.3496121873	-1.2385274986	 0.09627
H	-0.5107628284	-3.8298273041	-2.1486687764	 0.114259
17.6641	93.3584	100.5293	259.1627	301.7532	394.4409	433.6805	489.9763	505.9162	543.6345	716.6746	744.5295	831.2371	842.2188	887.8364	927.9113	959.5529	971.8341	995.0818	1005.3668	1045.9079	1052.8551	1055.2348	1082.2907	1124.5748	1130.4738	1160.7415	1193.3445	1231.8957	1254.5843	1285.2826	1311.9142	1407.8139	1434.0533	1474.7158	1477.5063	1491.8522	1514.2225	2359.119	3024.2268	3031.8895	3044.0782	3084.2752	3086.6016	3107.1423	3109.7784	3142.3879	3207.9589
CC#CC12C3CC1CN23	CC#C[C@@]12[C@H]3C[C@@H]1CN23	
InChI=1S/C8H9N/c1-2-3-8-6-4-7(8)9(8)5-6/h6-7H,4-5H2,1H3	InChI=1S/C8H9N/c1-2-3-8-6-4-7(8)9(8)5-6/h6-7H,4-5H2,1H3/t6-,7-,8+,9?/m1/s1
