18
gdb 84964	2.23351	1.69557	1.0993	4.6585	74.27	-0.2531	-0.0648	0.1884	1124.6563	0.146975	-439.12517	-439.116378	-439.115434	-439.15873	32.677	
C	 0.4073892194	 1.413659986	-0.4018051087	-0.395544
C	-0.0607028341	 0.0648722488	 0.1284676051	 0.075553
O	 0.0378632264	-0.9229592684	-0.9420949719	-0.247213
C	 1.1581576427	-1.6815645399	-0.8148690676	 0.320063
N	 1.6016769432	-2.5151488792	-1.6524466194	-0.507693
C	 1.7845191645	-1.3887865881	 0.5374621046	 0.315219
O	 2.854969848	-1.7666160064	 0.9265147029	-0.285631
C	 0.7737424937	-0.526332382	 1.2843670913	-0.113501
C	 1.3916392968	 0.4206257588	 2.3070855981	-0.414946
H	 1.4725719409	 1.3952187025	-0.6556721481	 0.132603
H	-0.1539649468	 1.6683020523	-1.3042966057	 0.136705
H	 0.2434805354	 2.2004293718	 0.3400481274	 0.129342
H	-1.1227881155	 0.1136937927	 0.3809909998	 0.100741
H	 1.0071233257	-2.5446642136	-2.4842934881	 0.230424
H	 0.1293163318	-1.2492320062	 1.807910779	 0.123826
H	 2.0323184761	 1.1670293331	 1.8306062347	 0.132019
H	 0.6234733812	 0.9430757295	 2.884377051	 0.120566
H	 2.0147294606	-0.1530375315	 2.9977541856	 0.147467
68.3821	108.0752	190.0459	229.9687	245.316	277.2767	329.791	378.6505	408.5307	477.0774	570.1148	585.4432	657.4958	705.6242	795.1609	834.6602	901.484	912.8125	992.2925	997.1057	1029.4567	1059.5468	1080.5517	1116.7817	1178.6969	1184.6265	1261.3808	1291.0885	1343.4797	1372.2784	1387.6496	1411.9324	1416.0486	1485.6023	1489.174	1499.3038	1504.2643	1757.6394	1862.5245	2997.5821	3041.6128	3049.573	3076.1583	3116.8148	3120.9682	3126.2196	3129.306	3459.201
CC1OC(=N)C(=O)C1C	C[C@H]1O[C]([NH])C(=O)[C@H]1C	
InChI=1S/C6H9NO2/c1-3-4(2)9-6(7)5(3)8/h3-4,7H,1-2H3	InChI=1S/C6H9NO2/c1-3-4(2)9-6(7)5(3)8/h3-4,7H,1-2H3/t3-,4+/m0/s1
