24
gdb 61406	2.74223	0.96243	0.86823	3.8259	87.01	-0.2387	0.0285	0.2672	1486.2836	0.214748	-405.585171	-405.573907	-405.572963	-405.621851	41.008	
C	 0.1047053635	 1.4915881136	-0.0321490816	-0.350637
N	-0.0111281345	 0.0404407699	-0.0732250557	-0.035493
C	-0.0800540935	-0.7189254596	 1.16866115	-0.193977
C	-1.4921369317	-1.0276958377	 1.7378225737	 0.259336
C	-2.2820014953	-1.906255796	 0.7532184414	-0.410216
C	-1.2812411922	-1.7949732944	 3.0563908974	-0.400637
C	-2.2826830874	 0.2610469173	 2.0216622948	-0.408319
C	 0.1589317895	-0.5978043053	-1.2695353911	 0.151656
O	 0.288207037	-0.0596367156	-2.3493718693	-0.345284
H	 0.9145566204	 1.7896233795	 0.6448137882	 0.121367
H	 0.3315135623	 1.8311529441	-1.0430033049	 0.167158
H	-0.8190562401	 1.9691226117	 0.3059861824	 0.127486
H	 0.4333264435	-1.6746867276	 1.0074805389	 0.111349
H	 0.4991134002	-0.175749147	 1.926145131	 0.102515
H	-1.7664548729	-2.8539901202	 0.5610950301	 0.108439
H	-3.2718013388	-2.1438105556	 1.1570232615	 0.113906
H	-2.4280610821	-1.4001848609	-0.2058361145	 0.126535
H	-0.7348037944	-1.1891302369	 3.7881000916	 0.111204
H	-2.2427603154	-2.0679623808	 3.502853038	 0.115283
H	-0.7145785478	-2.71915791	 2.8963562602	 0.111881
H	-2.5261346141	 0.7931611375	 1.0978839268	 0.12404
H	-3.2281791327	 0.0252759872	 2.5217330795	 0.113538
H	-1.7241862819	 0.941683547	 2.6740008254	 0.107614
H	 0.1670231582	-1.6982579903	-1.146248264	 0.071257
37.9185	76.0259	86.2227	157.1689	232.9676	251.945	268.3211	279.5726	298.8899	303.0384	346.3476	362.5694	386.6048	394.3464	436.5413	490.8299	718.8329	744.3362	870.1475	904.0971	913.9266	942.1547	945.5803	959.28	1035.1304	1048.4758	1062.7589	1089.9612	1155.3608	1196.0473	1232.9354	1268.5558	1275.1246	1312.2873	1385.8407	1397.8081	1400.2656	1427.1386	1433.5888	1440.1281	1443.3467	1476.8888	1481.5374	1484.6012	1487.8558	1497.9864	1507.2405	1509.5104	1520.8331	1522.9202	1793.271	2941.4108	3015.0295	3023.6896	3025.808	3027.8777	3034.0483	3061.1868	3088.2481	3089.8096	3093.2888	3094.0445	3101.0626	3106.3608	3111.5293	3154.8844
CN(CC(C)(C)C)C=O	CN(CC(C)(C)C)C=O	
InChI=1S/C7H15NO/c1-7(2,3)5-8(4)6-9/h6H,5H2,1-4H3	InChI=1S/C7H15NO/c1-7(2,3)5-8(4)6-9/h6H,5H2,1-4H3
