23
gdb 120952	4.27387	0.89783	0.87081	0.9358	86.34	-0.2497	0.0891	0.3388	1463.3377	0.207708	-388.270829	-388.262219	-388.261275	-388.304497	33.285	
C	 0.0634004009	 1.3451028845	 0.0149158397	-0.223918
O	 0.004148313	-0.0583049588	 0.0665881428	-0.23267
C	-1.312195823	-0.5602552338	-0.0505646458	-0.08531
C	-1.2541863464	-2.0770156705	 0.0320440607	 0.028886
C	-0.7735842853	-2.6467858553	 1.4108421704	-0.218927
C	-1.965025792	-3.571586309	 1.7313695149	-0.008027
C	-2.2318865137	-4.2446797969	 0.3534012966	-0.225531
C	-2.6222589653	-2.7926356274	-0.052162658	-0.033371
C	-3.1818760374	-2.6622669667	 1.3974740181	-0.223391
H	 1.1125880816	 1.6344898725	 0.1156881577	 0.124595
H	-0.3222407237	 1.7375297785	-0.9401011228	 0.10063
H	-0.5129804806	 1.8112040522	 0.8305645422	 0.100476
H	-1.9483486741	-0.1417201491	 0.747922254	 0.081216
H	-1.7549348432	-0.2461310239	-1.0125940697	 0.079316
H	-0.5990480133	-2.4186911004	-0.776768887	 0.074058
H	 0.1713574075	-3.1908026815	 1.3312037378	 0.095615
H	-0.6401745649	-1.85838866	 2.1577123801	 0.098479
H	-1.916217896	-4.1495170201	 2.655037843	 0.055071
H	-1.3900559602	-4.7146464292	-0.1651007898	 0.085679
H	-3.0898994512	-4.9207936801	 0.3719123289	 0.092283
H	-3.2387627968	-2.5873714692	-0.9290214977	 0.054276
H	-4.1374334043	-3.1785706253	 1.516925075	 0.093578
H	-3.2343988915	-1.6726961505	 1.8601634889	 0.086986
76.1905	95.2493	128.8987	212.0637	240.9957	333.7864	350.621	425.054	514.0381	532.7524	648.7785	828.1801	830.9329	843.2636	853.1387	866.7485	917.3953	945.7111	970.3799	982.738	994.006	1032.2036	1047.1465	1058.2072	1081.5789	1096.8526	1128.0891	1146.3872	1166.2315	1177.7411	1196.9672	1218.1441	1231.7156	1242.3074	1248.2312	1262.5115	1279.5981	1293.8675	1315.1602	1325.7449	1378.1152	1427.7537	1480.2285	1485.3825	1487.194	1495.641	1503.6003	1521.8779	1529.5367	2942.2335	2965.4738	2973.3057	3006.1391	3043.5037	3046.6306	3053.3533	3056.8128	3097.5308	3098.5491	3105.8358	3109.5921	3109.7966	3115.7014
COCC1CC2CC1C2	COC[C@H]1C[C@@H]2C[C@H]1C2	
InChI=1S/C8H14O/c1-9-5-8-4-6-2-7(8)3-6/h6-8H,2-5H2,1H3	InChI=1S/C8H14O/c1-9-5-8-4-6-2-7(8)3-6/h6-8H,2-5H2,1H3/t6-,7+,8-/m1/s1
