19
gdb 60900	2.65799	1.20097	1.04973	1.928	75.88	-0.2469	-0.0296	0.2173	1226.6207	0.156841	-422.999197	-422.990061	-422.989116	-423.034175	33.129	
C	 0.0266380359	 1.4566606655	-0.2036007575	-0.4211
C	 0.0316664938	-0.0606857915	 0.0695443279	-0.1824
C	 0.8571536569	-0.3607532861	 1.3104649725	 0.157581
O	 1.8307556084	-1.0667971974	 1.3325044237	-0.243035
C	-1.3730622295	-0.5830263165	 0.2289791601	 0.428644
C	-2.4111560372	-0.3053075794	 1.3387994217	-0.301101
C	-3.0454844118	-1.7075165241	 1.0262422415	-0.235424
C	-1.9852639512	-1.8922507215	-0.065669017	-0.051133
O	-2.12653165	-0.787628522	-0.973931671	-0.297834
H	 1.0397360001	 1.8235005291	-0.390570894	 0.130725
H	-0.5888718721	 1.6731837812	-1.080369826	 0.147471
H	-0.3851669229	 2.0115307312	 0.646333109	 0.125295
H	 0.4965883097	-0.5929268602	-0.7656114174	 0.108215
H	 0.4992353333	 0.1491342123	 2.2362279693	 0.074561
H	-1.9849310085	-0.2568117814	 2.3437386973	 0.109409
H	-3.0404497079	 0.5706219247	 1.16689154	 0.113311
H	-2.9369509034	-2.4089896274	 1.8565093402	 0.111307
H	-4.0786572651	-1.7139103962	 0.6724417152	 0.115735
H	-1.5555635183	-2.8040037703	-0.4651235956	 0.109776
44.7344	48.68	151.302	185.421	215.8567	261.555	285.9165	413.3059	445.7074	452.3469	505.8673	688.0071	740.5856	775.2267	880.7934	897.2754	920.3985	925.8629	941.4134	955.1717	1006.3039	1028.1014	1052.8665	1099.7576	1147.5319	1155.3915	1200.7994	1212.3768	1218.8282	1261.0034	1271.3815	1287.0923	1327.51	1399.9483	1428.8896	1444.2019	1464.2138	1490.2853	1496.5982	1501.0222	1836.7613	2849.3923	3039.588	3065.746	3073.6236	3075.3738	3111.095	3117.8354	3126.3012	3134.085	3185.7592
CC(C=O)C12CCC1O2	C[C@@H](C=O)[C@]12CC[C@H]1O2	
InChI=1S/C7H10O2/c1-5(4-8)7-3-2-6(7)9-7/h4-6H,2-3H2,1H3	InChI=1S/C7H10O2/c1-5(4-8)7-3-2-6(7)9-7/h4-6H,2-3H2,1H3/t5-,6+,7+/m0/s1
