19
gdb 60085	2.39911	1.19622	1.00295	4.1803	77.33	-0.2271	0.0053	0.2324	1283.4672	0.157145	-419.175787	-419.166016	-419.165072	-419.21098	34.92	
C	-0.2310918519	 1.5527107482	 0.262062834	-0.328455
N	-0.0420610518	 0.1245419486	 0.0357312601	-0.049801
C	 0.7866510878	-0.4791429488	 1.0676521225	-0.319228
C	-1.2878649991	-0.5912155759	-0.1570240695	-0.22789
C	-1.939634165	-0.275010736	-1.4923792961	 0.23391
C	-3.4010945484	-0.3983346365	-1.6696654981	-0.209836
O	-2.7880292405	 0.8803005017	-1.5504299548	-0.243391
C	-1.0952700156	-0.4594822636	-2.66310491	 0.2818
N	-0.4384355438	-0.6341022462	-3.5973283154	-0.33149
H	 0.7455815422	 2.0431482901	 0.3032878614	 0.123924
H	-0.8022280936	 1.9976210019	-0.5545066816	 0.148679
H	-0.7645710128	 1.7674209476	 1.2074555367	 0.093081
H	 0.3330011048	-0.4334876238	 2.0760985104	 0.094125
H	 0.9795829636	-1.5289135623	 0.8266649488	 0.122943
H	 1.7486636183	 0.0399542751	 1.1104109694	 0.126695
H	-1.0738191136	-1.6659687765	-0.1372782704	 0.120761
H	-2.0382246509	-0.3893482852	 0.6320663891	 0.092058
H	-3.7994642167	-0.6404255366	-2.6522180824	 0.142054
H	-4.001661213	-0.7146767219	-0.8183695341	 0.130059
41.1906	83.488	138.691	194.4793	236.7226	240.9046	254.9137	324.9425	347.4999	356.6784	409.726	470.4125	578.8458	591.4438	730.219	825.3959	854.5478	921.0748	970.1503	1007.1166	1071.1871	1072.8569	1122.1411	1132.7065	1162.6336	1176.6672	1211.8926	1255.0643	1303.0885	1315.1352	1370.1654	1410.291	1448.3211	1463.7658	1481.5473	1488.2928	1499.8764	1500.3636	1513.9176	1519.6124	2362.8284	2916.4811	2925.899	2936.0105	3061.0536	3065.8389	3080.8237	3093.8074	3110.4512	3137.0128	3190.6049
CN(C)CC1(CO1)C#N	CN(C)C[C@]1(CO1)C#N	
InChI=1S/C6H10N2O/c1-8(2)4-6(3-7)5-9-6/h4-5H2,1-2H3	InChI=1S/C6H10N2O/c1-8(2)4-6(3-7)5-9-6/h4-5H2,1-2H3/t6-/m0/s1
