14
gdb 25208	2.69892	1.77911	1.07227	2.3352	77.23	-0.2513	-0.0776	0.1737	1032.3737	0.103047	-432.875739	-432.868391	-432.867447	-432.908897	26.908	
N	 0.0479460866	 1.0165370538	-0.896940448	-0.476804
C	 0.0053448622	 0.0187804761	-0.1251397011	 0.341276
O	 1.1893998464	-0.404133219	 0.4489115778	-0.236859
C	 1.473256335	-1.4252014157	 1.3061393397	 0.141765
N	 0.7682900768	-2.3155458006	 1.8575299441	-0.283813
C	-0.5969212979	-2.493847894	 1.7159804279	-0.023468
C	-1.4988778039	-1.805385439	 0.9922469857	-0.080799
C	-1.3303862572	-0.650963965	 0.1244346954	 0.190437
N	-2.3720431658	-0.1837063054	-0.4546512942	-0.460043
H	 0.99703914	 1.3788571061	-0.9854628721	 0.241745
H	 2.5427620243	-1.3884256396	 1.4974225806	 0.146116
H	-0.9632131265	-3.3347908461	 2.298109033	 0.12394
H	-2.5317830131	-2.1347093152	 1.037317432	 0.125439
H	-2.103309827	 0.6213562337	-1.0288010608	 0.251068
34.0607	66.3755	286.4289	330.9772	399.1829	422.9364	441.0618	512.9352	586.9006	648.3967	761.7469	789.2457	869.3858	871.7637	899.5199	949.3828	969.8851	972.8005	985.079	1022.0966	1131.2397	1168.864	1280.7894	1295.9828	1401.2412	1445.6176	1462.849	1638.0262	1664.0209	1713.8792	1733.7536	3166.1292	3177.2471	3195.7388	3433.8627	3502.8308
N=C1OC=NC=CC1=N	[NH]C1=C(C=CN=CO1)[NH]	
InChI=1S/C5H5N3O/c6-4-1-2-8-3-9-5(4)7/h1-3,6-7H	InChI=1S/C5H5N3O/c6-4-1-2-8-3-9-5(4)7/h1-3,6-7H
