16
gdb 44497	4.59522	1.48208	1.29505	4.615	70.09	-0.2436	0.0479	0.2915	962.3211	0.127029	-437.855613	-437.849353	-437.848409	-437.886339	25.667	
N	-0.0659549516	 1.2229616731	 0.5005080666	-0.55569
C	-0.0063055043	 0.068137345	 0.0012305514	 0.465573
O	 1.1566855941	-0.5761629025	-0.2997771165	-0.285304
C	 1.0638512865	-1.8764510451	-0.8587894287	 0.150466
C	 0.0068302878	-2.0978211552	-1.9746844328	-0.135127
C	 0.031544926	-3.5970863385	-1.5804748385	-0.245486
C	 0.0416625412	-2.8550186998	-0.219210824	-0.135127
C	-1.0238898228	-1.902090658	-0.8284207942	 0.157958
O	-1.1451957371	-0.6081986167	-0.2679045754	-0.25738
H	 0.8755738121	 1.5842322956	 0.6376372685	 0.22721
H	 2.0856535492	-2.217834316	-1.0263140428	 0.098262
H	-0.0127832678	-1.6563374326	-2.9699204068	 0.095274
H	-0.8673692125	-4.17262551	-1.8108880797	 0.111614
H	 0.9378932106	-4.1496202435	-1.8367865353	 0.110603
H	 0.0617183732	-3.2759195021	 0.7848945097	 0.095274
H	-2.0390242145	-2.2732752237	-0.9683866712	 0.101881
90.84	290.044	370.0457	440.4038	451.009	502.8094	632.3484	719.287	767.8874	784.2033	811.1231	823.5303	875.697	881.3699	907.4956	909.5882	992.4724	1011.5254	1025.0524	1057.3626	1089.7514	1094.4958	1114.2915	1132.6803	1175.0203	1197.6052	1206.739	1247.1581	1257.3478	1264.8394	1270.7684	1410.6747	1423.1749	1514.1768	1778.3044	3067.3806	3116.529	3121.4145	3131.7091	3132.6843	3139.075	3529.5076
N=C1OC2C3CC2C3O1	[NH][C]1O[C@@H]2[C@H]3C[C@@H]2[C@H]3O1	
InChI=1S/C6H7NO2/c7-6-8-4-2-1-3(4)5(2)9-6/h2-5,7H,1H2	InChI=1S/C6H7NO2/c7-6-8-4-2-1-3(4)5(2)9-6/h2-5,7H,1H2/t2-,3+,4-,5+
