17
gdb 44887	3.10055	1.54514	1.36426	4.4514	72.32	-0.2577	0.0137	0.2714	986.9653	0.137496	-421.823029	-421.816125	-421.815181	-421.854236	27.915	
O	-0.0131481237	 0.0651387379	 0.0050796331	-0.35268
C	 0.0541981805	 1.2560872142	 0.004809835	 0.466587
O	-1.0374277484	 2.0966613676	 0.0198794238	-0.248013
C	-0.400849795	 3.4147812222	 0.0313762876	 0.006549
C	 0.6849319415	 3.2588176823	-1.0581270249	-0.238735
C	 1.2330652399	 2.2266997594	-0.0070828692	-0.285619
C	 0.7115130331	 3.2235850016	 1.0632097398	 0.432914
C	 1.4718149401	 4.2551150596	 1.8260910439	-0.363516
C	 0.6852102115	 3.1710890165	 2.5501372679	-0.35711
H	-1.1634849292	 4.1896080002	 0.0588352604	 0.098469
H	 0.3615588832	 2.8801537972	-2.0298919327	 0.119303
H	 1.3291741801	 4.1327041323	-1.1587675663	 0.120158
H	 2.2315820787	 1.7988289783	-0.0222632919	 0.099536
H	 2.5552145239	 4.1932720932	 1.8400007886	 0.123448
H	 1.0839516891	 5.2687035557	 1.8536293351	 0.121938
H	-0.2300531797	 3.4567307611	 3.0578428664	 0.127242
H	 1.2444096145	 2.3849481608	 3.0465803834	 0.129528
127.0163	214.5405	234.7885	296.6075	439.1956	466.3215	547.9342	600.0505	663.444	761.9774	774.4567	802.2161	850.7942	865.9907	902.5288	921.9592	938.195	959.5111	1008.3207	1023.3389	1028.7429	1055.6078	1083.9105	1096.0703	1117.9744	1141.9578	1181.4827	1203.2152	1209.3189	1233.975	1267.5169	1314.1717	1409.4649	1463.6364	1489.396	1513.6521	1912.3699	3078.7224	3124.866	3132.9536	3150.4562	3154.2687	3165.6014	3204.664	3220.4827
O=C1OC2CC1C21CC1	O=C1O[C@@H]2C[C@H]1C12CC1	
InChI=1S/C7H8O2/c8-6-4-3-5(9-6)7(4)1-2-7/h4-5H,1-3H2	InChI=1S/C7H8O2/c8-6-4-3-5(9-6)7(4)1-2-7/h4-5H,1-3H2/t4-,5-/m1/s1
