19
gdb 39019	2.9966	1.70625	1.25887	1.5438	81.21	-0.2325	0.0219	0.2544	1026.3644	0.161618	-385.873063	-385.865979	-385.865035	-385.904352	28.912	
C	 0.0845419636	 1.6090402549	 0.2589732214	-0.240396
C	 1.579474164	 1.5172870073	-0.2081615922	-0.317514
C	 1.4805189715	 0.0336409584	 0.0794158634	 0.348956
C	 2.2339448301	-0.914507073	 0.6167533113	-0.238339
C	 1.5948704323	-2.177452518	 1.1487671691	-0.291523
C	 0.1386906641	-1.984079222	 1.5551726043	 0.057789
O	-0.1594433539	-0.8463963975	 2.3702931279	-0.256025
C	-0.676404457	-0.8702045361	 1.0355074917	 0.020379
C	-0.0293510429	 0.0623517149	 0.0454752051	-0.086379
H	 0.0158972621	 1.8605911189	 1.3192639157	 0.123848
H	-0.5856173172	 2.249531971	-0.3183179627	 0.096895
H	 1.6788252168	 1.7443895834	-1.2758829752	 0.107433
H	 2.3263414524	 2.0936251055	 0.3432989326	 0.110786
H	 3.3028791202	-0.7811977814	 0.7594005595	 0.085783
H	 1.6375521951	-2.9988205054	 0.417824601	 0.112005
H	 2.1542747408	-2.5340737991	 2.0234096206	 0.11512
H	-0.3733725729	-2.8957604884	 1.8661623497	 0.087099
H	-1.7591955502	-0.9908287419	 0.9811589583	 0.083619
H	-0.4290129489	-0.1538465716	-0.9546590116	 0.080462
127.6448	186.474	262.7539	327.2747	371.9829	421.8681	488.8562	622.1296	659.9124	726.6969	753.8453	776.0723	819.8829	858.2244	875.5918	912.4317	930.6507	938.6024	981.3472	1029.0135	1050.0087	1073.8535	1078.6588	1102.7581	1132.3947	1141.9875	1193.9921	1229.392	1237.5869	1245.7064	1262.2238	1288.0935	1308.0932	1352.1993	1366.0741	1384.6214	1460.6459	1473.4276	1475.0703	1488.9718	1776.8582	2998.9468	3012.9871	3037.8799	3038.4536	3069.4925	3092.6889	3098.394	3105.7035	3133.2308	3160.6552
C1CC2=CCC3OC3C12	C1C[C]2[CH]C[C@H]3O[C@H]3[C@@H]12	
InChI=1S/C8H10O/c1-3-6-5(1)2-4-7-8(6)9-7/h2,6-8H,1,3-4H2	InChI=1S/C8H10O/c1-3-6-5(1)2-4-7-8(6)9-7/h2,6-8H,1,3-4H2/t6-,7+,8-/m0/s1
