12
gdb 133430	3.22215	1.45394	1.00187	3.3874	61.43	-0.2477	-0.0675	0.1802	1045.8176	0.078696	-510.117552	-510.11032	-510.109376	-510.149601	26.874	
F	-0.0129827787	 0.1080557369	-0.397819932	-0.03334
C	-0.0318208295	 1.3866071931	-0.0858946482	 0.220458
N	-1.1568745702	 1.962931676	 0.05601517	-0.203364
N	-1.1474054255	 3.2785874568	 0.3770531433	-0.329623
C	-0.0269139825	 4.0780379008	 0.5714657982	 0.494384
N	 0.0090290056	 5.3134587928	 0.8723442646	-0.554343
N	 1.160637321	 3.3710081946	 0.3984002284	-0.393046
C	 1.2961452919	 2.0353316671	 0.0709530057	 0.352471
O	 2.3588025426	 1.4786277145	-0.0669968097	-0.34127
H	-2.0617845435	 3.6860096407	 0.4776903577	 0.282164
H	-0.9193907186	 5.7164770849	 0.9709357754	 0.220075
H	 2.0090381273	 3.9067165716	 0.5275525965	 0.285432
82.6001	143.4449	313.5136	318.7007	378.5662	396.175	477.5048	487.5434	539.5901	625.5369	671.1849	712.6015	716.8845	756.376	784.4401	817.6095	986.1687	1096.7004	1184.8849	1293.3939	1347.8625	1402.0689	1453.3706	1480.2679	1704.2349	1751.6944	1821.8214	3526.8878	3607.4113	3664.6242
FC1=NNC(=N)NC1=O	FC1=NN[C]([NH])NC1=O	
InChI=1S/C3H3FN4O/c4-1-2(9)6-3(5)8-7-1/h(H3,5,6,8,9)	InChI=1S/C3H3FN4O/c4-1-2(9)6-3(5)8-7-1/h(H3,5,6,8,9)
