23
gdb 104854	2.00758	1.3103	1.15656	2.0836	81.51	-0.2514	0.0736	0.325	1254.1929	0.204331	-425.408663	-425.398277	-425.397332	-425.443394	39.09	
C	 1.0412519525	-0.6943338462	-0.8430345809	-0.407968
C	 0.02662858	-0.12691406	 0.1563775619	-0.218052
C	-1.465752354	-0.4297392505	-0.0792986993	 0.311718
C	-2.304801294	 0.3300953672	 0.9445630739	-0.141388
O	-2.1361990242	 1.7247085942	 0.7260190334	-0.424848
C	-1.9526297632	-0.2785376623	-1.5569176271	-0.253554
C	-1.9194236485	-1.8235069467	-1.7177755517	-0.27164
C	-1.8357037194	-1.942603757	-0.1734100637	 0.08881
O	-0.8976349272	-2.8219919685	 0.4099529386	-0.428106
H	 2.0482861286	-0.3519765118	-0.5827227605	 0.105249
H	 1.0441683398	-1.7862233505	-0.8293720551	 0.130413
H	 0.8444531458	-0.3599341341	-1.8671135177	 0.108702
H	 0.2835030583	-0.4927420076	 1.1582870663	 0.098672
H	 0.1216929697	 0.9635439235	 0.1900675956	 0.112567
H	-3.3640130501	 0.0465435777	 0.831722811	 0.07413
H	-1.9921598134	 0.0437307564	 1.9626761441	 0.087415
H	-2.6328731262	 2.1981803962	 1.3992056726	 0.28711
H	-2.9624070969	 0.1356042344	-1.6136725374	 0.097971
H	-1.3125546832	 0.2987686297	-2.2262127387	 0.105428
H	-2.7707744907	-2.3010004064	-2.2102811257	 0.087463
H	-0.9970123461	-2.1713348701	-2.1885195678	 0.109357
H	-2.8352838797	-2.1151616998	 0.255549171	 0.057585
H	-1.204461448	-3.7236478777	 0.2719008971	 0.282965
95.0033	130.052	136.6894	199.1168	210.3591	230.6286	244.3201	263.4554	286.8019	329.7538	362.0708	427.178	475.2683	560.3417	622.661	711.4853	782.9598	794.6367	883.255	919.7379	945.8445	969.8935	987.8136	1026.9029	1058.0708	1070.6775	1107.5154	1125.4045	1166.7635	1182.1122	1200.2616	1214.4225	1231.8897	1251.017	1251.9326	1273.9811	1323.3525	1330.4098	1335.8658	1380.4332	1407.7191	1428.5382	1453.697	1478.1252	1487.5766	1495.3485	1507.9933	1518.5927	1519.8117	2951.6867	2968.6965	2985.7753	3030.7588	3038.3039	3058.6393	3069.5266	3075.7379	3094.8195	3110.0845	3125.6514	3131.3358	3817.5455	3834.4236
CCC1(CO)CCC1O	CC[C@@]1(CO)CC[C@H]1O	
InChI=1S/C7H14O2/c1-2-7(5-8)4-3-6(7)9/h6,8-9H,2-5H2,1H3	InChI=1S/C7H14O2/c1-2-7(5-8)4-3-6(7)9/h6,8-9H,2-5H2,1H3/t6-,7+/m1/s1
