15
gdb 12605	3.2582	2.27081	1.36112	2.3061	66.05	-0.2372	0.0052	0.2424	864.8333	0.120519	-396.018404	-396.010832	-396.009888	-396.05086	26.934	
C	-0.0483524386	 1.4455708756	 0.0091271186	-0.333251
N	-0.0050342576	-0.0034066175	-0.0003146008	-0.112204
C	-1.1231663766	-0.8043671865	 0.0028940854	 0.336383
N	-2.3120637881	-0.3548751323	 0.0132489771	-0.544242
C	-0.5755974301	-2.2217698999	-0.0081094816	-0.194232
O	 0.8461135276	-2.0709395691	-0.0154171035	-0.250405
C	 1.1690281573	-0.7417446638	-0.0103924232	 0.481586
N	 2.3324118822	-0.2526433651	-0.0142387044	-0.587426
H	 0.979482718	 1.8060141211	 0.0008352621	 0.171216
H	-0.5878778738	 1.8101502114	-0.8692636977	 0.145691
H	-0.5695673639	 1.799675144	 0.9027946545	 0.145499
H	-2.989573028	-1.1158129382	 0.013728665	 0.221518
H	-0.8813815962	-2.7822778147	 0.8817374662	 0.143837
H	-0.8915860253	-2.7723239718	-0.9006161841	 0.14384
H	 3.0324367931	-0.9902748533	-0.0219120836	 0.232189
55.6848	124.4298	175.8082	186.1011	283.1393	366.7155	555.4834	560.3349	620.6602	695.5673	716.2614	755.2751	789.3697	826.4011	966.2672	1011.934	1035.6573	1066.637	1093.1434	1163.2883	1206.9656	1208.5647	1246.6881	1335.9281	1380.8256	1433.1849	1486.2205	1492.8309	1502.9628	1515.3437	1742.2303	1799.0032	3043.3321	3052.478	3085.5938	3113.8789	3172.2524	3497.2215	3538.0577
CN1C(=N)COC1=N	CN1[C]([NH])CO[C]1[NH]	
InChI=1S/C4H7N3O/c1-7-3(5)2-8-4(7)6/h5-6H,2H2,1H3	InChI=1S/C4H7N3O/c1-7-3(5)2-8-4(7)6/h5-6H,2H2,1H3
