13
gdb 123277	9.53099	0.66678	0.62318	2.4423	94.91	-0.2214	-0.0316	0.1898	1653.3791	0.090255	-378.4424	-378.434646	-378.433702	-378.475128	28.595	
C	 0.0726382351	-3.7825174664	-0.0190294467	-0.618345
C	 0.0438913673	-2.5741501845	-0.0119914698	 0.265303
C	 0.0113591981	-1.2170993401	-0.0040789946	-0.103738
C	-0.0222412141	-0.0037641189	 0.0030570762	 0.37808
C	-0.0389140411	 1.4016130534	 0.0110314598	 0.017952
C	-1.1459227531	 2.2430000529	 0.0300994082	-0.17075
N	-0.6641062953	 3.5021232304	 0.0307773504	-0.177544
N	 0.6842400206	 3.5638824822	 0.013552904	-0.197532
C	 1.0697538485	 2.2979537406	 0.0015422917	-0.142111
H	 0.098429572	-4.8436797251	-0.0252260373	 0.188701
H	-2.2012023258	 2.0243225219	 0.0426459287	 0.149915
H	-1.1892955642	 4.360366981	 0.042337262	 0.283693
H	 2.1187171821	 2.0442687526	-0.0135181025	 0.126375
75.4992	85.7365	225.8529	230.4453	432.5433	448.1782	478.3899	499.0311	520.0244	542.7595	588.2667	601.5308	659.4746	692.225	795.0922	888.6739	929.6789	947.5362	1034.8115	1087.738	1169.7195	1240.6815	1331.9323	1367.7334	1422.0213	1496.5678	1592.8169	2179.3472	2341.3044	3259.5763	3274.0636	3505.6359	3672.6826
C#CC#CC1=CNN=C1	C#CC#Cc1c[nH]nc1	
InChI=1S/C7H4N2/c1-2-3-4-7-5-8-9-6-7/h1,5-6H,(H,8,9)	InChI=1S/C7H4N2/c1-2-3-4-7-5-8-9-6-7/h1,5-6H,(H,8,9)
