17
gdb 133724	2.55065	1.32152	1.0696	2.5006	61.91	-0.2289	0.0778	0.3067	1141.7603	0.132197	-549.496837	-549.488155	-549.487211	-549.530783	31.483	
C	-0.0032495087	 1.5281884788	 0.0559474531	-0.332174
N	-0.0110882339	 0.0840399986	 0.1362288368	-0.063944
C	-1.2684343299	-0.62614208	 0.4399204379	-0.16145
C	-0.4552762952	-1.6392969583	 1.284105845	-0.266812
C	 0.6670025122	-0.5745814907	 1.2561692865	-0.10169
C	 2.0835724999	-1.0231758623	 0.9498823349	 0.284769
F	 2.1402847248	-1.870668742	-0.082063742	-0.07276
F	 2.8640511623	 0.0313494658	 0.6518171175	-0.085651
F	 2.6252044486	-1.6408189143	 2.0141184625	-0.081892
H	 1.0252522356	 1.8794249827	-0.0634267309	 0.135328
H	-0.5769687224	 1.8515727093	-0.8184931312	 0.125379
H	-0.436298292	 2.0143782304	 0.9506148434	 0.091861
H	-1.9602450351	-0.0324838397	 1.0593502725	 0.089738
H	-1.8087057111	-0.9990653281	-0.4358209509	 0.110288
H	-0.8502413648	-1.9086233363	 2.2624169379	 0.116814
H	-0.1852320669	-2.5379524797	 0.7292134938	 0.130958
H	 0.7094606365	 0.0276751058	 2.1784326332	 0.081236
59.4959	116.6815	146.4503	215.8782	231.9787	281.2015	327.7641	364.07	434.5552	522.8621	568.4186	644.1301	694.6205	790.2655	823.7812	936.4514	957.3752	998.3377	1016.3023	1084.958	1136.3424	1163.5332	1180.4343	1187.1231	1201.8367	1230.3042	1249.3898	1263.3499	1293.2925	1307.0073	1339.6115	1413.4321	1450.0274	1487.2704	1490.5326	1499.39	1527.6589	2929.1885	2969.4393	2977.8228	3067.1905	3069.2002	3100.4929	3117.2721	3160.8856
CN1CCC1C(F)(F)F	CN1CC[C@H]1C(F)(F)F	
InChI=1S/C5H8F3N/c1-9-3-2-4(9)5(6,7)8/h4H,2-3H2,1H3	InChI=1S/C5H8F3N/c1-9-3-2-4(9)5(6,7)8/h4H,2-3H2,1H3/t4-/m0/s1
