17
gdb 122805	6.81608	0.52387	0.49095	4.0933	67.73	-0.2659	-0.0843	0.1816	2100.6751	0.132524	-496.118928	-496.108639	-496.107695	-496.156232	33.873	
O	-0.2426570638	 1.4488175524	 0.0127874841	-0.417598
C	-0.0413919393	 0.0462611198	 0.0030438708	-0.073141
C	-1.4180050083	-0.6092597811	 0.0121110304	-0.193611
C	-1.3266396519	-2.1245816271	 0.0024564685	-0.074395
O	-2.6731528833	-2.6459680179	 0.012030593	-0.235507
C	-2.7829811603	-3.9830477589	 0.0060602057	 0.346686
O	-1.8739827911	-4.7665700968	-0.0064202065	-0.328204
C	-4.2727991373	-4.3602684343	 0.0176583955	 0.085158
O	-4.6377025756	-5.5008602621	 0.0149070507	-0.200483
H	 0.6178944564	 1.8778955561	 0.0078972476	 0.289871
H	 0.5194046581	-0.2728584442	-0.8908725614	 0.091997
H	 0.5358410545	-0.2828359631	 0.8827595365	 0.092005
H	-1.9651003426	-0.2765014989	 0.9003608684	 0.123062
H	-1.9815494303	-0.2662557579	-0.8618438802	 0.123075
H	-0.813155828	-2.5048797591	-0.8871101283	 0.13058
H	-0.7966111712	-2.5151607579	 0.8777440865	 0.130598
H	-4.9655958263	-3.494963849	 0.0286295387	 0.109908
33.9874	66.5007	85.2359	99.2355	119.3572	205.6911	216.9781	263.5684	269.973	337.3659	456.8212	513.4619	602.2447	764.7301	773.7609	881.2639	927.9672	991.4796	1019.0455	1033.5131	1077.0694	1101.1363	1172.8313	1226.585	1232.2101	1245.5742	1300.8993	1309.6672	1320.5607	1397.1191	1425.6294	1469.2014	1497.9762	1513.7832	1532.1002	1834.6025	1849.1344	2938.1232	2960.4994	2985.7589	3044.0166	3054.7131	3080.7456	3106.9445	3832.3415
OCCCOC(=O)C=O	OCCCOC(=O)C=O	
InChI=1S/C5H8O4/c6-2-1-3-9-5(8)4-7/h4,6H,1-3H2	InChI=1S/C5H8O4/c6-2-1-3-9-5(8)4-7/h4,6H,1-3H2
