25
gdb 122978	3.73627	0.55074	0.49738	1.2517	87.96	-0.2472	0.0846	0.3318	2304.0502	0.225498	-426.61296	-426.600931	-426.599987	-426.651702	41.307	
C	-0.0080219925	 1.4275381773	-0.0416395862	-0.225634
O	 0.0155282509	 0.0232995497	 0.0053325499	-0.229829
C	-1.2739843884	-0.5500946879	-0.0296213324	-0.051699
C	-1.1371372163	-2.0649576064	 0.0230977755	-0.200332
C	-2.491282536	-2.7790611815	 0.0059714421	-0.192769
C	-2.3729261014	-4.3044880894	 0.020531836	 0.14027
C	-3.7414249675	-4.9839486596	 0.1255892392	-0.402819
O	-1.6936972654	-4.6744456951	-1.1749496612	-0.243078
C	-1.1064103434	-5.9530248647	-1.1531505643	-0.23367
H	 1.0274945796	 1.7758490577	-0.0084961512	 0.123913
H	-0.4777803912	 1.8002705989	-0.9665061095	 0.100469
H	-0.5542538123	 1.8584591562	 0.8134419538	 0.099281
H	-1.8766013895	-0.1851498506	 0.8219002874	 0.077166
H	-1.8047556309	-0.2434608323	-0.9486823682	 0.081889
H	-0.5366971375	-2.400559567	-0.8271623641	 0.122691
H	-0.5820499906	-2.332105619	 0.9310704583	 0.097577
H	-3.0925106352	-2.4702562647	 0.8705493549	 0.091041
H	-3.0566241789	-2.4914679884	-0.89036612	 0.102317
H	-1.7560351325	-4.6041032406	 0.8863857263	 0.06031
H	-3.6521483049	-6.0740433614	 0.1286429184	 0.114829
H	-4.2457521265	-4.691077181	 1.0519996183	 0.113443
H	-4.3737217204	-4.6951663957	-0.7201351093	 0.121924
H	-0.4066306018	-6.0652989224	-0.3098129793	 0.102917
H	-1.8485709051	-6.7626498939	-1.0918329629	 0.103964
H	-0.5500966926	-6.0677195083	-2.0871606615	 0.125829
50.8002	60.4678	67.0064	104.8469	122.0495	141.8615	190.2874	214.5666	235.4779	251.5552	279.922	313.5296	392.0095	445.5119	522.381	533.0455	753.5857	816.6219	870.7141	920.9038	986.5523	998.4931	1031.6661	1065.6799	1116.8158	1119.9103	1149.9054	1164.4298	1175.3869	1181.6471	1188.1341	1217.397	1226.2529	1247.8123	1279.1706	1305.2998	1318.897	1353.2929	1384.1085	1401.8791	1405.1948	1428.2421	1473.7475	1478.7102	1481.5467	1483.2544	1485.0805	1494.0977	1500.4301	1502.7513	1508.2675	1513.3573	1533.2541	2934.9247	2944.8289	2959.8478	2964.3466	2974.5705	3003.807	3018.4554	3020.9784	3036.0178	3038.6898	3057.7671	3101.5126	3107.353	3109.2811	3109.3535	3112.7541
COCCCC(C)OC	COCCC[C@@H](C)OC	
InChI=1S/C7H16O2/c1-7(9-3)5-4-6-8-2/h7H,4-6H2,1-3H3	InChI=1S/C7H16O2/c1-7(9-3)5-4-6-8-2/h7H,4-6H2,1-3H3/t7-/m1/s1
