18
gdb 38490	3.35026	1.72151	1.60694	1.7451	73.19	-0.2134	0.0522	0.2656	902.6004	0.149367	-401.855323	-401.848695	-401.84775	-401.885837	28.041	
C	 0.0108846899	 1.4892102944	-0.0121923851	-0.254749
C	 1.2754683205	 0.709114652	 0.0044718474	-0.019438
C	 1.986602757	 0.4356338098	 1.3531210749	-0.338127
C	 0.9975302292	-0.4201952985	 2.1239451298	 0.367675
C	-0.3470174626	 0.0359208017	 2.5992850698	-0.377369
C	-0.2053408805	-0.6355378255	 1.2447789705	 0.170187
C	 0.1064602354	-2.1217453591	 1.4225771824	-0.133567
O	 1.2005464338	-1.8264127933	 2.3483458685	-0.322843
N	-0.0565690586	 0.0240889419	-0.0356210317	-0.145021
H	-0.2834460479	 2.027064628	 0.8845861734	 0.115307
H	-0.3192303347	 1.9672905465	-0.9310532052	 0.120626
H	 1.8746011243	 0.6561592639	-0.9003383022	 0.096979
H	 2.898783536	-0.1427890956	 1.1867824858	 0.131549
H	 2.268409632	 1.3604992732	 1.865814744	 0.116441
H	-0.8270480233	-0.514838936	 3.4030187511	 0.123688
H	-0.5341358241	 1.1022729511	 2.616010327	 0.125957
H	-0.6560093097	-2.762376215	 1.880272874	 0.10601
H	 0.4821319135	-2.5808377693	 0.5022553754	 0.116696
205.7971	221.2695	315.2573	371.6438	436.6988	452.3128	536.9755	635.6076	668.3529	736.1742	771.1014	795.8964	821.2943	846.8915	882.0282	910.0311	933.7438	947.3142	973.7593	1013.1682	1024.2917	1063.0587	1082.8468	1120.7293	1127.5519	1143.5746	1159.0146	1197.6911	1221.6678	1244.4319	1285.7015	1300.6687	1327.4617	1364.1126	1376.5686	1466.4978	1474.2518	1509.6879	1517.4733	3028.0477	3059.0685	3086.4748	3107.136	3109.3835	3130.0909	3147.389	3185.0567	3229.0796
C1C2CC34CC3(CO4)N12	C1[C@H]2C[C@@]34C[C@@]3(CO4)N12	
InChI=1S/C7H9NO/c1-5-2-8(5)6-3-7(1,6)9-4-6/h5H,1-4H2	InChI=1S/C7H9NO/c1-5-2-8(5)6-3-7(1,6)9-4-6/h5H,1-4H2/t5-,6+,7-,8?/m1/s1
