18
gdb 117443	4.43088	0.61281	0.57565	1.9107	76.29	-0.2494	0.0221	0.2716	1898.4264	0.144765	-439.073299	-439.062629	-439.061685	-439.111528	36.456	
O	-0.2152003066	 1.3971908448	-0.2028998801	-0.425401
C	-0.1803082501	-0.0026479004	-0.4391044365	-0.066403
C	-1.2722936948	-0.6285504803	 0.4193745625	-0.308945
C	-1.2721634317	-2.1478749917	 0.315360307	 0.427135
O	-0.2734736576	-2.7900586606	 0.036657483	-0.378539
N	-2.4736616567	-2.7391997971	 0.5869615888	-0.324047
C	-2.6526113318	-4.1826276345	 0.5188915709	-0.289601
C	-3.8132770503	-4.5605374223	-0.2815237374	 0.283542
C	-4.7865380729	-4.85975509	-0.9192135983	-0.442928
H	 0.5003280416	 1.8003996438	-0.7026433632	 0.287809
H	-0.3604180999	-0.2373064587	-1.4993560988	 0.095432
H	 0.7857938361	-0.4456080927	-0.1672200733	 0.11585
H	-1.0960815869	-0.3520487465	 1.4665329723	 0.139622
H	-2.2482639457	-0.2129111492	 0.1454566642	 0.112747
H	-3.2843439087	-2.166858265	 0.7561301115	 0.252612
H	-1.7277757459	-4.5795344608	 0.0880951262	 0.178041
H	-2.7461498898	-4.6110580416	 1.5264284586	 0.13897
H	-5.6358239982	-5.1351777372	-1.4942824674	 0.204102
20.5688	36.9483	61.0556	112.0149	142.1135	228.5784	263.0735	286.0079	327.4005	337.2419	411.5129	440.5129	557.7063	618.9689	625.173	669.0424	725.3106	810.9689	917.6619	953.9335	1017.6178	1043.9309	1064.064	1081.962	1103.794	1200.5985	1220.0725	1252.8249	1262.1513	1304.5573	1352.047	1383.7004	1457.7406	1470.8046	1485.7663	1526.8474	1528.8061	1769.6008	2242.2612	2987.4386	3008.7489	3036.1606	3042.9025	3080.878	3085.0333	3505.1651	3649.5519	3833.5183
OCCC(=O)NCC#C	OCCC(=O)NCC#C	
InChI=1S/C6H9NO2/c1-2-4-7-6(9)3-5-8/h1,8H,3-5H2,(H,7,9)	InChI=1S/C6H9NO2/c1-2-4-7-6(9)3-5-8/h1,8H,3-5H2,(H,7,9)
