18
gdb 67091	2.73564	2.10782	1.77093	1.6795	79.61	-0.221	-0.0025	0.2185	868.5746	0.148324	-364.683569	-364.676806	-364.675862	-364.714102	28.606	
C	-0.1169898461	 1.4997512691	-0.0387993304	-0.532201
C	 0.0239506828	 0.0103835047	-0.036467987	 0.406832
C	 0.823206717	-0.8958689673	-1.0165210855	-0.204175
C	 2.2531818792	-0.8886700573	-0.4172648181	-0.084464
C	 2.1229109279	-0.9181336561	 0.9211969364	-0.262087
C	 0.60904894	-0.9393099528	 1.0583852652	 0.219884
C	-0.77657261	-0.9756806352	 1.7241523328	-0.28447
N	-1.1775268616	-0.9422652848	 0.2352793212	-0.232567
C	 0.0457455852	-1.834876308	-0.071484757	 0.015691
H	 0.8718728246	 1.9697866664	-0.072030948	 0.128925
H	-0.6859199195	 1.8301392478	-0.9140062145	 0.133127
H	-0.6397273727	 1.8546263021	 0.8552524942	 0.125716
H	 0.7051746343	-0.8786722802	-2.1013711969	 0.063398
H	 3.1669649108	-0.8626488893	-0.9950847141	 0.106963
H	 2.8910641032	-0.9151537607	 1.6806142778	 0.109991
H	-1.0773991256	-1.8989243071	 2.2288556976	 0.106083
H	-1.1095467101	-0.1008627333	 2.2904128	 0.105715
H	-0.0366867794	-2.9244282181	-0.0773301338	 0.077638
202.5187	214.5444	260.14	382.3175	440.1583	456.7298	562.6731	618.9414	695.8959	706.0253	746.8205	765.325	823.22	841.6547	849.8216	885.1688	892.0469	899.7848	927.1031	951.5573	1023.0733	1057.7373	1084.0218	1100.3031	1105.9965	1140.6121	1166.722	1175.044	1210.1111	1228.104	1258.8364	1275.1271	1317.7266	1330.0285	1405.1152	1479.7882	1484.5459	1515.5647	1577.1252	3031.4839	3046.3607	3086.2449	3101.9027	3102.3689	3103.6327	3108.4697	3220.6353	3247.5992
CC12C3C=CC11CN2C31	C[C@@]12[C@H]3C=C[C@]41CN2[C@@H]34	
InChI=1S/C8H9N/c1-7-5-2-3-8(7)4-9(7)6(5)8/h2-3,5-6H,4H2,1H3	InChI=1S/C8H9N/c1-7-5-2-3-8(7)4-9(7)6(5)8/h2-3,5-6H,4H2,1H3/t5-,6-,7+,8-/m0/s1
