16
gdb 62534	2.45052	1.4158	1.18006	4.6449	71.42	-0.2557	0.0019	0.2576	1096.2999	0.122066	-437.868959	-437.859847	-437.858903	-437.902621	33.607	
C	-0.096131651	 1.4989537883	-0.0357809695	-0.433841
C	-0.04375096	-0.0234861307	 0.0646384979	 0.081115
N	-1.3409612257	-0.5517217137	 0.3703073352	-0.538903
C	 0.8706331131	-0.6941008326	-1.0541249696	-0.138226
O	 1.8753326173	-0.9977938548	-0.027055102	-0.249663
C	 1.0921124287	-0.5103015526	 0.9931986984	 0.454645
O	 1.3376694812	-0.5075421168	 2.1536140002	-0.317705
C	 0.343576836	-1.8772426229	-1.6924750533	 0.337468
C	-0.148577202	-2.847320709	-2.2048254054	-0.418622
H	 0.8929554473	 1.9227152977	-0.2279022103	 0.135878
H	-0.7620395058	 1.8010484661	-0.8519781399	 0.123616
H	-0.4803510592	 1.9130777726	 0.8990837536	 0.156271
H	-2.0399322903	-0.1859208574	-0.268352799	 0.234886
H	-1.3620806717	-1.5640730412	 0.3003452009	 0.244268
H	 1.2928950296	 0.0047565026	-1.7809646546	 0.116187
H	-0.5552606176	-3.7095430557	-2.6743245125	 0.212625
74.3218	135.8576	171.097	210.5639	225.2721	277.0251	295.0472	331.9817	369.5213	471.838	517.9992	632.6977	644.735	681.8011	689.7488	732.3999	783.8522	829.5388	850.0895	914.8093	1002.0368	1042.2594	1059.6627	1092.1343	1142.1199	1219.1175	1272.8077	1359.0231	1362.1087	1408.2118	1487.201	1495.6809	1669.3179	1945.1125	2235.1715	3038.4616	3077.5989	3111.0143	3136.7333	3498.5765	3501.9253	3584.4102
CC1(N)C(OC1=O)C#C	C[C@@]1(N)[C@@H](OC1=O)C#C	
InChI=1S/C6H7NO2/c1-3-4-6(2,7)5(8)9-4/h1,4H,7H2,2H3	InChI=1S/C6H7NO2/c1-3-4-6(2,7)5(8)9-4/h1,4H,7H2,2H3/t4-,6+/m0/s1
