18
gdb 96945	4.01688	1.04593	1.00685	2.5603	76.2	-0.241	0.0211	0.2621	1254.6274	0.144907	-439.046426	-439.037194	-439.03625	-439.080286	34.06	
C	 0.0588661408	 1.3902408717	-0.0914612309	-0.340899
N	 0.1382621152	-0.0610985271	-0.0095649761	-0.342411
C	 0.5597466146	-0.7068218173	-0.9908785455	 0.47754
O	 1.0183138398	-0.2540996104	-2.2466457749	-0.282802
C	 1.4051449716	-1.6038423611	-2.5894950646	 0.001381
C	 0.8313987094	-2.1403373595	-1.2884878213	-0.276282
C	 0.207384742	-2.5046004091	-2.6411558865	 0.362665
C	-1.1620753133	-2.068134257	-3.0971143313	-0.463334
O	 0.5371577086	-3.8373788983	-2.9294780334	-0.455658
H	 0.5830380224	 1.8238722897	 0.7667214452	 0.128771
H	 0.4781941679	 1.8102132568	-1.0129870194	 0.127809
H	-0.9903172056	 1.6964317696	-0.0118485951	 0.128886
H	 2.359951388	-1.7565834805	-3.0747348689	 0.123288
H	 1.178777117	-2.9029195807	-0.6075936478	 0.127757
H	-1.3389678783	-1.0150076723	-2.8737904949	 0.14798
H	-1.2573584197	-2.2003196972	-4.1821208107	 0.110482
H	-1.9337114337	-2.6712366989	-2.6103703924	 0.135624
H	 0.4987095833	-3.9500438085	-3.8861991415	 0.289202
90.8166	96.4662	169.9452	203.7853	212.6624	269.4338	283.7654	318.1929	389.1385	433.2784	488.8123	540.0463	674.6729	716.1653	739.6679	829.4823	874.6494	920.6043	966.2599	980.8406	1009.0528	1025.3776	1073.2853	1083.0639	1108.4501	1132.1047	1155.1403	1177.1502	1256.6312	1276.4349	1301.4873	1408.8867	1425.2709	1439.8059	1486.7617	1492.71	1495.4054	1498.3116	1853.9996	3018.3878	3030.9484	3083.1573	3090.6043	3100.1424	3145.2508	3208.9013	3236.9841	3794.6038
CN=C1OC2C1C2(C)O	CN=C1O[C@H]2[C@@H]1[C@]2(C)O	
InChI=1S/C6H9NO2/c1-6(8)3-4(6)9-5(3)7-2/h3-4,8H,1-2H3	InChI=1S/C6H9NO2/c1-6(8)3-4(6)9-5(3)7-2/h3-4,8H,1-2H3/t3-,4-,6-/m0/s1
