17
gdb 67004	2.63636	1.96181	1.37655	2.8114	71.96	-0.2411	-0.0203	0.2208	941.0022	0.136808	-421.824007	-421.81687	-421.815926	-421.855292	29.007	
O	 0.1008407041	 1.318375662	-0.1501242036	-0.489666
C	 0.0287126	-0.055832306	-0.0449441756	 0.358507
C	-0.3827581403	-0.8239295021	-1.314944645	-0.106381
C	-0.1477002714	-2.3226398609	-1.2041077095	-0.244021
C	-0.7520099527	-2.2553366644	 0.2390683636	-0.065118
C	 0.365245304	-2.0771455864	 1.2777179607	-0.333474
C	 0.9244702964	-0.6941919078	 0.9576267766	 0.333204
O	 1.8490582014	-0.1120882579	 1.4810608375	-0.356372
C	-1.2782524924	-0.8165749539	-0.0936205259	-0.161928
H	 0.871728656	 1.5643728129	 0.3843056436	 0.296723
H	-0.4691719981	-0.2227400634	-2.2124282175	 0.10581
H	-0.8009764	-2.8730410605	-1.886658649	 0.110046
H	 0.8749385796	-2.7053074443	-1.3000964539	 0.097662
H	-1.4858074052	-3.0177480849	 0.4933325006	 0.084502
H	-0.0341670011	-2.0461543955	 2.2988635221	 0.135039
H	 1.1387280027	-2.8499276347	 1.2486766688	 0.129226
H	-2.251552453	-0.3781325222	 0.0799999366	 0.106239
104.0007	252.4315	286.5128	346.7286	366.1122	388.7717	472.0648	560.6795	596.4328	626.3725	698.8545	717.4456	836.4745	843.9869	871.0795	905.5349	920.991	956.5786	991.63	999.3845	1029.8065	1053.3085	1091.0258	1112.084	1148.3525	1166.5139	1206.7924	1225.3389	1254.165	1291.2927	1300.4598	1325.2656	1389.0365	1445.4236	1451.0281	1500.1345	1810.9125	3034.4821	3042.8092	3093.3009	3098.479	3129.2876	3186.4744	3212.0621	3711.9635
OC12C3CC(CC1=O)C23	O[C@@]12[C@H]3C[C@@H](CC1=O)[C@@H]23	
InChI=1S/C7H8O2/c8-5-2-3-1-4-6(3)7(4,5)9/h3-4,6,9H,1-2H2	InChI=1S/C7H8O2/c8-5-2-3-1-4-6(3)7(4,5)9/h3-4,6,9H,1-2H2/t3-,4-,6+,7-/m0/s1
