21
gdb 98461	2.15598	1.31514	0.93452	2.0431	79.4	-0.2418	-0.0095	0.2323	1333.8942	0.180534	-424.236485	-424.226374	-424.225429	-424.271806	37.114	
C	-0.0715678413	 1.6558831485	 0.0399886496	-0.381614
C	-0.196393042	 0.1847762949	-0.346787037	-0.303064
C	-1.3398190165	-0.5278244899	 0.3565594674	 0.322292
O	-2.0940824504	 0.0624101605	 1.1037253182	-0.328933
C	-1.5318349006	-2.0020011873	 0.0852881614	 0.210448
C	-0.4811299245	-2.766252267	-0.6936906352	-0.159409
O	 0.7762473707	-2.8250552317	-0.0315150282	-0.412655
C	-2.2818468938	-2.7641797743	 1.1743265713	-0.288975
C	-2.9889480422	-2.4208510758	-0.0914980875	-0.287617
H	 0.7580361676	 2.1247330672	-0.4966334707	 0.107501
H	-0.9890875134	 2.202782816	-0.1909113561	 0.128726
H	 0.1065078733	 1.7634297438	 1.1131899401	 0.1283
H	-0.3539109481	 0.0770355807	-1.4300166307	 0.119453
H	 0.7223018836	-0.3762812365	-0.138698911	 0.148005
H	-0.8612868059	-3.7777232275	-0.905041708	 0.088231
H	-0.2787120295	-2.2934049154	-1.659815852	 0.115354
H	 0.6198181581	-3.1752650643	 0.852326731	 0.284402
H	-1.9950418222	-3.7976286596	 1.3418577831	 0.109865
H	-2.5364736992	-2.1932036664	 2.0587642659	 0.14324
H	-3.7186288481	-1.6208168312	-0.0546622814	 0.138894
H	-3.1928863752	-3.2078348245	-0.8096386903	 0.117557
48.5925	97.2723	128.303	176.1853	197.525	219.1754	277.6198	304.5761	318.9464	362.4641	412.9212	458.7449	565.7419	611.5062	727.3915	799.327	808.0478	836.4026	902.3574	946.5412	960.2119	990.8817	1016.7248	1039.087	1066.1183	1079.4754	1091.566	1105.3293	1125.9709	1200.2898	1212.1938	1280.5301	1308.567	1312.6354	1374.2707	1392.7608	1414.0278	1424.065	1450.4874	1460.7838	1481.735	1492.3945	1498.1132	1508.649	1777.3191	2982.7527	3014.3737	3050.5869	3067.2238	3077.6261	3120.9208	3126.4947	3132.7245	3138.092	3226.7482	3239.539	3804.1986
CCC(=O)C1(CO)CC1	CCC(=O)C1(CO)CC1	
InChI=1S/C7H12O2/c1-2-6(9)7(5-8)3-4-7/h8H,2-5H2,1H3	InChI=1S/C7H12O2/c1-2-6(9)7(5-8)3-4-7/h8H,2-5H2,1H3
