17
gdb 75942	2.19701	1.83324	1.07066	3.6339	70.48	-0.2538	-0.0064	0.2474	1100.8051	0.13551	-459.006782	-458.998407	-458.997463	-459.039851	31.423	
C	 0.5625253267	 1.417532071	 0.0975975116	-0.476018
C	 0.0969435805	 0.0065882664	-0.083830769	 0.283765
C	-0.0033274866	-0.6350088108	-1.2469414966	-0.190591
C	-0.4596912106	-2.063622304	-1.2809493199	-0.127234
O	 0.0014543774	-2.8327507823	-0.1445038457	-0.217691
C	 0.1423716293	-2.2249534851	 1.0349532	 0.410988
O	 0.6259694631	-2.7941914597	 1.9825190866	-0.355914
C	-0.3315527252	-0.7731835279	 1.1482043559	-0.085507
O	 0.1356316318	-0.2216664627	 2.3466755309	-0.434669
H	 1.4226513614	 1.4537837455	 0.7726464057	 0.15016
H	 0.8360709692	 1.8679140296	-0.859562903	 0.120179
H	-0.2178091658	 2.0292977864	 0.5653796119	 0.138793
H	 0.2340538706	-0.1592800627	-2.1928098114	 0.103922
H	-1.5559448528	-2.1448925755	-1.3161812517	 0.130943
H	-0.064153917	-2.5943452706	-2.1497117452	 0.139855
H	-1.4394367939	-0.8102685765	 1.1557344852	 0.110193
H	 0.4986394118	-0.9726687111	 2.8442296145	 0.298824
67.4157	154.8964	181.0981	233.6414	272.815	331.5653	378.9765	426.8676	469.3323	502.9817	544.832	572.9187	667.0811	733.1968	807.9778	876.6361	896.2515	940.3525	1026.1371	1040.3013	1066.0695	1099.7294	1165.7818	1195.5189	1227.6626	1247.5101	1254.7179	1329.6194	1354.1053	1410.1211	1415.618	1443.676	1470.2369	1484.3953	1501.7573	1737.1503	1823.8079	2900.0128	3001.9226	3036.2575	3094.9849	3103.9836	3127.7614	3183.0689	3681.3775
CC1=CCOC(=O)C1O	CC1=CCOC(=O)[C@H]1O	
InChI=1S/C6H8O3/c1-4-2-3-9-6(8)5(4)7/h2,5,7H,3H2,1H3	InChI=1S/C6H8O3/c1-4-2-3-9-6(8)5(4)7/h2,5,7H,3H2,1H3/t5-/m0/s1
