17
gdb 72964	2.64184	1.54834	1.20469	5.6199	73.39	-0.2469	0.014	0.2609	1055.749	0.135604	-417.968208	-417.95976	-417.958816	-418.00083	32.26	
C	-0.0563054163	 1.6106659298	 0.0131883583	-0.508634
C	 0.0187808938	 0.1133909803	 0.0592784003	 0.231295
C	-1.1848610311	-0.8368072247	-0.0259269453	-0.234104
N	-0.471141116	-1.8588079664	 0.8202978812	-0.368596
C	 0.6129939256	-0.8871649686	 1.0462198277	-0.139453
C	 1.257006523	-0.7197781807	-0.318259232	 0.275074
O	 1.2109226486	-1.7552640514	-1.2424872396	-0.474063
C	 2.5045900506	 0.0068936891	-0.3341793737	 0.25263
N	 3.4897927066	 0.612815913	-0.3324593232	-0.348059
H	 0.9175012177	 2.0646481221	 0.2146788236	 0.153409
H	-0.3818331813	 1.9512830964	-0.976448035	 0.135563
H	-0.7695533871	 1.9921168996	 0.7520588108	 0.121456
H	-2.0595460416	-0.4155981458	 0.4775461865	 0.118738
H	-1.4680373332	-1.2027690073	-1.0170346105	 0.125176
H	-0.9785182793	-2.0784186862	 1.6692492949	 0.239218
H	 1.1443201467	-0.7904479511	 1.985847503	 0.118674
H	 0.7357069231	-2.4718333682	-0.786763037	 0.301677
131.8326	148.5724	179.8055	236.5599	255.4998	296.3073	321.3054	444.4017	490.5997	513.113	555.4723	573.5434	671.7271	693.2483	773.5698	797.3408	902.0294	958.9406	968.6971	993.073	999.0455	1016.6366	1091.3927	1121.0906	1163.0357	1207.5767	1225.4344	1266.7609	1288.9436	1347.3455	1417.4844	1421.7388	1433.7881	1488.6193	1494.7752	1500.4487	2352.6256	3029.7402	3051.4868	3089.093	3105.6567	3118.7807	3185.5112	3552.2865	3648.2408
CC12CNC1C2(O)C#N	C[C@]12CN[C@H]1[C@]2(O)C#N	
InChI=1S/C6H8N2O/c1-5-3-8-4(5)6(5,9)2-7/h4,8-9H,3H2,1H3	InChI=1S/C6H8N2O/c1-5-3-8-4(5)6(5,9)2-7/h4,8-9H,3H2,1H3/t4-,5+,6-/m1/s1
