21
gdb 87210	4.03637	0.869	0.82599	2.7168	79.51	-0.2451	0.0678	0.3129	1485.8469	0.18024	-424.189267	-424.179506	-424.178562	-424.224199	36.307	
C	-0.9166785188	-0.013062084	-1.6837022889	-0.418859
C	-0.793199388	-1.3099811631	-0.9158375265	-0.070096
C	 0.3455952633	-2.2702964427	-1.2128968802	-0.318807
C	 0.3253601472	-1.5188352001	 0.0843314286	 0.40907
O	 1.3161842069	-0.5228172833	 0.1882375874	-0.46706
C	 0.0647414815	-2.2550147491	 1.3863162308	-0.308781
C	 1.2691799616	-3.0390170771	 1.8544442493	 0.119872
C	 1.1421015366	-4.2452541055	 2.6796293144	-0.187292
O	 1.4375626545	-4.3422894573	 1.2850312434	-0.235317
H	-1.5461117766	 0.7101178399	-1.1514034351	 0.107566
H	 0.065576437	 0.4425312651	-1.833603242	 0.128727
H	-1.3677347023	-0.1798115173	-2.6677107461	 0.119064
H	-1.7414369129	-1.7737560632	-0.6528305849	 0.079013
H	 0.1635504778	-3.3383405541	-1.1904914351	 0.126062
H	 1.0841793866	-1.9467127393	-1.9383855182	 0.118922
H	 0.9512544477	 0.2047559344	 0.7054055549	 0.279328
H	-0.2172196435	-1.5279167882	 2.1627847414	 0.089029
H	-0.7803381086	-2.9413009214	 1.266681165	 0.105285
H	 2.1932777145	-2.4648728479	 1.9199804072	 0.103119
H	 1.9492008139	-4.5338646499	 3.3517799124	 0.112895
H	 0.1515190216	-4.5929532759	 2.9727155722	 0.108261
66.1041	71.2355	122.5161	187.5787	214.1226	238.488	319.1283	335.5575	366.1563	390.0737	447.7966	461.1996	586.7661	732.0187	787.3576	814.2024	852.8088	884.3943	914.8795	938.0006	950.7876	975.3472	1016.1291	1054.2737	1070.7102	1101.1324	1124.1651	1132.9376	1157.1467	1170.7953	1185.7657	1221.1141	1236.8933	1280.8409	1294.7597	1335.8722	1369.011	1407.7257	1426.8345	1446.4287	1456.9158	1490.2157	1499.5687	1506.5696	1530.8662	2999.2576	3027.4762	3074.5841	3078.0995	3083.9645	3113.3972	3119.313	3132.4835	3139.4591	3163.1384	3229.5756	3782.4835
CC1CC1(O)CC1CO1	C[C@H]1C[C@]1(O)C[C@H]1CO1	
InChI=1S/C7H12O2/c1-5-2-7(5,8)3-6-4-9-6/h5-6,8H,2-4H2,1H3	InChI=1S/C7H12O2/c1-5-2-7(5,8)3-6-4-9-6/h5-6,8H,2-4H2,1H3/t5-,6-,7-/m0/s1
