16
gdb 70710	2.33021	1.98251	1.30306	3.0115	64.5	-0.2393	-0.0065	0.2329	966.3393	0.125239	-475.025797	-475.018002	-475.017058	-475.058122	29.58	
N	-0.0744957022	 1.4158136011	 0.1995828388	-0.57902
C	-0.0489066503	-0.0170736044	 0.045844111	 0.126248
C	-0.4491373357	-0.7128867858	-1.2629346198	-0.349233
C	-1.3205939703	-0.8144205208	-0.0437241107	 0.056227
O	-1.3367550718	-2.0724347236	 0.5872893787	-0.228842
C	-0.5301085212	-2.0864182857	 1.7164250957	 0.001705
O	 0.8486232265	-1.8197852981	 1.4050044201	-0.230268
C	 1.1005177497	-0.6361384186	 0.793931579	 0.428141
O	 2.1925059075	-0.1385363062	 0.8364379701	-0.342449
H	 0.8884961767	 1.7428172925	 0.1675228114	 0.253251
H	-0.5635578001	 1.8519201416	-0.5753852997	 0.232198
H	-0.7643400026	-0.0631880083	-2.0732996428	 0.120272
H	 0.0725659926	-1.6145184567	-1.5636171345	 0.142044
H	-2.2709709176	-0.2874462189	-0.0072461643	 0.112172
H	-0.8606422066	-1.3501693728	 2.4621380422	 0.11846
H	-0.5495561146	-3.0942817353	 2.1307453847	 0.139096
85.4764	157.0255	203.051	262.3504	308.657	364.5617	429.9161	450.7108	498.846	567.75	650.5497	735.2054	800.9907	812.2186	867.8907	896.4696	949.8257	998.8104	1012.1395	1047.4182	1057.3703	1068.4663	1111.9506	1164.2294	1176.0749	1236.9258	1301.256	1303.3271	1401.085	1402.9541	1454.4041	1473.4692	1520.6255	1641.679	1848.1877	3012.169	3130.7373	3139.6172	3142.4434	3228.7029	3487.1417	3570.941
NC12CC1OCOC2=O	N[C@]12C[C@H]1OCOC2=O	
InChI=1S/C5H7NO3/c6-5-1-3(5)8-2-9-4(5)7/h3H,1-2,6H2	InChI=1S/C5H7NO3/c6-5-1-3(5)8-2-9-4(5)7/h3H,1-2,6H2/t3-,5-/m1/s1
