19
gdb 107994	2.46101	1.9328	1.40759	2.0216	74.27	-0.2414	0.0826	0.324	972.2207	0.161357	-422.97712	-422.969816	-422.968872	-423.008693	29.54	
O	 0.5614285872	 0.1620923268	 0.8488547146	-0.423317
C	-0.1942014967	 0.2794032048	-0.3505155206	-0.199051
C	-1.5197334477	-0.4265159012	-0.2461995185	 0.287441
C	-2.685493007	-0.5230367753	-1.2583314716	-0.311144
C	-3.1963890041	-1.2963018938	-0.0193119764	-0.093678
C	-1.7759731293	-1.9274745376	 0.1621762145	-0.077821
C	-1.5303203811	-2.0262013174	 1.6613393797	-0.12302
O	-2.0774102795	-0.7617380734	 2.1037509002	-0.294359
C	-2.5671887904	-0.2076457442	 0.8904997362	 0.090494
H	-0.0382351372	 0.3306808011	 1.5857612564	 0.295697
H	-0.3632387176	 1.3370995314	-0.6160378547	 0.087956
H	 0.4215757335	-0.1563157307	-1.1463685467	 0.107763
H	-3.2018776524	 0.4088555848	-1.508218737	 0.094542
H	-2.4998728095	-1.1177655104	-2.1562459451	 0.099252
H	-4.154757295	-1.7981153175	 0.1158567951	 0.076038
H	-1.4438363055	-2.7350328284	-0.4906287607	 0.074698
H	-2.0733107451	-2.8505483027	 2.1393995582	 0.102862
H	-0.4703436288	-2.0836096701	 1.9248270521	 0.119543
H	-3.0455524438	 0.7556631237	 1.0680811142	 0.086104
114.8428	160.993	246.6412	344.4614	389.5267	413.4811	436.7127	455.6832	656.0456	707.6774	738.2417	756.7112	848.2425	897.3621	926.6802	941.8942	959.1914	981.5854	1002.5925	1011.2988	1040.9387	1049.2085	1065.5369	1082.6671	1099.3361	1138.243	1146.7878	1193.8326	1204.4376	1223.0599	1233.4306	1255.7665	1275.5505	1301.2606	1342.8061	1370.751	1392.726	1442.549	1505.7458	1516.4804	1523.7635	2957.9575	3029.6947	3048.6399	3051.1213	3089.5377	3108.8942	3110.4759	3121.0309	3130.6515	3784.7066
OCC12CC3C1COC23	OC[C@@]12C[C@H]3[C@@H]1CO[C@@H]23	
InChI=1S/C7H10O2/c8-3-7-1-4-5(7)2-9-6(4)7/h4-6,8H,1-3H2	InChI=1S/C7H10O2/c8-3-7-1-4-5(7)2-9-6(4)7/h4-6,8H,1-3H2/t4-,5-,6+,7-/m0/s1
