18
gdb 84568	3.07293	1.76102	1.36114	2.2488	76.63	-0.2316	-0.0062	0.2254	962.5118	0.150681	-401.876523	-401.869772	-401.868828	-401.90745	28.089	
O	 0.0505458568	 1.402068802	-0.0974475897	-0.433788
C	 0.0811046671	-0.0232468476	-0.0232973876	 0.048638
C	 0.8325449664	-0.4984899933	 1.1903640406	-0.11635
C	 0.1634055462	-1.2029675252	 2.099841529	-0.077729
C	-1.28116966	-1.4954455348	 1.8538026762	 0.000188
C	-1.7180327249	-1.9895131061	 0.445714841	-0.097906
C	-3.0800750832	-1.3644155059	 0.7937188177	-0.174698
N	-2.1092436886	-0.2904497276	 1.3060625524	-0.179255
C	-1.344884651	-0.5594477066	-0.0200375263	 0.024937
H	-0.4805563328	 1.6944840225	 0.6546636179	 0.288384
H	 0.589759542	-0.342702689	-0.9419801989	 0.093309
H	 1.875165298	-0.2170918243	 1.2966742167	 0.102808
H	 0.6227265177	-1.5661568454	 3.0138591582	 0.099165
H	-1.7754452065	-1.9682518053	 2.7060924848	 0.070875
H	-1.4934627402	-2.9507629522	-0.0296531923	 0.067319
H	-3.7133167858	-1.0183134444	-0.0273232638	 0.103627
H	-3.6711395876	-1.8281624751	 1.588568003	 0.100695
H	-1.8893809936	-0.1695864118	-0.885627339	 0.079781
119.2087	223.0759	348.5342	399.4966	418.7911	477.3007	526.7131	554.	645.3463	703.7617	759.8334	780.7512	835.862	862.0638	894.2024	910.1972	962.1479	991.1812	1008.4039	1021.477	1061.6675	1065.064	1090.6207	1125.6013	1139.2083	1151.9664	1171.137	1187.8849	1219.9338	1238.3499	1254.7388	1279.5545	1340.8856	1357.4962	1409.3733	1410.8544	1435.7838	1528.1415	1710.0098	3029.8835	3038.6274	3052.6354	3065.9707	3079.941	3117.6035	3170.0491	3193.9918	3771.8964
OC1C=CC2C3CN2C13	O[C@H]1C=C[C@@H]2[C@H]3CN2[C@@H]13	
InChI=1S/C7H9NO/c9-6-2-1-5-4-3-8(5)7(4)6/h1-2,4-7,9H,3H2	InChI=1S/C7H9NO/c9-6-2-1-5-4-3-8(5)7(4)6/h1-2,4-7,9H,3H2/t4-,5-,6+,7-/m1/s1
