17
gdb 56521	2.63011	1.24851	1.06442	5.3629	74.4	-0.2577	0.0038	0.2615	1169.6975	0.132773	-417.970141	-417.959862	-417.958918	-418.00476	37.544	
C	-0.0423286425	 1.5694541084	 0.1143835339	-0.415261
C	 0.0044159939	 0.0335061524	 0.0532326705	 0.055916
N	 0.6481780576	-0.4749543671	 1.2664475839	-0.522225
C	-1.3728808972	-0.4957109446	 0.0190426274	 0.302469
N	-2.4436126396	-0.9277152648	-0.0058335486	-0.33649
C	 0.7179690153	-0.4599710233	-1.2679432038	-0.055208
O	 0.0540078105	-0.0236731395	-2.4393075402	-0.410698
C	 2.1326681388	-0.0810768072	-1.255618178	 0.269045
C	 3.281711445	 0.2745792208	-1.26231545	-0.425231
H	 0.9770941183	 1.9662504551	 0.1190262647	 0.130639
H	-0.5806371319	 1.9775916019	-0.7435958148	 0.134315
H	-0.5465948711	 1.8842356162	 1.0290931889	 0.152972
H	 0.6478897563	-1.4912817164	 1.2723762946	 0.242141
H	 1.619556878	-0.1747739419	 1.2711197048	 0.24091
H	 0.6397061216	-1.5537978947	-1.2767928184	 0.129879
H	 0.3618730607	 0.8647457188	-2.6483689663	 0.295251
H	 4.3034138663	 0.5669800561	-1.2805101486	 0.211576
73.0358	123.5625	170.1163	192.3851	213.8906	233.0303	263.3379	275.3367	300.751	346.4627	384.7162	426.0224	496.3937	571.7277	580.4943	628.7496	646.8622	683.0345	755.3314	845.3514	898.0172	968.0961	976.4755	1057.3882	1083.5589	1152.2888	1205.9123	1266.6973	1287.7768	1371.609	1403.2514	1413.6254	1491.4327	1497.4297	1654.5215	2227.0924	2364.2098	3042.2382	3054.87	3132.3933	3149.9196	3485.065	3496.9053	3570.8071	3818.3988
CC(N)(C#N)C(O)C#C	C[C@@](N)(C#N)[C@@H](O)C#C	
InChI=1S/C6H8N2O/c1-3-5(9)6(2,8)4-7/h1,5,9H,8H2,2H3	InChI=1S/C6H8N2O/c1-3-5(9)6(2,8)4-7/h1,5,9H,8H2,2H3/t5-,6+/m0/s1
