15
gdb 24321	3.94645	1.67144	1.17415	3.3966	83.19	-0.1922	-0.0336	0.1586	974.295	0.117883	-379.748128	-379.742072	-379.741128	-379.778278	25.249	
N	-0.0072027445	 1.3334877515	 0.0097959561	-0.214468
C	 1.2460631919	 1.8781089876	 0.0004529577	-0.221811
C	 2.1431309294	 0.816515124	-0.0141843127	 0.256906
C	 3.5523008913	 0.6941814243	-0.0286925084	-0.210533
C	 4.0733849077	-0.5723470549	-0.0407967616	-0.118244
C	 3.2049222369	-1.7072976198	-0.0385320264	-0.038637
N	 1.8943806915	-1.6557769803	-0.0253790161	-0.345821
C	 1.3586683807	-0.4039851348	-0.0132142367	 0.257951
C	 0.0184396031	-0.0324698428	 0.002031387	-0.183818
H	-0.8541250068	 1.877232888	 0.0211349023	 0.270381
H	 1.39387115	 2.9453612636	 0.0048678074	 0.128009
H	 4.1932735017	 1.570632846	-0.0301564329	 0.097763
H	 5.1453990747	-0.7354144444	-0.0522240596	 0.092515
H	 3.6495394039	-2.7014090409	-0.0483817567	 0.096466
H	-0.8828123115	-0.6213862971	 0.0076504805	 0.133342
218.5859	253.0249	425.3102	445.866	555.9141	586.9669	599.2495	619.4469	629.0801	652.0049	720.1114	758.1774	801.9022	826.7251	900.3007	916.9538	961.4094	978.8019	1028.7572	1083.9225	1132.727	1160.9723	1230.3733	1257.5956	1332.8022	1357.8346	1400.734	1436.1248	1453.5889	1491.1433	1574.1735	1581.7854	1656.004	3135.0661	3170.5605	3195.8499	3267.3703	3281.4907	3666.0235
N1C=C2C=CC=NC2=C1	[nH]1cc2cccnc2c1	
InChI=1S/C7H6N2/c1-2-6-4-8-5-7(6)9-3-1/h1-5,8H	InChI=1S/C7H6N2/c1-2-6-4-8-5-7(6)9-3-1/h1-5,8H
