19
gdb 124505	4.12933	0.93555	0.91608	3.0423	79.35	-0.2254	0.0102	0.2357	1380.2668	0.159285	-419.218664	-419.209425	-419.208481	-419.252923	34.387	
C	-0.0440300697	 1.5544237574	 0.0328963825	-0.385471
C	-0.0085470718	 0.0142855867	 0.0334122757	-0.092171
C	 0.7190830658	-0.5288764862	 1.2778442065	-0.385438
C	-1.3895479792	-0.555588394	-0.0751997928	 0.494042
C	-2.005930451	-1.3280417607	-1.0080470252	-0.447243
C	-3.3260400385	-1.4984359042	-0.4907139719	 0.420326
N	-4.3842909926	-2.1500851652	-1.1035126395	-0.589051
N	-3.4832706689	-0.8875338175	 0.6637882062	-0.232151
O	-2.2454518597	-0.2752332218	 0.9225759046	-0.235591
H	 0.9724298428	 1.9571927281	 0.0794452549	 0.113127
H	-0.5253211046	 1.9392529494	-0.8707802362	 0.121898
H	-0.600798863	 1.9274487818	 0.8972131996	 0.137743
H	 0.532160453	-0.3209583888	-0.8592755734	 0.089302
H	 0.1923919002	-0.2364472443	 2.1906928779	 0.137692
H	 0.7786991026	-1.6209462523	 1.2571689361	 0.119599
H	 1.7370554491	-0.1301951218	 1.326349623	 0.113411
H	-1.5973040981	-1.7068061708	-1.930348346	 0.108728
H	-4.1207312419	-2.9918675301	-1.595378046	 0.252644
H	-5.1567431944	-2.3158556555	-0.4716652261	 0.258604
42.4059	117.6983	173.9896	219.4007	254.4464	270.5274	289.8213	313.478	393.4889	425.1754	494.5812	614.5949	644.7435	710.3005	741.9818	755.006	796.2561	878.2157	932.4084	945.7641	966.373	1001.027	1027.0005	1076.9164	1120.1797	1136.5308	1158.7405	1202.4051	1302.8932	1333.4499	1362.6238	1395.7744	1418.1637	1486.1152	1491.1272	1498.5433	1501.4805	1510.5712	1546.5294	1638.6612	1666.0508	3038.2724	3040.9468	3041.8448	3109.9255	3113.2991	3118.226	3123.0165	3268.7654	3554.2254	3653.9695
CC(C)C1=CC(N)=NO1	CC(C)c1cc(N)no1	
InChI=1S/C6H10N2O/c1-4(2)5-3-6(7)8-9-5/h3-4H,1-2H3,(H2,7,8)	InChI=1S/C6H10N2O/c1-4(2)5-3-6(7)8-9-5/h3-4H,1-2H3,(H2,7,8)
