18
gdb 52285	3.96044	0.79459	0.6964	4.5676	74.23	-0.235	-0.0324	0.2025	1576.7084	0.145368	-439.081572	-439.072222	-439.071278	-439.117255	32.675	
O	 0.0689416047	 0.0549977354	 0.613001676	-0.23753
C	 0.1574840078	 1.0820116551	-0.007246205	 0.148399
C	 1.4015573951	 1.9496033546	-0.0613309023	-0.235859
N	 1.533964779	 2.5698262395	-1.3769665533	-0.326842
C	 2.4929115555	 3.654781909	-1.4266727826	-0.051672
C	 2.5869569254	 4.4746032477	-2.7486915692	-0.263601
C	 2.5186934178	 5.807565991	-1.9407931143	-0.335236
C	 2.0747823126	 4.9709889827	-0.7332881324	 0.413651
O	 1.5051504893	 5.2136664954	 0.2915695714	-0.296699
H	-0.6922564011	 1.493160511	-0.5972667657	 0.085912
H	 1.2536974291	 2.7545635096	 0.6711758377	 0.16798
H	 2.2690017578	 1.3557856131	 0.2686005491	 0.107095
H	 1.7859915666	 1.8688411251	-2.0674321721	 0.227364
H	 3.5061079676	 3.3797110188	-1.0740958304	 0.08404
H	 3.478616744	 4.3140896942	-3.3548543771	 0.111872
H	 1.6942496459	 4.3224044074	-3.3587164148	 0.125649
H	 3.4968781188	 6.271066582	-1.7772142374	 0.137368
H	 1.8195728142	 6.5784277783	-2.2715635875	 0.138108
53.4223	64.4244	86.9213	120.8015	145.8419	245.666	332.3192	349.5853	443.9328	532.9546	553.3413	677.5537	728.6518	749.5333	756.4902	829.7598	925.2706	939.7233	1010.78	1042.8518	1050.4277	1075.995	1097.5753	1145.6333	1182.7715	1195.1846	1226.9331	1234.9979	1259.4528	1272.4861	1340.5818	1366.0505	1408.1541	1441.3978	1470.7731	1484.8204	1492.6063	1838.8556	1886.0296	2888.1463	2909.252	2980.3695	3055.4005	3062.4048	3082.8768	3121.3272	3145.3564	3503.3621
O=CCNC1CCC1=O	O=CCN[C@H]1CCC1=O	
InChI=1S/C6H9NO2/c8-4-3-7-5-1-2-6(5)9/h4-5,7H,1-3H2	InChI=1S/C6H9NO2/c8-4-3-7-5-1-2-6(5)9/h4-5,7H,1-3H2/t5-/m0/s1
