21
gdb 122320	3.96658	0.86224	0.79752	1.9055	79.76	-0.2494	0.0902	0.3396	1508.117	0.182005	-424.181509	-424.172361	-424.171417	-424.216365	34.3	
O	-0.0870525813	 1.3749443616	 0.184536299	-0.421816
C	 0.0495957229	 0.010526155	-0.1587988734	-0.06069
C	-1.2954730324	-0.6968113298	-0.1712667603	-0.098881
O	-2.0938927291	-0.0231887902	-1.1432909795	-0.307179
C	-3.4031183166	-0.4565759074	-1.2023675714	 0.462423
C	-3.7919959575	-1.7215569	-1.916542846	-0.333461
C	-4.3402164216	-0.3911686502	-2.3940546146	-0.135016
C	-5.490586164	 0.0449256138	-1.4772086109	-0.217516
C	-4.5139835283	 0.0097217906	-0.2515978275	-0.297317
H	-0.7854803905	 1.7173142956	-0.3858218673	 0.289212
H	 0.5263929628	-0.1117687487	-1.1446809473	 0.092436
H	 0.7024104336	-0.4499013801	 0.5900951605	 0.107848
H	-1.1848169625	-1.7595001602	-0.4330230516	 0.093757
H	-1.7661161787	-0.6271393135	 0.8197657421	 0.103426
H	-3.0073476616	-2.1324784011	-2.5438777837	 0.114673
H	-4.447395483	-2.4606996895	-1.4596703056	 0.10229
H	-4.151664991	-0.0318438736	-3.3979090204	 0.094452
H	-5.8591967298	 1.0509589865	-1.6868417858	 0.107315
H	-6.3430183564	-0.6403731212	-1.4345663864	 0.098958
H	-4.7696447704	-0.6560134653	 0.5787564698	 0.095168
H	-4.3183367344	 1.0103534778	 0.1409573004	 0.109919
44.8097	65.0473	126.902	168.1634	252.3126	289.8826	373.1965	397.608	440.9511	447.5141	498.4008	665.5067	718.5391	787.9944	838.6635	888.2034	898.6809	916.0484	934.9866	963.3711	971.6869	1020.4284	1023.3744	1059.9129	1080.8344	1097.6324	1114.0417	1135.6209	1151.621	1216.5235	1221.5556	1230.9023	1239.7435	1259.1292	1266.2135	1303.2102	1369.469	1388.0696	1415.8905	1440.9931	1476.922	1480.2233	1499.3578	1504.78	1513.2092	2979.231	2991.0727	3037.0162	3046.3441	3054.4512	3078.9628	3098.7388	3100.7641	3118.7483	3190.8826	3202.4594	3794.0284
OCCOC12CC1CC2	OCCO[C@]12C[C@H]1CC2	
InChI=1S/C7H12O2/c8-3-4-9-7-2-1-6(7)5-7/h6,8H,1-5H2	InChI=1S/C7H12O2/c8-3-4-9-7-2-1-6(7)5-7/h6,8H,1-5H2/t6-,7-/m1/s1
