15
gdb 29238	3.20844	1.4001	0.9806	4.027	70.99	-0.2402	-0.0354	0.2048	1132.0629	0.114793	-454.057874	-454.050014	-454.04907	-454.090379	29.25	
C	-0.0270096749	 1.5472584406	 0.0107750468	-0.475179
C	-0.0055594584	 0.0485448819	-0.025103841	 0.098705
C	-0.0377461738	-0.6818068337	-1.1577038544	-0.033913
N	-0.0167862072	-2.0580354347	-1.1586929388	-0.383749
C	 0.0389478108	-2.8323329563	-0.0083662261	 0.491212
O	 0.0567859878	-4.0429002667	-0.0224904835	-0.389933
N	 0.0712453466	-2.063922187	 1.1413089186	-0.432333
C	 0.0542693755	-0.6635651706	 1.2553908643	 0.396868
O	 0.0879837845	-0.1346033469	 2.3485698385	-0.364324
H	 0.8635938412	 1.9378804848	 0.5136903164	 0.14611
H	-0.071965868	 1.9678276658	-0.9972655709	 0.114963
H	-0.8880809847	 1.9111976371	 0.5806750539	 0.146111
H	-0.0822582597	-0.2248179347	-2.1399303993	 0.137422
H	-0.0419379844	-2.5780368635	-2.0211306889	 0.275119
H	 0.1122965946	-2.5796297461	 2.0102252544	 0.272922
111.3121	133.7209	155.3957	273.1733	300.5368	388.0408	403.1502	458.0855	544.2086	565.69	605.5171	693.9419	734.6171	766.9425	789.6138	803.3632	917.8137	961.6696	1019.9014	1071.7094	1155.9498	1197.7942	1229.959	1372.2705	1396.1689	1418.7719	1419.9072	1468.5796	1486.0442	1497.088	1707.6368	1786.0785	1836.0964	3038.8402	3095.3463	3119.7794	3197.0499	3611.4934	3655.0484
CC1=CNC(=O)NC1=O	Cc1c[nH]c(=O)[nH]c1=O	
InChI=1S/C5H6N2O2/c1-3-2-6-5(9)7-4(3)8/h2H,1H3,(H2,6,7,8,9)	InChI=1S/C5H6N2O2/c1-3-2-6-5(9)7-4(3)8/h2H,1H3,(H2,6,7,8,9)
