23
gdb 111921	2.37583	1.1712	0.88262	1.5806	88.79	-0.2338	0.0239	0.2576	1433.7712	0.205066	-388.315139	-388.305196	-388.304252	-388.349797	37.662	
C	-0.1870559	 1.568522624	 0.0307370354	-0.390137
C	-0.1010353501	 0.0389227087	 0.0133034902	-0.167744
C	 0.7465029854	-0.5119678387	-1.1419374819	-0.039037
C	 2.238573656	-0.2530166716	-1.0706836256	-0.181513
C	 2.9601964499	-1.2799432867	-1.5320659651	 0.309258
C	 4.4476831981	-1.364635277	-1.666048193	-0.494568
C	 2.0450537743	-2.4027487243	-1.9856428096	-0.324564
C	 0.7052797484	-2.0627033435	-1.2945586298	 0.099991
O	 0.5914478344	-2.7284845463	-0.0426478131	-0.430579
H	 0.7988949455	 2.0304968277	 0.1493173839	 0.114627
H	-0.6201731316	 1.9527896521	-0.8998116454	 0.112523
H	-0.8139021454	 1.9176467811	 0.8573205313	 0.111672
H	 0.2991319332	-0.3205180519	 0.9675420396	 0.088414
H	-1.1108536118	-0.3820478077	-0.062858153	 0.099255
H	 0.3562139893	-0.0734453197	-2.0758601796	 0.07444
H	 2.6610518886	 0.6835443494	-0.721106469	 0.084594
H	 4.9403416463	-0.4617237664	-1.2946797607	 0.122051
H	 4.8490536007	-2.2254838598	-1.1159502169	 0.12336
H	 4.7423865813	-1.5054830233	-2.7141358393	 0.126311
H	 1.9468476198	-2.4012069272	-3.0810827603	 0.103377
H	 2.389327935	-3.4032464458	-1.6993819722	 0.102636
H	-0.16524537	-2.3947761285	-1.8665657632	 0.077827
H	 1.3612067526	-2.4789532747	 0.4820987473	 0.277805
86.5847	101.2401	140.7547	167.8631	192.9992	243.5632	298.1223	324.67	371.8442	378.0967	420.5517	473.6989	509.1921	615.6076	743.6419	796.4451	825.6819	854.2058	875.1071	893.3943	947.8556	970.6229	998.1672	1020.2069	1032.6213	1060.73	1085.5409	1129.5344	1130.3393	1174.5683	1195.765	1245.7453	1258.7589	1271.2852	1289.3395	1318.3455	1338.2633	1367.8115	1380.585	1412.0773	1415.4416	1433.4538	1474.4454	1479.633	1480.1254	1489.0958	1500.9519	1506.2179	1709.3362	2957.8008	3004.0334	3015.629	3029.6937	3033.2593	3059.6114	3060.7447	3065.8345	3080.2895	3097.7335	3100.727	3108.5821	3180.4989	3788.9357
CCC1C=C(C)CC1O	CC[C@H]1C=C(C)C[C@H]1O	
InChI=1S/C8H14O/c1-3-7-4-6(2)5-8(7)9/h4,7-9H,3,5H2,1-2H3	InChI=1S/C8H14O/c1-3-7-4-6(2)5-8(7)9/h4,7-9H,3,5H2,1-2H3/t7-,8+/m0/s1
