19
gdb 124792	4.06503	0.98954	0.83562	4.4414	78.96	-0.2382	0.0176	0.2557	1403.3893	0.159136	-419.24086	-419.231221	-419.230277	-419.276307	34.592	
C	 0.0961743636	 1.3375274193	-0.5060483582	-0.382042
C	-0.0155877217	 0.0535105612	 0.3228616013	 0.057594
O	 0.2378592231	 0.3555041146	 1.6823225513	-0.446743
C	-1.3577579779	-0.6150632648	 0.1561216799	 0.340771
N	-2.1007440907	-0.8432324339	 1.2331773969	-0.317457
N	-3.2121108741	-1.4494372993	 0.7645650556	-0.265415
C	-3.2017648546	-1.6166563495	-0.5836034904	 0.402284
C	-4.3280219701	-2.2593635049	-1.3250505808	-0.501197
C	-2.0026609195	-1.0831957232	-1.013343594	-0.401678
H	 1.0753250319	 1.7949329822	-0.3395960635	 0.122062
H	-0.0135492039	 1.1298392063	-1.5753688259	 0.104885
H	-0.6767094733	 2.0501334919	-0.2039259032	 0.119816
H	 0.7572850726	-0.6490377499	-0.0336028564	 0.077757
H	-0.4963568843	-0.0136847033	 2.1908580373	 0.293044
H	-3.9323423949	-1.7189461007	 1.4131668777	 0.270127
H	-5.259945508	-1.6917462199	-1.2217590814	 0.139392
H	-4.0898333202	-2.3168713625	-2.3888570078	 0.14609
H	-4.5203128315	-3.2781386354	-0.9698371111	 0.138136
H	-1.6480140164	-1.0428770082	-2.0308445871	 0.102574
33.8996	60.5492	124.5329	179.2335	234.6043	247.2349	282.5488	330.3056	354.4609	457.8973	479.5674	492.2146	647.1176	667.575	708.9881	750.8588	809.2768	911.6091	989.7541	998.6856	1040.4989	1050.6852	1062.8434	1101.3995	1127.7273	1179.6199	1200.6627	1273.2803	1314.9115	1365.3176	1395.4429	1412.632	1421.0256	1441.2231	1461.3116	1482.139	1483.0986	1493.3225	1510.5393	1514.2431	1613.5642	2948.1357	3031.449	3038.4213	3082.0905	3113.2141	3122.7384	3132.4513	3260.4587	3670.5631	3746.5535
CC(O)C1=NNC(C)=C1	C[C@@H](O)c1n[nH]c(C)c1	
InChI=1S/C6H10N2O/c1-4-3-6(5(2)9)8-7-4/h3,5,9H,1-2H3,(H,7,8)	InChI=1S/C6H10N2O/c1-4-3-6(5(2)9)8-7-4/h3,5,9H,1-2H3,(H,7,8)/t5-/m1/s1
