19
gdb 71875	2.99297	1.95176	1.47728	1.0143	80.9	-0.22	-0.0076	0.2124	938.4981	0.159899	-385.834945	-385.827826	-385.826882	-385.865802	29.837	
C	 0.0892416892	 1.4986706212	-0.0470739958	-0.472833
C	-0.0581389835	-0.0056539134	-0.0660056194	 0.442202
C	 0.7263870778	-0.7717787799	-1.1643540279	-0.289535
C	 0.1573594261	-2.1752277555	-0.9934055622	-0.128226
C	-1.0190582218	-2.1229953374	-0.3586033378	 0.122979
C	-1.3431957371	-2.623043899	 1.0416029582	-0.305713
C	-1.1486119181	-1.0994357968	 1.4202609154	 0.127047
O	 0.1993386132	-0.5740832581	 1.2844910386	-0.357529
C	-1.4346018425	-0.6852969801	-0.0327552066	-0.184781
H	 1.124640381	 1.7759064634	 0.1781042721	 0.126646
H	-0.1736954474	 1.9261856507	-1.0207962901	 0.114584
H	-0.5532134949	 1.9466856912	 0.7159163837	 0.121645
H	 0.5779763585	-0.3052667	-2.1485080375	 0.102988
H	 1.8044017062	-0.7676975958	-0.9660286459	 0.113786
H	 0.7869256415	-3.0572742789	-1.0448008425	 0.093972
H	-2.3902996431	-2.8878951913	 1.2310892054	 0.105848
H	-0.6791564826	-3.3735848506	 1.475387882	 0.112272
H	-1.6489586612	-0.7280956805	 2.3195899657	 0.079216
H	-2.3570344712	-0.2500009992	-0.4128527055	 0.075435
211.1384	244.2597	248.2277	312.5241	342.6783	403.4478	439.6278	574.7496	610.3071	695.0362	748.1554	796.3087	804.2494	851.9831	866.8256	884.6123	905.3467	920.0043	933.2261	964.0953	979.6549	1020.1701	1052.2271	1083.2901	1112.4329	1139.9618	1156.1463	1185.7244	1195.3052	1221.7151	1254.5897	1263.3705	1299.8669	1306.6225	1334.0491	1409.2151	1459.6062	1472.5017	1482.8751	1491.7216	1663.5647	3007.6253	3033.6055	3034.1906	3062.6263	3065.8108	3100.9383	3113.9716	3116.3573	3127.7928	3183.2704
CC12CC=C3CC(O1)C23	C[C@@]12C[CH][C]3C[C@@H](O1)[C@@H]23	
InChI=1S/C8H10O/c1-8-3-2-5-4-6(9-8)7(5)8/h2,6-7H,3-4H2,1H3	InChI=1S/C8H10O/c1-8-3-2-5-4-6(9-8)7(5)8/h2,6-7H,3-4H2,1H3/t6-,7+,8+/m1/s1
