21
gdb 109884	2.58762	1.37228	1.12474	1.7048	77.58	-0.2395	0.0676	0.3071	1168.3989	0.182558	-424.182757	-424.173744	-424.1728	-424.216729	33.883	
C	-1.352203293	 0.9773162002	-0.0156995305	-0.413693
C	-0.4217323316	-0.2274454133	-0.0336646168	 0.000784
C	 0.5625853999	-0.4442861602	-1.2463693773	 0.007809
C	 0.579421949	 0.5644209046	-2.3801889226	-0.106209
O	-0.5887795809	 0.339793183	-3.1622291633	-0.422336
C	 1.7713820737	-0.4838026096	-0.2639255333	-0.122126
C	 2.3895206403	 0.8692481646	 0.1219103874	-0.081426
O	 1.3624986585	 1.1143397125	 1.1099504974	-0.289589
C	 0.8004196952	-0.2045796144	 0.9191227493	 0.106106
H	-0.7824006358	 1.9095592392	 0.0156334386	 0.125423
H	-1.9880522396	 0.9822710884	-0.9051493051	 0.125713
H	-1.9952940503	 0.9578664568	 0.8706759881	 0.107982
H	-1.0000700343	-1.1429012491	 0.1304497455	 0.071193
H	 0.4018546494	-1.4258117599	-1.7014608168	 0.083932
H	 0.5968527664	 1.5934499085	-1.9939612208	 0.094121
H	 1.493119164	 0.4242402156	-2.9823638858	 0.084186
H	-0.6490231649	 1.0386751393	-3.8201395148	 0.286366
H	 2.4401382021	-1.341035118	-0.3303105665	 0.074707
H	 3.3776860561	 0.7830493529	 0.593435895	 0.098214
H	 2.4342056365	 1.6556660846	-0.640623797	 0.099721
H	 0.7542515693	-0.7681470957	 1.8555937493	 0.069121
53.4208	118.8619	181.8353	205.2308	235.8892	239.9034	279.4981	327.0395	443.9482	483.5005	554.4976	649.9508	747.0138	798.8412	844.9472	877.2409	903.1996	963.1147	988.6524	1009.1073	1020.8616	1025.0666	1051.3169	1081.5499	1107.8967	1146.6657	1153.7983	1159.6429	1185.0502	1212.0024	1237.0271	1249.2432	1272.3182	1294.8121	1303.7779	1327.8752	1352.1754	1359.2925	1369.4458	1403.7108	1459.0023	1489.5227	1502.2321	1523.1433	1527.29	2958.2578	3005.8757	3009.9613	3037.6985	3041.882	3054.85	3062.1121	3068.3417	3105.4705	3115.9723	3124.7604	3828.2596
CC1C(CO)C2COC12	C[C@H]1[C@@H](CO)[C@H]2CO[C@@H]12	
InChI=1S/C7H12O2/c1-4-5(2-8)6-3-9-7(4)6/h4-8H,2-3H2,1H3	InChI=1S/C7H12O2/c1-4-5(2-8)6-3-9-7(4)6/h4-8H,2-3H2,1H3/t4-,5+,6+,7-/m0/s1
