14
gdb 48395	2.29607	1.70505	1.22033	2.4597	66.38	-0.2728	-0.0541	0.2188	1002.0167	0.099106	-436.655335	-436.647413	-436.646469	-436.688304	28.493	
O	-0.1484694423	 0.0735727348	-0.3862001081	-0.220966
C	-0.0312750631	 1.2162601323	-0.0447079957	 0.124558
C	 1.3105061225	 1.9511633999	-0.0154207346	 0.033658
C	 2.5693530339	 1.1487803298	-0.5161259441	-0.31176
C	 2.6787877434	 2.1312789058	-1.6889652715	 0.052702
O	 1.4370587935	 2.0909055558	-2.4070907575	-0.22449
C	 1.5108514211	 2.9060537857	-1.253516681	-0.024671
C	 1.4902983914	 2.639646633	 1.2505485328	 0.22394
N	 1.6106082162	 3.2004770185	 2.2548051316	-0.321544
H	-0.8996172167	 1.8408087323	 0.2523970639	 0.108586
H	 3.4012294302	 1.2070141961	 0.1862027262	 0.141556
H	 2.3565264448	 0.1134056513	-0.782926754	 0.15507
H	 3.5581639647	 2.4435015108	-2.2375493744	 0.128578
H	 1.2419751505	 3.9530036238	-1.3203516336	 0.134784
73.1919	122.2628	167.781	184.26	242.2076	364.308	472.8232	510.2104	517.774	554.7574	660.8984	792.9469	842.3693	863.6051	896.729	910.6427	985.19	992.046	1042.8814	1053.3589	1108.6409	1151.0547	1204.9484	1233.4516	1243.6461	1266.4816	1380.5331	1417.2858	1467.3476	1840.4809	2349.4168	2917.3202	3096.2621	3163.1353	3198.2217	3213.9006
O=CC1(CC2OC12)C#N	O=C[C@]1(C[C@H]2O[C@@H]12)C#N	
InChI=1S/C6H5NO2/c7-2-6(3-8)1-4-5(6)9-4/h3-5H,1H2	InChI=1S/C6H5NO2/c7-2-6(3-8)1-4-5(6)9-4/h3-5H,1H2/t4-,5-,6+/m1/s1
