21
gdb 81529	3.17317	1.27306	1.05985	2.6693	83.84	-0.2426	-0.0199	0.2227	1210.5768	0.181104	-387.045011	-387.035896	-387.034952	-387.078694	34.63	
C	-0.1093212428	 1.6258451046	 0.6136793049	-0.446192
C	 0.0683754094	 0.1373373791	 0.3432171517	 0.053796
C	 1.2928190883	-0.4222028938	-0.4591881273	-0.090991
C	 2.1602295906	-0.150434869	 0.810221772	-0.246166
C	 0.844284788	-0.7948375825	 1.3357977158	-0.113582
C	 0.9726615234	-1.8308700643	 0.1459578173	 0.281499
C	-0.2425812371	-2.6554585109	-0.300683726	-0.499223
C	 2.1181045342	-2.819391627	 0.2354805201	 0.083154
O	 3.1065983864	-2.8206235871	-0.453954546	-0.253892
H	 0.798186823	 2.1363479085	 0.94229304	 0.121087
H	-0.4603691841	 2.1304828406	-0.2934062998	 0.119718
H	-0.8722436539	 1.7799021711	 1.3850954421	 0.117641
H	-0.8947412371	-0.2586040259	 0.0172961234	 0.061877
H	 1.5598930027	-0.2124504607	-1.4957286318	 0.075726
H	 3.0804776948	-0.7235378786	 0.910122524	 0.116861
H	 2.3333724729	 0.8912395212	 1.0740785464	 0.092927
H	 0.5816432141	-1.0252330874	 2.370884452	 0.068486
H	-1.1869016053	-2.1147428745	-0.2354247425	 0.132267
H	-0.1166299468	-2.9913597099	-1.3356957524	 0.134297
H	-0.3414666123	-3.552319894	 0.3223342635	 0.122247
H	 1.9527574516	-3.6263241594	 0.9907374826	 0.068463
85.7327	126.0033	141.3784	171.2192	245.7968	251.0809	313.6784	362.868	402.879	468.756	557.6642	622.275	701.0772	761.2529	795.3881	812.1705	865.8579	896.1595	922.9658	983.6902	1015.0735	1017.8362	1029.5162	1047.3707	1086.5333	1096.2039	1131.6133	1133.4935	1159.5812	1174.2685	1201.5809	1221.8503	1234.9629	1259.8306	1285.3327	1397.8528	1413.7392	1423.5049	1432.7457	1494.4032	1494.8581	1497.1517	1503.5139	1547.5049	1820.3665	2831.2286	3033.1765	3034.6666	3080.4857	3086.4635	3088.4497	3088.6514	3101.6499	3113.122	3126.5266	3138.431	3163.9335
CC1C2CC1C2(C)C=O	C[C@H]1[C@H]2C[C@@H]1[C@]2(C)C=O	
InChI=1S/C8H12O/c1-5-6-3-7(5)8(6,2)4-9/h4-7H,3H2,1-2H3	InChI=1S/C8H12O/c1-5-6-3-7(5)8(6,2)4-9/h4-7H,3H2,1-2H3/t5-,6+,7-,8+
