15
gdb 12803	3.66724	2.14364	1.6423	2.0694	60.8	-0.2411	0.0231	0.2641	785.438	0.119851	-399.785645	-399.778888	-399.777944	-399.816335	26.212	
O	 0.0509075784	 1.4046549223	-0.2223771306	-0.461873
C	 0.0226847396	 0.0256590528	 0.0175785714	 0.333679
C	-0.4799001177	-0.8788979512	-1.0906204779	-0.377761
C	-1.3384639274	-0.5719458516	 0.1167965901	 0.072302
O	-1.5917617542	-1.5911822571	 1.0563429138	-0.221534
C	-0.5198932259	-2.0835838258	 1.7292168943	 0.128498
N	 0.6793653172	-1.6897537702	 1.7443864823	-0.26686
C	 1.0586676558	-0.4942363666	 1.0021488899	-0.232456
H	 0.7925779885	 1.5883051439	-0.8102310787	 0.286191
H	-0.7670156088	-0.4145407982	-2.0272260765	 0.123117
H	-0.0602108149	-1.8767057584	-1.1687698332	 0.131324
H	-2.2049123316	 0.0666368313	-0.0001878978	 0.124493
H	-0.8283188765	-2.9466924603	 2.3152668087	 0.126703
H	 2.018642595	-0.6902451067	 0.5047675502	 0.103813
H	 1.2430542225	 0.3097540661	 1.7256109839	 0.130365
119.2444	223.5431	294.0216	361.1002	375.2373	426.8143	506.4004	526.1927	536.4698	704.4065	794.6642	874.871	915.5078	930.3606	956.6281	988.6005	1010.2292	1024.7507	1045.8983	1071.582	1121.6071	1186.1739	1219.3587	1280.6623	1290.4068	1342.905	1355.7032	1406.6205	1422.2551	1479.9644	1500.9597	1740.6467	3007.3962	3047.556	3133.1295	3166.6046	3198.7782	3229.649	3791.3963
OC12CC1OC=NC2	O[C@]12C[C@H]1OC=NC2	
InChI=1S/C5H7NO2/c7-5-1-4(5)8-3-6-2-5/h3-4,7H,1-2H2	InChI=1S/C5H7NO2/c7-5-1-4(5)8-3-6-2-5/h3-4,7H,1-2H2/t4-,5+/m1/s1
