19
gdb 91342	3.03447	1.4132	1.17806	1.4026	76.02	-0.2184	0.0564	0.2747	1109.1908	0.161346	-419.228982	-419.220933	-419.219989	-419.261506	31.658	
C	 0.080661458	 1.5846920327	-0.0545873647	-0.397947
C	 0.0382931189	 0.0686316734	 0.0462909347	 0.031708
C	 0.9001668019	-0.7672490571	-0.956143029	-0.271765
C	 1.4360909608	-1.6182516926	 0.2191961924	 0.083711
O	 2.8521537316	-1.5049636993	 0.4520069296	-0.260659
C	 2.9727004197	-0.4502510237	 1.3116295514	 0.459758
N	 4.2675430749	-0.0695347449	 1.5324335253	-0.575152
N	 1.923807482	 0.0979965772	 1.7935827373	-0.346583
C	 0.7861822402	-0.6260082099	 1.2324456886	-0.028553
H	 1.1075699527	 1.9508480973	 0.0312779993	 0.126525
H	-0.3302002046	 1.9226994947	-1.0125971102	 0.105545
H	-0.5030176324	 2.0517726713	 0.7456438287	 0.11553
H	-1.0012923687	-0.2770990898	 0.0253302169	 0.066935
H	 0.3562486087	-1.3079314399	-1.7342926028	 0.100156
H	 1.7005103634	-0.1900557614	-1.4275634593	 0.110319
H	 1.1703038754	-2.675456246	 0.232324807	 0.083651
H	 4.9573397555	-0.792338903	 1.3978683437	 0.262662
H	 4.3952871547	 0.4945713419	 2.3578921424	 0.267704
H	 0.1448361872	-1.0134115708	 2.0305642285	 0.066456
77.2698	144.1451	218.8448	256.6373	346.5536	353.4202	415.7145	434.2874	527.4624	550.5528	610.8454	704.7344	736.9721	754.8885	805.818	863.0844	897.1186	920.7113	936.5986	945.0301	990.854	1034.391	1093.1454	1121.1505	1124.6774	1167.8002	1188.4801	1224.4075	1240.7106	1269.239	1286.6748	1318.4582	1337.9587	1364.6824	1409.0369	1423.7185	1475.5144	1489.8848	1499.1138	1616.0018	1740.1641	3030.2911	3034.807	3050.1174	3060.1524	3094.4486	3105.1822	3113.8236	3120.8039	3591.0239	3705.1515
CC1CC2OC(N)=NC12	C[C@H]1C[C@H]2OC(=N[C@@H]12)N	
InChI=1S/C6H10N2O/c1-3-2-4-5(3)8-6(7)9-4/h3-5H,2H2,1H3,(H2,7,8)	InChI=1S/C6H10N2O/c1-3-2-4-5(3)8-6(7)9-4/h3-5H,2H2,1H3,(H2,7,8)/t3-,4+,5-/m0/s1
