16
gdb 84589	2.43055	1.94543	1.2579	4.65	69.8	-0.2419	-0.0049	0.2371	974.9962	0.125364	-437.903103	-437.895415	-437.89447	-437.935482	29.23	
O	 0.0792982858	 1.4498108144	-0.1177352605	-0.410708
C	 0.0689589869	 0.0335579576	-0.0091146316	 0.071384
C	 0.6653064664	-0.4731305739	 1.2926022468	-0.090275
C	-0.1705992148	-1.2322525107	 1.9977473698	-0.087317
C	-1.5052374671	-1.3800332673	 1.3130433776	-0.017813
N	-2.5768685188	-0.4766040725	 1.7758395195	-0.334882
C	-2.4486133572	 0.4236215581	 0.7369331266	 0.443918
O	-2.9964376938	 1.4607765496	 0.4945882283	-0.348389
C	-1.3847394726	-0.4834084885	 0.0434380966	-0.227552
H	 0.9884572835	 1.7349115457	-0.253788689	 0.285393
H	 0.5929305531	-0.4098496413	-0.8706626213	 0.07588
H	 1.6728411635	-0.2012830559	 1.593331508	 0.09859
H	 0.0469228897	-1.6844123934	 2.9596071202	 0.103056
H	-1.8396266279	-2.4137018266	 1.1849299955	 0.089481
H	-2.9999457447	-0.3590334054	 2.6856305226	 0.245532
H	-1.7339145819	-0.9097056399	-0.8963395191	 0.103703
69.2078	151.909	219.9688	228.1044	348.339	377.8873	403.3862	508.1988	553.9633	642.3137	701.6769	745.6496	809.0954	826.7931	867.9921	891.197	956.7325	979.1279	991.2039	1023.7264	1063.6609	1091.6181	1134.6586	1158.6639	1175.6998	1200.8404	1259.2181	1296.2455	1319.4577	1342.6179	1364.4371	1377.9631	1415.9839	1684.8702	1900.9727	2966.2601	3064.3544	3125.4197	3171.0859	3198.4331	3599.1989	3820.2883
OC1C=CC2NC(=O)C12	O[C@H]1C=C[C@H]2NC(=O)[C@@H]12	
InChI=1S/C6H7NO2/c8-4-2-1-3-5(4)6(9)7-3/h1-5,8H,(H,7,9)	InChI=1S/C6H7NO2/c8-4-2-1-3-5(4)6(9)7-3/h1-5,8H,(H,7,9)/t3-,4+,5-/m1/s1
