19
gdb 41726	3.25363	1.72954	1.71889	0.9922	72.51	-0.2317	0.0891	0.3208	891.5073	0.164024	-423.032804	-423.026639	-423.025695	-423.063006	26.454	
C	-0.006094911	 1.5927035135	-0.0409073693	-0.081816
O	 1.3975492965	 1.9361850552	-0.0009945488	-0.291194
C	 2.1139812328	 0.7313592263	-0.2157922628	 0.109664
C	 2.1865110368	-0.1977886487	 1.0296032634	-0.084454
C	 2.5682494749	-1.5081001455	 0.3445597164	-0.081815
O	 1.7141387106	-1.535334996	-0.8214339154	-0.291194
C	 1.1652391494	-0.2340980951	-0.9499263564	 0.109664
C	 0.0026268625	 0.0677257022	 0.0384151837	-0.084454
C	 0.6748155662	-0.3065950199	 1.3941489869	-0.215347
H	-0.5133294951	 2.0675313761	 0.8059238316	 0.105306
H	-0.4535099101	 1.9709404559	-0.971510034	 0.094209
H	 3.0717674662	 0.9558547476	-0.6872609889	 0.081499
H	 2.8493525372	 0.1117830604	 1.837575304	 0.072691
H	 3.6222252543	-1.5372643372	 0.0322291258	 0.094208
H	 2.3633055632	-2.3927816662	 0.9571018911	 0.105306
H	 0.9499587835	-0.0312907787	-1.9999546133	 0.081499
H	-0.954833174	-0.4114025348	-0.1658342454	 0.072691
H	 0.4166342767	-1.3167377421	 1.7227097688	 0.101769
H	 0.3859024492	 0.3887067969	 2.1866660125	 0.101769
215.7936	274.0873	357.4116	381.6918	435.5667	541.0411	631.448	717.5823	768.6724	812.0402	847.435	859.851	902.2961	908.4954	942.2096	945.5851	972.2352	985.6176	988.5354	1038.668	1053.0597	1079.2138	1097.8114	1110.8246	1146.0676	1181.9218	1182.5873	1217.9748	1223.2396	1250.2021	1260.9447	1282.5291	1309.8241	1331.4244	1335.0584	1338.3373	1382.5169	1399.7191	1499.3753	1525.386	1526.6115	2996.1637	2997.1677	3057.4887	3060.4248	3062.3162	3101.9578	3105.9301	3111.3345	3119.8097	3124.6106
C1OC2C3COC2C1C3	C1O[C@H]2[C@@H]3CO[C@H]2[C@H]1C3	
InChI=1S/C7H10O2/c1-4-2-8-7-5(1)3-9-6(4)7/h4-7H,1-3H2	InChI=1S/C7H10O2/c1-4-2-8-7-5(1)3-9-6(4)7/h4-7H,1-3H2/t4-,5-,6-,7-/m0/s1
