19
gdb 68610	2.33923	1.85581	1.49781	1.3075	75.21	-0.2373	0.0593	0.2966	974.703	0.159621	-422.980051	-422.972292	-422.971348	-423.011758	31.443	
O	-0.1067263907	 1.3855466401	 0.0312705205	-0.48431
C	-0.020015731	 0.0023094558	-0.0285181239	 0.264167
C	 0.388048962	-0.82936733	-1.297816825	-0.302627
C	-0.3441208682	-1.9275612567	-0.4862502237	-0.00501
O	 0.5147251855	-2.1169596299	 0.6607418451	-0.274936
C	 0.7729720638	-0.7563806792	 1.0589212928	-0.127411
C	-1.3094290671	-0.8323001999	-0.0261989461	 0.422456
C	-2.4750682834	-0.8316651555	 0.8976292998	-0.367788
C	-2.6416793238	-0.4411546691	-0.5649681491	-0.361788
H	 0.7829358188	 1.754928351	 0.0347707353	 0.285513
H	-0.1553789939	-0.5095757256	-2.1871428448	 0.111086
H	 1.4500324131	-0.9902034599	-1.5005999234	 0.091129
H	-0.6514172151	-2.8898142536	-0.8890920282	 0.084224
H	 1.8516540411	-0.550419334	 1.0370999851	 0.086433
H	 0.3872134734	-0.5651230867	 2.0670001001	 0.104445
H	-2.8786987217	-1.7852045197	 1.222418242	 0.116615
H	-2.540100016	-0.0402665133	 1.6382433953	 0.119409
H	-2.8075115216	 0.6073769278	-0.7907407574	 0.126156
H	-3.164300085	-1.1311648916	-1.2203558045	 0.112236
166.9108	188.0309	211.1293	239.6149	311.9851	372.3589	416.958	455.2288	579.9632	614.6447	631.1018	691.7987	781.0427	809.19	876.1871	900.0621	921.3942	939.6662	963.9795	977.8028	1001.4858	1028.4058	1049.2356	1077.6702	1081.0662	1105.709	1123.2294	1165.5598	1177.1777	1184.7036	1210.5959	1235.1627	1265.3412	1289.4946	1329.9321	1366.836	1437.4272	1459.9524	1483.3579	1513.4712	1526.6609	3007.3191	3058.8877	3067.3533	3122.0215	3124.8554	3147.513	3153.1626	3200.8748	3214.6041	3807.6105
OC12CC(OC1)C21CC1	O[C@@]12C[C@@H](OC1)C12CC1	
InChI=1S/C7H10O2/c8-7-3-5(9-4-7)6(7)1-2-6/h5,8H,1-4H2	InChI=1S/C7H10O2/c8-7-3-5(9-4-7)6(7)1-2-6/h5,8H,1-4H2/t5-,7+/m1/s1
