18
gdb 8595	4.23655	1.9621	1.78745	1.7769	72.95	-0.2264	0.0715	0.2979	818.9651	0.15357	-347.677478	-347.670724	-347.66978	-347.707829	27.699	
C	-0.4163105151	 1.5595388601	-0.0507989112	-0.402382
C	-0.013037029	 0.0926451023	 0.0073287948	 0.008385
C	 1.1751001229	-0.3900031109	-0.9471788165	-0.347471
C	 2.0121946145	-0.5022921123	 0.3289940051	 0.381707
C	 2.9179645381	-1.0524699559	 1.4598050557	-0.310798
C	 1.9993339921	 0.1271886547	 1.995709026	 0.026056
O	 2.353669267	 0.8852542282	 0.7988442383	-0.332875
C	 0.787784295	-0.4927946609	 1.2461563444	-0.058634
H	 0.4492085829	 2.2109701915	 0.0702150898	 0.143482
H	-0.8992172557	 1.7884628439	-1.0080249797	 0.106101
H	-1.1350827913	 1.789109371	 0.7437508628	 0.110501
H	-0.9010857399	-0.5280314035	-0.1448419559	 0.076328
H	 0.9569176075	-1.3532400208	-1.4147572257	 0.109109
H	 1.5470015775	 0.3128326261	-1.6967832994	 0.11644
H	 2.7174438432	-2.0693876241	 1.8072137611	 0.100715
H	 3.9819830529	-0.8123961723	 1.4187015124	 0.110882
H	 2.0765529245	 0.6388053088	 2.9595270899	 0.090206
H	 0.403249553	-1.4426617061	 1.6227694382	 0.072247
193.2732	221.0904	229.7844	345.3253	396.1732	448.7482	536.1246	641.1518	690.0857	708.1281	774.4751	801.7783	841.1169	859.8592	888.4293	933.0897	954.7091	1000.8155	1021.4488	1043.5357	1065.2386	1090.8523	1121.466	1140.5165	1169.7819	1190.0092	1194.732	1216.958	1239.7873	1252.5719	1284.9198	1329.9876	1364.5247	1403.9588	1464.1227	1481.7676	1488.4203	1511.9075	3029.7124	3052.4594	3056.2894	3063.9241	3068.941	3086.3316	3091.6474	3125.736	3142.7974	3151.0122
CC1CC23CC(O2)C13	C[C@H]1C[C@@]23C[C@@H](O2)[C@@H]13	
InChI=1S/C7H10O/c1-4-2-7-3-5(8-7)6(4)7/h4-6H,2-3H2,1H3	InChI=1S/C7H10O/c1-4-2-7-3-5(8-7)6(4)7/h4-6H,2-3H2,1H3/t4-,5+,6+,7-/m0/s1
