20
gdb 107926	3.021	1.37433	1.23671	1.239	78.72	-0.1964	0.0901	0.2865	1114.5673	0.170126	-403.058782	-403.050299	-403.049355	-403.091827	32.598	
C	 0.0909413901	 1.2872832255	-0.1525702198	-0.25708
O	-0.048376173	-0.0691977277	 0.2385758108	-0.27941
C	-1.3363433261	-0.5335250599	 0.1506611062	 0.414871
C	-2.5129371495	-0.2704133948	 1.0932149002	-0.327251
C	-3.1770050114	-1.4835893314	 0.3645064806	-0.027866
C	-1.7343229843	-1.9745486099	-0.0405984687	-0.185718
C	-1.9570259649	-1.0400097787	-1.192319334	-0.100422
N	-3.4075522068	-1.0984694118	-1.0610846052	-0.071853
C	-4.1982749142	 0.0841129031	-1.368989372	-0.327529
H	 1.1541337556	 1.529223033	-0.0918025864	 0.127752
H	-0.2611532372	 1.444926167	-1.1812882248	 0.110225
H	-0.4662637098	 1.9592645728	 0.5148343317	 0.114162
H	-2.2503129558	-0.5448927009	 2.1182723652	 0.10768
H	-3.0310372488	 0.693765363	 1.0872278787	 0.09082
H	-3.9579397952	-2.0667490652	 0.8499622812	 0.078485
H	-1.2088343041	-2.9129481636	 0.0509554359	 0.10393
H	-1.4313664836	-0.9747711121	-2.1377817327	 0.095279
H	-4.2254716456	 0.2163652293	-2.4560220977	 0.119625
H	-5.2270124977	-0.0725292286	-1.0272824256	 0.118365
H	-3.8247847177	 1.0216002911	-0.9266035335	 0.095936
84.7057	129.8847	170.182	184.6777	253.808	314.1854	370.8491	427.507	499.3394	568.3246	609.5175	685.7763	744.9371	785.3872	833.5743	874.9346	888.8901	950.7323	957.4114	1000.6946	1033.4391	1057.6719	1067.663	1109.8145	1119.4615	1134.9237	1156.1475	1176.7707	1181.2648	1204.81	1216.0732	1230.3194	1241.001	1297.7199	1304.6601	1394.88	1443.6504	1477.8928	1484.0866	1488.8271	1499.4095	1506.3671	1518.0783	2972.4512	2994.6635	3046.3732	3050.1485	3060.1775	3096.9391	3106.5367	3123.9457	3125.5587	3185.6727	3234.0344
COC12CC3C1C2N3C	CO[C@]12C[C@@H]3[C@H]1[C@H]2N3C	
InChI=1S/C7H11NO/c1-8-4-3-7(9-2)5(4)6(7)8/h4-6H,3H2,1-2H3	InChI=1S/C7H11NO/c1-8-4-3-7(9-2)5(4)6(7)8/h4-6H,3H2,1-2H3/t4-,5+,6-,7-/m1/s1
