21
gdb 89425	2.60226	1.535	1.25754	1.7526	83.53	-0.2364	0.0041	0.2404	1116.1136	0.18281	-387.100254	-387.091674	-387.09073	-387.132776	34.037	
C	-0.4623607748	 1.4788238242	 0.1157736145	-0.388996
C	 0.0029474722	 0.0106324882	 0.0082018721	-0.038822
C	 0.684730847	-0.2904989789	-1.34857472	-0.295017
C	 2.1656159878	 0.0454142019	-1.4163705677	 0.40078
C	 2.8483979024	-0.2306687982	-2.7361929047	-0.467402
O	 2.5726051836	 1.2549253856	-0.7675871544	-0.292367
C	 2.9238014659	-0.0132526553	-0.150301418	-0.056845
C	 2.2187111962	-0.3717307664	 1.1024317265	-0.040591
C	 0.8864506603	-0.364099992	 1.172269995	-0.092958
H	 0.3909734774	 2.1523479867	 0.0195735513	 0.148362
H	-1.1850547684	 1.7077146613	-0.6756491753	 0.10457
H	-0.9482545142	 1.6665991093	 1.0788904863	 0.106702
H	-0.8983357896	-0.6145159688	 0.0607530498	 0.075557
H	 0.5912084642	-1.3614398608	-1.5710694742	 0.102715
H	 0.1528607353	 0.2385363753	-2.1494350917	 0.100358
H	 2.3952050768	 0.366634627	-3.5354247824	 0.124207
H	 3.9094312841	 0.0251802901	-2.6809938479	 0.126472
H	 2.7553688958	-1.2861628385	-3.0131715374	 0.120244
H	 3.9909417536	-0.2250394657	-0.1930287237	 0.082983
H	 2.8246117285	-0.6378234966	 1.9633415377	 0.087889
H	 0.3917709161	-0.6057749483	 2.1099350141	 0.092158
137.0903	156.8451	197.9255	244.7209	282.5918	294.1608	347.4766	377.6848	417.983	476.825	575.542	603.2168	686.4831	746.4041	783.8216	805.9694	860.3267	889.7499	927.1503	951.444	989.1102	994.1077	1027.0747	1044.287	1049.3269	1111.7318	1127.0947	1147.1719	1192.2749	1227.9305	1262.9614	1324.3686	1334.7678	1343.1111	1388.8852	1394.4231	1410.1687	1424.3435	1456.8678	1475.0104	1487.2799	1492.5045	1503.0037	1511.636	1707.7078	3005.809	3021.893	3031.5853	3033.7475	3054.5446	3094.3998	3095.7569	3119.9535	3123.0516	3142.6261	3151.2336	3179.1899
CC1CC2(C)OC2C=C1	C[C@H]1C[C@@]2(C)O[C@H]2C=C1	
InChI=1S/C8H12O/c1-6-3-4-7-8(2,5-6)9-7/h3-4,6-7H,5H2,1-2H3	InChI=1S/C8H12O/c1-6-3-4-7-8(2,5-6)9-7/h3-4,6-7H,5H2,1-2H3/t6-,7+,8-/m1/s1
