14
gdb 129660	3.2202	1.367	0.96315	3.3472	68.98	-0.2054	-0.0645	0.1409	1125.5345	0.101436	-470.002743	-469.994435	-469.993491	-470.03557	30.247	
N	-0.1209280462	 1.389654515	-0.0882432492	-0.599191
C	-0.0635762971	 0.0150902495	-0.1038350911	 0.449266
C	-1.0226917244	-0.9406994951	 0.1109180417	-0.043361
N	-2.3529505627	-0.744234271	 0.521554948	-0.632132
C	-0.3091706033	-2.1489234211	-0.11828806	 0.277796
C	-0.8226358409	-3.5190768914	-0.0229460593	 0.091586
O	-1.9572777032	-3.7767738114	 0.3226610992	-0.281304
N	 0.9583129575	-1.9458671748	-0.4442506994	-0.222504
O	 1.1022286088	-0.5636736999	-0.4474472911	-0.205586
H	 0.7828421471	 1.8337933667	 0.0055179917	 0.268871
H	-0.7887072761	 1.7418486657	 0.5866221205	 0.270918
H	-2.7941763621	-1.6436854722	 0.6829657311	 0.267243
H	-2.897472138	-0.2374634455	-0.1691712018	 0.247206
H	-0.0974514595	-4.3105209445	-0.2941663102	 0.111191
105.29	166.8222	187.5784	210.1895	252.1221	303.1162	342.629	370.7564	431.119	513.8111	632.5051	651.5429	698.9609	722.9726	740.5586	839.1592	871.6247	968.9016	1035.3789	1039.4256	1075.9735	1264.077	1321.8517	1374.8752	1393.6384	1491.0306	1531.9579	1631.4776	1659.2644	1695.2671	1783.018	2952.9019	3498.326	3539.1108	3584.4246	3643.6795
NC1=C(N)C(C=O)=NO1	Nc1c(N)c(C=O)no1	
InChI=1S/C4H5N3O2/c5-3-2(1-8)7-9-4(3)6/h1H,5-6H2	InChI=1S/C4H5N3O2/c5-3-2(1-8)7-9-4(3)6/h1H,5-6H2
