25
gdb 110055	2.15695	1.31163	1.08047	1.5875	87.55	-0.2539	0.059	0.3129	1312.8737	0.229254	-389.511927	-389.501678	-389.500733	-389.546824	39.092	
C	-0.1598060086	 1.7541403439	 0.3420862949	-0.390327
C	-0.193243576	 0.2326955409	 0.159943718	-0.188109
C	 0.7363333278	-0.5148822903	 1.1194808349	 0.010269
C	 0.6275564196	-2.0620512432	 1.1387967756	-0.008496
C	 0.6117907196	-2.7319520311	-0.243898977	-0.398825
C	 1.8734438207	-2.4523931912	 1.9618910424	-0.216669
C	 2.9800030701	-1.4795996526	 1.4952156393	-0.236552
C	 2.2565418253	-0.2162045898	 0.9455970148	 0.127468
O	 2.64294092	 0.1098112135	-0.3876918675	-0.433799
H	 0.8334984713	 2.1495443362	 0.1127722806	 0.135264
H	-0.8772567955	 2.2459815239	-0.3223332081	 0.106515
H	-0.4117436269	 2.0379120854	 1.3704793288	 0.106109
H	-1.2179296434	-0.132902841	 0.3082491907	 0.086344
H	 0.0720663345	-0.0032525253	-0.8760209484	 0.091099
H	 0.4866188129	-0.1892253272	 2.1405502342	 0.06651
H	-0.2892649544	-2.3621131801	 1.6595815898	 0.064645
H	 1.5327047488	-2.5494881083	-0.8111505415	 0.096107
H	 0.5203114783	-3.8181606526	-0.1390023366	 0.115799
H	-0.2265808882	-2.3863200359	-0.8554200889	 0.120951
H	 1.6661073565	-2.3007291449	 3.0273072894	 0.094821
H	 2.1549506945	-3.5027971122	 1.8382390054	 0.09031
H	 3.6833079907	-1.2379426565	 2.2965865982	 0.10035
H	 3.5767083249	-1.9109890754	 0.6845193656	 0.098263
H	 2.5327181393	 0.6760021934	 1.513456455	 0.084828
H	 2.4671829083	-0.6518373595	-0.9489902199	 0.277123
70.5665	97.9695	140.9785	185.6864	213.3984	225.1943	271.8134	286.6332	308.0036	370.6249	411.5039	450.6549	526.3014	624.3572	692.8199	751.4277	805.2451	806.3445	849.1819	892.8582	941.2029	953.5517	983.7404	1010.0178	1029.6273	1047.3256	1062.1936	1079.9892	1097.0313	1156.6644	1157.8915	1196.3856	1215.112	1247.779	1277.5456	1292.0986	1305.2415	1312.2841	1326.9386	1349.4853	1360.1814	1384.5523	1395.381	1407.5795	1412.66	1442.5201	1482.6847	1485.5311	1494.6951	1498.4726	1501.9661	1506.2266	1511.2464	2985.0694	3019.7936	3025.0581	3029.9088	3031.8164	3041.4366	3049.7771	3065.4772	3069.24	3079.7903	3086.7003	3096.3171	3098.837	3107.5707	3117.4679	3819.276
CCC1C(C)CCC1O	CC[C@H]1[C@@H](C)CC[C@H]1O	
InChI=1S/C8H16O/c1-3-7-6(2)4-5-8(7)9/h6-9H,3-5H2,1-2H3	InChI=1S/C8H16O/c1-3-7-6(2)4-5-8(7)9/h6-9H,3-5H2,1-2H3/t6-,7-,8+/m0/s1
