21
gdb 47519	2.41683	1.71335	1.24829	3.14	81.36	-0.2303	-0.0074	0.2229	1075.0313	0.185673	-387.114826	-387.107188	-387.106244	-387.146794	31.057	
O	 0.0135746247	-0.0175594085	-0.4174290945	-0.321838
C	 0.0119160091	 1.1432916617	-0.0693758178	 0.389874
C	-1.3042936542	 1.8911638176	 0.1415137855	-0.296003
C	-1.4008139237	 3.2659001892	-0.5478357894	-0.210707
C	-0.5083315628	 4.3805744414	 0.028008719	-0.206614
C	 0.9801576999	 4.0431409922	 0.2057542991	 0.01237
C	 1.5585036653	 3.0515118567	-0.8453219394	-0.24438
C	 1.3181730989	 1.8793301412	 0.1688793604	-0.088686
C	 1.2685181493	 2.9627780303	 1.286924326	-0.245812
H	-2.093916243	 1.2268059724	-0.2182038482	 0.118668
H	-1.4577363779	 2.0125825372	 1.2230697133	 0.116245
H	-1.1906104039	 3.1384091271	-1.6163875673	 0.109185
H	-2.4421905147	 3.6018350527	-0.4916204751	 0.103327
H	-0.5989082812	 5.252479156	-0.631686307	 0.098241
H	-0.9050003947	 4.6961856626	 1.0027412862	 0.097375
H	 1.5392878088	 4.9748881394	 0.3283605959	 0.067982
H	 1.0819530542	 2.9898492606	-1.8264310967	 0.106135
H	 2.6307390957	 3.2005154392	-0.9935924401	 0.107474
H	 2.1069809609	 1.1283513617	 0.2273958075	 0.085348
H	 2.256927387	 3.0960926097	 1.7339757949	 0.104481
H	 0.5406996522	 2.8374915998	 2.0933231077	 0.097336
83.234	210.3854	243.7634	315.0517	323.2046	364.3796	436.761	484.5676	516.5019	652.7919	711.3592	764.8665	797.152	841.2497	864.7204	873.9488	888.9813	920.45	955.8172	985.4273	1023.1093	1043.0297	1056.0128	1101.8137	1113.2184	1148.7095	1173.4335	1186.9143	1213.3545	1247.7445	1259.443	1272.3911	1282.9136	1310.6715	1338.2346	1345.8974	1357.8855	1384.3014	1394.6975	1462.655	1476.8189	1486.3914	1496.517	1511.103	1793.9406	3011.0602	3015.2596	3031.9607	3048.2076	3054.9094	3059.2568	3068.1102	3071.4946	3099.4998	3100.3881	3109.1047	3115.7863
O=C1CCCC2CC1C2	O=C1CCC[C@@H]2C[C@H]1C2	
InChI=1S/C8H12O/c9-8-3-1-2-6-4-7(8)5-6/h6-7H,1-5H2	InChI=1S/C8H12O/c9-8-3-1-2-6-4-7(8)5-6/h6-7H,1-5H2/t6-,7+
