17
gdb 52799	1.91891	1.28187	0.85668	4.6278	83.14	-0.253	0.0089	0.262	1383.899	0.133727	-380.835698	-380.825731	-380.824787	-380.872469	34.543	
C	 0.0400007919	 1.482941114	-0.0062119443	-0.504467
C	 0.0387108899	 0.0284673629	 0.0030650871	 0.141985
C	 0.0187889654	-1.1747687809	 0.0253793339	 0.063514
C	 0.0133176261	-2.6155586087	 0.0046981852	 0.075414
C	 1.199777678	-3.2588444741	-0.6934314529	-0.465668
N	-0.5465234104	-3.2683650048	 1.2049715021	-0.32823
C	-1.3056937124	-3.3539210834	-0.054601516	-0.236465
C	-2.5698683175	-2.6622097687	-0.1090919217	 0.341892
N	-3.5883333663	-2.122486004	-0.1944995129	-0.335468
H	 0.7238470545	 1.8741128582	-0.7671444619	 0.150817
H	-0.9603356289	 1.8731089821	-0.2216252042	 0.162804
H	 0.3538849804	 1.8835798911	 0.9636660194	 0.155356
H	 2.1258837981	-3.0035912573	-0.1697158527	 0.143183
H	 1.1007656896	-4.3490782426	-0.7147196656	 0.116516
H	 1.2846181461	-2.8983523374	-1.7222032566	 0.145966
H	-0.0739334208	-4.1549558412	 1.3706085285	 0.242657
H	-1.3008077137	-4.292931375	-0.6025770276	 0.130193
14.5668	63.5808	112.5787	154.8708	176.63	224.1122	305.3908	311.1723	339.274	369.9612	461.3298	537.6885	583.1464	595.1842	632.4441	782.4753	863.9013	930.4966	960.0626	1015.4319	1050.5398	1052.4733	1064.9551	1083.9108	1142.1819	1204.9367	1257.7188	1371.436	1412.343	1413.5252	1422.8802	1474.6833	1476.3118	1479.3195	1499.6924	2362.9805	2376.1643	3030.9218	3036.3856	3093.498	3096.3143	3109.6402	3119.1097	3141.0618	3492.0215
CC#CC1(C)NC1C#N	CC#C[C@@]1(C)N[C@H]1C#N	
InChI=1S/C7H8N2/c1-3-4-7(2)6(5-8)9-7/h6,9H,1-2H3	InChI=1S/C7H8N2/c1-3-4-7(2)6(5-8)9-7/h6,9H,1-2H3/t6-,7+/m0/s1
