19
gdb 124552	3.6785	0.96158	0.91508	3.5099	79.3	-0.2134	0.0193	0.2327	1375.6625	0.15891	-419.218889	-419.209562	-419.208617	-419.253198	34.71	
C	-0.0474921369	 1.5888811947	 0.1844394738	-0.388717
C	-0.0381780698	 0.0597173106	 0.0157813801	-0.076307
C	 0.8788083525	-0.613951222	 1.0511931853	-0.388849
C	-1.4330168174	-0.5011175462	 0.0788180008	 0.422701
N	-1.9260032517	-1.1136009136	-0.9717918324	-0.237698
O	-3.2314437878	-1.511680575	-0.5892270413	-0.218494
C	-3.4496163034	-1.1152049053	 0.6693876054	 0.489118
N	-4.7029756234	-1.3715411393	 1.1723681117	-0.594297
C	-2.3533158339	-0.4673547052	 1.1653603901	-0.444942
H	 0.9665082444	 1.9902343064	 0.0879300943	 0.113248
H	-0.6777536671	 2.0655918633	-0.5716072469	 0.126725
H	-0.4283273434	 1.8764855883	 1.17048414	 0.113756
H	 0.3392557427	-0.1754754403	-0.9854833568	 0.09905
H	 0.5386940359	-0.4121505713	 2.0728609311	 0.113024
H	 0.9023445922	-1.6985549193	 0.9120562712	 0.124761
H	 1.9017824893	-0.234897838	 0.9594349729	 0.113794
H	-5.1825033345	-2.133073381	 0.7132013009	 0.266364
H	-4.7507644266	-1.4304418881	 2.1781920296	 0.264108
H	-2.227315851	-0.0318062388	 2.1418671501	 0.102655
46.2464	116.2263	170.8276	220.8493	250.5195	267.1153	271.9831	307.5926	395.241	446.5569	490.951	575.6593	607.4215	698.1668	731.2098	742.7331	768.8269	883.3396	908.4311	933.3107	968.1316	1005.0189	1032.7701	1064.0375	1090.9986	1122.7389	1184.58	1202.0504	1343.8675	1346.0486	1370.8007	1397.4891	1418.0706	1475.6023	1486.7374	1490.0381	1501.6124	1513.2314	1544.0497	1625.0367	1671.7959	3030.8978	3034.6144	3049.6155	3096.7363	3104.3347	3111.969	3114.2222	3274.9826	3571.5638	3676.6418
CC(C)C1=NOC(N)=C1	CC(C)c1noc(N)c1	
InChI=1S/C6H10N2O/c1-4(2)5-3-6(7)9-8-5/h3-4H,7H2,1-2H3	InChI=1S/C6H10N2O/c1-4(2)5-3-6(7)9-8-5/h3-4H,7H2,1-2H3
