18
gdb 120601	4.11577	0.73123	0.70022	4.1751	74.37	-0.2731	0.0153	0.2884	1609.9376	0.145547	-439.071573	-439.06167	-439.060726	-439.106976	35.306	
O	-0.1244731329	 1.4399602812	 0.0546074019	-0.417938
C	-0.0588029684	 0.0344802231	 0.2274243625	-0.069152
C	-1.3640332695	-0.5520160627	-0.3030886985	-0.202154
C	-1.3968068362	-2.0597027659	-0.1809789247	-0.05194
C	-1.8081171014	-2.7357270358	 1.1042172385	-0.341342
C	-2.7249846451	-2.7854029019	-0.1086263352	 0.228421
O	-3.8682450255	-1.9863434294	-0.1297507464	-0.439807
C	-2.8569788447	-4.045335095	-0.8111584138	 0.246188
N	-2.9797884691	-5.057255237	-1.3581896002	-0.343667
H	 0.6996131104	 1.8226233256	 0.3691921305	 0.288036
H	 0.7948075031	-0.3976949187	-0.320407412	 0.086576
H	 0.0659507338	-0.236362457	 1.2884068455	 0.088158
H	-2.2031883522	-0.1097061935	 0.2395969907	 0.125415
H	-1.4780571677	-0.259179203	-1.3527668589	 0.120887
H	-0.6385230438	-2.58292856	-0.7570781555	 0.115731
H	-1.3079623708	-3.6456379664	 1.4144063406	 0.137037
H	-2.1626933479	-2.0999611831	 1.9088902357	 0.130799
H	-4.546189602	-2.4105572207	 0.4088436893	 0.29875
61.3005	85.4505	104.5449	148.963	196.112	257.5093	263.2174	316.5999	325.2775	391.0728	425.2998	506.5323	580.544	615.2428	700.1267	795.655	851.2591	895.7529	918.3734	959.02	1010.4381	1058.7459	1079.1779	1088.3102	1109.0326	1180.2797	1224.5108	1239.6343	1250.3607	1269.9888	1308.1747	1326.0962	1357.0485	1419.6202	1463.8472	1475.433	1495.7652	1528.4278	2346.7903	2960.7667	2987.5572	3053.8593	3109.2093	3136.3671	3150.4221	3231.9555	3796.1148	3831.8471
OCCC1CC1(O)C#N	OCC[C@H]1C[C@]1(O)C#N	
InChI=1S/C6H9NO2/c7-4-6(9)3-5(6)1-2-8/h5,8-9H,1-3H2	InChI=1S/C6H9NO2/c7-4-6(9)3-5(6)1-2-8/h5,8-9H,1-3H2/t5-,6-/m0/s1
