15
gdb 20813	6.19109	1.23888	1.11003	1.9095	64.	-0.2463	0.0005	0.2467	1062.2143	0.119076	-399.808065	-399.800551	-399.799607	-399.840438	27.399	
C	 0.1364237805	 1.5921562533	-0.0824238936	-0.375469
C	-0.0439927987	 0.0718150376	 0.0717093047	-0.293553
C	 0.5729271196	-0.4650744247	 1.3189531946	 0.472126
C	 0.0643774506	-1.05765459	 2.4325338007	-0.447939
C	 1.2189159785	-1.3004506902	 3.2255033967	 0.474002
O	 1.2193381632	-1.8806338733	 4.435718196	-0.418441
N	 2.3254927272	-0.8942734263	 2.6521107611	-0.261184
O	 1.911558297	-0.3572774067	 1.4258658155	-0.223595
H	 1.1966417359	 1.8568845323	-0.0949218818	 0.142228
H	-0.3156320092	 1.9367853773	-1.0166225805	 0.119352
H	-0.3365940226	 2.1280072653	 0.745729909	 0.126868
H	-1.1067882761	-0.1875623595	 0.079683443	 0.12054
H	 0.4021033259	-0.4381533586	-0.7907715693	 0.130356
H	-0.9607400726	-1.2912410508	 2.6627287656	 0.123442
H	 2.136216261	-1.9190036257	 4.7397513083	 0.311266
46.6694	133.6755	200.351	276.9617	315.6618	407.9128	455.0282	465.9238	589.7641	682.8138	729.6309	753.6335	785.5246	805.463	953.092	960.7976	1012.8862	1049.3957	1074.5602	1090.7543	1160.9576	1230.3471	1264.233	1340.5189	1350.1221	1409.3335	1476.3854	1496.516	1505.6021	1540.8362	1555.935	1659.9381	3037.966	3046.7983	3088.3305	3118.6163	3130.0847	3286.2671	3778.8846
CCC1=CC(O)=NO1	CCc1cc(O)no1	
InChI=1S/C5H7NO2/c1-2-4-3-5(7)6-8-4/h3H,2H2,1H3,(H,6,7)	InChI=1S/C5H7NO2/c1-2-4-3-5(7)6-8-4/h3H,2H2,1H3,(H,6,7)
