17
gdb 35611	2.33145	1.75474	1.19184	2.2168	79.57	-0.2168	0.0169	0.2337	1056.0726	0.136405	-380.829049	-380.821032	-380.820087	-380.861668	31.176	
C	-0.1180469158	-1.2532567049	 0.187130233	-0.485409
C	-0.0525682669	-0.0573922799	 0.0800066149	 0.354917
C	 0.0092222501	 1.3980342885	-0.04815616	-0.254443
N	-0.591003215	 2.0925171402	 1.1121300478	-0.306357
C	 0.4686903702	 2.6341743691	 1.8329168722	 0.045642
N	 1.6147090414	 2.6507225752	 1.2733316929	-0.280155
C	 1.4498574259	 1.9922966558	-0.0034437949	 0.374648
C	 2.6309414274	 1.3306096807	-0.6485223886	-0.315459
C	 2.0850807147	 2.6173653589	-1.2199067449	-0.310225
H	-0.1679111095	-2.3100520448	 0.2820495145	 0.203518
H	-0.5059518656	 1.6953651165	-0.9685124705	 0.116061
H	-1.3075034495	 1.5935198803	 1.6208456993	 0.247124
H	 0.2709624951	 3.0631345003	 2.810579629	 0.125892
H	 3.5653352713	 1.3723885547	-0.1011656518	 0.126414
H	 2.4556555683	 0.4075636848	-1.1902928134	 0.121222
H	 1.5384522728	 2.5739761529	-2.1569697931	 0.11098
H	 2.6496263052	 3.5283361716	-1.0588125265	 0.125629
66.6528	135.0787	196.244	287.212	304.3546	355.6054	462.5553	491.0021	571.1788	592.1539	624.4815	625.8249	662.6348	773.7854	818.6628	841.9526	902.833	923.5111	937.9497	974.0326	992.6583	1018.3219	1046.6573	1056.6161	1077.91	1111.469	1191.2658	1221.1883	1241.6329	1336.589	1350.5205	1361.3962	1414.4364	1454.1731	1494.7647	1688.6835	2230.3495	3033.3074	3128.0725	3138.2729	3190.0901	3218.3376	3233.5461	3500.5761	3596.5385
C#CC1NC=NC11CC1	C#C[C@H]1N[CH][N]C21CC2	
InChI=1S/C7H8N2/c1-2-6-7(3-4-7)9-5-8-6/h1,5-6H,3-4H2,(H,8,9)	InChI=1S/C7H8N2/c1-2-6-7(3-4-7)9-5-8-6/h1,5-6H,3-4H2,(H,8,9)/t6-/m1/s1
