16
gdb 55376	3.28803	1.345	1.20502	5.9998	64.	-0.2493	0.0184	0.2678	1042.5057	0.12589	-475.036159	-475.028744	-475.0278	-475.068622	28.028	
O	-0.2066111299	-0.0246205156	 0.1904754084	-0.357646
C	-0.054573966	 1.2813380092	-0.0439064096	 0.435557
O	 1.0094141435	 1.8174007846	-0.197491433	-0.348318
C	-1.3841902636	 2.0588385112	-0.0600162798	-0.168377
N	-2.5326704745	 1.1481656543	-0.2316742868	-0.337504
H	-2.7633931547	 1.0041423223	-1.2065586942	 0.242662
H	-1.1768612598	-0.1585718042	 0.2602188514	 0.307392
C	-3.6862146568	 1.6376290071	 0.551089168	-0.196931
C	-3.0462289262	 2.4465106745	 1.6569763603	 0.048671
O	-1.9715925232	 1.7646022158	 2.3120171914	-0.245505
C	-1.6545377962	 2.7132596387	 1.2871748133	 0.045317
H	-1.2999642961	 2.844083789	-0.8222873515	 0.104548
H	-4.3542015093	 2.2950607039	-0.0254633154	 0.107102
H	-4.276912013	 0.7946427282	 0.9252058453	 0.127988
H	-3.6448299256	 3.1080839076	 2.2760139964	 0.110865
H	-1.0838596784	 3.5844120934	 1.5902177658	 0.124178
66.6535	123.4539	184.0574	298.4872	355.3026	400.3714	463.6742	601.7493	663.5408	673.567	741.2549	813.9471	837.224	857.6217	879.1339	918.0466	944.3975	967.3903	993.7352	1037.3759	1078.2921	1110.53	1119.2641	1217.8289	1230.4268	1253.8944	1268.1342	1298.7036	1310.3291	1358.7109	1420.0645	1435.8413	1446.3961	1507.5896	1873.2376	2996.3103	3030.1823	3067.6024	3164.0701	3184.9838	3498.4141	3567.6367
[O-]C(=O)C1[NH2+]CC2OC12	OC(=O)[C@H]1NC[C@H]2O[C@@H]12	
InChI=1S/C5H7NO3/c7-5(8)3-4-2(9-4)1-6-3/h2-4,6H,1H2,(H,7,8)	InChI=1S/C5H7NO3/c7-5(8)3-4-2(9-4)1-6-3/h2-4,6H,1H2,(H,7,8)/t2-,3+,4-/m1/s1
