17
gdb 85576	2.82362	1.41937	1.08035	1.1361	68.67	-0.2455	-0.035	0.2105	1107.889	0.137363	-455.212721	-455.204302	-455.203358	-455.246248	31.254	
C	 0.7020175055	 1.4277953171	-0.120391755	-0.394751
C	 0.0069218691	 0.0616242458	 0.0453669605	-0.082181
N	 0.2246658441	-0.8561077789	-1.069421888	-0.343769
C	 1.4190170902	-1.5344982399	-1.2440768097	 0.411094
O	 1.8218612263	-1.9184676497	-2.3243344602	-0.398651
N	 2.1060090235	-1.7365876589	-0.0577571429	-0.34541
C	 1.395114153	-1.7841123828	 1.2092729135	-0.27103
C	 0.46077069	-0.5883098353	 1.354442243	 0.409117
O	 0.0999186892	-0.177961644	 2.4280388688	-0.306064
H	 1.7847541041	 1.3035889306	-0.2136207042	 0.1394
H	 0.3342356065	 1.929955486	-1.019962246	 0.123454
H	 0.4913110692	 2.0605878994	 0.7456999125	 0.143678
H	-1.0712669307	 0.2257568194	 0.1439165083	 0.120688
H	-0.1919471829	-0.5977541487	-1.9523358025	 0.252704
H	 2.8817468563	-2.3718119383	-0.172223288	 0.256668
H	 0.7753609662	-2.690700393	 1.3187542929	 0.138604
H	 2.1028094107	-1.7707115588	 2.0412619172	 0.14645
48.6673	110.7778	176.4713	228.861	252.1349	371.9615	425.2056	432.5935	457.5841	530.8595	585.8573	619.8323	642.5628	713.1007	784.244	798.0476	905.8876	926.5391	992.6223	1040.9623	1081.9706	1096.2146	1160.9802	1216.3565	1248.0469	1268.4192	1319.3579	1351.0792	1394.5342	1421.2896	1448.4247	1451.8551	1489.1474	1492.0914	1504.167	1819.5901	1836.1212	2963.0359	3042.9396	3056.3749	3104.0092	3119.4023	3130.9847	3611.8941	3622.4944
CC1NC(=O)NCC1=O	C[C@H]1NC(=O)NCC1=O	
InChI=1S/C5H8N2O2/c1-3-4(8)2-6-5(9)7-3/h3H,2H2,1H3,(H2,6,7,9)	InChI=1S/C5H8N2O2/c1-3-4(8)2-6-5(9)7-3/h3H,2H2,1H3,(H2,6,7,9)/t3-/m1/s1
