16
gdb 133114	2.53312	1.58139	0.98068	0.85	77.53	-0.2031	-0.0103	0.1928	1148.7404	0.125364	-442.093815	-442.085724	-442.084779	-442.126739	29.886	
C	 0.0161308981	 1.458830032	 0.048750181	-0.311842
N	-0.0818548922	 0.0200950974	-0.0948310049	-0.359282
C	 0.5677985446	-0.6481442211	-1.0964485762	 0.305303
N	 1.123919185	 0.0410553718	-2.0934524531	-0.352655
C	 1.7169871703	-0.6392857536	-3.0844723236	-0.010653
C	 1.8021649822	-2.0200975581	-3.1381478313	-0.141881
C	 1.2327911282	-2.7532909743	-2.0872395499	-0.197352
C	 0.6199575226	-2.0590209203	-1.0774332628	 0.200904
F	 0.0555374183	-2.6951055852	-0.0327847611	-0.095359
H	 1.0341920145	 1.7945342064	 0.2897825766	 0.123373
H	-0.2798910132	 1.9464919935	-0.8824453859	 0.151325
H	-0.6597793234	 1.7762557443	 0.8458533995	 0.119862
H	-0.2958439847	-0.5241967275	 0.7235214045	 0.249993
H	 2.1502860792	-0.0314957475	-3.8748464289	 0.104307
H	 2.2981178923	-2.517724871	-3.9622361592	 0.098508
H	 1.2625596482	-3.8364190367	-2.0514131948	 0.115449
98.3936	108.8477	179.9691	196.3474	317.2254	323.2116	411.8188	470.2372	528.2049	546.0993	585.0963	615.3242	774.5555	789.6627	805.6332	875.7901	941.3191	964.7011	1070.1337	1090.5082	1102.5843	1153.4419	1173.3747	1217.3872	1284.8017	1320.0067	1376.1919	1449.0241	1460.9976	1478.6061	1497.3808	1516.8752	1560.4198	1615.7129	1660.9275	3009.8762	3093.8625	3136.3642	3157.7813	3196.8254	3212.828	3660.1692
CNC1=NC=CC=C1F	CNc1ncccc1F	
InChI=1S/C6H7FN2/c1-8-6-5(7)3-2-4-9-6/h2-4H,1H3,(H,8,9)	InChI=1S/C6H7FN2/c1-8-6-5(7)3-2-4-9-6/h2-4H,1H3,(H,8,9)
