17
gdb 22334	2.83658	1.31113	1.02535	2.9564	75.02	-0.2498	-0.0422	0.2076	1178.4835	0.135754	-455.122622	-455.114119	-455.113175	-455.156086	31.811	
C	 0.6603069123	 1.3818579657	-0.1123053075	-0.392377
C	-0.0691486051	 0.05106672	 0.0216380648	 0.104375
C	 0.1858796375	-0.9242389085	-1.1430062852	-0.315101
C	 1.3042184415	-1.7781586791	-0.6010918583	 0.303234
N	 2.0712167776	-2.4345859044	-1.382412723	-0.216364
O	 3.0429497659	-3.1724006547	-0.7384453858	-0.345996
C	 1.2876135414	-1.6423870856	 0.880367167	 0.356761
N	 1.9376322906	-2.3198045379	 1.7282089945	-0.522125
O	 0.4045221311	-0.6460010748	 1.2009650646	-0.255391
H	 1.7260039026	 1.2240647666	-0.3087623413	 0.131563
H	 0.2400075875	 1.9630738413	-0.9393545389	 0.12221
H	 0.5612391851	 1.9646942071	 0.807112184	 0.133329
H	-1.1366299475	 0.2224836033	 0.1830275935	 0.096392
H	-0.7015830124	-1.5394964961	-1.3305570169	 0.131405
H	 0.4504616472	-0.4219620195	-2.0748222818	 0.131887
H	 3.5175405703	-3.5719720354	-1.4768434177	 0.312297
H	 1.7149064143	-1.9945773781	 2.6720374682	 0.2239
58.2459	100.5961	222.635	245.1011	273.0438	331.1623	345.4446	406.2487	436.7142	502.2413	512.9369	670.2123	725.6764	739.1209	756.83	844.1435	892.042	920.5054	945.7594	1030.6402	1033.6334	1070.5768	1098.8109	1122.8913	1199.9696	1217.0136	1294.2561	1297.7194	1363.4354	1388.816	1411.3744	1429.0018	1476.1566	1489.3203	1494.4894	1733.0688	1745.6173	3037.9456	3042.1237	3073.0245	3111.9503	3119.0839	3124.8623	3457.9303	3796.8147
CC1CC(=NO)C(=N)O1	C[C@H]1CC(=NO)[C]([NH])O1	
InChI=1S/C5H8N2O2/c1-3-2-4(7-8)5(6)9-3/h3,6,8H,2H2,1H3	InChI=1S/C5H8N2O2/c1-3-2-4(7-8)5(6)9-3/h3,6,8H,2H2,1H3/t3-/m0/s1
