15
gdb 72015	2.62251	1.98197	1.48169	3.5451	64.46	-0.2279	-0.0209	0.207	885.296	0.112695	-457.718339	-457.711513	-457.710569	-457.749352	27.404	
O	-0.0459806989	 1.4266184381	-0.1045899005	-0.467954
C	 0.0199545521	 0.0494400966	-0.1033368886	 0.375752
C	 0.4662123242	-0.8544155571	-1.2708348891	-0.314567
C	-0.2762496955	-1.9163031437	-0.4342080646	 0.08352
O	 0.5816446248	-2.0564988921	 0.7245296253	-0.268237
C	 0.4227224867	-0.7272034163	 1.2381787231	-0.13918
C	-1.0894110339	-0.7242836962	 1.5662354593	 0.472561
O	-1.7706768858	-0.5313866736	 2.5260089815	-0.314639
C	-1.301007543	-0.8231421196	 0.061138342	-0.252325
H	 0.836667388	 1.7837721109	 0.0460077899	 0.293035
H	-0.0696201503	-0.5886735892	-2.1846400452	 0.119021
H	 1.5285580505	-1.0220708383	-1.463308139	 0.107557
H	-0.5845905301	-2.8864942672	-0.8137816513	 0.102231
H	 1.2221599655	-0.4379203013	 1.9168920562	 0.097731
H	-2.2281363844	-0.6519798209	-0.4774179791	 0.105494
128.8559	238.5388	288.2443	344.1915	375.5149	483.7645	517.7933	556.05	604.4927	645.142	753.9615	799.1085	829.8772	855.4627	895.9214	935.9267	963.5531	999.8555	1016.5619	1050.0532	1076.0677	1096.6733	1136.8998	1142.7478	1192.3488	1211.9384	1229.2958	1243.5379	1290.9901	1313.9881	1364.7351	1484.9287	1909.2867	3066.0329	3133.947	3152.9007	3163.38	3177.1497	3797.7345
OC12CC3OC1C(=O)C23	O[C@@]12C[C@H]3O[C@@H]1C(=O)[C@@H]23	
InChI=1S/C6H6O3/c7-4-3-2-1-6(3,8)5(4)9-2/h2-3,5,8H,1H2	InChI=1S/C6H6O3/c7-4-3-2-1-6(3,8)5(4)9-2/h2-3,5,8H,1H2/t2-,3+,5-,6-/m1/s1
