15
gdb 54624	4.12857	1.05241	0.84303	15.0476	72.79	-0.1797	-0.0746	0.1051	1272.9255	0.112487	-453.972568	-453.963916	-453.962972	-454.006712	31.082	
O	-0.0271650751	-0.0445659389	 0.0020857558	-0.463091
C	 0.0491974659	 1.1918156302	 0.0066346745	 0.30663
O	 0.987695941	 2.0103209693	 0.0036353311	-0.475657
C	-1.3260538781	 1.8977851187	 0.018635783	 0.242921
C	-2.569060061	 1.356209442	 0.026155893	-0.310809
C	-3.522988651	 2.4259460331	 0.0364436466	 0.527028
N	-4.8541120136	 2.3016392912	 0.0458528716	-0.579815
H	-5.2648923706	 1.3841156259	 0.0460273699	 0.299341
H	-5.4748910285	 3.0928776398	 0.0527738774	 0.281844
N	-2.8899294543	 3.6017851343	 0.0352707074	-0.345243
C	-1.439570712	 3.387886732	 0.0239902363	-0.258304
H	-2.796536475	 0.3005297797	 0.0245362645	 0.146089
H	-3.3421794729	 4.5013637523	 0.0411882741	 0.270224
H	-0.9535641353	 3.8197323345	 0.9044388358	 0.179449
H	-0.9664720394	 3.8253454761	-0.860721671	 0.179395
33.9195	125.7554	150.1649	196.1838	243.2559	337.2497	372.8076	384.5742	398.0532	511.6065	520.6094	695.7716	710.8077	758.1282	765.3977	891.9897	903.9419	952.44	972.5556	996.603	1037.1229	1078.6425	1134.024	1196.3749	1294.8728	1305.3008	1379.5546	1428.6938	1495.3517	1575.6312	1634.6019	1690.8446	1762.6876	3071.4609	3110.4654	3253.2627	3618.832	3648.0982	3738.4283
[O-]C(=O)C1=CC(=[NH2+])NC1	O=C([O])[C]1C=C(N)NC1	
InChI=1S/C5H6N2O2/c6-4-1-3(2-7-4)5(8)9/h1H,2H2,(H2,6,7)(H,8,9)	InChI=1S/C5H6N2O2/c6-4-1-3(2-7-4)5(8)9/h1,7H,2,6H2
