25
gdb 100685	2.29743	1.09085	0.91512	1.6876	85.37	-0.2498	0.0673	0.3171	1467.0666	0.224851	-426.625327	-426.613396	-426.612452	-426.662098	43.691	
C	-0.0477755521	 1.5575565251	 0.1615386675	-0.383481
C	-0.0030800975	 0.031824633	 0.0343646606	-0.208474
C	-1.3987116735	-0.5881591071	-0.0866352513	 0.116806
O	-2.0681757355	-0.1447915028	-1.2660200656	-0.438376
C	-1.4258022921	-2.1429662618	 0.0213828676	 0.354671
C	-2.8882341421	-2.6105122934	 0.0117520493	-0.434257
C	-0.6391227847	-2.8055986563	-1.1201411301	-0.442242
O	-0.8085031665	-2.3862791237	 1.2928667024	-0.27978
C	-0.7316647132	-3.7197199223	 1.7424745966	-0.242631
H	 0.9604599023	 1.9816816352	 0.1919314785	 0.107329
H	-0.5833600835	 2.0061852201	-0.6800007011	 0.120194
H	-0.564474411	 1.8585406247	 1.0794694856	 0.116531
H	 0.5919367859	-0.2463614497	-0.8479090784	 0.079349
H	 0.4981645671	-0.4124315501	 0.8978843494	 0.122081
H	-2.0140727213	-0.21802814	 0.742804737	 0.086938
H	-1.4479590814	-0.2144566354	-1.9995174009	 0.279511
H	-3.396778116	-2.1979604539	-0.8618810573	 0.136262
H	-2.970338483	-3.7005564214	-0.026281744	 0.105373
H	-3.4028041336	-2.2546686821	 0.9099002992	 0.116466
H	 0.4253847958	-2.5632587605	-1.0629508862	 0.121888
H	-0.742806277	-3.8938501326	-1.0973768687	 0.117172
H	-1.0257075443	-2.4706350582	-2.087650598	 0.110907
H	-0.2299368279	-3.6897507278	 2.7133940388	 0.125525
H	-1.7206187523	-4.1782442411	 1.8796724439	 0.107873
H	-0.1428496329	-4.360682368	 1.0714163551	 0.104365
63.6801	77.4334	97.6681	168.9776	187.2798	218.7824	232.3118	259.7714	265.5672	285.2297	312.8513	331.2903	344.1843	385.1773	413.2949	466.4055	512.6545	594.7498	747.9656	787.4586	846.0579	913.078	920.2029	989.6103	994.1814	1000.4556	1062.725	1097.0981	1102.7786	1129.0623	1181.4361	1183.4296	1200.2755	1219.4528	1254.5755	1283.6649	1328.8531	1331.3688	1386.6743	1388.4444	1404.5668	1410.4048	1415.4932	1476.4257	1483.3103	1484.4373	1489.0174	1497.4899	1502.0878	1504.2671	1509.6921	1516.0218	1519.0147	2995.1399	3002.6933	3035.4155	3038.2712	3040.222	3047.5416	3048.2479	3095.4041	3103.5683	3105.8454	3109.3968	3112.8161	3118.8943	3123.3562	3136.4835	3806.34
CCC(O)C(C)(C)OC	CC[C@@H](O)C(C)(C)OC	
InChI=1S/C7H16O2/c1-5-6(8)7(2,3)9-4/h6,8H,5H2,1-4H3	InChI=1S/C7H16O2/c1-5-6(8)7(2,3)9-4/h6,8H,5H2,1-4H3/t6-/m1/s1
