17
gdb 10928	5.61948	1.37221	1.26836	1.384	74.8	-0.2494	0.0441	0.2935	994.0996	0.141507	-326.657226	-326.649433	-326.648489	-326.689024	29.869	
C	 0.0455956507	 1.5602807312	 0.0297221621	-0.484335
C	-0.0422317195	 0.0651636912	 0.0781093172	 0.350475
C	-1.3388488111	-0.7605927517	 0.0049725598	-0.308174
C	-0.689781286	-1.8214246241	 0.9754600938	-0.186474
C	-0.5501833585	-3.1849327961	 0.4986607522	 0.321718
C	-0.4171902452	-4.2999708506	 0.0662959481	-0.463908
C	 0.5903401973	-0.948432607	 0.9924575916	-0.093868
N	 1.1017971619	-0.734243077	-0.3515434862	-0.354124
H	 1.062186905	 1.8888768685	 0.2601060762	 0.134515
H	-0.2094792773	 1.9346057949	-0.9690152183	 0.122545
H	-0.6443127615	 2.0207435276	 0.7450534738	 0.115357
H	-2.2000294188	-0.2697937896	 0.4647135284	 0.110301
H	-1.6217451122	-1.1219454207	-0.9880128644	 0.105901
H	-1.1943008792	-1.8057444572	 1.9460972781	 0.10681
H	-0.3040036752	-5.2908329577	-0.2985285888	 0.197664
H	 1.2658435585	-0.8388259994	 1.8337369823	 0.096036
H	 0.8655568911	-1.4958003824	-0.9866542661	 0.22956
95.5183	141.9777	200.8049	251.4722	312.9692	361.4673	436.3552	496.2193	569.4754	622.2931	634.2761	659.3692	741.4837	795.3698	842.9078	919.4201	931.8569	968.1301	993.7854	1030.9488	1062.2106	1099.1971	1125.5292	1131.4914	1196.7549	1205.5646	1240.7797	1266.6312	1296.5544	1329.237	1403.5429	1453.6846	1484.7131	1487.4401	1496.3167	2228.4663	3028.5783	3055.4068	3062.7901	3087.4279	3113.4199	3121.2022	3173.159	3455.3983	3502.8916
CC12CC(C#C)C1N2	C[C@]12C[C@@H](C#C)[C@H]1N2	
InChI=1S/C7H9N/c1-3-5-4-7(2)6(5)8-7/h1,5-6,8H,4H2,2H3	InChI=1S/C7H9N/c1-3-5-4-7(2)6(5)8-7/h1,5-6,8H,4H2,2H3/t5-,6-,7+/m1/s1
