16
gdb 44587	3.48425	1.77098	1.4163	3.2611	75.74	-0.2396	-0.0383	0.2013	911.9079	0.126777	-400.698199	-400.691879	-400.690935	-400.728701	26.094	
N	-0.2163214459	 1.2318383998	 0.3070278753	-0.546189
C	-0.1709912507	 0.0458188265	-0.1027113905	 0.397731
O	 0.9593471808	-0.7836216743	-0.0575455037	-0.259206
C	 0.7332790082	-1.9395115899	-0.8826348035	 0.083091
C	-0.3619680012	-3.0576429603	-0.7529217243	-0.082565
C	-1.4974484615	-3.0957497853	 0.2719968357	-0.270003
C	-1.8238320124	-1.6172702	 0.3928447156	-0.073327
C	-1.2144967789	-0.9066180128	-0.5743625408	 0.004037
C	-0.5511778746	-1.8191956621	-1.5935692301	-0.157759
H	 0.6913050104	 1.5196741474	 0.6768819709	 0.228323
H	 1.6601984251	-2.2497360286	-1.3503055018	 0.11426
H	-0.0462730164	-3.9899967527	-1.2145790969	 0.090013
H	-2.3170749814	-3.7432494064	-0.0711357234	 0.119042
H	-1.1944969184	-3.4702886167	 1.257853617	 0.125395
H	-2.1683126214	-1.1802566372	 1.3241007922	 0.126622
H	-0.7180147518	-1.7378295575	-2.6615068918	 0.100535
148.809	231.3875	319.6628	403.241	466.3308	606.2276	669.9939	683.8168	712.6494	767.1892	772.1859	817.3169	858.8288	866.5813	894.2423	916.0322	922.3299	973.1886	977.8356	1016.3491	1033.1099	1065.9543	1092.9256	1119.3017	1155.876	1199.8259	1243.4801	1249.9031	1294.2847	1312.3628	1347.1119	1393.7983	1473.6233	1615.5604	1802.0717	3004.4872	3048.8	3146.0563	3169.4638	3188.1671	3193.5468	3474.6084
N=C1OC2C3CC=C1C23	[NH][C]1O[C@H]2[C@H]3C[CH][C]1[C@@H]23	
InChI=1S/C7H7NO/c8-7-4-2-1-3-5(4)6(3)9-7/h2-3,5-6,8H,1H2	InChI=1S/C7H7NO/c8-7-4-2-1-3-5(4)6(3)9-7/h2-3,5-6,8H,1H2/t3-,5-,6-/m0/s1
