14
gdb 15516	3.73513	1.93194	1.30475	6.71	60.06	-0.2502	-0.0112	0.239	877.4547	0.109155	-415.924733	-415.917589	-415.916645	-415.956506	25.26	
O	-0.1924080627	 0.037657023	-0.2653063654	-0.271796
C	-0.0321994544	 1.2234481113	-0.1601523564	 0.15793
N	 1.1739683072	 1.8861421423	-0.0123033877	-0.146721
C	 1.2573731616	 3.3354841328	 0.1672815685	-0.173899
C	 2.7445917686	 3.6216460445	-0.1150276824	-0.175459
N	 3.3464201179	 2.3440282001	 0.2273301444	-0.357759
C	 2.4629229518	 1.2883476108	 0.0762628227	 0.480294
O	 2.7305565453	 0.1185991274	 0.0431618366	-0.36295
H	-0.8687906732	 1.9534560746	-0.1820757488	 0.075959
H	 0.592208183	 3.8640029127	-0.5189329921	 0.133524
H	 0.9959291914	 3.6162301965	 1.1946216545	 0.131561
H	 2.9039087907	 3.887741764	-1.1695153691	 0.119428
H	 3.1267442614	 4.4340377491	 0.5078727979	 0.12798
H	 4.3150386214	 2.146852671	 0.0314003872	 0.261906
80.0978	191.5695	206.4851	212.0724	227.1746	473.265	483.2171	525.5644	705.6808	731.1707	768.6746	808.1844	901.8536	966.3709	1030.3445	1083.4827	1127.5979	1181.1604	1208.408	1234.2299	1246.2397	1325.5505	1347.9379	1408.2744	1440.015	1458.2752	1517.8378	1534.1503	1809.0566	1895.8247	2907.7907	3003.1914	3030.9665	3090.2333	3105.606	3646.0077
O=CN1CCNC1=O	O=CN1CCNC1=O	
InChI=1S/C4H6N2O2/c7-3-6-2-1-5-4(6)8/h3H,1-2H2,(H,5,8)	InChI=1S/C4H6N2O2/c7-3-6-2-1-5-4(6)8/h3H,1-2H2,(H,5,8)
