16
gdb 14709	5.26762	0.81346	0.78041	2.8463	69.41	-0.257	-0.0292	0.2278	1443.9003	0.129906	-417.080575	-417.071799	-417.070855	-417.115213	30.089	
O	 0.2063761629	 1.1254232118	 0.0927459917	-0.419853
C	 0.1262876763	-0.2488627927	 0.4182279895	-0.04668
C	-1.2206092421	-0.8599244695	 0.0209094879	-0.153511
N	-1.3848310926	-0.7830422155	-1.4206969641	-0.250666
C	-2.4028292106	-0.1741594207	-1.8643730774	 0.110395
N	-2.6158042943	-0.0585905423	-3.2319190104	-0.305507
C	-3.6992694151	 0.5808384914	-3.7923490222	 0.161033
O	-4.5789605947	 1.1217159423	-3.1671509813	-0.291431
H	 0.0980313461	 1.1901678629	-0.86241449	 0.283822
H	 0.935302082	-0.8239604556	-0.0572664436	 0.094372
H	 0.2533567244	-0.3196163626	 1.5031195508	 0.109575
H	-1.2257682398	-1.9169766373	 0.3183578928	 0.106893
H	-2.0298939832	-0.3469128565	 0.5643855448	 0.097372
H	-3.1888302647	 0.2949263809	-1.2667061612	 0.144089
H	-1.9288954593	-0.4926231004	-3.8327044178	 0.265561
H	-3.6679017354	 0.5402092938	-4.8971895793	 0.094538
33.3992	93.1238	133.3476	165.773	201.2065	270.1613	360.018	378.1288	398.7454	479.9755	546.7672	657.2023	789.4386	884.4771	902.1852	1017.1302	1031.6517	1059.8755	1067.2237	1090.7191	1133.0302	1218.1226	1251.0808	1255.9832	1346.4591	1379.1415	1390.6098	1421.7354	1438.4289	1478.6025	1495.0167	1505.6066	1747.0293	1821.5542	2963.1996	2976.9949	2992.4318	3042.9997	3083.8289	3105.3096	3609.2122	3805.0463
OCCN=CNC=O	OCCN=CNC=O	
InChI=1S/C4H8N2O2/c7-2-1-5-3-6-4-8/h3-4,7H,1-2H2,(H,5,6,8)	InChI=1S/C4H8N2O2/c7-2-1-5-3-6-4-8/h3-4,7H,1-2H2,(H,5,6,8)
