16
gdb 54444	3.47351	1.18302	1.01887	3.5609	70.8	-0.2483	-0.0254	0.223	1152.7773	0.123868	-437.912957	-437.90467	-437.903726	-437.946181	31.114	
N	 0.0756386382	 1.1590511805	-0.5239338302	-0.5383
C	-0.0002970668	-0.0113000256	 0.1757101878	 0.307357
O	 0.9349487911	-0.4623728724	 0.8116887227	-0.368309
C	-1.3076023102	-0.7272860994	 0.0839553979	 0.249371
C	-1.7322158717	-1.6415370367	 1.1848323289	-0.316817
C	-1.4096918476	-2.2736543468	-0.1500097433	-0.196496
C	-2.5212299827	-2.0078447409	-1.1196177088	 0.433154
O	-3.0906676672	-2.6798408806	-1.929632665	-0.309176
C	-2.4982175202	-0.4727548054	-0.858627452	-0.461919
H	 0.9118166478	 1.7097377512	-0.4120564613	 0.265761
H	-0.7430798385	 1.6076027431	-0.8957735766	 0.262892
H	-0.974633584	-1.820072168	 1.9395477694	 0.158333
H	-2.7565064704	-1.6065613509	 1.5442000054	 0.124502
H	-0.6071199835	-2.9929893166	-0.2503818778	 0.132294
H	-3.3890994464	-0.012139719	-0.4218777746	 0.124532
H	-2.241285128	 0.0406570677	-1.7904787025	 0.132821
66.0764	94.3997	185.0579	252.8397	282.0194	355.0446	412.4663	444.2533	499.1153	564.0539	582.1501	637.8574	661.933	740.3699	798.4367	834.8178	922.8235	942.8688	965.7405	986.976	1058.8154	1082.3044	1095.6664	1103.7129	1118.7319	1197.6052	1230.3166	1252.0453	1307.2558	1416.6956	1454.9252	1481.8133	1615.5888	1782.5409	1887.8301	3051.7871	3107.2278	3124.069	3210.0504	3227.853	3600.6794	3735.0319
NC(=O)C12CC1C(=O)C2	NC(=O)[C@]12C[C@H]1C(=O)C2	
InChI=1S/C6H7NO2/c7-5(9)6-1-3(6)4(8)2-6/h3H,1-2H2,(H2,7,9)	InChI=1S/C6H7NO2/c7-5(9)6-1-3(6)4(8)2-6/h3H,1-2H2,(H2,7,9)/t3-,6-/m0/s1
