17
gdb 37813	3.04821	2.00488	1.74658	1.9748	76.44	-0.2243	-0.0061	0.2182	848.7534	0.137427	-384.582831	-384.576642	-384.575698	-384.612932	26.509	
C	-0.1277873071	 1.5832386638	 0.12434027	-0.316312
C	 1.3956174181	 1.3492484823	 0.0434794668	-0.162779
C	 1.3010977791	-0.0280987504	 0.800776123	 0.02179
O	 2.0444045974	-0.7739770988	-0.1944176076	-0.361091
C	 1.2025555958	 0.172138971	-0.9682290841	 0.423241
C	 0.7056344336	-0.1921763129	-2.317662193	-0.230397
C	-0.4809551704	-0.8073598614	-2.1744141149	-0.037045
C	-0.9697362481	-0.923537326	-0.7242280722	-0.409597
C	-0.023481908	 0.0495182543	-0.0340884444	 0.24444
H	-0.5207804942	 1.9593103726	 1.072940124	 0.096145
H	-0.5721769431	 2.1244569316	-0.716049957	 0.102696
H	 2.2207423991	 2.0601336793	 0.0978836637	 0.08207
H	 1.4747764663	-0.2500799261	 1.854804299	 0.089919
H	 1.2338890074	-0.0565341761	-3.2532738198	 0.107911
H	-1.0507090211	-1.2254225935	-2.9998190852	 0.103922
H	-2.0270434286	-0.6603048624	-0.6144752084	 0.114108
H	-0.8577154563	-1.9559942572	-0.3709983198	 0.13098
213.9803	241.7941	375.9703	441.8798	493.0532	516.053	608.5485	725.2263	746.5906	764.0264	778.0816	818.576	847.6144	877.31	883.9268	906.9475	930.9567	964.1865	969.0507	1015.4231	1039.7618	1068.0348	1095.1688	1108.6127	1134.0651	1151.5802	1182.0751	1186.2136	1234.3219	1251.3368	1268.5056	1304.9073	1336.2012	1373.7578	1465.0821	1512.4546	1619.9691	3034.7404	3050.4239	3073.8147	3103.2014	3106.0617	3118.4089	3173.0071	3212.5484
C1C2C3OC22C=CCC132	C1[C@H]2[C@@H]3O[C@@]42C=CC[C@@]134	
InChI=1S/C8H8O/c1-2-7-4-5-6(7)9-8(5,7)3-1/h1,3,5-6H,2,4H2	InChI=1S/C8H8O/c1-2-7-4-5-6(7)9-8(5,7)3-1/h1,3,5-6H,2,4H2/t5-,6-,7+,8+/m0/s1
