15
gdb 123633	4.19305	1.58962	1.38754	2.8062	70.48	-0.2407	-0.0056	0.2351	905.7847	0.116982	-416.740037	-416.734276	-416.733332	-416.770066	23.983	
C	-0.0500167509	 1.5775300591	-0.0550516243	-0.20338
C	 1.5012261182	 1.3646144567	 0.0235236233	-0.172212
N	 1.156287633	 0.2079029347	 0.940197743	-0.297506
C	-0.0190321252	 0.0112697576	 0.0070412516	-0.139522
C	 0.6815431559	-0.2844581886	-1.3063470761	 0.409973
N	 0.6612843904	-1.0574201907	-2.3451436362	-0.281731
O	 1.7780973558	-0.6204169856	-3.1034727404	-0.188299
C	 2.3981852623	 0.4041822267	-2.4495292372	-0.146375
C	 1.7519932921	 0.6647816001	-1.2994460403	 0.220876
H	-0.4501657335	 2.0061380917	 0.8642647563	 0.124481
H	-0.4604644161	 2.0514569781	-0.9467239662	 0.117133
H	 2.1857511102	 2.1220401734	 0.3981118752	 0.088251
H	 1.8345849929	-0.553171752	 0.8814293666	 0.220394
H	-0.8545104804	-0.5952441811	 0.3470632214	 0.098231
H	 3.2658224353	 0.80176374	-2.9520470068	 0.149686
174.3759	303.1352	431.4251	484.8214	560.7054	576.2926	686.6039	696.3255	771.8655	804.9881	827.7216	835.1421	856.3417	904.0911	906.9885	956.4456	1016.6567	1031.3959	1041.5346	1074.3183	1119.8099	1127.5897	1144.4411	1217.9781	1251.2082	1259.3444	1263.5271	1273.0907	1338.7425	1374.8702	1482.139	1595.6298	1686.4893	3089.2847	3150.6203	3159.8949	3163.9131	3266.5358	3442.8972
C1C2NC1C1=NOC=C21	C1[C@H]2N[C@@H]1c1nocc21	
InChI=1S/C6H6N2O/c1-4-3-2-9-8-6(3)5(1)7-4/h2,4-5,7H,1H2	InChI=1S/C6H6N2O/c1-4-3-2-9-8-6(3)5(1)7-4/h2,4-5,7H,1H2/t4-,5+/m1/s1
