19
gdb 109428	2.3487	1.33561	1.05838	4.007	71.3	-0.2735	0.0046	0.2781	1209.6338	0.157427	-460.198643	-460.189166	-460.188222	-460.232782	34.977	
C	-0.2600771596	 1.5801151772	-0.053102498	-0.433774
C	-0.0310711743	 0.0822120958	 0.0530768847	 0.382681
C	-1.1869930467	-0.7361448578	-0.4931151448	-0.43299
O	 1.227268001	-0.2794075864	-0.6721520845	-0.279212
C	 1.8154025572	-0.7168565243	 0.4734085874	 0.461238
O	 2.939814291	-1.0899040436	 0.6349670479	-0.351791
C	 0.6094788323	-0.4640385322	 1.3635159734	-0.265063
C	 0.9337832428	 0.4069954359	 2.5814615041	-0.089602
O	 1.7882455564	-0.2993948138	 3.4570690037	-0.417738
H	 0.6213308427	 2.1453242727	 0.2567301977	 0.134619
H	-0.4902750929	 1.8516730972	-1.0875669481	 0.135076
H	-1.1054359489	 1.8812965819	 0.5737794952	 0.129227
H	-1.3874514182	-0.4694776345	-1.5350278383	 0.134911
H	-0.9650473	-1.8057162069	-0.4475862129	 0.131465
H	-2.0940679532	-0.5454710522	 0.0895950469	 0.128988
H	 0.1493377538	-1.394325386	 1.7074723446	 0.117405
H	 1.3793028878	 1.3621354351	 2.266088871	 0.097221
H	 0.0243793534	 0.6386675356	 3.1453383953	 0.115793
H	 2.5617783954	-0.5719416734	 2.9456052947	 0.301546
89.8689	107.3646	153.4966	196.9486	225.4683	235.6522	307.7608	331.1516	354.2952	417.816	464.6012	472.3794	567.0154	622.2567	720.9206	816.355	845.4646	866.4169	941.2181	983.9827	1007.634	1039.9593	1073.5146	1093.7219	1117.5031	1171.779	1202.9712	1245.2504	1281.9299	1289.5162	1337.8812	1391.8658	1408.3911	1421.2015	1443.3948	1474.2323	1483.5206	1494.8399	1505.1795	1515.5784	1902.4689	2991.5544	3039.9228	3046.6376	3070.7459	3086.6571	3110.9776	3116.8562	3122.0583	3131.4176	3762.8861
CC1(C)OC(=O)C1CO	CC1(C)OC(=O)[C@H]1CO	
InChI=1S/C6H10O3/c1-6(2)4(3-7)5(8)9-6/h4,7H,3H2,1-2H3	InChI=1S/C6H10O3/c1-6(2)4(3-7)5(8)9-6/h4,7H,3H2,1-2H3/t4-/m1/s1
