16
gdb 29033	2.66387	1.7058	1.10415	1.0451	85.19	-0.2379	-0.0795	0.1584	1068.2085	0.125663	-396.941192	-396.933353	-396.932409	-396.973651	29.241	
C	-0.2971958198	 1.5045232349	 0.035236087	-0.467599
C	-0.0799895167	 0.0172221383	-0.0038243091	 0.23799
C	-0.0899489645	-0.6516642967	-1.1909894103	-0.059279
N	 0.2845044374	-1.9364884939	-1.4902261083	-0.235098
C	 0.3006719451	-2.9197709293	-0.6572711387	 0.077185
N	-0.2387412282	-3.0139618035	 0.6048626156	-0.205587
C	-0.3559405813	-2.0290845626	 1.4139238059	-0.036139
C	 0.1538001712	-0.6363419042	 1.2914070027	 0.169945
N	 0.5866619405	 0.033636751	 2.296159869	-0.489304
H	 0.6077039813	 2.0092347253	 0.3889379011	 0.157522
H	-0.5610279752	 1.8948088446	-0.9502952954	 0.121465
H	-1.0861225824	 1.7636668639	 0.7494923883	 0.138611
H	-0.3094205241	-0.0647127246	-2.0813088182	 0.110156
H	 0.6969444398	-3.8653727441	-1.0246482155	 0.128323
H	-0.8837576014	-2.2300923595	 2.3521499411	 0.132444
H	 0.5936713283	-0.5442345797	 3.141171275	 0.219364
78.3038	154.9363	189.5392	288.6331	306.2623	343.1897	359.0677	451.923	491.9839	614.5133	640.3955	724.1667	745.9727	844.6476	880.7183	933.6157	972.3222	995.3998	1001.2866	1048.2006	1061.6784	1090.9509	1153.8889	1214.7729	1357.3803	1401.8456	1409.0153	1439.201	1442.7101	1463.7707	1481.718	1558.8908	1622.5073	1658.2048	1686.8676	3038.7225	3075.8962	3094.4905	3127.6537	3141.1263	3145.5938	3427.8225
CC1=CN=CN=CC1=N	CC1=CN=CN=C[C]1[NH]	
InChI=1S/C6H7N3/c1-5-2-8-4-9-3-6(5)7/h2-4,7H,1H3	InChI=1S/C6H7N3/c1-5-2-8-4-9-3-6(5)7/h2-4,7H,1H3
