16
gdb 133642	4.38127	0.57685	0.57279	1.7957	59.2	-0.2592	-0.0302	0.2291	1827.4505	0.118565	-569.413103	-569.403637	-569.402693	-569.44953	32.145	
F	 0.072172179	 0.0576808088	-0.0388783091	-0.085401
C	-0.0237296822	 1.3983209809	-0.016285379	 0.287036
F	 1.2192817741	 1.8875921319	-0.1591981158	-0.083818
F	-0.7279913367	 1.7682840977	-1.0961503654	-0.077214
C	-0.6763487418	 1.8901479239	 1.2594277369	-0.332161
C	 0.1017531494	 1.4822821253	 2.5141566012	-0.205173
C	-0.570673776	 1.9801883189	 3.8030155442	-0.282461
C	 0.1478785635	 1.4845787036	 5.039461021	 0.160965
O	 0.5443647013	 2.1849038482	 5.9333965417	-0.231316
H	-0.7573938576	 2.9790561541	 1.1839409361	 0.135919
H	-1.693618149	 1.4859197853	 1.2799328769	 0.132089
H	 0.1919859411	 0.3902428955	 2.540024762	 0.12363
H	 1.1201094814	 1.8802478886	 2.4508012317	 0.132512
H	-0.6192047337	 3.0723900565	 3.8424039217	 0.12733
H	-1.5998489132	 1.5934395029	 3.8468061391	 0.123234
H	 0.2932095005	 0.3785347079	 5.0694379066	 0.074829
48.6447	51.5733	85.862	117.1903	136.6325	253.8337	284.7453	360.7073	425.0281	513.7283	538.5383	560.8531	654.9846	747.8999	802.7498	850.6049	906.303	995.6698	1050.5102	1054.4604	1092.3886	1164.6838	1182.3375	1239.7339	1264.0419	1276.354	1303.6415	1344.3642	1361.4302	1409.7994	1430.3859	1464.007	1476.6064	1505.5832	1840.1112	2852.6671	3008.0958	3041.863	3058.7658	3077.8705	3097.4343	3111.1594
FC(F)(F)CCCC=O	FC(F)(F)CCCC=O	
InChI=1S/C5H7F3O/c6-5(7,8)3-1-2-4-9/h4H,1-3H2	InChI=1S/C5H7F3O/c6-5(7,8)3-1-2-4-9/h4H,1-3H2
