15
gdb 53990	1.96626	1.54891	1.22809	2.8057	66.71	-0.2706	-0.0536	0.217	1076.7711	0.109886	-453.998622	-453.988906	-453.987962	-454.033677	33.852	
C	 0.3108769955	 1.7435018479	 0.048773782	-0.420469
C	 0.0521073595	 0.2191054162	-0.0916293604	-0.169764
C	 0.7892494274	-0.4794876885	 1.0772570636	 0.161602
O	 0.2446735165	-1.0406108486	 1.9830536415	-0.22697
C	-1.3772491953	-0.0767132344	-0.0530514237	 0.311581
N	-2.5076185966	-0.3147763675	-0.0914734671	-0.343349
C	 0.7440091768	-0.2779293006	-1.3975949648	 0.441936
N	-0.0244461197	-0.9768289397	-2.2604185203	-0.551372
O	 1.9239446025	-0.0402115952	-1.560005769	-0.36638
H	 1.3842248912	 1.9238061895	-0.026951065	 0.163432
H	-0.193796567	 2.2871677953	-0.7530625069	 0.151554
H	-0.0618863576	 2.1054841051	 1.0094666637	 0.149723
H	 1.8885520439	-0.3813573815	 0.9874994231	 0.13165
H	-1.0034689079	-1.1447067985	-2.0969906461	 0.29158
H	 0.4040795408	-1.3202945194	-3.1047745007	 0.275246
42.2024	86.7222	152.0484	166.4131	215.9569	231.5609	271.8202	307.8103	340.9017	413.4233	434.6149	503.6519	567.4897	597.1757	653.9648	731.3213	756.7671	878.2686	926.4263	1006.1923	1092.0132	1109.5561	1146.4131	1229.7808	1344.0587	1386.1501	1408.9363	1488.9869	1496.6066	1619.7799	1798.0832	1845.6786	2354.899	2958.9151	3058.495	3138.4625	3156.0197	3592.2808	3724.4242
CC(C=O)(C#N)C(N)=O	C[C@@](C=O)(C#N)C(=O)N	
InChI=1S/C5H6N2O2/c1-5(2-6,3-8)4(7)9/h3H,1H3,(H2,7,9)	InChI=1S/C5H6N2O2/c1-5(2-6,3-8)4(7)9/h3H,1H3,(H2,7,9)/t5-/m0/s1
