17
gdb 114592	2.68684	1.20593	0.96706	4.9567	73.74	-0.2604	-0.0037	0.2567	1223.8404	0.1361	-417.962823	-417.954277	-417.953333	-417.996404	31.344	
O	-0.0667756691	 1.4262869402	-0.2258225432	-0.418344
C	 0.0908740163	 0.0469016798	 0.0635986445	-0.105479
C	-1.2982673626	-0.5639045725	 0.033116144	-0.048112
C	-2.0728267789	-0.6801465148	-1.3050227212	-0.173309
N	-2.3218176267	-2.1599117029	-1.1139995683	-0.149139
C	-0.9988964524	-2.7824390641	-1.1011410738	-0.270012
C	-1.4369420133	-2.0879649312	 0.1389045793	 0.16964
C	-1.7331469071	-2.7919409128	 1.3503253914	 0.211817
N	-1.943433023	-3.3344942027	 2.350511752	-0.337148
H	 0.7994996683	 1.8434719053	-0.2083208989	 0.293911
H	 0.7432354344	-0.4440116622	-0.6753978062	 0.087054
H	 0.5399299585	-0.1144586268	 1.0566554598	 0.104254
H	-1.9154189347	-0.071385549	 0.7874651186	 0.113895
H	-3.0182359674	-0.1389691081	-1.3222070071	 0.130789
H	-1.5090697302	-0.4553717421	-2.2155146107	 0.11828
H	-1.0358094615	-3.8669241533	-1.0871192641	 0.147831
H	-0.1985422007	-2.3558999328	-1.701546166	 0.124073
71.3619	129.5877	162.0089	165.9284	242.1603	279.236	388.535	425.7655	454.1139	521.3353	577.3593	630.9002	745.2865	782.8515	858.3336	871.2113	918.4068	990.5017	1013.3537	1078.4981	1100.8313	1101.1053	1137.8859	1145.6625	1198.0361	1198.1665	1235.0275	1261.3174	1276.1039	1305.5252	1342.4453	1379.8543	1465.7105	1490.4099	1506.557	1523.4545	2347.6191	2971.1734	3000.5419	3062.8091	3094.5696	3108.828	3139.7776	3208.133	3832.5081
OCC1CN2CC12C#N	OC[C@H]1CN2C[C@@]12C#N	
InChI=1S/C6H8N2O/c7-3-6-4-8(6)1-5(6)2-9/h5,9H,1-2,4H2	InChI=1S/C6H8N2O/c7-3-6-4-8(6)1-5(6)2-9/h5,9H,1-2,4H2/t5-,6+,8?/m1/s1
