15
gdb 11278	5.36344	1.28869	1.10491	3.4467	70.99	-0.2571	-0.0515	0.2056	1044.5537	0.11902	-362.68677	-362.679188	-362.678243	-362.719053	27.114	
C	 0.100772323	 1.5522633256	-0.064957173	-0.391923
C	-0.0344074026	 0.0341403674	 0.0540765665	 0.104285
O	 0.5810579001	-0.601618444	-1.0721677648	-0.275471
C	 1.4866612098	-1.6125171246	-0.65978811	-0.16406
C	 1.5295099505	-1.4928855626	 0.8505544282	 0.182814
C	 0.6566187436	-0.5642728975	 1.247036496	-0.203972
C	 2.3745411081	-2.2871237439	 1.6666687716	 0.206952
N	 3.0783332535	-2.9524844545	 2.3020855569	-0.326907
H	 1.1536762747	 1.8469535017	-0.049884432	 0.127658
H	-0.3426056588	 1.8880568853	-1.0059212964	 0.137139
H	-0.419130261	 2.0512005701	 0.7591157753	 0.119789
H	-1.1073355987	-0.2247231393	 0.0720446018	 0.097335
H	 1.1346976353	-2.6073499098	-0.9730636817	 0.12357
H	 2.4704765585	-1.4483671305	-1.1198191296	 0.12836
H	 0.4533877539	-0.2704547035	 2.2682661011	 0.134429
75.1536	125.8175	156.8864	235.1179	293.86	359.3116	478.8371	535.8166	562.5959	569.7388	726.0623	843.1549	890.2539	908.0871	921.2997	1017.6125	1046.3933	1072.5049	1104.6002	1136.2599	1195.8577	1204.8042	1277.1056	1332.6221	1364.6969	1381.0128	1401.8223	1485.5077	1494.888	1524.6193	1690.0742	2342.0249	2950.9452	2988.8616	3027.2734	3042.7175	3118.4775	3128.965	3231.9571
CC1OCC(=C1)C#N	C[C@H]1OCC(=C1)C#N	
InChI=1S/C6H7NO/c1-5-2-6(3-7)4-8-5/h2,5H,4H2,1H3	InChI=1S/C6H7NO/c1-5-2-6(3-7)4-8-5/h2,5H,4H2,1H3/t5-/m1/s1
