14
gdb 11982	2.69473	2.38017	1.78449	1.4187	57.64	-0.2422	-0.035	0.2073	778.7019	0.10444	-419.642631	-419.635046	-419.634102	-419.674209	27.958	
C	-0.0472330518	 1.6145003131	-0.0959938249	-0.46261
C	 0.0025675407	 0.101225118	-0.0324494933	 0.259554
O	-1.2556768097	-0.4937469729	 0.2249516643	-0.472632
C	 0.6900123593	-0.6582528673	-1.185306707	 0.013194
O	 2.0318964301	-0.2040938942	-1.2052353707	-0.231914
C	 1.7084664375	-1.2897248725	-0.3034488545	-0.123692
C	 1.0686225029	-0.6094018091	 0.8944741616	 0.374336
O	 1.1380328252	-0.7274704268	 2.0818743395	-0.310389
H	 0.9139416812	 2.0169912285	-0.4242901199	 0.142724
H	-0.8319943401	 1.9369167043	-0.787161274	 0.129573
H	-0.2706567234	 2.0259170548	 0.894503604	 0.126462
H	-1.4810933387	-0.3175952785	 1.1462150621	 0.296374
H	 0.2475538781	-1.0561079687	-2.0902218646	 0.128699
H	 2.2707991888	-2.210043769	-0.4032335625	 0.130321
113.273	201.4374	215.9088	238.2561	266.0621	313.9567	357.2661	501.4026	527.5948	665.2238	692.5716	756.2271	847.7684	858.1501	892.3827	943.0372	965.1324	1016.3475	1066.4278	1104.9469	1171.7259	1188.0017	1219.2414	1252.1356	1341.6326	1376.0736	1400.835	1488.514	1493.4996	1893.3558	3037.289	3105.0214	3132.0375	3196.4533	3210.4054	3794.4681
CC1(O)C2OC2C1=O	C[C@@]1(O)[C@H]2O[C@H]2C1=O	
InChI=1S/C5H6O3/c1-5(7)3(6)2-4(5)8-2/h2,4,7H,1H3	InChI=1S/C5H6O3/c1-5(7)3(6)2-4(5)8-2/h2,4,7H,1H3/t2-,4-,5-/m0/s1
