17
gdb 126434	2.06608	1.5261	0.93787	2.4986	77.33	-0.2462	-0.0418	0.2043	1234.4113	0.13709	-418.052122	-418.043594	-418.04265	-418.085965	30.697	
C	 0.0105978906	 1.5340281783	-0.0949349433	-0.374777
C	-0.0406553258	 0.0083078504	 0.0999547753	-0.291171
C	-1.4302578518	-0.5484187776	 0.0041113181	 0.277353
N	-2.1143845404	-0.8332600453	 1.1059625369	-0.286271
N	-3.3180544925	-1.2749114299	 0.6607423354	-0.182662
C	-3.4238826277	-1.2839878808	-0.6755208169	-0.084371
C	-2.2107248638	-0.8145123612	-1.1631242373	 0.050582
C	-1.8582022004	-0.6615670208	-2.5680773358	 0.057552
O	-2.5997806687	-0.9098437539	-3.4961438559	-0.288049
H	 1.0376528783	 1.8999113221	-0.0033657716	 0.118125
H	-0.364243379	 1.8236243149	-1.0816881874	 0.121693
H	-0.601466817	 2.0398245987	 0.6574663746	 0.130052
H	 0.6030972214	-0.4779167668	-0.6417365868	 0.110812
H	 0.3559842339	-0.2503170342	 1.0860954841	 0.125112
H	-4.0073356212	-1.5601992187	 1.3366171448	 0.282884
H	-4.3098975773	-1.6128912988	-1.194296806	 0.167718
H	-0.8255582985	-0.2910088865	-2.7520226181	 0.065416
55.4454	132.9809	155.992	176.6139	226.2435	258.0458	331.0988	407.7622	525.0584	564.6685	628.8126	676.2675	754.6285	792.5761	810.9548	845.8286	950.7665	976.0342	1040.1144	1050.8967	1078.4757	1091.5533	1148.3166	1205.8011	1278.2215	1343.1961	1349.7977	1406.1058	1411.5126	1440.7773	1473.9614	1484.3751	1496.2638	1504.1278	1515.5365	1579.8838	1780.5835	2882.5223	3039.3444	3043.21	3088.0802	3112.2894	3118.8937	3274.5828	3667.1504
CCC1=NNC=C1C=O	CCc1n[nH]cc1C=O	
InChI=1S/C6H8N2O/c1-2-6-5(4-9)3-7-8-6/h3-4H,2H2,1H3,(H,7,8)	InChI=1S/C6H8N2O/c1-2-6-5(4-9)3-7-8-6/h3-4H,2H2,1H3,(H,7,8)
