15
gdb 15127	8.80451	0.71283	0.6839	3.5487	73.17	-0.2589	-0.0621	0.1968	1568.3331	0.117629	-362.607415	-362.598932	-362.597988	-362.642529	28.371	
O	-0.0244050168	 0.0182210491	-0.391325083	-0.228329
C	 0.0505906933	 1.2160295549	-0.2393755958	 0.021031
C	 1.2805796434	 1.9384341603	-0.0403308346	 0.025149
C	 2.2958955825	 2.5711953172	 0.125754952	 0.113378
C	 3.5205822138	 3.334754307	 0.3301106708	-0.399101
C	 3.3229634158	 4.8401183331	 0.2316834062	 0.044177
C	 4.4305869865	 5.6942835155	-0.259682939	-0.247258
N	 3.2187244871	 5.4961230568	-1.0754624951	-0.303371
H	-0.8544533176	 1.8569825457	-0.2441331348	 0.101203
H	 3.930955301	 3.0813233495	 1.3174928569	 0.152976
H	 4.2748362907	 3.0114183003	-0.4004723586	 0.137985
H	 2.6392278098	 5.2453548083	 0.9741504166	 0.108292
H	 4.5625345008	 6.6988542651	 0.1310931454	 0.126955
H	 5.3525924401	 5.2038364788	-0.5634349369	 0.113815
H	 3.4027506198	 4.8286019585	-1.82129224	 0.233097
24.0306	60.4207	83.0879	176.8769	186.064	323.9801	371.497	403.3763	496.7806	608.2951	784.2622	825.5402	833.0034	919.4857	937.0232	973.6678	1022.4882	1052.8554	1125.7775	1147.3595	1154.9081	1175.955	1244.775	1264.0684	1310.6543	1317.5316	1419.7387	1423.3992	1447.7091	1513.6081	1767.8579	2331.9578	2919.8624	3011.0866	3043.7833	3107.4401	3136.631	3193.7545	3492.4364
O=CC#CCC1CN1	O=CC#CC[C@H]1CN1	
InChI=1S/C6H7NO/c8-4-2-1-3-6-5-7-6/h4,6-7H,3,5H2	InChI=1S/C6H7NO/c8-4-2-1-3-6-5-7-6/h4,6-7H,3,5H2/t6-/m0/s1
