16
gdb 62032	3.69816	0.77107	0.69045	3.9364	62.55	-0.2758	-0.0438	0.232	1569.1874	0.121803	-512.204942	-512.195179	-512.194235	-512.24135	33.711	
N	 0.0698090586	 0.6456584408	 1.2603272559	-0.56478
C	 0.0679163	-0.171546891	 0.1675939019	 0.505021
O	 0.9509252373	-0.2615802259	-0.6495306612	-0.386285
O	-1.0762186849	-0.9110926822	 0.1460578511	-0.271596
C	-1.1710300122	-1.8400177255	-0.939421198	-0.090324
C	-2.5071158168	-2.5790790415	-0.7814117139	 0.02773
O	-2.7396375108	-3.3655628006	-1.9133277914	-0.432178
C	-2.517869344	-3.4335225301	 0.4730869609	 0.140264
O	-2.7348822468	-4.6204410137	 0.4185272913	-0.259348
H	 0.767045961	 1.3698290512	 1.2726254084	 0.273234
H	-0.7916697533	 0.8087192776	 1.7526767267	 0.265593
H	-1.1572939553	-1.315826313	-1.8983585194	 0.142576
H	-0.3276453402	-2.5366883437	-0.922631397	 0.134812
H	-3.2965890715	-1.8167365987	-0.6547769813	 0.103242
H	-2.8633266075	-4.2695223962	-1.5811735091	 0.298417
H	-2.3153485637	-2.9148272775	 1.4286036852	 0.113621
24.5926	59.479	117.3661	134.6945	184.5598	246.9684	322.7629	332.7542	345.1929	419.284	464.8021	502.0604	543.1692	664.493	734.967	782.0306	835.7165	901.858	929.3791	1060.6106	1091.8878	1121.5325	1126.6994	1167.3975	1224.2959	1288.9612	1312.211	1345.8201	1387.7089	1411.316	1446.9543	1516.4788	1613.1627	1811.4844	1844.9461	2952.1888	2972.4895	3062.7513	3115.2441	3616.6315	3682.6082	3745.7519
NC(=O)OCC(O)C=O	NC(=O)OC[C@@H](O)C=O	
InChI=1S/C4H7NO4/c5-4(8)9-2-3(7)1-6/h1,3,7H,2H2,(H2,5,8)	InChI=1S/C4H7NO4/c5-4(8)9-2-3(7)1-6/h1,3,7H,2H2,(H2,5,8)/t3-/m0/s1
