22
gdb 110612	3.05262	1.26142	1.112	1.2775	86.42	-0.2311	0.0848	0.316	1227.3581	0.193944	-367.154781	-367.1459	-367.144956	-367.188127	34.644	
C	 0.3183804778	 1.5390627306	 0.0542165402	-0.373868
C	-0.2265875089	 0.1225434639	-0.1173306353	-0.114245
N	 0.5271532233	-0.5791896389	-1.1515181642	-0.084804
C	 1.7387711542	-1.3165962059	-0.8538570163	-0.060134
C	 1.6889399403	-2.1212384506	 0.4324035272	-0.127986
C	 1.7173307845	-3.5905601713	 0.0909047471	-0.331294
C	 0.417949879	-2.8363997606	-0.0608330259	 0.346463
C	-0.8342253744	-3.2302432816	 0.6759827829	-0.49795
C	 0.4839193654	-2.0159913999	-1.3438102305	-0.132502
H	 1.3605757542	 1.5171745969	 0.3900110624	 0.116432
H	 0.2823044189	 2.083541274	-0.8934869032	 0.124454
H	-0.2640937284	 2.091072323	 0.7984424848	 0.108278
H	-0.2107715757	-0.3984196228	 0.8504783778	 0.092201
H	-1.2717552212	 0.1611236366	-0.4472029673	 0.097593
H	 2.6378371723	-1.0809911124	-1.4138838113	 0.091584
H	 1.9027393534	-1.7608440021	 1.4323252617	 0.088058
H	 2.2662914991	-3.93174687	-0.7835463052	 0.105591
H	 1.7648829702	-4.273515151	 0.9357906853	 0.105889
H	-0.6006499975	-3.6216114012	 1.6717885806	 0.11687
H	-1.5204802343	-2.3869362255	 0.7986175487	 0.121767
H	-1.3730502433	-4.0170960422	 0.134507192	 0.120893
H	 0.264270931	-2.386972429	-2.3405551312	 0.086707
75.4413	140.5016	180.8816	195.9475	247.1706	268.0555	329.2675	368.7003	417.6385	531.6595	614.1225	659.3979	725.9643	791.5255	821.2708	827.0007	859.2164	899.8226	913.7785	954.1941	971.9671	993.4469	1006.1765	1035.862	1053.3196	1071.4777	1088.2545	1103.3684	1113.2036	1123.4547	1176.4375	1220.7531	1258.4243	1281.214	1290.5416	1304.28	1347.0541	1372.1222	1385.1315	1409.0126	1420.4654	1486.4916	1488.3072	1494.002	1496.0575	1502.1579	1512.0411	3003.0811	3026.5254	3037.2275	3050.1729	3084.6684	3101.5458	3103.7863	3105.2039	3118.6001	3151.3269	3165.0476	3172.8731	3185.1482
CCN1C2C3CC3(C)C12	CCN1[C@H]2[C@@H]3C[C@]3(C)[C@@H]12	
InChI=1S/C8H13N/c1-3-9-6-5-4-8(5,2)7(6)9/h5-7H,3-4H2,1-2H3	InChI=1S/C8H13N/c1-3-9-6-5-4-8(5,2)7(6)9/h5-7H,3-4H2,1-2H3/t5-,6-,7-,8-,9?/m0/s1
