19
gdb 102737	1.97713	1.2519	0.84528	3.3656	76.7	-0.2531	0.0186	0.2717	1390.8421	0.15855	-419.183491	-419.173776	-419.172831	-419.219041	34.802	
N	-0.2988245139	 1.4305685034	 0.201034795	-0.517556
C	 0.0229135603	 0.0149410434	 0.0547025819	-0.172213
C	 0.8397911412	-0.4244353072	 1.2735653509	-0.001287
O	 0.0067839351	-0.2879239255	 2.4109100265	-0.257751
C	 0.687244035	-0.3547643333	 3.6362497537	 0.128152
C	 1.3995728051	 0.8749182796	 4.1344517121	-0.290052
C	 0.0902056973	 0.4285106728	 4.7565251685	-0.285949
C	 1.3156780682	-1.8171208217	 1.1268995437	 0.26992
N	 1.6893375129	-2.9052188877	 1.0191533022	-0.325198
H	-0.7887940298	 1.7611339243	-0.6234748495	 0.234766
H	-0.9315470509	 1.5431244454	 0.9867034082	 0.239868
H	-0.8460666889	-0.6567021434	-0.0311762109	 0.111154
H	 0.6378342533	-0.1239937253	-0.8401904838	 0.125373
H	 1.7169961882	 0.231189274	 1.3651891515	 0.12743
H	 1.1188802932	-1.3311680905	 3.8484276071	 0.112395
H	 2.3186429264	 0.7518580036	 4.6961716842	 0.122193
H	 1.3649235783	 1.7524380117	 3.4980855411	 0.130011
H	-0.7919565762	 1.0131725469	 4.5223800069	 0.125903
H	 0.098210005	-0.0065366803	 5.7491353407	 0.122841
47.7556	74.6935	120.7342	133.084	180.1307	243.4136	269.9429	331.3105	383.9239	421.6124	484.5419	546.4543	614.343	754.9396	808.9891	825.1715	864.3718	874.8678	963.6303	982.1856	988.3656	1051.0318	1063.8427	1076.5566	1080.3909	1124.6368	1137.7437	1189.5112	1194.1204	1218.6433	1241.1478	1275.9015	1344.4048	1353.053	1406.0285	1429.0556	1455.2661	1495.8415	1498.2873	1648.0154	2354.8361	2979.2714	3020.2262	3081.252	3124.4773	3137.8683	3144.8328	3222.6556	3236.9545	3507.6205	3587.5095
NCC(OC1CC1)C#N	NC[C@@H](OC1CC1)C#N	
InChI=1S/C6H10N2O/c7-3-6(4-8)9-5-1-2-5/h5-6H,1-3,7H2	InChI=1S/C6H10N2O/c7-3-6(4-8)9-5-1-2-5/h5-6H,1-3,7H2/t6-/m1/s1
