21
gdb 115304	2.64764	1.2632	0.97532	3.6969	78.	-0.2461	-0.0295	0.2166	1274.8548	0.183026	-424.266313	-424.257175	-424.256231	-424.300447	34.524	
C	 0.0024570027	 1.5693972369	 0.0919769868	-0.394626
C	 0.0149725167	 0.0321415384	 0.0173646019	-0.08232
C	 0.7188656001	-0.536839838	-1.233954037	-0.233127
C	 2.171444515	-0.817756818	-0.7851372837	-0.243668
C	 2.0306331485	-1.3155934324	 0.6618993171	-0.107765
C	 3.255512597	-1.1725618117	 1.5753034859	-0.07271
O	 3.0258991446	-1.7045410211	 2.8599450207	-0.426638
C	 0.8239873878	-0.5381870909	 1.1894294074	 0.409995
O	 0.5702799064	-0.3557036195	 2.3605056154	-0.352423
H	 1.0086129904	 1.984816788	-0.0299993138	 0.120209
H	-0.6299656214	 1.9846472422	-0.6979647305	 0.120935
H	-0.3832224257	 1.8982114918	 1.0603333164	 0.140982
H	-1.0173471173	-0.3224072586	 0.1091479046	 0.102613
H	 0.2430182473	-1.4755372834	-1.5384288185	 0.104939
H	 0.6670766276	 0.1432641793	-2.0884629906	 0.103662
H	 2.6818817346	-1.5331522254	-1.4342710553	 0.108541
H	 2.7597662601	 0.1087049007	-0.8007166553	 0.107285
H	 1.7347698153	-2.3759381925	 0.6616600947	 0.111648
H	 4.103775584	-1.7186305573	 1.1478273587	 0.105277
H	 3.5449020823	-0.107878562	 1.6180192881	 0.082161
H	 2.2222762739	-1.2729746863	 3.184336877	 0.295031
50.5145	118.9122	174.797	203.9625	230.0552	252.9068	311.3398	365.9299	394.7036	499.8724	576.2447	587.9222	609.5921	652.7479	769.6085	816.9158	898.8106	915.3539	954.995	962.4157	1002.31	1043.3499	1053.775	1083.1198	1110.5544	1117.1507	1161.3237	1192.2971	1212.7906	1216.9299	1277.4603	1282.7028	1322.2241	1328.0713	1340.3433	1353.4673	1388.405	1403.5483	1463.539	1488.8818	1498.2884	1500.3453	1503.8761	1512.4746	1804.9665	2950.9898	3001.4187	3029.9101	3037.7985	3041.1088	3054.6743	3060.6857	3092.8758	3100.8874	3106.8608	3125.532	3726.7849
CC1CCC(CO)C1=O	C[C@H]1CC[C@@H](CO)C1=O	
InChI=1S/C7H12O2/c1-5-2-3-6(4-8)7(5)9/h5-6,8H,2-4H2,1H3	InChI=1S/C7H12O2/c1-5-2-3-6(4-8)7(5)9/h5-6,8H,2-4H2,1H3/t5-,6-/m0/s1
