18
gdb 15820	6.34375	0.90428	0.85227	1.1914	69.53	-0.2447	-0.0103	0.2344	1358.0427	0.152337	-384.944341	-384.935407	-384.934463	-384.978763	31.444	
O	-0.1515044499	 1.4476137101	 0.0541319094	-0.425486
C	 0.0223565179	 0.0383949446	 0.0021613182	-0.077209
C	-1.3637510569	-0.5863112143	 0.0197093727	-0.293833
C	-1.3445566844	-2.1025427259	-0.0309345908	 0.376812
O	-0.305104463	-2.7316773501	-0.0802214226	-0.339494
C	-2.6725679967	-2.7817878961	-0.0170550669	-0.10247
C	-2.800522065	-4.0802048118	-0.8021149602	-0.247083
C	-2.7595653677	-4.1300312463	 0.6851706066	-0.247098
H	 0.7194310628	 1.8546989704	 0.0431235343	 0.286919
H	 0.555307619	-0.2737771491	-0.9070411485	 0.101894
H	 0.6041975513	-0.3328527342	 0.8575939029	 0.101923
H	-1.9091975972	-0.2686903244	 0.9187785748	 0.131649
H	-1.9574164127	-0.2110591954	-0.8249517066	 0.131626
H	-3.5433319937	-2.1373872108	 0.0284560922	 0.088778
H	-3.7411088889	-4.2588401614	-1.3101048117	 0.118273
H	-1.9098870234	-4.3908117603	-1.336121856	 0.138261
H	-1.8414614364	-4.4739815411	 1.1474006915	 0.138271
H	-3.6711078652	-4.3440372336	 1.2310255707	 0.118268
51.6536	80.4217	108.2901	136.36	259.5598	272.17	272.7276	324.2637	410.0977	579.0421	667.0414	790.9694	800.9376	831.7482	834.6458	887.7115	922.0158	1015.2564	1051.345	1070.9764	1075.1024	1099.6129	1109.3021	1115.4961	1131.1415	1206.3876	1212.1204	1223.2259	1253.8882	1301.5423	1336.9445	1411.5021	1446.9388	1452.8749	1471.4141	1484.6778	1522.3703	1778.667	2997.8491	3024.7886	3024.8099	3059.5395	3141.3296	3142.7768	3172.9751	3228.836	3243.3305	3831.5221
OCCC(=O)C1CC1	OCCC(=O)C1CC1	
InChI=1S/C6H10O2/c7-4-3-6(8)5-1-2-5/h5,7H,1-4H2	InChI=1S/C6H10O2/c7-4-3-6(8)5-1-2-5/h5,7H,1-4H2
