24
gdb 89057	4.4742	0.65201	0.60868	1.2093	91.05	-0.2196	0.092	0.3116	1930.3851	0.216667	-368.370954	-368.360841	-368.359897	-368.407158	37.372	
C	-0.0497952408	 1.5044332595	-0.3639637751	-0.411141
C	 0.004288399	 0.028481917	-0.0308377966	 0.030882
C	 1.2970425318	-0.7141770673	 0.0064922666	-0.2541
N	 0.5311420747	-0.496833148	 1.2304028282	-0.080346
C	 1.0874711264	 0.4078950969	 2.2298463474	-0.13315
C	 1.9273945442	-0.3761541479	 3.2431796988	-0.204614
C	 2.5091755447	 0.5049975714	 4.3273922719	 0.034874
C	 1.6907373507	 0.8578505595	 5.5460280248	-0.255059
C	 2.8748352335	-0.0699585259	 5.6712961999	-0.276632
H	 0.8745985291	 2.0267652448	-0.1073413788	 0.120496
H	-0.2162155317	 1.635290774	-1.4385653132	 0.121029
H	-0.8761465786	 1.9985275408	 0.1593961951	 0.121853
H	-0.8750924757	-0.5210612592	-0.3664617713	 0.086789
H	 1.3711132283	-1.7410954438	-0.3428206599	 0.109701
H	 2.2027064983	-0.1229476469	-0.1347591794	 0.100194
H	 1.7088799582	 1.2087967735	 1.7933259844	 0.076188
H	 0.2541812942	 0.8979000634	 2.7480203667	 0.102097
H	 1.300209334	-1.1568184895	 3.6897982958	 0.101486
H	 2.7344616494	-0.8960743204	 2.7097166383	 0.096093
H	 3.1650959075	 1.2921465097	 3.9614166178	 0.077015
H	 1.7721586495	 1.8574913873	 5.9585827676	 0.107692
H	 0.6993969142	 0.4236858775	 5.6302101704	 0.110356
H	 2.6765434212	-1.1233412779	 5.8408906194	 0.110186
H	 3.767076058	 0.2973376216	 6.1664815312	 0.10811
42.7738	63.968	98.5775	117.5247	175.7068	224.7804	256.9396	337.7932	382.3883	407.8106	441.8484	525.7081	750.1855	773.3281	778.4787	807.3094	825.6285	855.2814	899.4188	919.4855	953.4733	962.2217	1027.7518	1030.3275	1055.6165	1068.3879	1076.315	1087.4098	1112.0803	1140.3611	1146.9354	1148.9929	1188.5813	1199.0103	1200.0155	1227.3297	1257.3627	1299.3759	1325.5217	1337.7436	1390.6742	1404.0051	1418.2111	1420.577	1468.8443	1482.2537	1491.9509	1495.2503	1501.5655	1508.1027	1515.3664	2948.3123	3017.5136	3034.5244	3044.8979	3066.6741	3078.3234	3091.6117	3096.3947	3125.5176	3126.1091	3126.7299	3132.7623	3166.0487	3204.3085	3219.6787
CC1CN1CCC1CC1	C[C@H]1CN1CCC1CC1	
InChI=1S/C8H15N/c1-7-6-9(7)5-4-8-2-3-8/h7-8H,2-6H2,1H3	InChI=1S/C8H15N/c1-7-6-9(7)5-4-8-2-3-8/h7-8H,2-6H2,1H3/t7-,9?/m0/s1
