15
gdb 130426	2.08585	1.79321	1.00918	4.7287	69.35	-0.2649	-0.0565	0.2084	1117.6099	0.114815	-450.154399	-450.146385	-450.145441	-450.18748	28.471	
N	-0.4973851705	 1.2885811259	 0.2641065495	-0.512382
C	 0.2166943525	 0.0504063134	-0.0691198194	-0.28273
C	 0.96217287	-0.4975441046	 1.1111415847	 0.391449
N	 2.2248593455	-0.8534028806	 1.0935142457	-0.31235
C	 2.4375725648	-1.3183024483	 2.3676033025	 0.041032
N	 1.4006572572	-1.2713401969	 3.1684565538	-0.208134
N	 0.4340496025	-0.7380891922	 2.361728307	-0.086008
C	-0.8877240998	-0.5131251044	 2.8241362998	 0.17527
O	-1.2649569279	-0.8180207606	 3.9164318644	-0.246613
H	 0.1681325376	 2.03241136	 0.4532375268	 0.243996
H	-1.0505101724	 1.5876041499	-0.5325294342	 0.243883
H	-0.5286559955	-0.6842465189	-0.3993009074	 0.135348
H	 0.957947206	 0.139362968	-0.8743647957	 0.137376
H	 3.394035197	-1.6948310845	 2.6991241749	 0.139646
H	-1.4864107271	-0.0106587361	 2.0510394677	 0.140215
86.4061	126.8588	161.0878	206.8411	262.7424	292.2416	329.421	418.3405	555.2356	644.1569	684.1129	744.7541	841.1423	869.6871	926.1181	969.575	991.8717	1036.0702	1059.4539	1124.232	1176.8207	1185.635	1288.6181	1300.6652	1321.149	1386.6302	1412.7058	1445.7095	1492.7927	1502.9918	1588.6343	1660.1523	1846.3899	3015.9926	3051.4846	3053.7223	3260.9271	3497.265	3579.1889
NCC1=NC=NN1C=O	NCc1ncnn1C=O	
InChI=1S/C4H6N4O/c5-1-4-6-2-7-8(4)3-9/h2-3H,1,5H2	InChI=1S/C4H6N4O/c5-1-4-6-2-7-8(4)3-9/h2-3H,1,5H2
