13
gdb 61357	3.68917	0.82014	0.7496	0.7176	64.62	-0.3156	-0.1075	0.2081	1429.1903	0.086603	-452.761109	-452.751835	-452.75089	-452.796604	31.121	
O	 0.3531401207	 1.5389940236	-0.0495159709	-0.406825
C	 0.0951438799	 0.1522107333	-0.0033147434	-0.01218
C	 0.5898246407	-0.5729398533	-1.2680600309	-0.335425
C	-0.2477689707	-0.1977289147	-2.4775676282	 0.303581
O	-1.3574147934	 0.2630285809	-2.4238428839	-0.253283
C	 0.3901623899	-0.4786853188	-3.7790722144	 0.235509
N	 0.9095037359	-0.7057651122	-4.7868568904	-0.284552
C	 0.673817459	-0.4724577034	 1.2010315276	 0.252709
N	 1.1616421819	-0.9457859972	 2.1352010421	-0.302418
H	 1.2969417387	 1.6852063907	 0.0854132833	 0.30156
H	-0.994258475	 0.0590265734	 0.042661886	 0.170748
H	 1.6465379156	-0.3550483046	-1.4573601802	 0.152937
H	 0.5193246066	-1.6627224376	-1.1475197567	 0.177639
37.8462	67.5921	101.9069	188.7526	191.215	265.8376	269.1825	335.9755	369.1026	454.196	546.3668	569.5235	609.5236	628.983	803.045	890.8993	939.1649	1042.2845	1079.9057	1100.8663	1188.7879	1278.3205	1307.2592	1381.7893	1418.3044	1439.3867	1805.5319	2339.2462	2359.3829	3035.2506	3078.542	3091.861	3798.4814
OC(CC(=O)C#N)C#N	O[C@@H](CC(=O)C#N)C#N	
InChI=1S/C5H4N2O2/c6-2-4(8)1-5(9)3-7/h4,8H,1H2	InChI=1S/C5H4N2O2/c6-2-4(8)1-5(9)3-7/h4,8H,1H2/t4-/m0/s1
