18
gdb 96833	3.85652	0.93278	0.90085	0.9397	76.72	-0.2547	-0.0441	0.2106	1366.2486	0.14423	-439.095403	-439.085653	-439.084709	-439.130796	34.09	
C	-0.1919675199	 1.4475281179	-0.5260790276	-0.342112
N	-0.1656116988	-0.0084951113	-0.4958997565	-0.323001
C	-1.072142706	-0.6290612565	 0.0941690061	 0.463629
C	-1.3890803418	-2.0872080036	 0.3293875955	-0.436393
C	-2.6158736998	-1.531787878	 1.1145492863	 0.30816
C	-2.6691273679	-1.7789363999	 2.6051570858	-0.446798
O	-2.1894174342	-0.1639133608	 0.7844109449	-0.299546
C	-3.9319100514	-1.8123080849	 0.4060420541	 0.127804
O	-4.8091896297	-2.5024051986	 0.8522633303	-0.239589
H	 0.7289732193	 1.8294370213	-0.0725523565	 0.131569
H	-0.196486688	 1.7819386138	-1.5690286397	 0.131242
H	-1.0503111927	 1.8915080466	-0.0089797655	 0.127834
H	-1.6113983837	-2.6575045473	-0.5755707422	 0.142558
H	-0.6694278647	-2.6378574037	 0.9370761315	 0.145977
H	-1.6886143837	-1.6132890084	 3.0582210192	 0.126317
H	-3.3927193718	-1.1084722854	 3.0764265179	 0.141996
H	-2.9886478909	-2.8063400749	 2.7970481319	 0.146598
H	-4.0082196843	-1.3236712063	-0.5909819054	 0.093756
61.4643	71.7026	81.3895	178.8414	202.304	211.1699	256.1788	305.2781	354.2836	404.997	464.2656	534.4839	560.455	724.4348	775.1072	873.405	889.8131	943.9481	973.6512	1006.712	1038.1348	1076.8111	1083.9878	1134.7999	1157.8104	1178.6282	1223.0715	1250.8495	1296.4561	1398.8538	1417.9036	1439.8711	1462.9752	1477.7021	1489.2659	1493.9408	1497.3936	1836.0932	1857.8054	2892.2801	3020.0497	3052.401	3079.0667	3087.5925	3091.1883	3129.0191	3135.193	3136.7101
CN=C1CC(C)(O1)C=O	CN=C1C[C@@](C)(O1)C=O	
InChI=1S/C6H9NO2/c1-6(4-8)3-5(7-2)9-6/h4H,3H2,1-2H3	InChI=1S/C6H9NO2/c1-6(4-8)3-5(7-2)9-6/h4H,3H2,1-2H3/t6-/m1/s1
