15
gdb 56405	4.11267	0.66707	0.60507	2.9229	76.68	-0.273	-0.0094	0.2636	1764.3493	0.111571	-416.743472	-416.734128	-416.733184	-416.780122	31.918	
N	-0.4706431372	 1.1571470689	 0.2285673437	-0.484435
C	 0.0436532696	-0.179879746	-0.091242884	-0.303774
C	 0.9345029184	-0.2004180492	-1.2815925921	 0.2745
N	 1.5996027345	-0.1581083108	-2.2258481389	-0.319349
C	 0.7315748083	-0.7707259386	 1.0575516508	 0.161555
C	 1.292580434	-1.2584349637	 2.0032978605	 0.105326
C	 1.9856784516	-1.8475962864	 3.1173785088	-0.118205
C	 1.623464152	-1.5198132333	 4.5114792647	-0.158541
O	 1.2503507147	-2.7657742443	 3.9399365489	-0.209012
H	 0.3060526237	 1.7737344014	 0.449820088	 0.249256
H	-0.9334983656	 1.5441457083	-0.5894874083	 0.248774
H	-0.8224661796	-0.8097932975	-0.3364616915	 0.168223
H	 3.0109045693	-2.1554857118	 2.9164983311	 0.128076
H	 2.3955816862	-1.561297914	 5.2783887501	 0.126207
H	 0.8085135099	-0.8221657631	 4.6932357083	 0.1314
12.473	67.7498	102.4808	146.8287	218.9799	229.568	280.798	354.2881	426.8597	508.4741	538.7974	573.8995	610.6467	749.8553	832.3558	845.5529	894.9063	947.6513	993.0427	1069.22	1092.9458	1154.5297	1160.3499	1186.8206	1195.8544	1280.9251	1314.593	1388.1614	1408.0456	1519.226	1656.2904	2349.6382	2375.8026	3022.5776	3089.2438	3121.8482	3184.2581	3491.644	3576.8238
NC(C#N)C#CC1CO1	N[C@@H](C#N)C#C[C@H]1CO1	
InChI=1S/C6H6N2O/c7-3-5(8)1-2-6-4-9-6/h5-6H,4,8H2	InChI=1S/C6H6N2O/c7-3-5(8)1-2-6-4-9-6/h5-6H,4,8H2/t5-,6+/m1/s1
