22
gdb 58635	2.61877	1.24001	1.06575	2.0953	81.15	-0.2427	0.0817	0.3243	1264.9894	0.193178	-404.304679	-404.294939	-404.293995	-404.339475	36.489	
C	 0.06716993	 1.397516557	-0.3408719218	-0.403034
C	-0.0538618647	-0.0747946918	 0.0721945994	-0.049958
C	 0.7292840898	-0.3480136904	 1.3674258478	-0.39195
C	-1.505542501	-0.5504382502	 0.203858896	 0.378821
C	-2.5301459497	 0.2791970604	 0.8584358182	-0.226063
O	-2.4877955979	 0.1569845319	-0.5695259513	-0.280574
C	-1.6857250238	-2.0462143503	 0.1668101959	-0.053999
C	-2.975958006	-2.6536779361	-0.22818127	-0.248572
N	-1.8171362938	-2.7184622493	-1.1408881405	-0.328721
H	 1.1141655497	 1.6400204544	-0.5464904101	 0.112176
H	-0.5231029023	 1.6097836341	-1.2339731267	 0.133673
H	-0.2701493981	 2.0697875955	 0.4559023889	 0.111664
H	 0.3938024686	-0.6832060641	-0.7259647652	 0.089274
H	 0.7112139612	-1.4043394868	 1.6503041058	 0.120907
H	 1.7775747825	-0.0582431241	 1.2460862541	 0.117863
H	 0.3171789865	 0.2312367513	 2.2014053183	 0.114944
H	-3.3788324672	-0.2040326281	 1.3393826826	 0.114392
H	-2.2785637135	 1.2661011092	 1.2416520564	 0.1166
H	-1.0540124285	-2.5924593429	 0.8630722972	 0.092652
H	-3.2770105507	-3.6052093425	 0.2005812473	 0.114485
H	-3.7867023516	-1.9814928963	-0.4908889235	 0.125766
H	-1.9444617493	-2.003299951	-1.8557517589	 0.239653
48.2988	81.9599	182.4596	202.7657	206.7797	235.5864	286.2425	292.8949	338.6073	433.1341	444.2565	491.1783	606.9068	665.5471	814.6041	844.6969	868.2253	905.492	916.3575	934.0994	941.0607	969.3173	984.8028	1028.136	1098.9985	1117.0206	1120.1969	1132.4535	1147.7749	1165.0462	1174.4153	1204.6655	1225.4382	1276.9416	1308.0126	1343.7515	1360.4323	1390.7121	1402.3619	1420.5368	1432.4989	1486.1537	1490.9619	1496.792	1503.4283	1512.8542	1525.2202	3009.996	3033.1047	3039.1266	3090.193	3096.7837	3103.0743	3109.3567	3116.4573	3135.5604	3137.7694	3177.7639	3207.6759	3478.5649
CC(C)C1(CO1)C1CN1	CC(C)[C@]1(CO1)[C@H]1CN1	
InChI=1S/C7H13NO/c1-5(2)7(4-9-7)6-3-8-6/h5-6,8H,3-4H2,1-2H3	InChI=1S/C7H13NO/c1-5(2)7(4-9-7)6-3-8-6/h5-6,8H,3-4H2,1-2H3/t6-,7-/m1/s1
