15
gdb 60773	3.50212	0.94609	0.84946	2.4079	65.06	-0.2624	-0.0553	0.2071	1324.6162	0.111593	-491.119221	-491.110431	-491.109487	-491.153683	30.948	
O	-0.6052877674	 0.8495724119	 0.0610990053	-0.443826
C	 0.1168831631	-0.3361167555	-0.1349923641	-0.002805
C	 1.2543058234	-0.0910238082	-1.1230502349	 0.13977
O	 1.3885776659	 0.9917661386	-1.6378503568	-0.257639
C	 0.7143789312	-0.8988961719	 1.163035059	 0.315917
N	 1.3032279437	-2.0200924981	 1.1224892816	-0.50862
N	 0.5375762087	-0.0384602563	 2.2491383724	-0.333942
C	 0.980658114	-0.2499782295	 3.5310227153	 0.164731
O	 1.6124040349	-1.2122575382	 3.9045108144	-0.295351
H	-0.1914613864	 1.4994164987	-0.5350096159	 0.302356
H	-0.5196908653	-1.1274919271	-0.5573393885	 0.141076
H	 1.9250606262	-0.945302077	-1.312712791	 0.145024
H	 1.671910663	-2.2716847801	 2.0400256066	 0.258147
H	 0.0002019654	 0.7940400103	 2.0383185356	 0.273397
H	 0.6901914898	 0.5785777623	 4.203585711	 0.101766
47.9819	86.0731	141.8472	189.0346	257.2154	273.4636	301.3423	344.2593	466.3168	523.8217	569.1457	631.0758	728.0324	740.2289	802.178	876.8336	927.8801	954.6035	1026.6185	1031.0953	1079.4906	1154.6766	1185.3903	1240.848	1311.3726	1327.4525	1370.2334	1421.7542	1435.1388	1517.1588	1723.6594	1804.7517	1816.3056	2962.8092	3006.288	3018.8102	3491.5898	3565.4335	3631.3818
OC(C=O)C(=N)NC=O	O[C@@H](C=O)C(=N)NC=O	
InChI=1S/C4H6N2O3/c5-4(6-2-8)3(9)1-7/h1-3,9H,(H2,5,6,8)	InChI=1S/C4H6N2O3/c5-4(6-2-8)3(9)1-7/h1-3,9H,(H2,5,6,8)/t3-/m0/s1
