16
gdb 126715	5.47751	0.87209	0.80617	7.2395	75.63	-0.2527	-0.0492	0.2035	1410.1762	0.124327	-434.079121	-434.070687	-434.069743	-434.113356	29.489	
C	 0.3041115694	 1.5045054963	 0.1668810981	-0.378872
C	-0.1376061944	 0.0764926181	-0.1534602485	-0.151262
N	 0.6175283652	-0.5064092828	-1.2568399189	 0.071693
C	 1.7886524366	-1.1664957936	-1.2461306081	-0.157173
C	 2.056640283	-1.430344792	-2.5775887525	 0.198667
C	 3.2154807892	-2.140317166	-3.1282688838	 0.094148
O	 3.4184384621	-2.352050165	-4.298351473	-0.256032
N	 1.0313220901	-0.911668491	-3.3244018989	-0.225302
N	 0.1719409019	-0.357455389	-2.5347775789	-0.127254
H	 1.3531453642	 1.5350597134	 0.4751702278	 0.130564
H	 0.1807098957	 2.1473528709	-0.7081736531	 0.154154
H	-0.3046366465	 1.9057855637	 0.9819987209	 0.133414
H	-0.0209613606	-0.5800034632	 0.7132779886	 0.131471
H	-1.1859765391	 0.0522974327	-0.4579751212	 0.154638
H	 2.3211318832	-1.3965687257	-0.3377708453	 0.161311
H	 3.9293839299	-2.4849143767	-2.3448087034	 0.065834
41.0728	79.7572	160.9293	169.7565	231.0693	279.2565	352.7502	402.5153	493.6186	662.5308	687.6254	729.5892	782.2135	793.7311	823.9057	968.2259	1006.8317	1032.0057	1049.2518	1090.4976	1108.337	1151.314	1228.2147	1303.4974	1329.4762	1386.8115	1401.373	1412.9505	1429.1127	1475.2299	1490.119	1503.3317	1504.7886	1557.4135	1813.9549	2861.707	3048.7325	3071.0879	3114.9266	3128.3145	3140.0036	3275.294
CCN1C=C(C=O)N=N1	CCn1cc(C=O)nn1	
InChI=1S/C5H7N3O/c1-2-8-3-5(4-9)6-7-8/h3-4H,2H2,1H3	InChI=1S/C5H7N3O/c1-2-8-3-5(4-9)6-7-8/h3-4H,2H2,1H3
