18
gdb 115527	2.69687	1.06434	1.05069	5.1147	72.27	-0.2749	0.0099	0.2849	1250.1763	0.14587	-439.070917	-439.061308	-439.060364	-439.105856	34.145	
C	-0.2997607487	 1.6204878243	 0.0097187054	-0.440978
C	 0.0246979275	 0.1310790664	 0.0549337242	 0.226315
O	 1.2213741508	-0.1859050205	-0.6874795379	-0.299683
C	 1.778198561	-0.9407562788	 0.4190277437	-0.08118
C	 0.6264710662	-0.5144406002	 1.3487427392	-0.06573
C	 1.012217845	 0.4127207646	 2.4872103231	-0.111232
O	 1.7147132199	-0.3898735451	 3.4224939829	-0.419499
C	-1.123940406	-0.643865269	-0.4592018064	 0.266901
N	-2.0273390874	-1.2512793723	-0.847426554	-0.337618
H	 0.5475297072	 2.2039337181	 0.3741156262	 0.131161
H	-0.5018441821	 1.9151662078	-1.0234600021	 0.150878
H	-1.1847102132	 1.8468930217	 0.6113774189	 0.138967
H	 1.8273807992	-2.0111763226	 0.1940487854	 0.121059
H	 2.7735476895	-0.5792899362	 0.6955275021	 0.118175
H	 0.0344042645	-1.3382572255	 1.7492386867	 0.113473
H	 1.6446471298	 1.2334682047	 2.1160610241	 0.096092
H	 0.1106143189	 0.8610280453	 2.9333472153	 0.099112
H	 2.0239655479	 0.1743509673	 4.1372817234	 0.293787
51.1724	95.3908	136.1433	189.435	197.3319	229.9866	257.8636	291.6609	362.3416	411.8389	429.0653	552.7108	596.8932	640.8666	842.2098	885.6335	903.6822	908.4954	944.6078	1012.5431	1065.2346	1089.116	1123.7329	1139.8558	1160.5243	1175.0458	1205.2904	1243.7646	1273.4593	1286.49	1338.6245	1374.219	1405.977	1463.3467	1477.7124	1491.5368	1519.6136	1530.4712	2350.506	2973.3609	3005.9501	3041.487	3052.1582	3090.2523	3110.6753	3126.7723	3142.2203	3832.1808
CC1(OCC1CO)C#N	C[C@]1(OC[C@H]1CO)C#N	
InChI=1S/C6H9NO2/c1-6(4-7)5(2-8)3-9-6/h5,8H,2-3H2,1H3	InChI=1S/C6H9NO2/c1-6(4-7)5(2-8)3-9-6/h5,8H,2-3H2,1H3/t5-,6+/m1/s1
