20
gdb 6437	3.43569	1.43747	1.22509	0.6528	81.34	-0.2522	0.0583	0.3105	1089.6158	0.175097	-311.836593	-311.827666	-311.826722	-311.869522	34.206	
C	 0.008137514	 1.6349378806	 0.0292302341	-0.410958
C	 0.0473857204	 0.1155158911	 0.0179736133	 0.063042
C	 1.0709443944	-0.6028458194	-0.901722496	-0.260205
C	 1.3277631483	-1.6558326863	 0.2353735758	 0.128522
C	 2.785389081	-2.0433729309	 0.5027399423	-0.450237
C	 0.6733859343	-0.62887106	 1.2277502467	-0.260206
C	 0.4994751633	-2.8429401056	 0.0663105096	 0.329728
C	-0.1790221301	-3.826800857	-0.0727696576	-0.506191
H	 1.0032177538	 2.053770569	 0.2199959703	 0.108475
H	-0.3410559311	 2.0316458145	-0.9307725114	 0.115039
H	-0.6654105288	 2.0103727916	 0.8078851939	 0.11504
H	-0.9542370862	-0.2828898792	-0.1738997371	 0.082979
H	 0.7235471446	-0.9851494376	-1.863314931	 0.104536
H	 1.9665829752	 0.0072878893	-1.0608135296	 0.093393
H	 3.4000347559	-1.1462955013	 0.6284715251	 0.108524
H	 2.8688094827	-2.6484660048	 1.4110288562	 0.124528
H	 3.1935244495	-2.6271539364	-0.3283517709	 0.124532
H	 1.4486345932	-0.0266495321	 1.713608796	 0.093387
H	 0.0041703191	-1.0322405501	 1.9899487688	 0.104532
H	-0.7784011035	-4.6944950454	-0.1955652484	 0.191539
75.2398	167.3651	174.6355	218.7108	237.0368	298.9111	338.7694	345.0908	411.5933	484.1773	552.5681	599.3592	611.3941	625.7751	712.2127	825.4565	849.337	896.185	909.2621	928.4853	949.7799	1008.9584	1060.811	1086.578	1120.9106	1167.2553	1184.8661	1218.5857	1236.1102	1276.1686	1295.614	1300.2985	1375.4687	1407.9319	1411.7657	1469.5196	1488.2255	1490.1612	1495.1768	1497.1344	1500.2375	2227.018	3021.6402	3031.6334	3044.1136	3045.7696	3054.6211	3089.7807	3090.1893	3105.5956	3107.4834	3115.6563	3118.8759	3503.347
CC1CC(C)(C1)C#C	C[C@H]1C[C@@](C)(C1)C#C	
InChI=1S/C8H12/c1-4-8(3)5-7(2)6-8/h1,7H,5-6H2,2-3H3	InChI=1S/C8H12/c1-4-8(3)5-7(2)6-8/h1,7H,5-6H2,2-3H3/t7-,8-
