21
gdb 111845	2.26268	1.40754	1.11775	2.2809	78.12	-0.2489	0.068	0.317	1197.3677	0.18299	-424.213677	-424.204566	-424.203621	-424.247391	34.379	
C	-0.038992565	 1.4837278747	 0.0288244212	-0.485738
C	-0.0145586071	-0.0262808106	 0.0004274844	 0.283606
C	-1.3424219138	-0.7491713035	-0.1912626938	-0.137615
O	-1.1894218847	-2.0585870166	 0.3467875249	-0.252161
C	-0.1864959	-2.025035675	 1.3600577069	-0.098742
C	 0.7379425956	-0.875156184	 1.0062020995	-0.13191
C	 1.2361151324	-0.766521213	-0.4240165263	-0.08571
C	 1.2979509397	-1.9256364904	-1.3976897887	-0.108039
O	 2.5177494305	-2.6516653984	-1.2699364185	-0.419783
H	 0.9431371302	 1.888822301	 0.2894606476	 0.121062
H	-0.3157833723	 1.897193428	-0.9481709701	 0.122684
H	-0.7628420716	 1.8560991929	 0.7632308684	 0.117867
H	-2.1335645109	-0.1937954138	 0.3397084584	 0.0905
H	-1.6523689154	-0.8614669292	-1.2362946942	 0.108506
H	-0.6301932938	-1.8555102315	 2.3545357189	 0.096603
H	 0.2891470246	-3.0131905061	 1.3708435504	 0.100484
H	 1.3159002052	-0.4214417076	 1.8041903541	 0.087746
H	 2.1031407265	-0.1161264775	-0.5242620062	 0.089127
H	 0.4271860762	-2.5819321862	-1.2888372148	 0.115957
H	 1.2997817412	-1.5429179192	-2.4243295099	 0.106373
H	 2.5479732325	-3.0029219538	-0.3743252621	 0.279183
78.0002	138.8235	197.2819	215.3183	227.1774	234.0695	279.5416	307.4103	356.8768	471.644	524.6447	575.7548	713.0562	733.5656	848.5676	867.2833	930.1377	935.578	966.944	990.0007	1008.5341	1047.3811	1053.7243	1075.6905	1097.9193	1111.1671	1145.8195	1155.5217	1195.2557	1226.3218	1247.627	1261.356	1297.522	1339.2141	1358.6251	1368.5395	1402.4154	1420.7002	1424.94	1469.4324	1489.6913	1501.3862	1513.0311	1519.132	1526.1658	2964.3226	2974.4836	3023.7255	3036.3166	3043.1622	3058.4757	3076.1241	3080.9751	3104.5435	3127.5258	3168.9122	3815.9981
CC12COCC1C2CO	C[C@]12COC[C@H]1[C@H]2CO	
InChI=1S/C7H12O2/c1-7-4-9-3-6(7)5(7)2-8/h5-6,8H,2-4H2,1H3	InChI=1S/C7H12O2/c1-7-4-9-3-6(7)5(7)2-8/h5-6,8H,2-4H2,1H3/t5-,6+,7-/m1/s1
