19
gdb 59923	3.37808	0.82963	0.73127	1.3338	76.75	-0.2248	-0.0281	0.1967	1596.6795	0.156992	-456.354731	-456.344451	-456.343507	-456.391797	35.189	
C	-0.5046055215	 1.2824980917	-0.2471981474	-0.317621
N	-0.2399758677	-0.1281526006	-0.005478387	-0.064373
C	 1.0871425259	-0.3400491722	 0.5596393048	-0.329562
C	-1.2924910334	-0.7528346169	 0.7921555116	-0.255271
C	-1.2982611048	-2.2480918967	 0.5241974802	 0.474246
O	-0.574087414	-3.057517855	 1.0378172625	-0.339316
O	-2.2389760369	-2.5555952862	-0.4257153347	-0.198948
C	-2.3219856697	-3.8582607185	-0.8555462791	 0.118952
N	-3.2105464231	-4.1416572651	-1.698680746	-0.417399
H	 0.272829328	 1.6881673944	-0.9016430217	 0.124451
H	-1.4682692539	 1.4023091397	-0.7506843967	 0.126209
H	-0.5178932909	 1.8886419627	 0.6785373088	 0.095559
H	 1.2221338763	 0.1760736614	 1.529498296	 0.093633
H	 1.2631404805	-1.4055724503	 0.7178316787	 0.147687
H	 1.8421965346	 0.0378173413	-0.1360792277	 0.120537
H	-1.1633504917	-0.5977115238	 1.8779392212	 0.106596
H	-2.2575110722	-0.3424102006	 0.4903317121	 0.13078
H	-1.5770516978	-4.5059125375	-0.3933174417	 0.143392
H	-3.1586731977	-5.1321298878	-1.9333080941	 0.240448
22.6139	58.0881	103.3736	114.8374	195.5937	220.5655	239.1081	249.5132	329.4721	370.1649	408.7075	438.9173	537.6378	635.1239	773.8954	854.8255	869.7909	932.4736	993.0684	1043.3304	1058.3515	1069.786	1072.9177	1122.5675	1151.8714	1191.491	1244.7269	1262.7894	1300.8683	1311.7978	1386.6989	1404.2961	1445.474	1469.4824	1483.4546	1486.7986	1498.334	1501.4572	1512.922	1746.8852	1836.2107	2924.9132	2931.6914	2952.4558	3066.1838	3076.6403	3110.214	3117.2975	3135.3621	3140.8451	3505.5673
CN(C)CC(=O)OC=N	CN(C)CC(=O)O[CH][NH]	
InChI=1S/C5H10N2O2/c1-7(2)3-5(8)9-4-6/h4,6H,3H2,1-2H3	InChI=1S/C5H10N2O2/c1-7(2)3-5(8)9-4-6/h4,6H,3H2,1-2H3
