21
gdb 86668	2.49239	1.26109	1.08178	1.7216	79.03	-0.2447	-0.0256	0.2192	1229.0274	0.179289	-424.233528	-424.223467	-424.222522	-424.268383	37.401	
C	-0.8970922089	 0.9579270412	-1.0681276889	-0.425102
C	 0.1604508406	-0.0954750269	-0.7797029486	 0.027742
C	 1.5925622622	 0.0676696016	-1.3619144785	-0.286928
C	 2.1377584425	-0.5846960815	-0.0645132949	-0.122711
C	 3.4478803748	-0.1401334497	 0.5185465443	 0.129053
O	 3.6846135109	-0.0856343065	 1.7017075977	-0.259101
C	 0.7764260251	-0.248302267	 0.6446487215	 0.36865
C	 0.7974960785	 1.0279442254	 1.4804549604	-0.455518
O	 0.1712928094	-1.307437828	 1.354988125	-0.47516
H	-0.5461507578	 1.9661913328	-0.8256079459	 0.113667
H	-1.1686159053	 0.950081104	-2.1293206059	 0.116343
H	-1.8095380715	 0.7702723669	-0.4922503153	 0.125704
H	-0.2182449396	-1.0866476367	-1.0518336212	 0.089209
H	 1.8115589023	-0.4259048746	-2.3104294371	 0.105514
H	 1.8826993991	 1.1212507545	-1.4416680581	 0.102864
H	 2.1869626992	-1.6741800161	-0.1869758134	 0.116251
H	 4.2265941708	 0.1430984324	-0.2290042753	 0.07509
H	 1.2188815508	 1.8744005971	 0.9288452419	 0.114266
H	-0.2209076394	 1.2872843738	 1.7833063268	 0.122231
H	 1.4121412033	 0.8874069006	 2.3740609913	 0.13634
H	 0.5606085929	-1.3360673635	 2.2362995942	 0.281596
54.1504	96.021	155.2645	206.5786	213.1154	250.9697	288.9923	297.9623	317.9899	363.5637	420.1621	438.0214	495.8278	563.8739	650.0121	695.6649	807.9048	868.9579	897.7643	916.2598	957.3296	978.4698	1030.5262	1049.6439	1094.9625	1119.5852	1147.6927	1159.7542	1174.2317	1196.8832	1232.5007	1247.2381	1297.6707	1323.2937	1367.1584	1390.485	1411.1023	1411.8046	1421.1418	1486.394	1492.3011	1495.1651	1501.8059	1505.049	1809.4911	2848.718	3030.8709	3037.081	3040.2744	3045.2831	3053.658	3096.0383	3102.1301	3109.6362	3114.4575	3121.7505	3798.2472
CC1CC(C=O)C1(C)O	C[C@H]1C[C@@H](C=O)[C@]1(C)O	
InChI=1S/C7H12O2/c1-5-3-6(4-8)7(5,2)9/h4-6,9H,3H2,1-2H3	InChI=1S/C7H12O2/c1-5-3-6(4-8)7(5,2)9/h4-6,9H,3H2,1-2H3/t5-,6-,7+/m0/s1
