14
gdb 125841	3.3916	1.14991	0.86334	1.3207	67.35	-0.2759	-0.0495	0.2264	1254.3149	0.099647	-469.962618	-469.954219	-469.953275	-469.997645	28.57	
C	-0.0264992939	 1.5069464774	 0.0023899093	-0.496256
C	-0.0099795658	 0.0183161124	 0.0452000448	 0.237354
N	-0.0199855161	-0.7455720963	-1.011371443	-0.124397
O	 0.0014285577	-2.0383442233	-0.561747436	-0.167661
N	 0.0253875931	-2.0905859715	 0.8111424555	-0.181042
C	 0.0187043124	-0.8436297046	 1.1860784462	 0.38477
O	 0.0354266869	-0.3884813774	 2.451755667	-0.219685
C	 0.0665748393	-1.2990380296	 3.4848329019	 0.109142
N	 0.0794723499	-0.8458306875	 4.6545846278	-0.418137
H	 0.8589032598	 1.9178076541	 0.4972503687	 0.155714
H	-0.0477244082	 1.850997159	-1.0325411771	 0.159271
H	-0.9031111624	 1.8991111204	 0.5271660572	 0.155752
H	 0.0766743205	-2.3356973036	 3.145134907	 0.157651
H	 0.102723247	-1.6109388394	 5.3263309506	 0.247523
21.6055	86.5519	114.3927	144.7547	252.4782	273.7034	379.9081	470.1554	512.7653	618.8764	671.0701	744.3762	837.249	841.7212	916.3439	938.1648	1015.7352	1029.5435	1053.5699	1070.2914	1077.1509	1247.4163	1283.3833	1404.6444	1417.6039	1439.6631	1477.1812	1488.8068	1559.9494	1639.6605	1754.0291	3049.5732	3107.433	3128.5356	3149.9909	3521.7491
CC1=NON=C1OC=N	Cc1nonc1O[CH][NH]	
InChI=1S/C4H5N3O2/c1-3-4(8-2-5)7-9-6-3/h2,5H,1H3	InChI=1S/C4H5N3O2/c1-3-4(8-2-5)7-9-6-3/h2,5H,1H3
