23
gdb 71882	2.69393	1.65404	1.2669	0.1506	89.32	-0.2512	0.0896	0.3408	1113.5161	0.206258	-351.132946	-351.124618	-351.123674	-351.164929	34.462	
C	 0.0830225584	 1.5445808674	 0.0014771528	-0.497416
C	-0.0163081367	 0.0360108283	-0.0129179444	 0.372839
C	 0.4696796729	-0.7187170579	-1.2811734889	-0.27427
C	-0.6930224386	-1.7309188081	-1.1420715367	-0.029297
C	-0.4558095012	-2.7832815287	-0.0320981669	-0.274268
C	-0.8099596782	-1.7344478197	 1.0582214571	 0.372839
C	-1.5942584656	-2.1970624062	 2.2651680888	-0.497416
C	 0.3550347943	-0.7321690545	 1.2852884428	-0.325401
C	-1.3612321193	-0.7875130103	-0.0778427525	-0.143552
H	 1.1307148428	 1.8681460104	 0.051465005	 0.113326
H	-0.3550456502	 1.983314697	-0.9024029337	 0.109694
H	-0.4358296006	 1.9724985756	 0.8669956716	 0.109177
H	 0.3364833542	-0.0941125852	-2.171025986	 0.091241
H	 1.4932462858	-1.1110365868	-1.2820287195	 0.083733
H	-1.177909013	-2.0681161937	-2.0586880266	 0.059692
H	-1.2202345001	-3.5668157387	-0.0700196613	 0.091241
H	 0.5294038232	-3.2611590249	 0.0188142579	 0.083733
H	-0.983157387	-2.8474533895	 2.9042294866	 0.113326
H	-1.9251439907	-1.3501292874	 2.8772644287	 0.109176
H	-2.4839514362	-2.7654954748	 1.970683839	 0.109695
H	 1.3698919775	-1.1387437798	 1.3652190762	 0.083496
H	 0.1609426829	-0.1113616716	 2.1675924943	 0.087403
H	-2.3646301848	-0.3672715608	-0.1266979543	 0.05101
182.9314	212.2154	216.7396	224.0603	268.6567	337.7527	366.0996	382.526	417.9862	551.099	556.7278	683.2978	733.7543	810.0874	843.211	843.2363	852.7327	907.154	926.5421	937.0415	948.4506	956.4944	995.6574	1025.7367	1033.4307	1048.4122	1109.742	1113.7091	1141.7615	1158.4864	1192.767	1217.364	1227.8675	1238.6788	1243.2621	1260.0664	1269.0792	1306.9315	1335.9536	1351.6124	1410.433	1412.944	1474.4755	1476.8675	1490.3565	1490.8116	1492.367	1493.4317	1498.2614	3012.5968	3012.7735	3020.3047	3025.12	3029.7007	3070.0165	3074.7543	3075.1092	3076.6682	3078.5004	3085.5717	3086.569	3095.7288	3123.9625
CC12CC3CC(C)(C1)C23	C[C@@]12C[C@H]3C[C@@](C)(C1)[C@@H]23	
InChI=1S/C9H14/c1-8-3-6-4-9(2,5-8)7(6)8/h6-7H,3-5H2,1-2H3	InChI=1S/C9H14/c1-8-3-6-4-9(2,5-8)7(6)8/h6-7H,3-5H2,1-2H3/t6-,7+,8+,9-
