16
gdb 56926	2.27835	1.22843	0.96271	3.4857	75.05	-0.2782	-0.0074	0.2707	1250.8565	0.121617	-400.702368	-400.693119	-400.692175	-400.736986	33.132	
C	-0.2749269868	 1.3341455667	 0.0985400045	-0.397425
C	 0.1602911309	-0.1154084499	-0.2023551725	-0.204035
C	 0.9535344304	-0.206579718	-1.4264325026	 0.322757
C	 1.6311009455	-0.2693355709	-2.4167208613	-0.46197
C	 0.9633726586	-0.673616502	 0.9633740065	 0.083488
O	 0.2485139447	-0.9508471575	 2.1626243049	-0.233556
C	 0.8195319259	-2.0588628101	 1.4582565694	-0.107468
C	-0.1099395916	-2.9859706681	 0.8493719803	 0.311637
N	-0.837274663	-3.7440863094	 0.3677500287	-0.326753
H	 0.5963263476	 1.9838191934	 0.2232149288	 0.129551
H	-0.8767832221	 1.726528831	-0.7240205502	 0.136597
H	-0.8687323307	 1.3595270808	 1.0158646169	 0.139342
H	-0.7398245553	-0.7320387229	-0.3143393866	 0.136435
H	 2.2135000183	-0.335164154	-3.3025572738	 0.205191
H	 1.9361471399	-0.2046685721	 1.1173834724	 0.121525
H	 1.6642534876	-2.5347253669	 1.9523505847	 0.144685
45.3755	102.8321	135.8577	199.7911	223.2441	242.6707	258.3696	361.3324	430.153	496.3816	530.3445	579.4808	631.9492	641.4146	660.9212	791.0523	859.807	872.0464	956.4987	978.2291	1056.4429	1074.5202	1100.9736	1150.4323	1175.347	1276.8662	1290.935	1322.953	1379.0811	1405.2075	1455.7113	1495.5648	1498.1147	2239.6597	2361.9823	3040.4214	3048.8723	3109.6296	3125.2588	3135.7811	3139.1519	3502.8409
CC(C#C)C1OC1C#N	C[C@@H](C#C)[C@H]1O[C@H]1C#N	
InChI=1S/C7H7NO/c1-3-5(2)7-6(4-8)9-7/h1,5-7H,2H3	InChI=1S/C7H7NO/c1-3-5(2)7-6(4-8)9-7/h1,5-7H,2H3/t5-,6-,7+/m0/s1
