20
gdb 120355	3.14497	0.98953	0.80056	3.2911	82.61	-0.2309	-0.0036	0.2273	1470.5732	0.171961	-399.36241	-399.353172	-399.352227	-399.397083	33.811	
C	-0.0545531197	 1.5734460907	-0.0192513147	-0.383852
C	 0.0030276271	 0.0437451565	-0.0020262002	-0.168872
C	 0.7160724519	-0.5062566322	 1.2360615102	-0.159448
C	 0.8144969748	-2.0379080945	 1.2456934201	-0.060443
N	 1.681866161	-2.551196112	 0.1654450412	-0.245856
C	 2.5777135021	-3.2541922985	 0.7373426462	 0.059186
N	 2.4859816735	-3.3498204669	 2.1210093057	-0.34601
C	 1.4007083713	-2.5843085469	 2.5507430892	 0.377044
N	 0.9624494675	-2.3549215125	 3.7203167338	-0.546967
H	 0.9516033418	 2.0076206147	-0.0201442396	 0.11265
H	-0.5752861338	 1.9418451958	-0.9087204287	 0.110397
H	-0.5801897945	 1.9625539801	 0.8600722075	 0.113257
H	-1.0166167098	-0.3626168276	-0.0396010586	 0.091824
H	 0.5129082584	-0.323466476	-0.899152532	 0.119715
H	 1.7299677284	-0.0904170436	 1.299322504	 0.093275
H	 0.1943225884	-0.2063329352	 2.1522172806	 0.121587
H	-0.1917652826	-2.454979842	 1.1064849386	 0.116359
H	 3.3796445359	-3.7713324978	 0.2193097086	 0.133699
H	 3.1401458104	-3.8210319495	 2.7229607598	 0.256595
H	 1.5172817478	-2.8221221825	 4.4393556281	 0.20586
68.8542	88.9092	107.7864	139.5145	248.1342	266.7621	292.8154	331.6337	405.5771	489.8364	605.3272	642.6332	684.4463	748.1606	834.462	852.0182	877.5932	897.8116	918.5341	945.205	957.5334	1044.9914	1078.5129	1084.9838	1088.3086	1129.1879	1146.164	1247.2175	1248.1828	1286.4772	1306.065	1330.6443	1342.4966	1353.6277	1393.065	1412.6377	1413.5584	1480.7719	1494.6514	1500.4426	1510.9191	1683.1983	1759.5815	3016.9548	3021.4217	3027.7554	3032.9285	3062.3562	3079.8431	3098.3417	3101.2371	3187.8423	3454.2564	3660.198
CCCC1N=CNC1=N	CCC[C@H]1N=CN[C]1[NH]	
InChI=1S/C6H11N3/c1-2-3-5-6(7)9-4-8-5/h4-5H,2-3H2,1H3,(H2,7,8,9)	InChI=1S/C6H11N3/c1-2-3-5-6(7)9-4-8-5/h4-5H,2-3H2,1H3,(H2,7,8,9)/t5-/m1/s1
