19
gdb 106747	2.20759	1.50744	1.06497	3.8346	77.31	-0.2336	-0.0058	0.2278	1186.6063	0.15693	-423.020437	-423.010934	-423.00999	-423.055191	34.692	
C	 0.2181199245	 1.4976490579	 0.2330259903	-0.377348
C	-0.1494978692	 0.0350539523	-0.056215523	-0.295631
C	 0.5224218571	-0.5018720108	-1.2898279054	 0.146444
C	 1.9892203322	-0.978481055	-1.2934371363	-0.399343
C	 0.9732998897	-1.9400024962	-1.7701475232	 0.366593
O	 0.7152292572	-3.1788428245	-1.2309763181	-0.450849
C	 0.569978161	-1.6317821758	-3.2107220772	-0.407659
C	 0.1070792095	-0.2401564185	-2.7001978854	 0.383687
O	-0.5389250012	 0.6352026132	-3.210490973	-0.326892
H	 1.2943734108	 1.6092759374	 0.4018614571	 0.112572
H	-0.0583983684	 2.1326064981	-0.6132968275	 0.144928
H	-0.3038673546	 1.8645152383	 1.122062411	 0.112061
H	 0.112085056	-0.5977147553	 0.8020694464	 0.091741
H	-1.2356040159	-0.0481392787	-0.1813035499	 0.115203
H	 2.7332922608	-0.545440669	-1.9589111442	 0.122109
H	 2.3562556274	-1.1487700795	-0.2824313297	 0.114663
H	 1.3141934733	-3.3356581473	-0.4947617023	 0.293152
H	 1.3479639326	-1.6801422531	-3.9791262476	 0.115396
H	-0.2990296229	-2.2128112635	-3.5334116319	 0.13917
61.2159	80.4693	132.8253	140.8513	201.5499	251.1057	277.7592	363.2514	411.1712	476.022	531.3468	575.8499	639.1082	665.9264	726.2073	767.4147	791.5057	856.9642	965.1243	982.7048	990.3667	1006.3297	1048.1602	1084.1665	1091.648	1110.922	1143.9192	1189.5787	1210.7722	1299.5802	1327.5381	1368.7511	1391.0301	1404.32	1411.6823	1461.191	1478.6251	1496.7887	1507.9469	1509.6751	1864.6211	3018.6407	3037.03	3050.1118	3057.6453	3089.8841	3105.1864	3109.1428	3120.1973	3169.2103	3831.2646
CCC12CC1(O)CC2=O	CC[C@@]12C[C@]1(O)CC2=O	
InChI=1S/C7H10O2/c1-2-6-4-7(6,9)3-5(6)8/h9H,2-4H2,1H3	InChI=1S/C7H10O2/c1-2-6-4-7(6,9)3-5(6)8/h9H,2-4H2,1H3/t6-,7+/m0/s1
