22
gdb 106773	2.00088	1.63631	1.12687	0.6759	83.29	-0.1967	0.0769	0.2736	1204.6594	0.192675	-404.296872	-404.287167	-404.286223	-404.330902	37.171	
C	 0.2095945255	-1.7205570959	 0.9696804187	-0.400458
C	-0.1293010623	-0.6505925932	-0.07591553	-0.301242
C	 0.6312328295	-0.7885457332	-1.3659532387	 0.328847
C	 2.070159953	-1.2456371987	-1.5001110537	-0.390853
C	 0.9836165631	-1.9545875171	-2.2716729602	 0.309574
O	 0.7105901482	-3.3062127807	-2.1390264098	-0.459366
C	 0.5434622484	-1.1009060133	-3.4599874534	-0.236051
N	 0.369671685	 0.0780702866	-2.5520880484	-0.128171
C	-0.9382904654	 0.7009031016	-2.6384658623	-0.329777
H	 0.0793336135	-2.7256151363	 0.558658517	 0.139784
H	 1.2424839275	-1.6281945493	 1.318809959	 0.118672
H	-0.4430760159	-1.6191089436	 1.8415907898	 0.111567
H	-1.204191585	-0.6902092932	-0.2895053849	 0.106821
H	 0.0619554457	 0.3467036783	 0.3444425622	 0.105897
H	 2.7918019327	-0.6044521924	-2.000656396	 0.105755
H	 2.4507475935	-1.8174702698	-0.6597153816	 0.110234
H	 1.5085977749	-3.8005306076	-2.3581309199	 0.284924
H	 1.2502352384	-0.9426769931	-4.2834172691	 0.092059
H	-0.4146325205	-1.4566849768	-3.8598885552	 0.100736
H	-1.7867866517	-0.004507546	-2.5582294702	 0.092567
H	-1.0478011631	 1.4572963631	-1.8550347595	 0.119589
H	-1.020686835	 1.2096356508	-3.6047853039	 0.118895
84.1833	121.924	146.3421	219.3526	248.7712	259.4668	287.2167	323.6068	365.6011	400.1245	443.2441	452.6024	527.6514	593.7441	690.9562	720.4302	811.4338	820.7927	871.0802	940.9288	969.4228	989.4722	1026.1696	1048.2225	1062.2619	1097.5483	1128.8074	1148.9056	1169.9357	1191.5675	1195.025	1223.2508	1277.2628	1298.2639	1306.5916	1342.4684	1384.9725	1409.0312	1418.6912	1450.3078	1479.7843	1494.6144	1498.5915	1502.0023	1504.7992	1515.6469	1521.3676	2924.4039	3009.23	3012.2348	3043.0317	3049.295	3058.7759	3062.6196	3100.6688	3106.9416	3110.4736	3121.4274	3208.25	3782.6947
CCC12CC1(O)CN2C	CC[C@@]12C[C@]1(O)CN2C	
InChI=1S/C7H13NO/c1-3-6-4-7(6,9)5-8(6)2/h9H,3-5H2,1-2H3	InChI=1S/C7H13NO/c1-3-6-4-7(6,9)5-8(6)2/h9H,3-5H2,1-2H3/t6-,7+/m1/s1
