14
gdb 27942	2.51672	1.39597	0.89953	6.2415	70.4	-0.2055	-0.0228	0.1827	1194.1576	0.10162	-470.05095	-470.042757	-470.041812	-470.083588	30.336	
N	 0.0587755168	 1.3807202902	 0.2384146619	-0.597625
C	-0.0276053263	 0.003817579	 0.0775309159	 0.391685
N	-1.1023174574	-0.7207770254	 0.1125805531	-0.349276
C	-0.6711289247	-2.0490724724	 0.0129182753	 0.058768
C	-1.5217901488	-3.2143408626	 0.0074674359	 0.072912
O	-2.728416775	-3.2481066133	 0.1038830555	-0.288254
C	 0.7080664266	-2.0666968615	-0.0971591303	 0.349477
O	 1.64118589	-3.0236216062	-0.2279935566	-0.417282
N	 1.1202988114	-0.7641026742	-0.0582432655	-0.346641
H	 0.5818983164	 1.8489893448	-0.4927246384	 0.251826
H	-0.8730986573	 1.7724076947	 0.3022466358	 0.269579
H	-0.9410955624	-4.171216532	-0.1018128401	 0.007471
H	 1.2059476958	-3.8839768762	-0.2396353707	 0.320261
H	 2.078008925	-0.4554563347	-0.0161735119	 0.2771
135.6845	164.2122	213.4319	238.6459	265.0373	302.6633	349.9412	412.805	432.9467	474.5445	582.1368	645.4865	683.5178	694.9438	701.6974	799.4765	882.3923	1005.1224	1006.7712	1124.2668	1153.9368	1204.1465	1279.2753	1360.099	1423.3102	1476.0669	1532.587	1617.3167	1619.6693	1678.6019	1795.6678	2736.5479	3524.1918	3622.0143	3655.1774	3811.5977
NC1=NC(C=O)=C(O)N1	Nc1nc(C=O)c(O)[nH]1	
InChI=1S/C4H5N3O2/c5-4-6-2(1-8)3(9)7-4/h1,9H,(H3,5,6,7)	InChI=1S/C4H5N3O2/c5-4-6-2(1-8)3(9)7-4/h1,9H,(H3,5,6,7)
