19
gdb 99238	5.06756	0.6392	0.59102	1.8141	73.8	-0.2488	-0.0124	0.2364	1880.4571	0.15526	-460.224408	-460.213578	-460.212634	-460.262771	35.977	
C	-0.0109570504	 1.370871577	 0.0932009864	-0.239586
O	 0.2655195241	-0.0348200272	 0.0540475172	-0.231071
C	 0.5454298603	-0.5345041252	-1.1655320373	 0.446487
O	 0.590384659	 0.1384393387	-2.1663988171	-0.362754
C	 0.7597562445	-2.030983589	-1.0981271109	-0.329281
C	 1.4969864881	-2.570402654	-2.319514298	-0.302165
C	 1.2759165403	-4.0599008078	-2.5481881479	 0.380832
C	 2.165014439	-4.710852001	-3.5915435926	-0.474027
O	 0.4342156505	-4.6849440879	-1.9436492022	-0.294402
H	 0.8473323383	 1.9431377011	-0.2678252965	 0.140157
H	-0.8778791881	 1.6114847343	-0.5274016161	 0.140682
H	-0.2133992673	 1.6043107225	 1.1384954285	 0.133808
H	 1.2688555608	-2.2808895969	-0.1636240471	 0.132463
H	-0.2237353726	-2.5114097317	-1.0320138585	 0.160062
H	 1.1527954496	-2.0375617613	-3.2159161873	 0.153815
H	 2.5735900127	-2.3676867734	-2.2669623089	 0.119864
H	 3.2000633524	-4.7352464021	-3.2305387137	 0.142365
H	 1.8277766948	-5.7295545218	-3.7857400228	 0.143768
H	 2.1673396539	-4.1307035843	-4.5204786351	 0.138983
29.1971	38.0593	71.2727	111.0377	122.7535	133.4733	175.4219	245.9171	278.6637	351.8571	461.1836	484.353	573.1751	610.8264	694.5826	766.7235	824.4806	911.3571	932.5202	959.5627	1023.6494	1075.8952	1096.1137	1173.1066	1177.6452	1180.2328	1207.0732	1225.8588	1271.287	1343.5859	1382.5744	1395.5936	1454.4532	1462.8608	1465.2622	1474.686	1476.6539	1482.6695	1497.6358	1809.5392	1814.7658	3031.9399	3039.1567	3051.8321	3056.4758	3064.0286	3097.5134	3104.1274	3126.1171	3153.3895	3159.021
COC(=O)CCC(C)=O	COC(=O)CCC(=O)C	
InChI=1S/C6H10O3/c1-5(7)3-4-6(8)9-2/h3-4H2,1-2H3	InChI=1S/C6H10O3/c1-5(7)3-4-6(8)9-2/h3-4H2,1-2H3
