19
gdb 113494	4.50498	0.9548	0.87212	2.0925	76.57	-0.2482	0.0199	0.2682	1349.0048	0.158906	-423.014243	-423.005676	-423.004732	-423.048119	32.262	
O	 0.0132719049	 1.2728021558	-0.5538054621	-0.418151
C	 0.0572192648	 0.1103714292	 0.2568528823	-0.085692
C	-1.3062097097	-0.5263330706	 0.361666168	-0.048017
O	-1.7691788369	-1.1587837258	-0.8467736878	-0.299136
C	-1.5431067556	-1.9741256922	 0.3143315197	 0.407167
C	-0.4474098929	-3.0449827518	 0.2074161206	-0.339838
C	-1.1904565799	-4.3203836067	 0.5203089645	-0.068854
C	-2.4453231308	-4.0975599386	 0.9083550465	-0.06402
C	-2.7866809191	-2.6291116329	 0.9317254657	-0.33973
H	-0.3572476293	 1.0005313602	-1.4013161162	 0.292998
H	 0.783663551	-0.6204842157	-0.1266011035	 0.091657
H	 0.3975315717	 0.4368964274	 1.2458675638	 0.110487
H	-2.0604627738	 0.1018273362	 0.8406992055	 0.090364
H	-0.0053013732	-3.0372531975	-0.7950624523	 0.12417
H	 0.3730767503	-2.8724966252	 0.9172407471	 0.113664
H	-0.7231609173	-5.2951945043	 0.4404544862	 0.096597
H	-3.1575145776	-4.8636192031	 1.1928298865	 0.096971
H	-2.9720332482	-2.2713918926	 1.9537823075	 0.11304
H	-3.6751241786	-2.3765545119	 0.3417237481	 0.126323
52.984	82.0337	141.346	196.7879	313.4568	376.2739	407.0057	411.8441	420.573	496.657	614.9928	696.5982	767.7162	785.4845	811.2973	886.0719	933.4942	957.9966	980.2413	980.9353	991.1824	1037.7216	1062.459	1082.9946	1114.1426	1131.4649	1155.7597	1203.153	1210.9392	1225.9574	1280.4988	1288.7465	1340.9575	1370.8605	1378.0532	1423.4562	1468.6142	1470.9586	1493.1847	1499.2216	1688.5858	3002.4486	3014.5521	3016.3306	3061.7795	3063.7527	3069.2183	3092.101	3187.9752	3212.437	3798.386
OCC1OC11CC=CC1	OC[C@H]1O[C@]21CC=CC2	
InChI=1S/C7H10O2/c8-5-6-7(9-6)3-1-2-4-7/h1-2,6,8H,3-5H2	InChI=1S/C7H10O2/c8-5-6-7(9-6)3-1-2-4-7/h1-2,6,8H,3-5H2/t6-/m1/s1
