16
gdb 74195	2.44544	1.62746	1.03578	3.4374	73.71	-0.2646	-0.0527	0.212	1119.8886	0.124385	-437.925744	-437.917658	-437.916714	-437.958748	29.66	
C	 0.0961058709	 1.4914851383	 0.0209077712	-0.478668
C	-0.0469170684	-0.0018218595	 0.0187830839	 0.294507
C	-0.0309330457	-0.7082323859	-1.120696267	-0.267771
C	-0.0470186175	-2.1712479358	-1.2631707002	 0.403203
O	 0.426121467	-2.7459443564	-2.202918798	-0.309871
O	-0.6520858842	-2.9558221797	-0.2852585909	-0.228565
C	-1.4881914368	-2.5048047026	 0.7087254716	 0.131963
N	-1.367656559	-1.5225951801	 1.4812722501	-0.219235
C	-0.1866350092	-0.6681894795	 1.3715108695	-0.271115
H	 0.960058265	 1.7949505813	 0.6255389478	 0.142982
H	 0.2184079737	 1.8951633154	-0.9862683547	 0.135784
H	-0.7836855548	 1.956392841	 0.4830396926	 0.147983
H	 0.1248838437	-0.207686212	-2.0707759797	 0.120994
H	-2.3273899674	-3.18957072	 0.8124795093	 0.140845
H	 0.7180535785	-1.2577755798	 1.5828176699	 0.137508
H	-0.2568949759	 0.0941711852	 2.1510620747	 0.119456
79.0227	124.5047	156.7819	215.5978	305.7318	342.8879	363.3157	467.8334	500.987	543.528	614.6261	720.8598	792.4495	827.0403	878.3659	900.7685	962.6743	969.8056	991.7378	1052.9283	1070.2334	1115.9713	1158.8966	1221.448	1251.6856	1344.4773	1384.3274	1408.6346	1413.4426	1474.3589	1481.6428	1497.9133	1705.9236	1757.9433	1834.2402	2999.4129	3022.8038	3072.727	3088.9894	3128.7458	3166.2489	3187.2641
CC1=CC(=O)OC=NC1	CC1=CC(=O)OC=NC1	
InChI=1S/C6H7NO2/c1-5-2-6(8)9-4-7-3-5/h2,4H,3H2,1H3	InChI=1S/C6H7NO2/c1-5-2-6(8)9-4-7-3-5/h2,4H,3H2,1H3
