19
gdb 84209	3.75269	1.63412	1.5174	1.1807	84.9	-0.1929	-0.0302	0.1626	944.9643	0.160042	-348.631827	-348.625016	-348.624072	-348.662561	29.011	
C	-0.1663316193	 1.5772043351	-0.0809823982	-0.408598
C	-0.0469609185	 0.0528668063	-0.0228943927	-0.008083
C	 0.8335769226	-0.4780653769	-1.1690054014	-0.136337
C	 1.6132879572	-1.4425716407	-0.6455806107	 0.065597
C	 2.9439305018	-1.2138313456	 0.037767832	-0.116019
C	 2.3359795681	-0.4102227546	 1.2780091731	-0.078194
C	 2.5370969219	-1.9123103323	 1.2957032567	-0.095902
C	 1.089895121	-1.9685041711	 0.7213299027	-0.10516
C	 0.768219045	-0.5346172076	 1.190606046	-0.028458
H	 0.8207658595	 2.0467285671	-0.1561629844	 0.118484
H	-0.7590955353	 1.8989810413	-0.9432447595	 0.118227
H	-0.6515998161	 1.9602816085	 0.823262627	 0.113692
H	-1.0598106322	-0.374137357	 0.0350586046	 0.077325
H	 1.1670044127	 0.2012397567	-1.949393805	 0.087329
H	 3.930766334	-0.958377434	-0.328976474	 0.091602
H	 2.9271156964	 0.3515640086	 1.7723892863	 0.085233
H	 3.0793381838	-2.5516220893	 1.9774816937	 0.089066
H	 0.3939945716	-2.8025375651	 0.7838187369	 0.072494
H	 0.3025563757	-0.4021566593	 2.1738432166	 0.057702
132.452	228.4607	268.5417	378.1624	485.2206	511.7546	555.1215	633.6574	683.8519	745.4222	773.0063	794.7356	812.5145	834.6117	860.8356	869.6938	905.88	919.223	934.4791	976.2363	1011.6042	1017.7102	1038.1305	1053.9016	1063.4805	1086.5594	1120.2611	1132.8045	1170.7203	1189.7697	1216.574	1228.6179	1241.9729	1269.3788	1313.9899	1336.827	1340.3646	1404.0185	1492.0806	1498.868	1591.6848	2978.5187	3027.6517	3049.7816	3095.3635	3101.2071	3134.9246	3153.4759	3180.9052	3187.3983	3217.8656
CC1C=C2C3C4C3C2C14	C[C@H]1[CH][C]2[C@H]3[C@@H]4[C@H]3[C@H]2[C@H]14	
InChI=1S/C9H10/c1-3-2-4-6-5(3)8-7(4)9(6)8/h2-3,5-9H,1H3	InChI=1S/C9H10/c1-3-2-4-6-5(3)8-7(4)9(6)8/h2-3,5-9H,1H3/t3-,5-,6+,7-,8+,9-/m0/s1
