16
gdb 88050	2.41629	1.37442	1.11376	5.0299	69.34	-0.2742	-0.003	0.2712	1120.4668	0.123178	-437.844875	-437.836383	-437.835438	-437.878442	30.881	
O	-0.0158985408	 1.3538385159	-0.0749082812	-0.417641
C	 0.0375009092	-0.0287034447	 0.0998653555	 0.039613
C	-0.5461998907	-0.6470844605	 1.3526206809	-0.393078
C	-1.2829587202	-0.7141209852	 0.0463614354	 0.260591
C	-2.6082439262	-0.0896740138	-0.3646258464	-0.130713
O	-2.9138301482	-1.2497775874	-1.1892038966	-0.281749
C	-1.7102876588	-1.9278607768	-0.7869906444	-0.081338
C	-0.8415968464	-2.2907383811	-1.9123853313	 0.291503
N	-0.1265815052	-2.5781028725	-2.773536402	-0.326259
H	 0.6903451473	 1.7526475194	 0.4441685283	 0.29636
H	 0.8840751922	-0.532760969	-0.3669222054	 0.114389
H	-0.0920925023	-1.553318195	 1.7413938301	 0.125904
H	-0.9439353021	 0.0292311881	 2.1029764805	 0.126814
H	-3.3484898833	 0.0385477168	 0.4332238352	 0.113188
H	-2.5333474915	 0.8270776288	-0.9568252095	 0.137886
H	-1.9307547632	-2.8332350731	-0.205764859	 0.12453
70.843	99.0737	169.9273	194.6869	254.1639	285.1771	346.4795	428.1622	469.8673	527.8939	567.9942	614.8019	809.5264	826.0504	883.5595	933.3223	962.938	993.6045	1019.9903	1039.8441	1047.3676	1098.1214	1100.9762	1146.7162	1175.8931	1218.2771	1239.5408	1291.3813	1313.3184	1353.7183	1373.9586	1429.899	1502.4392	1523.8736	2356.099	3017.5927	3034.8126	3093.0229	3105.2841	3123.4003	3214.5149	3810.7861
OC1CC11COC1C#N	O[C@H]1C[C@]21CO[C@H]2C#N	
InChI=1S/C6H7NO2/c7-2-5-6(3-9-5)1-4(6)8/h4-5,8H,1,3H2	InChI=1S/C6H7NO2/c7-2-5-6(3-9-5)1-4(6)8/h4-5,8H,1,3H2/t4-,5-,6+/m0/s1
