19
gdb 47500	2.7677	1.45272	1.12224	1.7838	75.68	-0.2381	-0.0157	0.2224	1120.6797	0.159726	-423.040002	-423.032051	-423.031107	-423.072545	31.295	
O	 0.029955635	-0.0647612569	-0.0009789253	-0.304978
C	-0.0059511085	 1.1423337756	-0.014792485	 0.378208
C	-1.3013024767	 1.9404651421	-0.0482911112	-0.300695
C	-1.2178767458	 3.0657056516	-1.0955204979	-0.100752
O	-0.0626948256	 3.8676410457	-0.8998724469	-0.284022
C	 1.1201526071	 3.1257772749	-1.0412445024	 0.427213
C	 1.6523772142	 2.9316968345	-2.4419583526	-0.320413
C	 2.3096849306	 3.910170577	-1.4830798948	-0.332284
C	 1.2450572731	 2.0136537835	-0.0076326481	-0.361485
H	-2.139848939	 1.2672462794	-0.2427847367	 0.121298
H	-1.4427577142	 2.3966610116	 0.9403836439	 0.127115
H	-1.2126993063	 2.6341617144	-2.1078868312	 0.102969
H	-2.0766213406	 3.7368857353	-1.0144573148	 0.11493
H	 2.1720554988	 2.0108678148	-2.6832875225	 0.121273
H	 1.0710644603	 3.3547250337	-3.2535067121	 0.121671
H	 2.150063796	 4.9664336357	-1.6664414404	 0.128585
H	 3.2775362615	 3.6584033991	-1.0634307159	 0.116878
H	 1.3346725828	 2.4700929808	 0.9882287055	 0.12457
H	 2.1229207173	 1.3872658072	-0.1795341617	 0.119917
82.1464	118.6506	239.2883	272.0856	335.7288	379.6202	418.0449	478.7149	496.2482	535.5152	628.7533	750.3808	773.5691	778.6864	830.364	873.2606	922.4966	935.1599	952.5952	972.3935	1004.4979	1048.6974	1078.9302	1094.6982	1103.5685	1141.23	1187.6802	1219.2949	1228.49	1258.3719	1285.9214	1298.6284	1335.5325	1366.0225	1408.7681	1447.3564	1451.8313	1461.2569	1491.9542	1506.7636	1824.902	2994.6534	3017.5	3032.0911	3096.2806	3111.6042	3114.7314	3134.6607	3138.8512	3219.6971	3233.4755
O=C1CCOC2(CC2)C1	O=C1CCOC2(CC2)C1	
InChI=1S/C7H10O2/c8-6-1-4-9-7(5-6)2-3-7/h1-5H2	InChI=1S/C7H10O2/c8-6-1-4-9-7(5-6)2-3-7/h1-5H2
