17
gdb 60706	4.71213	0.63148	0.59364	2.9886	81.43	-0.249	-0.0409	0.2081	1852.7244	0.133542	-421.78588	-421.776372	-421.775428	-421.822231	33.289	
O	-0.3383518222	 1.2715063953	 0.1447008036	-0.410192
C	 0.0130295694	-0.0745767851	-0.0341257389	-0.114767
C	 0.8751377722	-0.2356773344	-1.2915407031	 0.14527
O	 1.2072240847	 0.7185621608	-1.9465148042	-0.251891
C	 0.7554170531	-0.6559232842	 1.0877754382	 0.087103
C	 1.3904421878	-1.1426848657	 1.9906019434	 0.051123
C	 2.1341070925	-1.7118258865	 3.0741113195	-0.158928
C	 1.6224389217	-1.5737188892	 4.5013309823	-0.248715
C	 1.5842787263	-2.9126253692	 3.8312517116	-0.252018
H	 0.1691505776	 1.7592620374	-0.5241203151	 0.295815
H	-0.8997041016	-0.6739993986	-0.2009653528	 0.121057
H	 1.1815890321	-1.2693324093	-1.5404192862	 0.113354
H	 3.2132398113	-1.6808940326	 2.9560072679	 0.11459
H	 2.3632309106	-1.3986457573	 5.2729633227	 0.123228
H	 0.6882828443	-1.0428198325	 4.6381617755	 0.134058
H	 0.6229377145	-3.2964312232	 3.511771629	 0.128757
H	 2.2971339657	-3.6694931558	 4.1382268864	 0.122155
24.8252	59.712	88.3817	125.1994	200.7774	232.8679	309.9331	394.0112	444.7645	457.8932	505.1961	560.951	692.2886	757.3344	796.1934	824.3838	837.6072	893.7135	918.767	1015.1994	1053.4704	1063.9486	1082.6719	1117.8391	1130.6007	1184.4372	1201.3148	1230.3726	1237.4568	1324.3763	1387.4375	1390.3501	1431.2565	1467.1895	1497.262	1820.8674	2348.4662	2948.431	2964.7073	3142.6983	3145.7706	3150.2653	3228.0349	3243.2634	3685.4748
OC(C=O)C#CC1CC1	O[C@@H](C=O)C#CC1CC1	
InChI=1S/C7H8O2/c8-5-7(9)4-3-6-1-2-6/h5-7,9H,1-2H2	InChI=1S/C7H8O2/c8-5-7(9)4-3-6-1-2-6/h5-7,9H,1-2H2/t7-/m1/s1
