14
gdb 8054	3.59052	1.88932	1.5424	4.9857	62.71	-0.2714	0.0016	0.273	824.1169	0.107675	-378.64973	-378.642856	-378.641912	-378.680703	25.975	
O	-0.0872444327	 1.368149302	 0.0535656976	-0.453725
C	 0.0485336987	 0.0000900364	 0.0351598582	 0.35322
C	 0.5415897148	-0.9601899333	-1.0790139402	-0.234483
N	 0.0652985789	-1.9236132475	 0.0208096193	-0.134
C	 0.7708739671	-0.9707983162	 1.0050333939	-0.25617
C	-1.1506325755	-0.9709612881	 0.1362025104	-0.143541
C	-1.9284901969	-1.0564524341	 1.3628493608	 0.29219
N	-2.5653969023	-1.1112226264	 2.3257462189	-0.326123
H	 0.7859263586	 1.774570378	 0.088683008	 0.292831
H	-0.0362084547	-1.0272352703	-2.0037005471	 0.116823
H	 1.6156824301	-1.0266057175	-1.2622091685	 0.112594
H	 1.8596146926	-1.0344661271	 0.9486402081	 0.110764
H	 0.4100291791	-1.0506869627	 2.0314225691	 0.143023
H	-1.8108736376	-1.0292036333	-0.7322067384	 0.126599
137.3645	175.8235	194.7975	343.7839	360.3477	471.9405	515.1533	546.5495	634.7734	648.5096	770.5235	816.4119	896.85	916.9657	963.6414	989.4303	1048.7932	1074.298	1097.5454	1101.1021	1156.5794	1176.8926	1189.4999	1247.4126	1294.7122	1349.1022	1394.307	1509.8014	1551.395	2357.8335	3066.015	3074.6165	3092.9784	3139.8367	3148.6054	3809.4771
OC12CN(C1)C2C#N	O[C@@]12CN(C1)[C@H]2C#N	
InChI=1S/C5H6N2O/c6-1-4-5(8)2-7(4)3-5/h4,8H,2-3H2	InChI=1S/C5H6N2O/c6-1-4-5(8)2-7(4)3-5/h4,8H,2-3H2/t4-/m0/s1
