17
gdb 22553	2.60962	1.24933	0.95485	3.7291	76.89	-0.2529	-0.0105	0.2424	1231.3379	0.133798	-417.972653	-417.963066	-417.962122	-418.008267	34.227	
C	 0.0950881947	 1.5191796056	-0.0365313681	-0.505085
C	 0.0489110489	 0.0184532344	 0.0203148986	 0.296117
N	 0.0466656218	-0.6966471151	 1.0790600011	-0.177326
O	 0.1201952464	 0.0581373948	 2.2526726082	-0.392299
C	 0.0514667442	-0.739890834	-1.2787034821	 0.120849
C	 1.3145055132	-1.5375469463	-1.6480268232	-0.275488
C	 0.06358566	-2.2621934435	-1.2796271303	-0.29162
C	-0.6319753615	-0.0936924466	-2.3714063998	 0.226114
N	-1.1786180614	 0.425889134	-3.2489236982	-0.35235
H	 0.9066686436	 1.8477870154	-0.6943893166	 0.143071
H	-0.8343227732	 1.9109182454	-0.463605919	 0.16218
H	 0.2374271694	 1.9422300407	 0.9558070622	 0.159266
H	 0.0996859857	-0.6230428073	 2.9330501251	 0.309463
H	 1.6257981333	-1.5205108881	-2.6858370836	 0.142317
H	 2.1135153091	-1.4915149373	-0.9175296258	 0.139964
H	 0.0012790326	-2.7188385032	-0.3008861275	 0.154467
H	-0.4987853768	-2.7491346389	-2.0668578511	 0.140361
32.1913	45.8446	138.5482	183.7223	209.7007	247.2227	329.7394	343.1448	402.1676	426.0348	470.9731	537.4645	584.3044	605.6736	729.4724	789.4239	863.2764	874.0311	952.4706	969.2388	990.2008	1037.0233	1061.2206	1072.2298	1102.9984	1178.6668	1202.6364	1292.7936	1320.4764	1400.7966	1407.7616	1457.5641	1478.3534	1483.8789	1487.3589	1726.2692	2349.5005	3045.9386	3097.8559	3145.8237	3159.7765	3174.9867	3239.5127	3259.9689	3822.1758
CC(=NO)C1(CC1)C#N	CC(=NO)C1(CC1)C#N	
InChI=1S/C6H8N2O/c1-5(8-9)6(4-7)2-3-6/h9H,2-3H2,1H3	InChI=1S/C6H8N2O/c1-5(8-9)6(4-7)2-3-6/h9H,2-3H2,1H3
