19
gdb 86889	2.95567	1.25736	1.02286	1.5184	77.09	-0.2585	0.0348	0.2933	1222.3176	0.15727	-422.996699	-422.987443	-422.986499	-423.030975	34.498	
C	-0.2763455837	 1.5349413233	-0.0098931814	-0.399733
C	 0.1869915116	 0.0909767811	-0.1582664577	 0.123158
O	 1.0203723461	-0.0129808492	-1.3261446068	-0.274669
C	 2.3226016736	-0.3994387006	-0.9155593873	-0.015265
O	 2.4051376551	-0.1535445931	 0.4655996953	-0.242374
C	 1.0985158307	-0.4540291718	 0.9685806633	 0.092859
C	 0.9447558464	 0.1313680604	 2.3583687599	-0.420391
C	 2.5785877668	-1.815468378	-1.2454947532	 0.345355
C	 2.8083540296	-2.9617781591	-1.5227730956	-0.452619
H	 0.5717107228	 2.1999886561	 0.1764930264	 0.128272
H	-0.7643219479	 1.8563915741	-0.9338448833	 0.128204
H	-0.9943485	 1.6386365376	 0.8098977446	 0.113304
H	-0.6784743288	-0.5677913244	-0.2971662825	 0.085672
H	 3.0590157237	 0.2395083965	-1.4156740417	 0.115425
H	 0.9799357614	-1.547121287	 1.0119801475	 0.085535
H	 1.102456585	 1.2122544236	 2.3549769563	 0.131452
H	-0.0558271772	-0.0767717278	 2.7496558975	 0.122308
H	 1.6747611366	-0.3204274271	 3.0349754632	 0.133456
H	 3.0111453582	-3.9749138244	-1.7696314745	 0.200052
45.4026	98.0858	176.1625	224.2983	257.8308	263.092	268.2879	338.6604	373.1865	484.686	535.9989	583.9276	653.6084	668.7548	693.0955	771.1322	809.6156	870.6539	889.7223	951.3968	987.5794	1013.3755	1055.7646	1082.722	1112.8084	1127.5555	1163.6886	1189.5685	1299.0144	1338.236	1359.3015	1370.4831	1388.4606	1392.4658	1411.436	1422.524	1478.4548	1489.9165	1497.1836	1506.7857	2232.9972	2989.1468	3035.1059	3040.8312	3049.2988	3050.1217	3114.1962	3119.7084	3122.8717	3133.44	3500.9461
CC1OC(OC1C)C#C	C[C@H]1O[C@@H](O[C@H]1C)C#C	
InChI=1S/C7H10O2/c1-4-7-8-5(2)6(3)9-7/h1,5-7H,2-3H3	InChI=1S/C7H10O2/c1-4-7-8-5(2)6(3)9-7/h1,5-7H,2-3H3/t5-,6+,7+
