19
gdb 16187	4.05057	1.57526	1.35808	1.8489	70.42	-0.2324	0.0728	0.3052	965.5393	0.167283	-365.043923	-365.036323	-365.035379	-365.07573	29.458	
O	 0.1673390601	 1.3592571345	 0.2366400657	-0.415477
C	 0.0503648633	-0.0379910442	 0.000973357	-0.151606
C	-1.3906434876	-0.4809297928	-0.0859610514	 0.31494
C	-2.1065243415	-0.9756637488	 1.1259309168	-0.302631
N	-1.6693658325	-1.9209683781	 0.0864877311	-0.132273
C	-2.7325926346	-2.272948418	-0.8764011842	-0.149176
C	-3.3807735463	-0.9611741192	-1.3780716055	-0.243565
C	-2.2570920748	 0.0824777012	-1.2078646006	-0.261978
H	-0.2750172135	 1.5476654596	 1.0710960042	 0.281552
H	 0.5558839068	-0.2178612143	-0.954678158	 0.108435
H	 0.5710333867	-0.630861049	 0.7670420923	 0.09517
H	-1.5735183564	-1.0723606149	 2.0688960486	 0.109304
H	-3.1673355865	-0.7621484822	 1.2327787889	 0.108939
H	-2.2512574166	-2.8080898006	-1.7023265265	 0.108418
H	-3.4488723621	-2.9585928807	-0.4130320838	 0.105547
H	-3.7288102021	-1.0408595816	-2.4107875665	 0.103671
H	-4.2522157651	-0.6961353521	-0.772235329	 0.106546
H	-2.633267257	 1.0861055478	-0.9938722825	 0.108512
H	-1.6483439603	 0.1560980235	-2.1168923765	 0.105675
84.5002	155.6144	229.2883	281.8832	303.3222	381.058	409.1883	453.3841	618.4727	649.5731	701.7396	816.3441	838.4091	890.2604	899.2268	928.3598	947.8084	958.3312	1007.245	1037.8025	1065.8843	1083.5765	1109.7875	1166.9412	1185.3842	1190.3723	1210.9221	1260.3086	1279.1902	1319.1434	1337.738	1350.9558	1362.6062	1399.2225	1422.1962	1490.3017	1492.2386	1499.6779	1504.5672	1525.7125	2998.9211	3039.718	3042.1985	3058.8254	3065.9936	3084.5911	3094.2764	3098.4324	3109.0336	3180.2519	3807.9198
OCC12CN1CCC2	OC[C@]12CN1CCC2	
InChI=1S/C6H11NO/c8-5-6-2-1-3-7(6)4-6/h8H,1-5H2	InChI=1S/C6H11NO/c8-5-6-2-1-3-7(6)4-6/h8H,1-5H2/t6-,7?/m0/s1
