21
gdb 87848	3.54559	1.27426	1.21192	1.783	82.29	-0.2496	0.0953	0.3449	1141.0543	0.184008	-387.070095	-387.062325	-387.061381	-387.102079	31.62	
C	-0.0048818533	 1.5116795963	-0.1214928618	-0.419042
C	-0.0176283217	 0.0169791798	 0.0693770253	-0.052422
O	 1.2529691312	-0.6577121057	-0.0063014198	-0.321162
C	 0.5534261974	-0.6557265551	 1.2388107071	 0.49855
C	 1.1946672696	 0.0063896483	 2.4758238345	-0.307216
C	 0.9503155459	-1.1396404326	 3.482052053	-0.02487
C	 1.3385817803	-2.3964626908	 2.6474239242	-0.228401
C	 0.0852200838	-1.9836453937	 1.8173670414	-0.09614
C	-0.5289875366	-1.5207221027	 3.1736142726	-0.229596
H	 0.7993152355	 1.976125224	 0.4542199328	 0.126476
H	 0.1426173243	 1.7618534563	-1.177366317	 0.128274
H	-0.9591727605	 1.9473087712	 0.1952094652	 0.118657
H	-0.8148152607	-0.5051598179	-0.4655423108	 0.082138
H	 2.2551328498	 0.2117906095	 2.3056524114	 0.111823
H	 0.7024102419	 0.9383445435	 2.7711448202	 0.099666
H	 1.3069757658	-0.9917108765	 4.50128646	 0.062336
H	 2.3066296133	-2.404703672	 2.1393343938	 0.103908
H	 1.1866279398	-3.3285422739	 3.1962892747	 0.095888
H	-0.4235364529	-2.6663223041	 1.1375073781	 0.063368
H	-0.8842963856	-2.3598290623	 3.775942656	 0.098817
H	-1.2773936372	-0.7222697315	 3.1580968494	 0.088946
115.4829	167.3715	200.2806	239.9633	369.8579	407.9866	448.3646	496.8382	526.3191	551.6463	735.7638	787.9015	830.4255	842.898	852.1901	876.3644	899.3796	944.6622	961.2334	979.8298	1011.8446	1021.0649	1036.5659	1057.1305	1080.9704	1090.9219	1114.4277	1126.572	1157.5408	1183.7759	1213.2433	1225.8595	1239.249	1262.2824	1272.053	1296.3892	1314.2823	1366.8051	1409.2898	1473.8397	1486.2926	1487.2532	1492.5026	1517.1078	1529.4628	3035.4015	3048.6618	3051.5225	3059.9044	3075.3269	3097.4091	3100.115	3112.4957	3115.3334	3120.5612	3124.6912	3127.3733
CC1OC11CC2CC1C2	C[C@H]1O[C@]21C[C@@H]1C[C@H]2C1	
InChI=1S/C8H12O/c1-5-8(9-5)4-6-2-7(8)3-6/h5-7H,2-4H2,1H3	InChI=1S/C8H12O/c1-5-8(9-5)4-6-2-7(8)3-6/h5-7H,2-4H2,1H3/t5-,6-,7+,8+/m1/s1
