18
gdb 71080	2.52283	1.58661	1.32045	4.7731	76.83	-0.2184	0.0094	0.2278	1049.8771	0.146911	-401.905763	-401.897453	-401.896509	-401.938313	31.883	
C	-0.0519915841	 1.4267284293	-0.0224742385	-0.511361
C	-0.0034619884	-0.0685778145	-0.0243533305	 0.286868
N	 1.04145	-0.8330064786	-0.7600290753	-0.357317
C	 0.1653265757	-2.0367893423	-0.5277433539	-0.237636
C	 0.3144641671	-2.2328464127	 0.9953874261	 0.498621
O	 0.5872027647	-3.1685229013	 1.6932304032	-0.348022
C	-0.3279706895	-0.9059660703	 1.2195854756	-0.291889
C	-1.0691929326	-1.1077480293	-0.1573555792	 0.27515
C	-2.538147558	-1.1594052311	-0.4254621679	-0.526839
H	 0.8605318138	 1.8383179379	 0.4203476609	 0.144659
H	-0.1428747302	 1.8163226196	-1.0426407147	 0.123713
H	-0.907245859	 1.7912820055	 0.5540997085	 0.129348
H	 0.945747541	-0.5763782351	-1.7441901782	 0.213877
H	 0.206371111	-2.8636185958	-1.2317450798	 0.092447
H	-0.7265080071	-0.4707076926	 2.1265226663	 0.107127
H	-3.0512477108	-0.3222038104	 0.0586870506	 0.131291
H	-2.7493389247	-1.1056862567	-1.4992949369	 0.129962
H	-2.9797336591	-2.0859097016	-0.0426137263	 0.140001
117.9573	175.0847	187.9607	192.6191	254.6788	262.2039	371.0814	463.6744	517.8296	554.5615	613.9869	661.2778	686.4325	770.0669	813.7923	827.5396	912.5958	926.4328	936.1391	986.9265	1015.8209	1065.6831	1090.8813	1121.5173	1122.2023	1146.8424	1154.6385	1201.1357	1270.0829	1292.6944	1354.3216	1411.6992	1414.4352	1472.1432	1479.4811	1484.9887	1492.3965	1509.2107	1883.2106	3027.0851	3032.9507	3089.251	3097.6944	3100.2767	3113.9836	3165.0607	3211.7143	3432.2904
CC12NC3C(=O)C1C23C	C[C@@]12N[C@H]3C(=O)[C@@H]1[C@@]23C	
InChI=1S/C7H9NO/c1-6-4-3(9)5(6)8-7(4,6)2/h4-5,8H,1-2H3	InChI=1S/C7H9NO/c1-6-4-3(9)5(6)8-7(4,6)2/h4-5,8H,1-2H3/t4-,5+,6-,7-/m1/s1
