14
gdb 56384	2.08795	1.57219	1.13082	2.9	66.88	-0.2772	-0.0432	0.2339	1080.2635	0.099828	-432.83658	-432.827797	-432.826852	-432.870301	31.197	
O	 0.210072844	 1.4209202337	 0.0013602242	-0.424261
C	 0.1047996627	 0.0136753801	-0.0189866339	 0.032875
C	-1.3197374223	-0.4001320764	 0.0533675701	 0.281501
N	-2.4351252009	-0.6916676774	 0.1167049567	-0.306481
C	 0.7007858327	-0.5451353359	-1.2571555776	 0.287895
N	 1.187272822	-0.9574526504	-2.2199240998	-0.30924
C	 0.8670630041	-0.5370803134	 1.1979236122	 0.011968
C	 2.1194148462	 0.128922276	 1.6226658763	-0.238807
N	 0.8927253429	 0.2281123766	 2.4366242535	-0.318712
H	-0.2770299666	 1.789322136	-0.7454841165	 0.316632
H	 0.745189089	-1.6105837971	 1.3088497181	 0.133797
H	 2.9145934576	-0.4688704834	 2.056239105	 0.136631
H	 2.4392304529	 1.0034675191	 1.0659842311	 0.141228
H	 0.4634429456	 1.1390787726	 2.2888887006	 0.254976
74.3827	128.1879	138.3522	171.6492	253.1594	280.3654	308.4661	356.4277	443.8503	513.2391	532.9533	583.0371	590.2578	718.0445	842.628	891.7262	952.8867	982.3779	1008.2434	1079.0931	1107.0079	1132.1369	1151.1219	1215.9054	1267.6469	1299.1233	1338.2337	1409.9253	1503.5959	2359.699	2363.6918	3128.871	3157.9998	3221.4518	3507.6476	3806.0434
OC(C#N)(C#N)C1CN1	OC(C#N)(C#N)[C@H]1CN1	
InChI=1S/C5H5N3O/c6-2-5(9,3-7)4-1-8-4/h4,8-9H,1H2	InChI=1S/C5H5N3O/c6-2-5(9,3-7)4-1-8-4/h4,8-9H,1H2/t4-/m1/s1
