18
gdb 53984	2.96712	1.11645	1.03426	1.3111	68.35	-0.2441	-0.041	0.2031	1212.5196	0.144417	-476.274836	-476.264832	-476.263887	-476.309882	36.525	
C	 0.3198321058	 1.6299407112	 0.0760540861	-0.430109
C	 0.0820163178	 0.1160879145	-0.064053923	 0.259888
O	 0.6613565501	-0.5985184703	 1.0212959267	-0.494503
C	-1.4212646376	-0.2127950463	-0.1838480609	-0.314183
C	-2.2202742039	 0.0159386821	 1.0724070571	 0.14954
O	-1.7513383729	 0.2171590842	 2.1710258732	-0.260785
C	 0.759897145	-0.348590261	-1.3698688459	 0.386168
N	 1.8080644786	-1.1848522656	-1.1962262005	-0.526066
O	 0.3567181903	 0.0408271208	-2.4521998673	-0.396314
H	 1.3875906942	 1.8180052779	 0.2172587056	 0.128065
H	-0.0105737048	 2.1485728181	-0.8268699316	 0.139791
H	-0.2172952734	 2.027650292	 0.941002326	 0.125898
H	 0.1636758157	-0.3396044559	 1.8101039235	 0.295246
H	-1.8721403832	 0.3386005119	-1.0156062226	 0.15143
H	-1.5566049939	-1.2761400451	-0.4353610661	 0.143063
H	-3.3227479929	-0.0395520696	 0.94183288	 0.101972
H	 2.0548465057	-1.48871924	-0.2695646977	 0.280045
H	 2.2950813794	-1.5309601388	-2.0054944425	 0.260851
42.4188	102.4064	157.4562	169.3155	236.3569	248.5964	283.3808	306.1582	325.0736	385.3908	414.9513	498.893	534.4784	556.9632	637.003	663.5113	702.3542	774.6886	833.8366	876.458	927.51	973.2203	997.218	1096.6258	1128.9024	1142.5433	1200.7764	1264.6311	1314.5394	1347.8709	1392.4464	1415.8203	1433.4349	1437.7752	1495.1039	1504.2455	1592.9875	1790.16	1800.6533	2901.7245	3012.1	3050.1002	3086.3346	3126.1608	3137.2608	3601.5361	3726.6726	3743.6324
CC(O)(CC=O)C(N)=O	C[C@@](O)(CC=O)C(=O)N	
InChI=1S/C5H9NO3/c1-5(9,2-3-7)4(6)8/h3,9H,2H2,1H3,(H2,6,8)	InChI=1S/C5H9NO3/c1-5(9,2-3-7)4(6)8/h3,9H,2H2,1H3,(H2,6,8)/t5-/m1/s1
