21
gdb 98321	4.10594	0.74376	0.70731	2.3239	85.45	-0.2426	-0.0143	0.2283	1681.9189	0.178385	-387.088359	-387.077282	-387.076338	-387.125548	39.108	
C	 0.0841182889	 1.5431321847	-0.1568426648	-0.377095
C	-0.0042635529	 0.0366391004	 0.0719419592	-0.28679
C	 0.7618521899	-0.44437734	 1.2958084861	 0.384057
O	 1.2457359677	 0.3258571545	 2.0952875452	-0.316817
C	 0.9040270698	-1.9594903342	 1.4629891932	-0.079117
C	 2.1793458191	-2.4249704391	 0.7328111576	-0.397927
C	 0.9376382125	-2.3233709008	 2.9655748972	-0.359875
C	 1.0057086061	-3.7589432997	 3.2041073142	 0.295422
C	 1.0531688148	-4.9476439124	 3.3794218796	-0.442085
H	 1.1180380676	 1.8513716802	-0.3344694684	 0.12848
H	-0.5172668755	 1.8402716369	-1.0203777888	 0.110791
H	-0.2702247146	 2.0890880225	 0.7205618948	 0.135885
H	-1.0487128614	-0.2802935588	 0.2105799735	 0.126743
H	 0.3444975386	-0.5276107103	-0.8030421878	 0.120908
H	 0.0412503241	-2.4489306587	 0.9956303991	 0.089122
H	 2.3029811027	-3.5044887032	 0.8491532433	 0.141123
H	 2.1365516673	-2.1988671473	-0.3368144733	 0.117699
H	 3.0610409663	-1.9287353436	 1.1510673032	 0.133536
H	 1.7911422276	-1.8154740236	 3.4275108112	 0.150451
H	 0.0469292065	-1.9134862471	 3.4569813146	 0.131988
H	 1.0982355248	-5.9941285303	 3.5527767013	 0.193503
40.5616	58.5492	67.4566	125.7733	180.8598	203.5309	229.7183	250.1745	284.2482	325.1553	348.1896	392.1221	533.0464	567.7466	615.9428	640.6789	652.7682	795.7496	807.075	855.3062	897.1292	975.737	989.1964	1025.2005	1041.6697	1062.7885	1108.5587	1121.5047	1145.3338	1246.2658	1275.4673	1298.7234	1335.6778	1362.0709	1383.242	1405.5437	1413.7059	1448.8086	1466.3874	1492.2081	1497.3207	1498.0144	1502.2518	1801.6223	2235.9496	3011.2734	3036.2447	3038.7346	3040.7092	3046.1249	3051.7764	3077.6483	3111.57	3120.8688	3124.9732	3130.5223	3506.6263
CCC(=O)C(C)CC#C	CCC(=O)[C@@H](C)CC#C	
InChI=1S/C8H12O/c1-4-6-7(3)8(9)5-2/h1,7H,5-6H2,2-3H3	InChI=1S/C8H12O/c1-4-6-7(3)8(9)5-2/h1,7H,5-6H2,2-3H3/t7-/m0/s1
