17
gdb 64849	3.26959	1.03276	0.89699	4.822	79.79	-0.2601	0.0019	0.262	1305.4566	0.13461	-380.82623	-380.817246	-380.816301	-380.859929	33.672	
C	-0.2064290224	 1.5621289357	 0.0240334358	-0.45021
C	 0.0090815688	 0.0424432483	-0.0246004801	 0.115237
C	 0.8385288801	-0.4188297045	-1.2689104442	-0.28361
C	 2.0643186311	-0.4513829732	-0.3131746896	-0.125316
N	 1.1351727246	-0.4410621239	 0.8354937251	-0.323676
C	 2.9529906228	-1.6120830174	-0.3823136337	 0.297652
N	 3.6645570484	-2.5196571707	-0.4559363388	-0.320358
C	-1.2472966323	-0.6608017835	 0.2081553028	 0.30235
C	-2.2957149137	-1.2211876593	 0.3846183352	-0.415565
H	 0.7280635417	 2.0944197817	-0.1823120535	 0.1175
H	-0.9509064154	 1.8706920897	-0.7155799566	 0.138033
H	-0.5692695625	 1.8623769147	 1.0118044694	 0.134285
H	 0.5542625019	-1.4097502228	-1.6185245759	 0.146902
H	 0.8907577525	 0.2781685033	-2.1047782623	 0.125435
H	 2.6819322009	 0.4510271479	-0.4145236245	 0.11534
H	 1.3916808931	 0.1697997144	 1.6046523982	 0.226692
H	-3.2132649595	-1.7313121104	 0.5465622624	 0.199311
62.5603	153.9895	171.0139	183.242	244.1156	262.5645	334.6596	384.913	476.9721	504.0927	558.4663	577.3455	596.5487	630.8557	661.9486	709.2369	785.0402	897.2334	924.5588	943.3032	971.4221	1008.5417	1065.7075	1090.8722	1159.6947	1170.4987	1226.7702	1263.425	1283.1857	1357.1682	1395.6897	1407.6916	1480.8993	1488.0395	1494.4217	2237.0222	2358.5951	3009.3978	3034.3424	3102.8747	3108.4821	3116.3953	3170.7862	3500.5121	3521.714
CC1(CC(N1)C#N)C#C	C[C@]1(C[C@@H](N1)C#N)C#C	
InChI=1S/C7H8N2/c1-3-7(2)4-6(5-8)9-7/h1,6,9H,4H2,2H3	InChI=1S/C7H8N2/c1-3-7(2)4-6(5-8)9-7/h1,6,9H,4H2,2H3/t6-,7-/m1/s1
