12
gdb 29001	3.08027	1.56793	1.03904	3.3943	70.11	-0.2831	-0.0758	0.2073	1027.685	0.08058	-431.745658	-431.738851	-431.737907	-431.777151	25.091	
O	 0.1132459644	 1.3295928627	 0.0615221087	-0.383709
C	 0.0761738108	-0.000185482	 0.0321917213	 0.402938
N	 0.087222619	-0.6101810327	-1.1458331209	-0.343524
C	 0.0489377568	-1.9431841118	-1.1315180408	 0.089952
N	 0.0007169878	-2.7336214779	-0.0601847978	-0.261184
C	-0.0098722376	-2.1079710181	 1.1171363901	-0.02119
C	 0.026536614	-0.7183597722	 1.2440257785	 0.004301
C	 0.0142478978	-0.0740445725	 2.5131416933	 0.23417
N	 0.0034297305	 0.4293612885	 3.5553171208	-0.325896
H	 0.1440466159	 1.632790225	-0.8585638632	 0.314864
H	 0.0585359939	-2.4334646703	-2.1014477125	 0.140158
H	-0.0489584934	-2.7269392188	 2.0093172524	 0.14912
125.8919	146.205	230.4583	375.2728	389.1502	481.2799	517.3053	591.3786	600.111	606.2873	620.1902	760.4235	823.0429	916.0253	973.6715	1024.3624	1114.7681	1191.7058	1241.4519	1284.4405	1348.6696	1370.0238	1437.7755	1507.1156	1603.8972	1637.4685	2348.3056	3176.1791	3179.3111	3748.5202
OC1=NC=NC=C1C#N	Oc1ncncc1C#N	
InChI=1S/C5H3N3O/c6-1-4-2-7-3-8-5(4)9/h2-3H,(H,7,8,9)	InChI=1S/C5H3N3O/c6-1-4-2-7-3-8-5(4)9/h2-3H,(H,7,8,9)
