15
gdb 56373	2.02131	1.51122	1.26409	5.2092	71.09	-0.2761	-0.0037	0.2724	1075.4777	0.110263	-416.735266	-416.726079	-416.725134	-416.7692	33.193	
N	 0.0717550803	 1.5322664404	 0.1396517409	-0.519966
C	 0.0002366186	 0.0715264024	-0.0507808491	-0.157022
C	 0.5995296896	-0.3997596025	-1.3100532412	 0.337841
C	 1.1007527978	-0.7162999554	-2.3548179649	-0.444546
C	 0.71669698	-0.5613718423	 1.0812594795	 0.315596
N	 1.2714830713	-1.0472293337	 1.9694908904	-0.327429
C	-1.4901751324	-0.3069647229	 0.0612260977	 0.120455
C	-2.3508062509	-0.4424459239	-1.1186971462	-0.204646
O	-1.8799320813	-1.5844282483	-0.3928166621	-0.222112
H	 1.0451147691	 1.8225039021	 0.1718252034	 0.253746
H	-0.3406331566	 1.9775344829	-0.6761127837	 0.244825
H	 1.5480537567	-1.0151116509	-3.2713830196	 0.214263
H	-1.9179072901	 0.017776997	 1.008317517	 0.128026
H	-3.414424201	-0.2335317819	-1.0227521722	 0.129329
H	-1.925724821	-0.324727363	-2.1125202199	 0.131639
74.313	126.5247	148.9978	162.6895	229.0198	254.5905	275.1058	354.3247	429.1444	496.9191	507.2501	576.012	644.3918	658.9381	664.2352	673.422	855.7943	886.3414	910.5507	979.2823	990.5546	1089.9406	1118.3734	1160.9084	1172.977	1182.5881	1291.9017	1310.5478	1411.4006	1520.1287	1652.8023	2234.4935	2367.45	3099.2831	3134.0643	3193.989	3490.0878	3496.4672	3574.2446
NC(C#C)(C#N)C1CO1	N[C@@](C#C)(C#N)[C@H]1CO1	
InChI=1S/C6H6N2O/c1-2-6(8,4-7)5-3-9-5/h1,5H,3,8H2	InChI=1S/C6H6N2O/c1-2-6(8,4-7)5-3-9-5/h1,5H,3,8H2/t5-,6+/m1/s1
