21
gdb 57414	3.17107	1.07485	1.01195	4.1207	78.35	-0.2729	0.0121	0.285	1289.6031	0.180347	-424.270104	-424.260411	-424.259467	-424.304364	36.554	
C	 0.0216415205	 1.557291544	-0.120237563	-0.427969
C	-0.0213673763	 0.0217864199	-0.025241212	 0.227728
C	 0.8227000242	-0.4372059824	 1.1800586816	-0.411208
C	-1.4747424298	-0.459263347	 0.1407970572	-0.411383
C	 0.5508662254	-0.6464730929	-1.2801465557	 0.145107
C	 0.100989876	-0.2174815237	-2.6915855182	-0.453645
C	 1.566918765	 0.1776489828	-2.8639136016	 0.448895
O	 2.2670788341	 0.6343451751	-3.7082852601	-0.317509
O	 1.9237276451	-0.2011756604	-1.5942980647	-0.257598
H	 1.0408292563	 1.9146868748	-0.2890915167	 0.137467
H	-0.6148250264	 1.9414719982	-0.9237948493	 0.111881
H	-0.3387393024	 1.9977534506	 0.8145619183	 0.117548
H	 0.4461788881	 0.0089856466	 2.1060290759	 0.113203
H	 0.7894259791	-1.526225447	 1.2957401427	 0.110343
H	 1.8687535741	-0.1421759444	 1.0589264953	 0.136976
H	-2.1024525953	-0.1464140131	-0.7004676327	 0.115117
H	-1.529710496	-1.5510630532	 0.2157896414	 0.114412
H	-1.9113506583	-0.0421982583	 1.0537383007	 0.120808
H	 0.56472659	-1.7328084679	-1.1455866565	 0.09337
H	-0.2285756486	-1.0161071807	-3.3579031817	 0.142715
H	-0.5964726847	 0.618437739	-2.7533194209	 0.143745
74.8267	90.713	191.8279	216.2063	248.6281	253.7439	286.5566	310.2393	340.9939	385.3009	433.6987	503.828	522.1078	542.5515	700.0432	774.8798	842.4508	909.0213	936.3592	940.8571	961.2905	961.8591	986.3424	1035.0991	1054.4474	1064.6014	1117.9507	1140.2302	1221.2757	1230.6246	1237.211	1292.5855	1316.784	1381.3114	1399.4902	1400.2762	1434.9863	1453.1557	1480.888	1486.58	1489.5846	1505.0853	1507.5071	1521.3274	1938.9403	3027.0761	3031.8809	3040.0612	3058.3949	3094.0027	3094.7338	3098.5672	3099.5136	3104.7827	3116.2228	3122.181	3151.3893
CC(C)(C)C1CC(=O)O1	CC(C)(C)[C@H]1CC(=O)O1	
InChI=1S/C7H12O2/c1-7(2,3)5-4-6(8)9-5/h5H,4H2,1-3H3	InChI=1S/C7H12O2/c1-7(2,3)5-4-6(8)9-5/h5H,4H2,1-3H3/t5-/m1/s1
