16
gdb 16777	3.74315	1.84397	1.76163	0.7612	60.19	-0.2292	0.071	0.3002	816.6188	0.129611	-420.840579	-420.832916	-420.831972	-420.873493	27.442	
O	-0.4538112385	 1.5542752711	-0.0316624985	-0.405814
C	-0.1267022158	 0.1812907945	 0.0019039297	-0.099936
C	-1.4068692	-0.6435150478	 0.0139099928	 0.237057
O	-2.1935156018	-0.3312605276	 1.1542506202	-0.274822
C	-3.5028738838	-0.0452265212	 0.7297767245	 0.065571
C	-3.7016878313	 1.2411928243	-0.0456348387	-0.345045
C	-3.4936938925	-0.0810760561	-0.7555347654	 0.065536
O	-2.1793384374	-0.3869427736	-1.1496607991	-0.274831
H	 0.3624646083	 2.0606240823	-0.0454627217	 0.29317
H	 0.4566543578	-0.1266374524	-0.8793036646	 0.097612
H	 0.4470163111	-0.0852797258	 0.9027559141	 0.097553
H	-1.1313063776	-1.7128681476	 0.0414059194	 0.075261
H	-4.2714695255	-0.474228268	 1.3619227721	 0.104327
H	-4.7002849521	 1.6666760636	-0.0621665603	 0.108137
H	-2.8730223681	 1.9388041298	-0.0572654172	 0.151911
H	-4.2546141228	-0.5402484354	-1.3756558973	 0.104312
48.6933	70.7804	141.8698	248.9402	296.1628	336.2437	461.5053	639.0602	737.3892	754.5581	766.1563	801.5907	855.8906	900.1833	942.5225	1008.8401	1010.1921	1063.1496	1068.8147	1072.766	1098.8361	1126.898	1138.1795	1177.1875	1212.8301	1230.7704	1263.7954	1306.7544	1376.8232	1378.3848	1413.8003	1458.1289	1460.8878	1501.7469	2941.5785	2984.4699	3019.2085	3131.8961	3173.5417	3183.2015	3240.808	3847.7624
OCC1OC2CC2O1	OC[C@H]1O[C@H]2C[C@H]2O1	
InChI=1S/C5H8O3/c6-2-5-7-3-1-4(3)8-5/h3-6H,1-2H2	InChI=1S/C5H8O3/c6-2-5-7-3-1-4(3)8-5/h3-6H,1-2H2/t3-,4+,5-
