18
gdb 39058	2.52472	2.00223	1.35459	2.9165	76.1	-0.2354	-0.0023	0.2332	965.0157	0.150588	-401.904119	-401.897208	-401.896264	-401.935062	28.489	
C	-0.0136196009	 1.4832178097	-0.1307619635	-0.275729
C	 1.3602756012	 2.111043279	-0.0251474774	-0.096305
C	 2.1602171053	 2.0125705024	 1.0401739095	-0.031526
C	 1.8450031633	 1.3363618505	 2.3250419679	-0.003029
O	 0.4749822013	 1.3045613944	 2.7612268063	-0.237843
C	 1.0809754673	 0.0645241973	 2.4353392725	 0.045307
C	 0.5890894348	-0.6833627296	 1.2352532478	-0.047475
N	-0.8599501073	-0.6853746331	 0.9536693715	-0.332861
C	 0.0602171352	-0.0298801962	 0.0092715704	-0.025834
H	-0.6625935182	 1.867224484	 0.6588315877	 0.152549
H	-0.4737125855	 1.7377885508	-1.0905477072	 0.092971
H	 1.726078054	 2.6646065401	-0.8862762984	 0.093423
H	 3.1400511911	 2.4823651965	 1.0078046322	 0.086656
H	 2.5445088141	 1.5524691877	 3.1330639988	 0.092223
H	 1.2922035618	-0.565214684	 3.3024491939	 0.091926
H	 1.1273788434	-1.6193111251	 1.0879997141	 0.081363
H	-1.144115282	-1.59666356	 0.6043081329	 0.231191
H	 0.2768659608	-0.5576127444	-0.9182908791	 0.082993
182.0124	216.6491	282.5901	332.5897	338.2829	431.9915	519.1192	582.4744	674.7131	711.8874	743.2504	779.5822	804.1892	854.9318	883.2708	922.0179	939.3057	967.8393	987.5159	993.3293	1009.9665	1047.2883	1097.6425	1125.0791	1146.2698	1167.0824	1203.4628	1235.2774	1261.9358	1270.6877	1297.723	1339.8773	1381.3262	1418.181	1425.3294	1456.3426	1475.9721	1480.4481	1712.5195	3055.6849	3078.3101	3103.0749	3105.7357	3111.9869	3122.8839	3148.1388	3170.5386	3504.1122
C1C=CC2OC2C2NC12	C1C=C[C@H]2O[C@H]2[C@H]2N[C@@H]12	
InChI=1S/C7H9NO/c1-2-4-6(8-4)7-5(3-1)9-7/h1,3-8H,2H2	InChI=1S/C7H9NO/c1-2-4-6(8-4)7-5(3-1)9-7/h1,3-8H,2H2/t4-,5+,6-,7+/m0/s1
