18
gdb 66335	2.47816	1.35558	1.275	3.5458	77.68	-0.2674	-0.0104	0.257	1101.689	0.148363	-401.976472	-401.968035	-401.967091	-402.009336	32.351	
O	-0.0858197439	 1.4145795612	 0.0185915481	-0.455648
C	 0.0141679715	-0.0066788137	 0.007844924	 0.216239
C	-1.4286058388	-0.5398735773	 0.0568379282	-0.228558
C	-1.4868707278	-2.0291049025	-0.29032966	-0.229839
C	-0.9562149727	-2.2853663913	-1.7079856272	-0.249335
C	 0.2895793432	-1.4935517939	-1.9985487107	-0.044525
C	 0.735343966	-0.4994445641	-1.2339226361	-0.099069
C	 0.7688768883	-0.4460385751	 1.2103514745	 0.242559
N	 1.3786326214	-0.7719486093	 2.1372809731	-0.343663
H	 0.8041990833	 1.7852162121	 0.0356393461	 0.289733
H	-1.8546337511	-0.3374239634	 1.042633143	 0.121985
H	-1.9918053386	 0.0513538867	-0.6734209728	 0.119731
H	-0.8859269067	-2.5929440894	 0.4332870725	 0.125209
H	-2.5144732878	-2.3927194349	-0.1967976238	 0.106014
H	-0.7551057663	-3.3532407752	-1.8555243655	 0.115062
H	-1.7215288734	-2.026593836	-2.4549482408	 0.118169
H	 0.8450961027	-1.7585109912	-2.8952400525	 0.101724
H	 1.6555063605	 0.0258730774	-1.4784528101	 0.094212
83.8372	144.2351	185.3912	266.4018	284.8713	308.7082	356.7827	415.0656	471.5088	497.2566	568.8794	605.5724	677.8626	706.2731	754.3052	848.6558	881.2861	937.831	972.0647	977.4691	1004.0189	1070.2184	1077.2286	1104.921	1114.1067	1192.6428	1219.1211	1257.3335	1282.0717	1348.4869	1367.9463	1375.153	1380.3529	1418.5156	1470.1601	1489.1511	1496.0329	1720.2809	2342.8362	3001.9493	3036.5816	3051.8255	3053.4202	3087.5156	3107.2175	3144.7151	3167.2368	3798.7457
OC1(CCCC=C1)C#N	O[C@]1(CCCC=C1)C#N	
InChI=1S/C7H9NO/c8-6-7(9)4-2-1-3-5-7/h2,4,9H,1,3,5H2	InChI=1S/C7H9NO/c8-6-7(9)4-2-1-3-5-7/h2,4,9H,1,3,5H2/t7-/m1/s1
