14
gdb 37845	3.24696	1.69019	1.16903	2.3655	67.23	-0.2407	-0.0334	0.2073	971.8214	0.10227	-436.70653	-436.699958	-436.699014	-436.73764	25.527	
C	-0.181485344	 1.7164275296	-0.172568416	-0.269004
N	 1.1690988226	 1.6126865991	 0.4013844832	-0.289615
C	 1.6354374422	 0.5157777555	-0.0239233254	 0.409032
O	 2.734700942	-0.1433222329	 0.444912569	-0.218593
C	 2.4661608025	-1.4881621111	 0.1950126317	 0.059348
C	 1.352942153	-1.7219470503	-0.5053079829	-0.224589
O	-1.6672021834	-0.1969455625	-0.6984087003	-0.277061
C	-0.5725771113	 0.271695357	-0.6083483268	 0.35345
C	 0.8039358022	-0.378715015	-0.8992012321	-0.251621
H	-0.8864445525	 2.1251655023	 0.5567408922	 0.145267
H	-0.2083303763	 2.3686813214	-1.0568992465	 0.138793
H	 3.2021419568	-2.1600186795	 0.6100084597	 0.14967
H	 0.9928183835	-2.68824188	-0.8209009146	 0.131964
H	 0.9679503726	-0.1832422136	-1.9730686112	 0.142959
110.006	200.3218	290.5413	340.9253	450.0667	525.2799	573.9822	599.7584	658.3498	731.9661	741.8573	795.8877	858.3168	907.2911	917.3346	943.7922	1012.7976	1031.4074	1059.0968	1113.1238	1153.1098	1179.1664	1179.5851	1230.4596	1270.9724	1284.4508	1376.3897	1464.8688	1642.9942	1752.8892	1884.5895	2963.6391	3018.6742	3096.67	3254.3336	3276.5814
C1N=C2OC3C4OC13C24	C1[N][C]2OC=C[C@H]2C1=O	
InChI=1S/C6H5NO2/c1-6-2-3(9-6)4(6)8-5(2)7-1/h2-4H,1H2	InChI=1S/C6H5NO2/c8-5-3-7-6-4(5)1-2-9-6/h1-2,4H,3H2/t4-/m0/s1
