19
gdb 118828	2.87222	0.89576	0.78039	4.0296	75.07	-0.2461	-0.022	0.2241	1504.1686	0.155905	-460.141586	-460.131627	-460.130683	-460.17705	35.483	
C	 0.1526921671	 1.3418408007	 0.0789684168	-0.230565
O	 0.0091691067	-0.0515063559	 0.2477689919	-0.251995
C	-1.2772577365	-0.5293886407	-0.1045761186	-0.143465
C	-1.1915772064	-2.0360646791	-0.0455426165	 0.417413
O	-0.1801001104	-2.5431991464	-0.8639312578	-0.469788
C	-1.5190243483	-2.7811995024	 1.2062285114	-0.35298
C	-2.4306002158	-2.9152135056	-0.019979748	-0.162724
C	-3.7976572575	-2.3497469286	 0.0227908757	 0.159624
O	-4.7363578384	-2.7857056573	-0.5966637599	-0.265773
H	 1.174800873	 1.6006174399	 0.3641308444	 0.13392
H	-0.0163548195	 1.6436362447	-0.9657757248	 0.114155
H	-0.5477608071	 1.9001861105	 0.7179999503	 0.112616
H	-2.0415359506	-0.1352693337	 0.5815097938	 0.094079
H	-1.5354695997	-0.2082028916	-1.1263944206	 0.106199
H	 0.5982539119	-2.0026762303	-0.6742899624	 0.293487
H	-0.9132876795	-3.6449992511	 1.4506059368	 0.134635
H	-1.9122724114	-2.2289689866	 2.0542724382	 0.122407
H	-2.3374142818	-3.8222385143	-0.6068166803	 0.125143
H	-3.9212352157	-1.4737441824	 0.7027037596	 0.06361
68.1249	81.2033	110.8024	135.9518	212.8035	229.5631	242.905	340.9698	389.5698	402.0634	404.7328	437.0484	474.726	570.7181	773.5685	854.037	886.5814	926.2606	968.5808	994.9456	1026.4347	1041.7089	1069.4723	1079.7869	1152.2647	1170.2185	1181.9059	1213.3741	1223.3854	1277.887	1283.475	1343.2859	1392.1451	1428.7025	1449.6985	1479.8665	1487.0455	1492.3643	1500.3771	1519.8339	1817.7756	2846.0987	2973.0627	2984.2747	3017.3854	3030.9074	3121.7766	3133.2357	3187.1608	3234.2229	3770.2995
COCC1(O)CC1C=O	COC[C@@]1(O)C[C@H]1C=O	
InChI=1S/C6H10O3/c1-9-4-6(8)2-5(6)3-7/h3,5,8H,2,4H2,1H3	InChI=1S/C6H10O3/c1-9-4-6(8)2-5(6)3-7/h3,5,8H,2,4H2,1H3/t5-,6-/m0/s1
