25
gdb 118054	2.78661	0.8253	0.67285	1.8074	86.47	-0.2551	0.0703	0.3254	1776.5089	0.225548	-426.618567	-426.606576	-426.605632	-426.656515	42.411	
C	 0.2763539798	 1.5102069711	 0.0897652149	-0.392773
C	 0.06636844	-0.0018832671	-0.0370363364	-0.166587
C	 0.7332395922	-0.6423978805	-1.272134539	 0.019756
C	 2.2648882669	-0.628535317	-1.1601159465	-0.39477
C	 0.1590235422	-2.0554033476	-1.5117927487	 0.095197
O	-1.2622964003	-2.0132221361	-1.6529326649	-0.430009
C	 0.7369644215	-2.8068567985	-2.7200088946	-0.092642
O	 2.0067983938	-3.3381441157	-2.4110882354	-0.224962
C	 2.5491987503	-4.1018095875	-3.461788375	-0.226775
H	 1.3309352053	 1.7757692477	 0.2119418651	 0.116724
H	-0.0965658627	 2.037160764	-0.7964081847	 0.107764
H	-0.2612589497	 1.9050533241	 0.957685741	 0.11197
H	 0.4474090808	-0.5023733541	 0.8639692606	 0.090716
H	-1.0059179162	-0.2152427699	-0.0746392308	 0.107379
H	 0.4524460032	-0.0427828123	-2.1562772707	 0.049573
H	 2.6314352344	 0.3909879485	-1.0109271844	 0.106918
H	 2.5958062497	-1.2326288594	-0.3079115752	 0.116704
H	 2.7461758839	-1.0367968629	-2.0495400078	 0.123619
H	 0.339819479	-2.676919791	-0.6261025034	 0.097324
H	-1.4664727693	-1.3904333959	-2.3598901593	 0.277221
H	 0.0327772359	-3.615146939	-2.9716803113	 0.098426
H	 0.7982711454	-2.1367601694	-3.5982541613	 0.072348
H	 1.9010552185	-4.9538929395	-3.7208630578	 0.106062
H	 2.7007121809	-3.4992469129	-4.3716431255	 0.103077
H	 3.5166868743	-4.4822595889	-3.1253205589	 0.127742
46.247	70.9746	73.4457	105.5144	169.2279	205.4552	216.8892	219.3967	234.7579	288.7019	308.9155	316.8276	361.7192	404.443	453.3832	525.1085	542.3038	773.3792	820.8625	882.1253	963.4567	990.142	994.7872	998.1352	1036.3538	1063.5686	1083.9443	1136.0086	1163.6851	1164.9444	1184.9379	1190.3363	1223.612	1248.3038	1249.5088	1293.7921	1318.4332	1348.7762	1370.3695	1388.2947	1404.0987	1411.3245	1418.1993	1424.0765	1478.3396	1484.867	1485.9945	1493.7942	1500.8301	1502.1534	1506.1944	1510.4788	1527.3026	2928.6326	2945.7977	2969.5044	2996.821	3013.4715	3017.3414	3029.8518	3042.1744	3048.5423	3078.2322	3094.7835	3103.0019	3109.0711	3114.1671	3140.5703	3793.5992
CCC(C)C(O)COC	CC[C@@H](C)[C@@H](O)COC	
InChI=1S/C7H16O2/c1-4-6(2)7(8)5-9-3/h6-8H,4-5H2,1-3H3	InChI=1S/C7H16O2/c1-4-6(2)7(8)5-9-3/h6-8H,4-5H2,1-3H3/t6-,7+/m1/s1
