20
gdb 56743	2.81156	1.31433	1.08057	3.9011	83.1	-0.2999	0.0375	0.3375	1183.5506	0.171791	-365.986213	-365.977735	-365.976791	-366.019646	32.452	
C	 0.0011151544	 1.5501647263	-0.0040821108	-0.398576
C	-0.0458572586	 0.009337016	 0.0231600497	-0.28272
C	 0.6960082763	-0.5121703263	 1.1778294711	 0.272193
N	 1.2648555182	-0.922180897	 2.0968059716	-0.332145
C	-1.4695801592	-0.5338183615	 0.0325834117	 0.379276
C	-2.5674613608	-0.2829568368	-1.0471889982	-0.274539
C	-3.2217351731	-1.2048696253	 0.0217666034	-0.047299
C	-1.904009045	-2.0299454863	 0.0225124841	-0.263828
C	-2.5761161462	-0.2968451547	 1.1071425231	-0.252272
H	 1.0325699047	 1.9089272167	-0.0325440949	 0.136867
H	-0.5206009287	 1.9183940031	-0.8912152705	 0.129701
H	-0.4833559156	 1.9676621673	 0.8823253233	 0.140615
H	 0.4550968884	-0.3732994743	-0.8764843027	 0.125662
H	-2.9599732064	 0.7348230745	-1.123059997	 0.093809
H	-2.3909942077	-0.7207476274	-2.034089456	 0.092648
H	-4.2397428196	-1.5927762851	 0.0137174528	 0.079761
H	-1.6777321014	-2.5966488067	-0.885331921	 0.091494
H	-1.6810854265	-2.6064562654	 0.9236139608	 0.108947
H	-2.4042144635	-0.7463240914	 2.0882113087	 0.107959
H	-2.9704082297	 0.7196211145	 1.1922321807	 0.092449
54.4829	115.6635	182.9663	210.1627	229.2394	327.4372	379.4293	461.7715	539.4546	549.0054	576.2376	679.8059	797.7988	802.898	843.7244	889.5034	941.0926	951.8299	957.104	962.9016	1002.0093	1021.4946	1069.7104	1098.2126	1101.7066	1108.0567	1145.1447	1148.1461	1162.9089	1181.5388	1227.017	1236.5392	1240.7272	1292.6645	1318.7077	1331.6277	1408.8542	1494.1071	1497.9167	1498.7568	1500.2378	1555.3835	2355.0116	3021.4827	3044.8954	3049.88	3051.828	3056.3884	3110.9928	3119.0151	3119.7423	3122.4054	3129.952	3131.7825
CC(C#N)C12CC(C1)C2	C[C@@H](C#N)[C@@]12C[C@@H](C1)C2	
InChI=1S/C8H11N/c1-6(5-9)8-2-7(3-8)4-8/h6-7H,2-4H2,1H3	InChI=1S/C8H11N/c1-6(5-9)8-2-7(3-8)4-8/h6-7H,2-4H2,1H3/t6-,7-,8-/m0/s1
