16
gdb 98652	4.65104	0.84993	0.80352	3.1925	66.72	-0.2641	-0.0453	0.2188	1395.7352	0.122652	-475.051342	-475.042411	-475.041467	-475.086351	31.558	
O	 0.1874319129	 1.3822192626	 0.0251871667	-0.417025
C	 0.0884145475	-0.000910107	-0.1203644825	-0.131766
C	-1.3494637109	-0.4745519366	 0.0338256071	 0.337968
O	-2.2386818246	 0.3368629006	 0.1753632248	-0.315515
C	-1.6096283566	-1.9675565386	 0.000717306	-0.071631
C	-1.4981701487	-2.6774895757	 1.3961447029	-0.398373
C	-3.0229285806	-2.9151726805	 1.2459812345	 0.436922
O	-3.8902347144	-3.3806710606	 1.9268239339	-0.335139
N	-3.0153517586	-2.3572568137	-0.0177216946	-0.308326
H	-0.7258174964	 1.6966460186	 0.1198374545	 0.297208
H	 0.4427596388	-0.3325246684	-1.1126940573	 0.119441
H	 0.7179352133	-0.5249192361	 0.6172902124	 0.123531
H	-1.0046404157	-2.4359040811	-0.7845128799	 0.106659
H	-0.8811535867	-3.5762656719	 1.4170787596	 0.144986
H	-1.2393549619	-2.0261387731	 2.2328671705	 0.148191
H	-3.7765999574	-1.9484307283	-0.5410142688	 0.262868
38.99	65.4012	92.3782	183.6338	247.4632	325.0098	370.511	391.7482	413.1479	479.9801	557.5757	569.5868	682.3111	755.601	820.4285	905.6789	954.1225	984.0307	1003.2087	1036.9275	1110.2731	1114.6689	1155.0502	1175.5151	1192.8241	1239.9904	1264.6238	1314.6264	1362.2223	1388.6876	1450.87	1456.4341	1489.8779	1798.4095	1911.8851	2957.7835	2989.2335	3041.1476	3091.3316	3154.1879	3609.4766	3691.1602
OCC(=O)C1CC(=O)N1	OCC(=O)[C@H]1CC(=O)N1	
InChI=1S/C5H7NO3/c7-2-4(8)3-1-5(9)6-3/h3,7H,1-2H2,(H,6,9)	InChI=1S/C5H7NO3/c7-2-4(8)3-1-5(9)6-3/h3,7H,1-2H2,(H,6,9)/t3-/m1/s1
