19
gdb 91404	3.03508	1.60983	1.43016	2.1734	74.37	-0.2509	0.0008	0.2516	993.0664	0.161431	-423.035319	-423.028125	-423.027181	-423.066538	29.626	
C	 0.1034061386	 1.5571255791	 0.0687644114	-0.39964
C	 0.0018224207	 0.0430078538	-0.0235659537	 0.150751
C	 0.6742799191	-0.5266016045	-1.29889871	-0.224126
C	 0.9875890049	-2.0226120914	-1.0933897156	 0.016706
O	 1.8341362526	-2.0728898624	 0.0638661839	-0.237908
C	 0.9161994339	-1.8582636046	 1.1150678768	 0.1393
O	 0.5800742104	-0.4826245847	 1.1860123538	-0.282141
C	-0.2841190409	-2.7052120669	 0.6950087528	-0.100685
C	-0.2513657332	-2.781640084	-0.6317417027	-0.095598
H	 1.150899555	 1.8709692075	 0.102590376	 0.125459
H	-0.3744368928	 2.0250362449	-0.7982094319	 0.110811
H	-0.3921988054	 1.9169147954	 0.9746612263	 0.123638
H	-1.0590663549	-0.2429263031	-0.0482450771	 0.074405
H	 0.0157563177	-0.35504012	-2.1582047494	 0.096406
H	 1.6219400914	-0.0121775246	-1.4898947404	 0.11078
H	 1.5171228021	-2.4657165119	-1.9399741648	 0.083012
H	 1.3881622818	-2.103888835	 2.0672665984	 0.089785
H	-1.0529862933	-3.0505213746	 1.3724837742	 0.110598
H	-0.9888646078	-3.211232683	-1.2969659383	 0.108446
142.9569	229.6072	264.0309	311.4346	356.9957	427.4213	455.8777	500.6691	633.44	658.0321	734.1957	784.5164	836.2343	840.2528	851.8958	895.4876	924.0513	947.7215	957.1048	976.4273	993.5164	1007.1972	1061.2001	1103.9714	1118.8439	1141.5883	1169.6635	1226.4126	1271.8936	1284.6667	1325.4512	1344.7652	1355.0644	1372.7499	1383.1506	1396.2088	1409.1663	1470.9411	1482.5508	1501.0193	1661.2443	2999.5492	3035.8459	3040.7177	3085.7368	3087.8977	3112.8486	3114.1379	3120.2585	3213.181	3240.0935
CC1CC2OC(O1)C=C2	C[C@H]1C[C@H]2O[C@@H](O1)C=C2	
InChI=1S/C7H10O2/c1-5-4-6-2-3-7(8-5)9-6/h2-3,5-7H,4H2,1H3	InChI=1S/C7H10O2/c1-5-4-6-2-3-7(8-5)9-6/h2-3,5-7H,4H2,1H3/t5-,6-,7+/m0/s1
