18
gdb 117321	2.67919	1.0487	0.81086	1.4502	72.32	-0.2307	-0.0054	0.2253	1415.3372	0.14741	-472.44038	-472.430593	-472.429648	-472.475766	34.928	
C	-0.5523830051	 0.3472018107	-1.0867180407	-0.249314
O	 0.0649179059	-0.3316104376	-0.0035011173	-0.23406
C	-0.8191441413	-0.6233211892	 1.0537459141	-0.176112
C	-1.625191645	-1.9170905943	 0.874221592	 0.385263
O	-2.6172946737	-2.1304605023	 1.5555386836	-0.386431
N	-1.0983175073	-2.7617997428	-0.054109322	-0.329683
C	-1.5632558751	-4.0239069996	-0.483380847	 0.425184
N	-2.577960811	-4.5407665347	 0.2728850411	-0.5528
N	-0.9507061435	-4.5279879357	-1.486204107	-0.557825
H	 0.2247968135	 0.5299545212	-1.8313426883	 0.141034
H	-1.3523247398	-0.2509388848	-1.5448257021	 0.123244
H	-0.973025476	 1.3086215702	-0.760643132	 0.121243
H	-0.2129471627	-0.7423629974	 1.9591191688	 0.146066
H	-1.5359609816	 0.1873319532	 1.2370358985	 0.127502
H	-0.2774734219	-2.4386470393	-0.5487186156	 0.278309
H	-3.0473767283	-3.9071049103	 0.9098351014	 0.281373
H	-3.0978985506	-5.3059242409	-0.1205108344	 0.250577
H	-1.3256054967	-5.4452355567	-1.7205463231	 0.20643
64.5793	80.6107	104.5994	151.5547	159.6357	212.2293	296.176	379.8924	393.5026	433.6963	490.1274	537.5018	572.7944	595.3634	670.6288	718.4337	765.3822	801.6735	927.1935	959.3877	1009.0375	1036.7793	1131.8988	1137.6423	1143.8989	1181.87	1220.3481	1233.2961	1300.575	1365.5386	1443.739	1460.3092	1483.8924	1490.9641	1502.1293	1516.8447	1624.4392	1738.057	1773.2199	2994.8348	3027.287	3051.8034	3079.1111	3130.5713	3503.2321	3507.3303	3601.3979	3700.3474
COCC(=O)NC(N)=N	COCC(=O)NC(=N)N	
InChI=1S/C4H9N3O2/c1-9-2-3(8)7-4(5)6/h2H2,1H3,(H4,5,6,7,8)	InChI=1S/C4H9N3O2/c1-9-2-3(8)7-4(5)6/h2H2,1H3,(H4,5,6,7,8)
