22
gdb 40277	2.78615	1.36841	1.04473	1.2354	89.67	-0.2228	0.0141	0.2369	1224.9459	0.197321	-367.203272	-367.195011	-367.194067	-367.236326	32.976	
C	-0.5005779134	 1.5270825899	 0.0233181455	-0.285707
N	 0.94355473	 1.296296166	 0.1644483996	-0.347513
C	 0.0190907064	 0.1288629741	 0.0296970586	 0.326273
C	-0.146660782	-0.6636074483	 1.3128196281	-0.254735
C	 0.8783961318	-1.7780861678	 1.5540955381	-0.198921
C	 0.6797086203	-3.0109660306	 0.6652460089	-0.188486
C	 1.128875306	-2.85274362	-0.7921809409	-0.252626
C	 0.493799418	-1.7704323226	-1.6274803056	-0.063671
C	 0.0476940642	-0.5559925603	-1.2922481183	-0.130821
H	-0.988023728	 1.9200209599	 0.9118875871	 0.11304
H	-0.8802233243	 1.9308525497	-0.9121349625	 0.108985
H	 1.4048865576	 1.4619213516	-0.7277272988	 0.2276
H	-0.0925769801	 0.0532153054	 2.1385107834	 0.099377
H	-1.1568898613	-1.0952510411	 1.330295025	 0.09246
H	 1.8930751528	-1.3776813765	 1.4297789222	 0.102556
H	 0.7976220204	-2.0892523651	 2.602299765	 0.09068
H	 1.2373299844	-3.8539398622	 1.0908530489	 0.090902
H	-0.3793406579	-3.3010109705	 0.6886698677	 0.09422
H	 2.2191566255	-2.6931419969	-0.8092130083	 0.113054
H	 0.9769092832	-3.8100912923	-1.3056339214	 0.099699
H	 0.4519468355	-2.0082949153	-2.6896325885	 0.085523
H	-0.3051340092	 0.0692102727	-2.1123899737	 0.078113
47.0558	138.5642	234.4733	299.0804	311.9864	326.7123	385.5778	431.2383	472.4921	556.9281	624.0659	709.4307	752.5165	790.6034	836.0434	860.0871	882.3789	923.0618	936.5432	957.3123	976.3004	990.6542	1004.4394	1050.2791	1083.2108	1099.1635	1117.5097	1140.3007	1173.2308	1221.4398	1259.5498	1269.9702	1280.0537	1299.9787	1334.6949	1356.1124	1380.6483	1384.9686	1403.1993	1413.5519	1448.4969	1471.22	1472.8996	1488.3027	1492.6698	1510.2726	1723.0133	2981.8168	3013.1841	3015.4921	3020.82	3042.5287	3055.823	3062.8228	3075.136	3100.648	3111.438	3138.8525	3184.5956	3488.6473
C1NC11CCCCC=C1	C1N[C@]21CCCCC=C2	
InChI=1S/C8H13N/c1-2-4-6-8(5-3-1)7-9-8/h3,5,9H,1-2,4,6-7H2	InChI=1S/C8H13N/c1-2-4-6-8(5-3-1)7-9-8/h3,5,9H,1-2,4,6-7H2/t8-/m0/s1
