18
gdb 33966	2.27129	1.77757	1.21725	1.4393	83.95	-0.2278	0.029	0.2568	1063.828	0.147276	-364.722909	-364.714827	-364.713883	-364.755246	32.084	
C	-0.0664213273	-1.1927898953	 0.0112194265	-0.42658
C	-0.0133714808	 0.0108765226	-0.0030972441	 0.177265
C	-0.0020467538	 1.4308632873	 0.0338010858	 0.151888
C	 0.2895800392	 2.3184773068	-1.1620798226	-0.325081
C	 1.1713520926	 2.4454624908	 0.0393269254	-0.112114
C	 0.4799651964	 3.2710205391	 1.1354494924	-0.30498
C	-0.6879140833	 2.2664267154	 1.1136400758	 0.288884
C	-2.1403001265	 2.4020130249	 1.3493282827	-0.311992
N	-1.2622683645	 1.7172977181	 2.3278525942	-0.371749
H	-0.0968075553	-2.2541169123	 0.0120358754	 0.189245
H	 0.7197627483	 1.8026372256	-2.0138699181	 0.128045
H	-0.4134912687	 3.1081405515	-1.4166861012	 0.115307
H	 2.2278746394	 2.2136997252	-0.00023614	 0.106636
H	 0.9978644098	 3.2370192664	 2.0960750103	 0.123383
H	 0.2563735143	 4.3114476725	 0.8788007601	 0.10224
H	-2.5571816583	 3.3435428245	 1.6971183201	 0.118152
H	-2.8119213739	 1.8021196528	 0.7396366008	 0.115643
H	-1.3552928577	 0.7066329239	 2.2338059763	 0.235808
105.4954	131.7249	179.0273	285.6916	321.3754	391.8043	448.1061	465.43	547.8415	561.7018	574.3152	612.4957	657.824	795.4921	822.5117	839.3092	870.7084	898.9883	930.2297	952.9787	982.1162	1020.1131	1032.5118	1047.9437	1084.0903	1092.9355	1131.8696	1149.9051	1197.219	1240.8265	1260.2592	1273.6241	1290.3551	1375.6294	1413.8376	1476.4008	1493.4496	1513.7427	2224.43	3050.5147	3102.2441	3110.6292	3117.3803	3187.8962	3197.5874	3211.4468	3473.2518	3501.3634
C#CC12CC1CC21CN1	C#C[C@]12C[C@H]1C[C@]12CN1	
InChI=1S/C8H9N/c1-2-7-3-6(7)4-8(7)5-9-8/h1,6,9H,3-5H2	InChI=1S/C8H9N/c1-2-7-3-6(7)4-8(7)5-9-8/h1,6,9H,3-5H2/t6-,7-,8+/m0/s1
