15
gdb 97431	5.35058	0.68446	0.64463	2.553	72.61	-0.2673	-0.1027	0.1646	1681.6833	0.109216	-453.944542	-453.934865	-453.933921	-453.980486	32.19	
C	-0.5388770528	 0.7884289415	 0.092377082	-0.317865
N	 0.6795995198	 0.0157816339	-0.0305162631	-0.197794
C	 0.7529097147	-0.8152947896	-0.9630716161	 0.144399
O	 1.8901578843	-1.5489495192	-1.1303025898	-0.185215
C	 1.8777425182	-2.4990696507	-2.1549800517	-0.204613
C	 1.0609918471	-3.738858282	-1.8036013752	 0.282262
O	 0.3507947135	-3.8417434643	-0.8410849353	-0.238643
C	 1.1957944764	-4.8336449491	-2.7884086027	 0.223225
N	 1.3199420577	-5.6670874367	-3.5801694154	-0.280496
H	-0.2992522788	 1.8561659988	 0.0428186338	 0.133922
H	-1.2928506194	 0.5639580509	-0.6790800859	 0.100699
H	-0.9859300143	 0.6062420892	 1.0755609364	 0.137725
H	-0.0294178304	-1.0159153905	-1.7102857292	 0.081046
H	 1.489783549	-2.1010141144	-3.1073392303	 0.150503
H	 2.9151313149	-2.7997371778	-2.3373367974	 0.170847
43.4277	58.2661	101.7969	146.5841	204.0662	219.5887	259.6857	271.1655	326.1592	406.3614	463.7431	562.2725	592.3756	615.5175	835.7645	966.8226	993.4506	1039.4772	1075.5554	1088.4121	1141.7357	1165.046	1220.6966	1304.4411	1384.7549	1406.9566	1450.7107	1456.5661	1480.7279	1505.2833	1791.8584	1818.8537	2337.799	2974.8917	2983.985	3006.5207	3067.3626	3083.4188	3088.1144
CN=COCC(=O)C#N	CN=COCC(=O)C#N	
InChI=1S/C5H6N2O2/c1-7-4-9-3-5(8)2-6/h4H,3H2,1H3	InChI=1S/C5H6N2O2/c1-7-4-9-3-5(8)2-6/h4H,3H2,1H3
