13
gdb 12303	3.10643	2.3628	1.41469	3.7198	56.2	-0.2627	-0.0769	0.1858	815.2946	0.096103	-435.744712	-435.737953	-435.737009	-435.776308	24.375	
N	 0.0063134677	 1.1404546275	 0.6177992976	-0.466553
C	 0.0337010817	 0.0068351689	 0.0618332613	 0.304516
O	 1.187047738	-0.5802361241	-0.3720159517	-0.241559
C	 1.0669539654	-1.8188733338	-1.0741415285	-0.003983
O	 0.2367146597	-2.7090600736	-0.4111429556	-0.214965
C	-1.1099670129	-2.2659793318	-0.456862873	-0.184367
C	-1.2617877226	-0.787929415	-0.1025633612	 0.285659
O	-2.3440110455	-0.2831646321	 0.0307042239	-0.260246
H	 0.9506174924	 1.5297566632	 0.6752041526	 0.235362
H	 0.705312232	-1.6175238778	-2.0963664602	 0.105713
H	 2.0708933087	-2.2425209097	-1.1013190319	 0.142287
H	-1.545191154	-2.4216658155	-1.4572783392	 0.13705
H	-1.6825129006	-2.8638703861	 0.2561156858	 0.161085
61.6072	115.9488	341.8817	349.6463	384.2125	450.4715	485.8915	550.883	646.1788	670.1818	763.8429	914.1448	963.2614	999.4072	1003.8336	1063.2936	1141.2895	1163.6221	1207.8305	1245.9654	1307.6295	1322.7015	1366.0589	1445.3447	1461.9214	1521.2027	1729.1124	1837.4919	2968.8964	2987.8426	3112.329	3138.0022	3462.4608
N=C1OCOCC1=O	[NH][C]1OCOCC1=O	
InChI=1S/C4H5NO3/c5-4-3(6)1-7-2-8-4/h5H,1-2H2	InChI=1S/C4H5NO3/c5-4-3(6)1-7-2-8-4/h5H,1-2H2
