15
gdb 57228	2.98577	0.8248	0.74607	5.4065	86.14	-0.2689	-0.047	0.2219	1520.9077	0.110195	-379.610283	-379.600508	-379.599563	-379.645029	35.1	
C	-0.0064405263	 1.5467753864	 0.0132206397	-0.387852
C	-0.0005889806	-0.001481021	 0.0139024601	-0.203982
N	 0.7675380901	-0.4559598726	 1.1916112739	-0.504466
C	-1.3870207929	-0.510405869	-0.0063690306	 0.3482
C	-2.5141317627	-0.9262228076	 0.0286592995	-0.477952
C	 0.6928553525	-0.4846706458	-1.1913634915	 0.279814
C	 1.2574685059	-0.8696073771	-2.1863764722	-0.048493
C	 1.8979301059	-1.3071432136	-3.3104086362	 0.20892
N	 2.4421445129	-1.6792067524	-4.2667428644	-0.333169
H	 1.0229195315	 1.909326941	 0.032112054	 0.147278
H	-0.5190472681	 1.9298924623	-0.8704885052	 0.144426
H	-0.532466182	 1.9028764871	 0.9034029298	 0.130824
H	 0.2846312419	-0.1320543718	 2.0264842167	 0.240072
H	 0.7525417754	-1.4718200383	 1.2298508531	 0.24559
H	-3.5090252434	-1.2986853376	 0.0501309033	 0.21079
70.6733	89.8754	169.0601	180.5832	230.8924	241.3837	263.3233	283.4538	369.5661	431.6148	480.91	515.5022	564.9328	583.7686	604.8143	643.7715	650.4024	662.9641	824.1656	904.7878	958.6654	1031.6529	1085.8812	1163.4626	1210.3034	1336.4239	1400.2125	1484.7741	1486.3875	1655.422	2228.8324	2267.7653	2405.1404	3054.3307	3135.3319	3155.1187	3481.5305	3498.2236	3563.8919
CC(N)(C#C)C#CC#N	C[C@@](N)(C#C)C#CC#N	
InChI=1S/C7H6N2/c1-3-7(2,9)5-4-6-8/h1H,9H2,2H3	InChI=1S/C7H6N2/c1-3-7(2,9)5-4-6-8/h1H,9H2,2H3/t7-/m1/s1
