20
gdb 107504	2.30723	1.41266	0.97995	1.9728	82.69	-0.2469	0.0261	0.2729	1278.98	0.169545	-403.123069	-403.113628	-403.112684	-403.15772	34.361	
C	 0.0649631605	 1.5040350045	-0.2355244957	-0.37804
C	-0.0912212633	-0.0054521843	-0.0028661038	-0.293283
C	 0.629310239	-0.4680822604	 1.2321915453	 0.172016
C	 2.1148302881	-0.8623946915	 1.2859884672	-0.335874
C	 1.075602258	-1.8142429288	 1.7611720696	 0.02881
O	 0.6896428919	-1.4658319488	 3.1156343078	-0.292541
C	 0.1885485314	-0.2409476059	 2.6449962091	 0.449588
N	-0.4632721322	 0.6474689058	 3.2345459493	-0.34938
C	-0.7711156682	 0.4856707695	 4.64880147	-0.340488
H	 1.116924581	 1.7733545265	-0.3757335086	 0.114782
H	-0.4878350071	 1.8203104403	-1.1251825017	 0.109468
H	-0.3150259147	 2.0615371908	 0.6248050632	 0.150206
H	-1.1554121708	-0.2529642748	 0.0905684287	 0.111034
H	 0.2860858466	-0.562402706	-0.8691188085	 0.097115
H	 2.5427511629	-1.0725453479	 0.3095319287	 0.122826
H	 2.792659023	-0.409668229	 2.0031059907	 0.128156
H	 0.8874109263	-2.828349476	 1.4358074568	 0.122532
H	-0.2746093365	 1.2801535346	 5.2172125823	 0.128138
H	-1.8488101125	 0.6137724929	 4.7959366427	 0.126217
H	-0.4692402033	-0.4831409415	 5.063032777	 0.128719
69.1964	95.6352	119.6462	154.1313	194.443	235.1011	277.0089	309.9904	397.0641	467.1122	501.075	651.5281	725.1963	742.3445	782.922	857.9901	881.1868	892.1826	950.0376	990.335	1006.8368	1027.9444	1056.2021	1062.1936	1078.1699	1102.8293	1131.5575	1137.3905	1170.4229	1240.1108	1269.0045	1330.3239	1350.2314	1404.3063	1412.6708	1440.1319	1479.3105	1485.5871	1493.1934	1497.0296	1498.7141	1511.5798	1849.1155	3018.5371	3026.2028	3038.9173	3061.8289	3083.1404	3090.3331	3107.3869	3118.3338	3124.416	3208.2704	3215.4934
CCC12CC1OC2=NC	CC[C@]12C[C@H]1OC2=NC	
InChI=1S/C7H11NO/c1-3-7-4-5(7)9-6(7)8-2/h5H,3-4H2,1-2H3	InChI=1S/C7H11NO/c1-3-7-4-5(7)9-6(7)8-2/h5H,3-4H2,1-2H3/t5-,7+/m1/s1
