18
gdb 114302	2.36151	1.39533	1.05921	2.4095	77.59	-0.2317	0.0283	0.26	1169.0573	0.146657	-401.852097	-401.843302	-401.842358	-401.885699	33.05	
O	-0.2133331203	 1.5681704975	 0.011579862	-0.424772
C	 0.0206249489	 0.1716747223	 0.1513482067	-0.113658
C	-1.3233441319	-0.5149363853	-0.0041307015	 0.024935
C	-2.0152959773	-0.6516465234	-1.3867522453	-0.188116
N	-2.2738171907	-2.1269959434	-1.1677288869	-0.150044
C	-0.941151994	-2.7855095271	-1.0931274678	-0.194069
C	 0.1680558555	-2.429999966	-1.9331792144	 0.349439
C	 1.0877868044	-2.2022891401	-2.6753613998	-0.45074
C	-1.4375216616	-2.0339288234	 0.0940671631	-0.088138
H	 0.6375703729	 2.0152738315	-0.0057495407	 0.287813
H	 0.7291122632	-0.1930584119	-0.6023142924	 0.106247
H	 0.4365191506	-0.0677956163	 1.1447416232	 0.083528
H	-2.0176374133	-0.0544426884	 0.7049444539	 0.097649
H	-2.9642431644	-0.1221051116	-1.471601045	 0.117227
H	-1.4004860902	-0.4427615592	-2.2658116638	 0.120899
H	-1.0725971927	-3.8620500236	-1.0002536933	 0.122362
H	 1.9027519192	-1.9916493279	-3.3230140731	 0.201375
H	-1.7085711283	-2.578802784	 0.9944742152	 0.098063
74.7705	125.7022	143.6583	187.81	238.7656	277.4527	363.9035	422.515	443.2599	545.127	593.664	604.4955	659.8184	741.1181	761.4724	783.7797	871.6919	908.2046	931.5126	977.1166	1009.5049	1064.3308	1066.4649	1089.0269	1115.358	1146.5888	1180.4947	1226.6236	1235.1793	1267.9661	1283.3028	1294.0017	1350.0212	1381.9882	1405.4128	1463.4885	1495.4965	1524.5969	2228.2522	2960.5319	3044.1274	3070.9878	3073.4758	3125.5193	3135.7638	3146.3001	3501.2428	3832.9208
OCC1CN2C(C#C)C12	OC[C@H]1CN2[C@@H](C#C)[C@@H]12	
InChI=1S/C7H9NO/c1-2-6-7-5(4-9)3-8(6)7/h1,5-7,9H,3-4H2	InChI=1S/C7H9NO/c1-2-6-7-5(4-9)3-8(6)7/h1,5-7,9H,3-4H2/t5-,6+,7-,8?/m1/s1
