15
gdb 33600	3.97687	1.52436	1.38098	5.0939	72.99	-0.2569	-0.0022	0.2547	927.4173	0.115009	-379.597216	-379.591031	-379.590087	-379.627768	25.039	
N	-0.0545153953	-1.0553841337	-0.0516398231	-0.345579
C	-0.031985112	 0.1000819763	 0.0073749715	 0.153841
C	 0.0388617094	 1.5200369205	 0.0944624248	 0.27443
C	-0.9324166851	 2.4021836423	 0.8253513376	-0.081016
C	-0.0611946981	 3.6499286388	 1.0705643426	-0.080926
C	 1.3676325675	 3.1492621312	 1.4037933457	-0.252334
C	 1.2831584378	 2.4370447884	 0.0318029534	-0.135026
C	 0.2381326699	 3.4902460056	-0.4569726104	 0.022488
N	-0.8794170547	 2.4542167056	-0.6657726621	-0.199557
H	-1.7979063949	 2.0273287399	 1.3571549668	 0.122531
H	-0.515221669	 4.5248653289	 1.5290310107	 0.092273
H	 2.0937923141	 3.9675421791	 1.3836864126	 0.114791
H	 1.5139116135	 2.5399771339	 2.2996242734	 0.114919
H	 2.1465880356	 2.1012307146	-0.5360415729	 0.100395
H	 0.3991876113	 4.2788630187	-1.1864109006	 0.098769
146.387	162.863	390.5593	468.2472	520.3002	535.8799	613.1153	738.3338	749.1331	807.4736	833.345	852.3815	864.3375	879.7054	903.3315	956.9196	964.2806	990.8811	999.1903	1067.7542	1075.6064	1108.3638	1161.7497	1178.6948	1202.1856	1218.3279	1223.4789	1251.7176	1269.525	1289.2891	1376.9336	1486.5974	2349.6911	3055.9184	3115.6576	3149.8116	3157.4383	3166.2839	3201.4585
N#CC12C3C4CC1C4N23	N#C[C@@]12[C@H]3[C@H]4C[C@@H]1[C@H]4N23	
InChI=1S/C7H6N2/c8-2-7-4-1-3-5(4)9(7)6(3)7/h3-6H,1H2	InChI=1S/C7H6N2/c8-2-7-4-1-3-5(4)9(7)6(3)7/h3-6H,1H2/t3-,4+,5-,6+,7-,9?/m0/s1
