18
gdb 85343	1.79737	1.7131	0.90375	4.5332	78.55	-0.2183	-0.0198	0.1985	1243.8882	0.148374	-439.132202	-439.123498	-439.122554	-439.165263	33.563	
N	 0.0599770963	 1.3649309522	 0.0624095913	-0.563968
C	-0.0140774212	-0.0000124093	 0.0493728878	 0.380601
C	-1.1917129017	-0.6773040215	 0.0253602414	-0.284834
C	-1.2710301305	-2.1283211358	 0.0307046232	 0.369278
O	-2.3290891898	-2.7361444051	 0.0238635504	-0.366985
C	 0.0648473839	-2.8818858925	 0.0123405475	-0.341196
C	 1.188257403	-2.1092010949	 0.7016498827	 0.10356
O	 2.4583664852	-2.7284776247	 0.5501438383	-0.439235
C	 1.314393673	-0.7127884701	 0.0977309913	-0.302894
H	 0.9385072135	 1.8060140017	-0.1520979015	 0.260787
H	-0.7623479734	 1.8967935457	-0.1736431707	 0.26276
H	-2.1379129511	-0.144952655	-0.0074205686	 0.07913
H	-0.096600525	-3.8620544055	 0.4718937325	 0.107801
H	 0.3506389481	-3.054642118	-1.034352696	 0.121323
H	 0.9418071635	-2.0016809881	 1.7703871958	 0.080202
H	 2.3967016113	-3.6206566137	 0.9062660833	 0.284221
H	 1.718858357	-0.8106885465	-0.9191753312	 0.132134
H	 2.0385892981	-0.1233308089	 0.6706794826	 0.117314
112.8253	145.9245	175.7109	267.3527	295.1198	329.3708	340.4852	415.3041	426.8251	469.6853	481.0336	547.587	557.5796	592.6369	634.6591	856.6343	872.2763	894.9563	919.2913	931.5892	1051.7844	1078.5405	1082.8277	1109.2312	1138.0082	1223.4197	1259.4105	1262.5684	1283.7464	1297.3751	1340.1328	1390.266	1426.0116	1436.0309	1462.6346	1481.3115	1643.0809	1673.5381	1750.9419	2970.2949	3020.9323	3025.1185	3070.5484	3086.4261	3171.1565	3595.8512	3711.5778	3818.8837
NC1=CC(=O)CC(O)C1	NC1=CC(=O)C[C@@H](O)C1	
InChI=1S/C6H9NO2/c7-4-1-5(8)3-6(9)2-4/h1,6,9H,2-3,7H2	InChI=1S/C6H9NO2/c7-4-1-5(8)3-6(9)2-4/h1,6,9H,2-3,7H2/t6-/m0/s1
