17
gdb 66337	2.55964	1.37914	1.29468	1.5373	76.5	-0.2487	0.0026	0.2514	1075.5828	0.134465	-421.782832	-421.774173	-421.773229	-421.815875	32.945	
O	-0.0687183912	 1.3973537793	-0.0012321777	-0.457342
C	 0.0369350225	-0.0317045232	 0.0130807628	 0.150508
C	-1.4218392348	-0.5395231834	-0.0138900974	-0.112819
O	-1.485195157	-1.9125453314	-0.318385914	-0.246647
C	-1.03816669	-2.207217405	-1.6277015183	-0.117925
C	 0.2315397628	-1.4931622351	-1.9938946154	-0.076874
C	 0.7405531741	-0.5251270644	-1.2390156192	-0.094566
C	 0.7521072204	-0.478864235	 1.2127072686	 0.322746
C	 1.3680545144	-0.8029620626	 2.1934065609	-0.502802
H	 0.7500232403	 1.7558270498	 0.357283031	 0.287172
H	-1.8892302091	-0.4038092629	 0.9628866516	 0.121103
H	-1.9599927961	 0.0712887572	-0.754795862	 0.104164
H	-0.893022707	-3.2930622767	-1.6647544247	 0.122653
H	-1.8239080458	-1.9646584793	-2.3674540366	 0.103209
H	 0.7155167599	-1.7989635599	-2.9178129695	 0.100742
H	 1.6675334603	-0.0211500799	-1.4969441789	 0.094111
H	 1.9013675762	-1.1055571977	 3.0607561487	 0.202568
87.6387	140.1089	172.2753	212.6066	287.3059	296.7709	355.7148	419.5558	477.2835	502.1502	547.2661	605.7843	626.3887	664.7811	691.4707	734.6804	826.2877	907.9343	962.327	986.038	987.1354	1034.1956	1061.3262	1105.7534	1132.5941	1187.6483	1211.4925	1261.9054	1309.0029	1354.2176	1364.0223	1407.1294	1415.5379	1483.0555	1495.9942	1721.9758	2227.0883	2935.666	2995.7614	3056.0236	3117.9614	3156.4545	3179.3391	3499.4291	3818.0682
OC1(COCC=C1)C#C	O[C@]1(COCC=C1)C#C	
InChI=1S/C7H8O2/c1-2-7(8)4-3-5-9-6-7/h1,3-4,8H,5-6H2	InChI=1S/C7H8O2/c1-2-7(8)4-3-5-9-6-7/h1,3-4,8H,5-6H2/t7-/m1/s1
