13
gdb 42971	3.3857	1.40496	1.06786	3.136	73.71	-0.2527	-0.0844	0.1683	1056.1158	0.088075	-419.389233	-419.381875	-419.38093	-419.42116	27.764	
O	-0.0115748865	 0.0116640317	-0.1121056401	-0.293869
C	-0.0176685601	 1.210436796	-0.0377112979	 0.332577
C	-1.241080407	 2.1200700718	 0.0178337339	-0.083065
O	-1.2679599722	 2.931078524	 1.203500563	-0.240668
C	-0.7329441573	 3.493382278	-0.0141278593	 0.000052
C	 0.7610743975	 3.4174297777	-0.0687625618	-0.189244
C	 1.1844211346	 2.1365029393	-0.0333914947	 0.035978
C	 2.5086322913	 1.6529736853	 0.0142530584	 0.251286
C	 3.6249720447	 1.2033935505	 0.0504819566	-0.3947
H	-2.1957096226	 1.7879097016	-0.3763163607	 0.125372
H	-1.2839526797	 4.3288797767	-0.4314359343	 0.118711
H	 1.4032425151	 4.288671132	-0.0827283478	 0.134151
H	 4.6101641022	 0.8079190254	 0.0850379149	 0.203419
110.2832	136.4818	188.8959	306.7422	382.9721	420.925	509.438	528.8741	600.9042	627.161	645.123	681.8069	745.522	816.2078	820.124	865.3433	903.7388	963.3814	990.7144	1076.6289	1103.19	1214.505	1231.9156	1285.2167	1310.16	1395.168	1639.258	1843.7859	2229.9133	3176.5498	3187.1581	3221.4747	3500.8991
O=C1C2OC2C=C1C#C	O=C1[C@H]2O[C@H]2C=C1C#C	
InChI=1S/C7H4O2/c1-2-4-3-5-7(9-5)6(4)8/h1,3,5,7H	InChI=1S/C7H4O2/c1-2-4-3-5-7(9-5)6(4)8/h1,3,5,7H/t5-,7-/m0/s1
