17
gdb 8277	5.36618	1.09903	1.00013	1.2934	70.85	-0.2284	0.0388	0.2673	1163.831	0.140714	-363.789262	-363.780998	-363.780054	-363.822222	30.552	
O	 0.0917913631	 1.4687019541	-0.0113598966	-0.436277
C	 0.0755228613	 0.0628005665	-0.0288691502	 0.146502
C	 0.2360158918	-0.6168405473	 1.357560265	-0.204318
N	-1.2379430983	-0.7087177167	 1.4263274388	-0.084274
C	-1.8211391583	-1.8700818364	 2.0750804751	-0.310835
C	-3.2795087183	-1.8679992221	 1.997692225	 0.306726
C	-4.478034327	-1.8744568151	 1.9160693655	-0.430373
C	-1.3355351405	-0.5831340927	-0.0446605121	-0.200414
H	-0.5312279239	 1.7546925762	 0.6669395035	 0.289347
H	 0.7690784478	-0.2449921713	-0.8116567029	 0.093714
H	 0.7340798619	-1.5986083903	 1.2840665646	 0.085545
H	 0.7079697385	-0.0295730899	 2.1526283471	 0.105383
H	-1.4401193952	-2.8170166654	 1.640321636	 0.105277
H	-1.5097422027	-1.8661198446	 3.1279649457	 0.134996
H	-5.5380244355	-1.8779184994	 1.8528911576	 0.198535
H	-2.165413823	 0.0298048356	-0.4090094302	 0.111702
H	-1.343507982	-1.5544722713	-0.5663417617	 0.088764
74.758	86.7682	146.5149	288.4352	304.4556	343.1942	390.3523	412.3856	440.9885	495.202	614.0881	660.6502	736.4973	843.1265	859.371	928.2727	954.6334	992.2354	1006.0687	1018.3011	1091.1569	1125.144	1139.2921	1178.0202	1218.7719	1235.4032	1264.0764	1287.3712	1320.9471	1329.0263	1387.7274	1442.4018	1476.6905	1493.2581	1521.1836	2243.0047	2890.8051	2958.7358	2972.3337	3032.2755	3064.7246	3079.6207	3116.2796	3506.0073	3795.9336
OC1CN(CC#C)C1	OC1CN(CC#C)C1	
InChI=1S/C6H9NO/c1-2-3-7-4-6(8)5-7/h1,6,8H,3-5H2	InChI=1S/C6H9NO/c1-2-3-7-4-6(8)5-7/h1,6,8H,3-5H2
