18
gdb 81837	2.45426	1.59466	1.23555	4.6675	72.55	-0.2304	-0.0302	0.2002	1065.3932	0.146268	-439.048193	-439.039492	-439.038548	-439.0814	32.699	
C	-0.1473950307	 1.467068041	 0.2323493138	-0.510602
C	 0.118523958	 0.0052870506	 0.0504452761	 0.335257
N	-0.6807588114	-1.0476158518	 0.71121282	-0.36285
C	 0.7862910797	-1.0011742591	 0.9264337168	-0.151558
C	 1.4303634303	-1.7060329459	-0.2761276262	 0.159977
O	 1.2399820733	-3.0684369313	-0.4662098845	-0.433466
C	 0.6948004567	-0.6725839836	-1.2298373582	-0.229263
C	-0.3385236517	-1.1844333407	-2.1902394518	 0.164619
O	-0.857220864	-2.2751956385	-2.1260476151	-0.258235
H	 0.6956454416	 2.0685642758	-0.1238926115	 0.129449
H	-1.0412988296	 1.7854286688	-0.3164460235	 0.134072
H	-0.30507481	 1.7028430046	 1.2904697342	 0.125521
H	-1.1217773404	-0.6286548493	 1.5291770858	 0.230454
H	 1.1923525977	-0.8871368547	 1.9249894133	 0.095723
H	 2.5083580547	-1.5173811791	-0.2941667984	 0.092748
H	 0.3141981142	-3.1857862647	-0.7272979431	 0.304869
H	 1.3914093859	-0.0089940632	-1.751294458	 0.087375
H	-0.6440802844	-0.469070589	-2.9870145598	 0.085911
88.677	128.3558	190.4102	214.391	232.8691	247.9017	337.1517	402.5424	444.8553	494.8491	548.271	640.5372	677.8554	763.5253	831.3302	843.6354	872.9888	932.7325	966.3629	990.3585	1013.888	1048.7111	1075.883	1111.456	1119.3506	1152.0181	1182.4462	1235.1557	1268.4513	1311.0921	1347.4692	1360.9391	1409.5108	1426.3462	1445.0727	1471.9493	1481.5079	1497.8247	1801.2361	2871.2722	3025.1581	3058.7756	3072.5089	3087.8485	3098.3686	3181.1945	3479.3573	3719.9225
CC12NC1C(O)C2C=O	C[C@]12N[C@H]1[C@@H](O)[C@H]2C=O	
InChI=1S/C6H9NO2/c1-6-3(2-8)4(9)5(6)7-6/h2-5,7,9H,1H3	InChI=1S/C6H9NO2/c1-6-3(2-8)4(9)5(6)7-6/h2-5,7,9H,1H3/t3-,4+,5+,6-/m1/s1
