20
gdb 15270	2.41236	1.76264	1.2618	2.9247	71.49	-0.2445	0.0711	0.3156	1059.2655	0.175878	-386.108732	-386.099376	-386.098432	-386.142737	33.686	
C	 0.0234566743	 1.1104769018	-0.0915011732	-0.236037
O	-0.1611977785	-0.1186401377	 0.5864745358	-0.246026
C	-1.3778715555	-0.7416674349	 0.2830942361	 0.093129
C	-1.4408143712	-1.7649483119	-0.831174939	-0.06089
C	-0.2620280562	-2.0095546913	-1.7503005422	-0.413144
C	-1.4526095199	-2.1990210338	 0.6326458475	-0.10022
C	-0.2569548504	-2.8430980763	 1.3130979648	-0.07553
O	-0.0165290798	-2.2864761255	 2.5965007896	-0.429607
H	 0.9888683097	 1.5121240849	 0.2244212521	 0.130324
H	 0.0265258088	 0.9744162881	-1.1810512069	 0.116335
H	-0.7659433252	 1.8309767118	 0.1684563396	 0.112473
H	-2.2467231531	-0.1071693392	 0.4630623366	 0.083588
H	-2.4062421135	-1.836776566	-1.326358473	 0.084294
H	 0.6821082359	-1.7185190296	-1.2851245978	 0.13303
H	-0.1880714204	-3.0644885201	-2.0355731333	 0.119508
H	-0.369597887	-1.4264410737	-2.6714568157	 0.113862
H	-2.4101667164	-2.5300613966	 1.0244915311	 0.090997
H	-0.4523644571	-3.9084562671	 1.4741099024	 0.104113
H	 0.6369483257	-2.7723211934	 0.6807235305	 0.089902
H	 0.1668487298	-1.3520195597	 2.4412863851	 0.2899
86.4118	109.4159	134.0681	167.2224	185.2804	219.1531	274.1628	296.2882	372.8949	473.8862	497.044	602.3018	621.6992	770.8272	782.7961	876.5628	946.1091	978.2081	988.1725	1059.3828	1074.8553	1099.4222	1128.8621	1143.7689	1147.2299	1171.5718	1184.8024	1223.325	1248.0946	1262.5626	1352.1128	1370.7305	1398.9511	1417.8797	1439.385	1441.2463	1486.0345	1486.5659	1499.0289	1500.2177	1507.5893	1513.1484	2992.1	3022.4343	3034.7386	3049.2447	3071.3104	3088.4767	3088.5708	3119.7776	3122.3825	3134.5663	3149.582	3788.8857
COC1C(C)C1CO	CO[C@H]1[C@@H](C)[C@H]1CO	
InChI=1S/C6H12O2/c1-4-5(3-7)6(4)8-2/h4-7H,3H2,1-2H3	InChI=1S/C6H12O2/c1-4-5(3-7)6(4)8-2/h4-7H,3H2,1-2H3/t4-,5+,6-/m0/s1
