19
gdb 73983	2.96253	1.53561	1.35482	1.2492	83.63	-0.2014	-0.032	0.1694	1035.6734	0.158233	-385.790274	-385.782166	-385.781222	-385.822381	32.235	
C	-0.1605711247	 1.3684644876	-0.3335100512	-0.471235
C	-0.0344564428	 0.0120260316	 0.2819080848	 0.272676
C	-1.0699050123	-0.8374758849	 0.5019584144	-0.141342
C	-1.8060646525	-1.2971893236	-0.7813573451	-0.265747
C	-0.7745927489	-2.4740539798	-0.7161583345	-0.151948
C	 0.6687033971	-2.193334191	-0.0519459894	-0.088894
C	 1.2624586471	-0.7909279739	 0.1554464762	-0.317805
C	-0.5536370195	-2.2753824877	 0.7549628306	 0.374359
O	-0.7459092653	-3.0740140751	 1.8623749762	-0.467494
H	 0.3173269601	 1.4132457871	-1.321746227	 0.123268
H	-1.2077276491	 1.6672383058	-0.4317195552	 0.126811
H	 0.3421261075	 2.1253492094	 0.2835100062	 0.13181
H	-2.822488045	-1.6913811169	-0.6626254795	 0.098398
H	-1.7821310391	-0.6046997689	-1.6282623082	 0.099219
H	-0.8797302207	-3.4168425533	-1.2486129458	 0.088356
H	 1.316932653	-3.0638408315	-0.1339930534	 0.082632
H	 1.8255816126	-0.3955694609	-0.6992745836	 0.107215
H	 1.9511050359	-0.7878530179	 1.0125446916	 0.115253
H	-1.6911522934	-3.1090304262	 2.0484413528	 0.28447
123.187	166.956	217.4564	249.8832	271.131	329.6082	395.3228	485.901	499.3374	545.7557	581.7755	644.8036	743.462	793.166	844.8439	881.7135	900.1555	926.1403	951.5547	972.1298	989.3038	1019.2537	1027.8187	1060.2065	1082.8819	1100.1132	1132.4822	1175.8516	1183.8433	1217.432	1239.1388	1274.5821	1305.1311	1336.014	1401.1124	1456.7404	1471.7825	1481.2669	1487.8419	1505.8781	1602.3002	3000.5965	3007.1708	3021.8069	3045.2001	3051.8349	3081.6869	3109.71	3131.654	3140.5033	3790.6574
CC1=C2CC3C(C1)C23O	C[C]1[C]2C[C@H]3[C@@H](C1)[C@@]23O	
InChI=1S/C8H10O/c1-4-2-6-7-3-5(4)8(6,7)9/h6-7,9H,2-3H2,1H3	InChI=1S/C8H10O/c1-4-2-6-7-3-5(4)8(6,7)9/h6-7,9H,2-3H2,1H3/t6-,7+,8+/m1/s1
