17
gdb 67951	2.35118	1.80547	1.2889	3.1028	73.11	-0.2384	-0.0203	0.2181	1003.0527	0.135735	-421.844633	-421.836996	-421.836052	-421.876638	30.254	
O	 0.1250720463	 1.354060953	-0.259797834	-0.480074
C	 0.0833333089	-0.0342151429	-0.0237896096	 0.388964
C	 0.4110178948	-0.8385880382	-1.3129339264	-0.398156
C	-0.7981513191	-1.7269518005	-0.9938095896	 0.413513
O	-1.1697183684	-2.797671011	-1.3795872058	-0.301216
C	-1.3024801876	-0.7791232767	 0.1117650631	-0.212981
C	-1.3895666164	-1.3789946971	 1.5248797453	-0.288051
C	 0.0113993161	-1.1660838035	 2.0590815613	-0.053606
C	 0.795811532	-0.4719584348	 1.2324533324	-0.170546
H	-0.0676637776	 1.8011140607	 0.5718124889	 0.277584
H	 0.2332187557	-0.2280186333	-2.2053958173	 0.140727
H	 1.3842040264	-1.3273103246	-1.397196986	 0.127856
H	-2.1702730681	-0.1948914295	-0.2041926477	 0.102847
H	-2.142037788	-0.8898655267	 2.1560959128	 0.111667
H	-1.6592415011	-2.441209635	 1.4876829223	 0.134329
H	 0.3229277549	-1.5610689994	 3.020583397	 0.104669
H	 1.8334290312	-0.2118728405	 1.4137344232	 0.102473
80.8642	195.7961	240.9419	308.9643	337.4685	382.9919	421.7002	472.0481	564.4366	607.9329	629.2706	739.023	755.2928	776.1144	821.2643	873.2584	921.5635	965.5548	976.4951	989.3836	1014.8468	1060.6905	1076.4468	1106.108	1126.3934	1156.4861	1181.3106	1225.1638	1253.9539	1257.3541	1315.2545	1352.6614	1383.1401	1432.8305	1482.0774	1672.1816	1889.1765	3026.7016	3053.1474	3060.2692	3090.7783	3119.555	3178.965	3203.1936	3801.716
OC12CC(=O)C1CC=C2	O[C@]12CC(=O)[C@H]1CC=C2	
InChI=1S/C7H8O2/c8-6-4-7(9)3-1-2-5(6)7/h1,3,5,9H,2,4H2	InChI=1S/C7H8O2/c8-6-4-7(9)3-1-2-5(6)7/h1,3,5,9H,2,4H2/t5-,7-/m1/s1
