17
gdb 10908	3.33399	1.98025	1.45246	3.4597	69.76	-0.2304	0.0164	0.2468	906.1174	0.141456	-363.861611	-363.853504	-363.85256	-363.893882	29.505	
C	-0.129293652	 1.3520547013	-0.2671694386	-0.345676
N	-0.0476092664	 0.0129277222	 0.2777436862	-0.092642
C	-1.0496092299	-1.0521890519	 0.1908052661	-0.050498
C	-0.8965841803	-1.8227758961	-1.0889239492	-0.333868
C	 0.0582522494	-2.083526666	 0.0818805579	 0.166049
C	 0.2583861062	-3.4146630163	 0.7418409635	-0.496147
C	 1.0127480948	-0.8857697324	 0.1177985724	 0.364092
O	 2.1971506291	-0.7096839433	 0.0218342177	-0.363253
H	 0.8861851589	 1.7526639086	-0.3176559308	 0.156709
H	-0.5642600347	 1.3644526506	-1.2765368531	 0.118015
H	-0.7291124607	 2.0011698736	 0.3784098967	 0.127922
H	-1.9196824584	-1.0598338511	 0.8348494405	 0.112012
H	-1.6131192466	-2.6204426537	-1.2695715992	 0.120444
H	-0.5508260728	-1.3186011181	-1.9870653364	 0.124228
H	-0.6557539767	-4.0156752632	 0.7074077678	 0.120442
H	 1.048906704	-3.9806785612	 0.2379984174	 0.139729
H	 0.5495831161	-3.2982752328	 1.7907093212	 0.132444
123.0246	149.9158	164.0909	187.3953	229.7525	265.1385	312.6728	480.5174	513.905	604.633	717.6978	753.7855	793.5094	873.0978	915.829	944.3101	968.06	983.5481	1025.3325	1079.7221	1100.5883	1114.8332	1150.735	1213.1181	1255.504	1258.3825	1356.587	1390.076	1424.0615	1444.8801	1484.2373	1485.2983	1488.6818	1497.8936	1512.8455	1878.6127	3003.4106	3034.0484	3076.1824	3099.1654	3104.5313	3109.9638	3127.4966	3193.464	3201.4838
CN1C2CC2(C)C1=O	CN1[C@H]2C[C@@]2(C)C1=O	
InChI=1S/C6H9NO/c1-6-3-4(6)7(2)5(6)8/h4H,3H2,1-2H3	InChI=1S/C6H9NO/c1-6-3-4(6)7(2)5(6)8/h4H,3H2,1-2H3/t4-,6+/m0/s1
