19
gdb 8272	5.76221	0.97692	0.90081	4.1291	76.21	-0.3002	0.0361	0.3364	1298.9231	0.1657	-327.943004	-327.934581	-327.933637	-327.976341	30.926	
C	 0.0191900452	 1.5917673278	 0.145828363	-0.40791
C	 0.0675669662	 0.0764268628	 0.0351665095	 0.057092
C	 1.1121765815	-0.5792972565	-0.9138177435	-0.262369
C	 1.314844027	-1.6940132848	 0.1469189359	 0.045717
C	 2.7371599304	-2.219185096	 0.3725559628	-0.364411
C	 2.8167584329	-3.1616852386	 1.4880466726	 0.260613
N	 2.8554917544	-3.903364383	 2.3735692322	-0.309338
C	 0.6818793015	-0.7487101273	 1.2024771888	-0.238717
H	 1.0086843524	 2.0009751809	 0.3800884803	 0.110767
H	-0.3176256387	 2.0493992448	-0.7910838584	 0.116608
H	-0.668459469	 1.9103432198	 0.9370828706	 0.118812
H	-0.9302411193	-0.3110198154	-0.1996444529	 0.077135
H	 0.7909435437	-0.8771650814	-1.9149535861	 0.101696
H	 2.0065227781	 0.048298875	-1.006779282	 0.096442
H	 0.6486872296	-2.5385876951	-0.0536016309	 0.093082
H	 3.1080498483	-2.7182032262	-0.5310341717	 0.14997
H	 3.4187051194	-1.3839360616	 0.5743142408	 0.14473
H	 1.450669845	-0.171997665	 1.7299421249	 0.099338
H	 0.0079517313	-1.18593135	 1.942017284	 0.110742
60.6988	89.3707	143.1999	223.6141	279.766	351.7293	373.2978	396.9043	410.8981	491.6041	627.0653	777.5114	813.3706	868.864	894.7543	928.9167	935.3614	956.8292	980.2658	1054.2462	1076.5798	1133.8853	1141.7084	1152.3484	1220.8009	1235.4531	1259.3776	1268.5668	1277.9266	1299.0345	1328.2851	1368.6053	1392.6124	1413.2856	1464.213	1477.7351	1494.8564	1496.2017	1504.4082	2360.0772	3023.5692	3032.839	3035.8198	3037.6147	3045.5802	3058.4368	3076.1367	3091.42	3093.077	3102.1241	3112.9422
CC1CC(CC#N)C1	C[C@H]1C[C@@H](CC#N)C1	
InChI=1S/C7H11N/c1-6-4-7(5-6)2-3-8/h6-7H,2,4-5H2,1H3	InChI=1S/C7H11N/c1-6-4-7(5-6)2-3-8/h6-7H,2,4-5H2,1H3/t6-,7+
