21
gdb 91317	2.54079	1.50355	1.22138	0.7428	77.66	-0.2416	0.0615	0.3031	1120.139	0.181242	-424.197384	-424.188403	-424.187458	-424.230539	35.336	
C	 0.2728286672	 1.3410791522	-0.4893124831	-0.448029
C	 0.0301560137	-0.0961982079	-0.0370255736	 0.406622
C	-1.463162658	-0.3871748754	 0.0746369873	-0.420686
O	 0.6476061845	-1.0512325477	-0.9598430323	-0.337418
C	 1.3954154904	-1.6686240208	 0.1003662928	 0.1195
C	 2.8153611473	-1.0669328239	 0.2661939896	-0.299349
C	 2.2810488845	-0.2211254734	 1.4672238648	 0.127329
O	 2.6199453289	 1.132562438	 1.6192169967	-0.43043
C	 0.8273588735	-0.6859359693	 1.1642665165	-0.170657
H	 1.3082976854	 1.4888011033	-0.8092212083	 0.110189
H	-0.3574063707	 1.574056215	-1.3539036931	 0.124324
H	 0.0341763371	 2.0520189716	 0.3077203309	 0.129602
H	-1.9441144901	-0.2545501346	-0.8996994497	 0.122379
H	-1.6348998228	-1.4157195556	 0.4038908139	 0.119556
H	-1.9387410298	 0.2905269993	 0.7924737813	 0.115132
H	 1.2842902605	-2.754839589	 0.1224285523	 0.075679
H	 3.6214536086	-1.7616367038	 0.5142773151	 0.103164
H	 3.105694355	-0.4847326879	-0.6124092426	 0.106572
H	 2.5886985853	-0.6914537524	 2.4064506242	 0.096945
H	 2.4301280472	 1.5912195947	 0.7963462771	 0.280542
H	 0.2170544522	-0.9742564926	 2.0204585403	 0.069034
75.6211	162.9976	208.5599	255.0022	270.457	300.8228	338.3791	365.0921	377.6208	414.7617	456.0792	564.4342	636.5287	663.3004	765.5063	834.2558	852.0902	890.5341	925.3186	943.0791	967.9413	1001.605	1010.4992	1017.0572	1047.0447	1102.2262	1143.5219	1162.1323	1174.9654	1177.0753	1213.4222	1244.588	1265.8895	1297.2573	1306.3698	1325.0506	1346.628	1395.7224	1411.2801	1439.8314	1465.245	1474.1003	1485.8431	1492.6159	1516.3414	3030.4923	3036.05	3056.9036	3060.2394	3081.7301	3098.6994	3104.1699	3104.9168	3115.1597	3115.9047	3120.4517	3846.572
CC1(C)OC2CC(O)C12	CC1(C)O[C@H]2C[C@@H](O)[C@@H]12	
InChI=1S/C7H12O2/c1-7(2)6-4(8)3-5(6)9-7/h4-6,8H,3H2,1-2H3	InChI=1S/C7H12O2/c1-7(2)6-4(8)3-5(6)9-7/h4-6,8H,3H2,1-2H3/t4-,5+,6-/m1/s1
