16
gdb 33717	6.19225	0.91988	0.91986	3.8155	83.51	-0.2763	0.0112	0.2876	1260.5387	0.124457	-363.548434	-363.540634	-363.53969	-363.580652	30.31	
C	 0.0194149493	-1.1364469004	-0.0098215154	-0.346342
C	 0.0023089912	 0.0660334706	 0.0006207436	 0.058639
C	-0.0200024568	 1.4979665168	 0.0118965344	 0.221685
C	-0.64480844	 2.4304246578	 1.1053223116	-0.281494
C	-0.0494786999	 3.3879289002	 0.0266154308	 0.200429
C	 1.2105277934	 2.4679326134	 0.0050876943	-0.281404
C	-0.6703416798	 2.4468320795	-1.0518577887	-0.281353
C	-0.071923788	 4.82752562	 0.0376551341	 0.160207
N	-0.0900309981	 5.9838200638	 0.0464303775	-0.346692
H	 0.0357811705	-2.1983164274	-0.0181654037	 0.184358
H	-1.7328195322	 2.415554606	 1.192309628	 0.11868
H	-0.1532392669	 2.4332804106	 2.0800052425	 0.118668
H	 1.829575605	 2.4733838258	 0.9041517239	 0.118668
H	 1.8089488403	 2.4871788557	-0.9076718457	 0.118637
H	-0.202057111	 2.4646129779	-2.0377364912	 0.118653
H	-1.760096437	 2.4331112197	-1.113087946	 0.118661
109.6777	109.7468	209.4257	210.9645	467.2678	467.8257	484.581	541.8248	541.9139	570.7294	571.7154	588.844	644.4261	644.4603	811.5351	812.2367	930.3733	963.1845	993.7797	1039.0383	1040.0508	1097.4847	1123.4411	1123.7207	1148.8966	1149.9183	1168.2908	1169.3423	1270.842	1333.2478	1496.2444	1498.0619	1553.7095	2238.5386	2352.9519	3069.0308	3069.721	3075.8362	3142.2045	3146.774	3147.1681	3501.1432
C#CC12CC(C1)(C2)C#N	C#C[C@@]12C[C@@](C1)(C2)C#N	
InChI=1S/C8H7N/c1-2-7-3-8(4-7,5-7)6-9/h1H,3-5H2	InChI=1S/C8H7N/c1-2-7-3-8(4-7,5-7)6-9/h1H,3-5H2/t7-,8-
