17
gdb 102289	2.24393	1.13814	0.91698	1.6858	66.06	-0.2609	-0.0367	0.2242	1304.37	0.134739	-492.325214	-492.315478	-492.314534	-492.360497	34.581	
N	 0.0370286518	 1.3141938051	-0.0315837415	-0.562178
C	-0.1209520444	-0.0126991137	 0.317781095	 0.457027
O	 0.4764241044	-0.5345841376	 1.241101815	-0.387294
N	-1.0122159801	-0.7060751396	-0.4881537527	-0.368659
C	-1.0252571718	-2.1549048171	-0.413162225	-0.077234
C	-2.0006789191	-2.6560758015	 0.6679410506	-0.082183
O	-3.3216031111	-2.2291890585	 0.4054885792	-0.418279
C	-1.4192072132	-2.7070496259	-1.7683976651	 0.170398
O	-1.587272146	-2.0244320102	-2.7477931117	-0.260481
H	 0.4975072361	 1.8675683972	 0.6737014434	 0.265432
H	-0.7093627742	 1.7798523677	-0.523508724	 0.254267
H	-1.1614235564	-0.3680708409	-1.4324939422	 0.254284
H	-0.0243826253	-2.5417664077	-0.1653637726	 0.125835
H	-2.0164865723	-3.7514964974	 0.6768885091	 0.11247
H	-1.632730886	-2.3113124703	 1.6426819233	 0.128537
H	-3.2843372325	-1.2682190269	 0.3281651083	 0.286282
H	-1.5447151698	-3.8089016428	-1.7992790892	 0.101777
62.1154	86.4535	109.5331	140.4183	183.6092	251.0431	266.8563	351.575	400.3825	414.2642	466.664	504.4982	606.9167	635.1237	691.6066	703.9243	781.1446	848.2217	902.6081	951.6499	1033.6239	1068.4304	1086.3873	1113.9771	1183.2954	1219.0391	1253.6586	1313.7126	1369.5989	1386.9906	1409.5654	1424.7286	1505.7316	1510.3397	1625.8889	1797.8528	1823.5141	2928.347	2999.2861	3027.9307	3080.6846	3542.9971	3586.889	3705.297	3787.2796
NC(=O)NC(CO)C=O	NC(=O)N[C@@H](CO)C=O	
InChI=1S/C4H8N2O3/c5-4(9)6-3(1-7)2-8/h1,3,8H,2H2,(H3,5,6,9)	InChI=1S/C4H8N2O3/c5-4(9)6-3(1-7)2-8/h1,3,8H,2H2,(H3,5,6,9)/t3-/m1/s1
