20
gdb 79066	2.12246	2.01113	1.67798	1.6293	81.97	-0.2108	0.0045	0.2153	972.1892	0.171592	-365.982698	-365.974829	-365.973885	-366.014368	31.987	
C	-0.0419243479	 1.637414399	-0.030339707	-0.426174
C	 0.1063611574	 0.1226788264	-0.0077429279	 0.003137
C	 0.7684804844	-0.6299751991	-1.1481504927	-0.079212
C	 2.2695951691	-0.7569511623	-1.0368969549	-0.073309
C	 3.0209730276	 0.1520334008	-0.1306613039	-0.086272
C	 2.3925104268	 0.1820710485	 1.0449624894	-0.127858
C	 1.1287120507	-0.6375537833	 0.9358130083	 0.26472
C	 0.5972869916	-1.2770417481	 2.1968465956	-0.48923
N	 1.3998147744	-1.6293952165	-0.2172664089	-0.163191
H	 0.9177693374	 2.1354585731	-0.1870633153	 0.120561
H	-0.7143662916	 1.9398917762	-0.8409166715	 0.115125
H	-0.4713807233	 2.0085165851	 0.9071791779	 0.111953
H	-0.8708276052	-0.3433547962	 0.1605893108	 0.08532
H	 0.2632573797	-0.9432194231	-2.0584858779	 0.087831
H	 2.7711991678	-1.2499184298	-1.8647284853	 0.089738
H	 3.9100572034	 0.697017675	-0.420396727	 0.104372
H	 2.6385420013	 0.7943106823	 1.903872655	 0.100479
H	 0.2957945914	-0.5138720291	 2.9232093029	 0.113601
H	-0.2717314761	-1.9041080725	 1.9769456257	 0.122546
H	 1.361797981	-1.9082860065	 2.6612907668	 0.125865
175.846	188.7352	207.4145	247.3611	280.7939	303.8314	443.5906	486.894	575.7965	605.589	689.2127	733.5516	748.0564	773.0752	794.892	803.7689	857.8695	908.0921	928.3859	942.8177	977.5266	1032.2796	1046.88	1071.3931	1095.1105	1107.9603	1131.5699	1140.2815	1161.2361	1202.6754	1231.9129	1268.798	1340.3404	1357.5775	1372.2736	1392.8116	1405.2964	1412.2784	1482.7001	1492.1553	1494.2552	1501.7513	1657.6811	3030.5357	3031.3976	3045.8558	3089.3848	3099.9999	3110.2871	3122.133	3137.1179	3154.5612	3199.927	3226.6694
CC1C2C3C=CC1(C)N23	C[C@H]1[C@H]2[C@H]3C=C[C@]1(C)N23	
InChI=1S/C8H11N/c1-5-7-6-3-4-8(5,2)9(6)7/h3-7H,1-2H3	InChI=1S/C8H11N/c1-5-7-6-3-4-8(5,2)9(6)7/h3-7H,1-2H3/t5-,6+,7-,8-,9?/m0/s1
