23
gdb 118872	2.85989	1.02926	0.91352	1.7921	85.19	-0.2485	0.0843	0.3328	1422.9866	0.204281	-388.261462	-388.251842	-388.250898	-388.295811	36.769	
C	-0.1001765943	 1.6201605309	 0.0827489278	-0.377256
C	-0.0189845784	 0.0905261876	 0.0834379711	-0.175901
C	-1.3877425519	-0.5719233448	-0.1224004326	-0.228744
C	-1.391905531	-2.1011334351	-0.0412044633	 0.309326
C	-0.5732930511	-2.7719230814	-1.1442897849	-0.458913
C	-1.0972274401	-2.7361758919	 1.3815538772	-0.30967
C	-2.5044572113	-3.3407776502	 1.3569932622	 0.035261
O	-3.4325583121	-2.252290974	 1.2443126125	-0.251911
C	-2.804136149	-2.7329145129	 0.0534051699	-0.016293
H	 0.8850021629	 2.0733329823	 0.2319285213	 0.108693
H	-0.4987335491	 1.9947507003	-0.8667592574	 0.112931
H	-0.7586515903	 1.981036522	 0.8805220711	 0.116037
H	 0.6779827663	-0.2331027165	-0.6992727613	 0.094647
H	 0.4120158727	-0.250219552	 1.034013353	 0.096478
H	-2.0879497238	-0.1944090553	 0.6315478132	 0.110596
H	-1.7906603711	-0.2687557812	-1.0999408169	 0.084508
H	 0.4918220866	-2.5390021268	-1.0520325816	 0.122417
H	-0.6783293744	-3.8619581884	-1.1054823418	 0.111728
H	-0.9053571849	-2.4395953352	-2.134892487	 0.11326
H	-0.29719076	-3.4799983325	 1.3492194865	 0.102318
H	-0.9152717594	-2.0407381187	 2.2048622769	 0.106573
H	-2.8708226013	-4.2525964373	 1.8143844842	 0.101219
H	-3.452047295	-3.0564503589	-0.7552529601	 0.092696
84.5959	99.9947	134.8893	200.2851	240.2129	252.9766	278.3288	316.8046	349.0342	394.3527	453.2093	548.0508	667.0541	749.7271	795.696	834.384	853.7406	863.6308	895.2349	903.529	925.4475	959.3732	981.3205	992.9691	1039.2094	1048.5672	1054.8782	1103.7546	1128.4253	1165.9292	1200.4962	1225.5041	1248.0905	1268.0811	1272.0429	1297.1821	1325.9927	1343.0722	1382.9664	1397.3908	1410.4299	1414.0788	1472.2976	1484.0024	1494.7346	1497.0237	1498.7714	1500.8607	1511.8195	3001.2832	3021.1477	3023.8531	3029.0705	3046.7193	3061.0435	3069.593	3086.7477	3096.8206	3100.4207	3102.4671	3117.6381	3164.1513	3187.4141
CCCC1(C)CC2OC12	CCC[C@@]1(C)C[C@H]2O[C@@H]12	
InChI=1S/C8H14O/c1-3-4-8(2)5-6-7(8)9-6/h6-7H,3-5H2,1-2H3	InChI=1S/C8H14O/c1-3-4-8(2)5-6-7(8)9-6/h6-7H,3-5H2,1-2H3/t6-,7-,8+/m1/s1
