21
gdb 6040	2.85357	1.47891	1.34887	3.3182	74.52	-0.2376	0.0373	0.2749	1069.3029	0.186481	-366.310682	-366.300388	-366.299444	-366.345932	37.44	
C	 0.036288525	 1.4535870863	 0.2375068026	-0.408508
C	 0.1068789602	-0.0464994176	-0.0651582815	-0.172644
C	 0.6698277185	-0.4440182195	-1.4603023308	 0.167719
C	-0.1964582097	 0.1389627575	-2.5961450343	-0.405986
C	 2.1237360312	 0.0303489119	-1.6220245358	-0.453669
C	 0.5082821702	-1.981209614	-1.5365262305	 0.408659
N	 1.6419344249	-2.7323530904	-1.6378710974	-0.538872
O	-0.593340348	-2.4999565821	-1.4952457879	-0.388686
H	 1.0205783184	 1.9318987467	 0.2089390001	 0.112742
H	-0.614968868	 1.9841573627	-0.4633092575	 0.121224
H	-0.3709564013	 1.6111181005	 1.2412192822	 0.116644
H	 0.7224356078	-0.5346639982	 0.7024567993	 0.090757
H	-0.8906927674	-0.4876328476	 0.0182232026	 0.124021
H	-0.1883032142	 1.2322231556	-2.5757977745	 0.108986
H	 0.1824719282	-0.1762738099	-3.5744586838	 0.110834
H	-1.2256772759	-0.2135494831	-2.5050816889	 0.140399
H	 2.7656319497	-0.324399685	-0.8070574166	 0.111825
H	 2.5512581038	-0.2987876928	-2.5756911494	 0.114546
H	 2.1731755147	 1.1226236656	-1.615571338	 0.124995
H	 2.5634080854	-2.3394861053	-1.6807461689	 0.257264
H	 1.5344580964	-3.7326104113	-1.678554091	 0.257752
30.3634	86.6864	130.0682	195.5263	219.4304	257.8346	280.2961	309.9177	322.9386	348.2811	364.4069	392.7984	490.4884	583.8781	593.293	690.9143	773.2785	787.8712	828.6055	930.0097	947.1091	1001.772	1025.5402	1053.9208	1078.9994	1093.4118	1196.4671	1219.3325	1238.8924	1328.4376	1348.5689	1368.303	1392.0141	1409.1511	1421.5539	1486.145	1486.8755	1491.7002	1507.7317	1508.4786	1513.7139	1518.5757	1612.9943	1775.3467	3016.7794	3023.4474	3037.2405	3041.1723	3081.6755	3087.4458	3100.2518	3101.5137	3107.8252	3113.3985	3136.7789	3611.8151	3754.6172
CCC(C)(C)C(N)=O	CCC(C)(C)C(=O)N	
InChI=1S/C6H13NO/c1-4-6(2,3)5(7)8/h4H2,1-3H3,(H2,7,8)	InChI=1S/C6H13NO/c1-4-6(2,3)5(7)8/h4H2,1-3H3,(H2,7,8)
