23
gdb 88978	3.02011	0.97576	0.8478	0.8344	86.78	-0.2319	0.0839	0.3159	1490.6918	0.20383	-388.255616	-388.245533	-388.244589	-388.291536	37.467	
C	 0.0199527306	 1.4772155344	-0.1478212976	-0.399753
C	 0.2563259065	-0.0146018861	-0.065559065	-0.035435
C	 1.6314931449	-0.5580980443	 0.2818574838	-0.319299
C	 0.4834082394	-0.6909944373	 1.2525847471	 0.134876
O	 0.4383558771	 0.1048964437	 2.4007740462	-0.251016
C	 1.0702540185	-0.4736882074	 3.5052194727	 0.134963
C	 2.5365438008	-0.2211314691	 3.7587371836	-0.319292
C	 1.4760082947	 0.4375029151	 4.6239903054	-0.035467
C	 1.2377771621	 1.9290637305	 4.5424001709	-0.399757
H	 0.576633152	 2.0066672848	 0.6286235722	 0.128355
H	 0.3331708671	 1.8682355559	-1.121849177	 0.112556
H	-1.0405069618	 1.7168937263	-0.0144746979	 0.117791
H	-0.3123675517	-0.5993374333	-0.7842446244	 0.084098
H	 2.0014536865	-1.4439081212	-0.2234134423	 0.107149
H	 2.3926248551	 0.1739537211	 0.5287526891	 0.114146
H	 0.0558388406	-1.6840076385	 1.3979860731	 0.081005
H	 0.6736016614	-1.4562855772	 3.7644294737	 0.080995
H	 3.1464073856	-1.0178708742	 4.1711717826	 0.107147
H	 3.0477557727	 0.4196482202	 3.0486320311	 0.114126
H	 1.3538446129	 0.0173504424	 5.6191708994	 0.084099
H	 1.3243026369	 2.2851041758	 3.5134066922	 0.128371
H	 0.234688149	 2.18870493	 4.8976464907	 0.11779
H	 1.9633087092	 2.4736855983	 5.1561781304	 0.112554
27.9063	83.0174	112.9296	180.0367	196.314	201.6319	270.1657	290.2862	350.1405	414.5152	462.0227	545.7918	568.3231	752.9494	756.1566	827.9028	832.5499	856.1638	893.9253	921.1447	925.6545	979.3989	1001.8404	1023.2812	1037.9981	1069.6562	1076.9469	1109.6176	1115.062	1145.9802	1148.35	1179.2332	1182.5522	1191.8328	1200.4014	1244.7134	1258.8272	1359.3579	1385.5417	1400.7201	1417.1319	1419.7596	1431.1024	1475.7803	1491.3114	1492.0967	1496.6636	1502.0733	1508.023	3034.808	3035.2296	3084.7288	3089.7611	3092.0142	3092.3673	3120.426	3120.4899	3130.797	3132.9391	3140.852	3141.3723	3218.7561	3221.8687
CC1CC1OC1CC1C	C[C@H]1C[C@H]1O[C@H]1C[C@H]1C	
InChI=1S/C8H14O/c1-5-3-7(5)9-8-4-6(8)2/h5-8H,3-4H2,1-2H3	InChI=1S/C8H14O/c1-5-3-7(5)9-8-4-6(8)2/h5-8H,3-4H2,1-2H3/t5-,6+,7+,8-
