25
gdb 123175	7.30381	0.41433	0.40608	1.3067	90.73	-0.2614	0.0814	0.3427	2708.718	0.227837	-389.479313	-389.468194	-389.467249	-389.517159	39.579	
O	-0.0939837663	 1.4517019243	-0.201674301	-0.421863
C	 0.0125306412	 0.0492318722	-0.0037434161	-0.073415
C	-1.3867663911	-0.5465334072	-0.0789804171	-0.165153
C	-1.404938692	-2.0643487158	 0.1232915697	-0.185088
C	-2.8113417537	-2.6672844232	 0.0411864773	-0.168181
C	-2.8362498152	-4.1861987146	 0.2553069124	-0.207513
C	-4.2266125361	-4.7801462015	 0.1709043456	 0.037505
C	-4.8146058545	-5.1611750108	-1.1653586979	-0.253804
C	-4.4240703514	-6.2332042366	-0.1760211052	-0.277356
H	 0.7889679516	 1.8295482908	-0.1564903838	 0.283919
H	 0.6550802661	-0.4133340574	-0.7714384661	 0.081501
H	 0.4626375214	-0.1814662253	 0.9762422735	 0.081559
H	-2.0127866696	-0.0571745474	 0.6774976551	 0.103175
H	-1.8204397866	-0.289872307	-1.0535202502	 0.103295
H	-0.7620863905	-2.5427987065	-0.6291670964	 0.091178
H	-0.9618408153	-2.3103479352	 1.0986811753	 0.091658
H	-3.4564341963	-2.1857426246	 0.7890797219	 0.09209
H	-3.2544120027	-2.4324957038	-0.9356191005	 0.097548
H	-2.1925467008	-4.6707323463	-0.492095969	 0.087584
H	-2.3941190651	-4.4222364485	 1.2336229745	 0.092263
H	-4.9299718549	-4.3694762047	 0.8921715085	 0.078111
H	-5.8693593991	-4.9820554632	-1.3426664578	 0.108405
H	-4.1908294071	-5.0349794256	-2.0448320883	 0.107038
H	-3.5408658515	-6.8251900158	-0.394241833	 0.10739
H	-5.2125659007	-6.7841616262	 0.3249006087	 0.108158
43.2036	55.7276	77.4432	103.1688	129.6389	157.9369	190.9469	256.1035	261.8777	332.9128	377.2404	469.6987	493.3406	735.8704	762.8948	775.7311	808.269	832.9049	853.2077	915.2427	948.1639	984.5599	999.8416	1030.5483	1047.1756	1061.1792	1069.1931	1076.2566	1078.5199	1103.0956	1141.3538	1192.6212	1198.4076	1213.7687	1227.2773	1231.0062	1271.8691	1275.9865	1311.1236	1320.2752	1325.3767	1332.1903	1372.2959	1399.5578	1419.5566	1461.9349	1469.1164	1481.8431	1485.9045	1495.4726	1507.4679	1510.3686	1529.2274	2954.898	2979.2025	2999.3556	3001.8775	3013.1897	3024.1233	3029.3846	3031.169	3057.0621	3074.7324	3125.9907	3126.8962	3132.2336	3203.5073	3218.8651	3830.5255
OCCCCCC1CC1	OCCCCCC1CC1	
InChI=1S/C8H16O/c9-7-3-1-2-4-8-5-6-8/h8-9H,1-7H2	InChI=1S/C8H16O/c9-7-3-1-2-4-8-5-6-8/h8-9H,1-7H2
