16
gdb 48614	2.68887	1.6692	1.24125	3.3017	70.24	-0.258	-0.0368	0.2213	998.7945	0.125058	-437.882508	-437.875133	-437.874189	-437.914819	28.108	
N	 0.0226602594	 1.2332628406	-0.1963520681	-0.576828
C	-0.0016109025	-0.0206447195	-0.101722352	 0.431
O	 1.0573650173	-0.8985723564	-0.1755703166	-0.264693
C	 0.3895238172	-2.1836479817	 0.03139717	 0.086679
C	-0.8392434767	-2.0735811532	-0.8959358549	-0.268862
C	-1.1893808276	-0.9323160537	 0.1179060082	 0.106672
C	-0.544931603	-1.8763550305	 1.2204984743	-0.275523
C	-2.5535494678	-0.339750434	 0.2758585917	 0.060623
O	-3.5472629701	-0.8397026359	-0.1893394358	-0.251825
H	 0.9745146325	 1.5740237509	-0.3424452551	 0.230676
H	 1.1281843922	-2.9806611275	 0.0091364264	 0.103627
H	-0.6614415569	-1.7935762919	-1.935366739	 0.125619
H	-1.5316657651	-2.9117492744	-0.8206802037	 0.131342
H	-1.2074949248	-2.7005654166	 1.4867715763	 0.129935
H	-0.104563631	-1.4079693319	 2.1023080326	 0.127002
H	-2.5922501631	 0.5926392758	 0.8757921455	 0.104557
60.9011	159.822	188.9371	253.2321	377.2435	464.0848	479.0402	552.4092	633.1799	705.9371	710.6986	807.1019	857.1221	866.6942	891.7216	905.6731	956.56	970.7278	993.9432	1009.2199	1040.1769	1063.5361	1113.2808	1180.0162	1189.9543	1224.2405	1234.1719	1246.3879	1304.2539	1366.9601	1423.5547	1475.6493	1510.9501	1806.8078	1820.3892	2926.33	3081.2234	3089.0897	3154.2552	3160.6537	3161.7109	3476.078
N=C1OC2CC1(C2)C=O	[NH][C]1O[C@@H]2C[C@]1(C2)C=O	
InChI=1S/C6H7NO2/c7-5-6(3-8)1-4(2-6)9-5/h3-4,7H,1-2H2	InChI=1S/C6H7NO2/c7-5-6(3-8)1-4(2-6)9-5/h3-4,7H,1-2H2/t4-,6+
