19
gdb 15162	4.61711	0.9033	0.85572	1.6842	80.32	-0.2325	0.0466	0.2791	1429.9155	0.164564	-327.868963	-327.859808	-327.858864	-327.904149	32.197	
C	-0.5585651839	 1.2672241189	-0.9555378772	-0.363908
C	-0.0970798668	-0.1253085739	-0.4885628343	-0.31444
C	 0.9808550932	-0.6782078069	-1.3033533825	 0.044433
C	 1.8859291175	-1.1028717633	-1.9780826729	 0.061769
C	 2.9612288026	-1.6439233959	-2.8167117377	-0.280409
N	 2.5782090286	-2.5657473013	-3.8957431752	-0.073895
C	 1.4778283025	-3.4932239407	-3.6620239177	-0.217346
C	 1.3166583387	-2.3391659008	-4.5908379938	-0.217214
H	 0.2681679056	 1.9817778743	-0.9208570058	 0.129059
H	-0.927947324	 1.2295037303	-1.9839915415	 0.127109
H	-1.3629425082	 1.6383279923	-0.3134375344	 0.114897
H	 0.2320961305	-0.0716320305	 0.5572128833	 0.130841
H	-0.9496425949	-0.8164080103	-0.4976769336	 0.129811
H	 3.5086137091	-0.8155272858	-3.2834974688	 0.133162
H	 3.6840390497	-2.1743678552	-2.1843630367	 0.133151
H	 1.6292325178	-4.4986198951	-4.0447325071	 0.112866
H	 0.9464881902	-3.4307910091	-2.7149373584	 0.119339
H	 0.6814439976	-1.5262184406	-4.2462955936	 0.118071
H	 1.3474079341	-2.4822960267	-5.6672964121	 0.112706
28.7046	79.988	90.9442	145.5799	207.3929	291.1455	309.1074	363.6147	383.5315	492.6019	557.9589	742.0067	759.4774	785.0597	829.9464	875.1197	956.5229	985.6588	1027.5844	1064.2388	1078.903	1104.1003	1116.0075	1126.793	1151.6776	1173.6733	1187.6987	1286.1678	1289.6545	1311.6331	1350.9224	1361.7451	1409.5968	1469.6884	1473.8305	1482.0095	1494.8994	1505.1116	1511.5953	2351.5855	3020.8459	3023.4067	3044.4721	3047.8498	3054.0264	3102.7827	3105.4567	3117.6938	3123.9446	3183.8973	3197.6027
CCC#CCN1CC1	CCC#CCN1CC1	
InChI=1S/C7H11N/c1-2-3-4-5-8-6-7-8/h2,5-7H2,1H3	InChI=1S/C7H11N/c1-2-3-4-5-8-6-7-8/h2,5-7H2,1H3
