14
gdb 67421	2.80089	1.58372	1.30036	4.3902	67.69	-0.253	-0.0088	0.2443	971.2679	0.100759	-436.617332	-436.610179	-436.609235	-436.648883	27.702	
O	-0.1345591956	 1.4225716538	 0.0633010739	-0.430192
C	 0.0014018656	 0.0757212319	 0.0013434064	 0.273882
C	-1.0553671935	-0.9875425919	-0.0802281364	-0.190448
C	-0.4043318413	-1.6425382558	-1.2946190923	-0.230687
C	 0.9067923009	-0.9769602093	-0.8040961483	-0.027258
O	 1.209188891	-1.6821483354	 0.4296731272	-0.310112
C	 0.0828475704	-1.0446993321	 1.0133878283	 0.286247
C	-0.1633550708	-1.0944381393	 2.4107204589	 0.190867
N	-0.3721961813	-1.1005301618	 3.5492592151	-0.347727
H	 0.6427639422	 1.8028105479	 0.4914079346	 0.308397
H	-2.0945027297	-0.9268792488	 0.2145168586	 0.126326
H	-0.3867732294	-2.7325454062	-1.3669696716	 0.120652
H	-0.7673465509	-1.1917576144	-2.2211619475	 0.123925
H	 1.7779408925	-0.8129275485	-1.4328252668	 0.106128
115.7902	162.4693	261.1593	321.9258	391.8629	431.6767	492.6676	527.004	553.6945	592.7935	699.4326	718.2193	798.9391	860.194	916.6278	935.7049	954.5935	976.5361	1019.8799	1070.8456	1104.3006	1125.3251	1132.407	1213.9604	1260.3967	1267.6374	1294.323	1345.2172	1472.3797	1501.8253	2346.705	3067.4654	3131.7376	3164.4297	3219.7699	3777.9924
OC12C3CC1OC23C#N	O[C@@]12[C@H]3C[C@@H]1O[C@@]23C#N	
InChI=1S/C6H5NO2/c7-2-5-3-1-4(9-5)6(3,5)8/h3-4,8H,1H2	InChI=1S/C6H5NO2/c7-2-5-3-1-4(9-5)6(3,5)8/h3-4,8H,1H2/t3-,4-,5+,6-/m0/s1
