20
gdb 99100	3.7333	0.86578	0.8428	4.1462	76.24	-0.2538	0.0199	0.2737	1466.8612	0.169162	-440.304188	-440.294246	-440.293301	-440.339721	36.354	
C	 0.0489144272	 1.503129506	-0.3338941696	-0.448813
C	-0.0193942825	 0.0278285452	 0.0068990833	 0.360565
C	 1.2199388284	-0.8272843902	-0.0811497352	-0.322783
C	 0.6358915669	-0.4752611036	 1.2661454162	-0.263464
N	-1.2477163992	-0.6265147815	-0.3809544786	-0.368999
C	-2.4275619727	-0.4358526385	 0.2610836575	 0.38626
O	-2.5530068002	 0.2285099713	 1.2792953927	-0.391455
C	-3.6556572153	-1.1260454749	-0.3474370936	-0.145848
O	-4.7814017133	-0.8544875232	 0.4312190424	-0.419803
H	 1.0050032812	 1.9301493631	-0.0175281399	 0.117179
H	-0.0531396592	 1.6637886517	-1.4130899422	 0.110884
H	-0.7536633311	 2.0437475926	 0.175618187	 0.149066
H	 1.1085746658	-1.8499434853	-0.4256301138	 0.112815
H	 2.1397940742	-0.3456391074	-0.3937665393	 0.119205
H	 1.1539064745	 0.2497097803	 1.8833834935	 0.121551
H	 0.1252401648	-1.2547416858	 1.8173823142	 0.127379
H	-1.2657254075	-1.1032660037	-1.2701802524	 0.248855
H	-3.7903743653	-0.7677004185	-1.3815461062	 0.105338
H	-3.4630978901	-2.2095537729	-0.4076813204	 0.108078
H	-4.4431603966	-0.2905792647	 1.1489865046	 0.29399
50.3871	71.7266	91.7351	132.3305	236.9485	272.4489	308.1496	345.8525	392.198	426.2787	447.0208	460.0629	476.0798	614.5908	714.5252	743.6883	775.0608	875.6025	902.6379	941.911	970.8823	1011.6351	1037.8597	1044.178	1072.1602	1082.1	1131.1432	1138.6412	1186.9974	1245.2715	1248.8305	1306.1963	1317.1604	1343.5105	1413.903	1458.4589	1463.7354	1484.8275	1497.8275	1507.7909	1509.3512	1538.3357	1768.4685	2967.9759	2987.1363	3033.3778	3101.381	3120.3461	3133.4992	3149.0963	3217.388	3239.8397	3607.3779	3637.6795
CC1(CC1)NC(=O)CO	CC1(CC1)NC(=O)CO	
InChI=1S/C6H11NO2/c1-6(2-3-6)7-5(9)4-8/h8H,2-4H2,1H3,(H,7,9)	InChI=1S/C6H11NO2/c1-6(2-3-6)7-5(9)4-8/h8H,2-4H2,1H3,(H,7,9)
