19
gdb 41194	2.93471	1.78957	1.62367	1.5924	75.74	-0.2355	0.0676	0.3031	920.03	0.161265	-422.925043	-422.918306	-422.917362	-422.955626	28.73	
C	-0.033399886	 1.6173182501	-0.1815412825	-0.298484
C	 1.534327709	 1.4642605057	 0.0675916263	-0.302659
C	 1.1630143338	 0.195618728	 0.88315256	 0.419457
C	 1.2267593881	-1.3532713224	 1.0076172015	-0.328384
C	-0.3755615615	-1.2216775209	 0.972798352	 0.050966
O	-0.8510617786	-0.9485839885	 2.2659311102	-0.2533
C	-0.4403217533	 0.3406274536	 2.6734174512	 0.022793
O	 0.8513035526	 0.6696185753	 2.223132702	-0.313193
C	-0.0826323728	 0.0567241156	 0.0611519516	-0.038965
H	-0.4994406035	 2.2273991903	 0.5907895545	 0.125228
H	-0.3542334707	 1.9666791714	-1.1648013844	 0.104209
H	 2.063024411	 1.2350542233	-0.8609616018	 0.106883
H	 2.043677363	 2.2659098563	 0.6059309861	 0.110916
H	 1.622939284	-1.8624627057	 0.1267680731	 0.103828
H	 1.6413276677	-1.7702291812	 1.9274807142	 0.107738
H	-0.9674922076	-2.0453740897	 0.5694045463	 0.0878
H	-1.1742814361	 1.0747884771	 2.3036879753	 0.086226
H	-0.425791282	 0.3554117501	 3.7666209121	 0.117101
H	 0.2087633428	-0.3845957183	-0.8967450877	 0.091839
230.6788	260.1523	278.6517	348.7268	402.7805	446.2473	525.4982	584.2199	662.465	667.4662	750.964	775.2883	814.7336	834.1561	869.833	913.372	932.956	965.8621	1012.6836	1025.6625	1037.5019	1071.6466	1090.9125	1133.9995	1153.7691	1165.4361	1173.0972	1194.277	1211.0328	1226.5266	1227.386	1248.2914	1257.5884	1280.7027	1358.4209	1395.794	1450.4555	1468.6452	1470.7349	1486.1658	1533.3123	2965.0878	3051.2626	3067.0738	3070.2498	3083.9223	3087.3545	3096.1974	3130.3333	3141.5154	3156.1959
C1CC23CC(OCO2)C13	C1C[C@@]23C[C@@H](OCO2)[C@@H]13	
InChI=1S/C7H10O2/c1-2-7-3-6(5(1)7)8-4-9-7/h5-6H,1-4H2	InChI=1S/C7H10O2/c1-2-7-3-6(5(1)7)8-4-9-7/h5-6H,1-4H2/t5-,6-,7+/m1/s1
