18
gdb 42076	2.64157	1.66307	1.1333	2.902	79.42	-0.2341	0.006	0.2401	1081.614	0.149046	-401.908428	-401.900394	-401.89945	-401.940716	30.801	
C	-0.0852337914	 1.4167045381	-0.0592085769	-0.200595
C	 1.1792502134	 2.2877733408	 0.0265475832	-0.073232
O	 2.0660263212	 1.9277176258	 1.0884887093	-0.197896
C	 1.7533884084	 2.3175333878	 2.3501879592	 0.13579
N	 1.8390519387	 1.6108988891	 3.3929406932	-0.249115
C	 2.1076068713	 0.1606877305	 3.3028433024	-0.277991
C	 1.3845075258	-0.451415859	 2.1854475302	 0.058775
C	 0.7783864829	-0.524445662	 1.1470629508	 0.059002
C	 0.1529857398	-0.1179264332	-0.1079841787	-0.329629
H	-0.7333011498	 1.6360659505	 0.7966412323	 0.121628
H	-0.6288370227	 1.7290001713	-0.9600635426	 0.102905
H	 1.7780071589	 2.186170885	-0.883480145	 0.119677
H	 0.8868764684	 3.3445153992	 0.1251839986	 0.103926
H	 1.4511714111	 3.3675758291	 2.4337972876	 0.104676
H	 3.1884283668	-0.0079641994	 3.2003469979	 0.139445
H	 1.8201350334	-0.2746030618	 4.2649917243	 0.132571
H	-0.8064644737	-0.6202358224	-0.2789276329	 0.124498
H	 0.7920885474	-0.3744189092	-0.9632398731	 0.125564
115.4238	165.945	217.2571	240.0399	301.3774	340.7007	349.7441	422.5305	449.3039	545.5345	559.2437	695.6486	789.7698	825.4221	875.2962	896.5628	910.6317	956.5435	998.8375	1006.8748	1053.7961	1102.7689	1140.0348	1146.9898	1227.3544	1235.8929	1241.0993	1312.9992	1339.1608	1351.6273	1377.2342	1397.3943	1417.2077	1472.5258	1475.516	1476.7799	1492.1416	1737.938	2346.0052	2993.4562	3018.5572	3019.7643	3030.857	3053.7338	3064.9209	3068.9987	3072.2936	3093.7166
C1COC=NCC#CC1	C1COC=NCC#CC1	
InChI=1S/C7H9NO/c1-2-4-6-9-7-8-5-3-1/h7H,2,4-6H2/b8-7-	InChI=1S/C7H9NO/c1-2-4-6-9-7-8-5-3-1/h7H,2,4-6H2/b8-7-
