21
gdb 113837	3.84521	0.85354	0.76047	2.1166	80.6	-0.2371	0.0823	0.3194	1548.4219	0.180724	-424.174705	-424.164951	-424.164007	-424.210083	35.935	
C	 0.4299997112	 1.0283196111	 0.4546508004	-0.229508
O	-0.3157085354	 0.1003390441	-0.3060792198	-0.234023
C	 0.4304941792	-0.4973870785	-1.3175882923	 0.115937
C	 1.3043429378	-1.6832961199	-0.979435942	-0.346726
C	 0.0070029894	-1.8661925468	-1.7567165707	-0.061646
C	-1.1661421735	-2.5404876146	-1.1201921425	-0.033686
C	-2.4198176737	-2.8107338414	-1.9316382765	-0.313741
C	-1.5353022068	-3.9497580791	-1.5263909673	 0.091809
O	-0.8314757604	-4.5749228594	-2.5637113484	-0.419739
H	 1.2869611928	 0.5514061201	 0.951926612	 0.107807
H	 0.8083011475	 1.852015277	-0.1698391489	 0.10569
H	-0.2422531758	 1.4393826758	 1.2115040298	 0.126116
H	 0.7892274731	 0.2005910107	-2.0765613505	 0.081453
H	 2.2531962865	-1.8088076632	-1.4901244916	 0.107687
H	 1.2988403405	-2.0010409686	 0.058523374	 0.114533
H	 0.116446985	-2.0726314504	-2.8163982062	 0.096792
H	-1.31746866	-2.2834138831	-0.0771954353	 0.091542
H	-3.388301284	-2.7005116154	-1.4572814241	 0.111072
H	-2.393992752	-2.5438025361	-2.9828580673	 0.120682
H	-1.8947564072	-4.625057696	-0.7496115693	 0.080489
H	 0.0378493159	-4.8145727165	-2.2247302437	 0.287458
38.1892	96.1631	117.126	167.4456	193.9125	214.1218	307.2259	325.6992	355.7416	434.1215	479.2633	523.3833	638.5571	763.1746	794.0241	806.452	838.0778	867.0766	948.0833	974.0571	1007.4499	1019.1606	1036.4748	1051.1747	1066.6364	1098.6041	1128.9929	1133.9876	1170.5183	1177.2521	1185.3242	1199.5587	1228.105	1241.8853	1260.2501	1302.5181	1303.8169	1390.6651	1417.8577	1442.8446	1472.7664	1484.6957	1486.4539	1497.0177	1509.739	2981.9046	3032.4297	3079.0095	3092.9459	3116.9918	3125.6046	3135.6888	3159.6035	3169.8588	3215.203	3224.7909	3799.2079
COC1CC1C1CC1O	CO[C@H]1C[C@H]1[C@H]1C[C@H]1O	
InChI=1S/C7H12O2/c1-9-7-3-5(7)4-2-6(4)8/h4-8H,2-3H2,1H3	InChI=1S/C7H12O2/c1-9-7-3-5(7)4-2-6(4)8/h4-8H,2-3H2,1H3/t4-,5+,6-,7+/m1/s1
