17
gdb 31324	2.73558	1.27662	0.87724	3.684	84.08	-0.1933	-0.0291	0.1642	1280.7061	0.137149	-418.057273	-418.048584	-418.04764	-418.090801	31.799	
C	-0.0149064193	 1.4859796086	 0.0870866395	-0.325589
N	-0.0119341217	 0.0584009356	-0.1657130545	-0.391595
C	-1.1794143358	-0.6663437703	-0.0625841563	 0.262093
C	-1.2907497511	-2.0689341776	-0.0038845675	 0.14045
N	-2.6466335066	-2.3616367491	 0.045807103	-0.285291
C	-3.3665327173	-1.2229670017	 0.0205186901	-0.048753
C	-2.4987337714	-0.1433862782	-0.0436738187	-0.246546
C	-0.332564545	-3.1282174152	 0.0066253454	 0.057644
O	-0.6228776579	-4.3162693449	 0.0631730941	-0.344941
H	 1.002274588	 1.8675205475	-0.0250171527	 0.128108
H	-0.6435918912	 1.9984392955	-0.6488186111	 0.13707
H	-0.3801897935	 1.7520832608	 1.0911627743	 0.118238
H	 0.818530642	-0.4224336747	 0.1401881367	 0.243889
H	-2.9765505214	-3.3113883782	 0.0927534991	 0.277508
H	-4.4449921204	-1.2374721731	 0.0537392873	 0.131607
H	-2.7872035764	 0.8945677202	-0.071465932	 0.101065
H	 0.7311118191	-2.8047730253	-0.0431749568	 0.045042
83.2481	148.2461	163.4394	173.26	234.6799	245.0104	352.3815	371.3134	466.7408	518.8787	577.4673	647.851	693.5887	709.6508	752.4519	815.1757	833.1744	916.5893	1012.1218	1045.9589	1102.8096	1113.362	1149.7607	1156.841	1217.9477	1291.1946	1346.4493	1386.0522	1453.0142	1461.949	1482.9919	1488.0562	1502.5228	1522.697	1550.1624	1617.8724	1731.4969	2868.3906	2983.3227	3066.5634	3123.0575	3252.9646	3272.4787	3628.2585	3670.2114
CNC1=C(NC=C1)C=O	CNc1c([nH]cc1)C=O	
InChI=1S/C6H8N2O/c1-7-5-2-3-8-6(5)4-9/h2-4,7-8H,1H3	InChI=1S/C6H8N2O/c1-7-5-2-3-8-6(5)4-9/h2-4,7-8H,1H3
