18
gdb 6757	6.36195	0.6473	0.6093	0.8631	73.85	-0.2516	0.0407	0.2923	1807.4217	0.150994	-384.905817	-384.895623	-384.894678	-384.942643	34.701	
C	 0.0071757728	 1.5394084077	-0.0750505738	-0.382264
C	 0.0035872517	 0.0130084932	 0.0938151908	-0.017317
O	 0.7205521126	-0.3843582528	 1.2622809055	-0.415095
C	-1.360061237	-0.5271974846	 0.0811566397	 0.102913
C	-2.4909219275	-0.9429423535	 0.1123131276	-0.009391
C	-3.8426563652	-1.4862024509	 0.1333811901	-0.325095
C	-3.8696876813	-3.0095857232	-0.0348196512	-0.062851
O	-5.2305074021	-3.4033717741	 0.0040593721	-0.415304
H	 1.0370565703	 1.9053928184	-0.0540730651	 0.123733
H	-0.4574096796	 1.8280992615	-1.0224081019	 0.123794
H	-0.5529240566	 2.014819195	 0.7366935142	 0.115797
H	 0.5701846392	-0.4311523389	-0.7338570377	 0.115031
H	 0.1743274315	-0.1564092069	 2.0227680765	 0.280896
H	-4.3437225471	-1.2328704488	 1.0757059683	 0.136972
H	-4.4461565924	-1.0383465763	-0.6656218853	 0.138986
H	-3.3927337656	-3.2796956113	-0.9886252139	 0.09939
H	-3.2855468958	-3.4763282487	 0.772120987	 0.100035
H	-5.2722295778	-4.3578354058	-0.1033074031	 0.289771
17.7134	72.0834	80.6324	146.0793	174.3755	237.19	250.7884	272.5119	324.5988	359.0406	409.0666	462.1028	546.4055	583.5189	745.1887	792.933	898.5212	995.7765	1018.8581	1068.3737	1080.8862	1086.9616	1096.1571	1176.1663	1221.3751	1237.9385	1281.3481	1304.056	1330.7981	1340.0229	1398.0538	1417.8519	1454.4574	1476.0326	1487.413	1491.3734	1527.898	2360.4803	2985.1504	3016.0599	3030.7808	3034.7102	3039.3102	3067.8187	3113.906	3126.1545	3804.8312	3835.1304
CC(O)C#CCCO	C[C@@H](O)C#CCCO	
InChI=1S/C6H10O2/c1-6(8)4-2-3-5-7/h6-8H,3,5H2,1H3	InChI=1S/C6H10O2/c1-6(8)4-2-3-5-7/h6-8H,3,5H2,1H3/t6-/m1/s1
