16
gdb 68663	2.45446	1.91941	1.51658	2.6046	68.87	-0.2303	-0.0329	0.1975	922.6928	0.124614	-437.890481	-437.88303	-437.882086	-437.922115	28.777	
C	 0.0235201684	 1.5598332968	 0.0673114642	-0.472199
C	 0.0035692472	 0.057538918	-0.0390134417	 0.187765
C	 0.7029858008	-0.7213331077	-1.2075709247	-0.294508
C	-0.3252253276	-1.8612523568	-0.9586139535	-0.016739
O	 0.0985255973	-2.6516121251	 0.1780471943	-0.235109
C	 0.4604320347	-1.8571411062	 1.2149166804	 0.11985
N	 0.4385397374	-0.5903149309	 1.2342720065	-0.287365
C	-1.2511294973	-0.716089854	-0.4687844509	 0.409279
O	-2.4168439683	-0.4733114889	-0.571450606	-0.312354
H	 1.0303828486	 1.9126636903	 0.3096551365	 0.129216
H	-0.2994259367	 2.0214883595	-0.8701673331	 0.11954
H	-0.6492045116	 1.886601678	 0.8652032168	 0.141855
H	 0.549568595	-0.2500490318	-2.1808308466	 0.126293
H	 1.7537196991	-0.9735992185	-1.0542887406	 0.126087
H	-0.63168931	-2.5510278229	-1.7416178673	 0.113762
H	 0.792590513	-2.4427004099	 2.0681157056	 0.144628
136.3736	187.7704	213.2059	252.2344	317.2366	393.2536	423.6481	486.7263	570.6287	638.3988	683.2857	784.0164	824.194	840.8417	864.0736	891.3151	939.9686	960.6977	993.5948	1031.511	1079.6314	1121.7874	1149.0018	1182.3854	1208.9731	1220.5998	1324.0747	1326.4511	1373.7807	1414.027	1469.4378	1479.548	1488.5031	1699.0969	1895.5272	3043.6885	3072.63	3117.6934	3122.4068	3140.6973	3152.8973	3183.5224
CC12CC(OC=N1)C2=O	C[C@@]12C[C@@H](OC=N1)C2=O	
InChI=1S/C6H7NO2/c1-6-2-4(5(6)8)9-3-7-6/h3-4H,2H2,1H3	InChI=1S/C6H7NO2/c1-6-2-4(5(6)8)9-3-7-6/h3-4H,2H2,1H3/t4-,6+/m1/s1
