20
gdb 121771	2.78735	0.75363	0.61718	3.7635	86.08	-0.2835	0.0148	0.2983	1819.5128	0.168416	-365.99919	-365.988565	-365.987621	-366.035832	37.419	
C	-0.0657146892	 1.5784672409	-0.0371089904	-0.38231
C	-0.0180349233	 0.0486486257	-0.0043853238	-0.172995
C	 0.7389124415	-0.4985049391	 1.2113586393	-0.18073
C	 0.7795691074	-2.0279456741	 1.240881138	-0.189326
C	 1.538145854	-2.6018363883	 2.4725594707	-0.333186
C	 1.446947084	-4.0610586028	 2.5379994977	 0.316138
C	 1.3410886437	-5.2560459429	 2.5721529565	-0.412003
C	 2.9461704299	-2.1678833735	 2.4749039318	 0.300215
N	 4.0426515274	-1.8046500877	 2.4651449039	-0.328889
H	 0.9428299119	 2.0046598955	-0.0689318212	 0.121109
H	-0.6087064003	 1.9402651776	-0.9154585425	 0.11532
H	-0.5656335634	 1.9786219013	 0.8519266362	 0.115584
H	-1.0403203834	-0.3520642643	-0.0068173189	 0.097285
H	 0.45648391	-0.323989671	-0.921443942	 0.102282
H	 1.7625880446	-0.1037417203	 1.2118831697	 0.125093
H	 0.2659166656	-0.128240022	 2.13184278	 0.096471
H	-0.235411387	-2.4376372304	 1.2745907473	 0.118902
H	 1.2509586945	-2.4191415558	 0.3332613975	 0.127285
H	 1.0785054882	-2.1811092897	 3.3783006783	 0.155525
H	 1.2580181039	-6.3143408292	 2.6101097817	 0.208229
52.4511	73.0874	95.1932	127.8379	136.3524	207.4369	217.171	249.6369	338.0559	363.6935	383.5746	500.1707	577.7956	590.7283	646.1958	665.6077	737.6194	778.38	843.833	903.8465	951.7552	1004.0073	1024.8924	1042.7207	1067.3667	1120.0167	1141.8292	1230.7854	1262.2619	1298.4639	1314.2212	1333.9882	1339.0739	1368.4151	1401.756	1414.0948	1483.9941	1487.0633	1499.5351	1499.7607	1512.9963	2248.6355	2362.8717	3008.9367	3012.138	3017.7443	3031.8288	3040.7081	3049.2899	3061.5886	3096.17	3100.0826	3105.7804	3502.8423
CCCCC(C#C)C#N	CCCC[C@@H](C#C)C#N	
InChI=1S/C8H11N/c1-3-5-6-8(4-2)7-9/h2,8H,3,5-6H2,1H3	InChI=1S/C8H11N/c1-3-5-6-8(4-2)7-9/h2,8H,3,5-6H2,1H3/t8-/m1/s1
