24
gdb 63459	2.6657	1.24276	1.08289	1.0842	90.81	-0.2221	0.0829	0.305	1287.0591	0.21506	-368.373655	-368.363328	-368.362384	-368.408486	39.509	
C	 2.0174081372	 0.8771878447	-0.5712466548	-0.453019
C	 1.1570366718	-0.3291989669	-0.233556837	 0.300376
C	 0.1839873105	-0.6778347244	-1.34649941	-0.445896
C	 1.7815097017	-1.4697836231	 0.5453341707	-0.368913
C	 0.7465764331	-0.5910674204	 1.2163098269	 0.325949
C	 1.1886001197	 0.3648899709	 2.3135179068	-0.48386
N	-0.5409155275	-1.2452153017	 1.3616364153	-0.097513
C	-0.9414448379	-1.8480978303	 2.6229687592	-0.233338
C	-1.6306912005	-0.6303818092	 2.1029600952	-0.229458
H	 2.78658561	 1.0807221197	 0.1768541376	 0.109161
H	 2.5300964296	 0.7136285472	-1.5265479898	 0.114456
H	 1.4074714052	 1.7822018876	-0.6807071379	 0.111856
H	 0.7317749383	-0.936586688	-2.2605677123	 0.103533
H	-0.456014399	-1.5151498328	-1.0696344211	 0.132269
H	-0.4622850443	 0.1766805412	-1.5826557329	 0.103925
H	 1.4758286061	-2.4799158237	 0.2946784052	 0.110081
H	 2.8149126062	-1.3765155713	 0.8654118781	 0.098602
H	 2.2361210679	 0.6463179095	 2.1974617758	 0.121053
H	 0.5997065621	 1.288803973	 2.3167753604	 0.119152
H	 1.0972350179	-0.0953161584	 3.3036369369	 0.116919
H	-1.4082000499	-2.8268338338	 2.5461107861	 0.112688
H	-0.3085537925	-1.7202768197	 3.4987697428	 0.109623
H	-1.4506958188	 0.2989057535	 2.6385250322	 0.109428
H	-2.612683777	-0.7005882036	 1.6419921468	 0.112925
52.1816	135.888	159.2139	172.9346	191.1109	219.1277	286.4977	321.02	339.9632	370.9408	394.8511	434.0351	458.0997	540.7622	631.2531	710.726	796.9439	827.26	899.0077	908.4997	917.4238	943.4659	970.4723	979.6803	1018.3225	1034.0329	1041.9968	1060.5626	1108.2017	1113.1287	1118.653	1154.3321	1163.3858	1170.6862	1199.0295	1218.1294	1291.9046	1346.1709	1379.9739	1403.8038	1408.9004	1423.373	1478.0926	1481.0166	1487.3669	1488.357	1493.0916	1504.6344	1510.2743	1515.6333	1524.8145	3019.6931	3024.8025	3033.5559	3071.6847	3077.105	3085.5658	3098.095	3102.8399	3111.6884	3122.1637	3134.6327	3148.9441	3172.2124	3187.1688	3211.2092
CC1(C)CC1(C)N1CC1	CC1(C)C[C@]1(C)N1CC1	
InChI=1S/C8H15N/c1-7(2)6-8(7,3)9-4-5-9/h4-6H2,1-3H3	InChI=1S/C8H15N/c1-7(2)6-8(7,3)9-4-5-9/h4-6H2,1-3H3/t8-/m0/s1
