23
gdb 101607	3.18796	0.81709	0.77817	1.1561	78.28	-0.2567	0.0527	0.3094	1591.8973	0.20295	-462.566593	-462.555645	-462.5547	-462.602211	41.349	
C	-0.0513192157	 1.5420699873	-0.0427115952	-0.395098
C	-0.0103094827	 0.0129097283	 0.0146660944	 0.352531
C	 0.6215705022	-0.4506203083	 1.3378023673	-0.417
O	-1.3767886875	-0.4033031879	-0.0416615422	-0.476651
C	 0.7644561466	-0.5250186722	-1.2155070949	-0.240272
C	 0.8516548924	-2.0461614283	-1.3458142434	 0.069638
O	-0.449087088	-2.6733647995	-1.3861637921	-0.444349
C	 1.6399007995	-2.4979918579	-2.5773671493	-0.05924
O	 1.663627557	-3.9042369201	-2.6788530331	-0.423534
H	 0.9541946439	 1.9680627588	 0.0243081537	 0.108054
H	-0.5120447209	 1.8766136417	-0.976808765	 0.115475
H	-0.649718231	 1.9283796084	 0.7870576724	 0.122396
H	 0.069251743	-0.0199842155	 2.1774516031	 0.123253
H	 0.5834827552	-1.5397031291	 1.4410042123	 0.115569
H	 1.6688645645	-0.1393253181	 1.4167299398	 0.108456
H	-1.3705182845	-1.3678674192	-0.0972389154	 0.27936
H	 0.2851375584	-0.1192996484	-2.1175861115	 0.093314
H	 1.7868444024	-0.1265496061	-1.1996496219	 0.103723
H	 1.3279540917	-2.4867620715	-0.4638373733	 0.10526
H	-0.9636123116	-2.2201225551	-2.0668275688	 0.288656
H	 1.1976065923	-2.0328144959	-3.4779859999	 0.074582
H	 2.6778964963	-2.1546194671	-2.5095298835	 0.110158
H	 0.7673405863	-4.1938913245	-2.4650062534	 0.285719
66.2494	91.6335	148.2001	166.9146	218.6587	251.3424	270.4176	291.1038	306.2271	333.37	358.7721	394.5188	449.6209	470.422	482.4293	517.1915	598.1949	663.1493	767.2534	845.8225	874.5213	922.9844	932.7238	966.2293	1001.6194	1029.627	1069.4499	1091.3375	1102.4124	1129.4425	1172.2078	1209.5471	1242.4236	1267.8784	1280.0274	1332.6248	1364.6447	1385.816	1394.1882	1415.4211	1423.1056	1431.8996	1440.8483	1464.3674	1478.1575	1489.8089	1499.1394	1505.7928	1510.2271	2934.3005	3009.7486	3032.6532	3042.0842	3053.5407	3064.3876	3078.6911	3101.4234	3114.3279	3116.0319	3121.1262	3753.7219	3768.9073	3773.761
CC(C)(O)CC(O)CO	CC(C)(O)C[C@@H](O)CO	
InChI=1S/C6H14O3/c1-6(2,9)3-5(8)4-7/h5,7-9H,3-4H2,1-2H3	InChI=1S/C6H14O3/c1-6(2,9)3-5(8)4-7/h5,7-9H,3-4H2,1-2H3/t5-/m1/s1
