16
gdb 21197	3.54714	1.92721	1.27074	3.8436	67.26	-0.212	0.0329	0.2449	941.6989	0.132488	-376.125575	-376.117465	-376.116521	-376.158526	28.057	
C	 0.0119383213	 1.4426558888	 0.0109150431	-0.317057
N	 0.1129269399	-0.0111537793	-0.0503834109	-0.402333
C	 0.6808455354	-0.6546509902	 1.0245327028	 0.475545
N	 1.3090418646	-0.078896425	 2.0388482771	-0.353043
C	 1.7250346125	-1.1533458579	 2.7684409188	 0.026872
N	 1.3987435898	-2.3362612121	 2.2910547574	-0.265934
N	 0.7234434412	-2.0038508813	 1.1425669096	-0.0359
C	 0.1882050688	-3.0160362575	 0.2647524056	-0.343175
H	 1.0047407885	 1.8601741204	 0.1855956709	 0.160344
H	-0.3629823216	 1.8063628019	-0.9484900235	 0.120656
H	-0.6465240451	 1.7954332953	 0.8156267321	 0.127002
H	-0.7059735899	-0.4678216338	-0.4243358332	 0.243609
H	 2.2862739199	-1.0518628955	 3.6858120092	 0.118673
H	-0.8876724365	-3.1661090855	 0.4180142255	 0.134552
H	 0.3663315106	-2.735505628	-0.7779921238	 0.142433
H	 0.7055471407	-3.9512273801	 0.4781746594	 0.167756
72.2039	113.8233	149.4912	181.6577	199.9827	298.6947	316.7288	476.7022	563.9511	662.174	669.7791	750.9323	811.519	901.7732	984.2834	1011.2892	1086.0405	1142.5816	1150.1108	1161.0382	1213.8477	1245.6914	1296.4389	1314.0725	1418.0225	1451.7429	1455.9632	1476.1723	1485.0536	1492.1884	1507.3771	1516.3115	1572.6234	1617.716	3017.3883	3023.5822	3089.4585	3100.9591	3145.5444	3157.4604	3253.6985	3599.615
CNC1=NC=NN1C	CNc1ncnn1C	
InChI=1S/C4H8N4/c1-5-4-6-3-7-8(4)2/h3H,1-2H3,(H,5,6,7)	InChI=1S/C4H8N4/c1-5-4-6-3-7-8(4)2/h3H,1-2H3,(H,5,6,7)
