18
gdb 18082	3.81725	1.6449	1.41437	1.3962	67.86	-0.2268	0.0697	0.2965	946.6994	0.153052	-384.878059	-384.870131	-384.869187	-384.911695	28.888	
C	 0.7738455522	 1.1470772587	-0.4573640226	-0.377695
C	 0.0214107318	-0.1262490206	-0.0939555926	-0.053922
O	-0.2406238607	-0.9075448047	-1.2646427598	-0.252795
C	 0.4266013343	-2.1189929556	-1.3302692512	 0.107222
C	 0.9014601962	-2.6355401878	-2.6572153431	-0.195903
C	 1.5277082593	-1.4807543867	-3.4358085708	-0.08131
O	 2.411848976	-1.1464012418	-2.3296471153	-0.277426
C	 1.906289095	-2.2427188678	-1.57406101	 0.043386
H	 1.7244158371	 0.8980300283	-0.9346681098	 0.14739
H	 0.1847736338	 1.7495573136	-1.1556820863	 0.119403
H	 0.9641168884	 1.7491481445	 0.4377735402	 0.104502
H	 0.5927371173	-0.7188575829	 0.6315588375	 0.094445
H	-0.9478374332	 0.1109394328	 0.3626120117	 0.10042
H	 0.0349861958	-2.9038557526	-0.6776171987	 0.086534
H	 0.615798002	-3.5943572275	-3.0685187512	 0.101733
H	 2.1146018854	-1.804553015	-4.3011281084	 0.109322
H	 0.8688151734	-0.6500804473	-3.7043168836	 0.121081
H	 2.608309056	-2.8045056777	-0.9668569861	 0.103613
20.3565	94.3933	186.9638	218.1759	253.1229	351.8768	400.6475	515.441	664.1664	726.2055	795.7562	807.2476	822.0482	883.7095	931.8868	967.0408	975.9326	1018.8376	1044.5336	1054.	1070.2169	1091.9275	1120.8814	1131.6198	1170.0265	1183.9112	1237.4499	1262.9884	1314.6122	1326.4129	1352.1543	1394.8518	1409.4831	1443.1328	1484.405	1496.7647	1504.3326	1518.3258	3013.942	3038.3699	3044.2444	3054.1509	3071.0797	3101.4191	3107.4133	3135.9333	3167.6595	3201.8886
CCOC1C2COC12	CCO[C@H]1[C@H]2CO[C@@H]12	
InChI=1S/C6H10O2/c1-2-7-5-4-3-8-6(4)5/h4-6H,2-3H2,1H3	InChI=1S/C6H10O2/c1-2-7-5-4-3-8-6(4)5/h4-6H,2-3H2,1H3/t4-,5+,6-/m1/s1
