18
gdb 55106	4.00513	1.0417	0.95258	2.8922	72.47	-0.2303	0.0301	0.2603	1264.0504	0.146965	-439.087787	-439.079058	-439.078114	-439.122056	32.751	
N	 0.4141524927	 0.3636816541	 0.5744967609	-0.515631
C	-0.6602853893	 0.9273353112	-0.028518143	 0.36061
O	-0.8537594025	 2.1223463157	-0.1477339362	-0.373511
C	-1.6574331996	-0.0817489035	-0.5889131084	 0.037484
C	-1.6622334116	-0.2353089475	-2.1285915641	-0.368807
C	-1.263882923	-1.6761998599	-1.8318766545	 0.460827
C	-1.7404506135	-2.9543299516	-2.4312566686	-0.329904
C	-0.2657517319	-2.5678981474	-2.488189781	-0.33149
O	-1.2697226687	-1.4691180912	-0.4099693525	-0.327687
H	 1.1128969711	 0.9534709646	 0.9936238951	 0.261651
H	 0.4743915495	-0.6391923151	 0.6359724048	 0.271481
H	-2.6362981685	 0.1223373792	-0.1435991058	 0.11341
H	-2.6360039627	-0.1043788687	-2.602159004	 0.121727
H	-0.917746588	 0.3691083952	-2.6490334275	 0.12979
H	-2.0196430877	-3.7468188093	-1.7452888297	 0.127764
H	-2.3264726517	-2.9132991438	-3.3438306864	 0.119249
H	 0.1584581962	-2.2604104372	-3.4386331923	 0.120511
H	 0.4144658791	-3.1122765348	-1.8415908668	 0.122526
40.94	57.4349	175.1244	267.8045	284.2542	307.8616	313.9104	435.4223	445.7958	520.8686	594.3736	645.9699	727.7932	754.469	786.4655	843.8828	884.0838	892.9782	917.8762	978.7165	1004.7166	1038.7093	1049.1402	1069.7303	1071.4852	1093.4345	1150.3066	1185.612	1208.6995	1243.8999	1280.9581	1326.6971	1369.9122	1393.2556	1447.4008	1490.8774	1505.5694	1589.3563	1803.6709	3061.987	3083.4816	3127.3627	3130.1954	3138.2018	3210.5516	3224.8479	3595.6205	3738.368
NC(=O)C1CC2(CC2)O1	NC(=O)[C@H]1CC2(CC2)O1	
InChI=1S/C6H9NO2/c7-5(8)4-3-6(9-4)1-2-6/h4H,1-3H2,(H2,7,8)	InChI=1S/C6H9NO2/c7-5(8)4-3-6(9-4)1-2-6/h4H,1-3H2,(H2,7,8)/t4-/m1/s1
