17
gdb 82830	2.40035	2.01428	1.5388	1.0352	66.36	-0.2412	0.061	0.3022	904.9514	0.13609	-458.908209	-458.900893	-458.899948	-458.939554	29.595	
O	 0.1766519212	 1.3786672465	-0.0880805509	-0.445361
C	 0.0005337268	-0.0063927002	-0.005474807	 0.078399
C	 0.2480308424	-0.668619766	 1.3689448392	 0.043124
O	-0.397851726	 0.1361449861	 2.3864277917	-0.319789
C	-1.6780283143	-0.5025661248	 2.1225553067	 0.103403
C	-2.4035524764	 0.143566652	 0.9216962755	-0.320373
C	-1.4391433603	-0.6201761581	-0.0227680686	 0.354844
O	-1.9236419066	-1.1518239763	-1.2156160201	-0.486234
C	-1.0145513869	-1.5477380983	 1.1787638356	-0.146923
H	-0.0231256607	 1.7169712974	 0.796163736	 0.289903
H	 0.5909071373	-0.4902746826	-0.7920048937	 0.092165
H	 1.2503066431	-0.9824372967	 1.6635831654	 0.082972
H	-2.2247191525	-0.70650877	 3.0437597053	 0.088207
H	-3.4120246298	-0.269742852	 0.8194083875	 0.112718
H	-2.438703346	 1.2357482844	 0.8718259156	 0.100913
H	-2.001573159	-0.4338384262	-1.8547604416	 0.284879
H	-1.0888011123	-2.6290013253	 1.2270005434	 0.087153
155.017	195.9215	249.8433	281.0234	341.9029	423.5649	464.2207	507.0279	597.7846	622.1912	684.6312	757.471	821.0928	842.0814	864.7108	872.0513	908.9493	963.0341	979.8093	1011.3374	1025.336	1079.8232	1113.2413	1131.5181	1137.5859	1165.1793	1198.1561	1222.9179	1237.0862	1247.011	1272.8299	1288.9888	1320.6724	1343.5095	1380.4851	1427.6766	1469.0633	3048.0426	3056.1972	3101.8271	3105.3717	3109.6376	3176.8725	3742.1917	3791.8573
OC1C2OC3CC1(O)C23	O[C@H]1[C@H]2O[C@H]3C[C@]1(O)[C@@H]23	
InChI=1S/C6H8O3/c7-5-4-3-2(9-4)1-6(3,5)8/h2-5,7-8H,1H2	InChI=1S/C6H8O3/c7-5-4-3-2(9-4)1-6(3,5)8/h2-5,7-8H,1H2/t2-,3+,4-,5-,6-/m0/s1
