23
gdb 84495	2.88231	1.33528	1.09677	0.1799	91.84	-0.218	0.0261	0.2442	1229.3589	0.206148	-351.160488	-351.151523	-351.150579	-351.19355	36.008	
C	-0.1542543389	 1.5783689468	-0.0403032193	-0.409207
C	 0.071984419	 0.0633648608	 0.0011167298	-0.022668
C	 0.8835472986	-0.4880509379	-1.1556602928	-0.084557
C	 1.6682933662	-1.4941566839	-0.77246648	-0.145622
C	 1.5304045781	-1.7598383546	 0.6858534374	 0.365067
C	 1.1938995614	-3.1638135753	 1.1607246488	-0.318271
C	 2.5428959887	-2.5655827143	 1.4609499016	-0.326622
C	 0.828113648	-0.506766494	 1.2502357473	-0.102975
C	 1.8427284302	 0.4793021963	 1.8462268218	-0.386863
H	 0.7872172811	 2.1343422884	-0.0680627245	 0.119204
H	-0.7231862918	 1.8497750425	-0.9361747819	 0.109305
H	-0.7262196809	 1.9226228528	 0.8280005841	 0.1112
H	-0.9228233073	-0.408956998	-0.0325744	 0.079535
H	 0.7756553056	-0.121354855	-2.1709569781	 0.08582
H	 2.3062188484	-2.0896346611	-1.4173810231	 0.089151
H	 0.488059974	-3.2640132182	 1.9792018998	 0.110481
H	 1.1305008342	-3.9527202029	 0.4184075834	 0.10881
H	 3.4079671741	-2.9471001541	 0.9275206857	 0.108804
H	 2.751114924	-2.2761137169	 2.4856881986	 0.110042
H	 0.1111240574	-0.7803544325	 2.0322514251	 0.062917
H	 2.5874287692	 0.780144637	 1.1020393593	 0.119606
H	 1.3540296593	 1.3825629572	 2.2227900592	 0.109494
H	 2.3786631615	 0.022634267	 2.6833538277	 0.10735
72.7107	203.4896	221.4442	249.2595	256.006	275.3925	308.7114	333.625	395.4521	455.1603	540.4039	601.2875	696.1978	755.496	770.1004	786.1733	804.7514	880.8723	897.1793	932.2633	936.0835	960.0131	986.5119	997.85	1027.4648	1056.3373	1069.3127	1075.989	1088.3409	1112.7765	1142.29	1168.0738	1192.373	1244.2894	1283.524	1300.327	1312.8977	1352.4121	1357.1366	1399.6016	1405.9792	1413.9531	1466.957	1490.7242	1493.1152	1499.9374	1505.0428	1510.9878	1675.0635	2966.2818	3031.6134	3038.0518	3038.6425	3093.1758	3105.4447	3109.0651	3110.8372	3121.7656	3125.6015	3173.2921	3198.9736	3199.2592	3215.0904
CC1C=CC2(CC2)C1C	C[C@H]1C=CC2(CC2)[C@H]1C	
InChI=1S/C9H14/c1-7-3-4-9(5-6-9)8(7)2/h3-4,7-8H,5-6H2,1-2H3	InChI=1S/C9H14/c1-7-3-4-9(5-6-9)8(7)2/h3-4,7-8H,5-6H2,1-2H3/t7-,8-/m0/s1
