21
gdb 74003	2.67782	1.59744	1.06549	0.2294	90.97	-0.2154	0.0266	0.2421	1173.0479	0.184451	-349.985793	-349.977753	-349.976809	-350.018061	32.012	
C	-0.0629413367	 1.4707416764	-0.0011044015	-0.496895
C	-0.0393972324	-0.0237863724	 0.0539608798	 0.160498
C	-1.0692199692	-0.8702605829	 0.0326579714	 0.262726
C	-2.533035282	-0.7875410634	-0.3136239674	-0.383131
C	-2.7338751047	-2.1404563954	-0.9872876469	-0.064566
C	-1.6967966102	-2.9649029071	-0.8104881477	-0.095922
C	-0.6265329812	-2.3232503313	 0.0445646088	-0.078599
C	 0.8533403896	-2.2222269369	-0.3886893095	-0.233436
C	 1.2671014529	-0.8094398707	 0.1076446262	-0.291905
H	 0.5510820167	 1.8482181747	-0.8290673051	 0.120574
H	-1.0785024525	 1.8579762765	-0.1232382899	 0.119849
H	 0.3518045801	 1.9098287814	 0.9160871327	 0.124573
H	-3.1865591776	-0.6945496987	 0.5680611794	 0.110777
H	-2.7748864863	 0.0604180986	-0.9656886723	 0.109916
H	-3.6458716465	-2.3875949642	-1.5203033451	 0.089669
H	-1.6449201563	-3.9857609138	-1.1736470679	 0.089496
H	-0.6711416109	-2.7521474854	 1.0614794927	 0.076226
H	 1.4855217776	-3.0217294467	 0.0086850485	 0.087274
H	 0.9179007856	-2.2534264056	-1.4820570816	 0.100002
H	 2.0474636518	-0.355578334	-0.5151920845	 0.094758
H	 1.6733770923	-0.8466272294	 1.1298368796	 0.098117
126.5162	172.3583	181.2311	223.2847	253.2055	347.7823	456.1064	465.1908	561.2752	578.0517	629.8089	698.6475	760.4466	797.7432	861.995	913.9104	932.1165	941.7847	953.6901	963.8433	973.4007	1012.3094	1065.4041	1072.4769	1090.1995	1127.8048	1142.284	1171.1067	1179.9502	1208.1605	1250.2698	1269.5585	1288.0699	1302.1938	1324.3016	1344.0761	1371.5934	1412.5503	1472.0396	1479.8237	1484.6118	1489.1845	1497.8141	1660.1682	1768.3411	2935.8279	2982.5395	2992.921	3011.926	3037.3386	3045.0734	3050.6978	3055.2893	3092.2357	3104.7713	3177.058	3202.2017
CC1=C2CC=CC2CC1	CC1=C2CC=C[C@H]2CC1	
InChI=1S/C9H12/c1-7-5-6-8-3-2-4-9(7)8/h2-3,8H,4-6H2,1H3	InChI=1S/C9H12/c1-7-5-6-8-3-2-4-9(7)8/h2-3,8H,4-6H2,1H3/t8-/m0/s1
