19
gdb 111813	2.94625	1.33774	1.28584	1.9249	69.39	-0.2533	0.0666	0.3199	1073.5409	0.161544	-460.157625	-460.149877	-460.148933	-460.190156	29.995	
O	 0.0266857944	 1.4620303776	-0.2188847812	-0.420265
C	 0.0469727531	 0.0535031202	-0.0280612277	-0.110607
C	-1.3597723636	-0.5283111501	 0.0647207089	-0.027789
C	-1.5008642944	-2.0509479945	 0.3188409767	-0.11738
C	-0.9520145108	-2.1524304273	 1.7587219944	-0.084554
O	-1.3684273074	-0.9070753701	 2.3620564262	-0.2732
C	-2.1383286347	-0.2566494935	 1.3617049079	 0.207746
O	-3.3679553252	-0.9322767935	 1.1673455255	-0.272914
C	-3.0314072374	-2.1362440316	 0.4407586067	-0.082017
H	-0.2181387679	 1.8699362197	 0.6172383389	 0.287679
H	 0.5541424149	-0.3568144216	-0.9081965112	 0.109766
H	 0.643034004	-0.2158366552	 0.8530643706	 0.104553
H	-1.936324804	-0.2063613437	-0.8073299852	 0.090736
H	-1.0506683905	-2.7335612176	-0.4017411102	 0.080976
H	-1.3870970177	-2.9935651989	 2.310868771	 0.107412
H	 0.13979105	-2.2340720982	 1.8034751194	 0.104179
H	-2.3443933297	 0.7634989424	 1.6827820167	 0.087524
H	-3.5348747613	-2.132562608	-0.5341898952	 0.102263
H	-3.3676402217	-3.010205576	 1.0102425878	 0.105892
67.6449	172.1581	213.2551	227.0654	287.933	357.7527	442.0691	496.1097	557.625	631.1249	766.8694	822.2756	854.4104	908.8011	919.6828	929.0127	940.2886	964.185	971.3386	1021.0664	1046.2763	1070.0573	1085.7619	1111.7679	1124.1789	1172.3143	1191.951	1201.7142	1231.4346	1260.5484	1285.911	1310.7148	1319.2677	1361.6372	1377.6215	1392.2989	1408.7055	1421.6412	1498.9011	1518.6991	1534.2769	3017.5846	3021.4797	3028.2187	3060.751	3065.699	3068.0691	3081.7479	3123.2026	3140.785	3825.9215
OCC1C2COC1OC2	OC[C@H]1[C@H]2CO[C@@H]1OC2	
InChI=1S/C6H10O3/c7-1-5-4-2-8-6(5)9-3-4/h4-7H,1-3H2	InChI=1S/C6H10O3/c7-1-5-4-2-8-6(5)9-3-4/h4-7H,1-3H2/t4-,5-,6+/m0/s1
