25
gdb 117658	2.70366	0.92825	0.82177	2.259	85.47	-0.2533	0.0635	0.3168	1579.188	0.225729	-426.640328	-426.62871	-426.627766	-426.676576	43.485	
C	-0.0617349275	 1.6491905118	 0.1228853493	-0.382029
C	 0.0453577184	 0.1251094666	 0.0141157897	-0.175082
C	-1.3252051411	-0.5500542483	-0.1084808312	-0.200943
C	-1.3039453835	-2.0981202368	-0.0404414826	 0.369045
C	-0.5565172018	-2.7024668781	-1.2293739339	-0.430144
O	-0.6225606084	-2.5374144012	 1.1351213532	-0.477053
C	-2.7679012617	-2.6131885873	 0.0333442634	 0.113048
C	-2.9006008165	-4.1334821217	-0.0103716979	-0.427178
O	-3.2664695758	-2.1075393014	 1.2804978708	-0.455326
H	 0.9260567472	 2.112829446	 0.2111145448	 0.107817
H	-0.5528258751	 2.079235876	-0.7577389998	 0.108667
H	-0.6475806848	 1.9437347881	 1.0009380722	 0.111619
H	 0.6730270213	-0.1269940083	-0.8490672122	 0.090399
H	 0.5564575695	-0.2794591958	 0.8940374146	 0.109554
H	-1.9733783098	-0.1894945431	 0.6979904386	 0.107042
H	-1.8079863739	-0.2460985513	-1.0478124289	 0.080998
H	 0.4547568776	-2.2948945158	-1.2883536416	 0.12747
H	-0.467952973	-3.7856410368	-1.1237834862	 0.121663
H	-1.0710246201	-2.4791784932	-2.1696779937	 0.108077
H	-1.226094865	-2.3434648978	 1.8648456746	 0.281288
H	-3.3373631697	-2.167629773	-0.7974154036	 0.064855
H	-2.2368952721	-4.5913995946	 0.7277574322	 0.136439
H	-3.9330708247	-4.4308485673	 0.2103404683	 0.098895
H	-2.6569440911	-4.5313867281	-0.9987288591	 0.124807
H	-4.0741028285	-2.5814668287	 1.4981342793	 0.286072
72.4604	89.4282	118.8895	142.4084	193.1417	246.8784	254.4031	258.3259	300.6234	309.3654	313.7015	358.5891	367.8583	389.8038	470.2725	505.7409	522.9378	650.9267	749.9359	761.4126	847.6912	875.0529	915.2949	933.8049	951.8692	1020.5625	1030.9314	1049.6147	1076.0777	1105.4825	1120.5366	1164.9573	1185.3159	1202.023	1254.7941	1281.127	1315.9904	1334.8654	1364.0133	1383.9548	1394.977	1404.5689	1411.1668	1412.2453	1436.3384	1476.2497	1488.1073	1493.1209	1495.8999	1498.7533	1500.4181	1512.4804	1517.6635	2978.4374	3013.1803	3025.9783	3030.3488	3032.4029	3049.6012	3063.4841	3075.9035	3097.907	3098.3901	3099.0973	3122.8863	3131.1618	3136.2379	3760.1541	3835.3212
CCCC(C)(O)C(C)O	CCC[C@@](C)(O)[C@@H](C)O	
InChI=1S/C7H16O2/c1-4-5-7(3,9)6(2)8/h6,8-9H,4-5H2,1-3H3	InChI=1S/C7H16O2/c1-4-5-7(3,9)6(2)8/h6,8-9H,4-5H2,1-3H3/t6-,7-/m1/s1
