15
gdb 128756	6.64074	0.75925	0.69645	2.4845	74.33	-0.2431	-0.0247	0.2184	1557.3197	0.112199	-453.930432	-453.922066	-453.921122	-453.964871	28.732	
C	-0.0048170708	 1.3713408825	-0.0779053054	-0.253274
O	 0.0146029404	-0.0097948592	 0.2835949864	-0.182219
C	-1.1308773876	-0.6721457349	 0.1197112858	 0.138888
N	-1.1723061742	-1.9231038841	 0.3300920002	-0.326353
C	-2.4090240103	-2.5467249671	 0.2461211105	 0.433777
N	-3.535108695	-1.9660562965	 0.6204950487	-0.217012
O	-4.5316810229	-2.9164443719	 0.4122543113	-0.170827
C	-3.9710140412	-4.0364427889	-0.070267203	 0.093716
C	-2.6316206128	-3.8863793978	-0.1952643576	-0.34272
H	 0.9537510525	 1.7821093351	 0.239001317	 0.153209
H	-0.1115745209	 1.492794129	-1.1614564397	 0.137329
H	-0.8146741938	 1.9034252086	 0.4329989203	 0.140234
H	-1.9917818729	-0.0694568009	-0.1941093992	 0.11923
H	-4.6503192346	-4.8511799867	-0.2691487226	 0.149999
H	-1.8986617757	-4.591527187	-0.5473744528	 0.126022
44.8851	78.1586	110.6084	166.3715	198.6968	310.4792	403.994	415.8066	534.7638	605.4306	740.3158	793.7831	807.4214	871.7084	914.0172	948.532	1005.7558	1021.4162	1064.7851	1082.1628	1159.4669	1169.6961	1176.6415	1276.7389	1320.6183	1389.7175	1431.6854	1475.1312	1493.8937	1498.8677	1514.4848	1596.8389	1735.3899	3026.3867	3058.3766	3097.1145	3154.5052	3260.8725	3294.2529
COC=NC1=NOC=C1	COC=Nc1nocc1	
InChI=1S/C5H6N2O2/c1-8-4-6-5-2-3-9-7-5/h2-4H,1H3	InChI=1S/C5H6N2O2/c1-8-4-6-5-2-3-9-7-5/h2-4H,1H3
