13
gdb 15451	3.28107	1.97452	1.35155	5.2657	63.59	-0.2683	-0.0461	0.2223	865.1991	0.095694	-361.500959	-361.494045	-361.493101	-361.532844	24.945	
O	-0.0177710713	 0.0357054732	 0.0775593817	-0.27384
C	-0.0514873338	 1.2301308626	 0.0487009576	 0.397032
C	-1.2956716336	 2.1227469584	-0.013164025	-0.370753
C	-0.7363543066	 3.5167814218	 0.0050765627	-0.069303
C	 0.5949211876	 3.5511337683	 0.0455435299	-0.066874
C	 1.208706424	 2.1672756913	 0.0476540279	-0.300868
C	 2.0959862653	 1.9046921876	 1.1768694301	 0.284351
N	 2.7927291807	 1.7165311203	 2.0794179259	-0.31604
H	-1.8710917367	 1.8895206128	-0.9182456878	 0.15102
H	-1.9570307622	 1.8995940508	 0.8335335554	 0.156374
H	-1.3698137214	 4.3955335037	-0.0158113313	 0.120497
H	 1.2064190622	 4.4438157796	 0.0722770634	 0.129074
H	 1.7707109159	 1.9616879795	-0.8746357305	 0.159327
47.0707	143.1661	184.4412	384.0463	409.6658	464.3139	522.4919	585.4562	630.5777	720.9398	757.1204	774.6485	939.3163	972.	976.3483	989.4201	1049.9297	1108.9304	1129.8542	1157.6044	1213.9417	1276.4864	1296.3863	1373.3184	1440.2971	1684.1758	1874.4976	2359.0489	3015.3322	3032.9464	3061.5678	3202.4233	3227.2205
O=C1CC=CC1C#N	O=C1CC=C[C@H]1C#N	
InChI=1S/C6H5NO/c7-4-5-2-1-3-6(5)8/h1-2,5H,3H2	InChI=1S/C6H5NO/c7-4-5-2-1-3-6(5)8/h1-2,5H,3H2/t5-/m0/s1
