17
gdb 38056	3.23745	1.76591	1.67587	1.269	71.14	-0.2407	-0.0099	0.2309	876.8499	0.137408	-421.735944	-421.729436	-421.728492	-421.766588	27.087	
C	-0.0335652179	 1.4725740366	-0.0617677541	-0.071479
C	 1.4913558499	 1.9298746519	 0.0016588894	-0.396702
C	 2.0504295901	 0.6215617934	 0.503162555	 0.39375
O	 3.2203168381	-0.246452407	 0.1830980978	-0.357593
C	 2.2404981454	-1.3237841171	 0.4986341198	-0.089643
C	 1.9445494036	-1.0680520235	 1.9730822027	-0.055279
C	 1.809911778	 0.2568267958	 1.9796340772	-0.128624
C	 1.2157448684	-0.3853304054	-0.2501995641	 0.125334
O	-0.1135838461	 0.0132195043	-0.0312737736	-0.285485
H	-0.5994335276	 1.8465243769	 0.7961833667	 0.118798
H	-0.5060283886	 1.8385598273	-0.9794191089	 0.114186
H	 1.8622261017	 2.1809677548	-0.9944392518	 0.12669
H	 1.622382137	 2.7919634379	 0.6597534504	 0.111834
H	 2.5423037256	-2.3051558976	 0.1374665471	 0.084475
H	 1.8659586161	-1.8006818264	 2.7619702829	 0.116309
H	 1.5933276392	 0.9482146841	 2.7812421337	 0.108532
H	 1.4522918271	-0.411819926	-1.3215314502	 0.084896
126.9078	259.186	295.8031	360.194	515.9838	568.2849	582.858	665.9541	712.2041	734.857	762.1198	814.6648	833.2003	850.7708	886.5885	896.2614	903.6311	945.5296	949.0135	962.5761	1019.8959	1068.3967	1106.1096	1140.6647	1162.0634	1201.9335	1212.1401	1227.4062	1262.1631	1265.7881	1288.8574	1344.8383	1368.127	1396.7128	1492.6859	1513.4137	1628.9374	3026.6397	3042.9389	3071.4419	3089.0392	3125.5931	3144.8314	3228.9704	3259.1226
C1CC23OC(C=C2)C3O1	C1C[C@@]23O[C@@H](C=C2)[C@H]3O1	
InChI=1S/C7H8O2/c1-2-7-3-4-8-6(7)5(1)9-7/h1-2,5-6H,3-4H2	InChI=1S/C7H8O2/c1-2-7-3-4-8-6(7)5(1)9-7/h1-2,5-6H,3-4H2/t5-,6+,7-/m0/s1
