20
gdb 79057	2.41792	1.88326	1.40147	1.8704	82.59	-0.2056	0.0102	0.2157	1018.8234	0.172187	-365.982548	-365.974677	-365.973732	-366.014473	31.453	
C	-0.0672517232	 1.6216600537	-0.0470704788	-0.424341
C	 0.0982107683	 0.1089485249	-0.019927963	 0.031037
C	 0.761836545	-0.6388426617	-1.1659020345	-0.072888
C	 2.2638494083	-0.7454548006	-1.0556692863	-0.061283
C	 3.014530316	 0.1680986961	-0.1525424656	-0.198835
C	 2.4033347722	 0.197895155	 1.0360382017	 0.342481
C	 2.7373492821	 0.9920739157	 2.2556559108	-0.504346
C	 1.145003454	-0.6296440924	 0.904231354	-0.140466
N	 1.4077915984	-1.6284868489	-0.2296054642	-0.139001
H	 0.8886187541	 2.1300861574	-0.1967822041	 0.121615
H	-0.7329964651	 1.9147304889	-0.8665466632	 0.115769
H	-0.5124639381	 1.9905367613	 0.8839091766	 0.111862
H	-0.8703880874	-0.3690015438	 0.1575523138	 0.089994
H	 0.253540695	-0.9598091767	-2.071816261	 0.087047
H	 2.7688182004	-1.238497245	-1.8815304792	 0.088281
H	 3.9010810914	 0.7161932008	-0.4459128283	 0.097107
H	 3.675573474	 1.5398460873	 2.1330591677	 0.126626
H	 1.9498799377	 1.7201884936	 2.4888896355	 0.130319
H	 2.8312316434	 0.3428902225	 3.1354001981	 0.129529
H	 0.7619164835	-1.0821513283	 1.81968421	 0.069494
143.8293	167.9957	192.9051	230.1493	295.1351	307.0425	459.2996	517.9433	559.7015	607.2825	701.422	750.486	761.944	807.0587	835.5835	850.6034	896.9397	925.037	944.1874	970.7596	1025.0446	1043.8476	1050.6791	1065.0487	1101.1636	1115.4215	1147.7261	1160.7448	1180.9546	1209.0791	1253.9304	1273.4252	1340.4561	1348.7683	1369.7266	1388.1929	1411.0694	1412.4928	1476.6852	1487.6214	1495.4253	1506.0955	1704.0302	3016.5372	3030.8496	3055.6768	3062.1387	3089.5712	3100.5916	3110.8904	3119.5625	3137.3653	3154.0212	3211.3497
CC1C2C3C=C(C)C1N23	C[C@H]1[C@H]2[C@H]3C=C(C)[C@@H]1N23	
InChI=1S/C8H11N/c1-4-3-6-8-5(2)7(4)9(6)8/h3,5-8H,1-2H3	InChI=1S/C8H11N/c1-4-3-6-8-5(2)7(4)9(6)8/h3,5-8H,1-2H3/t5-,6-,7+,8+,9?/m1/s1
