15
gdb 133852	3.75204	1.88715	1.82025	3.5357	67.13	-0.2089	-0.0207	0.1882	786.2082	0.112235	-420.482253	-420.475874	-420.47493	-420.512427	26.66	
O	 6.2080072222	-0.5438588447	 0.2571575394	-0.442991
C	 4.9886428714	-0.4467285301	-0.3424543526	 0.387714
C	 3.7355944009	 0.1592742077	 0.4341421923	-0.105783
C	 4.2142392651	 0.7394311633	-0.8652124034	-0.173648
C	 3.4029136229	-0.1713818158	-1.8295284015	 0.013441
O	 2.1318900669	-0.3247467841	-1.2372562248	-0.246207
C	 2.5570789433	-0.7574408152	 0.0639303417	 0.058626
C	 3.5691299722	-1.8724659926	-0.0542403096	-0.154936
C	 4.2414799896	-1.4147047841	-1.2963904093	-0.148972
H	 6.8850073097	-0.56427646	-0.4292121082	 0.298562
H	 3.9200749596	 0.5998867748	 1.4017434668	 0.126915
H	 4.5475352509	 1.7626270382	-0.9689812641	 0.113417
H	 3.3386967376	 0.0648006717	-2.8876549629	 0.087775
H	 1.718959318	-0.843000377	 0.7458665162	 0.094423
H	 4.8005742497	-2.087416712	-1.9362700101	 0.091665
235.7862	254.3626	300.406	334.4587	424.5478	564.7129	569.4002	668.1567	706.564	755.1854	797.5314	808.4327	851.6421	859.6574	888.9755	926.5848	953.1467	962.5287	976.8127	1019.7803	1045.639	1056.1191	1087.6103	1104.0249	1125.2842	1153.9174	1207.3086	1225.9698	1247.3761	1277.3634	1301.5811	1330.4559	1440.3769	3169.0678	3187.859	3193.9861	3216.8354	3246.1698	3789.8347
OC12C3C1C1OC3C2=C1	O[C@@]12[C@H]3[C@@H]1[C@@H]1O[C@H]3[C][C@H]21	
InChI=1S/C7H6O2/c8-7-2-1-3-4(7)5(7)6(2)9-3/h1,3-6,8H	InChI=1S/C7H6O2/c8-7-2-1-3-4(7)5(7)6(2)9-3/h2-6,8H/t2-,3-,4+,5+,6+,7-/m0/s1
