15
gdb 97325	5.04944	0.72754	0.63846	18.2804	70.14	-0.1725	-0.0824	0.0901	1627.8169	0.110168	-491.080226	-491.070736	-491.069792	-491.116559	32.508	
N	 0.0147392173	 1.3390001969	 0.0097994798	-0.479918
C	-0.0045989138	 0.0065004479	 0.0019176376	 0.216463
N	 1.0406273286	-0.745230778	-0.0124754537	-0.222226
H	 2.0266467041	-0.3963427625	-0.0196066741	 0.282117
C	 1.1150053272	-2.2112350343	-0.0217634003	-0.275311
C	 2.6400512781	-2.5129034353	-0.0369035382	 0.248784
O	 3.3922167278	-1.5589229898	-0.0386244615	-0.33359
C	 2.9501173696	-4.0606685193	-0.048310844	 0.312228
O	 4.1366784483	-4.3721495323	-0.0587669943	-0.430566
O	 1.8664748945	-4.6860851736	-0.0441402995	-0.476074
H	 0.8801837877	 1.8569159756	 0.0048382486	 0.304301
H	-0.8448830717	 1.8602975762	 0.0209976957	 0.305897
H	-0.9849228691	-0.4627919966	 0.008275174	 0.189351
H	 0.6598213198	-2.6542389226	 0.8645039339	 0.179229
H	 0.6446479917	-2.6437760822	-0.9052744941	 0.179316
21.0845	46.5983	115.764	161.3913	224.5734	237.6728	316.9922	345.3783	370.3171	400.8905	482.8185	587.583	602.4112	722.3557	744.378	781.6801	923.1113	951.6434	965.2152	1040.3472	1078.4061	1131.4643	1138.4339	1249.4404	1296.1867	1329.9158	1359.5733	1414.5903	1436.8808	1654.3524	1767.0717	1781.0108	1809.8293	3077.9569	3107.5637	3160.81	3191.8117	3601.6098	3728.9124
NC=[NH+]CC(=O)C([O-])=O	[NH2]=CNCC(=O)C(=O)[O]	
InChI=1S/C4H6N2O3/c5-2-6-1-3(7)4(8)9/h2H,1H2,(H2,5,6)(H,8,9)	InChI=1S/C4H6N2O3/c5-2-6-1-3(7)4(8)9/h2,6H,1,5H2
