14
gdb 11182	3.71633	1.59265	1.43818	1.685	62.53	-0.2487	-0.0298	0.2189	889.7967	0.10589	-382.520362	-382.513066	-382.512122	-382.552295	26.911	
O	-0.017254936	 0.0495163951	-0.3170650386	-0.292257
C	-0.0169747676	 1.2245189208	-0.0720964567	 0.378507
C	-1.2441417037	 2.1019573079	 0.192838959	-0.184091
O	-0.7434157436	 3.3593099027	 0.6101833533	-0.244306
C	 0.550043326	 3.5498903735	 0.009137951	-0.093313
C	 1.1971795394	 2.1517974003	 0.0348345668	-0.34276
C	 0.441171207	 4.0898473266	-1.34976484	 0.352171
C	 0.343414749	 4.5154887315	-2.4693981309	-0.47436
H	-1.8381901865	 2.1761303835	-0.7311591358	 0.133718
H	-1.8766703002	 1.6859174694	 0.9815880617	 0.142602
H	 1.0747969229	 4.2655722676	 0.6474412247	 0.123333
H	 1.6827054024	 1.9754202597	 1.0009285963	 0.143119
H	 1.9185639173	 1.9630802592	-0.7600077064	 0.149268
H	 0.2583161336	 4.9029611722	-3.4549495642	 0.208368
67.0137	127.6126	193.8814	267.5482	436.9692	447.8398	477.1532	546.9298	624.3701	640.2801	678.4114	749.2266	756.4618	822.0456	891.0501	932.1593	1000.6318	1052.3208	1077.3845	1160.4846	1169.842	1221.5664	1247.2224	1300.468	1335.3903	1363.2384	1442.813	1474.2093	1865.3251	2233.6388	2996.0138	3059.182	3078.9952	3097.8073	3143.61	3501.1679
O=C1COC(C1)C#C	O=C1CO[C@@H](C1)C#C	
InChI=1S/C6H6O2/c1-2-6-3-5(7)4-8-6/h1,6H,3-4H2	InChI=1S/C6H6O2/c1-2-6-3-5(7)4-8-6/h1,6H,3-4H2/t6-/m1/s1
