19
gdb 14753	12.9063	0.58889	0.57324	4.0338	74.05	-0.2717	0.0337	0.3054	1901.7919	0.163833	-365.077773	-365.068003	-365.067059	-365.113531	32.837	
C	 0.0747354756	 1.4830889886	 0.0087417085	-0.383508
C	-0.0251371302	-0.044328164	 0.0016598744	-0.184355
C	-1.4675186035	-0.5294960574	 0.013330893	-0.037845
O	-1.4719308015	-1.946219407	 0.0058306373	-0.247577
C	-2.7620282325	-2.4996774055	 0.0157219805	-0.051233
C	-2.5900399551	-4.0240175899	 0.0056397367	-0.339553
C	-3.8709853827	-4.7228768096	 0.0147474373	 0.247045
N	-4.8941750115	-5.2594496303	 0.0220879815	-0.302328
H	 1.119203811	 1.8067687402	 0.0001867616	 0.121048
H	-0.4152675623	 1.9199581712	-0.8683027515	 0.118763
H	-0.397889263	 1.9106215416	 0.8998128391	 0.118763
H	 0.4729758188	-0.4545444216	-0.8841763045	 0.109023
H	 0.4903250576	-0.4638271134	 0.8731057518	 0.109023
H	-1.9938963445	-0.154033438	 0.9074294698	 0.089995
H	-2.0114195604	-0.1446015609	-0.8661504897	 0.089995
H	-3.3248127415	-2.1895262248	 0.910649245	 0.109072
H	-3.3426279768	-2.1797835112	-0.8642730799	 0.109071
H	-2.0214311422	-4.3181481755	-0.8826524773	 0.1623
H	-2.0036296752	-4.3278106424	 0.8789848165	 0.162301
45.9789	70.5639	82.0792	126.41	153.8772	184.1231	231.5846	282.8452	385.2225	400.0999	477.558	562.4383	766.3946	795.788	902.2455	908.0155	950.956	1016.5923	1056.3267	1062.8809	1093.3578	1153.1546	1165.6208	1190.5912	1231.4968	1271.8452	1299.5866	1301.1326	1317.5645	1336.2639	1401.5604	1413.8565	1453.2278	1470.7134	1492.4656	1500.2105	1506.8829	1518.1846	1538.3585	2366.3568	2952.9155	2974.0003	2981.93	3003.2535	3033.4773	3040.5865	3056.9152	3073.7432	3099.8228	3101.9107	3111.301
CCCOCCC#N	CCCOCCC#N	
InChI=1S/C6H11NO/c1-2-5-8-6-3-4-7/h2-3,5-6H2,1H3	InChI=1S/C6H11NO/c1-2-5-8-6-3-4-7/h2-3,5-6H2,1H3
