15
gdb 128172	2.25886	1.54025	0.92605	4.3291	81.33	-0.2056	-0.0356	0.17	1205.4662	0.111892	-416.75841	-416.749867	-416.748922	-416.791968	30.979	
C	 0.0925201035	 1.4355704059	 0.0892046833	-0.334276
N	-0.2027696782	 0.0338188436	-0.1561670379	-0.410343
C	 0.5113980029	-0.6571624509	-1.1098327843	 0.102456
C	 0.6934428433	-2.0184962079	-1.2168720874	 0.24365
O	 1.4169835273	-2.2888181629	-2.3446264575	-0.217065
N	 1.721413713	-1.111250132	-2.9764013001	-0.124673
C	 1.1922288604	-0.1513638297	-2.2542818399	-0.040881
C	 0.2742531997	-3.0681009589	-0.3904181894	 0.211234
C	-0.1040799987	-3.9369373006	 0.3556895384	-0.405703
H	 1.13693758	 1.6211078597	 0.3829224713	 0.122007
H	-0.120959598	 2.027227067	-0.8069192655	 0.139039
H	-0.562284708	 1.7985025565	 0.8840675072	 0.1349
H	-0.3884711183	-0.5090788342	 0.6746741504	 0.248064
H	 1.3124738683	 0.8741582849	-2.5711381443	 0.131723
H	-0.4363891973	-4.7132613904	 0.9996763457	 0.199868
73.5011	116.6547	162.2615	169.3832	225.6621	323.0046	387.7139	459.991	500.6695	521.5464	579.0397	619.0216	640.0624	701.5567	725.2167	740.6356	876.1294	953.2011	993.9786	1063.2961	1124.2506	1152.3726	1204.5953	1219.3082	1250.3091	1442.8315	1462.0221	1483.3547	1492.6327	1507.6448	1522.2514	1665.4557	2219.377	2988.1328	3072.9255	3126.5925	3250.6727	3500.2043	3597.3422
CNC1=C(ON=C1)C#C	CNc1c(onc1)C#C	
InChI=1S/C6H6N2O/c1-3-6-5(7-2)4-8-9-6/h1,4,7H,2H3	InChI=1S/C6H6N2O/c1-3-6-5(7-2)4-8-9-6/h1,4,7H,2H3
