15
gdb 50650	3.30954	1.19654	0.91382	3.764	62.47	-0.2757	-0.0529	0.2228	1190.7997	0.111812	-494.948142	-494.940008	-494.939064	-494.982285	28.359	
O	-0.8465941909	 0.9342362283	 0.5726447252	-0.236921
C	 0.212271985	 0.8260019309	 0.0154191649	 0.131596
C	 1.2878042925	 1.9056157646	 0.0776295014	 0.044108
C	 1.4894300109	 2.4815813899	 1.4684856574	-0.246078
C	 2.6879580738	 3.4054999736	 1.3934478124	-0.079718
O	 3.8325005497	 2.7249725432	 0.8507072185	-0.254842
C	 3.730430611	 1.738088088	-0.0613618022	 0.480897
O	 4.7004199784	 1.2298027516	-0.5323327427	-0.350983
O	 2.4916874455	 1.3112404798	-0.4216133383	-0.275156
H	 0.4915609228	-0.0594845677	-0.5931911593	 0.11788
H	 0.9844761429	 2.7050385297	-0.6167231396	 0.12612
H	 0.5904253048	 3.0170154614	 1.7814409776	 0.144883
H	 1.6716955568	 1.6750528792	 2.1863706263	 0.134956
H	 2.4731030403	 4.2795959496	 0.7658434894	 0.125112
H	 3.0032701765	 3.7590192378	 2.3771825791	 0.138147
46.6293	74.3611	119.1545	189.3538	234.1047	373.0581	441.4031	463.208	522.4644	613.9349	700.4515	761.8364	800.0934	850.1972	948.1425	954.592	972.5652	1069.1612	1107.3972	1138.9397	1161.0671	1191.07	1244.4483	1260.113	1320.0124	1342.7818	1380.791	1402.4742	1427.8348	1474.8135	1517.4224	1840.6755	1887.9786	2926.4895	2988.4008	3031.752	3062.3338	3112.1601	3126.0457
O=CC1CCOC(=O)O1	O=C[C@H]1CCOC(=O)O1	
InChI=1S/C5H6O4/c6-3-4-1-2-8-5(7)9-4/h3-4H,1-2H2	InChI=1S/C5H6O4/c6-3-4-1-2-8-5(7)9-4/h3-4H,1-2H2/t4-/m1/s1
