17
gdb 71492	2.19886	2.06045	1.7532	1.6421	71.88	-0.2203	0.005	0.2253	891.6469	0.135579	-421.768193	-421.760733	-421.759789	-421.799379	30.69	
O	 0.1316741762	 1.3543512813	 0.0691466029	-0.474181
C	 0.0623618053	-0.0177632589	-0.0004616654	 0.38085
C	 0.6010543747	-0.9632444488	-1.108586675	-0.327176
C	 0.0299552571	-1.8934335071	-0.0158691431	-0.117536
C	 0.6221704075	-0.9695557797	 1.1118787972	-0.109096
C	-0.3730843812	-0.9696831156	 2.2595814951	-0.096569
C	-1.5620434814	-0.9511477937	 1.6554744112	-0.200175
C	-1.2134023391	-0.9365445596	 0.174750603	 0.321253
O	-2.210478607	-0.8228565888	-0.7922425173	-0.499026
H	-0.3329510682	 1.7187742192	-0.6928182849	 0.290597
H	 0.0673416986	-0.950839562	-2.060887136	 0.101544
H	 1.6848761134	-0.9778618654	-1.2482446469	 0.091238
H	 0.0131272124	-2.9832389626	-0.0003331054	 0.074972
H	 1.6946313294	-0.9887342059	 1.2993383262	 0.072584
H	-0.1334726068	-0.9695727535	 3.3132184221	 0.106094
H	-2.5596658758	-0.9142469969	 2.0705800118	 0.100611
H	-2.802941215	-1.5777892119	-0.7148829656	 0.284016
186.0033	226.799	259.1671	286.6331	330.9381	368.5343	447.9074	475.4024	552.4167	646.2171	659.9633	717.6692	744.1553	776.7006	798.3239	847.7757	903.0961	916.1698	948.1845	963.084	988.3001	1032.6631	1062.1438	1070.9346	1093.0876	1113.8306	1165.5045	1190.7301	1199.7054	1251.3589	1282.2729	1289.9701	1319.8298	1350.2945	1380.2482	1506.528	1636.4298	3061.9363	3119.4123	3128.2037	3135.0074	3219.0776	3246.6283	3802.3884	3810.6212
OC12CC3C1C=CC23O	O[C@@]12C[C@H]3[C@@H]1C=C[C@@]23O	
InChI=1S/C7H8O2/c8-6-2-1-4-5(6)3-7(4,6)9/h1-2,4-5,8-9H,3H2	InChI=1S/C7H8O2/c8-6-2-1-4-5(6)3-7(4,6)9/h1-2,4-5,8-9H,3H2/t4-,5-,6-,7-/m0/s1
