18
gdb 67894	2.49916	1.7903	1.3409	1.4895	75.16	-0.2312	-0.0306	0.2007	999.5725	0.146779	-401.897672	-401.889959	-401.889015	-401.929538	30.809	
C	 0.0293975961	 1.5201786325	-0.0665894214	-0.466303
C	-0.0131935158	 0.0186664133	 0.0501362952	 0.358413
C	-1.3738139856	-0.662703844	 0.3847092566	-0.422488
C	-0.6530798911	-1.4758008976	 1.4874158654	 0.40881
O	-1.0157537556	-2.2908807772	 2.2836945938	-0.299178
C	 0.691148	-0.7845808959	 1.1873784616	-0.219023
C	 1.5382477668	-1.4339718298	 0.0754662294	-0.026279
C	 0.7481444746	-2.087156295	-0.9822700067	-0.260594
N	 0.8792936086	-0.6170869067	-1.021619329	-0.175123
H	 1.0634309234	 1.8715834231	-0.1277979641	 0.12962
H	-0.4857442952	 1.8449961011	-0.9774559826	 0.130043
H	-0.4527223924	 1.9978350079	 0.7925778256	 0.114068
H	-2.0831780991	 0.045680208	 0.8275593621	 0.135355
H	-1.8974270695	-1.2252394265	-0.3925385195	 0.135946
H	 1.2410258908	-0.3264673586	 2.0090739185	 0.095247
H	 2.617419916	-1.5295540056	 0.1373948006	 0.105285
H	 1.3034365138	-2.5607448943	-1.7867120679	 0.12815
H	-0.2040100257	-2.5636193948	-0.7719623378	 0.128051
98.5871	220.017	228.5127	277.9597	310.9387	358.9729	442.5913	474.0146	554.1196	584.2989	627.3559	723.6233	734.1566	792.9755	867.2266	878.4111	900.5744	933.5289	977.116	986.1283	1043.063	1055.9577	1074.3985	1106.2221	1111.0519	1135.7805	1160.4105	1194.8908	1205.5287	1221.1286	1244.2941	1317.6137	1352.485	1415.0743	1428.5806	1480.9122	1492.916	1512.4543	1888.9297	3032.369	3050.5806	3100.4055	3108.2617	3113.4221	3122.1854	3124.0016	3160.8038	3203.6791
CC12CC(=O)C1C1CN21	C[C@]12CC(=O)[C@H]1[C@H]1CN21	
InChI=1S/C7H9NO/c1-7-2-5(9)6(7)4-3-8(4)7/h4,6H,2-3H2,1H3	InChI=1S/C7H9NO/c1-7-2-5(9)6(7)4-3-8(4)7/h4,6H,2-3H2,1H3/t4-,6-,7+,8?/m1/s1
