21
gdb 102605	1.93415	1.00834	0.74884	1.394	75.22	-0.2476	-0.0134	0.2342	1574.8891	0.178972	-461.375707	-461.364489	-461.363545	-461.413269	39.055	
C	-2.2685317896	 1.0515323588	 1.5990333815	-0.473155
C	-1.7784341272	-0.3791384569	 1.4657906978	 0.381001
O	-1.7459563926	-1.13185143	 2.4145781396	-0.302509
C	-1.3189750469	-0.8039181135	 0.0771455902	-0.323252
C	-0.9842009781	-2.2919267512	-0.0546786595	-0.012849
C	-2.2515248376	-3.1570873667	-0.1170018711	-0.082247
O	-1.9725796962	-4.5497676711	-0.0882003928	-0.420752
C	-0.0850924793	-2.5521007989	-1.2702733345	-0.083691
O	 1.1448458329	-1.838922871	-1.214382664	-0.422128
H	-2.4656722401	 1.282146933	 2.6465651563	 0.142271
H	-1.5331819331	 1.7538768254	 1.1919731558	 0.138885
H	-3.1885991992	 1.1852402406	 1.0180879234	 0.141268
H	-2.0771878281	-0.496051316	-0.6572319208	 0.111167
H	-0.4247081988	-0.2151237655	-0.1686657463	 0.141656
H	-0.4362933947	-2.585513075	 0.8524981421	 0.074791
H	-2.9320992155	-2.8722267523	 0.6961687809	 0.104646
H	-2.7763139151	-2.9801169886	-1.064631263	 0.104778
H	-1.6737555033	-4.7658296612	 0.8009641627	 0.285801
H	 0.0765633059	-3.6322356257	-1.37518062	 0.107517
H	-0.5829340308	-2.204843523	-2.1839394085	 0.104605
H	 1.6684829973	-2.2153084111	-0.49970683	 0.282197
38.6789	76.2447	88.8199	106.0224	124.181	183.4265	214.9711	251.0513	310.9132	320.7522	333.1801	404.9362	457.9946	481.5872	543.9236	610.3189	800.6748	824.8028	863.9733	912.6628	956.705	977.5874	1051.1683	1068.323	1086.6406	1108.413	1133.2184	1160.6082	1176.1384	1213.1193	1263.7415	1321.2724	1342.7762	1374.7301	1384.8822	1394.5536	1406.8452	1412.1087	1422.0948	1449.4575	1464.2703	1476.0689	1502.0456	1510.7237	1803.345	3004.9868	3010.826	3015.4934	3023.1678	3037.2089	3049.2845	3058.2672	3069.2669	3097.7277	3152.2904	3814.773	3816.3911
CC(=O)CC(CO)CO	CC(=O)CC(CO)CO	
InChI=1S/C6H12O3/c1-5(9)2-6(3-7)4-8/h6-8H,2-4H2,1H3	InChI=1S/C6H12O3/c1-5(9)2-6(3-7)4-8/h6-8H,2-4H2,1H3
