15
gdb 42685	3.23462	1.77308	1.77215	2.9849	63.26	-0.2351	-0.0336	0.2014	830.1743	0.11506	-457.756674	-457.750743	-457.749799	-457.786841	24.554	
O	 0.0526562393	 0.0067547747	-0.0065442996	-0.324126
C	-0.0171093242	 1.2009721113	 0.0068606326	 0.493448
C	-1.1704408998	 2.1808945039	 0.0395139609	-0.253764
C	-0.6866280274	 3.2482710312	 1.0887941427	 0.10454
C	-0.9490915161	 4.3685946068	 0.0587504899	-0.244724
C	-0.7264345754	 3.2707069756	-1.0042929618	 0.104531
O	 0.70002208	 3.0415306739	-1.1506796363	-0.27638
C	 1.0641797276	 2.2973870262	-0.0017534206	 0.025156
O	 0.7442390569	 3.0165217863	 1.1759184296	-0.276359
H	-2.1968854242	 1.833388933	 0.055365666	 0.104674
H	-1.0988307366	 3.2836523016	 2.0961344474	 0.09911
H	-1.9898753748	 4.7051165918	 0.0821492164	 0.108697
H	-0.2631166559	 5.2171489508	 0.0547950996	 0.119586
H	-1.1766236367	 3.3274888657	-1.9942439591	 0.099101
H	 2.1171262974	 2.0322162071	-0.0246096878	 0.116509
157.8076	322.1476	367.0902	460.1022	522.6666	562.3712	593.2228	698.9842	772.9122	813.1094	837.7337	863.4974	867.9151	918.0764	932.0287	941.9387	944.4048	984.4682	1034.9031	1103.7012	1111.1229	1143.1374	1159.092	1200.3599	1218.8291	1254.2519	1260.1884	1285.5526	1287.6274	1347.104	1348.6034	1461.3646	1899.8398	3061.8079	3126.5157	3127.1151	3134.043	3183.9736	3195.8174
O=C1C2C3CC2OC1O3	O=C1[C@H]2[C@@H]3C[C@H]2O[C@H]1O3	
InChI=1S/C6H6O3/c7-5-4-2-1-3(4)9-6(5)8-2/h2-4,6H,1H2	InChI=1S/C6H6O3/c7-5-4-2-1-3(4)9-6(5)8-2/h2-4,6H,1H2/t2-,3+,4-,6+
