20
gdb 81843	2.06728	1.58812	1.06954	4.0536	79.95	-0.223	-0.0192	0.2038	1194.0075	0.169449	-403.120411	-403.111129	-403.110185	-403.154623	34.539	
C	-0.0909235738	 1.5810942111	-0.0700432125	-0.415731
C	 0.0487435593	 0.065864263	-0.023917978	 0.013515
C	 0.7195901274	-0.6412063192	-1.207716917	-0.121255
N	 2.1307454945	-0.1785396892	-1.2256088222	-0.370896
C	 1.7276721679	-1.2942074182	-0.3302903165	 0.326164
C	 2.3821669432	-2.6394594643	-0.3834265545	-0.509769
C	 1.1417204241	-0.6101692857	 0.9251473177	-0.155968
C	 2.0622064386	 0.289774239	 1.706969181	 0.145124
O	 2.0071543764	 0.4291404945	 2.9055664313	-0.265266
H	 0.8452954462	 2.0497524992	-0.3829440551	 0.13928
H	-0.8702813926	 1.8703794264	-0.7835858323	 0.113202
H	-0.3708008325	 1.9827066097	 0.9093031208	 0.126047
H	-0.9154163469	-0.3994946774	 0.199293428	 0.085524
H	 0.2506375299	-0.9996106285	-2.116938442	 0.092915
H	 2.5764464966	-0.5959204796	-2.0421961239	 0.227361
H	 2.4964665763	-2.9785844059	-1.4189613622	 0.119929
H	 3.3779463713	-2.6175840946	 0.0747215113	 0.134095
H	 1.7868833905	-3.3871008118	 0.1513901079	 0.130781
H	 0.6699728725	-1.3108717629	 1.6172373451	 0.088722
H	 2.8113617708	 0.8334343346	 1.095480893	 0.096226
49.6876	122.5844	196.4069	212.3099	215.9278	229.2857	247.8578	337.8619	393.415	460.3003	522.4248	546.1331	641.121	690.7203	787.6872	846.6226	872.2668	931.4961	964.5114	992.1834	1003.5925	1044.6432	1052.8148	1078.8266	1100.5612	1125.9995	1136.812	1155.512	1200.982	1242.4298	1274.9605	1306.8789	1332.4253	1375.9307	1405.0416	1408.7986	1416.9158	1455.7066	1481.9118	1493.2157	1498.0003	1506.9971	1812.1225	2926.0013	3023.8891	3035.5952	3065.1602	3087.0383	3094.9786	3097.6535	3098.215	3125.8496	3180.2954	3473.0904
CC1C2NC2(C)C1C=O	C[C@H]1[C@H]2N[C@@]2(C)[C@H]1C=O	
InChI=1S/C7H11NO/c1-4-5(3-9)7(2)6(4)8-7/h3-6,8H,1-2H3	InChI=1S/C7H11NO/c1-4-5(3-9)7(2)6(4)8-7/h3-6,8H,1-2H3/t4-,5+,6-,7+/m1/s1
