21
gdb 115768	3.32482	0.82439	0.70191	3.8183	79.92	-0.2444	-0.0207	0.2237	1630.8796	0.18039	-424.219262	-424.209126	-424.208182	-424.256549	35.036	
C	 0.1505137091	 1.6925108487	 0.0396933418	-0.390345
C	-0.142174647	 0.1914351431	-0.065545192	-0.190637
C	 0.5873313429	-0.4587154673	-1.2372316782	-0.045542
C	 2.1066676317	-0.6974361524	-1.0717094079	-0.078388
O	 1.9461317685	-2.1273340883	-1.1782733939	-0.294584
C	 0.5257478778	-2.0033243475	-1.418356036	 0.109313
C	-0.2965719766	-2.8563555821	-0.4514935794	-0.294999
C	 0.0053619519	-4.3305010356	-0.6297088724	 0.152899
O	-0.825861514	-5.173409064	-0.854174229	-0.242634
H	 1.2207967097	 1.8821119719	 0.1768988668	 0.120778
H	-0.1656528723	 2.220947142	-0.8663130866	 0.119059
H	-0.375573262	 2.1390277015	 0.8884669981	 0.11914
H	 0.1445100415	-0.3005961439	 0.8719638853	 0.102014
H	-1.222786541	 0.0377541518	-0.1775732236	 0.103792
H	 0.3337773709	 0.0716259317	-2.1598112762	 0.080582
H	 2.7443863898	-0.2979852259	-1.8694424502	 0.104288
H	 2.5300126322	-0.4070750713	-0.1012085752	 0.101358
H	 0.28483008	-2.2977140346	-2.4497925303	 0.085323
H	-0.0363890877	-2.5834886886	 0.5789573014	 0.119346
H	-1.3686707859	-2.6977524458	-0.6024613141	 0.119853
H	 1.0819248004	-4.5898343234	-0.5390608581	 0.099381
28.1744	58.4265	63.2669	109.466	129.6723	211.652	232.6951	279.3251	390.4544	417.6721	476.9635	524.9648	752.573	792.527	807.8063	844.9417	888.3827	936.1238	966.608	982.4178	1028.2258	1033.7978	1051.9312	1091.8908	1131.2899	1139.0473	1158.4849	1189.7958	1218.8268	1254.4322	1272.3839	1291.3495	1308.3337	1341.1479	1369.1469	1391.8737	1398.7775	1412.623	1422.6818	1448.9623	1485.9073	1499.5738	1505.919	1527.6564	1829.1818	2908.7664	2995.1343	3009.9316	3022.0263	3031.8311	3035.0859	3047.4432	3053.7518	3070.7959	3098.5285	3103.1243	3108.2679
CCC1COC1CC=O	CC[C@H]1CO[C@H]1CC=O	
InChI=1S/C7H12O2/c1-2-6-5-9-7(6)3-4-8/h4,6-7H,2-3,5H2,1H3	InChI=1S/C7H12O2/c1-2-6-5-9-7(6)3-4-8/h4,6-7H,2-3,5H2,1H3/t6-,7-/m0/s1
