15
gdb 26564	2.32477	1.89097	1.0484	4.2721	70.93	-0.213	-0.0087	0.2043	1057.5659	0.11503	-454.009337	-454.001319	-454.000375	-454.042535	29.937	
N	-0.2632864072	 1.3903566397	 0.0636259784	-0.622814
C	-0.0673330628	-0.0304072369	 0.0183198635	-0.049533
C	-1.2067975688	-0.7821526959	 0.0236139883	 0.482912
O	-2.4340655272	-0.2481450932	 0.0678541869	-0.416455
N	-1.1641719207	-2.1429247338	-0.0163967424	-0.395317
C	 0.0461943782	-2.795979621	-0.0635979448	 0.015043
C	 1.2119304128	-2.1141859372	-0.0713552143	-0.249894
C	 1.2495213275	-0.6456592775	-0.0299399202	 0.314894
O	 2.288276943	 0.0156577922	-0.035464319	-0.415623
H	 0.2364122915	 1.769842857	 0.8659108133	 0.253369
H	 0.1964395444	 1.8156890251	-0.7395674164	 0.253339
H	-2.2571971021	 0.7144890346	 0.0916228977	 0.308057
H	-2.0348400679	-2.6489609122	-0.0105050674	 0.273365
H	-0.0167087569	-3.8766603948	-0.0932067864	 0.135607
H	 2.1548240561	-2.6453804162	-0.1087952573	 0.11305
33.542	166.6648	226.2954	264.6003	280.8228	332.7349	435.5302	503.8978	522.8986	525.9573	575.9634	666.0174	703.184	739.113	754.8194	839.1417	862.4926	936.8885	946.142	1062.3413	1072.6469	1178.8891	1221.9183	1243.0692	1291.958	1343.5489	1388.2626	1443.3116	1577.3066	1621.3556	1659.3436	1709.334	1724.8597	3204.459	3222.6696	3469.0279	3516.7684	3568.5188	3655.9798
NC1=C(O)NC=CC1=O	Nc1c(O)[nH]ccc1=O	
InChI=1S/C5H6N2O2/c6-4-3(8)1-2-7-5(4)9/h1-2H,6H2,(H2,7,8,9)	InChI=1S/C5H6N2O2/c6-4-3(8)1-2-7-5(4)9/h1-2H,6H2,(H2,7,8,9)
