21
gdb 89377	2.61842	1.34945	1.08958	2.3911	78.36	-0.2469	0.0748	0.3218	1190.7311	0.181913	-424.226724	-424.217566	-424.216622	-424.259757	36.204	
C	-0.064435744	 1.4856556589	 0.0438972846	-0.475213
C	-0.0152361294	-0.0222124195	 0.0352248571	 0.29888
C	 1.3141778906	-0.7201020099	-0.2305115807	-0.409048
C	 0.6624541258	-0.812764782	 1.1311445484	 0.372987
O	 1.2375016771	-0.1289392948	 2.2052351708	-0.471283
C	-0.1757684819	-2.0432399522	 1.4327714916	-0.316925
C	-1.0791194098	-2.2196095156	 0.1884746054	 0.114885
O	-2.3556612938	-2.7731503633	 0.4675357414	-0.436248
C	-1.2623900481	-0.7951498916	-0.3714314671	-0.272986
H	 0.8226346746	 1.9001591475	 0.5297769995	 0.125819
H	-0.1194904608	 1.8885616446	-0.9739204313	 0.111766
H	-0.9428967074	 1.8450899156	 0.5920217711	 0.115729
H	 1.363928696	-1.5881289351	-0.881423299	 0.103563
H	 2.1800058462	-0.0680737918	-0.288473493	 0.107219
H	 2.0545314653	-0.5792281148	 2.444334918	 0.281399
H	 0.4178445587	-2.9392358317	 1.6540876915	 0.080065
H	-0.8082501595	-1.8312808621	 2.3025206582	 0.113804
H	-0.560879827	-2.8442434598	-0.5540621671	 0.067351
H	-2.2311194934	-3.6853995438	 0.7471434481	 0.280503
H	-2.1427148417	-0.3534522901	 0.111570678	 0.111026
H	-1.4466765576	-0.7974422983	-1.4509205457	 0.096707
129.8441	182.4134	198.9629	220.5542	271.2771	274.1463	312.2681	345.9656	400.159	422.0962	489.1448	513.4431	516.2454	552.5428	704.7758	731.4782	863.5547	892.3772	897.647	934.5385	947.8228	982.8052	1032.5295	1037.8098	1053.4594	1086.7838	1104.8342	1149.5835	1186.1106	1212.0358	1236.3602	1256.0494	1283.8305	1294.2185	1312.9724	1347.2427	1373.2204	1405.3181	1418.0003	1441.9453	1484.0632	1486.1224	1491.8431	1498.771	1514.4049	2982.7377	3022.0949	3026.0716	3034.5532	3073.7723	3077.9665	3083.5598	3115.2858	3117.9058	3204.7681	3800.3959	3819.7894
CC12CC1(O)CC(O)C2	C[C@@]12C[C@]1(O)C[C@@H](O)C2	
InChI=1S/C7H12O2/c1-6-2-5(8)3-7(6,9)4-6/h5,8-9H,2-4H2,1H3	InChI=1S/C7H12O2/c1-6-2-5(8)3-7(6,9)4-6/h5,8-9H,2-4H2,1H3/t5-,6+,7+/m0/s1
