19
gdb 89459	2.21004	1.57186	1.40478	2.9035	70.8	-0.2355	0.0528	0.2883	1048.0466	0.156588	-460.126325	-460.116971	-460.116027	-460.160277	35.065	
C	-0.1505634637	 1.5811679644	 0.2518903391	-0.467434
C	 0.0139079336	 0.0907300633	 0.173484956	 0.338025
O	 0.8766299646	-0.347454685	-0.9102548837	-0.323318
C	 1.7111424338	-1.1251813235	-0.0214660127	-0.131653
C	 0.7877023297	-0.8234321631	 1.1733641103	 0.280941
O	 1.3440503308	-0.2993089553	 2.3423983009	-0.476205
C	-0.4534639946	-1.7478822221	 1.290860497	-0.348118
C	-1.2270705554	-0.8571587451	 0.2640049601	 0.110855
O	-2.4535123204	-0.3166981495	 0.6942209071	-0.423344
H	 0.8155088677	 2.0705298207	 0.4008849272	 0.130525
H	-0.5929611272	 1.9542002485	-0.6778051396	 0.135371
H	-0.8128212132	 1.8649762919	 1.0749308999	 0.109566
H	 1.8055904932	-2.1698144689	-0.3436857046	 0.094286
H	 2.7079175962	-0.6799826617	 0.0897484081	 0.102992
H	 1.6620139311	-1.0280414134	 2.8870129499	 0.283115
H	-0.3223536927	-2.8035288956	 1.0392551657	 0.102875
H	-0.9018413922	-1.6737464587	 2.2868986861	 0.09826
H	-1.4238166999	-1.3357146448	-0.69735064	 0.101534
H	-2.3391621213	 0.039622558	 1.581616523	 0.281726
56.3394	138.3655	176.9932	196.2545	222.0423	271.6004	301.601	351.6878	389.5974	399.9453	447.0847	516.6146	589.9438	671.3626	712.5081	819.2418	879.1529	892.0054	911.6536	935.8694	1007.8343	1024.9929	1054.6218	1107.6065	1120.4027	1154.6495	1174.4275	1196.9723	1230.9272	1249.2592	1252.2779	1289.7126	1300.1747	1329.8734	1393.6692	1411.353	1420.1407	1463.1766	1473.7589	1485.6966	1515.3419	3008.6898	3041.2011	3047.1589	3059.2381	3094.4735	3109.6614	3111.3389	3121.917	3796.8576	3806.9771
CC12OCC1(O)CC2O	C[C@@]12OC[C@]1(O)C[C@H]2O	
InChI=1S/C6H10O3/c1-5-4(7)2-6(5,8)3-9-5/h4,7-8H,2-3H2,1H3	InChI=1S/C6H10O3/c1-5-4(7)2-6(5,8)3-9-5/h4,7-8H,2-3H2,1H3/t4-,5+,6-/m1/s1
