17
gdb 83471	3.18741	1.11278	0.96823	4.4865	69.78	-0.2615	0.0039	0.2654	1230.6029	0.134555	-458.944164	-458.935626	-458.934681	-458.977721	31.36	
O	-0.3547742841	 1.4046711692	-0.1151474599	-0.419301
C	-0.3058628287	 0.0096870556	-0.0676524151	 0.031114
C	-0.5110198922	-0.7986482859	 1.1939709586	-0.19054
C	-1.4943033938	-0.0805845915	 2.1283251342	-0.219003
C	-2.5736904819	-0.0878366697	 0.9982415292	-0.291286
C	-1.5651641044	-0.7696153268	 0.0750349789	 0.386335
O	-1.9229597657	-1.7983467957	-0.8043513048	-0.228454
C	-2.097005274	-1.4607025347	-2.1071817946	 0.141986
O	-2.433929551	-2.2551617277	-2.9302806918	-0.268542
H	 0.4507444996	 1.7492692047	 0.2855725338	 0.29289
H	 0.4070390418	-0.451071612	-0.753361507	 0.102706
H	 0.1812346071	-1.5838660336	 1.4728679215	 0.104094
H	-1.7824156015	-0.6845705099	 2.9896821525	 0.11392
H	-1.1745157843	 0.9059133224	 2.471388141	 0.104524
H	-3.4067724867	-0.752865072	 1.2325604644	 0.1219
H	-2.9560426795	 0.8786573434	 0.6625767828	 0.116992
H	-1.8872050207	-0.393109706	-2.3006445136	 0.100664
71.2032	125.908	151.8974	215.5429	229.9146	294.7857	344.4855	383.72	426.0039	523.4418	601.4697	745.417	781.1218	794.9501	834.226	932.4908	950.2002	967.0284	1002.1195	1038.5532	1052.2669	1088.1218	1128.6677	1140.6415	1164.8085	1218.2525	1224.2567	1236.7607	1246.815	1294.6161	1308.7224	1332.482	1419.9819	1464.7246	1472.6407	1507.5012	1869.3191	2980.1564	3070.7827	3076.2636	3098.6524	3121.2535	3138.0278	3189.5852	3802.8818
OC1C2CCC12OC=O	O[C@H]1[C@H]2CC[C@@]12OC=O	
InChI=1S/C6H8O3/c7-3-9-6-2-1-4(6)5(6)8/h3-5,8H,1-2H2	InChI=1S/C6H8O3/c7-3-9-6-2-1-4(6)5(6)8/h3-5,8H,1-2H2/t4-,5+,6+/m1/s1
