19
gdb 66789	2.89298	2.21783	1.79713	0.0742	80.07	-0.2369	0.0863	0.3232	855.863	0.161576	-348.702079	-348.695826	-348.694882	-348.732125	27.674	
C	-0.0152436018	 1.5055866417	 0.0155351189	-0.520326
C	 0.0722083821	 0.0022785623	 0.0061981409	 0.358093
C	 0.6373526981	-0.744563636	-1.2372742998	-0.137813
C	 0.6634732475	-2.1722825248	-0.7439264941	-0.073945
C	 0.5733969145	-2.1870075269	 0.778753048	-0.073944
C	-0.7657957869	-1.6292868747	 1.212392998	-0.09001
C	 0.487671077	-0.7690307904	 1.293001838	-0.137822
C	-1.215664087	-0.9009460963	-0.0787216288	-0.118184
C	-0.6158960543	-1.6047852322	-1.32159025	-0.090009
H	 0.9812161832	 1.9598462085	 0.0786222906	 0.115486
H	-0.4940244905	 1.878952576	-0.8965345786	 0.116803
H	-0.5982363162	 1.8619171912	 0.8720689905	 0.116802
H	 1.2718801937	-0.3473540866	-2.0216857508	 0.075756
H	 1.2158332299	-2.9268592333	-1.2889285235	 0.08069
H	 1.0585160967	-2.9525763006	 1.370427441	 0.08069
H	-1.3797471795	-2.0473004121	 2.0010569153	 0.079726
H	 1.0248497748	-0.387741779	 2.154256188	 0.075758
H	-2.2011599635	-0.4427781486	-0.1325861371	 0.062521
H	-1.1321109278	-2.0068278381	-2.1850404367	 0.079726
236.2542	251.1247	258.705	547.2436	562.7975	571.667	685.8386	723.6409	749.5262	776.7028	784.9543	805.2732	828.5862	844.0098	886.0473	897.2316	901.6638	925.8384	928.9905	970.8362	997.2198	1013.1823	1018.7824	1051.437	1051.4804	1055.502	1055.667	1117.034	1161.0679	1173.8966	1218.2175	1218.9354	1235.9338	1240.6963	1300.1308	1317.2854	1363.7033	1375.2757	1411.2096	1491.1774	1492.406	3018.9885	3080.6694	3091.4942	3135.6876	3166.2828	3166.8153	3178.4803	3182.148	3196.9185	3208.7962
CC12C3C4C5C(C15)C2C34	C[C@@]12[C@H]3[C@H]4[C@@H]5[C@@H]([C@H]15)[C@@H]2[C@@H]34	
InChI=1S/C9H10/c1-9-6-2-3-5(7(3)9)8(9)4(2)6/h2-8H,1H3	InChI=1S/C9H10/c1-9-6-2-3-5(7(3)9)8(9)4(2)6/h2-8H,1H3/t2-,3+,4+,5-,6-,7+,8-,9+
