19
gdb 68902	2.68311	1.52268	1.17671	4.1259	75.65	-0.2301	0.0543	0.2844	1102.7123	0.159632	-419.254913	-419.246231	-419.245287	-419.287509	34.045	
C	-0.0177797781	 1.5614482015	-0.0227645371	-0.464914
C	-0.0338307718	 0.0587353578	 0.0870669873	 0.298712
C	 1.194640503	-0.7878519165	-0.2281982588	-0.382798
C	 0.6290497589	-0.745864669	 1.1872826013	 0.298708
C	 1.4064330568	-0.1672918275	 2.3411422558	-0.46491
N	-0.3427823942	-1.7555473602	 1.5223010674	-0.38515
C	-1.4053595159	-1.7654063067	 0.6234000212	 0.407536
O	-2.2431820301	-2.6292649746	 0.4964357977	-0.402226
N	-1.3154426339	-0.5749334411	-0.0920620638	-0.385151
H	 0.9636381793	 1.9675111403	 0.2353971349	 0.122484
H	-0.2407131334	 1.8767871326	-1.0487362338	 0.122813
H	-0.7668003503	 2.007943175	 0.6383753614	 0.132053
H	 1.0680875595	-1.6925945142	-0.8135946143	 0.115129
H	 2.1243376417	-0.2545730604	-0.3983536002	 0.112049
H	 2.0372660651	 0.6643977226	 2.0170177058	 0.122483
H	 0.7314714545	 0.1895320601	 3.1251066523	 0.132053
H	 2.0664161652	-0.9239825122	 2.78113893	 0.122812
H	-0.0687543182	-2.6445121353	 1.9110948609	 0.249158
H	-1.8058763083	-0.5359958421	-0.9721014779	 0.249158
143.6598	188.1017	200.2932	207.9455	226.6188	304.2243	370.9207	435.8983	464.6795	480.9003	504.2048	518.0577	577.7096	650.4616	728.9748	775.1487	780.7272	903.481	921.9488	963.965	980.3754	981.5227	1026.6346	1032.4248	1108.4765	1108.6704	1181.9861	1257.007	1274.2479	1349.6785	1357.1827	1389.1641	1410.1556	1419.6004	1426.4108	1479.4194	1479.4973	1494.5622	1494.8293	1510.1727	1850.576	3032.1955	3034.6799	3094.187	3095.9956	3118.9056	3122.4179	3126.6714	3218.7343	3632.419	3633.7991
CC12CC1(C)NC(=O)N2	C[C@@]12C[C@]1(C)NC(=O)N2	
InChI=1S/C6H10N2O/c1-5-3-6(5,2)8-4(9)7-5/h3H2,1-2H3,(H2,7,8,9)	InChI=1S/C6H10N2O/c1-5-3-6(5,2)8-4(9)7-5/h3H2,1-2H3,(H2,7,8,9)/t5-,6+
