18
gdb 76705	3.12731	0.91432	0.86065	5.3844	73.47	-0.2608	0.0129	0.2737	1402.5395	0.145161	-439.057922	-439.048048	-439.047104	-439.093449	34.596	
C	 0.1430534108	 1.6867859731	 0.1040955236	-0.412255
C	 0.1030720663	 0.1751653494	 0.0403919921	-0.101626
C	 1.3826590734	-0.6376007975	 0.1497601062	 0.033965
O	 2.593791712	 0.0003504453	 0.4273591879	-0.409793
C	 0.3680527131	-0.6494392753	 1.2740662062	 0.0848
O	 0.6448527336	 0.0609756343	 2.4412857999	-0.240044
C	 1.5990503173	-0.5893474862	 3.2608268544	-0.186371
C	 1.7912223883	 0.201625711	 4.4793776001	 0.261328
N	 1.9649918051	 0.8020685227	 5.450016646	-0.297239
H	 0.9125405389	 2.0317814156	 0.7955935967	 0.144628
H	 0.344175887	 2.1112593539	-0.8857936736	 0.111973
H	-0.8164950665	 2.0849797593	 0.4471747045	 0.13087
H	-0.6460003527	-0.2350187491	-0.6318102807	 0.093832
H	 1.4703470592	-1.5379211389	-0.4583998807	 0.091282
H	 2.8226809943	 0.5678742968	-0.3159855806	 0.297544
H	-0.2072871494	-1.5623201668	 1.4342584783	 0.092491
H	 1.258415325	-1.5962237054	 3.5488137295	 0.135775
H	 2.5595425344	-0.6888432521	 2.7404344303	 0.16884
46.7603	92.6739	125.5496	146.9327	196.9911	201.0089	243.008	278.3108	310.439	385.8462	477.7614	527.2327	622.0328	673.6604	759.4995	798.5693	903.9911	956.2704	977.6478	1008.4605	1035.5543	1068.993	1093.2955	1120.2499	1153.404	1172.1192	1186.3059	1249.6742	1260.7631	1299.0391	1353.5654	1374.5562	1410.2074	1417.0466	1456.4827	1492.4249	1497.112	1502.1105	2373.1093	2990.4457	3039.7858	3058.7509	3086.787	3099.2161	3099.306	3137.0345	3151.7714	3806.5936
CC1C(O)C1OCC#N	C[C@H]1[C@@H](O)[C@H]1OCC#N	
InChI=1S/C6H9NO2/c1-4-5(8)6(4)9-3-2-7/h4-6,8H,3H2,1H3	InChI=1S/C6H9NO2/c1-4-5(8)6(4)9-3-2-7/h4-6,8H,3H2,1H3/t4-,5+,6-/m0/s1
