16
gdb 74372	2.81606	1.35125	1.10726	5.187	70.62	-0.2443	0.0258	0.2701	1106.9741	0.126664	-434.103589	-434.095526	-434.094582	-434.136396	30.242	
N	 0.0395063481	 1.3454843148	 0.0858734257	-0.550141
C	-0.0566568196	-0.0204528315	 0.0628571123	 0.476053
N	-1.1941598185	-0.6036067571	 0.0291521341	-0.345092
C	-1.2214404133	-2.0582997241	 0.0337370294	-0.123777
C	 0.1097442524	-2.6863203573	-0.4286986113	-0.246593
C	 1.2428325662	-1.9881698792	 0.3058391963	-0.082841
O	 1.1832658117	-0.569460694	 0.097350642	-0.256873
C	-1.5831683377	-2.5616432107	 1.3759916114	 0.288731
N	-1.8423302092	-2.968619162	 2.4263709209	-0.333971
H	 0.9194818135	 1.7357836433	-0.2098279402	 0.262139
H	-0.7913638573	 1.8322224277	-0.2085780885	 0.26853
H	-2.0231931325	-2.3805305287	-0.6420068247	 0.127715
H	 0.135258029	-3.7620031569	-0.2353226268	 0.128859
H	 0.2116683398	-2.5280321996	-1.5069767351	 0.121078
H	 1.1887183907	-2.1879045309	 1.383052192	 0.140508
H	 2.2250411568	-2.2967327737	-0.0572432376	 0.125675
78.4278	120.5793	184.7867	258.691	337.8668	371.8593	421.8542	444.3113	481.9198	503.008	596.3929	602.2747	726.3863	740.5086	816.1433	871.3269	920.5308	941.651	983.5912	1055.5827	1097.5467	1133.4593	1205.0093	1252.8327	1255.2895	1313.9715	1342.7332	1356.3331	1386.0001	1431.6074	1475.138	1514.6618	1614.8787	1732.5392	2351.7485	3029.1731	3039.3434	3058.3622	3109.8311	3115.9958	3601.3586	3723.68
NC1=NC(CCO1)C#N	NC1=N[C@@H](CCO1)C#N	
InChI=1S/C5H7N3O/c6-3-4-1-2-9-5(7)8-4/h4H,1-2H2,(H2,7,8)	InChI=1S/C5H7N3O/c6-3-4-1-2-9-5(7)8-4/h4H,1-2H2,(H2,7,8)/t4-/m0/s1
