15
gdb 26051	3.41876	1.20881	0.92301	2.2678	72.47	-0.2279	0.0059	0.2338	1194.5032	0.113156	-416.798804	-416.790564	-416.78962	-416.83226	30.415	
O	-0.8694134955	 0.6578921111	 0.0994052804	-0.416854
C	 0.0600108058	-0.410000006	-0.1261230671	-0.212522
C	 0.9288830503	-0.1597609536	-1.2789047986	 0.330538
C	 1.6313805861	 0.0792280635	-2.2235154803	-0.445327
C	 0.8569769207	-0.7008963326	 1.1128623445	 0.305549
C	 2.1727636337	-0.9929521831	 1.3667267896	-0.16811
N	 2.3735734948	-1.2122155743	 2.7104370878	-0.25998
C	 1.1945106823	-1.050955528	 3.2664127878	 0.016071
N	 0.2376950232	-0.7500844121	 2.3449044213	-0.303743
H	-0.3510201734	 1.4635477844	 0.2156578752	 0.288656
H	-0.590490884	-1.2644363957	-0.3590562918	 0.134251
H	 2.2498063451	 0.2827707164	-3.0630760461	 0.207113
H	 2.9788349158	-1.0618124906	 0.6531610134	 0.119964
H	 0.9735587499	-1.1334187912	 4.3202965801	 0.132295
H	-0.7264302548	-0.5110349583	 2.5108106336	 0.272098
47.2723	117.9975	159.8975	208.3959	291.3195	355.0715	421.5232	471.4522	554.8567	576.4875	638.87	654.7083	680.9142	686.129	788.0134	820.1186	867.8059	921.3363	951.1753	1028.7501	1046.8138	1108.8687	1146.1152	1227.4432	1254.598	1276.4051	1319.6622	1381.816	1416.5462	1432.532	1500.7608	1603.6778	2240.877	3012.0437	3250.5093	3260.8636	3500.8177	3658.5749	3788.7478
OC(C#C)C1=CN=CN1	O[C@@H](C#C)c1cnc[nH]1	
InChI=1S/C6H6N2O/c1-2-6(9)5-3-7-4-8-5/h1,3-4,6,9H,(H,7,8)	InChI=1S/C6H6N2O/c1-2-6(9)5-3-7-4-8-5/h1,3-4,6,9H,(H,7,8)/t6-/m0/s1
