19
gdb 6378	4.68371	1.07834	0.98129	2.2656	69.89	-0.2479	0.0685	0.3164	1273.3787	0.163365	-402.256823	-402.246801	-402.245857	-402.292469	34.348	
C	-0.124022763	 1.3813206922	 0.082029584	-0.32834
N	-0.0481673954	-0.0451916191	-0.1419157546	-0.353771
C	 0.6672937958	-0.5873074916	-1.1638731212	 0.51794
O	 1.3125836299	 0.0354195737	-1.9812508561	-0.420024
O	 0.5475007826	-1.9395986587	-1.1329792507	-0.293222
C	 1.2711392694	-2.6704436118	-2.1528350827	 0.15779
C	 2.7257791807	-2.8491795919	-1.729310773	-0.395323
C	 0.5283583716	-3.9866019372	-2.3333382559	-0.393587
H	 0.4994253164	 1.8639747218	-0.6714559397	 0.169634
H	-1.1506399759	 1.7529485139	-0.01822732	 0.123732
H	 0.2486790508	 1.6516447918	 1.076763548	 0.123657
H	-0.5460678557	-0.6811549799	 0.4575148762	 0.250726
H	 1.2321449731	-2.0776990416	-3.0710118926	 0.108495
H	 3.2719821224	-3.4189160454	-2.4878754481	 0.114575
H	 3.2090824186	-1.8764613639	-1.6170696774	 0.141751
H	 2.7874372782	-3.3919739526	-0.7803246754	 0.115161
H	-0.5114911688	-3.8093839764	-2.6209470142	 0.121524
H	 1.0066807189	-4.5840948177	-3.1149907959	 0.118484
H	 0.5350073905	-4.5671649757	-1.4051917305	 0.120799
55.2044	63.5757	83.0747	130.5674	162.6823	217.7511	256.0837	299.833	328.5606	406.508	446.2733	466.4196	513.2639	718.4982	780.2742	840.3057	917.3196	931.6288	950.4244	979.9877	1141.1628	1158.4491	1161.6287	1168.3824	1178.6395	1202.0401	1254.2735	1358.0727	1385.9949	1400.723	1415.8874	1445.3282	1481.2244	1486.0768	1495.3202	1498.1382	1500.4254	1512.1536	1567.3279	1806.7743	3022.4668	3038.3882	3042.7148	3070.941	3073.9638	3106.9964	3118.0603	3120.9317	3134.8839	3152.4099	3660.7153
CNC(=O)OC(C)C	CNC(=O)OC(C)C	
InChI=1S/C5H11NO2/c1-4(2)8-5(7)6-3/h4H,1-3H3,(H,6,7)	InChI=1S/C5H11NO2/c1-4(2)8-5(7)6-3/h4H,1-3H3,(H,6,7)
