23
gdb 39810	2.71806	1.47663	1.4752	0.1562	88.6	-0.2588	0.0876	0.3463	1078.0538	0.209326	-351.144071	-351.136404	-351.13546	-351.175672	32.292	
C	 0.0033816493	 1.4494670317	 0.0096798689	-0.364299
C	 1.328880792	 0.7068567309	-0.0076646032	-0.357819
C	 0.0375932032	-0.0459094128	 0.0021635616	 0.466559
C	-0.5717679294	-0.9654903446	 1.0711380293	-0.09826
C	-1.6730602922	-1.2858066395	 0.0117983054	-0.232979
C	-0.5924053186	-0.9534461901	-1.0646689063	-0.097652
C	 0.3313582766	-2.1614686533	-1.3050671583	-0.199555
C	 0.4695277769	-3.0134663264	-0.0188450797	-0.195964
C	 0.3562377596	-2.1764035877	 1.2795627866	-0.199307
H	-0.281110266	 1.9577112634	 0.9264433878	 0.107031
H	-0.3004528551	 1.966111013	-0.8961387534	 0.107019
H	 1.9112415994	 0.7282120969	-0.9242433443	 0.107843
H	 1.9307111527	 0.7203070181	 0.896389504	 0.107852
H	-0.8795639517	-0.5134322983	 2.0184180211	 0.054754
H	-2.1220905901	-2.2825966404	 0.0103117236	 0.086375
H	-2.4646691565	-0.5334370279	 0.0238011727	 0.097295
H	-0.9183274116	-0.4905265956	-2.0006147559	 0.054667
H	-0.0559894274	-2.7881020751	-2.1169397564	 0.087246
H	 1.3103546512	-1.7929286121	-1.6349042642	 0.094902
H	-0.3302144343	-3.7612953614	-0.0151119107	 0.10193
H	 1.4051570105	-3.5811997694	-0.0311943776	 0.090233
H	 1.3413415179	-1.8121141854	 1.595773144	 0.094898
H	-0.0162414362	-2.812534724	 2.0910163852	 0.08723
139.3478	208.7791	232.5344	241.8866	345.9966	383.866	448.5642	511.2749	581.7137	623.1282	771.6235	774.8373	815.5695	830.538	833.8942	884.562	904.463	916.6542	926.0046	950.0475	960.2641	973.1411	1047.1882	1051.7343	1069.5117	1077.6169	1088.9531	1093.0702	1111.7944	1125.5048	1182.8306	1200.8188	1220.6436	1238.1671	1239.517	1281.0649	1293.5077	1306.4535	1321.327	1355.9175	1369.6868	1375.3917	1407.5028	1464.47	1485.6093	1488.6405	1494.8219	1506.1445	1519.6998	3022.3053	3023.0715	3039.5533	3054.3477	3056.7991	3057.8133	3062.2726	3068.7402	3084.4362	3113.0232	3115.1722	3117.3477	3188.7151	3203.5961
C1CC11C2CC1CCC2	C1CC21[C@H]1C[C@@H]2CCC1	
InChI=1S/C9H14/c1-2-7-6-8(3-1)9(7)4-5-9/h7-8H,1-6H2	InChI=1S/C9H14/c1-2-7-6-8(3-1)9(7)4-5-9/h7-8H,1-6H2/t7-,8+
