18
gdb 89620	3.70133	1.19072	0.99687	2.9274	73.34	-0.2392	0.0192	0.2583	1205.5963	0.146674	-439.088119	-439.079234	-439.078289	-439.121617	33.38	
C	-0.0283510472	 1.5183765043	-0.0755942161	-0.407368
C	 0.2057464616	 0.0237486034	-0.0439592544	 0.131946
O	 1.3987031411	-0.3927819727	-0.7907605292	-0.359978
C	 1.8474952762	-1.1625921761	 0.3324472503	 0.384929
C	 2.144893488	-0.2863741256	 1.5082073105	-0.33643
C	 0.7163718164	-0.6716538711	 1.2222010739	-0.183117
C	 2.3807590751	-2.5396544976	 0.1360382284	 0.301511
N	 2.3836637207	-2.9294878666	-1.1655888659	-0.539635
O	 2.7595236817	-3.2252379791	 1.0688883418	-0.380377
H	 0.8066361819	 2.0659257969	 0.3686322885	 0.126673
H	-0.1533212429	 1.8601509142	-1.1078739442	 0.130161
H	-0.9408834605	 1.7647425022	 0.4775205237	 0.12381
H	-0.6614692406	-0.5099154905	-0.4524692585	 0.08942
H	 2.5869087976	-0.8124147558	 2.3468337538	 0.149405
H	 2.50931376	 0.7201702927	 1.3279502017	 0.117978
H	 0.1130464465	-1.2423415024	 1.9143956543	 0.116451
H	 2.036928191	-2.3092151882	-1.8777626236	 0.272464
H	 2.7268155335	-3.8446158278	-1.4026770549	 0.262156
81.201	123.028	156.8563	216.7237	227.8612	272.9339	301.485	393.6376	478.5775	485.5405	555.2504	611.281	655.4073	713.3896	747.2398	838.5576	865.3837	881.847	951.3621	961.8733	1005.3403	1015.7888	1058.2777	1084.252	1092.2956	1110.4219	1148.3233	1182.3216	1244.9558	1303.0202	1336.039	1382.3775	1408.1459	1423.9692	1478.188	1483.4749	1493.4913	1600.0768	1791.2451	3026.8252	3040.8981	3109.2127	3124.2638	3130.1296	3212.6001	3231.9438	3601.4497	3743.8008
CC1OC2(CC12)C(N)=O	C[C@H]1O[C@]2(C[C@@H]12)C(=O)N	
InChI=1S/C6H9NO2/c1-3-4-2-6(4,9-3)5(7)8/h3-4H,2H2,1H3,(H2,7,8)	InChI=1S/C6H9NO2/c1-3-4-2-6(4,9-3)5(7)8/h3-4H,2H2,1H3,(H2,7,8)/t3-,4+,6+/m1/s1
