19
gdb 99124	4.04111	0.81221	0.71818	3.0668	73.54	-0.2677	0.0037	0.2714	1587.3299	0.156776	-460.177981	-460.168071	-460.167127	-460.214389	34.923	
C	 0.1373458475	 1.5816295043	-0.0732976661	-0.401739
C	 0.0595926398	 0.0747796749	 0.0387595135	-0.041749
C	 1.3267840312	-0.7612908131	 0.0831180382	-0.313669
C	 0.4518792146	-0.6374141284	 1.2960958135	 0.128762
O	 0.9109896649	 0.185983163	 2.3606269695	-0.238649
C	 1.3679440068	-0.4417590668	 3.4515216653	 0.413508
O	 1.4044266974	-1.6394327359	 3.6050547494	-0.369026
C	 1.8376855469	 0.5329486144	 4.5166600587	-0.145579
O	 2.2947725436	-0.152827838	 5.6468006303	-0.419327
H	 0.980474502	 1.9790546699	 0.4968084863	 0.126985
H	 0.2598014114	 1.8842770333	-1.1181607393	 0.122069
H	-0.7738827657	 2.0532073033	 0.3094236426	 0.122942
H	-0.7822710943	-0.3729203484	-0.4829148537	 0.09639
H	 1.3654548591	-1.7155743946	-0.4298849891	 0.123835
H	 2.2660224702	-0.2185337583	 0.1069147471	 0.123949
H	-0.1080001795	-1.4955741323	 1.6457823778	 0.125153
H	 2.6281081775	 1.16302293	 4.0812352184	 0.123405
H	 1.0012067218	 1.2037892571	 4.763575866	 0.125781
H	 2.1863779146	-1.0934522645	 5.4410758817	 0.29696
24.2607	75.4175	101.8102	112.5288	191.1798	216.7233	297.8458	333.5101	355.4507	385.4537	473.3042	531.5058	588.0387	719.0986	762.6472	827.1333	867.6448	908.748	941.897	997.8921	1037.886	1040.3542	1072.3797	1108.7966	1128.0133	1138.4506	1168.1402	1195.9763	1238.0446	1242.2256	1262.3117	1317.4633	1374.2529	1413.4883	1422.3382	1467.1433	1485.8338	1493.2224	1498.3074	1505.7506	1808.1606	2995.2197	3016.1443	3038.8967	3099.0476	3120.1496	3135.5947	3144.421	3193.9557	3225.3049	3717.4921
CC1CC1OC(=O)CO	C[C@H]1C[C@H]1OC(=O)CO	
InChI=1S/C6H10O3/c1-4-2-5(4)9-6(8)3-7/h4-5,7H,2-3H2,1H3	InChI=1S/C6H10O3/c1-4-2-5(4)9-6(8)3-7/h4-5,7H,2-3H2,1H3/t4-,5+/m0/s1
