21
gdb 93220	2.67297	1.2967	0.93101	2.8719	79.24	-0.2297	-0.0199	0.2098	1297.7058	0.181728	-424.262344	-424.253041	-424.252097	-424.296331	34.959	
C	-0.0609891914	 1.5449726211	 0.0765114318	-0.404625
C	 0.0033579866	 0.0270859999	-0.0044319444	 0.130943
C	 0.7079905243	-0.4817749115	-1.2646405871	-0.20058
C	 0.8088170125	-2.0210909551	-1.2832989921	-0.107352
C	 1.6198245824	-2.5668098947	-2.4573989063	-0.400804
C	 1.3135360254	-2.5375811714	 0.0622304605	 0.378641
O	 2.0800081823	-3.4652869142	 0.1746415516	-0.305195
C	 0.7322312051	-1.8272743118	 1.2869784116	-0.176765
O	 0.7060912953	-0.4203443892	 1.1528672893	-0.255194
H	 0.9472455849	 1.9700327152	 0.06164728	 0.127241
H	-0.623286201	 1.9520831218	-0.7688552366	 0.116142
H	-0.5499483726	 1.8554536513	 1.0033807571	 0.126612
H	-1.0231486779	-0.3835982249	 0.0221838606	 0.061184
H	 0.17741777	-0.1373021376	-2.1600432878	 0.100067
H	 1.7152868493	-0.0469235326	-1.2975583376	 0.10891
H	-0.2223558017	-2.4080932708	-1.350587987	 0.098643
H	 2.6487896209	-2.1949725115	-2.4242003827	 0.124955
H	 1.6647813562	-3.6572672709	-2.4265730772	 0.134827
H	 1.1757586596	-2.2580977985	-3.4086315597	 0.108617
H	-0.2861234777	-2.2252008078	 1.4582891649	 0.101334
H	 1.3441966073	-2.0667303766	 2.1587974111	 0.132399
68.1655	128.7226	184.7245	203.4218	221.2374	258.9737	286.5384	350.422	382.029	421.7808	489.3131	508.08	563.1678	692.9225	728.8279	838.2148	884.6341	923.8495	932.9031	950.3362	1013.5601	1051.5185	1087.628	1126.9692	1133.121	1162.1374	1183.8091	1192.6169	1217.8867	1277.4814	1290.3636	1332.4282	1359.0852	1362.4541	1390.7773	1397.0086	1409.0399	1413.3808	1469.6242	1478.2112	1484.9973	1490.5936	1496.9145	1499.88	1817.8978	2927.6096	2932.4335	2968.6147	3023.2479	3043.8801	3044.9081	3069.0477	3109.7355	3116.3234	3118.3707	3124.9823	3132.7186
CC1CC(C)C(=O)CO1	C[C@H]1C[C@@H](C)C(=O)CO1	
InChI=1S/C7H12O2/c1-5-3-6(2)9-4-7(5)8/h5-6H,3-4H2,1-2H3	InChI=1S/C7H12O2/c1-5-3-6(2)9-4-7(5)8/h5-6H,3-4H2,1-2H3/t5-,6+/m1/s1
