21
gdb 110932	2.65275	1.09542	0.93759	2.4358	78.66	-0.2416	0.064	0.3055	1359.256	0.181884	-424.176593	-424.167278	-424.166334	-424.211211	34.76	
C	-1.0126151098	 1.6820802379	 0.4780077263	-0.383842
C	-0.5749311532	 0.2583590829	 0.1110703684	-0.20975
C	 0.1926512914	-0.3992989719	 1.2415752896	-0.000231
C	-0.4175333031	-1.3058010393	 2.2595769443	 0.07792
O	-1.4051681711	-2.1695851711	 1.6767451877	-0.317976
C	-0.3606263765	-2.8652186229	 0.9248243807	 0.13044
C	-0.7469469482	-3.1199825536	-0.5206185665	-0.091544
O	-1.9387905185	-3.8848485741	-0.5806133197	-0.421891
C	 0.6829341408	-1.8387270308	 1.3583632035	-0.221203
H	-0.1489865543	 2.3215251538	 0.692601054	 0.112851
H	-1.5742797406	 2.144669036	-0.3391223687	 0.113707
H	-1.6529559981	 1.6794288268	 1.3662489884	 0.121414
H	-1.4588865415	-0.3416441171	-0.1199953894	 0.113061
H	 0.0416726646	 0.2846315138	-0.7960729335	 0.097199
H	 0.9301611131	 0.2599560636	 1.7015322099	 0.088416
H	-0.4750401539	-1.1401102234	 3.329525577	 0.103036
H	-0.1803092555	-3.8308770813	 1.4157872494	 0.091706
H	-0.8423272361	-2.1790255774	-1.0768724128	 0.094629
H	 0.0372717801	-3.714300293	-1.0035412426	 0.108821
H	-2.5935795713	-3.4078143522	-0.0571743746	 0.294751
H	 1.7131821718	-2.0738584767	 1.5899935186	 0.098485
63.3766	80.4305	141.7807	165.6259	213.1757	257.1996	276.5525	391.2921	421.2075	455.1239	538.5228	596.3427	722.9246	765.3753	801.0963	827.1527	857.8216	892.0675	955.3556	1002.1697	1014.1245	1023.4131	1038.9157	1057.6062	1069.1704	1084.0516	1098.9525	1134.6186	1144.2106	1211.4603	1216.6984	1261.5463	1283.1583	1309.596	1319.9503	1347.6552	1362.6329	1402.5392	1408.0111	1433.1953	1451.455	1485.6275	1498.5253	1501.4769	1505.9444	3015.117	3025.3437	3029.996	3031.6456	3072.9766	3083.6765	3101.0687	3107.3136	3111.5185	3173.7945	3200.6732	3795.4405
CCC1C2OC(CO)C12	CC[C@H]1[C@H]2O[C@@H](CO)[C@@H]12	
InChI=1S/C7H12O2/c1-2-4-6-5(3-8)9-7(4)6/h4-8H,2-3H2,1H3	InChI=1S/C7H12O2/c1-2-4-6-5(3-8)9-7(4)6/h4-8H,2-3H2,1H3/t4-,5+,6-,7-/m1/s1
