21
gdb 80943	2.36885	1.32854	1.22976	0.7109	90.06	-0.2502	0.0468	0.297	1187.6795	0.181057	-349.882086	-349.872907	-349.871962	-349.915364	35.923	
C	-0.1095840896	 1.6346204288	-0.0033411409	-0.448369
C	 0.0320234774	 0.1199756006	 0.0092223253	 0.013869
C	 1.1858550287	-0.608996271	-0.7492121048	-0.068022
C	 2.1591637693	-0.1557046617	 0.3728658337	-0.287991
C	 0.8677474134	-0.6225932771	 1.114910309	 0.32664
C	 0.6053989921	-0.6603290502	 2.5959531348	-0.519262
C	 0.8931781977	-1.8654199771	 0.1414548605	-0.205564
C	-0.3052033125	-2.6539593946	-0.0583416865	 0.30643
C	-1.2808081994	-3.3429899016	-0.2073997494	-0.449555
H	 0.8312611673	 2.1700053603	 0.1476413237	 0.116119
H	-0.527250592	 1.9678612988	-0.959946671	 0.118812
H	-0.8028461144	 1.9583497343	 0.7813096712	 0.117803
H	-0.9472479458	-0.3380907812	-0.1597512332	 0.079029
H	 1.3706747423	-0.6211510738	-1.8241426653	 0.073431
H	 3.0519535852	-0.7704138324	 0.5226640488	 0.087369
H	 2.4097208242	 0.9036430645	 0.4229144412	 0.093953
H	 0.6047423921	 0.3495497437	 3.020842115	 0.120065
H	-0.3681991239	-1.1164283067	 2.8050226138	 0.128983
H	 1.3709688365	-1.2432351889	 3.1196760371	 0.119024
H	 1.760722883	-2.5182889203	 0.2851100095	 0.088315
H	-2.1435790714	-3.9461079343	-0.3459311525	 0.18892
119.9117	142.7032	169.2963	192.6554	197.7206	289.4327	329.9811	354.6345	441.482	507.6222	514.8443	610.7266	623.7592	634.4911	638.0875	764.7138	772.1437	796.3448	881.3729	902.6687	936.7978	1003.6615	1018.3066	1021.533	1069.3441	1093.5916	1108.0074	1117.4128	1130.4733	1175.716	1200.2138	1213.8403	1225.4829	1246.3545	1310.8473	1375.398	1406.9161	1409.5199	1429.3909	1487.4229	1489.1679	1496.5106	1499.1093	1535.3871	2225.4766	3026.6482	3032.7891	3047.3639	3057.217	3061.0852	3087.7207	3093.6912	3098.211	3105.598	3113.1088	3137.4931	3503.4862
CC1C2CC1(C)C2C#C	C[C@H]1[C@H]2C[C@]1(C)[C@H]2C#C	
InChI=1S/C9H12/c1-4-8-7-5-9(8,3)6(7)2/h1,6-8H,5H2,2-3H3	InChI=1S/C9H12/c1-4-8-7-5-9(8,3)6(7)2/h1,6-8H,5H2,2-3H3/t6-,7+,8-,9-/m0/s1
