22
gdb 120755	3.69568	0.70695	0.64007	2.5404	83.86	-0.2458	0.0727	0.3185	1820.2226	0.193302	-404.302439	-404.292538	-404.291594	-404.338564	35.743	
C	 0.1143510791	 1.5313412175	 0.2249415218	-0.382755
C	 0.0379434164	 0.0217545518	-0.0152504569	-0.159625
C	 0.9911738562	-0.4612161299	-1.1163582835	-0.177889
C	 0.9000972741	-1.9551488531	-1.336458752	-0.018166
N	-0.2019645214	-2.4457418028	-2.1782712671	-0.343075
C	 1.1872631256	-2.6445686657	-2.6270722278	-0.05784
C	 1.5995729576	-1.9405168962	-3.8771235188	 0.092952
C	 2.9488858955	-2.1010367561	-4.4343135804	-0.1818
O	 1.835398146	-2.7774436642	-5.0167427661	-0.238092
H	 1.1239897525	 1.8356779852	 0.5231659697	 0.111979
H	-0.1437082983	 2.0897383234	-0.6818403254	 0.116037
H	-0.5747452198	 1.8449862494	 1.0152163416	 0.112216
H	 0.2642873502	-0.5106865751	 0.9185543791	 0.089831
H	-0.9850860099	-0.261352304	-0.2905189309	 0.111362
H	 0.7599378986	 0.0629758783	-2.049884782	 0.101256
H	 2.0252078896	-0.1990671688	-0.8534384323	 0.093568
H	 1.1327080419	-2.5427696227	-0.4469350743	 0.080485
H	-0.5892331582	-3.3119717833	-1.8156805583	 0.233681
H	 1.6047858993	-3.6483489983	-2.5579088267	 0.087982
H	 1.0483506463	-1.0294535881	-4.1032496517	 0.103734
H	 3.3853361097	-1.3043192975	-5.0353644575	 0.114631
H	 3.6686049689	-2.7399814199	-3.9228256805	 0.109529
50.5695	66.3989	82.8682	113.2789	188.7741	242.0616	265.663	305.4777	347.822	425.1165	485.8027	574.2359	743.6017	804.7282	818.4279	858.7646	867.3516	897.9662	908.2996	926.8701	976.6995	1010.3799	1026.0126	1056.6329	1093.7375	1100.0394	1128.7701	1153.9976	1155.7431	1171.1981	1218.0571	1246.885	1267.0217	1277.3477	1289.6261	1304.6274	1329.7442	1346.928	1387.1427	1410.6033	1441.3885	1472.3895	1492.3706	1494.2317	1499.52	1509.2473	1533.2066	3014.2001	3018.6415	3028.737	3053.5607	3072.2218	3078.3671	3091.8629	3097.3314	3101.8288	3116.7813	3131.3326	3164.0204	3513.1266
CCCC1NC1C1CO1	CCC[C@H]1N[C@H]1[C@H]1CO1	
InChI=1S/C7H13NO/c1-2-3-5-7(8-5)6-4-9-6/h5-8H,2-4H2,1H3	InChI=1S/C7H13NO/c1-2-3-5-7(8-5)6-4-9-6/h5-8H,2-4H2,1H3/t5-,6-,7-/m1/s1
