16
gdb 51361	3.51288	1.34825	1.17217	5.101	69.58	-0.238	0.0311	0.2691	1057.3547	0.123279	-437.779174	-437.771604	-437.77066	-437.811775	28.64	
N	-0.2227906302	 1.1484332494	-0.0104701018	-0.444949
C	-0.5880983755	-0.0248080672	 0.2737405252	 0.139435
O	-0.8235238717	-0.9092125976	-0.7187216804	-0.180141
C	-1.0666801965	-2.2430279869	-0.3697493157	 0.11723
C	-1.8629900319	-2.8069268389	 0.7780463363	-0.184287
C	-3.2365375248	-2.1156220668	 1.0355630121	 0.024352
O	-3.3797559322	-0.985131212	 0.171182789	-0.230078
C	-3.6381280913	-2.2925577007	-0.352415749	 0.030272
C	-2.3006462727	-3.0125170832	-0.7004624534	-0.148407
H	-0.1046603439	 1.686690538	 0.8453928322	 0.225867
H	-0.7494956	-0.443082766	 1.2739177974	 0.08856
H	-0.1757514277	-2.8474637699	-0.544804473	 0.115794
H	-1.440421635	-3.5347880388	 1.4596661784	 0.105075
H	-3.7957160951	-2.1290955609	 1.9626941446	 0.116794
H	-4.6013132126	-2.4755020363	-0.811172149	 0.119488
H	-2.2688650492	-3.9215286622	-1.2876471029	 0.104995
62.7057	143.4962	147.9341	240.7904	311.6806	399.4922	557.8478	591.3081	688.9306	731.9597	738.4442	781.1264	816.976	837.984	866.6024	901.7823	942.6166	962.6074	986.3046	1008.0642	1040.1814	1048.9181	1060.432	1079.4059	1106.4451	1210.7216	1240.6597	1253.3114	1281.5833	1295.9412	1325.3543	1392.8747	1412.4699	1447.3799	1744.5654	3052.9867	3098.958	3185.0017	3194.9584	3196.6003	3210.0685	3515.9431
N=COC1C2C3OC3C12	[NH][CH]O[C@H]1[C@H]2[C@H]3O[C@H]3[C@@H]12	
InChI=1S/C6H7NO2/c7-1-8-4-2-3(4)6-5(2)9-6/h1-7H	InChI=1S/C6H7NO2/c7-1-8-4-2-3(4)6-5(2)9-6/h1-7H/t2-,3+,4-,5+,6-
