20
gdb 86322	1.91955	1.71843	1.1357	4.302	75.14	-0.2455	0.0151	0.2606	1152.2153	0.170827	-440.317423	-440.307944	-440.306999	-440.351754	35.675	
C	-0.091321173	 1.5794478979	 0.0177638499	-0.417152
C	-0.0057696257	 0.061263501	 0.0762985314	 0.040392
C	 0.8102974675	-0.6859939396	-1.0112155785	-0.276234
C	 1.308878059	-1.6710104852	 0.0791368384	 0.167991
O	 2.621804466	-2.1341837118	 0.0520838197	-0.439147
C	 0.8769046167	-0.6354454307	 1.182745926	-0.214939
C	 2.0309253934	 0.2230540466	 1.6511314146	 0.452022
N	 1.9011072434	 0.7663934989	 2.8903244485	-0.526515
O	 3.0200257873	 0.4447895818	 0.958524175	-0.403156
H	 0.9041964227	 2.0285716427	-0.0498219428	 0.136165
H	-0.6607718219	 1.8951207427	-0.8630630723	 0.117156
H	-0.5920905038	 1.9920258537	 0.9010256154	 0.106512
H	-1.0135269612	-0.3613312809	 0.1460672518	 0.076904
H	 0.2703061983	-1.0984764358	-1.8669129417	 0.092987
H	 1.6406816052	-0.0710715082	-1.3687804154	 0.11619
H	 0.6631025261	-2.5525241551	 0.139021192	 0.085678
H	 3.1785022724	-1.3427779542	 0.1264077613	 0.295424
H	 0.325313126	-1.0374880387	 2.0376939025	 0.063541
H	 1.108534749	 0.5814933589	 3.4786043122	 0.263037
H	 2.6430385524	 1.3523898159	 3.2378888219	 0.263146
55.5337	102.2206	159.2988	205.4072	230.647	237.6614	298.2415	360.0386	411.6515	437.7944	478.8524	563.0409	603.2492	630.1271	690.388	736.7273	791.6989	814.4792	891.2042	925.8233	959.1922	977.9301	1062.5235	1081.4442	1098.0529	1122.8605	1141.6662	1172.3006	1218.5179	1244.2169	1254.8431	1273.5395	1293.463	1342.7159	1368.8011	1410.7514	1421.6778	1472.1392	1479.6181	1493.2215	1504.4787	1616.1714	1745.2486	3028.7731	3042.9317	3054.1032	3060.5796	3066.9006	3091.4878	3109.4597	3120.3632	3601.4584	3686.9929	3742.0914
CC1CC(O)C1C(N)=O	C[C@H]1C[C@@H](O)[C@H]1C(=O)N	
InChI=1S/C6H11NO2/c1-3-2-4(8)5(3)6(7)9/h3-5,8H,2H2,1H3,(H2,7,9)	InChI=1S/C6H11NO2/c1-3-2-4(8)5(3)6(7)9/h3-5,8H,2H2,1H3,(H2,7,9)/t3-,4+,5-/m0/s1
