14
gdb 12349	3.28657	2.25512	1.39204	2.6632	59.	-0.2597	-0.0328	0.2268	826.8278	0.109241	-415.903218	-415.896415	-415.895471	-415.934187	25.65	
O	 0.0462868506	 1.3846065736	 0.1971755958	-0.432268
C	 0.0270797124	-0.0056673451	 0.0320579152	 0.014473
C	-1.4028281713	-0.5582298005	 0.0623885279	-0.185397
N	-1.4746343287	-1.9831416719	-0.2604097607	-0.230682
C	-0.624387299	-2.4199932581	-1.091414175	 0.092573
N	 0.3902631485	-1.6653111337	-1.697579126	-0.343511
C	 0.7046635167	-0.3938805946	-1.2770440049	 0.401377
O	 1.4714179671	 0.3428830123	-1.8621001884	-0.370659
H	 0.7219742567	 1.7116709413	-0.4162387807	 0.297294
H	 0.6064919056	-0.5091413359	 0.8291538857	 0.103342
H	-1.8416266978	-0.3918947587	 1.0491367946	 0.129657
H	-2.0189672061	 0.0008259067	-0.656658461	 0.127565
H	-0.6484987718	-3.4609163755	-1.410451677	 0.131054
H	 0.8911329772	-2.0301067998	-2.4959164356	 0.265181
121.8975	159.2249	293.8584	355.0818	408.9916	448.5383	507.0015	519.1686	557.5963	613.8149	693.6951	781.3389	897.5503	937.5984	976.3839	1040.1323	1067.8478	1089.7424	1158.0783	1207.1989	1256.456	1291.5458	1320.4154	1388.9678	1414.3402	1445.477	1455.7667	1489.4843	1737.7755	1809.7734	2928.1509	3017.1982	3095.8952	3147.2494	3603.6409	3714.2557
OC1CN=CNC1=O	O[C@H]1CN=CNC1=O	
InChI=1S/C4H6N2O2/c7-3-1-5-2-6-4(3)8/h2-3,7H,1H2,(H,5,6,8)	InChI=1S/C4H6N2O2/c7-3-1-5-2-6-4(3)8/h2-3,7H,1H2,(H,5,6,8)/t3-/m0/s1
