18
gdb 76382	2.54168	1.20858	1.1514	5.2663	68.91	-0.2486	0.019	0.2676	1175.6938	0.146818	-476.245723	-476.236346	-476.235402	-476.279807	34.786	
C	-0.1163751895	 1.6306339678	 0.0156019163	-0.422218
C	-0.0308933181	 0.1233391928	-0.0579203133	-0.063714
C	 0.5338912922	-0.6082482221	-1.2481403782	-0.107608
N	 1.1891944758	 0.142175143	-2.2910162116	-0.526285
H	 2.598116747	 0.4469920799	-0.8542131988	 0.292372
H	 1.5162557347	-0.4709937037	-3.0284679293	 0.250618
H	 0.5751705669	 0.8323378635	-2.7094969675	 0.251123
C	 1.3065638542	-0.5815624038	 0.0771470703	 0.222722
O	 2.4797392338	 0.176235041	 0.0776588488	-0.488277
C	 1.3931646645	-1.848980415	 0.8659816732	 0.403836
O	 2.611188688	-2.0888532031	 1.3816275039	-0.380467
O	 0.463553494	-2.6010842121	 1.013300394	-0.359331
H	 0.7970631434	 2.1073716746	-0.3454327495	 0.12751
H	-0.9603869659	 2.0059328034	-0.573601867	 0.117515
H	-0.2679141312	 1.9508489755	 1.0507348038	 0.134428
H	-0.8407585568	-0.4174684984	 0.4224175266	 0.12275
H	 0.0622090254	-1.5527299552	-1.5068030959	 0.11397
H	 3.1755333717	-1.3425594982	 1.1143245542	 0.311055
84.6058	124.3138	143.8958	180.356	208.2037	246.0978	275.8867	331.8442	385.5554	505.5653	517.1971	594.203	647.0294	662.8339	695.7558	716.3181	755.4015	820.5398	838.517	906.5162	985.4682	1017.7218	1039.205	1063.916	1144.0627	1152.1499	1194.5568	1232.8022	1247.0575	1300.4991	1362.1676	1378.8888	1401.6078	1418.2748	1457.6299	1492.4478	1501.2858	1651.2572	1853.9905	3039.584	3099.7764	3129.544	3139.2411	3165.4803	3515.5884	3556.8933	3595.8754	3667.9086
CC1C([NH3+])C1(O)C([O-])=O	C[C@H]1[C@@H](N)[C@]1(O)C(=O)O	
InChI=1S/C5H9NO3/c1-2-3(6)5(2,9)4(7)8/h2-3,9H,6H2,1H3,(H,7,8)	InChI=1S/C5H9NO3/c1-2-3(6)5(2,9)4(7)8/h2-3,9H,6H2,1H3,(H,7,8)/t2-,3+,5-/m0/s1
