17
gdb 29797	2.40993	1.36729	0.87814	5.1611	81.77	-0.1952	-0.0223	0.1729	1279.9353	0.136376	-418.052438	-418.043367	-418.042422	-418.086558	32.688	
C	-0.0103218801	 1.4531918962	-0.0008657877	-0.335851
N	 0.0010573492	 0.0053302022	 0.0023086657	 0.020312
C	 0.0078692779	-0.7835058416	-1.1429380262	-0.167952
C	 0.013430042	-2.1034923296	-0.7540609712	 0.125674
N	-0.0559947419	-3.2281959998	-1.5845200811	-0.605675
C	 0.012616466	-2.1160076086	 0.684998232	 0.126957
C	-0.0021112861	-3.2580500818	 1.5751643222	 0.061544
O	 0.0083365031	-3.202574765	 2.790663161	-0.3054
C	 0.0088872386	-0.784677517	 1.0944881521	-0.152979
H	 0.8695244052	 1.8473197793	-0.5198479089	 0.143468
H	-0.9089147469	 1.8336266791	-0.4974449023	 0.145067
H	 0.000156646	 1.8122912563	 1.0291600402	 0.148738
H	 0.0038576478	-0.3328760531	-2.1222853946	 0.110773
H	 0.2281047884	-3.0377278127	-2.5360887438	 0.243161
H	 0.4592947655	-4.0229158699	-1.2312350385	 0.249158
H	-0.0302034462	-4.2484981669	 1.0631622338	 0.042943
H	 0.0089793612	-0.380705727	 2.0937922674	 0.150062
61.5978	145.5495	161.1579	171.6794	193.8622	238.6051	278.0185	359.533	395.5103	553.1802	604.9676	614.9028	623.1855	674.3827	676.0324	745.7548	799.564	875.8867	1028.9579	1035.6296	1084.3113	1108.0708	1150.2934	1182.8038	1210.3093	1260.9952	1371.6262	1417.9693	1449.2659	1454.9355	1479.1908	1483.455	1527.1144	1566.6534	1612.821	1660.6597	1768.1884	2845.1711	3036.0398	3093.7701	3144.2033	3259.9178	3272.3489	3547.3504	3636.8499
CN1C=C(N)C(C=O)=C1	Cn1cc(N)c(C=O)c1	
InChI=1S/C6H8N2O/c1-8-2-5(4-9)6(7)3-8/h2-4H,7H2,1H3	InChI=1S/C6H8N2O/c1-8-2-5(4-9)6(7)3-8/h2-4H,7H2,1H3
