17
gdb 50490	3.89845	0.96083	0.89502	2.9115	73.57	-0.2473	-0.0468	0.2005	1292.4519	0.137394	-418.032679	-418.024336	-418.023392	-418.066456	30.134	
O	 0.2477088795	 0.0383042795	 1.2240137839	-0.245811
C	 0.064046943	 1.0091126906	 0.5345314335	 0.15276
C	 1.1493060892	 1.6785879491	-0.2921327204	-0.06678
C	 1.4472755401	 3.1073546716	 0.2555321188	-0.254779
C	 2.7076218831	 2.8759671109	 1.1201808712	-0.149351
C	 3.4540919981	 1.8001315699	 0.2850765659	-0.169628
N	 2.4043925274	 0.9289536685	-0.2445907183	-0.305533
C	 3.4771531584	 4.0859024342	 1.3763238894	 0.263538
N	 4.1012028298	 5.0405829514	 1.5649886238	-0.318729
H	-0.9366853707	 1.4885394813	 0.4645016952	 0.096397
H	 0.7535222137	 1.7610554242	-1.3157045575	 0.106221
H	 1.6805419587	 3.7883421043	-0.5664481475	 0.137996
H	 0.6152792155	 3.53821889	 0.8182908715	 0.126629
H	 2.4166142359	 2.4387249197	 2.0823586053	 0.134399
H	 3.9978368095	 2.2926898599	-0.5302901535	 0.124796
H	 4.1782724634	 1.2324315575	 0.8729615745	 0.12776
H	 2.2610417856	 0.1292296176	 0.3659810442	 0.240115
56.5592	107.1868	146.7855	154.3977	272.7425	300.9807	354.9434	506.3422	539.247	539.884	658.2756	717.7995	769.5103	836.2901	877.0147	893.6152	978.6618	988.9464	1017.7933	1038.9071	1067.0567	1097.9613	1162.9022	1195.6784	1244.7373	1264.4148	1285.7023	1312.7012	1324.28	1344.6265	1383.3383	1413.6901	1488.9291	1493.6234	1513.5471	1823.3218	2357.0631	2899.8383	2991.0716	3031.1439	3049.8738	3070.291	3112.4257	3117.9603	3506.7312
O=CC1CC(CN1)C#N	O=C[C@H]1C[C@@H](CN1)C#N	
InChI=1S/C6H8N2O/c7-2-5-1-6(4-9)8-3-5/h4-6,8H,1,3H2	InChI=1S/C6H8N2O/c7-2-5-1-6(4-9)8-3-5/h4-6,8H,1,3H2/t5-,6-/m1/s1
