16
gdb 80270	2.88923	1.52563	1.34352	3.7608	71.15	-0.2405	-0.0374	0.203	984.8515	0.126042	-437.90817	-437.900655	-437.899711	-437.940137	29.325	
O	 0.1256289923	 1.3762521512	-0.1095778633	-0.413863
C	 0.0248827256	 0.0003862356	-0.060074274	 0.104516
C	-0.451819242	-0.6627771223	 1.2028024039	-0.069424
N	-0.8793159979	 0.1889054539	 2.2724475123	-0.346246
C	-2.0442026706	 0.9382023594	 2.3150139166	 0.374227
O	-2.3343460247	 1.5922301609	 3.3012660823	-0.374745
C	-2.8873348621	 0.8739359958	 1.1030054344	-0.174584
C	-2.5910866888	 0.0971183075	 0.0537582248	-0.038423
C	-1.3537625233	-0.6912102324	-0.024419675	-0.169073
H	 0.0677905772	 1.7087578848	 0.7965291158	 0.296769
H	 0.7835202861	-0.5078523563	-0.6485524486	 0.110748
H	 0.0171651409	-1.584021481	 1.5329739406	 0.11071
H	-0.3712552583	 0.1645743684	 3.1441689323	 0.252911
H	-3.7939248858	 1.464433927	 1.1522412122	 0.118286
H	-3.2780577293	 0.0302944227	-0.7857505804	 0.113935
H	-1.4124691995	-1.6243883351	-0.5749993537	 0.104256
86.2645	161.4523	230.969	314.0237	329.1121	443.4763	472.9287	525.6444	561.6134	565.5857	665.841	737.0001	752.956	763.5818	805.7755	852.485	919.8	944.0695	998.4426	1006.6898	1049.221	1078.9847	1111.4392	1153.2679	1180.0342	1229.0331	1305.1968	1343.7264	1369.6084	1391.7919	1412.7262	1427.0311	1473.6045	1679.8786	1780.2299	3145.4454	3152.2589	3159.8562	3169.0437	3216.6531	3617.4736	3742.0096
OC1C2NC(=O)C=CC12	O[C@H]1[C@H]2NC(=O)C=C[C@@H]12	
InChI=1S/C6H7NO2/c8-4-2-1-3-5(7-4)6(3)9/h1-3,5-6,9H,(H,7,8)	InChI=1S/C6H7NO2/c8-4-2-1-3-5(7-4)6(3)9/h1-3,5-6,9H,(H,7,8)/t3-,5+,6-/m1/s1
