23
gdb 80543	2.39033	1.44523	1.21665	1.2749	85.08	-0.2548	0.0792	0.334	1175.0539	0.206906	-388.280624	-388.271698	-388.270754	-388.313363	35.787	
C	-0.143085304	 1.6389159855	-0.059009884	-0.447601
C	-0.00718051	 0.1227834812	-0.0211432785	 0.065256
C	 1.0620971059	-0.6362691561	-0.8680262671	-0.09189
C	 2.4000153858	-0.1027554631	-0.3179699178	-0.248003
C	 2.1175428476	-0.2193850731	 1.2244676991	 0.056175
C	 2.4108087805	 1.0161672508	 2.0750198713	-0.428268
C	 0.649252985	-0.6968781627	 1.1455509981	-0.072131
C	 0.8051565271	-1.8376884997	 0.0983962643	 0.150303
O	-0.392108196	-2.5586220403	-0.0956830789	-0.451555
H	 0.81247466	 2.1677146225	-0.0552036801	 0.116681
H	-0.6751431136	 1.9415570364	-0.9684923728	 0.10997
H	-0.7275979217	 2.0030439614	 0.7935441143	 0.114863
H	-0.9832600574	-0.3232470193	-0.2181922901	 0.089682
H	 0.9697464054	-0.7450332759	-1.9517086557	 0.045843
H	 3.2526516809	-0.7128968947	-0.6320989753	 0.090538
H	 2.6021545098	 0.9263671112	-0.6306752125	 0.097392
H	 2.7218985978	-1.0382297438	 1.6344319114	 0.069694
H	 1.8321510216	 1.8905298583	 1.7704963341	 0.119904
H	 2.1846179731	 0.8222723677	 3.1294775733	 0.11139
H	 3.4721170921	 1.2819709584	 2.0111397351	 0.110457
H	 0.1251360924	-0.8753884184	 2.0861171507	 0.056996
H	 1.6505528658	-2.5237596252	 0.2554627033	 0.053126
H	-0.322842698	-3.027139461	-0.9334951225	 0.281178
165.0119	178.0462	215.8241	237.7731	254.0368	260.9898	301.9544	310.2253	375.3513	439.7039	487.7245	607.6272	659.5563	714.1264	792.3163	815.4904	890.167	895.4383	924.9448	933.7444	953.5721	1000.2786	1035.824	1052.5148	1057.372	1070.6152	1097.3936	1136.1168	1151.4022	1156.9745	1194.9166	1198.1861	1218.1558	1235.1785	1270.2254	1287.2905	1300.935	1327.8668	1340.3548	1390.6035	1404.5648	1414.3494	1416.8609	1432.563	1491.0073	1493.3532	1500.2667	1510.0629	1512.2025	2986.298	3014.9662	3029.5661	3033.9415	3045.8021	3079.4558	3083.3284	3084.6972	3088.6624	3093.9937	3103.4347	3118.1514	3133.287	3814.3885
CC1C2CC(C)C1C2O	C[C@H]1[C@H]2C[C@@H](C)[C@@H]1[C@H]2O	
InChI=1S/C8H14O/c1-4-3-6-5(2)7(4)8(6)9/h4-9H,3H2,1-2H3	InChI=1S/C8H14O/c1-4-3-6-5(2)7(4)8(6)9/h4-9H,3H2,1-2H3/t4-,5+,6-,7+,8+/m1/s1
