12
gdb 20396	4.95031	2.15903	1.5337	4.9059	56.41	-0.2296	-0.0455	0.1841	747.7041	0.085006	-414.612893	-414.606887	-414.605943	-414.643519	21.817	
C	 0.0369336292	 1.3740408155	-0.1164649223	-0.090939
C	 1.5308504198	 1.8531894137	 0.0733264791	-0.378298
C	 2.0950729005	 0.5928120401	 0.6351117842	 0.291533
C	 1.1707184339	-0.3886283175	 0.6097321176	 0.358403
O	-0.0471069603	-0.0716072485	 0.1228202833	-0.27396
N	 1.7226728943	-1.5284266413	 1.085755077	-0.211706
N	 2.9287721055	-1.3094666251	 1.4016416837	-0.034901
O	 3.2280967783	 0.116473387	 1.1110441924	-0.230904
H	-0.6238807188	 1.860936812	 0.6053915013	 0.137745
H	-0.3364371767	 1.5566490629	-1.124953975	 0.139658
H	 1.9999351063	 2.1375850027	-0.8750427944	 0.146677
H	 1.593864858	 2.7130416583	 0.746112363	 0.146693
64.5379	206.7611	323.4925	424.4652	491.277	620.0631	646.3334	706.24	733.9351	781.1216	828.3098	920.6922	971.7261	998.1804	1070.7046	1181.5308	1193.9706	1241.4834	1271.5824	1336.6302	1381.648	1424.8664	1485.6444	1497.1141	1516.8542	1662.1062	3043.8914	3068.7713	3087.3243	3131.8725
C1CC2=C(O1)N=NO2	C1Cc2c(O1)nno2	
InChI=1S/C4H4N2O2/c1-2-7-4-3(1)8-6-5-4/h1-2H2	InChI=1S/C4H4N2O2/c1-2-7-4-3(1)8-6-5-4/h1-2H2
