20
gdb 106194	3.30576	1.41167	1.36211	1.9026	80.69	-0.2182	0.076	0.2942	1062.2706	0.17261	-365.963291	-365.955806	-365.954862	-365.995321	30.115	
C	 0.109349171	 1.5218243054	 0.1735438804	-0.373468
C	-0.0221263451	 0.0208621674	-0.121208516	-0.321203
C	-1.4376448006	-0.4708310001	-0.0512870973	 0.360207
C	-2.2057559056	-0.8465788443	 1.2149689708	-0.129851
C	-3.6228818265	-0.3117010175	 1.1805150903	-0.245951
C	-3.8446384724	-0.4012667531	-0.3125972148	-0.045521
C	-2.5767198205	-0.1828884832	-1.0532380987	-0.113794
N	-3.1262740912	-1.5712990488	-0.9136352221	-0.159002
C	-2.0330138275	-1.8454505645	 0.096966461	-0.101756
H	 1.1508813139	 1.8490320001	 0.0985794031	 0.112188
H	-0.4785127869	 2.116706905	-0.5337206263	 0.118824
H	-0.2487646998	 1.7564545991	 1.1811629632	 0.117845
H	 0.3904390149	-0.1950227288	-1.1158033586	 0.10309
H	 0.5887285046	-0.5496196676	 0.5895701285	 0.099441
H	-1.6546189268	-0.983252132	 2.1375135886	 0.087692
H	-4.3225335429	-0.9386230464	 1.7438982898	 0.108236
H	-3.7041752108	 0.7185348898	 1.5440835369	 0.105746
H	-4.8049787829	-0.1815715123	-0.7657960182	 0.093948
H	-2.4784204234	 0.2950749107	-2.0219074459	 0.090142
H	-1.5971250315	-2.8330483287	 0.1725313756	 0.093187
81.8893	131.9438	198.8297	304.8156	353.8029	401.5066	539.6269	605.7383	714.5801	731.2867	754.8022	778.2485	806.8252	821.2058	863.4886	894.1365	920.2599	952.1947	967.7362	980.7419	991.1386	1008.5956	1029.8146	1045.3046	1057.4767	1083.1094	1110.3837	1160.4727	1177.8453	1200.5569	1214.3674	1247.1341	1276.9795	1299.4416	1323.8254	1358.2631	1372.4665	1408.7793	1451.5889	1480.6268	1487.5341	1498.2221	1506.8768	3014.9899	3033.7341	3042.3017	3048.6691	3085.0381	3101.9922	3107.2796	3164.844	3182.6127	3190.7673	3200.5142
CCC12C3CC4C1N4C23	CC[C@@]12[C@H]3C[C@H]4[C@@H]1N4[C@@H]23	
InChI=1S/C8H11N/c1-2-8-4-3-5-7(8)9(5)6(4)8/h4-7H,2-3H2,1H3	InChI=1S/C8H11N/c1-2-8-4-3-5-7(8)9(5)6(4)8/h4-7H,2-3H2,1H3/t4-,5-,6+,7-,8-,9?/m0/s1
