18
gdb 50035	3.58653	1.04072	0.96116	3.4912	81.24	-0.2338	-0.029	0.2048	1267.2158	0.147919	-401.946062	-401.93787	-401.936925	-401.979553	30.668	
O	-0.428142142	 0.633686901	 0.7884996157	-0.263829
C	 0.2536320849	 0.858454803	-0.1807071705	 0.178326
C	 1.4275450551	 1.7717035445	-0.1778088325	-0.192286
N	 2.3752128777	 1.5895166614	-1.2969018805	-0.372399
C	 1.582769861	 2.8193341356	-1.2543792094	 0.32657
C	 0.5590977718	 3.0950489151	-2.3675324761	-0.298267
C	 0.8532193374	 4.546943563	-2.8374041249	-0.268974
C	 1.8267234063	 5.0707206353	-1.8091443597	-0.074281
C	 2.2119303579	 4.1306408101	-0.9464397423	-0.133618
H	 0.0472171022	 0.3946789716	-1.1704595905	 0.083285
H	 1.800794044	 2.0247022941	 0.8120630089	 0.101188
H	 3.3272027259	 1.75517235	-0.9774698701	 0.23858
H	 0.6550944687	 2.3597263084	-3.1686940238	 0.122648
H	-0.4593377038	 3.0264374836	-1.9752723357	 0.119468
H	 1.2947755551	 4.5787284803	-3.8419262786	 0.116726
H	-0.0575994228	 5.1538773374	-2.8874213318	 0.114771
H	 2.1750723034	 6.0974195391	-1.8069594628	 0.103608
H	 2.9162127371	 4.2571123362	-0.1311562655	 0.098485
56.0387	98.4625	139.2217	216.7682	309.0529	369.0455	393.4659	483.4147	511.2175	553.7904	731.0263	758.4214	791.3691	809.9016	863.0648	919.8632	949.9627	968.5654	971.4708	1000.1709	1025.6236	1052.7284	1063.7813	1081.9933	1125.0576	1179.6169	1207.6445	1229.7929	1257.5138	1297.8503	1303.032	1342.2674	1360.8495	1397.4367	1447.6671	1477.5344	1497.1817	1677.5753	1819.5723	2893.9698	3024.7342	3055.8728	3068.9975	3118.3864	3142.1555	3182.8668	3208.6801	3494.0927
O=CC1NC11CCC=C1	O=C[C@H]1N[C@]21CCC=C2	
InChI=1S/C7H9NO/c9-5-6-7(8-6)3-1-2-4-7/h1,3,5-6,8H,2,4H2	InChI=1S/C7H9NO/c9-5-6-7(8-6)3-1-2-4-7/h1,3,5-6,8H,2,4H2/t6-,7+/m1/s1
