17
gdb 31016	3.29088	1.18087	0.90182	2.3396	73.43	-0.1915	0.0221	0.2136	1273.71	0.136197	-455.181439	-455.172387	-455.171443	-455.215278	32.98	
C	 0.1311216995	 1.4590225384	 0.137014531	-0.490143
C	-0.0607604115	-0.0114931569	 0.0738534531	 0.358692
N	-1.1402057649	-0.704282838	 0.2100206369	-0.342645
C	-0.7530538552	-2.0358596922	 0.0429165775	 0.133547
C	-1.6889517504	-3.1986018136	 0.112434817	-0.192015
O	-1.3190974802	-4.2345570437	-0.8075577364	-0.416987
C	 0.5887283337	-2.0620753652	-0.1901944272	 0.281702
N	 1.5082262313	-3.0804975838	-0.3493231806	-0.602616
O	 1.0527988226	-0.783290088	-0.1773885586	-0.202808
H	 0.8354165286	 1.7371024496	 0.9287487467	 0.141649
H	 0.5257690089	 1.8531121939	-0.8061534409	 0.138109
H	-0.8320990366	 1.9281386842	 0.3401804945	 0.154623
H	-1.671789156	-3.6854110243	 1.0949551837	 0.122858
H	-2.7159602003	-2.8490929323	-0.0581918986	 0.116044
H	-1.3936471213	-3.8590149735	-1.691927883	 0.282762
H	 1.034409383	-3.9425775115	-0.5945810482	 0.264133
H	 2.2513441487	-2.8600422331	-1.000445717	 0.253095
77.6517	121.439	160.3719	192.6168	236.045	271.3721	316.6833	327.0855	386.2961	432.9759	488.9045	636.9152	667.0649	679.7261	736.5418	769.767	821.5343	951.3133	971.2989	1022.5848	1033.7079	1063.6198	1091.203	1177.4767	1227.7977	1244.4404	1318.347	1368.3925	1405.0735	1414.504	1454.9694	1474.3753	1485.6034	1504.6022	1621.7077	1642.0793	1695.792	3016.2413	3035.6319	3054.3406	3085.9725	3152.695	3522.3889	3623.7992	3800.4716
CC1=NC(CO)=C(N)O1	Cc1nc(CO)c(N)o1	
InChI=1S/C5H8N2O2/c1-3-7-4(2-8)5(6)9-3/h8H,2,6H2,1H3	InChI=1S/C5H8N2O2/c1-3-7-4(2-8)5(6)9-3/h8H,2,6H2,1H3
