18
gdb 15110	8.04241	0.71825	0.68744	2.0416	74.69	-0.2599	0.0547	0.3146	1597.518	0.15169	-347.749958	-347.741039	-347.740095	-347.784394	31.649	
C	 0.0468237686	-1.1857625451	 0.281510608	-0.434305
C	 0.0084722917	 0.0054759199	 0.1257472174	 0.291292
C	-0.0043348858	 1.4508711124	-0.062597995	-0.356695
C	 1.4075256675	 2.0697687561	-0.0699650391	-0.168286
C	 1.3784400226	 3.5891695585	-0.2759383268	-0.222701
C	 2.7617352421	 4.1922682118	-0.2755078831	 0.09486
C	 3.0487288364	 5.5120777356	 0.2982417686	-0.181084
O	 3.4019535127	 4.3177450372	 0.9983475977	-0.235112
H	 0.0697083681	-2.2380401708	 0.4204835441	 0.193504
H	-0.5141739179	 1.6915493965	-1.0052101587	 0.127269
H	-0.6026058419	 1.9173568728	 0.7313488647	 0.130676
H	 1.9088343858	 1.8414329868	 0.8761654752	 0.129747
H	 2.000270749	 1.5956217507	-0.8610495847	 0.109222
H	 0.887411454	 3.8288907774	-1.2293230419	 0.100411
H	 0.7864774867	 4.0622734841	 0.5170054948	 0.103889
H	 3.4269953089	 3.8308766279	-1.0630407532	 0.09093
H	 3.8848355527	 6.0999773668	-0.0782745171	 0.11448
H	 2.2387864588	 6.0907152714	 0.7413462293	 0.111903
53.6745	88.9391	95.923	124.9671	209.8484	298.8899	348.6542	394.1283	453.2174	540.9581	617.0837	636.0379	739.1934	789.3271	845.6439	877.1685	947.0585	959.2536	1018.0119	1043.1117	1054.6641	1103.6856	1129.0599	1158.9799	1169.3719	1205.359	1257.6713	1295.3461	1300.3581	1326.2011	1344.064	1388.1503	1450.1265	1470.8503	1473.3489	1501.9744	1531.5905	2239.4874	3012.061	3014.7834	3038.5011	3044.6843	3056.6598	3080.1362	3086.5114	3095.813	3166.1745	3507.5774
C#CCCCC1CO1	C#CCCC[C@H]1CO1	
InChI=1S/C7H10O/c1-2-3-4-5-7-6-8-7/h1,7H,3-6H2	InChI=1S/C7H10O/c1-2-3-4-5-7-6-8-7/h1,7H,3-6H2/t7-/m0/s1
