15
gdb 36562	2.72017	0.86561	0.68504	4.0022	76.05	-0.3004	-0.0082	0.2922	1539.7297	0.110903	-379.660489	-379.651059	-379.650115	-379.695703	32.676	
C	 0.0321374233	-1.2294658617	-0.0087819173	-0.391794
C	-0.0092623959	-0.0305156949	-0.0161162569	 0.305704
C	-0.0212871181	 1.4319305109	-0.0087306068	-0.33523
C	 1.4224791101	 2.007441831	-0.0024439095	-0.188252
C	 1.4372946933	 3.5455673371	 0.0754982005	-0.360622
C	 2.7992790455	 4.0693940691	 0.1335156086	 0.259701
N	 3.8836819425	 4.4645409333	 0.1827258239	-0.293233
C	-0.7923740904	 1.9615356839	-1.1473027615	 0.2994
N	-1.3768537231	 2.4146569099	-2.0344845107	-0.318269
H	 0.0579472813	-2.2918221156	-0.0063050227	 0.216633
H	-0.5306874801	 1.775148855	 0.9032856108	 0.162489
H	 1.9443956	 1.5810289835	 0.8575767762	 0.147481
H	 1.9446422783	 1.6715639513	-0.9015280413	 0.155165
H	 0.9290695917	 3.9768812639	-0.794076753	 0.183271
H	 0.8945866217	 3.8899046934	 0.9641553897	 0.157555
62.2319	93.0987	98.5166	128.772	195.953	217.2448	316.0354	360.6311	396.2897	456.194	520.9011	576.1198	606.425	658.5954	676.9729	765.8713	846.3658	943.1867	1005.0713	1034.4611	1047.896	1080.5579	1185.8272	1265.2483	1301.3053	1326.2206	1339.6661	1385.561	1470.6779	1492.3033	2251.982	2363.8561	2367.2321	3011.6262	3040.7928	3077.7028	3082.8979	3129.815	3500.6883
C#CC(CCC#N)C#N	C#C[C@@H](CCC#N)C#N	
InChI=1S/C7H6N2/c1-2-7(6-9)4-3-5-8/h1,7H,3-4H2	InChI=1S/C7H6N2/c1-2-7(6-9)4-3-5-8/h1,7H,3-4H2/t7-/m0/s1
