15
gdb 26554	2.3924	1.89718	1.06421	7.2542	72.79	-0.1996	-0.0134	0.1863	1048.0619	0.11585	-450.184118	-450.176177	-450.175233	-450.216228	30.384	
N	 0.0516056055	 1.4218192442	 0.0925229575	-0.589839
C	-0.0097376041	 0.0350324494	 0.0193291507	 0.336415
C	-1.1704217865	-0.6735464492	-0.0191409695	 0.088894
N	-2.4190579057	-0.008126808	-0.0633365642	-0.614499
C	-1.141728723	-2.130880882	-0.1274031932	 0.343167
O	-2.1732362464	-2.7738420107	-0.2623481167	-0.392681
N	 0.1216059291	-2.7587374258	-0.092091333	-0.314448
C	 1.1729079573	-2.0275627319	 0.0006549585	 0.087223
N	 1.1826518356	-0.6610068015	 0.0407789073	-0.360374
H	 0.8070524628	 1.8302536929	-0.4459677523	 0.248575
H	-0.8392153566	 1.8178371014	-0.1922017915	 0.270122
H	-2.6668437295	 0.3932825816	 0.8372201069	 0.243454
H	-3.1169081031	-0.7182851797	-0.2798551154	 0.259008
H	 2.1586973771	-2.486679045	 0.0555880788	 0.13063
H	 2.0481416076	-0.1694821758	 0.2013930263	 0.264352
122.6701	197.6094	227.8778	268.0213	293.9066	351.8777	378.7576	438.8422	516.1134	532.9456	556.2504	583.7979	628.9776	717.9133	797.1122	800.6509	885.7862	928.1884	943.5427	1003.9406	1070.8237	1154.2699	1208.5702	1282.8257	1320.9535	1389.5036	1427.0612	1542.96	1628.6206	1649.2227	1658.6882	1719.0137	1744.3566	3145.2223	3466.3503	3501.3768	3539.5138	3598.7182	3629.4173
NC1=C(N)C(=O)N=CN1	Nc1c(N)c(=O)nc[nH]1	
InChI=1S/C4H6N4O/c5-2-3(6)7-1-8-4(2)9/h1H,5H2,(H3,6,7,8,9)	InChI=1S/C4H6N4O/c5-2-3(6)7-1-8-4(2)9/h1H,5H2,(H3,6,7,8,9)
