18
gdb 37918	3.23895	1.76172	1.33112	2.2146	76.7	-0.2409	0.0331	0.274	965.56	0.151351	-401.902911	-401.896385	-401.895441	-401.933803	26.774	
C	 0.0863511827	 1.7589588384	 0.0085627523	-0.227134
C	 1.5107136827	 1.1369185221	-0.1209306936	-0.116304
C	 1.0998808057	 0.2082858863	 1.068016413	 0.018657
C	 1.8573601404	-1.0552144658	 1.450234384	-0.205649
N	 2.2612487507	-2.0329921554	 0.4690965581	-0.26502
C	 2.0485000999	-1.9656590935	-0.7680703182	 0.12337
O	 1.4302618358	-1.0543999243	-1.5586302609	-0.252785
C	 0.8303019576	 0.1396020559	-1.1018658686	 0.181581
C	-0.1380664968	 0.2190697588	 0.1129651164	-0.116333
H	-0.1013195858	 2.3282752936	 0.9198222772	 0.103632
H	-0.3187107858	 2.2619672073	-0.8728758364	 0.096743
H	 2.4520453784	 1.6687741664	-0.2644624737	 0.078906
H	 0.9205988384	 0.7668893135	 1.9959367193	 0.066535
H	 2.7666123638	-0.7488105233	 1.9888143208	 0.114708
H	 1.2583596416	-1.5878250271	 2.2040199272	 0.114696
H	 2.4037824113	-2.7695653652	-1.4128729107	 0.118148
H	 0.4490072465	 0.5904334305	-2.0206341823	 0.087334
H	-1.088098457	-0.3019340082	 0.2377407261	 0.078916
102.8317	248.5108	350.8971	368.2573	420.5255	499.1883	522.4145	665.9747	749.6891	797.341	800.4615	848.4932	889.0865	894.3771	954.3791	958.1846	989.7234	997.4733	1009.8604	1024.6939	1072.906	1087.1369	1100.9511	1101.5339	1167.9733	1172.4807	1192.3931	1220.3994	1225.6978	1244.0185	1293.8704	1313.7622	1369.8917	1423.7964	1444.313	1463.0519	1472.847	1522.4155	1782.5325	2992.2713	3012.0793	3021.2032	3063.1162	3086.7975	3107.4886	3113.5411	3135.2631	3139.4211
C1C2C3CN=COC2C13	C1[C@H]2[C@@H]3CN=CO[C@H]2[C@H]13	
InChI=1S/C7H9NO/c1-4-6-2-8-3-9-7(4)5(1)6/h3-7H,1-2H2	InChI=1S/C7H9NO/c1-4-6-2-8-3-9-7(4)5(1)6/h3-7H,1-2H2/t4-,5+,6-,7+
