17
gdb 133825	4.10989	1.83963	1.69685	1.0427	81.7	-0.195	-0.0467	0.1483	848.5506	0.135983	-347.359915	-347.353493	-347.352549	-347.390122	27.206	
C	 10.6687871363	-1.1948874566	 0.0957309375	-0.517323
C	 9.2412271142	-0.7355775053	 0.1483566559	 0.34394
C	 7.9980934471	-1.5344447666	 0.565780532	-0.172465
C	 8.1477243027	-1.1181351796	-0.855189117	-0.148771
C	 7.2477926091	 0.1112425011	-0.9498893181	 0.000584
C	 7.7912030749	 1.3625978002	-0.3139999136	-0.096634
C	 8.6580245109	 0.6068549975	 0.7193905434	-0.14075
C	 7.3612222914	-0.1666624388	 0.9593129602	 0.069205
C	 6.4531231748	 0.6636498637	 0.1359056488	-0.135702
H	 10.7410172157	-2.22611617	-0.266066489	 0.12121
H	 11.1389825525	-1.1600696745	 1.0848070507	 0.122593
H	 11.2617815417	-0.5641814853	-0.5770015663	 0.123995
H	 7.8813222886	-2.520425532	 0.9981001174	 0.093345
H	 8.3513647727	-1.7632809595	-1.7008993722	 0.089899
H	 7.9115618896	 2.3214866017	-0.8126145788	 0.080239
H	 9.181315442	 1.0774006706	 1.5566565963	 0.064214
H	 5.399954766	 0.9055256835	 0.2100403529	 0.10242
191.2484	221.0272	266.9071	497.5131	523.9164	543.3285	559.3866	609.4499	711.632	757.6948	787.9594	802.8441	829.7777	874.1403	886.2937	910.647	939.0152	963.7072	972.4556	1004.834	1034.59	1055.6282	1059.4151	1095.878	1102.8247	1133.5989	1158.2142	1175.0099	1197.7848	1216.6321	1250.3642	1254.0341	1368.7498	1395.7938	1419.0668	1485.843	1497.2472	3023.021	3063.0848	3083.1053	3093.854	3129.7436	3174.5504	3177.6519	3190.1036
CC12C3C1C1=CC2C3=C1	C[C@]12[C@@H]3[C@H]1[C@]14[C@@H]5[C@H]2[C@]31[C@H]45	
InChI=1S/C9H8/c1-9-6-3-4-2-5(6)8(9)7(4)9/h2-3,6-8H,1H3	InChI=1S/C9H8/c1-7-3-2-4-8(2)5(7)6(7)9(3,4)8/h2-6H,1H3/t2-,3-,4+,5-,6+,7-,8-,9+/m1/s1
