16
gdb 29027	2.74673	1.61291	1.02246	2.3782	84.43	-0.2497	-0.0908	0.1589	1112.7267	0.125595	-400.790857	-400.783056	-400.782112	-400.823653	28.979	
C	-0.2147522319	 1.5364988202	 0.035074526	-0.458911
C	-0.1442155945	 0.039250318	-0.0034789614	 0.148859
C	-0.0314938066	-0.6118659085	-1.1923079753	-0.141027
C	 0.0533857637	-2.0114903987	-1.5036833867	 0.032089
N	 0.0497123067	-3.0740844416	-0.7614148968	-0.273842
C	-0.0461213856	-3.0565169613	 0.6029745909	-0.004539
C	-0.1551574388	-2.0433198024	 1.5022979458	-0.128879
C	-0.2096601458	-0.5929581599	 1.3418881349	 0.287308
O	-0.3113316647	 0.1263180651	 2.3310472841	-0.354931
H	 0.5970637968	 1.9333760721	 0.6538016858	 0.157159
H	-0.1650863801	 1.974350691	-0.9634622909	 0.117669
H	-1.1367113261	 1.8547791016	 0.5331324536	 0.157166
H	 0.0020510456	 0.0185229939	-2.0790513607	 0.104351
H	 0.1370447407	-2.2156261411	-2.573608674	 0.118467
H	-0.0297055548	-4.0608407453	 1.0239195654	 0.119161
H	-0.2152400344	-2.3313588631	 2.5488903896	 0.119902
49.8077	154.5003	190.691	290.8373	325.364	368.9007	382.3779	416.4483	518.9125	624.6853	667.0581	721.6363	769.0194	881.3386	885.9116	897.9976	950.962	984.0095	1009.6991	1040.2491	1061.2902	1114.5029	1162.775	1288.7116	1301.1702	1405.8829	1418.4996	1454.6359	1458.2248	1466.975	1480.0503	1552.2414	1634.3247	1666.4331	1703.4403	3042.7814	3096.3362	3099.4724	3136.073	3136.9496	3145.6171	3172.861
CC1=CC=NC=CC1=O	Cc1ccnccc1=O	
InChI=1S/C7H7NO/c1-6-2-4-8-5-3-7(6)9/h2-5H,1H3	InChI=1S/C7H7NO/c1-6-2-4-8-5-3-7(6)9/h2-5H,1H3
