18
gdb 33458	2.81811	1.29812	1.01371	2.9689	77.82	-0.2396	0.0296	0.2692	1187.4146	0.147057	-401.857328	-401.84864	-401.847696	-401.891269	32.176	
C	-0.2069097385	-1.2237810017	 0.4950478843	-0.430059
C	-0.1192034738	-0.0417879592	 0.288135819	 0.271155
C	-0.0361559919	 1.3684835748	-0.0025112295	 0.115313
C	 0.7389397657	 2.2226335139	 0.9503241843	-0.273133
N	 1.2907517714	 1.9173617046	-0.3733058026	-0.33994
C	-1.2225520387	 1.9217489863	-0.7686024693	-0.111707
C	-1.1514999502	 3.3612647476	-1.3258589208	-0.097906
O	-1.432306348	 2.9012446912	-2.6634308521	-0.27381
C	-1.3585884526	 1.5211283833	-2.2559900602	-0.071797
H	-0.2802104612	-2.2655516757	 0.6880942966	 0.199853
H	 0.4391005756	 3.2577781227	 1.0921219542	 0.126593
H	 1.1661353408	 1.7432341882	 1.8256113024	 0.127685
H	 1.993754833	 1.1865929669	-0.3019588226	 0.243672
H	-2.1329804868	 1.7302318923	-0.1958210932	 0.091178
H	-1.9152544123	 4.0585704722	-0.9627034846	 0.096371
H	-0.1608235502	 3.8243623961	-1.2568882022	 0.119908
H	-0.4743448647	 1.0177370818	-2.6674969686	 0.104265
H	-2.2573376177	 0.9591820948	-2.5337423452	 0.102359
61.8351	85.2695	129.1464	200.0516	231.3111	271.3697	395.909	437.8141	527.1752	569.7775	608.1966	640.0838	660.214	801.9987	836.9979	885.3843	895.2338	928.9598	967.5595	986.7747	1033.1473	1042.4011	1047.2049	1101.9004	1123.1029	1137.1845	1166.5173	1183.4596	1256.4374	1265.7327	1280.3741	1317.7373	1339.6101	1369.1119	1404.0937	1503.8721	1503.9852	1531.4679	2231.6104	3013.4313	3026.0385	3060.6351	3070.5662	3087.9267	3112.1378	3203.5448	3501.739	3514.404
C#CC1(CN1)C1COC1	C#C[C@]1(CN1)C1COC1	
InChI=1S/C7H9NO/c1-2-7(5-8-7)6-3-9-4-6/h1,6,8H,3-5H2	InChI=1S/C7H9NO/c1-2-7(5-8-7)6-3-9-4-6/h1,6,8H,3-5H2/t7-/m0/s1
