20
gdb 73152	2.57528	1.61672	1.38607	1.1736	78.55	-0.2322	0.0677	0.2999	1040.0197	0.170952	-403.091401	-403.083114	-403.08217	-403.124135	32.355	
C	 0.2182000412	 1.6337731306	 0.1478025441	-0.494968
C	 0.1082842966	 0.1325957694	 0.1383823692	 0.368172
O	-1.2509968497	-0.3313024699	-0.0603886157	-0.324277
C	-1.1482726668	-1.2519006342	 1.0522991861	-0.085405
C	 0.306881253	-0.8451072943	 1.3426309929	-0.134504
C	 1.3813506413	-1.6289496276	 0.541991617	-0.320309
C	 1.122189311	-0.7108529121	-0.6625855098	 0.316963
C	 1.0511003366	-1.0101450563	-2.1054368865	-0.29647
N	 2.1764969444	-0.227724681	-1.5516514758	-0.371251
H	 1.2391153977	 1.9520131253	 0.3822890395	 0.124708
H	-0.0538217515	 2.0439578193	-0.8325624796	 0.126213
H	-0.462438235	 2.0643404369	 0.8875072787	 0.12827
H	-1.8688594803	-0.9996367755	 1.8398154552	 0.101832
H	-1.3043398713	-2.2946526237	 0.7470591719	 0.099527
H	 0.5514850023	-0.521883058	 2.3535738271	 0.078297
H	 2.3911251071	-1.5026225296	 0.941353758	 0.114877
H	 1.1897257415	-2.6964916453	 0.3986466642	 0.101945
H	 1.3207736451	-1.9983835335	-2.4688383352	 0.117276
H	 0.2890250596	-0.5016831612	-2.6908894821	 0.119283
H	 2.0421840369	 0.7612690407	-1.7528288793	 0.229821
65.7221	196.5748	199.5271	219.5284	257.9816	317.9771	375.5221	403.7034	477.1532	544.6606	636.6543	758.087	807.2919	840.0701	859.0861	882.1681	905.802	919.2399	942.5001	977.1475	1003.8964	1030.9922	1047.4377	1091.2279	1110.2618	1117.048	1148.0578	1152.9591	1170.8384	1192.1054	1229.4831	1256.2436	1265.0417	1299.7318	1330.6282	1354.0109	1405.709	1409.1033	1475.1496	1480.8068	1488.368	1515.2638	1522.0036	3010.2465	3027.4533	3051.6199	3053.6647	3093.9054	3104.308	3104.6785	3115.9611	3120.3505	3189.6167	3484.473
CC12OCC1CC21CN1	C[C@]12OC[C@H]1C[C@]12CN1	
InChI=1S/C7H11NO/c1-6-5(3-9-6)2-7(6)4-8-7/h5,8H,2-4H2,1H3	InChI=1S/C7H11NO/c1-6-5(3-9-6)2-7(6)4-8-7/h5,8H,2-4H2,1H3/t5-,6+,7-/m1/s1
