20
gdb 51428	4.04516	0.9678	0.94079	3.0518	79.64	-0.2243	-0.0215	0.2027	1319.3144	0.171657	-403.121217	-403.113139	-403.112195	-403.154661	30.988	
O	-0.3257548423	 0.3137134817	 0.5211713092	-0.240225
C	 0.1867773996	 0.9439210267	-0.3663110385	 0.158192
C	 1.4620651247	 1.7610183801	-0.2173515324	-0.250125
N	 1.448647841	 2.8741305575	-1.1499181614	-0.115608
C	 0.8001066843	 4.1513530323	-0.6501970271	 0.001743
C	 2.131248671	 4.5305546814	 0.0524121981	-0.234295
C	 2.6824565371	 3.7500143946	-1.1702840201	 0.013554
C	 2.3270603194	 4.6710717012	-2.3522698964	-0.205126
C	 0.8468369228	 4.9860536234	-1.9434874158	-0.203286
H	-0.2344649933	 0.9707123955	-1.3964031337	 0.083759
H	 1.5941038761	 1.9981674081	 0.8499435856	 0.108885
H	 2.2882936975	 1.090699179	-0.500280088	 0.126857
H	-0.149990254	 4.0648504359	-0.1211708775	 0.075666
H	 2.3848678424	 5.5895838664	 0.1606396475	 0.094085
H	 2.285165464	 4.014376255	 1.0000645851	 0.108983
H	 3.6529727157	 3.2516525	-1.1717686603	 0.067944
H	 2.9619053362	 5.559857928	-2.3936618048	 0.097224
H	 2.3940127833	 4.1449458399	-3.3061482073	 0.106845
H	 0.1251441087	 4.6273695842	-2.6794317796	 0.107144
H	 0.6657643358	 6.048189199	-1.7603016925	 0.097783
56.3899	79.2291	152.4371	270.0992	305.5976	366.0812	406.6685	478.7988	594.314	669.2853	717.7999	811.0048	824.6634	828.7045	853.4812	883.1368	912.9469	949.3614	955.4804	1009.3632	1014.7051	1039.7943	1072.9162	1092.7985	1103.4575	1125.5034	1181.6801	1190.1704	1225.0096	1239.3765	1247.0562	1255.5218	1274.4935	1308.3484	1312.6294	1331.3904	1342.6649	1400.6665	1457.3993	1481.9987	1494.5489	1514.5914	1837.6346	2888.2328	2975.8926	3020.0725	3057.5056	3065.1307	3074.1233	3107.7824	3112.2913	3113.5293	3129.404	3135.5267
O=CCN1C2CC1CC2	O=CCN1[C@H]2C[C@@H]1CC2	
InChI=1S/C7H11NO/c9-4-3-8-6-1-2-7(8)5-6/h4,6-7H,1-3,5H2	InChI=1S/C7H11NO/c9-4-3-8-6-1-2-7(8)5-6/h4,6-7H,1-3,5H2/t6-,7+
