21
gdb 82538	2.28773	1.62114	1.38537	1.9225	83.17	-0.222	0.0765	0.2985	1082.4141	0.182173	-383.197845	-383.18896	-383.188016	-383.230765	34.576	
C	-0.0961418904	 1.5188654756	 0.0296919443	-0.311341
N	 0.1128009248	 0.0799269	 0.108274435	-0.125543
C	 1.385359671	-0.5563742376	-0.1536657042	-0.101456
C	 2.5888563286	 0.2588286106	 0.3636243196	-0.353674
C	 1.932048982	 0.2256303831	 1.7584490782	 0.303697
C	 2.6322811917	 0.082560206	 3.051504807	-0.312546
N	 1.8216584116	 1.2856900529	 2.7625867767	-0.369
C	 0.7529823066	-0.5863852119	 1.2276604063	 0.292594
C	 0.01753326	-1.655297482	 1.9796480845	-0.504406
H	 0.7371376762	 2.1378793016	 0.3862764427	 0.105187
H	-0.3001344084	 1.7833889558	-1.0130222183	 0.116999
H	-0.977825017	 1.7751574386	 0.6241992694	 0.127628
H	 1.4340659198	-1.3357750568	-0.9071049119	 0.090907
H	 3.525661036	-0.3031989107	 0.3254334008	 0.109462
H	 2.7470653836	 1.2404063808	-0.0957560178	 0.099592
H	 2.2281592059	-0.5591708061	 3.8303004063	 0.118825
H	 3.7164234302	 0.1686339375	 3.0559789238	 0.109428
H	 2.4316213743	 2.0626067471	 2.516726523	 0.228403
H	-0.5908251035	-1.2183971094	 2.7804122884	 0.129108
H	-0.6512495995	-2.1967722504	 1.3061902721	 0.130193
H	 0.7108521164	-2.3685706546	 2.437740104	 0.115941
119.0204	176.6798	185.8047	210.1367	228.2851	237.4717	312.1378	366.5466	401.2193	500.3968	524.7349	609.0016	672.2951	730.0385	816.6868	841.1491	882.4955	910.2349	942.4984	953.331	970.7045	977.975	1010.9677	1053.329	1109.2174	1123.502	1139.3018	1151.7049	1174.6098	1187.7174	1199.8902	1227.6885	1260.5298	1268.786	1296.3288	1394.8924	1408.3665	1435.7477	1459.5038	1480.0076	1485.6087	1495.6877	1497.7545	1506.3687	1514.6969	3013.0229	3030.2731	3043.8906	3076.9404	3089.4742	3098.2907	3099.7682	3107.3227	3122.5592	3163.5803	3182.656	3485.8166
CN1C2CC3(CN3)C12C	CN1[C@H]2C[C@]3(CN3)[C@@]12C	
InChI=1S/C7H12N2/c1-6-5(9(6)2)3-7(6)4-8-7/h5,8H,3-4H2,1-2H3	InChI=1S/C7H12N2/c1-6-5(9(6)2)3-7(6)4-8-7/h5,8H,3-4H2,1-2H3/t5-,6-,7-,9?/m0/s1
