19
gdb 81264	2.6072	1.47704	1.25039	2.0036	75.25	-0.2314	-0.009	0.2224	1079.6706	0.159878	-423.031441	-423.023306	-423.022362	-423.063746	31.996	
C	-0.1271729881	 1.5341518997	 0.0195075577	-0.422579
C	 0.0764749427	 0.0210677852	-0.0577083586	-0.093236
C	 0.9991041603	-0.5447468307	-1.1614617277	-0.050668
C	 1.1677599787	-2.0227832713	-0.7007763206	-0.250242
C	 1.9497267089	-1.3679610021	 0.4886213578	-0.178834
C	 2.416973927	-0.2996187308	-0.5806133641	 0.138436
O	 3.4113812197	-0.7406099286	-1.472479877	-0.441532
C	 0.8466650526	-0.566775463	 1.1532602384	 0.427006
O	 0.6342569473	-0.3767278061	 2.3220386704	-0.348044
H	 0.8214095789	 2.0794014119	 0.0028591751	 0.120703
H	-0.7333402732	 1.8909785481	-0.8186964743	 0.117794
H	-0.6406715297	 1.7910223716	 0.9503331796	 0.139789
H	-0.9055200872	-0.4667113768	-0.1110775544	 0.099716
H	 0.7755809216	-0.284481087	-2.1958880842	 0.075553
H	 0.2655377381	-2.5928357106	-0.4639559293	 0.099567
H	 1.8303614457	-2.5919452466	-1.3493900694	 0.126991
H	 2.6437804266	-1.9041614333	 1.1337792471	 0.075893
H	 2.6493052344	 0.7033143849	-0.2006888157	 0.07484
H	 4.2554863057	-0.7326008245	-1.0100681608	 0.288847
124.7826	192.7214	197.9378	226.4472	298.9807	310.7013	350.7679	454.3711	472.1441	537.6807	593.6259	695.4552	750.3027	809.561	856.9538	874.4774	892.9091	917.6803	984.157	1001.3663	1037.213	1044.0837	1078.3904	1093.8477	1126.5939	1136.1026	1169.0065	1188.3859	1217.3838	1231.8665	1251.3299	1267.2853	1306.3289	1318.0274	1351.9825	1407.1897	1435.1166	1496.6423	1498.7743	1500.1921	1859.5361	3018.6283	3025.2315	3041.997	3071.243	3109.5664	3117.8705	3119.4383	3135.9868	3161.8051	3818.1882
CC1C2CC(C2O)C1=O	C[C@H]1[C@@H]2C[C@@H]([C@H]2O)C1=O	
InChI=1S/C7H10O2/c1-3-4-2-5(6(3)8)7(4)9/h3-5,7,9H,2H2,1H3	InChI=1S/C7H10O2/c1-3-4-2-5(6(3)8)7(4)9/h3-5,7,9H,2H2,1H3/t3-,4-,5+,7-/m0/s1
