15
gdb 125455	3.0968	1.46703	1.00151	2.3105	73.65	-0.2114	-0.0639	0.1475	1115.4663	0.113777	-450.145632	-450.137705	-450.136761	-450.178066	30.065	
C	 0.1183987903	 1.4576571156	 0.0207602104	-0.4598
C	 0.0460859113	-0.0323699367	-0.0119133529	 0.324201
N	 0.0112808891	-0.6541979927	-1.145957261	-0.327459
C	-0.0547661575	-2.0261373907	-1.1120145888	 0.462966
O	-0.0876088207	-2.5922344528	-2.3319018294	-0.394331
N	-0.0865503905	-2.7840257429	-0.0651770811	-0.311072
N	-0.0488998891	-2.1121860348	 1.1222278916	-0.313585
C	 0.0172330644	-0.7448415619	 1.2862599914	 0.346901
N	 0.0531395365	-0.0894797074	 2.3917172956	-0.557195
H	 1.0101954565	 1.7748354133	 0.5708661674	 0.157594
H	 0.1317489411	 1.8542383894	-0.9941627719	 0.138702
H	-0.7318427284	 1.8592551022	 0.5813221094	 0.157665
H	-0.1330797402	-3.5483918442	-2.1996179834	 0.308834
H	-0.0740309283	-2.7133247	 1.9313376065	 0.265359
H	 0.0266171456	-0.7097457965	 3.2031192161	 0.201221
88.1042	146.2656	211.6726	300.7913	324.6342	371.5559	406.8176	508.9481	510.3251	530.2647	535.0918	578.281	679.0267	712.7247	783.4008	804.2383	817.2076	955.728	1028.043	1050.919	1105.0623	1191.1421	1223.108	1289.4488	1384.941	1413.2719	1439.4795	1453.1909	1459.638	1478.9479	1611.5166	1660.9962	1697.5803	3049.9513	3104.6882	3163.2566	3452.9438	3627.1268	3791.981
CC1=NC(O)=NNC1=N	Cc1nc(O)n[nH]c1[NH]	
InChI=1S/C4H6N4O/c1-2-3(5)7-8-4(9)6-2/h1H3,(H2,5,7)(H,6,8,9)	InChI=1S/C4H11N4O/c1-2-3(5)7-8-4(9)6-2/h2-9H,1H3
