15
gdb 35193	3.82299	1.14842	1.07433	0.751	71.83	-0.2556	0.0146	0.2701	1128.9621	0.110086	-420.517653	-420.509938	-420.508994	-420.55005	29.51	
C	-0.1107110315	-1.1904888867	-0.0051244572	-0.425738
C	-0.0351652518	 0.0091028558	 0.0025430005	 0.352034
C	 0.040273796	 1.4428769404	-0.0146541551	-0.277392
O	 0.6320489576	 2.0898184019	 1.1434941221	-0.278073
C	 1.333268768	 2.1435843735	-0.0754959312	 0.457274
C	 2.7825566569	 1.6263545305	-0.2225476485	-0.352246
C	 3.1007753905	 2.9636783426	-0.9186643138	 0.034924
O	 2.2286666123	 3.0680683613	-2.0486602076	-0.23581
C	 1.7159966533	 3.4484415929	-0.7638849386	-0.094585
H	-0.175767031	-2.2506818845	-0.0078105358	 0.20563
H	-0.8388875048	 1.9572768706	-0.4002153819	 0.122812
H	 3.2530099005	 1.5205451284	 0.7582697933	 0.129243
H	 2.9406077677	 0.7267503116	-0.8200400721	 0.128368
H	 4.0331052787	 3.5136354279	-0.95089394	 0.115377
H	 1.3011247075	 4.4420217338	-0.6440407043	 0.118183
89.5813	118.1843	184.2202	285.0808	354.0758	386.7234	472.2679	517.9725	552.9978	608.0304	631.1455	676.3479	788.0006	842.2794	862.3356	865.5729	887.0966	954.2796	964.1742	1012.3972	1023.2909	1052.161	1070.9791	1149.4346	1158.082	1210.6126	1224.2608	1263.0759	1329.4165	1372.9072	1456.2349	1486.6499	2241.3671	3073.9998	3121.1065	3136.36	3191.5728	3206.151	3501.7552
C#CC1OC11CC2OC12	C#C[C@H]1O[C@]21C[C@H]1O[C@@H]21	
InChI=1S/C7H6O2/c1-2-5-7(9-5)3-4-6(7)8-4/h1,4-6H,3H2	InChI=1S/C7H6O2/c1-2-5-7(9-5)3-4-6(7)8-4/h1,4-6H,3H2/t4-,5-,6-,7+/m1/s1
