19
gdb 78922	4.29357	1.33543	1.31025	1.3067	78.02	-0.2279	0.0779	0.3057	1038.2452	0.159745	-385.814899	-385.807549	-385.806605	-385.846154	30.468	
C	 0.0113473096	 1.634559755	 0.0209431854	-0.417015
C	 0.0417343241	 0.1153548475	 0.0133723739	 0.030636
C	 1.0608481937	-0.6541656658	-0.8694727504	-0.063142
C	 2.4761825732	-0.3262108375	-0.3416150142	-0.124728
C	 2.2009172832	-0.3304264405	 1.1909442233	-0.172813
C	 0.6941196518	-0.6708629034	 1.1843055652	-0.068571
C	 1.0778971144	-1.8286183827	 0.183629147	-0.154936
C	 2.6063483596	-1.5873592842	 0.4542478359	 0.376714
O	 3.6918412381	-2.4187370648	 0.5540968792	-0.458845
H	 1.0096183996	 2.0451275466	 0.204572464	 0.118028
H	-0.342556875	 2.0301098758	-0.937938792	 0.111052
H	-0.6568546117	 2.0154790682	 0.801744451	 0.110158
H	-0.960431794	-0.2931641954	-0.1697042384	 0.067027
H	 0.9193242535	-0.7971243669	-1.9404329203	 0.060767
H	 3.2548894122	 0.2882982019	-0.7729892042	 0.088653
H	 2.7718058463	 0.2934117336	 1.8662562406	 0.085499
H	 0.1864419176	-0.8297347113	 2.1358940926	 0.056454
H	 0.5407720668	-2.7678553465	 0.078130955	 0.068357
H	 3.6698281669	-2.8465544394	 1.4178167665	 0.286704
174.0048	195.2133	210.5175	302.7101	334.2152	369.3636	531.5549	605.1496	608.1971	712.1534	719.0343	740.5741	806.1029	829.4478	854.0842	861.0223	900.9266	928.4973	933.9123	965.5771	992.7582	1024.0757	1046.1436	1059.5869	1070.589	1097.5656	1134.2022	1159.0668	1168.642	1184.3306	1191.7249	1216.2362	1246.4838	1276.9249	1283.669	1319.8222	1379.1175	1406.489	1482.6995	1493.5983	1498.0359	3024.2578	3028.955	3086.5829	3100.2584	3109.6286	3116.4115	3149.3819	3197.1605	3208.4671	3784.91
CC1C2C3C4C1C2C34O	C[C@H]1[C@H]2[C@H]3[C@H]4[C@@H]1[C@@H]2[C@@]34O	
InChI=1S/C8H10O/c1-2-3-5-4(2)7-6(3)8(5,7)9/h2-7,9H,1H3	InChI=1S/C8H10O/c1-2-3-5-4(2)7-6(3)8(5,7)9/h2-7,9H,1H3/t2-,3+,4-,5+,6-,7+,8+
