19
gdb 112777	2.12328	1.41695	1.09014	3.8978	76.63	-0.226	0.0214	0.2473	1197.5501	0.15933	-419.194947	-419.185651	-419.184707	-419.229117	34.206	
C	-0.5776497407	 1.1163926256	 0.1366792528	-0.319469
N	-0.062543398	-0.2466319595	 0.1091971954	-0.273662
C	 0.9480375774	-0.5076472364	 1.1042693227	 0.036811
C	 0.4777859618	-0.7335327258	 2.5863440228	-0.258727
C	 0.5202379305	-2.2573703145	 2.352164113	 0.104497
O	-0.7706401809	-2.6932143998	 1.9887500645	-0.422723
C	 1.4428670414	-1.997624914	 1.1054198627	-0.214955
C	 1.2041834494	-2.841159341	-0.0490049697	 0.281852
N	 0.9644814322	-3.5663867171	-0.9178031539	-0.337212
H	 0.230277405	 1.8158460449	-0.1068548428	 0.122974
H	-1.3524897769	 1.2234154224	-0.6271303549	 0.127004
H	-1.0075856138	 1.4263531299	 1.1049891322	 0.099069
H	-0.8215731203	-0.9126723859	 0.2165377567	 0.232041
H	 1.7507435566	 0.2250029848	 0.9800528023	 0.086874
H	 1.2154450572	-0.406524001	 3.3238019768	 0.10674
H	-0.5050821241	-0.3422204216	 2.8549491074	 0.121111
H	 0.9554603653	-2.8875025499	 3.1371595795	 0.082383
H	-0.6960663575	-3.5518432657	 1.5539219405	 0.300217
H	 2.4977290354	-2.0483530756	 1.3889537822	 0.125174
87.519	113.9412	123.3393	148.9335	209.5897	274.363	364.4627	377.4945	383.1721	398.4992	427.0991	577.3546	624.2928	740.7474	764.1921	844.462	879.021	909.7026	913.9185	997.6617	1010.3731	1057.0038	1077.5368	1103.8176	1153.538	1166.5278	1184.9721	1205.3702	1247.485	1259.4822	1269.611	1330.4717	1333.0883	1364.7189	1415.2871	1459.2733	1465.9317	1490.0009	1506.7482	1528.6336	2348.5732	2954.4029	3027.1893	3056.96	3061.4345	3070.0827	3082.9797	3110.2186	3132.1902	3521.5384	3782.7621
CNC1CC(O)C1C#N	CN[C@H]1C[C@@H](O)[C@H]1C#N	
InChI=1S/C6H10N2O/c1-8-5-2-6(9)4(5)3-7/h4-6,8-9H,2H2,1H3	InChI=1S/C6H10N2O/c1-8-5-2-6(9)4(5)3-7/h4-6,8-9H,2H2,1H3/t4-,5-,6+/m0/s1
