21
gdb 91743	2.95958	1.37568	1.28812	1.1487	76.77	-0.2567	0.0763	0.333	1082.4694	0.18513	-424.243502	-424.235481	-424.234537	-424.275671	32.702	
O	 0.0325891387	 1.409771679	-0.1709680254	-0.441696
C	 0.0147786198	 5.61*^-7	-0.0062489978	 0.145513
C	 0.6305521057	-0.5086619701	 1.3400611408	-0.271792
C	-0.516116256	-1.3283082157	 1.9736247631	-0.00092
C	-1.2257537794	-1.8957884378	 0.7231171303	-0.230339
C	-1.4363788932	-0.5134613381	 0.0712194577	-0.026566
C	-2.1681104304	 0.2622326307	 1.1917894397	-0.248175
C	-1.5732715088	-0.3435666585	 2.5028568191	 0.14099
O	-2.525804081	-1.0906946144	 3.2521053909	-0.453026
H	 0.9505804913	 1.6960116715	-0.1897675168	 0.281737
H	 0.5210593322	-0.4778652099	-0.8576829316	 0.061169
H	 1.5120562025	-1.1329923179	 1.1675349824	 0.093268
H	 0.9362273949	 0.3374802606	 1.9650151631	 0.093094
H	-0.2002239556	-2.0458332207	 2.7320251948	 0.065035
H	-0.592987129	-2.5647446099	 0.1310734366	 0.085855
H	-2.160223107	-2.405966539	 0.9660112403	 0.10863
H	-1.9503416622	-0.494982457	-0.8912323489	 0.059822
H	-2.0100597014	 1.3384632693	 1.1091409274	 0.117386
H	-3.2437635087	 0.0624328914	 1.1575737152	 0.085439
H	-1.1166685412	 0.427638472	 3.1402595441	 0.056609
H	-3.266348121	-0.5090808964	 3.4507443849	 0.277966
92.6471	205.7918	264.8034	275.7657	280.6071	367.0673	398.7697	444.643	449.6886	524.5739	612.9223	744.6241	774.0738	819.4144	841.0723	856.8025	925.6515	940.3091	944.5149	963.0919	969.0418	1004.4413	1020.4814	1058.7166	1069.481	1127.4119	1142.8653	1154.7526	1173.5275	1194.4863	1210.3012	1248.7548	1264.8763	1283.7711	1290.7698	1317.1979	1330.2072	1338.6947	1357.3475	1366.1963	1415.4303	1429.7723	1477.4536	1481.7206	1505.8093	2982.4058	2986.8981	3041.2968	3054.4512	3056.0649	3088.1852	3099.8965	3108.0833	3117.7274	3125.6177	3816.2533	3825.493
OC1CC2CC1CC2O	O[C@H]1C[C@@H]2C[C@H]1C[C@H]2O	
InChI=1S/C7H12O2/c8-6-2-4-1-5(6)3-7(4)9/h4-9H,1-3H2	InChI=1S/C7H12O2/c8-6-2-4-1-5(6)3-7(4)9/h4-9H,1-3H2/t4-,5-,6-,7+/m0/s1
