14
gdb 46860	2.55312	1.86721	1.2752	4.9162	64.44	-0.2664	-0.0725	0.1939	951.387	0.101315	-473.815291	-473.808097	-473.807153	-473.84734	26.809	
N	-0.1767061494	 1.3005615893	-0.214336481	-0.47225
C	-0.0168491695	 0.1053405264	 0.1594565066	 0.312168
O	 1.0993629302	-0.3066504261	 0.830285971	-0.250535
C	 1.3600919227	-1.6919077587	 1.0389035767	-0.124367
C	 0.1276679471	-2.4721032653	 1.4321122593	 0.020055
O	-0.8148878073	-1.7764102278	 2.2216825953	-0.228238
C	-1.1690873046	-2.0643576153	 0.8577245958	-0.049846
C	-1.1268981213	-0.9098330742	-0.0926116248	 0.317353
O	-1.8975590593	-0.8077131276	-1.0123153098	-0.27932
H	 0.6394979485	 1.8635193033	 0.0380098609	 0.233564
H	 1.8047072869	-2.1408979318	 0.1394649376	 0.128999
H	 2.1069294295	-1.7247652849	 1.8371446426	 0.143161
H	 0.2864537935	-3.5202727829	 1.6850152923	 0.122709
H	-1.976926507	-2.7756354445	 0.7091723676	 0.126547
70.8102	145.9446	239.0038	327.1657	347.6956	439.3693	448.2634	501.4575	600.0177	657.7193	747.4319	819.1202	833.1942	911.8648	920.4558	942.1682	955.0174	1029.7224	1083.0603	1116.049	1164.1592	1204.5883	1244.0271	1281.4934	1318.7439	1343.0779	1415.7392	1451.3051	1501.3282	1732.7442	1821.9911	3014.8369	3093.5546	3122.4222	3165.8604	3460.5718
N=C1OCC2OC2C1=O	[NH][C]1OC[C@H]2O[C@H]2C1=O	
InChI=1S/C5H5NO3/c6-5-3(7)4-2(9-4)1-8-5/h2,4,6H,1H2	InChI=1S/C5H5NO3/c6-5-3(7)4-2(9-4)1-8-5/h2,4,6H,1H2/t2-,4-/m1/s1
