14
gdb 18787	3.88236	2.50047	2.07184	4.6226	60.43	-0.234	-0.0167	0.2173	679.5496	0.109583	-378.657037	-378.651424	-378.65048	-378.686586	22.492	
O	-0.0084195193	 0.0339986238	 0.2337677638	-0.304371
C	-0.0559599904	 1.2063964881	 0.0338412602	 0.448076
C	-1.1499202742	 2.2853343022	-0.0714855818	-0.181871
N	-1.2057658238	 2.8745329562	 1.3256961289	-0.323275
C	 0.0109853778	 3.7066816212	 1.0407779531	-0.035959
C	 1.2882914612	 2.8531564923	 1.2115531863	-0.173629
N	 1.0203529312	 2.1728197428	-0.1222807353	-0.195505
C	 0.0023422087	 3.2556949979	-0.4460474608	 0.003962
H	-2.1044752037	 2.1135452159	-0.5679890145	 0.094819
H	-2.01447843	 3.4878808848	 1.3696759295	 0.232313
H	-0.0166320693	 4.7254390354	 1.4282603941	 0.083562
H	 2.2080653796	 3.4398971301	 1.1416905223	 0.122206
H	 1.3356372475	 2.1734204571	 2.0651886209	 0.137956
H	 0.1265395947	 3.8425969924	-1.3532484467	 0.091716
165.5099	265.8167	400.6511	459.7519	636.529	645.5517	743.8733	768.4309	815.0583	829.024	845.7444	884.046	911.7162	949.7729	977.9684	999.4814	1018.0467	1040.9015	1088.8394	1157.713	1164.3876	1186.223	1198.4243	1222.3295	1234.4421	1302.5428	1331.2824	1381.374	1489.051	1914.6788	3060.5271	3108.0232	3119.2537	3127.7122	3143.5626	3513.1262
O=C1C2NC3CN1C23	O=C1[C@H]2N[C@H]3CN1[C@@H]23	
InChI=1S/C5H6N2O/c8-5-3-4-2(6-3)1-7(4)5/h2-4,6H,1H2	InChI=1S/C5H6N2O/c8-5-3-4-2(6-3)1-7(4)5/h2-4,6H,1H2/t2-,3-,4+/m0/s1
