19
gdb 47437	2.98417	1.23758	0.92313	1.7843	75.36	-0.2365	-0.0242	0.2123	1263.9178	0.159424	-423.029925	-423.021554	-423.02061	-423.06367	31.236	
O	 0.151799317	 0.1079540727	 0.3883048953	-0.301035
C	 0.0447147389	 1.2753265249	 0.1242635194	 0.358154
C	-1.2406241992	 2.0005715512	-0.2859567898	-0.184292
O	-0.8599792879	 3.3234084443	-0.6077452896	-0.24902
C	 0.3101655589	 3.6330578764	 0.1507821102	-0.109242
C	 1.1484285363	 2.3462813759	 0.1619759019	-0.13344
C	 2.1265640488	 2.184845223	 1.2972996921	 0.030468
C	 3.2899361467	 1.2373971	 1.1724067565	-0.255972
C	 3.5337681173	 2.7248661283	 1.1845090685	-0.285789
H	-1.7169182942	 1.531569289	-1.1519073453	 0.138827
H	-1.9508891357	 1.9640128063	 0.5578647777	 0.11967
H	 0.8010695784	 4.4804744667	-0.3311494066	 0.120597
H	 0.0427353678	 3.9252507363	 1.180104482	 0.094626
H	 1.6785673303	 2.2670169598	-0.7984453057	 0.106892
H	 1.6703156386	 2.2470655759	 2.2821590611	 0.086449
H	 3.5711926814	 0.6592455643	 2.0447892437	 0.117805
H	 3.4100507997	 0.7066968782	 0.234621017	 0.119409
H	 3.8213970578	 3.2012452237	 0.2527203663	 0.11094
H	 3.9836390091	 3.1691291332	 2.0652342853	 0.114954
63.1184	83.7182	144.1847	190.1551	268.7262	311.258	387.6242	475.6566	552.1883	592.2362	663.7639	740.6564	784.8893	830.6213	881.705	920.124	938.6249	956.7758	983.6812	1022.0591	1062.2484	1077.4991	1088.3766	1092.2671	1133.6815	1143.3317	1195.0411	1197.787	1212.3786	1227.7533	1239.721	1272.1452	1286.8336	1325.6515	1386.7117	1423.7087	1471.9605	1475.716	1507.4292	1516.4202	1858.0878	2964.4555	2970.9341	3009.5702	3087.3471	3110.5658	3130.9666	3136.0838	3142.7797	3211.1676	3228.6264
O=C1COCC1C1CC1	O=C1COC[C@H]1C1CC1	
InChI=1S/C7H10O2/c8-7-4-9-3-6(7)5-1-2-5/h5-6H,1-4H2	InChI=1S/C7H10O2/c8-7-4-9-3-6(7)5-1-2-5/h5-6H,1-4H2/t6-/m0/s1
