20
gdb 107689	3.23797	1.25129	1.05717	2.4839	74.11	-0.2452	0.0785	0.3237	1182.8568	0.17349	-440.260981	-440.252735	-440.251791	-440.293934	31.93	
O	 0.101246791	 1.2536554263	-0.6009444991	-0.42223
C	 0.0567403148	 0.071100219	 0.1802803708	-0.122165
C	-1.3460972289	-0.4948536816	 0.2195550937	 0.267149
C	-2.3622819158	 0.3137435544	 1.0090501658	-0.161912
O	-3.6434931033	-0.2888539098	 1.0021306583	-0.245305
C	-3.6017134377	-1.5842314473	 1.5838997785	-0.076117
C	-2.8344516918	-2.582261539	 0.7052842546	-0.251499
C	-1.6064120466	-1.9517041848	 0.0599866041	-0.058788
N	-1.7864455781	-1.0273769591	-1.0830368391	-0.381865
H	-0.2505291844	 1.0045311723	-1.4648305313	 0.291731
H	 0.7466827084	-0.6930163927	-0.2077865838	 0.091298
H	 0.3951535492	 0.3503605288	 1.1845588223	 0.104165
H	-2.005955478	 0.4430216183	 2.0453008162	 0.09289
H	-2.4760072013	 1.3071605325	 0.5651191737	 0.124526
H	-3.1313146982	-1.5204153145	 2.5784744619	 0.092861
H	-4.6401774559	-1.8965925655	 1.7229294834	 0.11109
H	-2.5319260915	-3.4395929253	 1.3167523584	 0.107875
H	-3.4882835571	-2.9780749963	-0.0816876114	 0.114337
H	-0.7536495573	-2.615475132	-0.066525275	 0.089688
H	-2.7833336076	-0.8390625136	-1.1851411022	 0.232271
73.9751	128.4906	171.4339	274.1763	308.0775	352.1669	406.0399	418.9315	470.1392	514.6261	566.7589	681.2372	735.7924	808.8502	871.9165	895.6185	925.2724	930.5898	1009.6257	1017.2923	1047.6385	1055.189	1082.7199	1119.6385	1128.4504	1165.1412	1198.3388	1200.238	1258.8876	1276.6542	1315.0528	1322.5712	1346.8893	1363.2331	1373.1751	1403.3502	1421.1644	1428.5644	1457.0823	1485.0543	1493.7311	1497.8651	1503.966	2962.3243	2975.5217	2991.6774	3028.5694	3066.8013	3070.6881	3085.5553	3091.9532	3123.8206	3471.3194	3779.6519
OCC12COCCC1N2	OC[C@]12COCC[C@H]1N2	
InChI=1S/C6H11NO2/c8-3-6-4-9-2-1-5(6)7-6/h5,7-8H,1-4H2	InChI=1S/C6H11NO2/c8-3-6-4-9-2-1-5(6)7-6/h5,7-8H,1-4H2/t5-,6+/m1/s1
