19
gdb 78987	2.69893	1.90804	1.47191	1.2835	77.62	-0.2187	0.0589	0.2776	956.0841	0.159152	-385.815604	-385.808027	-385.807083	-385.847195	30.889	
C	-0.2831424964	 1.4926183828	-0.1354972044	-0.412449
C	-0.053881906	-0.0141620562	-0.0738686999	 0.009212
C	 1.0911671201	-0.5431923314	-0.9800951455	-0.142433
C	 1.2651824489	-2.0426239231	-0.6436083912	-0.070687
C	 1.0845936279	-2.0079154024	 0.8791388114	-0.070682
C	 2.4567171266	-1.8445334902	 0.2656563356	-0.163643
C	 2.1456348102	-0.3269842277	 0.1942424737	 0.416877
O	 3.1391540817	 0.6189904686	 0.2906403505	-0.479471
C	 0.8446561207	-0.4958227143	 1.0978412041	-0.142498
H	 0.651389162	 2.0588543127	-0.0380566819	 0.090592
H	-0.7384345193	 1.7862120524	-1.0875861373	 0.117994
H	-0.9462388856	 1.8265317107	 0.669962999	 0.117971
H	-1.008351454	-0.5435102572	-0.1750032948	 0.064279
H	 1.2393875895	-0.2111059457	-2.0080668203	 0.059854
H	 1.013017252	-2.903855027	-1.2478171705	 0.084801
H	 0.6935776657	-2.8424452548	 1.4457454083	 0.084803
H	 3.3724408549	-2.4058640491	 0.3870571256	 0.090676
H	 2.7484979871	 1.4971188297	 0.2260102646	 0.284974
H	 0.7501458741	-0.1171119279	 2.115992853	 0.059832
122.8452	185.396	226.2253	269.282	332.0526	336.6953	480.3223	543.1095	609.3628	719.0528	720.8728	799.444	802.505	812.1128	861.7217	880.3007	914.5312	939.5852	954.9141	963.9632	983.7833	991.0486	1031.8218	1033.5173	1057.5554	1065.6707	1110.0339	1113.5194	1151.7027	1195.7987	1205.4628	1236.6881	1236.7133	1279.294	1297.0209	1339.3485	1379.2079	1400.3235	1413.4795	1485.0176	1500.0863	3021.5331	3036.7838	3081.6957	3093.6341	3111.1695	3113.8104	3194.5146	3199.6303	3217.7114	3807.5668
CC1C2C3C4C3C2(O)C14	C[C@H]1[C@@H]2[C@@H]3[C@H]4[C@@H]3[C@]2(O)[C@@H]14	
InChI=1S/C8H10O/c1-2-5-3-4-6(2)8(5,9)7(3)4/h2-7,9H,1H3	InChI=1S/C8H10O/c1-2-5-3-4-6(2)8(5,9)7(3)4/h2-7,9H,1H3/t2-,3-,4+,5+,6-,7+,8+
