19
gdb 102416	2.33421	1.15821	0.85591	1.5963	80.83	-0.2215	0.0457	0.2671	1393.0885	0.156853	-419.171092	-419.160457	-419.159513	-419.207097	37.16	
C	-0.4126657159	-0.5208285452	 0.9569367433	-0.317771
N	 0.2144690534	 0.0934242904	-0.203790527	-0.359724
C	 0.7796955534	-0.6468701702	-1.2126040401	 0.498085
O	 0.5003940098	-1.9595825933	-1.0722959325	-0.24944
C	 0.9512668763	-2.8145838375	-2.1215544703	-0.223116
N	 1.4623945102	-0.2280032799	-2.2098549603	-0.367829
C	 1.6457017571	 1.2082320798	-2.3630434403	-0.313546
C	 2.4288010958	 1.8566649957	-1.3007571625	 0.302727
C	 3.0452907939	 2.369348343	-0.4029404392	-0.470317
H	-1.2049354877	-1.200680627	 0.6391808183	 0.144788
H	 0.2915076373	-1.0870347794	 1.5807047048	 0.12436
H	-0.8594510238	 0.2703533271	 1.5638685821	 0.122798
H	 0.6891958198	 0.9675097909	-0.0307234524	 0.256028
H	 0.5283327076	-2.508920789	-3.0819692803	 0.134409
H	 2.0410060314	-2.7908357435	-2.2011254968	 0.137769
H	 0.6075750472	-3.814033162	-1.8500705275	 0.121671
H	 2.1550847935	 1.379805861	-3.317988524	 0.136201
H	 0.6754905295	 1.7285917814	-2.4353330181	 0.124696
H	 3.6153246312	 2.8249335876	 0.3686921328	 0.198213
63.8602	85.5331	131.0936	136.0171	162.234	196.6802	208.3295	230.5732	286.2008	330.2027	347.1826	499.1845	521.6313	619.8737	644.3135	648.3086	687.5836	739.71	814.2813	920.9457	1000.6312	1056.7215	1073.6404	1145.4628	1159.3809	1183.1138	1191.5902	1224.4119	1276.8983	1347.806	1376.5749	1460.2546	1472.0735	1474.0474	1484.4265	1495.3822	1496.6554	1504.8399	1527.8938	1726.2785	2219.6361	2960.4731	3016.3237	3048.0332	3049.7935	3096.6193	3122.7701	3137.4242	3146.17	3503.0641	3598.4097
CNC(OC)=NCC#C	CNC(=NCC#C)OC	
InChI=1S/C6H10N2O/c1-4-5-8-6(7-2)9-3/h1H,5H2,2-3H3,(H,7,8)	InChI=1S/C6H10N2O/c1-4-5-8-6(7-2)9-3/h1H,5H2,2-3H3,(H,7,8)
