17
gdb 110437	2.62879	1.59159	1.20752	3.2345	70.85	-0.2406	0.0001	0.2407	1038.8076	0.136072	-421.785226	-421.777469	-421.776525	-421.818146	29.613	
O	 0.0950506088	 1.3617111397	 0.2575729285	-0.419618
C	 0.071635415	-0.0315756144	-0.0165533847	-0.101852
C	-1.3483852135	-0.5864658	-0.0176635216	-0.007589
C	-1.601262215	-2.1024354432	 0.0166624059	-0.097256
C	-2.7706385804	-1.9531994472	 0.9275864782	-0.08413
C	-1.4687243837	-2.5736981025	 1.479830606	-0.194628
C	-1.2946517337	-1.3368631502	 2.3023571287	 0.439149
O	-0.8490757434	-1.099811817	 3.3906922121	-0.349047
C	-2.1695277887	-0.5402900074	 1.3114465599	-0.211944
H	-0.0870978516	 1.4774789563	 1.195833455	 0.293593
H	 0.5188730815	-0.154965577	-1.0092378595	 0.109753
H	 0.7003676573	-0.5904044859	 0.6928841999	 0.103291
H	-1.9311676845	-0.1309315376	-0.824345446	 0.089673
H	-1.463880181	-2.8254904023	-0.7779903486	 0.102941
H	-3.768493401	-2.3610095807	 0.9583180335	 0.118638
H	-1.2740740117	-3.6062492624	 1.733844715	 0.11371
H	-2.7154086447	 0.3438433121	 1.6283482776	 0.095315
44.9505	136.6981	169.0377	251.9333	314.8685	416.1996	438.5167	542.2413	605.2252	700.1331	767.6843	782.7895	815.5809	824.8897	855.5475	862.4536	895.638	994.2772	1009.3153	1026.8363	1034.5549	1043.8831	1073.8401	1092.9123	1111.0023	1139.0222	1144.9027	1180.4406	1225.159	1257.971	1296.4668	1344.0021	1357.6032	1401.1745	1421.5955	1501.4658	1876.0046	2992.8224	3058.9008	3073.9629	3165.4906	3190.9642	3223.2818	3249.9399	3816.5224
OCC1C2C3C2C(=O)C13	OC[C@H]1[C@@H]2[C@H]3[C@@H]2C(=O)[C@@H]13	
InChI=1S/C7H8O2/c8-1-2-3-5-4(2)7(9)6(3)5/h2-6,8H,1H2	InChI=1S/C7H8O2/c8-1-2-3-5-4(2)7(9)6(3)5/h2-6,8H,1H2/t2-,3+,4-,5+,6+/m0/s1
