17
gdb 38131	2.82641	2.0968	1.84316	1.302	69.84	-0.2315	-0.0085	0.223	824.0312	0.13974	-421.800218	-421.794306	-421.793362	-421.830124	25.444	
C	-0.0291413995	 1.5855947493	-0.1036411236	-0.103378
O	 1.3493363844	 1.9802569895	 0.0101666237	-0.266579
C	 2.016230441	 0.9404562184	 0.742290143	-0.000832
C	 1.5553746024	 0.9943072449	 2.1874731593	-0.05511
C	 0.4712490079	 0.2787756938	 2.4950532437	-0.079808
C	-0.0036843595	-0.6523522563	 1.4028050048	 0.040365
O	 1.1720072988	-1.4221564271	 0.9817377482	-0.298609
C	 1.4640139277	-0.3542908559	 0.0646871885	 0.097156
C	-0.016113335	 0.06124844	 0.0002884358	-0.079127
H	-0.6320417601	 2.0532136934	 0.6861040187	 0.098399
H	-0.391129162	 1.9390757949	-1.0731840479	 0.109819
H	 3.0879313745	 1.1032771372	 0.6181082247	 0.081541
H	 2.0481633162	 1.6685229636	 2.8796767159	 0.104649
H	-0.0097408278	 0.297912049	 3.4668409452	 0.099897
H	-0.8411430738	-1.2966714877	 1.6747755367	 0.077488
H	 2.0325261393	-0.677251103	-0.8092140584	 0.085424
H	-0.6260301844	-0.4631673741	-0.7343581384	 0.088706
252.4674	292.7045	378.456	429.0571	516.4443	586.4368	670.2561	695.1242	708.1969	736.8013	797.8627	857.2429	912.2894	922.794	933.9494	947.9497	974.3935	990.8428	1013.1905	1032.5827	1048.9198	1068.2121	1082.4215	1122.7026	1177.2479	1218.4788	1244.9893	1265.4271	1290.2246	1306.6759	1312.7342	1330.7878	1360.0538	1381.998	1390.5181	1507.3926	1677.4425	3015.5614	3082.8712	3095.279	3100.5104	3107.1542	3124.7234	3177.2222	3200.1476
C1OC2C=CC3OC2C13	C1O[C@H]2C=C[C@@H]3O[C@H]2[C@H]13	
InChI=1S/C7H8O2/c1-2-6-7-4(3-8-6)5(1)9-7/h1-2,4-7H,3H2	InChI=1S/C7H8O2/c1-2-6-7-4(3-8-6)5(1)9-7/h1-2,4-7H,3H2/t4-,5+,6+,7+/m1/s1
