20
gdb 92104	2.69439	1.67846	1.40128	1.218	78.09	-0.2096	0.0736	0.2831	1018.5703	0.172458	-403.10701	-403.099193	-403.098249	-403.138779	31.678	
C	-0.062099256	 1.5206319305	 0.0367839286	-0.508655
C	 0.0393938823	 0.0243295621	-0.0076095305	 0.332878
C	 0.8259533635	-0.7954018234	-1.0227055614	-0.228569
N	-0.1469603079	-1.9442245825	-0.857729497	-0.123339
C	 0.3863054989	-2.8903642494	 0.1396279852	-0.198162
C	 0.6180911486	-2.0816267705	 1.4534599044	 0.070693
O	 1.9725328989	-1.6796695189	 1.6605359506	-0.430512
C	-0.2493834145	-0.8590263383	 1.2104532828	-0.093956
C	-1.0325196345	-1.0390565174	-0.061861087	-0.098807
H	 0.8698274358	 1.9686543951	 0.4003858524	 0.127782
H	-0.2646921927	 1.9303502684	-0.9595144347	 0.11883
H	-0.8677285048	 1.8479157592	 0.7022965765	 0.11747
H	 0.7489270228	-0.3886424823	-2.0367374968	 0.097036
H	 1.8678664536	-1.0331719608	-0.7921969454	 0.109998
H	-0.3625921227	-3.6735058544	 0.3057390592	 0.099355
H	 1.3051496872	-3.3620208897	-0.2236784837	 0.095537
H	 0.2611014635	-2.6403286953	 2.331526572	 0.06073
H	 2.4845206394	-2.4671415366	 1.8704751795	 0.280691
H	-0.7078813868	-0.3488305883	 2.0499623046	 0.084228
H	-2.1082584446	-1.0107009976	-0.1869206194	 0.086771
154.6736	183.2932	207.789	281.3024	301.4015	345.2065	420.737	437.6749	519.8038	579.8305	678.2768	737.1516	799.1051	830.1282	835.7884	885.3732	897.2275	935.1461	957.9819	991.3882	1005.6497	1029.241	1037.7894	1045.1735	1078.2632	1125.6586	1147.771	1189.7925	1205.5165	1217.9655	1257.1453	1258.7477	1276.1823	1305.4905	1325.1324	1345.7383	1412.6618	1421.7192	1444.345	1475.9719	1487.1542	1497.4711	1508.8091	2981.1836	3022.7571	3033.1509	3038.0318	3084.5187	3087.3317	3094.557	3101.2974	3176.4128	3186.6325	3815.9645
CC12CN3CC(O)C1C23	C[C@@]12CN3C[C@@H](O)[C@@H]1[C@@H]23	
InChI=1S/C7H11NO/c1-7-3-8-2-4(9)5(7)6(7)8/h4-6,9H,2-3H2,1H3	InChI=1S/C7H11NO/c1-7-3-8-2-4(9)5(7)6(7)8/h4-6,9H,2-3H2,1H3/t4-,5-,6+,7-/m1/s1
