18
gdb 31828	4.80953	1.00476	0.83825	1.9867	86.83	-0.1773	-0.0068	0.1705	1362.2748	0.150346	-398.187201	-398.178776	-398.177831	-398.219988	32.481	
C	 0.0389052778	 1.4436045796	 0.0917442548	-0.322191
N	-0.1413581429	 0.0153697601	-0.0819484197	-0.376288
C	 0.558824837	-0.6635571324	-1.0831408224	 0.287113
C	 1.182860435	-0.0207784257	-2.1563856534	-0.07652
N	 1.804870788	-0.6579269399	-3.1553007034	-0.328981
C	 1.8637366556	-1.9872147396	-3.1312527426	 0.34819
N	 2.5851412557	-2.6048786549	-4.1543384387	-0.571473
C	 1.2816042228	-2.7345938699	-2.092683087	-0.165935
C	 0.6257597021	-2.0670854583	-1.0786254557	-0.149552
H	 1.0927641338	 1.7469231407	 0.2029832339	 0.113537
H	-0.3765568381	 1.9880985005	-0.7634072954	 0.135282
H	-0.509603075	 1.7620525398	 0.9812002157	 0.121569
H	-0.1725554171	-0.4925820368	 0.7893229888	 0.231599
H	 1.1767870673	 1.0626624084	-2.2277556484	 0.093419
H	 2.7194065287	-1.9879875564	-4.943704475	 0.246879
H	 2.2425173036	-3.5132467468	-4.4316972658	 0.241435
H	 1.3508920414	-3.8174696487	-2.0881790598	 0.084949
H	 0.1581047842	-2.6252589997	-0.2717640959	 0.086968
88.947	140.5784	206.2551	240.7343	320.6162	348.5258	376.2669	433.8066	443.5657	470.8986	540.129	583.9793	652.2582	657.781	776.4669	787.4844	845.5405	870.1536	919.9733	954.0323	1024.2088	1079.6563	1093.3879	1151.1179	1162.8374	1175.7693	1289.7404	1323.4101	1342.6	1360.6803	1420.6069	1469.2339	1484.0868	1504.0809	1526.8528	1541.8519	1613.0993	1632.2879	1665.5055	2970.9006	3059.991	3117.4393	3158.3586	3169.4996	3182.6303	3556.1486	3597.6275	3662.7847
CNC1=CN=C(N)C=C1	CNc1cnc(N)cc1	
InChI=1S/C6H9N3/c1-8-5-2-3-6(7)9-4-5/h2-4,8H,1H3,(H2,7,9)	InChI=1S/C6H9N3/c1-8-5-2-3-6(7)9-4-5/h2-4,8H,1H3,(H2,7,9)
