19
gdb 61053	2.6732	1.20707	0.91611	4.299	72.26	-0.2418	-0.0193	0.2225	1280.0003	0.156488	-460.146113	-460.136246	-460.135302	-460.181898	34.517	
C	-0.2519587781	 1.3278289865	 0.0225328236	-0.405073
C	-0.0300849104	-0.1843688868	-0.0225929982	-0.085169
C	 0.5723106486	-0.6442660145	-1.342073975	 0.128755
O	 0.950937485	 0.1008473553	-2.2113753973	-0.24112
C	 0.865202061	-0.6383790355	 1.1416283235	 0.115769
O	 0.3080835833	-0.2854986909	 2.4304716949	-0.288698
C	 0.2604927374	-1.662158322	 2.8558314961	-0.095823
C	 0.8821585522	-2.1398443759	 1.5251599385	 0.032061
O	 0.0704872134	-2.9342981179	 0.6902760524	-0.419436
H	 0.6877626609	 1.862955504	-0.1417067786	 0.12665
H	-0.946523435	 1.6394621407	-0.761340585	 0.122743
H	-0.6575205096	 1.617487838	 0.9941473213	 0.132444
H	-0.9828407943	-0.7204992061	 0.0833734483	 0.104813
H	 0.6456813106	-1.7459074717	-1.4556758602	 0.093913
H	 1.8652792342	-0.1979817316	 1.0280187017	 0.087946
H	 0.8542670179	-1.8323553176	 3.7618907355	 0.103318
H	-0.7660042584	-2.015377747	 3.0136207593	 0.106676
H	 1.8892017965	-2.5616824409	 1.6201644038	 0.085727
H	 0.1590226246	-3.8544124363	 0.9566749753	 0.294503
47.7253	67.9884	89.0255	161.0499	197.5066	218.0116	257.6731	271.8327	334.4113	391.9845	420.8121	540.0079	686.9261	776.3418	795.8162	873.8662	894.5679	940.5665	963.784	1019.0829	1031.1049	1064.2814	1096.2795	1110.5952	1144.2285	1155.5021	1185.1125	1213.3258	1271.3188	1286.1664	1308.8242	1331.6767	1352.5741	1382.5389	1401.8076	1420.986	1439.7994	1491.4979	1497.2145	1511.6253	1820.8342	2922.1749	3005.7428	3016.1307	3031.6278	3037.9522	3052.8443	3068.7574	3122.2226	3138.1459	3828.3134
CC(C=O)C1OCC1O	C[C@@H](C=O)[C@H]1OC[C@H]1O	
InChI=1S/C6H10O3/c1-4(2-7)6-5(8)3-9-6/h2,4-6,8H,3H2,1H3	InChI=1S/C6H10O3/c1-4(2-7)6-5(8)3-9-6/h2,4-6,8H,3H2,1H3/t4-,5+,6+/m0/s1
