19
gdb 82337	2.2757	1.68387	1.3328	4.8647	77.69	-0.2316	0.0256	0.2572	1045.2896	0.16138	-382.068762	-382.060639	-382.059695	-382.101209	31.744	
C	 0.0491958689	 1.5994358261	-0.0498657142	-0.405568
C	 0.1039433063	 0.0716289063	-0.0269203179	 0.003348
C	 0.7595363979	-0.5933676444	-1.2293436449	-0.055693
C	 2.2760983562	-0.6102936305	-1.2928894006	-0.306545
C	 1.5364418318	-1.7777212298	-0.7059975357	 0.000355
N	 1.4467298289	-1.8452149483	 0.7487766722	-0.287187
C	 0.8739457851	-0.5593618148	 1.1957567739	-0.200697
C	 1.9334278778	 0.3187797176	 1.7246467957	 0.33572
N	 2.7449661233	 1.0195467765	 2.1564900716	-0.350487
H	 1.0485649099	 2.0335363854	-0.1377432943	 0.143123
H	-0.5459350635	 1.9423961476	-0.9015605224	 0.116858
H	-0.4108676059	 1.9979825081	 0.860252124	 0.121084
H	-0.9228927913	-0.3121050014	 0.0352676966	 0.08201
H	 0.1932576348	-0.6370657371	-2.1529087543	 0.088303
H	 2.7196903534	-0.7574342785	-2.2715607431	 0.117241
H	 2.8552891324	 0.0343949687	-0.6410852873	 0.145549
H	 1.5662908214	-2.7416801208	-1.199499483	 0.095853
H	 0.8027661862	-2.5874003339	 1.0000716994	 0.22906
H	 0.1867488462	-0.7343079069	 2.0289623645	 0.127673
97.5779	157.2398	192.5956	236.0732	275.8017	330.7189	400.4034	482.2243	482.7705	593.4082	650.1361	717.1362	743.269	773.854	796.827	857.463	903.1122	934.7787	956.7733	1000.4789	1017.0502	1058.0072	1063.051	1080.3184	1094.8864	1123.8047	1151.2235	1161.8484	1200.5019	1233.0493	1302.7462	1332.6362	1348.013	1361.2054	1404.005	1419.6607	1456.4705	1493.2937	1498.7266	1501.8917	2353.2297	3014.8236	3040.8243	3068.9663	3105.0296	3124.0669	3139.0602	3169.4748	3185.7163	3223.912	3527.6715
CC1C2CC2NC1C#N	C[C@H]1[C@H]2C[C@H]2N[C@H]1C#N	
InChI=1S/C7H10N2/c1-4-5-2-6(5)9-7(4)3-8/h4-7,9H,2H2,1H3	InChI=1S/C7H10N2/c1-4-5-2-6(5)9-7(4)3-8/h4-7,9H,2H2,1H3/t4-,5+,6+,7-/m0/s1
