25
gdb 114336	3.01841	0.99942	0.97845	0.1273	92.04	-0.2537	0.0762	0.3299	1424.919	0.230166	-352.36566	-352.356101	-352.355157	-352.400245	36.994	
C	 0.1474128395	 1.4380823708	 0.0878264536	-0.383929
C	 0.0422598406	-0.0904684631	 0.109943932	-0.190563
C	-1.3945809903	-0.6183272775	 0.0749834189	 0.08208
C	-2.1979474231	-0.2722014492	-1.2097140577	-0.250093
C	-3.2260344672	-1.3924198765	-1.3704520348	-0.061878
C	-2.7991392178	-2.702957528	-1.9964909953	 0.006113
C	-1.553200245	-2.8791254451	-2.8358992655	-0.416259
C	-2.7989275253	-2.5561625516	-0.4898929486	-0.061751
C	-1.504555586	-2.1611546024	 0.219754046	-0.264261
H	 1.1909288627	 1.7651276733	 0.1357356797	 0.109333
H	-0.2892718607	 1.8577403578	-0.8243933803	 0.117873
H	-0.3791862958	 1.8821549399	 0.9403402859	 0.111861
H	 0.5967771599	-0.5084084595	-0.7423460603	 0.091203
H	 0.5401473607	-0.4736305453	 1.010346368	 0.091272
H	-1.9402558839	-0.1772845957	 0.9210842223	 0.065595
H	-2.6921630585	 0.6997133826	-1.1247720121	 0.096132
H	-1.5300920632	-0.2016326978	-2.0780646585	 0.094111
H	-4.2713656787	-1.1145282495	-1.4529607704	 0.074937
H	-3.6360681729	-3.2911525782	-2.3682156072	 0.076641
H	-0.7092186066	-2.2844754982	-2.4779936679	 0.119771
H	-1.2332178229	-3.9273547981	-2.8422305439	 0.114265
H	-1.7404872383	-2.584599828	-3.8748130253	 0.114096
H	-3.5331142157	-3.1254683729	 0.0701141203	 0.075037
H	-0.6294078207	-2.655174132	-0.2214404292	 0.094272
H	-1.5257421308	-2.4592921356	 1.27236521	 0.094142
48.8853	100.1501	151.7828	186.2736	215.8052	244.6228	278.3311	376.1435	406.7698	436.1171	529.2252	564.7777	684.4588	752.6349	756.3993	775.5117	831.2176	878.115	889.2831	942.7049	965.0038	976.8456	980.4448	1007.9456	1031.5822	1061.6849	1070.7738	1094.8331	1115.9067	1137.7166	1151.4857	1157.8626	1197.3566	1230.9435	1243.2485	1287.5105	1288.3281	1311.4239	1332.8137	1340.8724	1360.1761	1370.9083	1386.5559	1409.8081	1416.64	1435.4291	1483.1797	1483.2216	1497.2626	1498.6598	1505.6402	1506.5397	1512.626	2995.1239	3005.4515	3020.3568	3026.3305	3029.1316	3031.5412	3040.1948	3074.7582	3079.7868	3083.644	3094.7071	3101.3815	3107.1653	3123.9873	3152.8454	3164.5671
CCC1CC2C(C)C2C1	CC[C@H]1C[C@H]2[C@@H](C)[C@H]2C1	
InChI=1S/C9H16/c1-3-7-4-8-6(2)9(8)5-7/h6-9H,3-5H2,1-2H3	InChI=1S/C9H16/c1-3-7-4-8-6(2)9(8)5-7/h6-9H,3-5H2,1-2H3/t6-,7+,8+,9-
