18
gdb 12121	3.18421	1.92305	1.49733	0.0006	67.73	-0.2437	0.0708	0.3145	899.2537	0.151901	-384.902919	-384.894704	-384.89376	-384.934996	32.389	
O	 0.0890749697	 1.3160938961	-0.2492060867	-0.463149
C	 0.0204187046	-0.0746675855	-0.0582658344	 0.3452
C	 1.0593199135	-0.8543123896	-0.8105990828	-0.304209
C	 1.1429909201	-0.7331053589	 0.6997681348	-0.321162
C	-1.3875028904	-0.6119372603	 0.0687267908	 0.345211
O	-1.4561942845	-2.0027168937	 0.2595904359	-0.463157
C	-2.4263479782	 0.1677112962	 0.8211451945	-0.304205
C	-2.5100829253	 0.046569712	-0.6892229574	-0.321156
H	 0.015604212	 1.7348150409	 0.6150614612	 0.285101
H	 0.7966056525	-1.819545474	-1.2287470254	 0.098728
H	 1.7547848765	-0.2721422185	-1.4033244801	 0.122448
H	 1.9110673129	-0.0841155772	 1.1061716999	 0.108097
H	 0.9052922234	-1.6098289908	 1.2898155976	 0.128941
H	-1.3823470496	-2.4214187203	-0.6046476713	 0.285097
H	-3.121802046	-0.4144776858	 1.4138636929	 0.122447
H	-2.163571624	 1.1329102345	 1.2393342535	 0.098732
H	-2.2723664093	 0.9232964726	-1.2792592534	 0.128938
H	-3.2782053079	-0.6023730275	-1.0956154495	 0.108099
68.9193	224.9242	238.7988	283.4304	315.3868	327.6445	372.1155	417.3374	426.8294	443.4307	564.7224	599.0501	770.0497	776.5965	833.7354	878.6519	913.6607	930.6554	931.4134	957.5784	987.2612	1000.2287	1049.2973	1055.4827	1077.5778	1077.8462	1190.3797	1192.2942	1200.3136	1254.2724	1277.4318	1345.5345	1354.7402	1388.6692	1441.1166	1441.5445	1481.1022	1500.6759	3137.0804	3137.5173	3139.5796	3140.15	3224.3588	3224.4568	3238.1193	3238.7953	3802.6007	3803.3435	68.9192	224.9241	238.7988	283.4296	315.3867	327.6435	372.1152	417.3374	426.8293	443.4306	564.7223	599.0501	770.0496	776.5965	833.7354	878.6519	913.6607	930.6553	931.4134	957.5784	987.2611	1000.2287	1049.2972	1055.4827	1077.5778	1077.8462	1190.3797	1192.2942	1200.3135	1254.2724	1277.4318	1345.5345	1354.7401	1388.6691	1441.1165	1441.5444	1481.1022	1500.6759	3137.0804	3137.5173	3139.5796	3140.15	3224.3588	3224.4568	3238.1193	3238.7953	3802.6003	3803.3432
OC1(CC1)C1(O)CC1	OC1(CC1)C1(O)CC1	
InChI=1S/C6H10O2/c7-5(1-2-5)6(8)3-4-6/h7-8H,1-4H2	InChI=1S/C6H10O2/c7-5(1-2-5)6(8)3-4-6/h7-8H,1-4H2
