23
gdb 88440	2.28541	1.27905	1.11334	2.0645	86.45	-0.2184	0.0692	0.2876	1272.3787	0.204623	-384.415103	-384.405105	-384.404161	-384.449755	38.024	
C	 1.0080708469	-2.8701754025	 4.2864354617	-0.396242
C	 0.8794106976	-2.7126084566	 2.7909594625	 0.00936
N	-0.2281253906	-1.8735731177	 2.3170529338	-0.341001
C	 1.1558051627	-1.4545956969	 2.0294292819	-0.111678
C	 1.6082127818	-0.1201215074	 2.5845151512	 0.329633
C	 0.5766153539	 0.985197572	 2.4591391104	-0.435194
C	 2.6226996212	-0.0499537361	 3.6824512426	-0.287213
N	 2.9886139657	 0.3278747463	 2.3227124312	-0.12018
C	 3.9104698866	-0.5562457973	 1.6248090367	-0.316482
H	 0.7980486865	-1.9299299504	 4.7998359603	 0.135061
H	 0.2922457436	-3.6176912908	 4.6453832298	 0.117547
H	 2.0120527628	-3.2072061514	 4.566362047	 0.112564
H	 1.0707254505	-3.6298405398	 2.2326323063	 0.079146
H	-0.6618580919	-2.2669428659	 1.4869995785	 0.229972
H	 1.4857124775	-1.6133766919	 1.0021367734	 0.085627
H	-0.3249722723	 0.7333494074	 3.0230588421	 0.131509
H	 0.9881209083	 1.9285987652	 2.8255417389	 0.116293
H	 0.28693818	 1.1269400932	 1.411428794	 0.107829
H	 2.5847260015	 0.757645569	 4.410589419	 0.10698
H	 3.0212147411	-0.9861729145	 4.0672231323	 0.104935
H	 3.8062476641	-1.6227735695	 1.8808274123	 0.101309
H	 3.7755222209	-0.448958269	 0.5430564428	 0.119032
H	 4.9340961314	-0.2503580355	 1.8643730812	 0.121192
43.8557	170.1794	176.9429	192.6115	226.3345	232.4641	243.7294	282.2672	340.4678	382.0263	420.3293	456.5214	505.6702	560.2532	695.5319	761.0351	790.992	846.9829	900.2493	924.07	952.6047	986.7908	1011.8553	1024.115	1058.7821	1080.8369	1100.5629	1123.7228	1145.0765	1156.8286	1170.2207	1198.9033	1210.7478	1246.8469	1265.3407	1311.5055	1367.5008	1400.3476	1406.7933	1428.7687	1450.1845	1462.1065	1480.5037	1491.3541	1494.509	1496.7767	1498.1511	1499.8978	1515.8511	2974.2908	3035.0732	3035.3361	3062.05	3086.6252	3092.238	3094.0247	3094.6807	3098.6393	3103.3831	3133.2081	3135.4586	3176.1949	3507.8984
CC1NC1C1(C)CN1C	C[C@H]1N[C@H]1[C@@]1(C)CN1C	
InChI=1S/C7H14N2/c1-5-6(8-5)7(2)4-9(7)3/h5-6,8H,4H2,1-3H3	InChI=1S/C7H14N2/c1-5-6(8-5)7(2)4-9(7)3/h5-6,8H,4H2,1-3H3/t5-,6-,7-,9?/m1/s1
