17
gdb 91010	4.37717	1.40914	1.2425	1.2389	67.33	-0.2428	0.0633	0.3061	1011.1392	0.136406	-458.894878	-458.887978	-458.887034	-458.925988	27.84	
C	 0.0814234882	 1.5454585851	 0.0106296652	-0.406358
C	 0.0760819236	 0.0355313194	 0.0046494984	 0.223584
O	 0.7389003163	-0.4259846493	-1.1593706606	-0.278087
C	 1.0602909717	-1.7874404941	-1.0639268026	 0.118177
C	 0.3253348895	-2.6711662753	-0.0026045327	-0.054293
O	 1.4928800733	-3.5596568062	 0.0094300851	-0.305234
C	 2.0864808885	-2.2118448513	 0.0225629973	-0.011165
C	 1.0317622895	-1.7958231508	 1.0847162456	 0.118181
O	 0.7077821506	-0.4351387676	 1.1822427664	-0.278089
H	 1.1117877023	 1.9083627815	 0.0256324157	 0.136338
H	-0.4180211772	 1.9220256982	-0.8848738263	 0.131237
H	-0.4414879779	 1.915039252	 0.895586131	 0.13124
H	-0.9531226018	-0.3656587234	-0.0105910579	 0.072291
H	 1.1939264864	-2.2168407428	-2.0570441924	 0.102361
H	-0.658001563	-3.1408345827	-0.0174948823	 0.100061
H	 3.1720151477	-2.1238591706	 0.0373147417	 0.097394
H	 1.1390515921	-2.2329957821	 2.0776388284	 0.102362
134.2534	209.7177	289.3621	304.8529	428.7827	434.5764	467.0946	580.4691	607.1371	733.0823	774.1781	844.1303	854.5123	886.4043	886.7221	906.5691	908.1053	1022.6784	1028.23	1061.5038	1087.9552	1128.6289	1139.9201	1143.8445	1172.4916	1178.8164	1205.6689	1217.6392	1260.8279	1268.5861	1329.4113	1387.242	1394.4842	1399.422	1436.3888	1483.0433	1488.1564	2942.0869	3059.1931	3116.2663	3123.4897	3125.6822	3139.5984	3142.0342	3142.2555
CC1OC2C3OC2C3O1	C[C@H]1O[C@@H]2[C@H]3O[C@@H]2[C@H]3O1	
InChI=1S/C6H8O3/c1-2-7-3-5-4(8-2)6(3)9-5/h2-6H,1H3	InChI=1S/C6H8O3/c1-2-7-3-5-4(8-2)6(3)9-5/h2-6H,1H3/t2-,3-,4+,5-,6+
