19
gdb 22844	3.16535	1.16929	0.88829	3.1658	86.95	-0.1842	-0.0057	0.1786	1292.9153	0.161857	-419.182331	-419.173877	-419.172933	-419.215394	32.69	
O	 0.0074470741	 1.3632367624	 0.6955044834	-0.403463
N	 0.069135866	-0.036735194	 0.5539167678	-0.20871
C	-0.9617862883	-0.5195656015	-0.0590427427	 0.314689
C	-0.9203381101	-2.0246069344	-0.1890288684	-0.27775
C	-1.3129738121	-2.5708217554	-1.5681025614	-0.203765
C	-2.8179755583	-2.5234098228	-1.8344344504	-0.150035
N	-3.3348915125	-1.1927599467	-2.106679765	-0.3
C	-3.0592207508	-0.047345127	-1.4100420786	 0.002104
C	-2.0683795126	 0.2768953787	-0.5447545891	-0.166078
H	 0.8203570319	 1.5447115645	 1.1769607556	 0.299984
H	 0.0910175686	-2.3438299414	 0.0744314783	 0.114392
H	-1.5949748133	-2.4662478172	 0.5589950404	 0.103326
H	-0.7749461788	-2.0440800231	-2.3643388184	 0.114688
H	-1.0121203237	-3.6231345165	-1.6210720804	 0.103169
H	-3.0557946753	-3.1369757083	-2.7099865904	 0.105452
H	-3.3368213112	-2.9786049197	-0.9731845013	 0.100435
H	-4.2185244591	-1.1828964088	-2.5881976461	 0.242863
H	-3.7554134698	 0.7479973442	-1.666084515	 0.105819
H	-2.0648196647	 1.307409717	-0.2166462182	 0.10288
76.1139	122.2396	234.409	265.2258	323.0176	340.2488	364.3827	390.4209	416.1399	485.9822	521.7125	597.1061	666.6269	743.3213	800.3844	826.3961	863.5866	908.5279	942.0831	969.0221	973.9463	1001.2461	1081.2497	1093.4794	1176.3624	1202.418	1241.0274	1304.1818	1314.53	1341.2767	1358.3387	1376.5671	1394.5786	1415.2886	1462.5207	1478.0888	1480.4998	1500.8928	1552.6315	1663.4036	1697.5609	2952.0076	3003.2899	3036.7958	3062.3594	3082.1599	3097.6022	3154.4519	3223.0399	3638.6367	3829.7804
ON=C1CCCNC=C1	ON=C1CCCNC=C1	
InChI=1S/C6H10N2O/c9-8-6-2-1-4-7-5-3-6/h3,5,7,9H,1-2,4H2	InChI=1S/C6H10N2O/c9-8-6-2-1-4-7-5-3-6/h3,5,7,9H,1-2,4H2
