18
gdb 29775	2.43283	1.52941	0.95249	1.1991	76.52	-0.1708	0.0605	0.2313	1220.805	0.145837	-439.113267	-439.103182	-439.102238	-439.148129	35.889	
C	-0.0163117417	 1.4583002258	 0.0248422064	-0.335989
N	-0.0356269022	 0.0125751231	-0.0008972088	-0.054598
C	-0.0678386601	-0.791265147	-1.130713861	-0.214496
C	 0.0018262242	-2.1105934638	-0.748908455	 0.178851
C	-0.0339278031	-3.319647825	-1.6305202455	-0.503534
C	 0.1038637209	-2.1053369945	 0.6772088211	 0.028961
O	 0.1134479081	-3.1735091356	 1.5571461722	-0.45925
C	 0.0813715966	-0.7970133157	 1.0928705162	 0.323104
O	 0.1301978075	-0.2583980039	 2.3382201122	-0.45298
H	 1.0052480919	 1.8574121532	 0.0050820073	 0.132726
H	-0.5585398782	 1.8397056301	-0.8434461257	 0.135178
H	-0.5081878927	 1.8150941838	 0.9319875333	 0.152187
H	-0.141850381	-0.3470857292	-2.1103867497	 0.108942
H	 0.8981027771	-3.898097348	-1.5810604884	 0.110573
H	-0.8440348622	-4.001891088	-1.3470318602	 0.128163
H	-0.1849545547	-3.0374661286	-2.6763254957	 0.119957
H	 0.9174066163	-3.684669128	 1.415442371	 0.294066
H	 0.1210351334	-1.0033269885	 2.9515379905	 0.308138
75.4119	111.342	124.779	168.6847	212.2371	229.5051	265.3057	275.3073	297.0781	318.063	366.4485	561.868	585.2208	600.8458	612.7146	638.6013	674.5589	756.0433	916.6746	1010.0926	1060.71	1073.7056	1124.2246	1151.7151	1200.4673	1221.1475	1287.8846	1305.5013	1379.0115	1416.2138	1429.3611	1458.5494	1481.6478	1488.4388	1496.8097	1512.646	1568.0802	1595.9062	1670.3468	3013.2763	3025.583	3060.2078	3098.9798	3105.2826	3138.8062	3257.9914	3788.4172	3803.4082
CN1C=C(C)C(O)=C1O	Cn1cc(C)c(O)c1O	
InChI=1S/C6H9NO2/c1-4-3-7(2)6(9)5(4)8/h3,8-9H,1-2H3	InChI=1S/C6H9NO2/c1-4-3-7(2)6(9)5(4)8/h3,8-9H,1-2H3
