19
gdb 33207	5.60314	0.69949	0.66255	0.9751	79.57	-0.216	0.0199	0.2359	1714.4152	0.159095	-423.045711	-423.036645	-423.035701	-423.080925	32.134	
C	-0.1857809861	 1.3771850093	-0.0452126531	-0.228792
O	-0.0129763585	-0.0187237619	-0.0122867058	-0.229266
C	 0.6666165513	-0.5140369216	-1.1435518384	-0.04701
C	 0.7886617645	-2.033072938	-0.9938277748	-0.324222
C	 1.4754958336	-2.6771254687	-2.1464099235	 0.358069
C	 2.666112721	-3.3205052748	-2.2923247528	-0.275264
C	 2.7599376998	-3.7073742252	-3.6701103412	-0.168584
C	 1.6195470404	-3.267823033	-4.2590049114	-0.021006
O	 0.8263998103	-2.6388351373	-3.3494926839	-0.179963
H	 0.7789271247	 1.9088732565	-0.0714322561	 0.103344
H	-0.7747665926	 1.6962086963	-0.9199033864	 0.104215
H	-0.7210500597	 1.6630287724	 0.8636181575	 0.126641
H	 0.1185903305	-0.2686738009	-2.0677397963	 0.0993
H	 1.6686494451	-0.0603816433	-1.2280299919	 0.089435
H	 1.3469859899	-2.2576581827	-0.0805391243	 0.12205
H	-0.219063585	-2.4463895953	-0.8666957832	 0.125401
H	 3.3889012401	-3.5010421948	-1.5118520757	 0.106286
H	 3.5660125488	-4.2409882514	-4.1486459607	 0.10927
H	 1.2306243318	-3.3177455953	-5.2625493579	 0.130096
47.6312	78.4706	92.1909	111.1945	229.3072	250.1159	319.2921	343.0067	452.5302	615.4801	665.7811	739.3899	752.158	795.3403	807.7561	848.523	902.6551	947.1662	993.7637	1027.4204	1053.826	1057.3308	1117.087	1162.2733	1179.0378	1184.7258	1219.0987	1225.304	1239.2426	1263.7331	1307.2159	1321.3102	1415.9106	1420.0957	1476.818	1481.6603	1485.1448	1505.0759	1533.4877	1542.5465	1640.1014	2956.9492	2971.5184	2992.9346	3011.7859	3040.451	3100.2024	3112.9244	3250.2759	3261.7133	3285.6689
COCCC1=CC=CO1	COCCc1ccco1	
InChI=1S/C7H10O2/c1-8-6-4-7-3-2-5-9-7/h2-3,5H,4,6H2,1H3	InChI=1S/C7H10O2/c1-8-6-4-7-3-2-5-9-7/h2-3,5H,4,6H2,1H3
