19
gdb 87295	2.08097	1.31169	0.95012	1.2384	88.07	-0.2411	0.0459	0.287	1309.8733	0.155515	-348.676338	-348.666282	-348.665338	-348.711276	37.475	
C	 0.0503634552	 1.4973083156	-0.1128987315	-0.417339
C	 0.136003599	-0.0090449047	-0.0024028989	-0.040752
C	 1.4515300453	-0.7341625274	 0.0093290342	-0.310981
C	 0.5906475184	-0.739049369	 1.2654659411	 0.119863
C	 1.0715044837	 0.054680661	 2.4879085048	-0.447018
C	 2.1135680483	-0.6335064724	 3.2433040781	 0.330501
C	 2.9793120733	-1.1989774515	 3.8550865514	-0.449119
C	-0.1087657951	-1.954634202	 1.5880477356	 0.305632
C	-0.7096429244	-2.9590445047	 1.8663163824	-0.459764
H	 0.911850179	 2.0000776716	 0.334943342	 0.120453
H	 0.0207457297	 1.7919261104	-1.167607127	 0.124362
H	-0.8552265268	 1.8861307084	 0.3652093851	 0.124839
H	-0.6681755237	-0.5284250672	-0.5155635952	 0.102648
H	 1.5512000779	-1.6631499775	-0.5388309317	 0.125908
H	 2.3572541021	-0.1370310831	 0.0550130401	 0.118843
H	 1.4503570269	 1.0301071766	 2.166377782	 0.127408
H	 0.2151509098	 0.2561177157	 3.1430400432	 0.137846
H	 3.738696324	-1.7023781241	 4.4000183604	 0.195187
H	-1.2290704227	-3.8512873557	 2.1133153038	 0.191485
53.3235	109.837	136.3792	160.8502	177.2623	242.0205	295.3604	336.6566	378.0154	415.6512	475.32	541.1239	556.2797	581.939	618.4336	638.4267	648.2667	706.3977	798.5738	886.5609	902.5778	928.013	948.0638	969.3911	1029.0633	1070.217	1089.6722	1127.872	1184.537	1209.2377	1283.1688	1305.9514	1338.1404	1406.462	1425.5234	1462.989	1488.239	1492.7103	1503.2301	2233.4186	2241.3135	3031.4615	3035.2016	3076.542	3092.1083	3107.8844	3133.2454	3153.0111	3225.8324	3504.36	3507.2664
CC1CC1(CC#C)C#C	C[C@H]1C[C@]1(CC#C)C#C	
InChI=1S/C9H10/c1-4-6-9(5-2)7-8(9)3/h1-2,8H,6-7H2,3H3	InChI=1S/C9H10/c1-4-6-9(5-2)7-8(9)3/h1-2,8H,6-7H2,3H3/t8-,9+/m0/s1
