19
gdb 65128	3.3649	1.27945	1.16263	1.9442	74.7	-0.2365	0.08	0.3165	1122.1466	0.15806	-422.929413	-422.921334	-422.92039	-422.962415	31.292	
C	 0.0810141043	 1.611128938	-0.4836537672	-0.459919
C	 0.0386090168	 0.1545594997	-0.0721867227	 0.363628
C	 1.1730224524	-0.7259737968	-0.3981724288	-0.221915
O	 1.0053271174	-0.2137831255	 0.9259276425	-0.269597
C	-1.3473517404	-0.4404346373	 0.0355453991	-0.040335
C	-1.7194696031	-1.6517629806	 0.9382436758	 0.027362
C	-1.640093764	-0.7662152968	 2.2047024223	-0.229345
C	-2.406901453	-0.0073995081	 1.0964149501	 0.022463
O	-3.1423230658	-1.257134951	 0.7924975151	-0.311302
H	 1.113942175	 1.9540922657	-0.5801325657	 0.12878
H	-0.4294219447	 1.7607018197	-1.4410798317	 0.125846
H	-0.4188942751	 2.2369014348	 0.263266896	 0.129397
H	 1.0147645496	-1.798245947	-0.5065816269	 0.113374
H	 2.0241252707	-0.3267775333	-0.9486667436	 0.112512
H	-1.800250278	-0.5188352366	-0.9577030701	 0.088834
H	-1.4779359854	-2.7074585293	 0.810087505	 0.092429
H	-2.2682546062	-1.1056397845	 3.0291728691	 0.104416
H	-0.6619887165	-0.4040801481	 2.5156843231	 0.131846
H	-2.9902709341	 0.9123828471	 1.1543218285	 0.091525
48.0528	155.3721	188.188	217.5845	320.7221	348.983	398.2749	447.2882	536.4328	591.1946	730.273	775.7965	824.6499	854.7403	881.2843	893.4926	900.3709	922.8656	930.2278	1008.2941	1009.6614	1027.8651	1067.7082	1096.1271	1109.1218	1134.7649	1145.4989	1167.506	1174.5978	1201.9329	1216.5612	1247.564	1268.5366	1286.7445	1372.8317	1397.2566	1414.1806	1481.8052	1490.487	1495.7736	1530.0532	3036.4742	3069.3551	3079.8922	3089.9024	3100.5247	3108.622	3116.905	3124.3969	3165.8628	3177.5175
CC1(CO1)C1C2CC1O2	C[C@]1(CO1)[C@H]1[C@H]2C[C@@H]1O2	
InChI=1S/C7H10O2/c1-7(3-8-7)6-4-2-5(6)9-4/h4-6H,2-3H2,1H3	InChI=1S/C7H10O2/c1-7(3-8-7)6-4-2-5(6)9-4/h4-6H,2-3H2,1H3/t4-,5+,6+,7-/m0/s1
