18
gdb 95126	2.64578	1.51507	1.15085	1.7087	73.52	-0.2538	-0.042	0.2118	1091.1597	0.147623	-439.078473	-439.070223	-439.069279	-439.111241	30.937	
C	 0.129882446	 1.5996441912	-0.3006875704	-0.40701
C	 0.0377905926	 0.1017575483	-0.0540834945	 0.077904
O	 0.7095356654	-0.5690037679	-1.1242339078	-0.268997
C	 1.2795986982	-1.7858927322	-0.667741578	-0.080731
C	 1.5262805401	-1.6005342749	 0.8162448185	-0.091617
N	 2.189073172	-0.3477789585	 1.1500986246	-0.357173
C	 0.7166469185	-0.398501998	 1.211974337	 0.211569
C	 0.0654915347	-0.3858985798	 2.5401217408	 0.065193
O	 0.6735997673	-0.5132127651	 3.5789236112	-0.277954
H	 1.1732218071	 1.9188373891	-0.2491789872	 0.145429
H	-0.2655330382	 1.8402364596	-1.2908395578	 0.129857
H	-0.4516581417	 2.1511055009	 0.4451430451	 0.11232
H	-1.0212117635	-0.2111403717	-0.0161410282	 0.069269
H	 0.5992956801	-2.6393221896	-0.819641358	 0.096316
H	 2.1958315624	-1.9608709397	-1.2410625293	 0.123181
H	 1.616519839	-2.4568643559	 1.4769929267	 0.115625
H	 2.5213321169	-0.3989821614	 2.1147359454	 0.251703
H	-1.0377875368	-0.2564143345	 2.529343192	 0.085115
111.6055	140.9354	205.6886	224.8946	234.9212	252.1763	342.1303	421.3914	480.8695	538.1559	653.6169	739.1908	769.153	859.1728	867.7001	898.6195	934.2919	976.59	1023.9438	1062.6064	1087.388	1095.5923	1099.2285	1121.666	1145.2182	1192.7324	1234.9161	1267.6149	1300.576	1346.6472	1384.0478	1393.3503	1408.3796	1432.48	1432.8439	1485.2869	1498.5663	1508.1297	1792.2495	2904.9361	2942.4935	2979.7972	3046.1505	3073.9072	3117.7431	3138.9272	3171.6659	3458.8427
CC1OCC2NC12C=O	C[C@H]1OC[C@H]2N[C@@]12C=O	
InChI=1S/C6H9NO2/c1-4-6(3-8)5(7-6)2-9-4/h3-5,7H,2H2,1H3	InChI=1S/C6H9NO2/c1-4-6(3-8)5(7-6)2-9-4/h3-5,7H,2H2,1H3/t4-,5-,6+/m1/s1
