14
gdb 42324	2.65895	1.44094	1.19657	4.0928	62.67	-0.2772	-0.0946	0.1827	1039.6439	0.100415	-473.82768	-473.819443	-473.818499	-473.86177	28.031	
O	 0.2618595238	 0.319993653	 1.1490655017	-0.257286
C	-0.144642993	 1.0723931287	 0.3068796451	 0.309515
C	 0.6942993007	 1.4879262333	-0.8382779485	 0.245908
N	 1.3438445388	 1.8165237937	-1.736453321	-0.316207
C	-1.5611258112	 1.6690085741	 0.2878094981	 0.106732
O	-1.4441719057	 3.0673599284	 0.2786355703	-0.264775
C	-2.3306715393	 3.5665892781	-0.727891133	-0.091242
C	-2.3834188959	 2.4157633509	-1.7279538476	-0.108143
O	-2.223237583	 1.2642321942	-0.8874596604	-0.265571
H	-2.1042674844	 1.2920029041	 1.1657433326	 0.115587
H	-3.3172681905	 3.7767682898	-0.2952075487	 0.118676
H	-1.9024241572	 4.485963992	-1.1303357555	 0.138199
H	-3.3405032389	 2.3229796593	-2.2456714103	 0.130174
H	-1.5710477342	 2.4726455504	-2.4605032928	 0.138432
47.6146	77.5662	140.3578	159.2651	242.3497	306.6883	311.9347	410.6171	644.7361	661.5888	733.7674	749.0974	775.2613	897.9795	955.4858	973.9395	995.2468	1060.2461	1137.5884	1151.9064	1206.4756	1225.6059	1246.5115	1316.6094	1352.6951	1379.6441	1385.7299	1512.7668	1521.5249	1818.295	2339.8732	3020.1426	3026.4542	3049.9051	3114.4972	3127.2224
O=C(C#N)C1OCCO1	O=C(C#N)C1OCCO1	
InChI=1S/C5H5NO3/c6-3-4(7)5-8-1-2-9-5/h5H,1-2H2	InChI=1S/C5H5NO3/c6-3-4(7)5-8-1-2-9-5/h5H,1-2H2
