15
gdb 29559	2.38846	1.78959	1.0295	4.154	71.51	-0.2277	-0.0338	0.1939	1089.2758	0.112584	-457.807106	-457.799096	-457.798152	-457.839543	30.063	
C	-0.0209147303	 1.4966198965	 0.0166209196	-0.471431
C	-0.0058958037	-0.0034480817	-0.0108163981	 0.076013
C	-0.0332829415	-0.7037579498	-1.1624235932	-0.003314
O	-0.0211132676	-2.0493320834	-1.2370134923	-0.183766
C	 0.021547676	-2.7540659879	-0.0787529031	-0.069716
C	 0.0522472996	-2.1768329766	 1.1419063643	 0.172796
O	 0.0949016523	-2.8665550414	 2.3065425863	-0.406098
C	 0.0405412607	-0.7079306585	 1.2759661775	 0.281421
O	 0.0670733339	-0.1369429797	 2.3563385973	-0.365802
H	 0.868850434	 1.8775201372	 0.5280257474	 0.14712
H	-0.0598064083	 1.9198721461	-0.9903819098	 0.113564
H	-0.8815285433	 1.8585989503	 0.5880265296	 0.147269
H	-0.0680287667	-0.2601144304	-2.1502397494	 0.136144
H	 0.0275801371	-3.8224671463	-0.2598597785	 0.125925
H	 0.0995780777	-3.8136621143	 2.1267597123	 0.299875
102.7314	145.9693	251.1297	270.4559	300.0422	315.6315	378.777	463.7784	467.1317	517.6064	520.186	583.0954	669.7194	796.9143	830.9557	846.0186	898.0582	974.1821	1032.9402	1065.3792	1105.7916	1200.4193	1217.3963	1318.3373	1356.3321	1401.0316	1416.2578	1465.7905	1468.0232	1486.9729	1648.2635	1686.1094	1736.7115	3041.2499	3100.2145	3122.9122	3200.1368	3210.8753	3804.9641
CC1=COC=C(O)C1=O	Cc1cocc(O)c1=O	
InChI=1S/C6H6O3/c1-4-2-9-3-5(7)6(4)8/h2-3,7H,1H3	InChI=1S/C6H6O3/c1-4-2-9-3-5(7)6(4)8/h2-3,7H,1H3
