21
gdb 82530	2.20697	1.61445	1.36585	1.8591	82.89	-0.2515	0.0835	0.335	1098.1355	0.181282	-387.048361	-387.039385	-387.038441	-387.081469	34.704	
C	 0.0268854551	 1.5768795448	 0.1188168838	-0.422319
C	 0.1155103586	 0.0636622027	 0.1110550616	-0.05452
C	 1.3468180596	-0.7435256696	-0.2057233738	-0.123198
C	 2.6135550025	-0.0716861952	 0.3444007098	-0.336745
C	 1.9668580473	-0.1340335426	 1.7395841686	 0.400386
C	 2.6239758262	-0.3297229346	 3.0309800492	-0.269239
O	 1.9870320459	 0.913721503	 2.7032227652	-0.281947
C	 0.7114904915	-0.7940618213	 1.2062159021	 0.259425
C	-0.0494892082	-1.8835575332	 1.9080853226	-0.508829
H	 0.8941194543	 2.0457885739	 0.5875192724	 0.140881
H	-0.0612714963	 1.9657356765	-0.9020338626	 0.111374
H	-0.8568200613	 1.9044740956	 0.6767645733	 0.118162
H	-0.7786076689	-0.4076505061	-0.2962256209	 0.081364
H	 1.3449502406	-1.5240174578	-0.9572165963	 0.084831
H	 3.504274309	-0.7009719439	 0.2697128373	 0.106794
H	 2.8516054183	 0.9252068138	-0.0380431967	 0.108548
H	 2.1346270802	-0.9096443703	 3.8130954396	 0.11263
H	 3.7117587015	-0.2981110165	 3.0932246803	 0.111047
H	-0.6069416145	-1.4886668983	 2.7661663007	 0.126983
H	-0.7753472766	-2.3510895628	 1.235000958	 0.118872
H	 0.6184688453	-2.6696095081	 2.2783778058	 0.115498
109.4569	168.3109	179.8823	205.3445	220.1818	233.2843	311.8422	357.9355	408.525	499.0256	518.5646	590.9925	665.9401	740.3208	790.8189	830.9324	885.6228	894.9862	926.9125	947.5758	976.7286	1006.1005	1056.3626	1074.6679	1107.8508	1117.4683	1123.9845	1129.7704	1147.6946	1161.0339	1180.9893	1245.4696	1257.4226	1294.2975	1338.5068	1411.8793	1422.1338	1430.445	1458.1857	1484.0477	1485.9809	1499.4049	1499.786	1508.1387	1536.4763	3020.4605	3033.848	3053.882	3073.5579	3078.4133	3089.9445	3095.9159	3102.744	3109.2595	3133.9322	3157.7538	3182.5839
CC1C2CC3(CO3)C12C	C[C@H]1[C@H]2C[C@]3(CO3)[C@@]12C	
InChI=1S/C8H12O/c1-5-6-3-8(4-9-8)7(5,6)2/h5-6H,3-4H2,1-2H3	InChI=1S/C8H12O/c1-5-6-3-8(4-9-8)7(5,6)2/h5-6H,3-4H2,1-2H3/t5-,6+,7-,8-/m0/s1
