18
gdb 37248	3.61626	1.53271	1.3942	2.8776	75.18	-0.2203	0.0659	0.2861	979.2415	0.148194	-401.844029	-401.837053	-401.836108	-401.875159	28.876	
C	-0.0535151054	 1.5047090954	 0.0342721256	-0.311126
C	 1.2623499725	 0.7360282738	 0.0430917919	-0.366756
C	-0.0492155514	 0.0237280225	-0.060371914	 0.497704
O	-0.5182010086	-0.8150696931	 1.012430472	-0.31961
C	-0.9949544773	-1.7915568819	 0.0698029006	 0.123335
C	-2.4676448035	-1.6629113717	-0.4058322285	-0.082286
N	-2.786444163	-0.22026189	-0.4793075576	-0.317455
C	-2.0269901845	-0.8468979811	-1.5802823525	-0.05815
C	-0.5435000085	-0.9399301164	-1.1373706598	-0.211288
H	-0.3927388943	 1.9286328276	 0.9727513719	 0.126167
H	-0.3220861582	 2.0794502647	-0.8458320512	 0.111171
H	 1.9028153752	 0.780203854	-0.8326124849	 0.107725
H	 1.7886139659	 0.6570864269	 0.9884668169	 0.122018
H	-0.6425141933	-2.8051707806	 0.2724753179	 0.080604
H	-3.2562769764	-2.3998503503	-0.3119144462	 0.090495
H	-3.7567497633	-0.1532254019	-0.7854202377	 0.230731
H	-2.3987100163	-0.8300082596	-2.5973673729	 0.093586
H	 0.1641932501	-1.3037728383	-1.8802978515	 0.083134
123.9525	198.9408	258.5351	322.5238	376.2029	517.3253	535.3228	641.5163	723.971	753.5137	762.0069	797.0091	857.6929	863.4894	884.8842	886.8401	925.0543	941.4011	950.7157	977.2652	982.7428	1025.1828	1032.9071	1050.4115	1062.8373	1103.1271	1121.7416	1177.4865	1182.9578	1183.9655	1205.4568	1231.8979	1280.4702	1315.6607	1327.0089	1368.7286	1396.7022	1448.4286	1500.0853	3087.0062	3123.1509	3128.158	3133.9066	3179.0978	3193.2267	3209.1671	3225.8499	3474.2701
C1CC11OC2C3NC3C12	C1CC21O[C@H]1[C@H]3N[C@H]3[C@@H]21	
InChI=1S/C7H9NO/c1-2-7(1)3-4-5(8-4)6(3)9-7/h3-6,8H,1-2H2	InChI=1S/C7H9NO/c1-2-7(1)3-4-5(8-4)6(3)9-7/h3-6,8H,1-2H2/t3-,4+,5+,6-/m1/s1
