22
gdb 11131	5.94045	0.94196	0.89301	1.055	79.25	-0.2427	0.0859	0.3286	1392.6622	0.199259	-350.191571	-350.182239	-350.181295	-350.225818	33.991	
C	 0.1868592628	 1.1666244899	 0.6303763538	-0.380902
C	 0.1451126266	-0.2369190383	 0.0192134087	-0.175194
C	 0.4505873403	-0.252552143	-1.4798322589	 0.025653
C	 1.9524384793	-0.046998397	-1.8510760569	-0.270566
C	 2.0849160744	-1.5678609472	-2.0566530924	 0.176353
C	 0.5323595461	-1.677393403	-2.1070067092	-0.279338
O	 2.8231106832	-1.9242205025	-3.1957032354	-0.239489
C	 2.9219925555	-3.317408314	-3.3807786143	-0.23974
H	 1.1709727258	 1.6299448313	 0.5017634612	 0.117693
H	-0.5506760798	 1.8237400691	 0.1560437739	 0.113828
H	-0.0300775866	 1.1414692206	 1.7028630789	 0.110917
H	 0.8536919269	-0.8894732733	 0.547408429	 0.092541
H	-0.8480990504	-0.6765283817	 0.1811278016	 0.093047
H	-0.2378404468	 0.4283289175	-1.9902245693	 0.065762
H	 2.0766784388	 0.468635217	-2.8066586317	 0.109895
H	 2.6043595828	 0.4201395917	-1.1083259784	 0.095175
H	 2.494005952	-2.0764144565	-1.1693442416	 0.059456
H	 0.0549258892	-2.4927385007	-1.5559763545	 0.089756
H	 0.1856186554	-1.6919134776	-3.1442417371	 0.102353
H	 3.410935953	-3.8081252757	-2.5237892227	 0.10153
H	 1.9369636062	-3.7862518693	-3.5268074686	 0.106569
H	 3.5264657551	-3.4865789673	-4.2753345758	 0.124703
60.3799	102.1427	122.7084	168.9432	205.6993	242.7881	261.4439	318.3945	409.6082	451.4704	467.3704	657.3404	764.6555	811.5582	822.0223	894.0026	930.2568	958.198	978.8925	992.5594	1034.6843	1066.9878	1082.5556	1131.9001	1158.1604	1167.2804	1185.0304	1208.6537	1224.6013	1253.3191	1262.2008	1273.5194	1296.2033	1303.9306	1343.5077	1387.2135	1397.683	1411.9332	1464.7747	1480.2822	1485.4769	1487.0034	1494.2826	1499.5095	1506.8809	1510.021	2965.9452	2974.3516	3009.6191	3017.1272	3029.9278	3034.4878	3047.7679	3053.0779	3062.3688	3096.4619	3101.3635	3106.5252	3111.4915	3115.9933
CCC1CC(C1)OC	CC[C@H]1C[C@@H](C1)OC	
InChI=1S/C7H14O/c1-3-6-4-7(5-6)8-2/h6-7H,3-5H2,1-2H3	InChI=1S/C7H14O/c1-3-6-4-7(5-6)8-2/h6-7H,3-5H2,1-2H3/t6-,7-
