21
gdb 38380	4.10754	1.23331	1.19047	0.3022	86.37	-0.2328	0.0957	0.3285	1140.9628	0.184198	-349.891532	-349.884052	-349.883108	-349.923249	30.862	
C	 0.0252709578	 1.4150563205	 0.2024428016	-0.279221
C	 1.3287773185	 0.6953479483	-0.0057398296	-0.038621
C	 1.7825163649	 0.0032686652	 1.2893748251	-0.329311
C	 0.4376483725	-0.7651002054	 1.2961877101	 0.410677
C	 0.0080193617	-0.0791135162	 0.0118313424	-0.14815
C	 0.2004258445	-2.2199937138	 1.5478728092	-0.144884
C	 1.0001219759	-2.6963624865	 2.7661597922	-0.234497
C	 0.2943733079	-1.6060651226	 3.639395951	-0.230369
C	-0.4940176346	-1.1440550606	 2.4063544432	-0.128467
H	-0.218917216	 1.8450482188	 1.171318841	 0.104592
H	-0.3244064952	 1.9960154514	-0.6454224115	 0.106896
H	 1.9695883604	 0.9117849887	-0.8513965101	 0.083963
H	 2.6378286059	-0.6621321929	 1.1415859545	 0.103994
H	 1.9914566608	 0.6643686064	 2.1376707776	 0.093545
H	-0.5202856876	-0.5512513055	-0.8084681183	 0.082255
H	-0.2206436046	-2.8621187402	 0.7816579035	 0.078701
H	 0.7377391839	-3.7089682261	 3.0802336642	 0.101711
H	 2.0903740611	-2.6332438525	 2.6801831275	 0.09328
H	-0.3392643267	-2.0470766689	 4.4120692141	 0.101295
H	 0.9378214012	-0.8539157107	 4.1081643657	 0.093975
H	-1.5319044224	-0.8298267573	 2.4022623064	 0.078636
119.8629	164.6411	178.2125	283.9643	379.5247	416.5408	500.2704	544.5125	714.7651	742.6116	778.9969	784.8035	816.5761	860.4292	866.5426	912.5134	925.9824	951.6361	958.3156	983.355	986.9634	990.9963	1021.1494	1029.351	1061.2683	1082.7364	1087.3477	1090.6259	1117.0305	1154.2424	1169.7434	1209.297	1222.8138	1234.9271	1249.8009	1252.7639	1261.5334	1284.8466	1302.9423	1350.2918	1443.7253	1478.555	1479.3565	1494.4012	1500.8905	3035.9898	3037.9569	3046.9951	3089.7807	3092.7948	3105.8353	3111.1397	3161.1355	3171.631	3173.7306	3184.8328	3199.9072
C1C2CC3(C12)C1CCC31	C1[C@H]2C[C@@]3([C@@H]12)[C@H]1CC[C@@H]31	
InChI=1S/C9H12/c1-2-7-6(1)9(7)4-5-3-8(5)9/h5-8H,1-4H2	InChI=1S/C9H12/c1-2-7-6(1)9(7)4-5-3-8(5)9/h5-8H,1-4H2/t5-,6-,7+,8-,9+/m0/s1
