20
gdb 82031	2.22487	1.45786	1.37492	2.0377	79.13	-0.2382	-0.0246	0.2136	1097.2649	0.169425	-403.116385	-403.107281	-403.106337	-403.149958	34.436	
C	-0.1179070991	 1.5810941518	 0.0491740532	-0.418064
C	 0.0167519407	 0.0710175375	 0.1776513912	-0.034165
C	 0.8856025828	-0.6669595416	-0.8495520346	-0.048087
N	 2.2818280485	-0.197250595	-0.6546933692	-0.34083
C	 1.7320864656	-1.2647931759	 0.2097757119	-0.094948
C	 0.9202996902	-0.5452140703	 1.3239394616	 0.205815
C	 1.7221757764	 0.3807828844	 2.2357206342	-0.471001
C	 0.1838521713	-1.5843361991	 2.1476942702	 0.105668
O	-0.9477059448	-1.9594267214	 1.9747283036	-0.249101
H	 0.8557576907	 2.0564015719	-0.0928364222	 0.133666
H	-0.7460886073	 1.8333355526	-0.8123655506	 0.113282
H	-0.590782029	 2.0151456025	 0.9364100729	 0.114522
H	-0.9649575815	-0.4045086303	 0.2463104434	 0.105234
H	 0.5731940403	-1.0843322134	-1.7992046556	 0.093792
H	 2.859241719	-0.6519881623	-1.36148215	 0.230958
H	 2.2050278661	-2.238296185	 0.2689145709	 0.0949
H	 2.4074950606	 0.9858467015	 1.6399169237	 0.15001
H	 1.0665785738	 1.0494110766	 2.8033682383	 0.122331
H	 2.31354704	-0.1967923359	 2.9562660849	 0.111915
H	 0.8047550955	-2.0216792485	 2.9652104621	 0.074101
70.8748	149.9452	200.3386	214.8854	221.3445	249.3886	263.9746	316.0339	391.1334	443.3025	565.8338	613.7354	668.7583	719.404	808.6935	839.3462	870.775	879.2931	929.2252	938.6865	991.3247	1031.2402	1037.0821	1075.8008	1100.19	1111.5811	1134.68	1156.1423	1194.9711	1219.5906	1252.1522	1297.6237	1312.7465	1370.7348	1383.3502	1401.1915	1409.7255	1429.5661	1483.0085	1496.7685	1499.6419	1514.9062	1823.0428	2851.2641	3030.5494	3035.0793	3083.3231	3090.797	3094.5963	3123.768	3138.4677	3174.7881	3190.7334	3473.7959
CC1C2NC2C1(C)C=O	C[C@H]1[C@H]2N[C@H]2[C@]1(C)C=O	
InChI=1S/C7H11NO/c1-4-5-6(8-5)7(4,2)3-9/h3-6,8H,1-2H3	InChI=1S/C7H11NO/c1-4-5-6(8-5)7(4,2)3-9/h3-6,8H,1-2H3/t4-,5+,6+,7+/m0/s1
