17
gdb 51752	2.54698	1.06465	0.80299	5.1979	73.65	-0.2595	-0.0342	0.2253	1371.7674	0.135472	-417.997531	-417.988575	-417.987631	-418.03267	31.215	
O	-0.0339313883	-0.0196655353	 0.1316457238	-0.229653
C	-0.0061927921	 1.1777482836	 0.0163314347	 0.153938
C	 1.2577522695	 2.0115738759	 0.0071462365	-0.290353
C	 1.3783365578	 2.8490132582	-1.269793205	-0.034192
C	 0.4576736415	 4.1013777132	-1.3434530147	-0.181408
N	 1.5892881185	 4.9277657112	-0.867792277	-0.297293
C	 2.5546163085	 3.8862560068	-1.2699067427	-0.140241
C	 3.6802341502	 3.6829093986	-0.3570617293	 0.306658
N	 4.5728163332	 3.5058718461	 0.3553734661	-0.325123
H	-0.9505179216	 1.7595573383	-0.0969791751	 0.075662
H	 1.2320722012	 2.6853343071	 0.8745731164	 0.144355
H	 2.1142910054	 1.341604891	 0.1205924844	 0.141569
H	 1.3658475845	 2.205956098	-2.151251283	 0.102982
H	 0.1328776805	 4.3138615512	-2.3708972464	 0.10585
H	-0.4168259099	 4.1256474563	-0.685842224	 0.117212
H	 1.7132152382	 5.8336024571	-1.3058848271	 0.233738
H	 2.9585111529	 4.0047130028	-2.2857260276	 0.116301
46.8829	79.3729	105.8845	120.2957	203.4079	242.5246	336.3344	385.8421	502.7248	551.269	559.5475	670.5825	787.4981	827.3384	845.8564	919.2646	967.8763	999.9945	1023.1642	1035.846	1077.9718	1105.724	1136.1909	1148.4528	1202.8113	1231.8769	1267.2009	1304.8009	1322.8445	1360.965	1373.6206	1392.3528	1434.9175	1463.1591	1525.2072	1836.7247	2356.9571	2858.9824	2996.7318	3010.8462	3028.397	3072.3087	3096.4695	3110.1828	3538.2173
O=CCC1CNC1C#N	O=CC[C@H]1CN[C@H]1C#N	
InChI=1S/C6H8N2O/c7-3-6-5(1-2-9)4-8-6/h2,5-6,8H,1,4H2	InChI=1S/C6H8N2O/c7-3-6-5(1-2-9)4-8-6/h2,5-6,8H,1,4H2/t5-,6-/m0/s1
