18
gdb 41417	3.25565	1.9818	1.5522	0.4	73.45	-0.2245	0.0763	0.3008	885.8164	0.150359	-401.87702	-401.87073	-401.869786	-401.907251	26.896	
C	 0.000750925	 1.5043640085	-0.0812114265	-0.242916
C	 1.5716058202	 1.5355684826	 0.0030818893	-0.342046
C	 1.5388540814	 0.0352881145	-0.2419183724	 0.446579
O	 2.3944199999	-0.9196349209	 0.3235745019	-0.310857
C	 1.7227699559	-2.156153194	 0.0014453785	-0.120428
C	 0.8496600085	-1.8572561925	-1.2284681034	-0.057434
C	 1.1314194148	-0.481488492	-1.6447794583	-0.128442
N	-0.2601831362	-0.8311977757	-1.1665395436	-0.157738
C	 0.021613025	-0.0494214867	 0.0726853882	-0.038054
H	-0.5165559321	 2.0427327473	 0.7135001108	 0.110365
H	-0.3982271254	 1.8239483515	-1.0458448219	 0.119321
H	 2.1203780122	 2.1608414847	-0.7052370921	 0.104145
H	 1.9093347421	 1.7631975589	 1.0176215011	 0.118756
H	 2.4775598758	-2.9138100374	-0.2298698252	 0.116501
H	 1.1356610794	-2.4992568288	 0.8630774192	 0.109417
H	 0.6510567189	-2.6440931154	-1.9455801587	 0.10824
H	 1.3639947238	-0.1088228404	-2.6344966419	 0.093739
H	-0.3925247992	-0.4496550741	 1.0009070951	 0.070852
216.6228	252.1523	327.7805	417.8867	424.8889	528.4691	670.0638	692.5972	708.0625	758.8252	785.5851	802.6185	865.6108	892.6088	893.421	915.105	923.9438	966.281	1018.1854	1020.5087	1045.9052	1079.524	1106.5002	1117.5652	1146.1925	1172.8483	1205.8269	1219.2316	1224.4414	1237.4184	1247.6871	1291.9663	1310.0775	1324.5248	1347.0253	1393.427	1472.6246	1492.8592	1508.6909	3019.9816	3062.2025	3078.4706	3082.2061	3085.7402	3113.5786	3141.4504	3188.6539	3202.2342
C1CC23OCC4C2N4C13	C1C[C@]23OC[C@@H]4[C@H]2N4[C@H]13	
InChI=1S/C7H9NO/c1-2-7-5(1)8-4(3-9-7)6(7)8/h4-6H,1-3H2	InChI=1S/C7H9NO/c1-2-7-5(1)8-4(3-9-7)6(7)8/h4-6H,1-3H2/t4-,5-,6-,7-,8?/m1/s1
