19
gdb 105357	2.81331	1.33842	1.13006	3.2425	75.38	-0.2515	-0.0323	0.2192	1135.2622	0.158893	-422.999848	-422.991382	-422.990437	-423.032874	32.449	
O	 0.1699251315	 1.3621527852	-0.1385575311	-0.429146
C	 0.1356571795	-0.0314601518	 0.0984462349	-0.138312
C	-1.286119455	-0.5902547319	 0.0491065741	 0.20152
C	-2.0831284354	-0.4956395437	-1.3178100709	-0.290823
C	-2.2941574087	-2.0109167968	-1.2916685006	-0.032176
C	-0.9711151624	-2.7122334124	-1.2798162345	-0.293453
C	-1.4837563305	-2.1212407225	 0.0054539553	-0.104809
C	-2.1513474127	 0.0184392373	 1.1224013153	 0.130788
O	-1.8257648098	 0.9345134235	 1.842304146	-0.286002
H	-0.2929205857	 1.7623677179	 0.6086541035	 0.29573
H	 0.7468626042	-0.4957995259	-0.6809068365	 0.103905
H	 0.5898811715	-0.2918084173	 1.0677109214	 0.093595
H	-3.0065696827	 0.0822966658	-1.232519316	 0.114356
H	-1.4995660132	-0.0922033927	-2.1496397919	 0.122749
H	-3.2128043311	-2.5175960012	-1.5587291434	 0.093573
H	-1.0176050617	-3.7958099176	-1.3187172719	 0.119533
H	-0.115333934	-2.2882170021	-1.7981409436	 0.116182
H	-1.6644328053	-2.7407199292	 0.8762649674	 0.093593
H	-3.1650403083	-0.4344839246	 1.2103139321	 0.089195
101.5177	125.0673	157.9797	203.716	265.1593	326.5392	392.885	402.3075	476.0909	499.6159	564.0682	714.8147	778.7112	792.45	836.1168	895.387	908.199	948.6135	973.75	983.6541	1002.6344	1029.2654	1062.7722	1085.0694	1090.5975	1110.7417	1122.2815	1141.0683	1189.191	1241.5075	1253.727	1292.39	1309.2181	1361.0023	1382.4349	1425.3007	1443.4187	1482.6931	1491.928	1504.6417	1801.4835	2876.697	2982.0631	3060.613	3084.6205	3110.2702	3116.9729	3173.9884	3191.0424	3206.1201	3773.6225
OCC1(CC2CC12)C=O	OC[C@]1(C[C@H]2C[C@@H]12)C=O	
InChI=1S/C7H10O2/c8-3-7(4-9)2-5-1-6(5)7/h3,5-6,9H,1-2,4H2	InChI=1S/C7H10O2/c8-3-7(4-9)2-5-1-6(5)7/h3,5-6,9H,1-2,4H2/t5-,6-,7+/m1/s1
