21
gdb 77519	2.4916	1.55696	1.39801	1.4716	78.02	-0.2383	0.0813	0.3195	1072.4228	0.182044	-424.222218	-424.213452	-424.212507	-424.254714	35.	
C	 0.0032058367	 1.5333965591	 0.0713923206	-0.509537
C	-0.0263500568	 0.027172621	-0.0112750736	 0.239583
C	 0.3736146075	-0.7908169472	-1.2802080062	-0.315971
C	-0.3922751403	-1.9163524465	-0.5474524412	 0.372071
C	-0.8095335099	-3.2309957021	-1.1414547026	-0.49378
O	 0.4004092358	-2.1323765467	 0.6529384211	-0.329268
C	 0.7300666026	-0.7787936149	 1.0509797782	-0.131079
C	-1.3611169337	-0.8120215049	-0.0508922669	 0.110508
O	-2.094295002	-1.0475307167	 1.1142911681	-0.456447
H	 1.028213716	 1.9201849184	 0.0329826584	 0.11696
H	-0.5540090194	 1.9850536397	-0.7556063231	 0.118511
H	-0.4496715047	 1.8793484821	 1.0073567103	 0.127781
H	-0.1314241447	-0.4487510936	-2.1863219988	 0.099937
H	 1.4371283481	-0.9565157513	-1.4672309014	 0.100971
H	 0.0651168598	-3.8440068073	-1.3789355563	 0.129058
H	-1.4347348545	-3.788125836	-0.4364754813	 0.127736
H	-1.3834280597	-3.0708861858	-2.05839465	 0.119985
H	 1.8154738342	-0.6281885913	 1.0200155029	 0.100937
H	 0.3725961829	-0.5876121048	 2.0698852939	 0.098413
H	-2.0441572838	-0.4469022934	-0.8217618512	 0.082204
H	-1.5852055941	-1.6914431378	 1.6249223492	 0.291429
186.0694	188.9755	206.3763	219.0077	227.8752	278.1006	317.5272	348.4024	462.3021	485.1157	502.2857	582.7623	617.5345	636.5004	774.7565	799.0614	841.2453	855.0354	893.6661	934.1305	966.0678	991.8889	1012.1591	1031.0369	1083.9814	1124.6467	1151.3776	1162.8672	1189.0229	1200.8642	1223.2847	1252.0723	1276.0819	1304.8202	1334.1878	1388.572	1412.6524	1419.6871	1437.5104	1481.0576	1489.6317	1492.2349	1494.3316	1495.9469	1527.9569	3021.0554	3026.255	3040.8626	3062.4782	3065.4036	3088.1104	3090.3321	3098.4226	3110.049	3119.2386	3129.2569	3755.758
CC12CC(C)(OC1)C2O	C[C@@]12C[C@@](C)(OC1)[C@H]2O	
InChI=1S/C7H12O2/c1-6-3-7(2,5(6)8)9-4-6/h5,8H,3-4H2,1-2H3	InChI=1S/C7H12O2/c1-6-3-7(2,5(6)8)9-4-6/h5,8H,3-4H2,1-2H3/t5-,6+,7+/m0/s1
