16
gdb 29730	3.39254	1.32258	0.9631	4.4249	80.23	-0.2387	-0.0282	0.2105	1171.0703	0.125253	-396.996535	-396.987737	-396.986793	-397.030904	30.608	
C	 0.0276125986	 1.4335592835	 0.0363313778	-0.356912
N	 0.0080889546	-0.0195686113	 0.0140375903	-0.10675
C	 0.0165767793	-0.8239177732	-1.0855356868	 0.343738
C	 0.0413350387	-0.2966161014	-2.4791066806	-0.505303
N	 0.0001810237	-2.107249788	-0.7553431892	-0.293058
C	-0.0187459102	-2.1433313725	 0.6041507663	-0.170321
C	-0.0141457959	-0.8635174747	 1.1203784125	 0.175195
C	-0.02934147	-0.3869378311	 2.445055729	 0.210105
N	-0.0419676955	 0.0250130608	 3.5294783999	-0.361793
H	 0.9524519901	 1.8160924887	-0.4053299159	 0.152142
H	-0.8240536316	 1.8378159265	-0.5176936372	 0.151908
H	-0.0333440823	 1.7725054486	 1.0708357468	 0.178059
H	 0.933654646	 0.3107904564	-2.6695439883	 0.140451
H	 0.0422408042	-1.141676101	-3.1676982007	 0.165427
H	-0.8329249462	 0.3286682133	-2.6941533377	 0.14047
H	-0.0355776235	-3.0698341346	 1.1570549439	 0.136641
39.22	113.6885	132.1663	146.3402	215.2027	272.2047	273.8789	409.5774	518.3235	530.3499	590.3912	669.1659	692.2178	704.621	753.3393	870.7195	977.8045	1007.9567	1061.9804	1151.9444	1162.9273	1196.3974	1233.8597	1318.2486	1380.8345	1407.6782	1431.0455	1468.4987	1479.3204	1492.2914	1499.3106	1508.2775	1521.5951	1573.7568	2331.1361	3031.7621	3047.8237	3081.6219	3111.8273	3154.5886	3156.0162	3259.8852
CN1C(C)=NC=C1C#N	Cn1c(C)ncc1C#N	
InChI=1S/C6H7N3/c1-5-8-4-6(3-7)9(5)2/h4H,1-2H3	InChI=1S/C6H7N3/c1-5-8-4-6(3-7)9(5)2/h4H,1-2H3
