15
gdb 43496	2.45537	1.9374	1.18128	2.3358	65.84	-0.2544	-0.0141	0.2403	987.7274	0.1156	-454.008529	-454.001544	-454.0006	-454.040275	26.46	
O	 0.015390211	-0.077125332	-0.1692538663	-0.349977
C	 0.0081384644	 1.1243272003	-0.0913945455	 0.418256
N	-1.0979409625	 1.9598065499	-0.1461068508	-0.381332
C	-0.807218531	 3.3096288172	 0.1298093196	 0.423531
O	-1.609203779	 4.1627674811	 0.4079888781	-0.367566
N	 0.582277603	 3.4355852112	 0.0588899192	-0.135619
C	 1.316876424	 3.823099311	 1.3028733367	-0.178419
C	 1.8231839264	 2.358832889	 1.4506186123	-0.254791
C	 1.1853878257	 2.0831242126	 0.0549635575	-0.112163
H	-2.0472406559	 1.6222984588	-0.1982217531	 0.278764
H	 2.0990615698	 4.5562320654	 1.0953139338	 0.129448
H	 0.6593007948	 4.2076635057	 2.0852571938	 0.142143
H	 2.9030056889	 2.2209867883	 1.5039962481	 0.128423
H	 1.3502786306	 1.8043503739	 2.2630956147	 0.133839
H	 1.9065673197	 1.9176143276	-0.749836518	 0.125464
104.6148	147.2444	223.2214	248.0425	389.8957	512.6239	606.8457	613.7576	663.6361	715.2247	732.9397	770.0236	791.4549	828.5917	898.3452	938.8154	1007.8786	1059.943	1082.3525	1104.4384	1165.6278	1196.9403	1226.0579	1245.1151	1258.2636	1310.0515	1319.783	1335.1093	1363.0524	1488.0832	1517.7386	1843.8521	1877.7801	3072.3593	3078.9647	3087.4315	3124.5971	3149.6863	3642.1245
O=C1NC(=O)N2CCC12	O=C1NC(=O)N2CC[C@@H]12	
InChI=1S/C5H6N2O2/c8-4-3-1-2-7(3)5(9)6-4/h3H,1-2H2,(H,6,8,9)	InChI=1S/C5H6N2O2/c8-4-3-1-2-7(3)5(9)6-4/h3H,1-2H2,(H,6,8,9)/t3-/m0/s1
