21
gdb 119274	2.69617	0.95	0.79983	3.4182	75.98	-0.2473	0.0759	0.3232	1526.1312	0.179203	-461.308074	-461.297535	-461.296591	-461.344732	36.552	
C	-0.1433358064	 1.4302850757	-1.5419753554	-0.222686
O	-0.0770147394	 0.0726410898	-1.1761075629	-0.236998
C	-0.9240939274	-0.2480775602	-0.0940280529	-0.128969
C	-0.760282968	-1.7154513997	 0.2267460993	 0.371149
C	 0.6829503323	-2.2018235843	 0.3388688616	-0.143731
O	 0.8387677777	-3.3673287737	 1.1213228557	-0.225052
C	 1.0461222533	-3.1052649993	 2.4914266459	-0.237972
C	-1.8605800047	-2.421156302	 0.8995934539	-0.228155
O	-1.6327043651	-2.593923289	-0.4971653726	-0.268844
H	 0.5471333402	 1.5784213539	-2.3754414676	 0.131151
H	-1.1568613273	 1.7160884843	-1.8640023493	 0.108671
H	 0.151894462	 2.0919627282	-0.7117136226	 0.102892
H	-0.6613871474	 0.3605677688	 0.7902105335	 0.085202
H	-1.9776434446	-0.0448181803	-0.3422192441	 0.097447
H	 1.0322011667	-2.4446263441	-0.6688705009	 0.13431
H	 1.3161843776	-1.3871387864	 0.7198928312	 0.089527
H	 1.1592549902	-4.0703674383	 2.991587496	 0.129741
H	 1.958877238	-2.5113014854	 2.6538450421	 0.108475
H	 0.201995932	-2.5682039996	 2.9502006405	 0.101352
H	-1.6337435967	-3.2889479739	 1.5129497936	 0.128148
H	-2.767802883	-1.8778870944	 1.1661791249	 0.10434
41.0291	76.2948	100.3883	137.0544	143.8219	183.4505	229.9515	268.7578	327.3391	344.3817	364.3303	432.6861	440.6607	620.9044	744.5709	827.296	907.6213	952.0867	964.1327	999.1982	1019.2797	1082.1526	1128.6625	1149.0181	1157.7908	1178.7663	1182.4158	1190.6859	1218.0641	1225.064	1247.1838	1276.2525	1325.5204	1370.7728	1407.3315	1438.424	1468.7509	1477.9895	1484.3988	1485.5631	1487.6093	1495.7406	1509.317	1518.0846	1520.5456	2941.2532	2970.3672	2974.3558	2997.8591	3002.4311	3015.5222	3021.6395	3081.4009	3090.1555	3113.5622	3118.1363	3182.9795
COCC1(COC)CO1	COCC1(COC)CO1	
InChI=1S/C6H12O3/c1-7-3-6(4-8-2)5-9-6/h3-5H2,1-2H3	InChI=1S/C6H12O3/c1-7-3-6(4-8-2)5-9-6/h3-5H2,1-2H3
