14
gdb 10367	2.37781	2.32056	1.42709	1.8669	69.78	-0.2594	-0.0044	0.255	890.6161	0.10422	-345.302452	-345.294428	-345.293484	-345.335291	29.218	
C	-0.1655179091	-1.2975021427	-0.127205082	-0.453079
C	-0.0970471182	-0.0998361439	-0.0634254262	 0.313567
C	-0.0094840678	 1.353775972	 0.0522843781	 0.068729
C	-0.1936112995	 1.9163591056	 1.5049103044	-0.324832
C	 1.2724355072	 2.3605360894	 1.3756117439	-0.068143
O	 1.3730545798	 1.8198123721	 0.0389773131	-0.295105
C	-0.8173145278	 2.0108528636	-0.9722546464	 0.313355
C	-1.486955472	 2.5754415038	-1.7944342457	-0.452939
H	-0.2247646872	-2.3556865567	-0.1986840054	 0.204101
H	-0.9308702227	 2.7147818772	 1.5752033771	 0.13158
H	-0.3969404912	 1.1483327742	 2.249729563	 0.131574
H	 1.4440321372	 3.4424011838	 1.3868364544	 0.113549
H	 1.9776491567	 1.8769288953	 2.0603140934	 0.113544
H	-2.0732824353	 3.0655612764	-2.532253092	 0.2041
44.5722	125.8049	178.302	183.0436	250.2968	452.362	487.9661	540.0029	565.4298	584.5164	635.2171	637.6733	668.3027	669.2037	783.22	858.8617	939.4677	960.5	988.9382	1014.831	1121.6989	1155.5073	1199.738	1238.8386	1254.9084	1346.4074	1481.7562	1529.3604	2236.7079	2237.6198	3032.2887	3075.1341	3102.2124	3166.7885	3499.5551	3500.1169
C#CC1(CCO1)C#C	C#CC1(CCO1)C#C	
InChI=1S/C7H6O/c1-3-7(4-2)5-6-8-7/h1-2H,5-6H2	InChI=1S/C7H6O/c1-3-7(4-2)5-6-8-7/h1-2H,5-6H2
