17
gdb 67572	3.0019	1.97891	1.48877	1.6092	69.98	-0.2406	0.0759	0.3165	889.6758	0.137243	-421.740871	-421.734499	-421.733555	-421.771124	27.585	
O	-0.0908806769	 1.369326141	-0.0055127403	-0.494414
C	-0.0524213867	-0.0061924049	-0.0298432261	 0.461431
C	-1.359105995	-0.7453647381	 0.1509176826	-0.11229
C	-1.8175366638	-1.6253854261	-0.9870019314	-0.299646
C	-0.8812915705	-2.1835478366	 0.0597824888	-0.066503
C	 0.6142549227	-1.9973784542	-0.1567471748	-0.05268
C	 0.8534592737	-0.7614401837	-1.0631772649	-0.051389
O	 2.0603149163	-0.3723428636	-0.3111528703	-0.342134
C	 1.100401567	-0.7994944889	 0.717510872	-0.026211
H	 0.8270913543	 1.6573357771	-0.1168164386	 0.28726
H	-2.0592087186	-0.4020317141	 0.902389944	 0.098014
H	-2.846282154	-1.9681206834	-0.9478685001	 0.116009
H	-1.4549509123	-1.4382162278	-1.9924049763	 0.117194
H	-1.2328045127	-2.9473282744	 0.742791556	 0.093629
H	 1.2749185417	-2.8539117118	-0.2748028799	 0.085538
H	 0.8980587749	-0.6864862371	-2.150213584	 0.094597
H	 1.4249209999	-0.7704034434	 1.7591487132	 0.091594
257.9934	278.0616	300.6716	402.4979	488.6852	514.1006	535.3743	663.5665	671.5102	696.4914	791.1628	813.0557	822.3758	851.4406	889.2364	900.923	902.6035	936.5725	971.6478	1023.6557	1033.0503	1065.1604	1078.171	1094.3303	1102.8109	1126.58	1158.264	1173.8833	1186.023	1202.5217	1249.1509	1292.3748	1306.4664	1334.884	1386.8763	1434.8187	1490.4229	3104.5717	3111.4334	3130.6579	3145.5619	3182.2851	3191.2721	3214.4959	3735.1853
OC12C3CC3C3C1OC23	O[C@@]12[C@H]3C[C@H]3[C@H]3[C@@H]1O[C@@H]23	
InChI=1S/C7H8O2/c8-7-3-1-2(3)4-5(7)9-6(4)7/h2-6,8H,1H2	InChI=1S/C7H8O2/c8-7-3-1-2(3)4-5(7)9-6(4)7/h2-6,8H,1H2/t2-,3+,4-,5-,6+,7-/m1/s1
