19
gdb 8513	4.14715	1.87608	1.62968	1.5723	75.26	-0.2348	0.0914	0.3262	881.773	0.165626	-327.888608	-327.881136	-327.880191	-327.919629	29.664	
C	-0.093156978	 1.4608838995	 0.0555322329	-0.498715
C	 0.0996343988	-0.0211597229	-0.0388983833	 0.349163
C	 0.0977192736	-0.877402379	-1.294718715	-0.33114
C	-0.2328395151	-2.0372740877	-0.3300005797	 0.355085
C	-1.091904554	-3.1979455208	-0.737673117	-0.496049
C	 1.038165408	-2.2165542359	 0.5320091515	-0.280481
C	 0.6827850778	-0.8446096993	 1.0673171858	-0.079968
N	-0.7754699336	-0.9905609339	 0.712634852	-0.228678
H	 0.7929342572	 1.9957248428	-0.3054308234	 0.119349
H	-0.9519658036	 1.7841420106	-0.5423077725	 0.122461
H	-0.2727222227	 1.7624092023	 1.092149157	 0.127966
H	-0.7595269798	-0.631572168	-1.9295706419	 0.100431
H	 1.0035907508	-0.9471066503	-1.9077954895	 0.089188
H	-0.5668060457	-3.8258468647	-1.4673351842	 0.118842
H	-1.3458626642	-3.8197478259	 0.126746106	 0.124472
H	-2.0253801548	-2.8533543521	-1.1940489211	 0.123936
H	 0.8937123668	-2.987057536	 1.295078572	 0.105052
H	 1.9968940904	-2.3712432039	 0.0245548409	 0.091408
H	 0.9819607081	-0.3984181949	 2.0099016793	 0.087679
186.8874	194.7377	201.2886	262.694	311.9341	351.6563	431.2999	462.9185	579.1335	632.2874	740.0165	764.6949	798.8216	822.5047	891.1974	929.3918	964.3333	1000.5806	1005.307	1026.8031	1031.0569	1053.8427	1114.3769	1131.358	1149.2524	1190.1986	1226.6117	1246.8381	1275.4599	1314.6695	1345.3788	1401.801	1413.5161	1430.4316	1480.3006	1483.295	1488.8098	1491.4962	1494.3029	1510.2202	3026.5437	3027.6355	3029.5667	3036.4305	3086.3919	3091.8205	3093.0173	3095.9537	3105.823	3106.4057	3170.0437
CC12CC3(C)CC1N23	C[C@@]12C[C@@]3(C)C[C@@H]1N23	
InChI=1S/C7H11N/c1-6-3-5-7(2,4-6)8(5)6/h5H,3-4H2,1-2H3	InChI=1S/C7H11N/c1-6-3-5-7(2,4-6)8(5)6/h5H,3-4H2,1-2H3/t5-,6+,7+,8?/m0/s1
