16
gdb 76291	2.43012	1.64029	1.09671	1.5813	67.61	-0.244	-0.0188	0.2251	1071.0888	0.126184	-471.243726	-471.235326	-471.234382	-471.276782	31.493	
N	 0.1712961763	 1.3471196954	 0.4578204088	-0.523806
C	-0.0119355328	-0.0177985422	 0.0168447716	-0.041355
C	-1.4820386171	-0.4414553914	-0.1312742579	-0.001089
O	-2.2317027343	 0.6609449508	-0.6210766335	-0.432329
C	-1.4498542825	-1.5085778352	-1.2405785848	 0.390329
O	-2.3493080341	-2.2460855995	-1.563244045	-0.362312
N	-0.2268938265	-1.3879395735	-1.8766637612	-0.360492
C	 0.6079988218	-0.4091704297	-1.3323325127	 0.371541
N	 1.6841291448	 0.0830768157	-1.7805098424	-0.533866
H	 1.1319989305	 1.6165084653	 0.2620062315	 0.247475
H	-0.4222734815	 1.9509746422	-0.1031926425	 0.246017
H	 0.4461907209	-0.6930757173	 0.7541655867	 0.11669
H	-1.9135343963	-0.8425585811	 0.791785094	 0.102675
H	-3.1138713476	 0.3395687143	-0.8395880846	 0.30285
H	-0.0288294927	-1.8950611807	-2.7284784235	 0.261364
H	 1.9551220711	-0.3101070832	-2.6829203245	 0.216307
69.8202	135.1856	246.2665	249.338	268.8105	281.3531	344.3412	374.4977	470.154	538.9946	604.8538	617.1309	649.9236	735.2692	776.0957	815.1315	876.2932	915.6443	927.5271	986.8976	1067.0407	1089.0738	1182.065	1198.8144	1221.5721	1258.2417	1323.2034	1330.7578	1347.5378	1376.4899	1393.2862	1433.3809	1656.6415	1772.2202	1851.2514	3005.2772	3056.4468	3465.1292	3495.5153	3573.4835	3599.677	3807.5534
NC1C(O)C(=O)NC1=N	N[C@H]1[C@@H](O)C(=O)N[C]1[NH]	
InChI=1S/C4H7N3O2/c5-1-2(8)4(9)7-3(1)6/h1-2,8H,5H2,(H2,6,7,9)	InChI=1S/C4H7N3O2/c5-1-2(8)4(9)7-3(1)6/h1-2,8H,5H2,(H2,6,7,9)/t1-,2+/m0/s1
