23
gdb 110989	2.51172	1.40364	1.11461	0.3024	90.11	-0.2196	0.02	0.2396	1231.0251	0.20596	-351.131535	-351.122645	-351.121701	-351.164705	35.554	
C	-0.0490623747	 1.6094786209	 0.0641635374	-0.37952
C	-0.0059829582	 0.0828827335	 0.2125309472	-0.223976
C	-1.3849024378	-0.5547854251	 0.064146678	 0.034446
C	-2.0114657476	-0.7077083266	-1.3784658453	-0.087933
C	-1.143848355	-2.0008608141	-1.5221222395	-0.255443
C	-1.4976113735	-2.138439488	 0.0033773332	 0.290635
C	-0.7505139307	-3.0570320968	 0.9436395643	-0.515451
C	-3.0276568379	-2.2644186646	-0.1087084336	-0.125764
C	-3.3612519006	-1.33420329	-1.0077051682	-0.096496
H	 0.9426933962	 2.0501561411	 0.2057793993	 0.110217
H	-0.4048444797	 1.9028606529	-0.9291969712	 0.117288
H	-0.7230357897	 2.0592978759	 0.8015161377	 0.114764
H	 0.7089776552	-0.3298207301	-0.5072497138	 0.095823
H	 0.3859404025	-0.1700394928	 1.2071128277	 0.096065
H	-2.0687193155	-0.0992051623	 0.7893210488	 0.057674
H	-1.9909487652	 0.0956760734	-2.1150115617	 0.055083
H	-1.5218113067	-2.7795051845	-2.1892467001	 0.088025
H	-0.0841322887	-1.815905335	-1.717728133	 0.089682
H	 0.3236221373	-2.8448496429	 0.9440444944	 0.115078
H	-1.1110732697	-2.9508652123	 1.9734603506	 0.115168
H	-0.8805790803	-4.1061774135	 0.6542486357	 0.116457
H	-3.646229621	-2.9563519021	 0.44701585	 0.092596
H	-4.3307352287	-1.0516761768	-1.3934351779	 0.095582
81.1119	146.8459	198.5926	213.8894	255.4853	267.0355	333.6222	405.338	476.5534	527.5659	554.182	619.5685	683.8987	715.9392	765.4909	828.9675	854.7202	865.6107	887.4422	903.0551	922.3913	944.2607	959.0952	1014.609	1055.2476	1067.0131	1075.5589	1093.9424	1114.5629	1132.7242	1184.9935	1199.6127	1220.908	1230.6213	1248.8406	1273.8431	1294.0165	1329.2758	1347.7581	1396.0552	1411.2939	1413.9096	1480.3342	1492.7989	1494.6929	1499.8472	1500.9626	1510.4098	1624.2137	3016.9488	3023.8653	3031.1931	3036.3043	3052.2684	3068.0096	3085.5618	3095.0301	3100.2006	3102.5626	3112.3825	3115.5275	3208.978	3238.2763
CCC1C2CC1(C)C=C2	CC[C@H]1[C@H]2C[C@]1(C)C=C2	
InChI=1S/C9H14/c1-3-8-7-4-5-9(8,2)6-7/h4-5,7-8H,3,6H2,1-2H3	InChI=1S/C9H14/c1-3-8-7-4-5-9(8,2)6-7/h4-5,7-8H,3,6H2,1-2H3/t7-,8+,9+/m1/s1
