23
gdb 87854	2.86844	1.34793	1.20391	0.0732	88.72	-0.2525	0.0942	0.3467	1175.9156	0.207406	-351.150515	-351.142103	-351.141159	-351.183129	34.188	
C	-0.2861691028	 1.438530754	 0.6725119595	-0.413955
C	-0.1026791048	-0.0429527894	 0.428631317	-0.021005
C	 1.030088452	-0.5499002799	-0.431977514	-0.374152
C	 1.0210644977	-0.8597199261	 1.0418075498	 0.352164
C	 2.0371806545	-0.2553787667	 2.0165799798	-0.299271
C	 1.7732203689	-0.9719207365	 3.3346361888	-0.022263
C	 0.3393780418	-1.0762058867	 3.7952369426	-0.291243
C	 0.968988424	-2.2212987403	 3.0397285485	-0.022637
C	 0.7356342059	-2.2828644602	 1.5370324627	-0.289101
H	 0.6703293123	 1.9692111101	 0.6975360526	 0.117032
H	-0.8855461095	 1.8885028282	-0.1268442858	 0.115615
H	-0.7987992724	 1.6346414958	 1.6217191227	 0.115587
H	-1.0403269826	-0.5856706229	 0.3245818372	 0.077723
H	 0.8398566573	-1.3591697634	-1.1306568025	 0.103502
H	 1.7493140738	 0.1815634857	-0.7907722732	 0.103169
H	 3.0601560577	-0.474957317	 1.6833134446	 0.095572
H	 1.9541915123	 0.833116947	 2.0967683597	 0.096408
H	 2.5551447453	-0.9726793013	 4.0860959818	 0.075799
H	 0.1717148036	-1.2188843087	 4.857396369	 0.103477
H	-0.4185997253	-0.4736444387	 3.3048496047	 0.114446
H	 1.1570560211	-3.1471112172	 3.5720858582	 0.076016
H	-0.2706738352	-2.6210265172	 1.2633936219	 0.092432
H	 1.4459849748	-2.9920011487	 1.0905728445	 0.094685
91.1434	152.2507	201.2202	233.0529	300.2858	353.827	370.6626	419.4616	462.6733	522.3306	627.8328	744.2203	773.4973	803.0518	825.4304	865.7919	879.9099	882.7328	905.9893	933.0076	953.8042	1004.4358	1033.1911	1049.3742	1055.0626	1063.1795	1077.6555	1103.1544	1107.3701	1118.7863	1131.9689	1187.7854	1190.6175	1201.2778	1216.3917	1252.2564	1292.7766	1308.9021	1340.077	1355.3947	1397.0031	1405.8272	1427.2066	1481.4849	1486.7576	1490.5172	1494.8525	1502.0819	1502.7396	3010.7457	3018.936	3024.3723	3052.9254	3073.1988	3082.2418	3097.3401	3111.9487	3123.1174	3127.4053	3162.0258	3170.9565	3194.1558	3210.9567
CC1CC11CC2CC2C1	C[C@H]1C[C@]21C[C@H]1C[C@H]1C2	
InChI=1S/C9H14/c1-6-3-9(6)4-7-2-8(7)5-9/h6-8H,2-5H2,1H3	InChI=1S/C9H14/c1-6-3-9(6)4-7-2-8(7)5-9/h6-8H,2-5H2,1H3/t6-,7-,8+,9+/m0/s1
