18
gdb 75778	2.39796	1.29065	1.22208	3.5364	79.67	-0.2472	0.0268	0.274	1150.51	0.144865	-401.943375	-401.933695	-401.932751	-401.977819	35.207	
C	-0.1278038226	 1.3833341219	 0.0451164198	-0.354071
N	 0.037344927	-0.0466453942	-0.000347498	-0.075171
C	 0.0071799451	-0.9360091475	-1.0460037686	 0.421965
O	-0.0369294217	-0.7739328498	-2.2372992897	-0.374189
C	 0.0429599419	-2.1390120715	-0.0811653919	-0.435753
C	 0.044258395	-1.0697956695	 1.0710004999	 0.10806
C	 1.3020773135	-1.0443881281	 1.945291236	-0.440337
C	-1.1706365524	-1.0493374411	 1.8834952543	 0.323953
C	-2.1634445698	-1.0070463526	 2.5602175755	-0.473959
H	 0.7364507955	 1.8801115761	 0.5011289576	 0.129031
H	-0.2310379188	 1.7337258694	-0.9845463114	 0.163415
H	-1.0284872898	 1.6555939622	 0.6079904715	 0.13783
H	-0.8442853358	-2.7712419886	-0.1199013227	 0.141092
H	 0.9447405041	-2.7514219396	-0.1356832517	 0.131819
H	 2.1954953189	-1.0651139304	 1.3146474973	 0.124943
H	 1.3287868188	-0.142634725	 2.5638017536	 0.131339
H	 1.3172761871	-1.9103092032	 2.6128997741	 0.136375
H	-3.045497496	-0.9807349284	 3.1515900942	 0.203658
75.1383	100.9809	143.2804	177.1042	186.0249	231.1224	256.2249	316.368	392.0977	437.7988	514.7363	559.6405	598.2974	614.332	633.653	657.4547	730.5189	814.1456	897.9036	933.0234	962.2702	1063.6336	1067.2357	1125.9069	1153.0079	1167.9913	1200.2824	1242.5057	1283.5069	1398.8496	1406.489	1440.6267	1460.8706	1481.7396	1484.1822	1494.8729	1516.3176	1881.1607	2231.9199	3020.222	3042.2266	3075.1662	3089.9327	3118.8535	3123.7672	3131.3092	3154.4423	3499.2698
CN1C(=O)CC1(C)C#C	CN1C(=O)C[C@]1(C)C#C	
InChI=1S/C7H9NO/c1-4-7(2)5-6(9)8(7)3/h1H,5H2,2-3H3	InChI=1S/C7H9NO/c1-4-7(2)5-6(9)8(7)3/h1H,5H2,2-3H3/t7-/m0/s1
