19
gdb 110536	3.70792	1.20151	1.13308	2.3214	75.69	-0.2275	0.0757	0.3032	1173.3407	0.157972	-422.9485	-422.93999	-422.939046	-422.981871	31.763	
C	-0.2987027782	 1.2277632454	-0.0350509547	-0.240973
O	 0.2457843577	-0.0613355335	 0.138470766	-0.248991
C	 0.7599502763	-0.6109526298	-1.0357622404	 0.202414
C	 1.2758203872	-2.0308138127	-0.946843635	-0.245911
C	 0.0535248639	-2.9082426703	-1.270062405	 0.050483
O	-1.0846180732	-2.0608384755	-1.4143083499	-0.282476
C	-0.2123087611	-1.1562929793	-2.1344843615	-0.057681
C	 0.8346524803	-2.3116123008	-2.3912417451	 0.285668
C	 1.553463248	-2.8297238569	-3.5927683528	-0.530207
H	 0.4458223403	 1.9339372794	-0.4368486073	 0.099614
H	-1.1676554918	 1.2204546974	-0.7091998565	 0.111071
H	-0.6220941651	 1.579003597	 0.9473929885	 0.128734
H	 1.5053743262	 0.0544121934	-1.5005085352	 0.062678
H	 2.1506141992	-2.3993319369	-0.4268182246	 0.09209
H	-0.0816279886	-3.9260107077	-0.9282593672	 0.108266
H	-0.7275590675	-0.527640172	-2.8580033494	 0.082183
H	 2.2259830365	-2.0757885635	-4.0174483163	 0.124631
H	 2.1625217993	-3.7008973714	-3.3287579707	 0.128005
H	 0.8531006906	-3.1367414423	-4.3772978729	 0.1304
65.9551	135.1579	163.3731	196.2777	216.0511	289.4168	298.1406	402.5823	535.9229	601.1372	671.3602	748.8366	795.3089	808.9978	863.5084	915.3669	927.4086	957.9917	1003.8414	1005.8139	1024.2455	1030.6159	1079.1951	1102.1323	1138.7875	1151.3779	1172.1294	1182.0903	1222.0819	1225.4526	1231.7482	1267.1309	1329.8895	1390.1093	1412.9328	1465.6533	1482.1556	1484.5003	1490.3269	1497.0895	1506.4178	2969.8221	2980.9109	3024.362	3024.6545	3085.9988	3095.4037	3117.5304	3141.7354	3200.9658	3211.7989
COC1C2C3OC1C23C	CO[C@H]1[C@H]2[C@H]3O[C@@H]1[C@@]23C	
InChI=1S/C7H10O2/c1-7-3-4(8-2)6(7)9-5(3)7/h3-6H,1-2H3	InChI=1S/C7H10O2/c1-7-3-4(8-2)6(7)9-5(3)7/h3-6H,1-2H3/t3-,4-,5+,6-,7-/m0/s1
