15
gdb 105569	2.02266	1.57436	1.31969	4.0637	65.85	-0.2679	-0.03	0.2379	1046.9323	0.112197	-453.956671	-453.947951	-453.947007	-453.990385	30.547	
C	-0.1134096408	 1.5172663827	-0.0299232112	-0.350012
N	 0.0631628207	 0.0592416155	 0.0126993649	-0.329531
C	 0.7325107909	-0.4999898572	-1.1453271391	-0.042319
C	 0.5807234893	-2.0353831617	-1.2819183569	-0.110349
O	-0.2921911147	-1.8627036453	-2.442278474	-0.227424
C	-0.1955064936	-0.506174832	-2.4013844875	 0.483965
O	-0.7060587573	 0.3016905328	-3.1012138135	-0.307758
C	 2.0903340812	 0.0127539206	-1.3854964991	 0.244524
N	 3.15653494	 0.4389538036	-1.5216736628	-0.327143
H	 0.8328099204	 2.0752097655	-0.0876353583	 0.131648
H	-0.7219659627	 1.7789612031	-0.8980750916	 0.166325
H	-0.6485073745	 1.8231278178	 0.8718397593	 0.134431
H	 0.5774334908	-0.2016147367	 0.8489175191	 0.238923
H	 1.4808509896	-2.5885785599	-1.5504020931	 0.149917
H	 0.0418861407	-2.4987576889	-0.4551766963	 0.144802
105.5746	117.0379	124.6118	166.3345	182.3028	250.1662	305.6732	385.4813	426.5537	539.8709	593.6082	671.0327	731.9593	786.4969	794.8048	897.5436	950.1954	1002.8808	1061.1542	1120.8628	1144.1667	1160.642	1178.5148	1206.3964	1246.3086	1351.6353	1457.7729	1474.8425	1494.772	1499.0949	1521.1506	1948.951	2343.2228	3000.059	3090.2499	3099.5945	3141.7527	3164.2655	3511.451
CNC1(COC1=O)C#N	CN[C@]1(COC1=O)C#N	
InChI=1S/C5H6N2O2/c1-7-5(2-6)3-9-4(5)8/h7H,3H2,1H3	InChI=1S/C5H6N2O2/c1-7-5(2-6)3-9-4(5)8/h7H,3H2,1H3/t5-/m0/s1
