17
gdb 24355	3.47524	1.54169	1.10818	2.2375	73.98	-0.2011	0.0227	0.2238	1056.7534	0.139317	-421.858797	-421.851966	-421.851022	-421.88999	27.457	
C	-0.0249485539	 1.5377634963	-0.0135186257	-0.22034
C	 1.4010118138	 2.0910701565	 0.0320234733	-0.076758
O	 2.0942508303	 1.7331953747	 1.2338769407	-0.280313
C	 1.9572772094	 0.4251714889	 1.568083297	 0.253986
C	 2.6770318048	-0.2764840972	 2.4848285948	-0.141385
O	 2.1874399629	-1.5520940366	 2.5548329372	-0.150087
C	 1.1608421446	-1.6439334013	 1.6731791282	-0.114143
C	 0.9635194386	-0.4622371555	 1.029956424	 0.134478
C	-0.0125520553	-0.0036801677	-0.0133045585	-0.337797
H	-0.5733341672	 1.9100857801	 0.8594412731	 0.117093
H	-0.528373257	 1.9224695567	-0.9063266348	 0.102896
H	 1.9742063997	 1.7311343223	-0.8361023346	 0.101753
H	 1.4044881725	 3.1833090496	 0.0138159711	 0.114829
H	 3.496077809	-0.0340051209	 3.1380173023	 0.135168
H	 0.6732433945	-2.603790366	 1.6193374799	 0.133118
H	-1.0170185955	-0.3988283215	 0.1703185105	 0.113248
H	 0.286325929	-0.3635603785	-1.0069816784	 0.114253
112.9497	214.2602	316.9169	356.5373	400.6538	450.6404	523.9217	606.0574	650.0408	672.8967	695.9579	723.0619	751.8083	872.1133	880.6318	898.6228	938.6151	1004.6041	1066.1175	1076.4243	1099.7649	1177.6874	1196.5803	1215.7793	1228.3488	1251.2171	1297.5799	1316.6727	1354.428	1370.9205	1401.8678	1428.1081	1476.5526	1487.5688	1503.832	1589.2222	1672.0265	2992.0632	3014.1798	3041.0401	3068.4298	3090.2629	3103.0351	3268.0471	3294.9812
C1COC2=COC=C2C1	C1COc2cocc2C1	
InChI=1S/C7H8O2/c1-2-6-4-8-5-7(6)9-3-1/h4-5H,1-3H2	InChI=1S/C7H8O2/c1-2-6-4-8-5-7(6)9-3-1/h4-5H,1-3H2
