17
gdb 38346	3.95954	1.4159	1.20319	2.2808	67.87	-0.2414	0.0758	0.3173	1023.1695	0.136443	-458.877602	-458.870538	-458.869594	-458.909554	27.41	
C	-0.0941249762	 1.5818291558	 0.0795471071	-0.24097
C	 1.4172552261	 1.242749964	 0.0796111398	-0.02252
O	 1.1268220639	 0.1438925601	 1.028625628	-0.311143
C	 0.0722315263	 0.0451271188	-0.0058269297	-0.032636
C	 1.1729495616	 0.251669925	-1.0902982361	 0.467894
C	 0.8364546714	 0.6959927053	-2.5314528487	-0.202212
O	 1.8189690205	 0.0572339574	-3.3306672807	-0.236345
C	 2.1597707137	-1.1033342703	-2.6168479311	 0.004015
O	 2.1340188846	-0.7602249977	-1.2492198352	-0.288841
H	-0.463147675	 1.9278315408	 1.0440089055	 0.119362
H	-0.5271196282	 2.1266143319	-0.7636307673	 0.101337
H	 2.2801867996	 1.8761815808	 0.2851174679	 0.101109
H	-0.6697898682	-0.7468096977	 0.0997907855	 0.098789
H	-0.1766885595	 0.370158226	-2.8139105971	 0.105123
H	 0.9149626444	 1.7738204433	-2.6885066229	 0.126829
H	 1.4394763281	-1.9169214261	-2.8214490282	 0.085102
H	 3.1704521667	-1.4143154873	-2.8938175768	 0.125107
58.0472	199.9185	225.5008	271.4211	396.2092	418.6381	526.668	644.956	741.3425	765.8124	771.1701	802.5264	877.1449	880.4816	913.6669	981.7572	1008.5256	1010.7811	1047.6852	1089.1634	1106.0407	1117.3585	1129.2711	1145.4764	1168.3185	1185.7323	1200.4093	1208.0636	1234.6249	1260.3039	1264.267	1316.2281	1364.3205	1434.5283	1486.4862	1511.7725	1543.7199	2932.8892	2984.7539	3064.062	3095.8835	3101.7712	3117.9495	3125.6947	3160.3297
C1C2OC1C21COCO1	C1[C@H]2O[C@@H]1[C@]12COCO1	
InChI=1S/C6H8O3/c1-4-6(5(1)9-4)2-7-3-8-6/h4-5H,1-3H2	InChI=1S/C6H8O3/c1-4-6(5(1)9-4)2-7-3-8-6/h4-5H,1-3H2/t4-,5+,6-
