16
gdb 53526	2.86614	0.7957	0.73876	5.9435	76.09	-0.2527	-0.0382	0.2145	1592.0949	0.120938	-437.894031	-437.88376	-437.882816	-437.932649	33.338	
C	-0.0210581682	 1.480828785	 0.0093523271	-0.497046
C	-0.0099070132	 0.0265728014	-0.0332423282	 0.055553
C	-0.0014498753	-1.1764588877	-0.068454429	 0.114023
C	-0.0163429389	-2.6356013433	-0.1086413915	-0.388291
N	-1.3643848735	-3.2167439545	 0.0117499325	-0.072233
C	-2.1086674686	-3.3970800464	-1.1631587559	 0.171284
O	-3.2279327848	-3.8170091823	-1.2395533701	-0.258766
C	-1.8582911287	-3.4675869026	 1.3001685486	 0.17128
O	-2.9417345759	-3.8976256003	 1.5761185202	-0.258764
H	 0.5755685248	 1.8575082938	 0.8468644578	 0.156061
H	 0.3875632158	 1.9076354635	-0.9126774983	 0.156064
H	-1.0414337795	 1.8601065113	 0.1291929911	 0.160998
H	 0.424696961	-2.998831646	-1.0430751021	 0.154536
H	 0.601438413	-3.0485395717	 0.69599961	 0.154535
H	-1.5091283429	-3.0997445425	-2.0468224009	 0.090382
H	-1.0916499253	-3.2172885577	 2.0606479487	 0.090383
18.1062	18.9974	62.4547	135.5895	182.7693	190.7345	225.6059	256.6952	341.2537	373.5623	382.1077	474.1381	528.2472	726.1229	770.7064	955.2257	959.8855	1014.96	1035.6111	1051.4074	1053.4931	1157.2545	1190.4037	1206.6069	1369.426	1379.6116	1414.4785	1449.1894	1455.2205	1475.1443	1476.3901	1494.6981	1800.9666	1879.1444	2375.309	2924.2496	2934.4368	3032.592	3044.3597	3075.2288	3096.3245	3097.1296
CC#CCN(C=O)C=O	CC#CCN(C=O)C=O	
InChI=1S/C6H7NO2/c1-2-3-4-7(5-8)6-9/h5-6H,4H2,1H3	InChI=1S/C6H7NO2/c1-2-3-4-7(5-8)6-9/h5-6H,4H2,1H3
