18
gdb 95598	2.21657	1.67339	1.02991	3.8746	73.07	-0.2242	-0.0697	0.1545	1151.9964	0.147728	-439.111467	-439.102733	-439.101789	-439.145261	32.133	
C	-0.1023852929	 1.5479213361	 0.0237979673	-0.400361
C	 0.0408472523	 0.0271235762	 0.0150834225	-0.112656
C	 0.7482494426	-0.5263391844	-1.25357108	-0.184208
N	 0.9203527429	-1.9730483005	-1.2639932377	-0.281337
C	 1.7085639439	-2.4570969726	-0.1311559467	-0.279565
C	 1.1559623837	-1.9948867098	 1.2187073583	 0.304123
O	 1.0353156209	-2.7081710997	 2.1826817933	-0.279188
C	 0.7435747352	-0.4994045103	 1.2608045697	 0.302397
O	 1.0114172193	 0.1743392882	 2.2253579263	-0.288572
H	 0.8789364909	 2.0306382756	-0.0191334047	 0.128928
H	-0.6901936523	 1.8861452148	-0.8346427587	 0.114325
H	-0.5916186878	 1.8868342479	 0.939198554	 0.140856
H	-0.9596511375	-0.4372696512	 0.0306428376	 0.102639
H	 0.1782143556	-0.2307506813	-2.1400086168	 0.117225
H	 1.7403121243	-0.0641312036	-1.3459584861	 0.118267
H	 0.0150270071	-2.4329729669	-1.2741325601	 0.227358
H	 1.7673678485	-3.5486080368	-0.136990372	 0.13511
H	 2.7332787533	-2.0692913818	-0.2313975363	 0.134659
55.9174	96.715	178.8803	230.5204	268.4282	302.347	331.6903	356.3717	406.9223	460.1183	556.3761	644.2567	696.4565	757.489	777.2823	872.2622	917.1659	950.9101	967.4912	1011.8518	1103.2843	1109.6589	1130.0098	1145.6579	1183.2111	1209.6384	1298.9442	1313.2375	1333.2718	1348.3355	1383.9146	1411.0224	1455.7259	1486.6164	1488.9196	1494.7048	1495.6713	1804.166	1818.3442	2971.7569	3005.7792	3023.7108	3046.1019	3080.5752	3103.3577	3112.9045	3133.0419	3514.0601
CC1CNCC(=O)C1=O	C[C@H]1CNCC(=O)C1=O	
InChI=1S/C6H9NO2/c1-4-2-7-3-5(8)6(4)9/h4,7H,2-3H2,1H3	InChI=1S/C6H9NO2/c1-4-2-7-3-5(8)6(4)9/h4,7H,2-3H2,1H3/t4-/m0/s1
