15
gdb 80321	3.70399	1.25143	1.19689	1.6636	74.45	-0.2184	-0.0301	0.1883	1058.3055	0.112376	-416.756252	-416.748282	-416.747338	-416.788583	30.425	
O	-0.1960275453	 1.4602980532	 0.0026629753	-0.430215
C	-0.0937748966	 0.074577781	-0.0038504669	 0.093542
C	-1.3542579411	-0.7615068765	 0.0499163321	-0.091322
N	-2.5576542356	-0.1264719354	-0.4042765465	-0.329771
C	-2.3251907393	 0.3572149494	-1.680838244	 0.226952
N	-1.2223562383	-0.0243124848	-2.2411537407	-0.324803
C	-0.4839901985	-0.7309521604	-1.2267326675	-0.097145
C	-3.3020935771	 1.1853618967	-2.3058933058	 0.268819
C	-4.1420674497	 1.8915843831	-2.796366807	-0.386322
H	-0.0236141691	 1.7728870389	-0.8939763286	 0.298728
H	 0.7503801803	-0.322856905	 0.5559930143	 0.100848
H	-1.4622837145	-1.6022853644	 0.7250590105	 0.105064
H	-3.1457152162	 0.3916564596	 0.230253389	 0.259428
H	 0.1473516574	-1.5458663681	-1.5601597411	 0.099634
H	-4.8761831464	 2.5128559127	-3.2478008531	 0.206564
101.2586	161.5595	172.5312	235.6531	278.7968	398.2229	400.1693	523.5282	564.7444	597.3196	637.191	663.2272	671.4069	698.6267	770.1144	778.6264	824.5975	937.9613	970.7803	1018.2834	1034.0631	1081.9869	1123.2865	1131.2937	1212.1341	1245.0158	1311.2426	1340.6906	1357.3581	1398.656	1440.8769	1610.8675	2245.1381	3125.6633	3173.2886	3182.9918	3500.3887	3631.6522	3776.3527
OC1C2NC(=NC12)C#C	O[C@H]1[C@H]2NC(=N[C@@H]12)C#C	
InChI=1S/C6H6N2O/c1-2-3-7-4-5(8-3)6(4)9/h1,4-6,9H,(H,7,8)	InChI=1S/C6H6N2O/c1-2-3-7-4-5(8-3)6(4)9/h1,4-6,9H,(H,7,8)/t4-,5+,6-
