20
gdb 101057	2.18084	1.32631	0.9339	5.556	79.73	-0.2625	0.0276	0.2901	1307.0753	0.171074	-399.312435	-399.302492	-399.301548	-399.347452	36.301	
C	-0.0086023676	 1.4768772693	 0.2607301545	-0.397149
C	 0.1982453081	-0.0366793521	 0.1445008243	-0.187583
C	 0.6968196636	-0.4919675917	-1.2379223154	-0.066245
N	 2.0891806015	-0.0838736986	-1.4446482262	-0.533425
C	 0.6041944277	-2.0288210695	-1.3666310765	 0.179891
C	 1.5600960067	-2.7843564064	-2.2288908328	-0.270185
N	 1.6636430959	-2.8649538588	-0.7694920194	-0.32989
C	-0.7407299427	-2.5503058201	-1.2334963805	 0.278842
N	-1.8326057383	-2.9232602474	-1.1552807719	-0.351765
H	 0.9147647463	 2.0433362936	 0.0953048792	 0.109045
H	-0.7461601762	 1.8292941707	-0.4682695966	 0.125624
H	-0.3729778934	 1.7401451525	 1.2576715254	 0.127379
H	 0.9119474874	-0.3831963083	 0.9032666133	 0.108675
H	-0.7479400123	-0.5437973515	 0.356303872	 0.138061
H	 0.0252587345	-0.0650492497	-1.9981809466	 0.084691
H	 2.2581293301	 0.1976894043	-2.4029088206	 0.241575
H	 2.3218463022	 0.7082228835	-0.8587906562	 0.24032
H	 1.2248532757	-3.6917626212	-2.7207656877	 0.13691
H	 2.3046544092	-2.202204454	-2.7624067399	 0.118991
H	 2.3964340514	-2.2123671244	-0.4836716884	 0.246239
61.446	86.8402	139.7067	193.4868	196.7369	231.822	247.6533	292.2497	329.1243	391.8639	429.9598	514.4228	574.1538	595.6852	724.6614	776.739	840.2182	857.9081	894.2517	914.1251	971.7254	1004.1165	1014.6339	1056.1117	1066.2538	1098.2882	1134.4396	1163.2383	1240.2496	1266.7595	1300.0616	1321.8728	1328.365	1358.823	1393.2042	1396.9598	1417.4848	1483.0347	1494.6587	1499.3467	1502.9504	1661.999	2352.8943	2982.2498	3031.1057	3033.4397	3079.5615	3101.71	3112.0629	3124.9229	3218.1184	3446.5462	3533.1376	3609.4276
CCC(N)C1(CN1)C#N	CC[C@@H](N)[C@]1(CN1)C#N	
InChI=1S/C6H11N3/c1-2-5(8)6(3-7)4-9-6/h5,9H,2,4,8H2,1H3	InChI=1S/C6H11N3/c1-2-5(8)6(3-7)4-9-6/h5,9H,2,4,8H2,1H3/t5-,6-/m1/s1
