21
gdb 104711	2.7698	1.1099	0.96069	2.2978	74.33	-0.2425	0.0674	0.3099	1323.4819	0.181192	-461.3442	-461.334351	-461.333407	-461.3794	36.553	
C	 0.3662914272	 1.5540181893	-0.0532314263	-0.398871
C	-0.0248403023	 0.0926777841	-0.1238877555	 0.168261
C	 0.5870915994	-0.7859062881	-1.2361878374	-0.371094
C	 1.120593458	-1.658631795	-0.0776024611	 0.379224
C	 0.3980315568	-2.9925466567	 0.0715542155	-0.120512
O	 0.78158968	-3.6583609586	 1.2685778646	-0.433482
C	 2.6394891893	-1.8167451735	 0.1180806765	-0.125053
O	 3.1589470322	-3.0349608447	-0.377835005	-0.422566
O	 0.6244980032	-0.7020622024	 0.9065317672	-0.350318
H	 1.4507562274	 1.6709003406	-0.1423191233	 0.120514
H	-0.1135628347	 2.1164893382	-0.861774001	 0.118162
H	 0.050929829	 1.9897323436	 0.900096128	 0.127775
H	-1.1160810829	-0.0093166935	-0.0476572579	 0.075516
H	-0.1190998369	-1.2692162018	-1.9146742637	 0.108007
H	 1.3668258552	-0.2928040847	-1.8206741241	 0.111017
H	-0.6887749011	-2.8282138235	 0.0359738456	 0.093287
H	 0.6732101868	-3.6533597407	-0.7553330389	 0.123655
H	 0.5928813468	-3.0484133217	 1.992171177	 0.295583
H	 3.1690061039	-1.010558254	-0.3992899706	 0.104957
H	 2.8344513378	-1.6958706042	 1.1930362274	 0.099699
H	 2.8374191148	-3.7208429827	 0.220383223	 0.296239
50.4956	80.3951	97.4439	191.782	227.4115	276.6946	304.033	334.9127	357.0042	416.9336	452.7239	482.378	513.7449	577.006	721.3692	781.1975	854.0297	890.304	902.5309	916.0178	959.3916	983.1654	1039.8656	1069.0802	1084.1076	1104.8946	1118.681	1155.6125	1190.2875	1213.9435	1236.6488	1268.487	1296.5264	1313.8883	1368.6126	1384.9817	1399.6579	1409.9729	1420.8293	1429.0728	1482.1221	1486.7913	1492.1799	1494.441	1498.9909	3000.1356	3005.4272	3007.0775	3033.1088	3068.9836	3079.6535	3095.7033	3105.7345	3112.5586	3124.1376	3783.0162	3787.9568
CC1CC(CO)(CO)O1	C[C@H]1CC(CO)(CO)O1	
InChI=1S/C6H12O3/c1-5-2-6(3-7,4-8)9-5/h5,7-8H,2-4H2,1H3	InChI=1S/C6H12O3/c1-5-2-6(3-7,4-8)9-5/h5,7-8H,2-4H2,1H3/t5-/m0/s1
