18
gdb 88643	3.24804	1.16389	1.0183	3.4134	74.07	-0.2645	0.0263	0.2908	1218.5765	0.146772	-439.065014	-439.056458	-439.055514	-439.098874	31.571	
C	 0.4977454715	 1.4880935282	-0.3717736621	-0.434252
C	-0.0918569184	 0.2112279494	 0.1676887746	 0.081238
O	 0.7192405567	-0.9770047942	 0.1460608872	-0.25715
C	 0.2991818173	-0.4767192582	 1.4108049132	 0.03281
C	 1.3637041196	-0.0761210032	 2.3960974212	 0.079613
C	 2.3855161056	-1.1781826578	 2.7741043248	-0.377248
C	 3.3962585152	-0.2201460866	 2.18515009	 0.452717
N	 4.6384189351	-0.2215914063	 2.0342631907	-0.537411
O	 2.4520441286	 0.7372659941	 1.8544121475	-0.254498
H	 1.5186111017	 1.6363183526	-0.0252913112	 0.158478
H	 0.4894677119	 1.4621870808	-1.4665702448	 0.127762
H	-0.1129363941	 2.3415254134	-0.0566254314	 0.120027
H	-1.1172572078	 0.0212307726	-0.1593894895	 0.091996
H	-0.470152674	-1.0819092902	 1.9022830721	 0.093723
H	 0.9067372861	 0.435722247	 3.2496437718	 0.100001
H	 2.5077754712	-1.3841859737	 3.8379258123	 0.138603
H	 2.2797878073	-2.1117695326	 2.2194269249	 0.154067
H	 4.9617074365	 0.6349929147	 1.5817722786	 0.229525
63.5116	74.6287	163.4052	203.1835	231.1826	279.4755	388.3365	453.8089	494.0974	510.7475	655.8092	697.7859	775.8334	791.6066	864.4334	874.6467	937.447	957.1066	969.5105	1016.1636	1023.5579	1039.7744	1083.8124	1098.1975	1140.8412	1177.0325	1186.4979	1219.1215	1239.9594	1298.901	1308.6724	1378.7801	1399.2075	1421.3883	1459.8114	1472.5029	1499.3336	1512.8469	1833.769	3041.119	3048.0107	3061.5168	3078.6734	3092.8617	3097.1719	3151.5537	3178.1859	3479.6563
CC1OC1C1CC(=N)O1	C[C@H]1O[C@H]1[C@H]1C[C]([NH])O1	
InChI=1S/C6H9NO2/c1-3-6(8-3)4-2-5(7)9-4/h3-4,6-7H,2H2,1H3	InChI=1S/C6H9NO2/c1-3-6(8-3)4-2-5(7)9-4/h3-4,6-7H,2H2,1H3/t3-,4-,6-/m1/s1
