17
gdb 72599	2.26063	1.62953	1.44962	3.7629	68.76	-0.2341	-0.0326	0.2014	1002.0628	0.132825	-458.943661	-458.934774	-458.933829	-458.977098	32.795	
C	-0.1152022149	 1.6147528221	 0.1712388782	-0.487095
C	 0.0040131588	 0.1208380996	 0.1483795027	 0.272156
O	 0.8634800027	-0.4038583361	-0.9063992423	-0.322583
C	 1.691272514	-1.1319667951	 0.0330601007	-0.129894
C	 0.7248268722	-0.8125823635	 1.18598215	 0.290408
O	 1.2162870006	-0.2889960345	 2.3783674468	-0.474124
C	-0.5211596963	-1.7442711874	 1.2420293127	-0.437833
C	-1.2261830041	-0.8138343825	 0.227027634	 0.402639
O	-2.3051226915	-0.8159944453	-0.2862620277	-0.293908
H	 0.8724301924	 2.0803595511	 0.2308702572	 0.133618
H	-0.6127736673	 1.9600927681	-0.7404603524	 0.146142
H	-0.7092213552	 1.9402619117	 1.0305544995	 0.132028
H	 1.8194131882	-2.1824035874	-0.2523153844	 0.103711
H	 2.6717458419	-0.655162505	 0.1534512496	 0.110485
H	 1.4548729987	-1.0147359936	 2.9650550305	 0.288434
H	-0.4004754259	-2.791630817	 0.9528138168	 0.128887
H	-1.0208028044	-1.6930662851	 2.2157305879	 0.136929
76.754	156.2548	167.6675	179.1481	210.2204	273.2288	311.6173	380.6508	400.4878	500.3084	553.3245	594.4438	627.3822	699.7092	797.1353	857.0394	867.6811	907.2515	999.2524	1007.0915	1031.2519	1074.0894	1118.4886	1147.9467	1168.6705	1172.9229	1224.7736	1249.7923	1293.8557	1329.3501	1390.2072	1405.2169	1428.8379	1475.7202	1480.4223	1513.2911	1894.624	3018.644	3041.3371	3050.573	3072.4728	3112.2139	3115.5667	3120.8674	3805.7586
CC12OCC1(O)CC2=O	C[C@@]12OC[C@]1(O)CC2=O	
InChI=1S/C6H8O3/c1-5-4(7)2-6(5,8)3-9-5/h8H,2-3H2,1H3	InChI=1S/C6H8O3/c1-5-4(7)2-6(5,8)3-9-5/h8H,2-3H2,1H3/t5-,6+/m0/s1
