16
gdb 54743	3.34778	1.32657	1.13827	4.7331	71.67	-0.2483	-0.0271	0.2212	1098.2921	0.12253	-437.868013	-437.859758	-437.858814	-437.901481	30.323	
C	 0.1538077306	 1.2565098339	-0.5065230323	-0.485128
C	 0.2354119106	-0.1773375361	-0.0167415617	 0.389815
O	 1.2785229448	-0.6980924454	 0.298575907	-0.290923
C	-1.0765559281	-0.9156546571	 0.0264965509	-0.168646
C	-1.3376502799	-2.162669106	-0.7798685835	 0.071307
O	-0.1445528475	-2.9500812641	-0.9300618934	-0.264382
C	-0.1170197152	-3.16096772	 0.461220349	 0.489927
N	 0.5654540779	-3.9458576803	 1.150081785	-0.552173
C	-1.2905364148	-2.2650246251	 0.7209027619	-0.22822
H	 1.1560218901	 1.6800674969	-0.5757559955	 0.148515
H	-0.3394588591	 1.3019829265	-1.4840499633	 0.141606
H	-0.4503246408	 1.8564488799	 0.1844163768	 0.142205
H	-1.9590965429	-0.2820579697	 0.0831600193	 0.109897
H	-2.1277740907	-2.3012932835	-1.5052648801	 0.130444
H	 1.2429110535	-4.4530772614	 0.5792810068	 0.236873
H	-2.0611864084	-2.4161370186	 1.4621846831	 0.128886
51.931	121.9914	134.3299	186.3672	241.8112	353.8956	416.9365	445.7247	560.9584	637.5814	691.9264	717.7403	789.8787	827.9087	857.6334	880.9229	917.6858	922.2266	960.8171	995.0113	1030.1701	1040.0231	1055.7997	1072.5583	1127.9834	1181.5221	1192.0858	1281.3638	1327.9747	1378.3498	1420.4653	1463.4975	1474.758	1812.966	1847.7237	3033.3922	3093.5567	3143.0308	3156.0751	3213.2684	3234.2796	3490.1562
CC(=O)C1C2OC(=N)C12	CC(=O)[C@H]1[C@H]2O[C]([NH])[C@@H]12	
InChI=1S/C6H7NO2/c1-2(8)3-4-5(3)9-6(4)7/h3-5,7H,1H3	InChI=1S/C6H7NO2/c1-2(8)3-4-5(3)9-6(4)7/h3-5,7H,1H3/t3-,4+,5-/m1/s1
