19
gdb 56921	2.11939	1.28511	0.959	1.0311	87.44	-0.2435	0.0457	0.2892	1302.532	0.156019	-348.676959	-348.667097	-348.666152	-348.71178	36.961	
C	 0.0725691012	 1.3785131642	-0.2668263752	-0.388925
C	 0.0808255167	-0.0944231531	 0.193203456	-0.186475
C	 0.7065366616	-0.2253480157	 1.510026721	 0.337629
C	 1.2043430299	-0.3039378485	 2.6013407132	-0.472606
C	-1.3279479503	-0.676190322	 0.2058937849	 0.020371
C	-1.9934305577	-1.0974342388	-1.0702266854	-0.313184
C	-1.578079519	-2.1560637354	-0.0553363177	-0.196118
C	-0.4991353595	-3.0506566999	-0.3572404624	 0.333231
C	 0.3999100795	-3.8089745254	-0.6114220289	-0.467679
H	 1.0887272546	 1.7801037778	-0.2935376729	 0.126158
H	-0.3637066655	 1.4600585154	-1.2666100407	 0.116775
H	-0.5165942413	 1.9951049004	 0.4187042579	 0.124467
H	 0.675848165	-0.6768149804	-0.5220208888	 0.116063
H	 1.6542540401	-0.3908406618	 3.5590804331	 0.193228
H	-1.9718574914	-0.2401705679	 0.9644749753	 0.100401
H	-3.0533253567	-0.909462555	-1.1988864406	 0.119094
H	-1.411182924	-1.0531754454	-1.9842569167	 0.126854
H	-2.3821521858	-2.600727603	 0.5236049317	 0.1147
H	 1.1950620127	-4.4776855857	-0.8294538338	 0.196013
48.7361	100.7403	137.3809	200.1822	213.3284	235.8655	250.3873	336.0885	383.9679	492.7066	529.5899	531.8396	580.4565	625.1007	633.2323	637.4069	653.0605	769.4361	787.1305	840.8619	882.5169	951.8537	984.3381	1006.4395	1068.66	1083.308	1106.549	1126.8152	1136.4737	1183.2767	1230.4901	1291.6265	1324.3161	1375.0256	1401.6661	1418.3434	1485.5786	1490.7727	1499.2552	2234.931	2235.6494	3028.058	3041.8114	3115.745	3122.8013	3135.7675	3144.4504	3153.7718	3225.2804	3505.2217	3505.9501
CC(C#C)C1CC1C#C	C[C@@H](C#C)[C@H]1C[C@H]1C#C	
InChI=1S/C9H10/c1-4-7(3)9-6-8(9)5-2/h1-2,7-9H,6H2,3H3	InChI=1S/C9H10/c1-4-7(3)9-6-8(9)5-2/h1-2,7-9H,6H2,3H3/t7-,8+,9+/m0/s1
