17
gdb 51814	4.65926	0.9052	0.79405	2.6087	72.27	-0.2543	0.0139	0.2682	1388.9873	0.137125	-455.146852	-455.138467	-455.137523	-455.181833	29.667	
N	-0.0943569904	 1.3114948667	 0.0730541668	-0.437638
C	-0.0329607592	 0.0605147467	-0.0651704185	 0.12194
O	-1.1340021485	-0.6946381517	 0.1407528718	-0.184621
C	-1.0013636533	-2.1117383318	 0.0763557656	 0.050419
C	-1.0361779436	-2.6794334203	 1.4945341714	-0.090116
O	-1.040163396	-4.1105612094	 1.4684570657	-0.222392
C	-1.7701690024	-4.6753949378	 0.4721730317	 0.136369
N	-2.3253722499	-4.1328884828	-0.5242296752	-0.269736
C	-2.1687432021	-2.6945445503	-0.7180846113	-0.172263
H	 0.8089416665	 1.7305958496	-0.1369984964	 0.233076
H	 0.8485601057	-0.5267487299	-0.3586470933	 0.090777
H	-0.0503029399	-2.3834922346	-0.4006457855	 0.098328
H	-0.1592731247	-2.3814284511	 2.0738084926	 0.125488
H	-1.9350384595	-2.3177342594	 2.0084100003	 0.132432
H	-1.8305112242	-5.7504791928	 0.6279287055	 0.131373
H	-3.0919448401	-2.1818728279	-0.4209835499	 0.135435
H	-2.0371321287	-2.5007182231	-1.7875669613	 0.121129
17.3689	104.2188	107.4343	164.0949	278.0584	343.6203	366.8558	480.8672	487.4154	522.9778	670.0792	813.8186	820.1489	901.6152	936.8908	960.3243	972.4309	985.9459	1039.8943	1046.458	1129.8942	1139.5051	1145.4177	1171.6767	1221.7052	1270.9831	1300.7959	1336.7212	1351.1206	1368.7592	1401.2764	1414.1476	1436.3191	1487.1414	1512.399	1739.8167	1746.3435	3014.5326	3024.0513	3035.9071	3044.2257	3076.5398	3110.9656	3168.0206	3522.0778
N=COC1COC=NC1	[NH][CH]O[C@H]1COC=NC1	
InChI=1S/C5H8N2O2/c6-3-9-5-1-7-4-8-2-5/h3-6H,1-2H2	InChI=1S/C5H8N2O2/c6-3-9-5-1-7-4-8-2-5/h3-6H,1-2H2/t5-/m1/s1
