20
gdb 31701	4.86087	0.81144	0.73511	2.1083	84.67	-0.1923	0.0409	0.2332	1587.7444	0.171432	-403.186919	-403.177358	-403.176413	-403.222115	34.926	
C	 0.2255027023	 1.7127115541	-0.0586381082	-0.359832
C	 0.0370247737	 0.1859291541	-0.0491257847	-0.294401
C	 0.5582270464	-0.4735400977	 1.1956429089	 0.295965
C	 1.6796527543	-1.2679186903	 1.296525249	-0.190291
N	 1.8295099941	-1.6390332405	 2.6093179366	-0.286987
C	 0.8032094181	-1.1221065671	 3.3572670373	 0.350615
C	 0.7552357672	-1.3509735008	 4.8293552114	-0.202068
O	 1.2061358125	-2.6818907688	 5.0876237491	-0.425903
C	 0.0031401522	-0.3893151385	 2.5100105191	-0.359453
H	 1.2860082494	 1.9738596365	 0.0145553075	 0.11427
H	-0.1737823995	 2.1550786205	-0.9776003891	 0.103106
H	-0.2872144572	 2.1771633484	 0.7898081227	 0.114825
H	-1.0304034913	-0.040395655	-0.1706467534	 0.098903
H	 0.5394057008	-0.2448891259	-0.923383543	 0.093299
H	 2.3678264103	-1.6070957188	 0.5379979711	 0.109209
H	 2.484726704	-2.3098347993	 2.9723185128	 0.26278
H	 1.3999062852	-0.630147954	 5.36058844	 0.097972
H	-0.2724828974	-1.189989162	 5.1862540826	 0.105255
H	 1.3504480967	-2.7671768	 6.0348292861	 0.289424
H	-0.8850068119	 0.154660685	 2.7982071242	 0.08331
46.4821	63.1139	117.9436	182.395	196.9965	253.6703	295.6968	344.8208	397.4344	445.9517	529.9885	612.1651	664.8381	677.0794	728.9484	731.7798	786.9635	810.812	947.7292	985.6909	1007.8568	1022.6733	1052.7305	1063.4884	1087.3843	1133.4323	1166.5935	1220.2108	1237.8338	1263.0632	1300.8005	1322.0606	1363.1178	1405.4249	1425.6696	1445.6932	1473.8522	1484.121	1495.2515	1505.8632	1515.8382	1547.1249	1632.2901	2949.3177	3007.1369	3016.5344	3031.1979	3053.3703	3100.4187	3107.137	3231.988	3253.8783	3680.5392	3825.7588
CCC1=CNC(CO)=C1	CCc1c[nH]c(CO)c1	
InChI=1S/C7H11NO/c1-2-6-3-7(5-9)8-4-6/h3-4,8-9H,2,5H2,1H3	InChI=1S/C7H11NO/c1-2-6-3-7(5-9)8-4-6/h3-4,8-9H,2,5H2,1H3
