18
gdb 75514	2.5172	1.62316	1.03152	5.4635	83.93	-0.2076	-0.0454	0.1622	1148.0858	0.149142	-401.979887	-401.971431	-401.970487	-402.012848	31.95	
C	-0.035684659	 1.5367071364	 0.0039115167	-0.459956
C	 0.0106566756	 0.0269714107	 0.048750921	 0.130244
C	-1.1593280339	-0.6673721151	 0.0527082208	-0.054326
N	-1.3739756905	-2.0113052685	-0.032477774	-0.285915
C	-0.4214912637	-2.9068373754	-0.6724184791	-0.236829
C	 0.8617000983	-3.0234924823	 0.1097955501	-0.074268
C	 1.6001138685	-1.9794003323	 0.4868788766	-0.104429
C	 1.3599394826	-0.5323274426	 0.2171926411	 0.269224
O	 2.3357453196	 0.2138209507	 0.2425654402	-0.357593
H	 0.4661903664	 1.9168578749	-0.8923483274	 0.132213
H	-1.0661182389	 1.9042132061	-0.0006554649	 0.097884
H	 0.4948591432	 1.9736788491	 0.8557280502	 0.133525
H	-2.082665285	-0.097896758	 0.1396820333	 0.106436
H	-2.3380433868	-2.2934775038	-0.0858141455	 0.251212
H	-0.898596739	-3.8855234303	-0.7598173645	 0.115279
H	-0.2035622403	-2.5532773049	-1.6948948393	 0.121932
H	 1.2042050505	-4.0275918538	 0.3450043613	 0.104213
H	 2.5441484325	-2.1457218208	 0.9984154833	 0.111152
84.1591	137.6425	169.0731	272.573	308.6964	314.9648	327.7581	390.3553	433.9868	499.2082	523.7661	644.7164	683.0479	731.8598	781.7387	841.0852	915.9357	933.9642	969.0986	1016.489	1042.2354	1064.6258	1071.6052	1107.9347	1228.6991	1248.5866	1292.8239	1323.8876	1388.8249	1400.8326	1414.9327	1427.5132	1468.0857	1481.368	1497.7823	1530.7847	1671.0553	1693.3138	1713.1938	2954.7573	3033.5225	3089.2962	3098.6257	3109.5856	3144.9699	3157.3612	3181.3511	3648.2226
CC1=CNCC=CC1=O	CC1=CNCC=CC1=O	
InChI=1S/C7H9NO/c1-6-5-8-4-2-3-7(6)9/h2-3,5,8H,4H2,1H3	InChI=1S/C7H9NO/c1-6-5-8-4-2-3-7(6)9/h2-3,5,8H,4H2,1H3
