14
gdb 129499	2.88967	1.72115	1.07934	1.5723	65.15	-0.2281	-0.0125	0.2156	1020.375	0.10349	-466.263029	-466.255085	-466.254141	-466.295518	29.413	
N	-0.0961104047	 1.3227111706	-0.0055800767	-0.563116
C	 0.0757417954	-0.0138923206	-0.0096281347	 0.524543
O	 1.1442102649	-0.6015305898	 0.0048299325	-0.405808
N	-1.1416436248	-0.7232819636	-0.0331058219	-0.114171
N	-2.3774856822	-0.0965241429	 0.0099082288	-0.283043
C	-3.1943177593	-1.1229863345	 0.0363435547	 0.048643
N	-2.6214388224	-2.3619466879	 0.0149102263	-0.363099
C	-1.3290731156	-2.0859076016	-0.0309369952	 0.491217
N	-0.3119649802	-2.967158101	-0.1117624182	-0.595672
H	 0.7191765163	 1.9077184194	 0.0305414805	 0.275679
H	-1.0275755463	 1.7058909927	 0.0039476953	 0.289437
H	-4.2653670007	-0.9837003589	 0.07341238	 0.13151
H	-0.524814476	-3.9264141665	 0.1013923707	 0.272867
H	 0.6189008256	-2.6019972853	 0.0310932179	 0.291013
92.7536	131.9858	225.9432	238.4137	314.4583	346.1753	370.8526	450.5319	526.7196	559.6718	602.8386	656.2147	693.1578	748.9428	768.8045	775.0323	930.7542	970.0302	1065.411	1093.5603	1172.7151	1221.014	1242.733	1306.6339	1414.8857	1435.5734	1529.3491	1577.1987	1592.4354	1668.8366	1810.7866	3251.1767	3565.098	3602.3257	3720.5126	3753.1406
NC(=O)N1N=CN=C1N	NC(=O)n1ncnc1N	
InChI=1S/C3H5N5O/c4-2-6-1-7-8(2)3(5)9/h1H,(H2,5,9)(H2,4,6,7)	InChI=1S/C3H5N5O/c4-2-6-1-7-8(2)3(5)9/h1H,(H2,5,9)(H2,4,6,7)
