20
gdb 80794	1.87905	1.66259	1.20518	4.2387	84.99	-0.2985	0.0264	0.3249	1158.5349	0.171324	-365.986518	-365.97772	-365.976776	-366.019709	33.679	
C	-0.1173627647	 1.6455205126	 0.1767511167	-0.44766
C	 0.0092102555	 0.1316103386	 0.1146003169	 0.01565
C	 1.1411894422	-0.5858827198	-0.6955786581	-0.100664
C	 2.143436123	-0.1643866754	 0.4192064623	-0.271377
C	 0.8674176184	-0.6672227354	 1.1645578336	 0.213676
C	 0.6541020818	-0.7323574708	 2.5882490169	 0.149233
N	 0.4696493873	-0.7872096717	 3.7292405988	-0.356586
C	 0.8755571041	-1.8748560342	 0.154542551	 0.020056
C	-0.3311747816	-2.7764514668	-0.0460792447	-0.452456
H	 0.8321646211	 2.1676398097	 0.3112797627	 0.124179
H	-0.570903127	 2.0173111388	-0.7484832934	 0.124216
H	-0.775919491	 1.9352992766	 1.0024092568	 0.134941
H	-0.9826832631	-0.2972920531	-0.0359637671	 0.07935
H	 1.3061475456	-0.5379939557	-1.7719986942	 0.080898
H	 3.0341072744	-0.7857177339	 0.5361528004	 0.107365
H	 2.3860749527	 0.8922012061	 0.5153527696	 0.110195
H	 1.7729785278	-2.4912177289	 0.272231728	 0.080167
H	-1.2716703249	-2.2417159916	-0.1937962585	 0.127182
H	-0.1731354192	-3.4149301763	-0.9219354737	 0.125426
H	-0.4565469625	-3.4346163387	 0.820097276	 0.136208
113.9051	136.6146	161.4484	177.9843	256.646	260.9194	322.8281	395.607	515.5648	520.6184	546.5917	571.6508	621.1594	757.9281	772.2055	811.6037	852.0741	918.637	951.1181	1012.9507	1022.4229	1045.1147	1064.0257	1097.6296	1114.0341	1143.7644	1158.6743	1170.9877	1185.7905	1218.9898	1235.3487	1240.7925	1262.5143	1400.4891	1415.0384	1424.4943	1429.9333	1494.2724	1496.1111	1496.5163	1502.5758	1533.8696	2343.8686	3039.418	3039.8966	3050.7042	3079.2123	3093.319	3097.3105	3098.5699	3117.4346	3123.1763	3129.651	3158.4852
CC1C2CC1(C#N)C2C	C[C@H]1[C@H]2C[C@]1(C#N)[C@H]2C	
InChI=1S/C8H11N/c1-5-7-3-8(5,4-9)6(7)2/h5-7H,3H2,1-2H3	InChI=1S/C8H11N/c1-5-7-3-8(5,4-9)6(7)2/h5-7H,3H2,1-2H3/t5-,6-,7-,8-/m0/s1
