17
gdb 33420	2.85588	1.04899	0.81131	4.4179	78.56	-0.2531	0.009	0.2621	1381.1383	0.13494	-380.813356	-380.80413	-380.803186	-380.848088	33.163	
C	-0.1257537836	-1.1802158057	 0.0696857558	-0.409366
C	-0.0867671655	 0.017799573	 0.0110005898	 0.314467
C	 0.001960643	 1.4777241284	-0.0379541722	-0.322745
C	 1.4721346772	 1.971845319	 0.1370265584	-0.232151
C	 1.5793216789	 3.4588894649	 0.3835462201	 0.016779
C	 2.7591250386	 4.2130864374	-0.110317905	-0.24959
N	 1.4327756221	 4.4405964924	-0.7007774995	-0.302192
C	-0.5739519791	 1.986639292	-1.2947177498	 0.305243
N	-0.9962437486	 2.3909977883	-2.2909814046	-0.326345
H	-0.174553457	-2.2404693636	 0.1164338587	 0.210846
H	-0.5957722137	 1.8962054099	 0.7836236272	 0.160819
H	 1.8911011555	 1.4251932863	 0.9883220504	 0.13051
H	 2.0458065684	 1.679931788	-0.7487122672	 0.124377
H	 1.1198590627	 3.7880575472	 1.3153907916	 0.096363
H	 3.1554193025	 5.0437893135	 0.4663982744	 0.123705
H	 3.5035298981	 3.666034019	-0.6842574679	 0.114619
H	 1.3502515805	 3.97467362	-1.6009863104	 0.244659
57.139	88.5621	128.3208	134.0042	207.6877	239.7234	355.0902	372.9884	417.1401	490.4602	576.6254	588.1655	651.6071	670.0907	793.8358	815.8069	842.1588	932.3726	940.8058	976.9346	1020.764	1037.1167	1071.037	1124.9262	1147.6738	1170.3892	1238.8287	1265.9667	1277.118	1303.8356	1332.3909	1350.2561	1428.9248	1475.2911	1514.3925	2248.8859	2362.6075	3019.7656	3047.8938	3091.3642	3106.4272	3112.1567	3191.6794	3502.2106	3510.2176
C#CC(CC1CN1)C#N	C#C[C@@H](C[C@H]1CN1)C#N	
InChI=1S/C7H8N2/c1-2-6(4-8)3-7-5-9-7/h1,6-7,9H,3,5H2	InChI=1S/C7H8N2/c1-2-6(4-8)3-7-5-9-7/h1,6-7,9H,3,5H2/t6-,7-/m0/s1
