21
gdb 121252	3.07204	0.79837	0.67845	0.8418	75.39	-0.2433	0.0682	0.3115	1664.5935	0.181089	-461.326378	-461.316026	-461.315082	-461.362916	36.201	
O	 0.1820294373	 1.3961865301	-0.1660312206	-0.424707
C	 0.0531833712	 0.0360801356	 0.223140352	-0.078772
C	-1.2697266503	-0.4810827036	-0.3313256312	-0.195139
C	-1.4969651942	-1.9400323637	 0.0236800268	 0.11785
O	-1.5985453849	-2.1621274368	 1.4524727952	-0.298169
C	-2.7691081073	-2.9913229286	 1.282388022	-0.072644
C	-2.8711671124	-2.622647423	-0.2113899331	-0.048278
C	-4.0518883291	-1.7401236999	-0.5724779356	-0.096973
O	-5.2072779327	-2.5668326323	-0.5268462021	-0.426076
H	 0.9742622932	 1.7510605054	 0.2473316366	 0.285474
H	 0.8844603742	-0.5718194348	-0.1713472379	 0.08186
H	 0.0536979422	-0.074309023	 1.316825922	 0.110735
H	-2.0772670894	 0.1431499207	 0.0638429906	 0.107942
H	-1.266430167	-0.3671816075	-1.4226483974	 0.105167
H	-0.6741407037	-2.5446437427	-0.3901581386	 0.068639
H	-2.5539515577	-4.0479017524	 1.4861502369	 0.097991
H	-3.6027355191	-2.6681655436	 1.9159370937	 0.107616
H	-2.8464289158	-3.4712566087	-0.89881113	 0.083962
H	-4.1355538996	-0.9061390896	 0.1409861006	 0.094903
H	-3.9090661694	-1.3053387997	-1.5745694071	 0.090349
H	-5.9788260554	-2.0159486518	-0.687768493	 0.28827
56.9446	79.3112	93.9042	107.8044	120.2705	217.4986	261.9215	267.4215	295.1803	346.9726	396.9548	499.1799	528.953	776.9541	829.3926	851.4041	884.5516	921.8053	953.8203	1014.5086	1020.6674	1065.9071	1069.5929	1084.4371	1110.004	1147.8514	1157.8753	1170.3371	1209.6639	1218.6072	1246.0143	1266.3008	1281.5532	1293.979	1313.3442	1322.9582	1356.2774	1375.2164	1411.7442	1459.5441	1464.0407	1479.1247	1518.3261	1529.755	1531.3675	2960.8419	2970.0059	2970.7061	3002.3739	3016.2814	3017.6077	3037.0523	3063.9575	3086.7237	3092.0655	3830.8046	3831.0207
OCCC1OCC1CO	OCC[C@H]1OC[C@H]1CO	
InChI=1S/C6H12O3/c7-2-1-6-5(3-8)4-9-6/h5-8H,1-4H2	InChI=1S/C6H12O3/c7-2-1-6-5(3-8)4-9-6/h5-8H,1-4H2/t5-,6-/m1/s1
