16
gdb 33608	5.03495	1.2836	1.2708	4.6668	78.1	-0.257	0.0179	0.2749	1003.1046	0.126822	-363.557658	-363.551348	-363.550404	-363.588297	25.898	
N	 0.1414139389	-1.1571816317	 0.1154247097	-0.364824
C	 0.0604408831	-0.0025498787	 0.0594503338	 0.116
C	-0.0516234611	 1.4048945966	-0.0220392923	 0.294644
C	-0.0459315939	 2.485031025	 1.0564230372	-0.127806
C	 1.0059575503	 2.5053677552	-0.0392116795	-0.127793
C	 0.2736218714	 3.3417993747	-1.1161928259	-0.052158
C	-0.4721796877	 4.4751093954	-0.3686245257	-0.246912
C	-1.1674030096	 3.3137806119	 0.3846393956	-0.05214
C	-0.9443124321	 2.3748513666	-0.8611715298	-0.127483
H	 0.1880728421	 2.3610110092	 2.1046178734	 0.111739
H	 2.0649648429	 2.3972823155	 0.1496577432	 0.111741
H	 0.7497620032	 3.4744202457	-2.0855860821	 0.081142
H	 0.1131872869	 5.1981700339	 0.2069205852	 0.102377
H	-1.1697416571	 5.0001471701	-1.0285561018	 0.107982
H	-2.118852879	 3.4186282049	 0.902106422	 0.081145
H	-1.7005071084	 2.1061923956	-1.5922531329	 0.092344
139.9861	153.1685	399.0116	473.9063	491.9393	545.2266	599.8715	708.1606	765.2901	792.9419	824.3408	838.3997	854.496	877.3101	893.4958	939.1893	941.165	991.9875	1006.056	1025.8972	1034.098	1062.7505	1098.4743	1116.2872	1172.1685	1179.1253	1190.9561	1224.6229	1230.1404	1248.5502	1274.3982	1300.3413	1408.9011	1489.4941	2337.576	3050.1126	3107.5125	3137.8022	3138.3865	3171.0182	3212.2404	3221.546
N#CC12C3C1C1CC3C21	N#C[C@@]12[C@H]3[C@@H]1[C@@H]1C[C@H]3[C@H]21	
InChI=1S/C8H7N/c9-2-8-5-3-1-4(5)7(8)6(3)8/h3-7H,1H2	InChI=1S/C8H7N/c9-2-8-5-3-1-4(5)7(8)6(3)8/h3-7H,1H2/t3-,4+,5-,6+,7-,8+
