20
gdb 56907	2.44535	1.10396	0.9326	2.4778	79.74	-0.2769	0.0292	0.3061	1362.738	0.167932	-403.160947	-403.150635	-403.149691	-403.196503	37.095	
C	-0.0176179566	 1.4227762135	-0.3050027163	-0.396801
C	 0.0823491925	-0.0141841697	 0.2463325685	-0.177997
C	 0.732513391	-0.0387429739	 1.5610367782	 0.265042
N	 1.2296749336	-0.0583703669	 2.6042376046	-0.320429
C	-1.299712905	-0.6519105612	 0.3471249874	 0.017773
O	-1.9029751464	-1.0289999914	-0.8870592851	-0.299952
C	-1.6119334984	-2.0673619631	 0.0778167423	 0.392073
C	-0.5574892081	-3.0701731311	-0.3368261976	-0.461815
C	-2.8381859925	-2.6688436241	 0.7312447145	-0.452129
H	 0.9730597514	 1.870884768	-0.4098948341	 0.137095
H	-0.5007927464	 1.3932083867	-1.2844509921	 0.146766
H	-0.6122635751	 2.0545400867	 0.3606427552	 0.137542
H	 0.6969395742	-0.6071993439	-0.4372636918	 0.129067
H	-1.9638193444	-0.1145935417	 1.028481062	 0.099842
H	 0.2578576556	-2.6071969752	-0.8946024186	 0.12825
H	-0.1399376622	-3.5740008133	 0.5410428644	 0.136072
H	-1.0063900387	-3.8349063964	-0.9793443149	 0.131085
H	-3.3160817322	-3.3858023437	 0.0552636695	 0.12849
H	-2.5649710678	-3.2016799123	 1.6480258281	 0.130116
H	-3.5678520546	-1.8952027171	 0.9812596358	 0.129909
43.7183	97.1638	143.384	177.2828	192.3303	213.1767	230.8731	280.2173	314.0195	370.1203	410.0354	443.6802	504.4778	536.4668	583.8192	710.4521	810.6585	852.9684	938.0677	945.4101	950.6118	1005.6082	1053.3338	1077.9685	1090.2173	1144.0526	1148.1777	1166.4662	1263.6497	1280.5337	1318.139	1355.9034	1406.3166	1411.477	1422.5284	1462.165	1473.034	1486.1541	1495.5002	1497.495	1502.0463	1520.6544	2357.1074	3037.2402	3043.822	3051.4849	3070.1777	3084.1987	3101.0393	3106.2296	3126.9543	3129.4949	3137.4241	3137.9835
CC(C#N)C1OC1(C)C	C[C@@H](C#N)[C@H]1OC1(C)C	
InChI=1S/C7H11NO/c1-5(4-8)6-7(2,3)9-6/h5-6H,1-3H3	InChI=1S/C7H11NO/c1-5(4-8)6-7(2,3)9-6/h5-6H,1-3H3/t5-,6+/m0/s1
