20
gdb 68872	2.36035	1.88672	1.53961	2.1382	77.39	-0.2425	0.0772	0.3196	984.1385	0.171533	-403.10143	-403.09338	-403.092436	-403.1335	32.073	
C	-0.0238584855	 1.4898558346	-0.0287274474	-0.483166
C	-0.0217920825	-0.0096195888	 0.06127066	 0.279994
N	 1.2103178093	-0.7504773774	-0.236656642	-0.42345
C	 0.6035580344	-0.8874370015	 1.0933043908	 0.279998
C	 1.3937000806	-0.5000071243	 2.3107211386	-0.483165
C	-0.5292720339	-1.958815147	 1.1946709466	-0.000915
C	-1.8016104839	-1.077813538	 1.310027407	-0.227478
C	-1.3437424587	-0.8155380144	-0.1493902766	-0.000914
O	-0.8810060541	-2.1982770025	-0.2009283157	-0.289736
H	 0.9174095439	 1.9015102595	 0.3437532093	 0.132323
H	-0.1406894676	 1.8191847189	-1.0678170753	 0.12319
H	-0.8453126782	 1.9241588767	 0.5526821715	 0.113651
H	 0.9872150679	-1.5714315357	-0.7997148414	 0.237983
H	 1.991257465	 0.3940315545	 2.1162786884	 0.13232
H	 0.7378875358	-0.298404527	 3.1655367454	 0.11365
H	 2.0827447989	-1.30164156	 2.6012598803	 0.123192
H	-0.3561953444	-2.8660488067	 1.774248893	 0.081738
H	-2.7227048995	-1.6607828493	 1.3723202707	 0.108028
H	-1.8000977102	-0.2446299257	 2.0178298046	 0.10102
H	-2.0147696174	-0.537908476	-0.9627677079	 0.081736
148.751	160.4794	196.1255	213.983	256.5298	324.4173	462.3094	514.4093	523.5907	563.0297	597.8133	715.2387	738.7955	791.789	851.3627	873.7866	878.9611	922.4135	924.5009	952.9527	1028.8644	1051.136	1058.4509	1090.2022	1110.6762	1118.9493	1154.5212	1161.8444	1184.1516	1232.3346	1236.0078	1249.3881	1274.4931	1300.4416	1347.6281	1414.6522	1416.1624	1457.8287	1479.581	1485.7009	1490.7702	1493.462	1500.3983	3026.4981	3028.2782	3060.1206	3083.3411	3084.2681	3115.9816	3118.3791	3119.1258	3120.2642	3132.1259	3457.1788
CC12NC1(C)C1CC2O1	C[C@@]12N[C@]1(C)[C@H]1C[C@@H]2O1	
InChI=1S/C7H11NO/c1-6-4-3-5(9-4)7(6,2)8-6/h4-5,8H,3H2,1-2H3	InChI=1S/C7H11NO/c1-6-4-3-5(9-4)7(6,2)8-6/h4-5,8H,3H2,1-2H3/t4-,5+,6-,7+
