23
gdb 96334	1.974	1.45577	0.90733	1.072	81.63	-0.2416	0.074	0.3155	1340.2978	0.206405	-425.428726	-425.419185	-425.41824	-425.463037	36.441	
C	 0.084240812	 1.592533526	 0.0092762277	-0.402671
C	-0.020473767	 0.0595419425	 0.0256929184	-0.015518
C	 0.6237768506	-0.5032943882	-1.2568895846	-0.053136
O	 0.146762502	-1.7501083237	-1.7294452938	-0.263821
C	-0.067603131	-2.8116922073	-0.8168098208	-0.059226
C	 0.8694895695	-2.8944915646	 0.3923884099	-0.24609
C	 0.4572873904	-1.9864076289	 1.5597889674	 0.107126
O	 1.2243188807	-2.2638598932	 2.7277702074	-0.437182
C	 0.6405309336	-0.4924909113	 1.2989874029	-0.167842
H	 1.1314661134	 1.9131575715	-0.0487953806	 0.117414
H	-0.4427669997	 2.0175216404	-0.850721612	 0.114417
H	-0.3427738615	 2.0279949765	 0.9177905701	 0.115485
H	-1.0858921655	-0.2089355042	 0.0140225444	 0.080228
H	 0.436306536	 0.1819435317	-2.0903699628	 0.099989
H	 1.7175832926	-0.5344906316	-1.1129695047	 0.083364
H	-1.1084980723	-2.7883847798	-0.4500449552	 0.08468
H	 0.0315390653	-3.721449976	-1.4187369265	 0.104221
H	 0.8385163033	-3.9327679988	 0.7509137424	 0.084116
H	 1.9077615649	-2.6991662451	 0.1004073053	 0.113017
H	-0.6127338313	-2.1755025329	 1.7603155072	 0.061098
H	 1.1087416274	-3.1939367806	 2.9468789293	 0.278096
H	 1.7196222618	-0.2901464458	 1.2557560891	 0.101919
H	 0.2632921248	 0.0427375835	 2.1774379793	 0.100316
55.7347	133.7692	170.0491	220.6569	242.6089	287.6627	297.9816	323.8808	363.46	383.0964	449.9964	468.5521	504.7051	589.388	808.1834	842.0495	857.8179	896.6093	950.974	965.9773	980.547	1017.5618	1043.2892	1062.2493	1082.7745	1119.7318	1142.6807	1149.6941	1174.2125	1207.3835	1239.1237	1286.0199	1291.2789	1314.0702	1325.7644	1341.8762	1347.937	1376.559	1398.8498	1405.7267	1422.1867	1434.9281	1440.8188	1475.6649	1487.1753	1498.9445	1502.592	1512.5952	1513.9337	2933.127	2950.7539	2955.8638	3011.6716	3013.5175	3021.87	3028.9213	3057.8352	3061.1979	3068.5428	3073.1955	3093.7338	3106.7933	3815.1743
CC1COCCC(O)C1	C[C@H]1COCC[C@@H](O)C1	
InChI=1S/C7H14O2/c1-6-4-7(8)2-3-9-5-6/h6-8H,2-5H2,1H3	InChI=1S/C7H14O2/c1-6-4-7(8)2-3-9-5-6/h6-8H,2-5H2,1H3/t6-,7-/m1/s1
