19
gdb 71840	2.37972	1.85102	1.53388	1.6472	80.29	-0.2169	0.0054	0.2223	987.7528	0.158762	-385.861063	-385.853065	-385.852121	-385.892959	31.888	
C	-0.0189446608	 1.4681212107	-0.0357245463	-0.498168
C	-0.0710995227	-0.0235239842	-0.0332890257	 0.435585
O	 0.7896981339	-0.7161106166	-0.9073025652	-0.33792
C	-0.0654110202	-1.9324648582	-0.7537735387	 0.003202
C	 0.5991637897	-2.7547173073	 0.315237835	-0.114524
C	 0.4683603803	-2.0864534973	 1.4726569964	-0.057263
C	-0.3767851249	-0.8908991757	 1.2668315581	-0.226306
C	-1.14245416	-1.0585910489	-0.0340426231	 0.197657
C	-2.6285181813	-1.0502905577	-0.2214522419	-0.520812
H	 0.978751456	 1.8136519217	 0.2557426149	 0.13734
H	-0.2386175478	 1.8673969871	-1.0313712462	 0.129618
H	-0.7424506735	 1.8808040343	 0.6730889196	 0.122634
H	-0.2715852384	-2.3766192973	-1.7270629909	 0.077442
H	 1.2317642239	-3.610866521	 0.122470554	 0.098882
H	 0.9675843388	-2.317030411	 2.4062147242	 0.10028
H	-0.8376307562	-0.3536131805	 2.0883022026	 0.078869
H	-3.0849882859	-0.2314471343	 0.3443701897	 0.122592
H	-2.9013857971	-0.9201049131	-1.2747058098	 0.123364
H	-3.0779495338	-1.9859224907	 0.1311421533	 0.127527
168.2773	186.2903	196.0828	213.8396	278.7481	297.09	406.4132	490.9138	572.912	593.8239	636.215	682.9627	757.5474	769.5568	803.051	830.1287	881.6368	920.1273	927.9102	941.8572	954.6968	980.6062	1032.3615	1089.2803	1110.5427	1121.7742	1158.1577	1185.1387	1206.2612	1266.1748	1288.5724	1313.1839	1360.3316	1409.4879	1411.2554	1470.2083	1481.4456	1487.7142	1495.1238	1509.9551	1621.5363	3023.3315	3034.0015	3084.6488	3096.5703	3098.2565	3114.3631	3122.7639	3177.711	3199.298	3228.4512
CC12OC3C=CC1C23C	C[C@@]12O[C@H]3C=C[C@@H]1[C@@]23C	
InChI=1S/C8H10O/c1-7-5-3-4-6(7)9-8(5,7)2/h3-6H,1-2H3	InChI=1S/C8H10O/c1-7-5-3-4-6(7)9-8(5,7)2/h3-6H,1-2H3/t5-,6+,7-,8-/m1/s1
