17
gdb 15813	6.19322	1.02048	0.94456	2.3055	66.87	-0.2569	0.003	0.2599	1257.5501	0.141927	-401.011658	-401.003167	-401.002223	-401.045526	29.566	
C	-0.0037765123	 1.4769284695	 0.377786051	-0.391949
C	 0.0055540401	 0.0121847716	-0.0129825899	-0.045906
O	-1.3592298573	-0.4581661765	 0.0252201495	-0.245966
C	-1.546003431	-1.7435875339	-0.3086057372	 0.465439
O	-0.6590321916	-2.5061871917	-0.6199631444	-0.388477
C	-2.986778838	-2.1229386919	-0.2437579359	-0.129178
C	-3.5039045516	-2.9493848339	-1.3784362475	-0.219331
N	-3.2870170587	-3.552088086	-0.0689545561	-0.304797
H	 1.0168355287	 1.8704331133	 0.3619449886	 0.125457
H	-0.6102611425	 2.0631423546	-0.3181722422	 0.131601
H	-0.409096408	 1.6101980063	 1.3846503524	 0.132439
H	 0.4036467162	-0.1434760047	-1.0203890362	 0.124908
H	 0.6046852777	-0.593837887	 0.6735902042	 0.12593
H	-3.6430851843	-1.4280788331	 0.2673919092	 0.110021
H	-4.5424268442	-2.834398323	-1.6743176431	 0.127495
H	-2.8059751193	-3.1767485483	-2.1789181133	 0.133181
H	-2.3955367339	-4.0478435253	-0.0839048591	 0.249132
50.5933	85.5283	143.3786	148.365	252.5272	286.4827	312.3232	353.1828	436.7737	698.2249	772.3049	809.1038	834.6231	869.6684	886.9358	943.1305	988.1328	1023.4625	1055.6088	1117.1925	1133.271	1142.353	1179.3561	1182.8587	1237.8804	1287.8122	1291.3986	1320.0017	1385.2625	1413.4892	1435.5441	1486.5178	1496.655	1496.787	1519.5331	1795.3918	3047.8044	3054.3813	3092.9654	3115.7711	3122.4416	3128.3944	3181.6811	3209.5836	3474.2716
CCOC(=O)C1CN1	CCOC(=O)[C@H]1CN1	
InChI=1S/C5H9NO2/c1-2-8-5(7)4-3-6-4/h4,6H,2-3H2,1H3	InChI=1S/C5H9NO2/c1-2-8-5(7)4-3-6-4/h4,6H,2-3H2,1H3/t4-/m1/s1
