16
gdb 81115	2.57719	1.72898	1.27107	3.6101	75.23	-0.2385	-0.0155	0.223	991.9777	0.126625	-396.887183	-396.879826	-396.878881	-396.918714	29.532	
N	 0.2378523169	 1.4041060089	-0.0530823383	-0.513036
C	 0.0847176502	-0.0008561253	 0.0046221223	 0.050254
C	-0.0446438661	-0.6162188818	 1.4519334381	-0.080532
N	-1.4735077651	-0.1518725071	 1.4073000011	-0.340187
C	-1.4164133191	-0.6683396432	-0.0006944786	 0.170126
C	-1.0360745097	-2.1423458998	 0.1399884149	-0.136088
C	-0.1208167225	-2.1072754566	 1.1167651637	-0.101935
C	-2.4354402094	-0.2588381545	-0.9369614908	 0.148295
N	-3.2165914104	 0.0924907403	-1.714080638	-0.340143
H	 0.2366484125	 1.7580152995	-1.0023143686	 0.245254
H	-0.4806145512	 1.8726318837	 0.488559748	 0.252541
H	 0.7796863201	-0.5026842983	-0.6687203779	 0.096014
H	 0.5747843993	-0.2665553991	 2.2760257136	 0.086938
H	-2.0869061007	-0.7256646799	 1.9890286512	 0.214815
H	-1.388313703	-2.9541908064	-0.4787826899	 0.127718
H	 0.4868614582	-2.9002605302	 1.527191689	 0.119966
122.386	166.3387	277.447	309.5523	386.5016	478.5587	494.5878	522.5648	547.9993	557.6351	639.1003	696.9996	722.9668	789.3687	850.0096	861.1129	878.1631	900.6753	923.8344	980.3743	1018.4969	1073.6449	1078.7505	1155.4768	1184.4001	1212.375	1228.0075	1256.7053	1291.3739	1307.4685	1328.3608	1422.8895	1598.859	1645.1252	2351.2417	3123.2175	3141.012	3233.9943	3259.68	3437.5207	3517.6046	3609.3894
NC1C2NC1(C=C2)C#N	N[C@H]1[C@H]2N[C@@]1(C=C2)C#N	
InChI=1S/C6H7N3/c7-3-6-2-1-4(9-6)5(6)8/h1-2,4-5,9H,8H2	InChI=1S/C6H7N3/c7-3-6-2-1-4(9-6)5(6)8/h1-2,4-5,9H,8H2/t4-,5-,6-/m0/s1
