24
gdb 6221	3.33017	1.3906	1.30468	0.095	84.67	-0.2963	0.0786	0.3749	1131.5538	0.223655	-314.303423	-314.294262	-314.293318	-314.337109	35.724	
C	-0.3217548947	 1.4797579236	-0.0242359214	-0.407167
C	 0.0477362291	-0.0014996887	 0.0083368387	 0.054976
C	 0.8556791947	-0.4993529528	-1.2010400293	-0.202205
C	 1.3595521194	-1.8800463028	-0.7521432122	-0.25351
C	 1.6076150365	-1.7726291079	 0.7916545695	 0.355433
C	 0.9377453253	-2.94212025	 1.5303654845	-0.431254
C	 3.111276989	-1.7643536904	 1.1087350948	-0.43203
C	 0.9499725961	-0.4121127204	 1.1868524292	-0.24616
H	 0.5771081594	 2.1052671304	-0.0822917589	 0.109684
H	-0.9484595035	 1.7165624186	-0.8909873501	 0.109149
H	-0.8738561047	 1.7753291007	 0.8745473686	 0.109844
H	-0.8797215813	-0.5910634309	 0.0584142893	 0.066601
H	 0.2737115827	-0.5337370184	-2.1276900617	 0.087345
H	 1.7002691918	 0.1814234621	-1.3755444948	 0.089627
H	 0.5888138342	-2.6335950387	-0.9518167723	 0.089864
H	 2.2577615385	-2.2005020476	-1.289141595	 0.088023
H	 1.3189479674	-3.90537218	 1.1721113918	 0.107415
H	 1.1247672742	-2.8899801264	 2.6091014374	 0.106562
H	-0.1474327934	-2.9385479545	 1.3787058182	 0.107088
H	 3.6305481768	-0.980951936	 0.5454116651	 0.106716
H	 3.2903635905	-1.5806864645	 2.17453166	 0.107332
H	 3.5756691337	-2.7237157868	 0.8531415047	 0.106561
H	 1.726730423	 0.3526462595	 1.3191364813	 0.084433
H	 0.4060288753	-0.4748254678	 2.1352943326	 0.085672
29.9506	157.8387	233.7043	252.9692	253.5443	289.9596	320.4235	334.6395	400.277	417.3771	439.1316	519.3045	566.7766	737.1772	819.7313	867.753	873.212	908.836	938.235	949.0102	957.0201	972.9198	1007.2281	1015.8584	1053.5086	1088.5727	1114.9875	1149.7236	1198.3782	1222.442	1251.6759	1261.6454	1279.219	1303.7408	1331.2182	1344.2794	1355.0462	1387.7376	1397.8039	1411.1593	1420.5145	1484.1499	1485.4684	1486.7307	1494.9851	1497.2704	1500.0028	1503.7928	1506.9542	1508.0178	2990.076	3013.6305	3015.6611	3017.7935	3021.2573	3025.4103	3033.3505	3068.4137	3072.185	3079.5256	3084.7105	3087.4022	3088.9344	3089.9969	3090.4025	3092.5921
CC1CCC(C)(C)C1	C[C@H]1CCC(C)(C)C1	
InChI=1S/C8H16/c1-7-4-5-8(2,3)6-7/h7H,4-6H2,1-3H3	InChI=1S/C8H16/c1-7-4-5-8(2,3)6-7/h7H,4-6H2,1-3H3/t7-/m0/s1
