15
gdb 34835	3.63564	1.19596	1.00379	4.2636	77.87	-0.2582	-0.0095	0.2487	1146.8514	0.112648	-379.559082	-379.551523	-379.550579	-379.591161	28.998	
C	-0.0230766132	-1.3037867961	-0.0677874762	-0.392645
C	-0.0097189368	-0.1034194344	-0.0027636209	 0.314708
C	-0.0427341104	 1.3392706677	 0.0514124817	-0.180528
C	 0.0086818416	 2.0918801982	 1.4127686503	-0.072617
C	 1.4852875413	 1.6533618964	 1.4606486086	-0.188913
N	 1.3331507076	 2.0872189535	-0.0163892344	-0.147069
C	 0.5553131636	 3.2847160052	 0.5879259563	-0.117612
C	-0.3149626834	 4.0281443759	-0.3122642182	 0.292385
N	-1.0087197405	 4.6462588883	-1.0000189041	-0.32616
H	-0.029209106	-2.3643950772	-0.1290050532	 0.205308
H	-0.7458001949	 1.7336816928	-0.6867814949	 0.135379
H	-0.7456375008	 2.1112128361	 2.2040011478	 0.09672
H	 2.1892393215	 2.2723745803	 2.021124908	 0.114069
H	 1.6972835475	 0.591289227	 1.5728653772	 0.137928
H	 1.2175849728	 3.9759990862	 1.113421322	 0.129048
116.7326	146.4789	195.3493	203.5664	404.5686	464.2479	485.1908	519.5429	538.3802	613.196	642.6132	666.2081	759.2766	809.3054	840.7879	872.0519	912.9589	927.906	1026.6174	1055.9456	1084.7148	1118.8712	1128.0141	1141.1491	1164.1479	1223.1027	1232.46	1254.9214	1381.9797	1399.3951	1531.6822	2236.0889	2354.7086	3070.3755	3080.2269	3084.1903	3097.16	3162.2653	3500.4185
C#CC1C2CN1C2C#N	C#C[C@H]1[C@H]2CN1[C@H]2C#N	
InChI=1S/C7H6N2/c1-2-6-5-4-9(6)7(5)3-8/h1,5-7H,4H2	InChI=1S/C7H6N2/c1-2-6-5-4-9(6)7(5)3-8/h1,5-7H,4H2/t5-,6+,7+/m1/s1
