23
gdb 79240	2.31568	1.6029	1.36011	0.4576	89.7	-0.2306	0.0858	0.3164	1128.9105	0.205035	-351.124767	-351.115543	-351.114599	-351.157855	36.283	
C	 0.0035567464	 1.603127385	 0.0206445821	-0.428885
C	 0.0894389972	 0.0809500318	 0.0440886157	 0.003452
C	 1.1130669711	-0.6701309563	-0.8037529874	-0.133505
C	 2.4049976026	-0.8047583693	 0.0272783606	-0.118682
C	 2.1575732697	-0.1413719772	 1.3774056801	-0.279492
C	 0.7029750719	-0.683534279	 1.2662137104	 0.260244
C	-0.1212561095	-0.9591710435	 2.49707739	-0.508009
C	 1.2557255003	-1.765460944	 0.2239034281	 0.312091
C	 1.1446869997	-3.2523975643	 0.1451468981	-0.529269
H	 0.9838224483	 2.0739986044	 0.1348450143	 0.11763
H	-0.4153883503	 1.9493340371	-0.9310017498	 0.111102
H	-0.6473556232	 1.9768688623	 0.8198031319	 0.109471
H	-0.9044891077	-0.3434875214	-0.1482755931	 0.061086
H	 1.1383548519	-0.7765575948	-1.8822735659	 0.072464
H	 3.3531562656	-1.0071295939	-0.4562099995	 0.075981
H	 2.702826602	-0.6578918144	 2.1741047426	 0.090111
H	 2.3016900525	 0.9393714636	 1.4884447449	 0.083068
H	-0.3648731756	-0.0270038156	 3.0216644544	 0.11814
H	-1.0667881624	-1.4529645249	 2.2455584185	 0.11329
H	 0.4144017659	-1.6024376423	 3.2042878851	 0.113454
H	 0.1006291339	-3.5798405219	 0.0705225128	 0.117697
H	 1.671435486	-3.6319042906	-0.7377352157	 0.120985
H	 1.5816131638	-3.741946851	 1.0238913817	 0.117578
146.817	178.117	182.4139	195.3433	204.7938	206.3856	306.0263	317.4953	363.0191	489.7233	543.7228	596.2254	648.2912	682.3352	747.7598	775.6724	852.1669	869.5382	891.5834	929.2153	970.5796	986.0247	1002.2004	1010.5021	1045.2393	1067.4506	1093.1577	1110.2325	1126.6498	1149.7447	1168.1238	1191.1993	1218.8932	1245.0709	1247.0347	1298.8336	1332.6895	1392.2751	1402.9246	1410.8708	1413.2134	1456.2906	1482.8571	1488.1876	1491.4293	1493.4046	1494.6678	1498.9165	1514.636	3014.6504	3017.317	3019.5824	3026.4748	3032.3466	3070.5137	3078.3001	3080.1953	3084.3878	3085.7219	3087.2825	3111.5538	3174.3283	3187.2505
CC1C2C3CC1(C)C23C	C[C@H]1[C@H]2[C@H]3C[C@]1(C)[C@@]23C	
InChI=1S/C9H14/c1-5-7-6-4-8(5,2)9(6,7)3/h5-7H,4H2,1-3H3	InChI=1S/C9H14/c1-5-7-6-4-8(5,2)9(6,7)3/h5-7H,4H2,1-3H3/t5-,6+,7-,8-,9+/m0/s1
