16
gdb 49044	2.18104	1.74978	1.28924	2.5688	70.5	-0.2595	-0.0391	0.2203	1019.0661	0.123781	-437.874069	-437.866049	-437.865105	-437.907635	29.059	
N	 0.0736334324	 1.2052852501	-0.4798118871	-0.549348
C	 0.0174287392	 0.0188220443	-0.0823078655	 0.389714
O	 0.988634302	-0.8251634996	 0.4213904615	-0.272732
C	 0.0356028092	-1.9325051076	 0.5514868296	 0.066373
C	-0.6104766352	-1.9778388891	 1.9489056722	-0.234394
C	-1.7436930375	-1.0234733538	 1.4571779739	-0.29309
C	-1.0888467874	-1.0096774627	 0.0223255854	 0.117795
C	-1.9716826414	-1.2645598576	-1.1580854549	 0.052347
O	-2.1100357246	-2.3484805821	-1.6670197013	-0.245576
H	 1.0168851313	 1.5884590892	-0.4001579416	 0.234616
H	 0.3955141347	-2.8333695183	 0.0593606556	 0.115948
H	-0.9749709433	-2.9708708479	 2.2198868607	 0.124368
H	 0.0315448479	-1.6017105913	 2.7469498242	 0.126859
H	-2.7297467693	-1.4915140829	 1.4561531913	 0.130767
H	-1.8141042459	-0.0445246447	 1.9325617214	 0.132894
H	-2.5159392319	-0.369657196	-1.5290804057	 0.10346
40.0993	117.8413	137.8508	202.9567	238.4466	342.7494	414.8076	579.9029	613.4526	671.2281	718.0443	748.3406	830.2582	862.9827	873.0267	927.5296	931.8851	958.3033	983.0579	1007.9795	1087.0157	1110.4394	1134.6967	1191.1798	1224.8515	1228.7545	1237.3105	1275.1859	1318.8146	1352.5309	1416.3768	1464.747	1486.152	1808.4552	1825.3207	2906.1394	3077.0374	3082.4831	3129.5503	3145.0245	3149.2532	3481.5638
N=C1OC2CCC12C=O	[NH][C]1O[C@H]2CC[C@@]12C=O	
InChI=1S/C6H7NO2/c7-5-6(3-8)2-1-4(6)9-5/h3-4,7H,1-2H2	InChI=1S/C6H7NO2/c7-5-6(3-8)2-1-4(6)9-5/h3-4,7H,1-2H2/t4-,6-/m0/s1
