21
gdb 118416	2.25599	0.79998	0.61169	2.882	85.28	-0.2482	0.0496	0.2978	1861.2914	0.179215	-424.188125	-424.176573	-424.175629	-424.226554	38.929	
C	-0.0546573258	 1.3908261223	-0.0108200046	-0.228097
O	 0.004933362	-0.0154610924	-0.0279823272	-0.233304
C	 0.6323364235	-0.5536701424	 1.1139461796	-0.062712
C	 0.6531408254	-2.0815693022	 0.9713823215	-0.19157
C	 1.4565718298	-2.5229806752	-0.2743444855	-0.049436
O	 1.461160383	-3.9240452459	-0.4410444446	-0.423329
C	 1.2008665323	-2.7092638178	 2.1732008776	 0.030077
C	 1.690321016	-3.2389651674	 3.1392847227	 0.065865
C	 2.2582322417	-3.8686596344	 4.3237575657	-0.499137
H	 0.9498051596	 1.8418954153	 0.0174712685	 0.105904
H	-0.5591146692	 1.7080423711	-0.9265405833	 0.129833
H	-0.6221039577	 1.7641419552	 0.8562843061	 0.10567
H	 1.6627342203	-0.1713952955	 1.212235768	 0.093313
H	 0.089631774	-0.2696915169	 2.0296265266	 0.097223
H	-0.3821658463	-2.4178590067	 0.8291726184	 0.11759
H	 0.990969392	-2.0975077019	-1.1653342577	 0.126353
H	 2.4790340977	-2.117767449	-0.1963686769	 0.082555
H	 1.7900218402	-4.3021532306	 0.3835566458	 0.281171
H	 1.8162608677	-4.8552136525	 4.5011824488	 0.151147
H	 3.3411849429	-4.0020021664	 4.2262513989	 0.149337
H	 2.0791329208	-3.2606489666	 5.2172908516	 0.151547
41.3563	68.1177	74.0848	88.6072	107.3489	144.8668	204.1591	236.8861	256.2029	323.9004	331.7792	350.686	410.3797	458.636	520.6761	592.9034	740.5153	888.6766	964.3413	1008.081	1052.3623	1054.8768	1076.2407	1088.038	1116.2941	1160.9517	1169.7838	1186.4533	1206.7917	1227.3899	1248.6881	1311.8402	1336.615	1380.5064	1412.5051	1414.3899	1425.6434	1478.3967	1479.4355	1480.5642	1485.9121	1502.0537	1509.9094	1526.2351	2362.54	2956.5915	2968.0046	2973.7245	2993.6189	3016.322	3028.544	3033.0707	3089.7174	3090.2498	3115.7385	3116.5034	3777.4081
COCC(CO)C#CC	COC[C@@H](CO)C#CC	
InChI=1S/C7H12O2/c1-3-4-7(5-8)6-9-2/h7-8H,5-6H2,1-2H3	InChI=1S/C7H12O2/c1-3-4-7(5-8)6-9-2/h7-8H,5-6H2,1-2H3/t7-/m1/s1
