18
gdb 46765	2.79609	1.78261	1.17838	3.7361	77.17	-0.2374	0.0078	0.2452	1032.6041	0.151067	-402.006601	-401.99948	-401.998536	-402.038233	28.102	
O	 0.2118686831	 0.0932304103	 0.3710456722	-0.379344
C	 0.0538043422	 1.253778232	 0.0593911591	 0.385316
C	-1.2633659347	 2.0366728462	-0.0140238257	-0.326808
C	-0.827295062	 3.48808039	 0.2636725679	-0.242197
C	 0.609439776	 3.535197802	-0.3150250851	-0.006259
C	 1.699238185	 4.2371221875	 0.458021987	-0.092296
C	 2.6945994642	 3.4001737958	 0.7465227662	-0.075372
C	 2.4258709633	 2.0099988679	 0.2146093002	-0.225559
N	 1.0553060885	 2.1348926173	-0.2741283248	-0.075373
H	-1.6941916065	 1.9268386522	-1.0162750999	 0.126841
H	-1.9794366214	 1.6317381732	 0.7021728913	 0.130036
H	-1.4832384049	 4.2387500617	-0.1825455024	 0.105552
H	-0.7928986316	 3.6667520809	 1.3434422854	 0.113609
H	 0.5750665494	 3.907800749	-1.3518361848	 0.08803
H	 1.6591743701	 5.2928141113	 0.6964464814	 0.10714
H	 3.6091204502	 3.6522005204	 1.269311802	 0.108152
H	 3.1299549979	 1.739345416	-0.5855518176	 0.118976
H	 2.4753552114	 1.2166828164	 0.9694389379	 0.139558
107.4572	161.8134	209.767	291.9391	399.4704	490.6116	551.4669	595.1055	624.845	666.6921	712.8019	780.9493	811.9349	868.1786	942.3134	945.1508	963.6567	976.8939	1009.3323	1048.9182	1061.1186	1066.6873	1129.7942	1159.2439	1180.2498	1209.4988	1232.0769	1294.4078	1303.6936	1308.5978	1330.9993	1355.0933	1364.8036	1398.1992	1471.7087	1499.7572	1511.7328	1676.6437	1813.1353	2959.4384	2999.5138	3046.961	3053.5979	3061.1675	3108.6141	3129.0762	3201.0733	3224.7438
O=C1CCC2C=CCN12	O=C1CC[C@H]2C=CCN12	
InChI=1S/C7H9NO/c9-7-4-3-6-2-1-5-8(6)7/h1-2,6H,3-5H2	InChI=1S/C7H9NO/c9-7-4-3-6-2-1-5-8(6)7/h1-2,6H,3-5H2/t6-/m1/s1
