17
gdb 80728	3.57495	1.06621	0.99919	4.5076	71.89	-0.241	0.0311	0.2721	1207.8332	0.137068	-417.965922	-417.957925	-417.956981	-417.998933	30.518	
O	 0.0962550109	 1.4046332727	 0.1839736485	-0.434344
C	 0.0047955909	 0.0201740394	 0.0651030575	 0.150928
C	-0.4776867653	-0.8164275735	 1.1961019219	-0.081849
N	-1.4698026868	 0.0201837178	 1.9141252252	-0.360712
C	-2.4109807145	-0.1154529643	 0.7524583831	 0.030919
C	-3.0634515652	 1.1880965646	 0.2636093674	-0.349713
C	-3.978930215	 1.7428589386	 1.2571427868	 0.255637
N	-4.699552828	 2.1516998913	 2.0629278718	-0.30893
C	-1.3031163104	-0.7407716156	-0.0988741011	-0.176975
H	-0.2366869599	 1.6031117066	 1.0740595293	 0.29542
H	 0.8175870624	-0.3975991164	-0.5220645522	 0.111824
H	 0.0551001285	-1.6266821641	 1.6792045301	 0.104543
H	-1.8318389365	-0.4144518617	 2.7540822393	 0.240883
H	-3.1899877357	-0.854267432	 0.9676064778	 0.100905
H	-2.2866124116	 1.9182520417	 0.0232026742	 0.170731
H	-3.6210516627	 0.9879256485	-0.6588979201	 0.150579
H	-1.4608243311	-1.4661952936	-0.8868550396	 0.100152
63.1902	109.4715	180.9739	253.0114	317.0927	391.6717	410.4519	498.8428	546.4671	575.6632	653.2459	729.3977	758.3767	807.2772	820.3763	887.3683	938.7284	952.3665	976.3545	998.3128	1036.4191	1045.6931	1055.1192	1093.2129	1113.7833	1186.6995	1196.3375	1241.6142	1271.2494	1291.7163	1329.0209	1358.8036	1389.6938	1399.1741	1460.4449	1471.3711	2360.676	3048.1331	3052.3717	3113.3627	3159.4835	3180.8235	3194.454	3559.3139	3688.3315
OC1C2NC(CC#N)C12	O[C@H]1[C@H]2N[C@@H](CC#N)[C@@H]12	
InChI=1S/C6H8N2O/c7-2-1-3-4-5(8-3)6(4)9/h3-6,8-9H,1H2	InChI=1S/C6H8N2O/c7-2-1-3-4-5(8-3)6(4)9/h3-6,8-9H,1H2/t3-,4+,5-,6+/m0/s1
