15
gdb 93483	2.44144	1.63765	1.21192	3.555	63.86	-0.2703	-0.0127	0.2575	1020.0018	0.114043	-491.132049	-491.124019	-491.123075	-491.165196	29.478	
O	-0.048527183	 1.3864578856	-0.0346975621	-0.428995
C	 0.001728333	-0.0321235489	 0.0109134002	 0.036006
C	-1.4330971446	-0.5341944178	-0.0306782038	-0.17281
N	-1.9829580354	-0.2963029857	-1.3528555327	-0.357654
C	-1.272440697	-0.2298026279	-2.5072030326	 0.475461
O	-1.7218891518	 0.0100131523	-3.592896994	-0.365053
O	 0.0860706421	-0.5123500805	-2.3906803955	-0.251898
C	 0.7514973104	-0.5633684225	-1.1898335992	 0.383667
N	 1.944893614	-0.9641399028	-1.1054716869	-0.501834
H	 0.8577458591	 1.7120774417	-0.0740163141	 0.301098
H	 0.5076212945	-0.3969848798	 0.9110844461	 0.110775
H	-1.4565544219	-1.6003769615	 0.2323063607	 0.127375
H	-2.0240428871	 0.0145343576	 0.7068886068	 0.136789
H	-2.9557136763	-0.0608834369	-1.4581721974	 0.270771
H	 2.297602064	-1.2436864827	-2.0239095255	 0.236303
59.4676	97.1094	185.6119	247.5862	344.7934	371.0199	375.1131	472.5321	499.1673	544.8554	576.2457	702.5052	749.4289	753.6547	881.9718	929.4069	939.0383	941.6947	986.6873	1103.8717	1107.8539	1136.4823	1215.7032	1265.1387	1280.8115	1354.3487	1385.3305	1401.0782	1413.0122	1475.9896	1508.746	1761.3486	1880.7642	3015.9863	3060.2565	3099.5561	3463.2059	3661.5374	3810.3019
OC1CNC(=O)OC1=N	O[C@H]1CNC(=O)O[C]1[NH]	
InChI=1S/C4H6N2O3/c5-3-2(7)1-6-4(8)9-3/h2,5,7H,1H2,(H,6,8)	InChI=1S/C4H6N2O3/c5-3-2(7)1-6-4(8)9-3/h2,5,7H,1H2,(H,6,8)/t2-/m0/s1
