16
gdb 19170	3.53527	1.84888	1.44744	2.8116	65.45	-0.2374	0.0036	0.241	878.7348	0.12982	-383.694039	-383.686574	-383.68563	-383.72537	28.525	
C	-0.3831656244	 1.5367439011	-0.0246254527	-0.444662
C	-0.0448033417	 0.0523359072	 0.055080038	 0.045769
C	 1.1327468584	-0.6016984326	-0.7789910978	-0.22363
C	 2.1480126356	-0.0783651376	 0.2829265865	 0.151206
O	 2.5004744989	 1.2756961131	 0.1908405673	-0.429321
C	 0.917733264	-0.5417993706	 1.1621010796	-0.254336
C	 0.9442798108	-1.7531281278	 0.2232804871	 0.443262
O	 0.8346417522	-2.9398140626	 0.2478611873	-0.322259
H	 0.4909078835	 2.1775018338	 0.0485899549	 0.148861
H	-0.8918695383	 1.7437553475	-0.9727248597	 0.118657
H	-1.0823771643	 1.79372908	 0.7791666585	 0.114974
H	-0.9760961474	-0.518167173	-0.0307338338	 0.091718
H	 1.2578569966	-0.6361911706	-1.8588414014	 0.093904
H	 3.0468948336	-0.6971185314	 0.403298121	 0.088421
H	 3.0270566833	 1.4976365986	 0.9653919917	 0.290492
H	 0.8051594194	-0.5087405451	 2.2441622035	 0.086946
161.9765	171.5754	244.5147	266.2009	281.9927	303.703	393.7596	521.5739	562.4351	667.4378	719.0818	728.9195	764.9647	817.7638	890.8622	990.9207	1032.0855	1045.3192	1068.003	1095.9741	1108.3016	1114.4064	1135.7877	1181.6494	1194.1751	1231.926	1256.7478	1323.1938	1400.7929	1427.6104	1474.6794	1494.9846	1510.4113	1920.1683	3013.4492	3033.7975	3044.2898	3087.9082	3139.6995	3150.847	3191.8606	3818.6147
CC1C2C(O)C1C2=O	C[C@H]1[C@H]2[C@@H](O)[C@@H]1C2=O	
InChI=1S/C6H8O2/c1-2-3-5(7)4(2)6(3)8/h2-5,7H,1H3	InChI=1S/C6H8O2/c1-2-3-5(7)4(2)6(3)8/h2-5,7H,1H3/t2-,3-,4+,5+
