13
gdb 124021	3.79766	1.69129	1.17875	6.5047	66.57	-0.217	-0.0406	0.1764	937.1729	0.091763	-448.912113	-448.905463	-448.904519	-448.943307	24.905	
C	-0.011401434	 1.5080462049	 0.1842338268	-0.277837
N	 1.3156356078	 1.9685081066	-0.2440099031	-0.304654
C	 2.3415205324	 1.1671889158	-0.6699069963	 0.088536
N	 2.3339740162	-0.1168543952	-0.7723653324	-0.344986
C	 1.1204283695	-0.655923023	-0.3904262292	 0.243709
C	 0.0243240691	 0.0252774369	 0.0502040977	 0.364397
O	-0.9614150102	-0.7952597392	 0.3292214982	-0.250962
N	-0.3937697152	-2.1606981426	 0.0174409529	-0.027085
N	 0.7725739843	-1.9886225159	-0.3773818617	-0.161571
H	-0.2207254545	 1.811274016	 1.2218657965	 0.140296
H	-0.8044939051	 1.9474735711	-0.440545309	 0.140291
H	 1.4838743208	 2.9603004026	-0.2221383249	 0.260859
H	 3.240787809	 1.7160809818	-0.9407286756	 0.129007
98.1606	229.43	247.8174	336.9133	428.9686	460.6094	506.9516	582.465	632.7564	655.9017	754.2357	758.5321	923.6261	939.731	948.6226	980.8572	1054.1992	1166.9485	1217.7883	1226.3135	1305.1519	1330.589	1409.3757	1455.0863	1502.076	1525.1717	1539.633	1621.4138	1667.7848	2971.7607	2985.4466	3162.8422	3652.1924
C1NC=NC2=C1ON=N2	C1NC=Nc2c1onn2	
InChI=1S/C4H4N4O/c1-3-4(6-2-5-1)7-8-9-3/h2H,1H2,(H,5,6)	InChI=1S/C4H4N4O/c1-3-4(6-2-5-1)7-8-9-3/h2H,1H2,(H,5,6)
