21
gdb 119785	4.79281	0.87628	0.84383	1.1481	85.55	-0.2123	0.025	0.2372	1472.4751	0.183079	-387.044789	-387.036265	-387.035321	-387.078656	32.27	
C	 0.0275187932	 1.3732168533	-0.0224334668	-0.219646
O	 0.0092040407	-0.0324538498	 0.013857939	-0.227349
C	 0.631458131	-0.6162765342	-1.1063790117	-0.208948
C	 0.5777553119	-2.0973440067	-1.0038272773	 0.341746
C	 0.0644631975	-2.9054047507	-0.0720160044	-0.188071
C	 0.3679830023	-4.3105176806	-0.6163475066	-0.062928
C	 1.8488416998	-4.1140114218	-1.0921880546	-0.203225
C	 1.1536852077	-3.0785416478	-2.0422600585	-0.12531
C	-0.0175274685	-4.1176288731	-2.1237331919	-0.203222
H	 1.0555632554	 1.7698519238	-0.0384340614	 0.102759
H	-0.5038035332	 1.7678385589	-0.903582094	 0.102754
H	-0.4738493091	 1.730188615	 0.8803959267	 0.127299
H	 0.1408806467	-0.2803613203	-2.0408282957	 0.092045
H	 1.6828114618	-0.2770990846	-1.1859335563	 0.09206
H	-0.443762503	-2.6549565573	 0.8464897759	 0.107144
H	 0.0497354639	-5.1770160345	-0.0375014188	 0.05797
H	 2.5644650522	-3.7271353535	-0.3628054159	 0.091116
H	 2.2583225368	-4.9806213341	-1.6218078514	 0.089003
H	 1.6432513251	-2.6745095975	-2.9294592265	 0.054667
H	 0.2156431769	-4.9845680046	-2.7508187401	 0.089002
H	-1.016982279	-3.7340636697	-2.3422571397	 0.091134
67.6011	73.4378	132.7177	195.7643	230.7788	334.997	367.8398	491.8407	539.965	567.1721	691.8687	784.859	824.4124	832.8579	838.9075	865.6907	894.6863	932.2825	990.8694	998.2573	1012.3722	1043.4921	1067.0682	1072.4576	1104.6918	1109.6286	1156.4163	1172.7465	1183.8974	1209.2386	1225.6847	1233.5382	1234.6677	1246.3587	1249.5684	1274.8974	1307.758	1424.613	1476.849	1478.9097	1484.191	1496.8883	1513.8902	1520.0659	1696.7994	2910.5793	2917.438	2966.2748	3008.1745	3038.8006	3048.4617	3105.4692	3111.5275	3113.9208	3116.4342	3120.1812	3251.4997
COCC1=CC2CC1C2	COCC1=C[C@@H]2C[C@H]1C2	
InChI=1S/C8H12O/c1-9-5-8-4-6-2-7(8)3-6/h4,6-7H,2-3,5H2,1H3	InChI=1S/C8H12O/c1-9-5-8-4-6-2-7(8)3-6/h4,6-7H,2-3,5H2,1H3/t6-,7+
