19
gdb 19288	3.40159	1.73711	1.40735	2.6455	70.59	-0.2365	0.0734	0.3099	954.7739	0.166299	-365.018734	-365.010874	-365.00993	-365.050754	30.368	
C	-0.0539634596	 1.5751216153	 0.0241890329	-0.384614
C	 0.1559695514	 0.0584170779	 0.0957994099	-0.187817
C	 0.7261571975	-0.5207289625	-1.1929171724	-0.015072
C	 0.8653683189	-2.0401216157	-1.3312098946	-0.074183
N	-0.5145970643	-2.5950391786	-1.3434295826	-0.357317
C	 0.0835998132	-2.0608928261	-2.5951960386	-0.082482
C	-0.1835055446	-0.5518572681	-2.5035231371	 0.126715
O	-1.5289747054	-0.1771471071	-2.3914373935	-0.431203
H	 0.8874219553	 2.097605112	-0.1823073538	 0.104386
H	-0.7627501031	 1.826296882	-0.7695077967	 0.138389
H	-0.4479457547	 1.9644374071	 0.9682982379	 0.106414
H	 0.8367225723	-0.1860315944	 0.9223060197	 0.087936
H	-0.7921264901	-0.4388551289	 0.3249710281	 0.103059
H	 1.6777924342	-0.0357442027	-1.4395256103	 0.068455
H	 1.6999503351	-2.6638257311	-1.0339883765	 0.092281
H	-0.442194407	-3.6102125684	-1.3774161439	 0.233304
H	 0.1759104497	-2.6855089444	-3.4753192297	 0.092824
H	 0.2490256049	 0.0273430164	-3.3215691134	 0.086422
H	-1.9304115837	-0.8443516927	-1.8171410455	 0.292503
107.2298	133.331	190.2914	236.519	278.1053	320.0625	458.3041	513.0026	573.203	636.8305	673.9671	754.4827	810.7501	841.1809	843.4632	903.1553	927.7029	962.9937	990.3771	1018.5091	1049.2049	1079.9625	1104.0871	1109.324	1145.9983	1157.5874	1183.7495	1237.1608	1260.5284	1288.2154	1319.6515	1327.4524	1331.8785	1380.3255	1393.3757	1408.6818	1448.7197	1491.2213	1500.4943	1514.8157	3019.5334	3031.7634	3039.8348	3073.6974	3096.1613	3097.8972	3121.3424	3180.1759	3194.302	3491.5481	3744.8205
CCC1C2NC2C1O	CC[C@H]1[C@H]2N[C@H]2[C@H]1O	
InChI=1S/C6H11NO/c1-2-3-4-5(7-4)6(3)8/h3-8H,2H2,1H3	InChI=1S/C6H11NO/c1-2-3-4-5(7-4)6(3)8/h3-8H,2H2,1H3/t3-,4+,5+,6-/m0/s1
