19
gdb 33148	4.89965	0.78097	0.71535	3.471	78.92	-0.2132	0.0347	0.2479	1596.0562	0.159654	-419.242919	-419.233435	-419.232491	-419.278301	33.434	
C	 0.0389156702	 1.487582563	 0.056400645	-0.485021
C	-0.0213453234	-0.0025619251	-0.0382936542	 0.278113
C	 0.1356162638	-0.7972851351	-1.1457165627	-0.213762
N	-0.0227618017	-2.1002684858	-0.7122902204	 0.021889
C	 0.1084681432	-3.3054565398	-1.5061282943	-0.171138
C	 1.5690203084	-3.6778661555	-1.7688502304	-0.069455
O	 1.5485505778	-4.8607328406	-2.5453676488	-0.413133
C	-0.2596368328	-2.0258408732	 0.6286635795	-0.006337
N	-0.2693341123	-0.7891955808	 1.0681852447	-0.322381
H	 0.2501702515	 1.9364337317	-0.9181745919	 0.113271
H	-0.9079666289	 1.8982874782	 0.4234014429	 0.132151
H	 0.8189817443	 1.8066208857	 0.7561577519	 0.131208
H	 0.3287639341	-0.5676318609	-2.1812556067	 0.120728
H	-0.3818903177	-4.1267287888	-0.9765516666	 0.132489
H	-0.4095473851	-3.176277351	-2.4613020137	 0.132155
H	 2.070609669	-2.8498662468	-2.2927033406	 0.099459
H	 2.0842878965	-3.821864015	-0.8069328321	 0.102041
H	 2.4554496718	-5.1257528118	-2.7223330726	 0.294788
H	-0.4250779789	-2.9133999683	 1.222972631	 0.122936
55.5661	83.5022	87.0543	105.3322	233.4534	243.9862	270.8718	326.8377	380.1402	402.2194	632.4239	661.2187	685.4977	723.9866	783.1177	804.6105	821.1113	980.4609	1009.1151	1017.1398	1061.3578	1064.3423	1090.2843	1100.671	1188.2543	1211.671	1245.4123	1256.1355	1300.2995	1317.0221	1366.1124	1394.9244	1416.8145	1431.2668	1461.5265	1475.8598	1488.1815	1493.075	1528.6217	1539.5303	1602.4713	2980.3163	3013.0659	3033.2519	3060.5093	3087.3227	3111.7472	3113.6957	3237.1579	3262.4795	3839.0893
CC1=CN(CCO)C=N1	Cc1cn(CCO)cn1	
InChI=1S/C6H10N2O/c1-6-4-8(2-3-9)5-7-6/h4-5,9H,2-3H2,1H3	InChI=1S/C6H10N2O/c1-6-4-8(2-3-9)5-7-6/h4-5,9H,2-3H2,1H3
