18
gdb 35739	2.78473	1.37393	1.16155	4.188	75.26	-0.273	0.0213	0.2943	1109.0193	0.148602	-401.949582	-401.941418	-401.940474	-401.982987	30.573	
N	 0.2551237653	-1.1828138403	 0.4098724713	-0.328434
C	 0.1035893803	-0.0453667357	 0.2731232046	 0.280287
C	-0.1011604112	 1.410319148	 0.0923074022	-0.028102
C	-0.7458032469	 2.0556744088	 1.3345982902	-0.319185
C	 0.487040716	 2.3323837182	 2.177530036	 0.338701
C	 0.4426919653	 2.963997108	 3.5374015294	-0.343249
C	 0.7987153571	 1.5020414031	 3.3975251382	-0.295973
C	 1.5655127728	 2.6637721116	 1.1559022726	-0.132163
O	 1.1380318711	 2.0784234495	-0.0869375008	-0.259721
H	-0.6949860879	 1.5530578012	-0.8160921471	 0.128465
H	-1.2384650536	 2.9850390369	 1.0285455902	 0.117386
H	-1.4804765408	 1.4123198366	 1.8219176101	 0.128219
H	 1.2331524551	 3.6596193009	 3.8010802634	 0.119663
H	-0.5270046041	 3.2203621182	 3.9513208349	 0.119683
H	 0.0700995367	 0.7632436458	 3.7135009413	 0.126183
H	 1.8302605012	 1.2093510524	 3.5625562894	 0.123055
H	 1.6666604864	 3.7451829475	 0.9959088143	 0.108936
H	 2.5465250672	 2.2603829494	 1.4310363897	 0.116248
58.1639	73.7535	183.7104	257.3281	270.505	339.9821	388.3943	454.9971	530.3059	579.4659	755.3352	773.6896	779.4799	834.1336	897.6016	904.8319	932.0215	950.4603	986.4715	1002.4837	1020.508	1062.4651	1078.4943	1084.7969	1105.7065	1187.1578	1189.9984	1215.5373	1255.2219	1293.7152	1319.8102	1347.7375	1366.7024	1412.2156	1468.1903	1483.4458	1506.0157	1525.8665	2353.0055	3014.4091	3047.8114	3060.2315	3067.0651	3121.6644	3126.491	3133.368	3205.6315	3222.4217
N#CC1CC2(CC2)CO1	N#C[C@H]1CC2(CC2)CO1	
InChI=1S/C7H9NO/c8-4-6-3-7(1-2-7)5-9-6/h6H,1-3,5H2	InChI=1S/C7H9NO/c8-4-6-3-7(1-2-7)5-9-6/h6H,1-3,5H2/t6-/m1/s1
