21
gdb 99523	2.04414	1.38702	1.01211	3.96	79.55	-0.2414	0.0336	0.275	1284.5983	0.179697	-420.416527	-420.405519	-420.404575	-420.452013	39.973	
C	 0.0618094998	 1.4193709129	-0.2977104204	-0.330081
N	-0.0324819765	 0.0345752547	 0.1511522495	-0.277012
C	-1.3658183014	-0.542292602	 0.0991452472	-0.108034
C	-1.9437943897	-0.5090783486	-1.2699558063	 0.288468
N	-2.3520876705	-0.4236815282	-2.3484460428	-0.348006
C	-1.3515403308	-1.9917625916	 0.6600679566	 0.327016
C	-0.8747615315	-1.9808374531	 2.1178583175	-0.42183
C	-2.7312880847	-2.6482761265	 0.5378405719	-0.434942
O	-0.4037250959	-2.6676360741	-0.1718898952	-0.464395
H	 1.1051140465	 1.739755366	-0.236150901	 0.126159
H	-0.294425244	 1.5863627701	-1.3263880536	 0.126901
H	-0.5238238548	 2.0608244907	 0.3706831172	 0.122397
H	 0.5914113792	-0.5660925152	-0.3771585718	 0.242499
H	-2.0263615365	 0.0585301737	 0.7369847172	 0.119892
H	-1.5896478776	-1.4603819902	 2.7634597931	 0.115926
H	-0.7865514023	-3.0090008989	 2.4866139461	 0.10418
H	 0.0932215926	-1.4855840826	 2.1981119882	 0.143658
H	-3.044834659	-2.706692697	-0.5066280114	 0.153349
H	-2.6954212893	-3.6646344085	 0.9452011907	 0.109483
H	-3.4881522297	-2.0938589054	 1.102416726	 0.119876
H	-0.3081746439	-3.5694999763	 0.1502626916	 0.284498
72.9428	118.515	143.3162	185.5901	192.4339	213.3293	222.4499	252.2338	277.6212	319.0647	344.4765	345.8566	405.0622	427.6136	491.9688	591.1983	613.12	782.4187	822.4174	882.1618	929.6618	957.3998	968.7882	998.7556	1027.4523	1123.8817	1154.7653	1163.2895	1183.7959	1205.8015	1243.2337	1302.9681	1336.5194	1371.9693	1397.5114	1417.8977	1460.9362	1477.762	1483.1439	1486.6546	1495.307	1498.0705	1511.4265	1520.5883	2341.5445	2984.3725	3033.1511	3035.2165	3040.8041	3063.1673	3094.7011	3102.6633	3111.9471	3133.4516	3151.4225	3540.9236	3822.9964
CNC(C#N)C(C)(C)O	CN[C@@H](C#N)C(C)(C)O	
InChI=1S/C6H12N2O/c1-6(2,9)5(4-7)8-3/h5,8-9H,1-3H3	InChI=1S/C6H12N2O/c1-6(2,9)5(4-7)8-3/h5,8-9H,1-3H3/t5-/m0/s1
