15
gdb 125273	5.35802	1.26492	1.0299	4.4144	75.83	-0.2086	-0.006	0.2026	1099.2667	0.115669	-413.003678	-412.996397	-412.995453	-413.035285	27.79	
C	-0.0179790574	 1.4891080631	 0.0772133348	-0.502571
C	-0.0014606266	 0.0019055692	-0.0501341508	 0.349418
C	-0.0453750854	-0.7782655245	-1.1937767295	-0.411036
C	-0.002080496	-2.1245272764	-0.7352347441	 0.375605
C	 0.0655858656	-2.1133368687	 0.6510584059	 0.366157
N	 0.0661695224	-0.8069778394	 1.0750582805	-0.436579
N	 0.1097410199	-3.3617518963	 1.160576174	-0.309835
N	 0.0726774385	-4.1869994476	 0.1439408785	-0.133955
N	 0.0050375441	-3.4538098854	-1.0092473121	-0.358253
H	 0.8863790664	 1.8666310032	 0.569896052	 0.135803
H	-0.0753883989	 1.9481824497	-0.9117688425	 0.142341
H	-0.8789127643	 1.8392910078	 0.6596801839	 0.135741
H	-0.1005706194	-0.4005185084	-2.2018029782	 0.104536
H	 0.1076253932	-0.4827294291	 2.0250006397	 0.268819
H	-0.0301594119	-3.9468587673	-1.8848186221	 0.273809
112.9238	150.953	280.8048	301.1134	332.5571	386.3367	475.231	504.4978	555.6935	634.0238	685.8902	745.9304	771.5879	779.4837	838.6853	982.7897	1006.8862	1008.4344	1029.4716	1059.6021	1168.343	1207.2599	1244.7389	1271.9988	1382.2915	1401.1294	1416.9451	1476.2834	1478.1126	1506.	1530.4032	1576.3527	1617.4868	3022.517	3069.4483	3129.7376	3260.8112	3682.4363	3687.4698
CC1=CC2=C(N1)N=NN2	Cc1cc2c([nH]1)nn[nH]2	
InChI=1S/C5H6N4/c1-3-2-4-5(6-3)8-9-7-4/h2H,1H3,(H2,6,7,8,9)	InChI=1S/C5H6N4/c1-3-2-4-5(6-3)8-9-7-4/h2H,1H3,(H2,6,7,8,9)
