23
gdb 122743	6.93737	0.39276	0.38638	0.906	93.81	-0.241	0.062	0.303	2899.3517	0.202948	-388.262624	-388.25084	-388.249896	-388.302875	39.644	
C	 0.5670499967	 1.2508870424	-0.3939476623	-0.362883
C	-0.3262594557	 0.208089234	 0.3024716752	-0.313158
C	 0.2912744545	-0.3748878512	 1.4896975059	 0.135269
C	 0.8188589917	-0.83521893	 2.4700487932	-0.000325
C	 1.4563746777	-1.4249167503	 3.6424297284	-0.358204
C	 2.0136119737	-2.8373693423	 3.3798360121	-0.184607
C	 2.6734493442	-3.4310109446	 4.6169098291	-0.049973
O	 3.1554605954	-4.7164956759	 4.2961531518	-0.231377
C	 3.7859045658	-5.3522384072	 5.3805448787	-0.228385
H	 1.5117623058	 0.8017670506	-0.7123825181	 0.126616
H	 0.0638749768	 1.658341328	-1.2761036636	 0.111827
H	 0.7991409036	 2.0774679512	 0.2832158483	 0.126148
H	-1.2821534353	 0.6722776383	 0.5782168968	 0.125484
H	-0.5761139909	-0.5906263246	-0.4080121437	 0.126401
H	 2.2693863913	-0.7702965652	 3.9857396602	 0.12437
H	 0.7354923061	-1.4652426093	 4.4707319607	 0.124515
H	 1.2052785366	-3.4985948788	 3.0517699693	 0.117315
H	 2.7443804736	-2.8009175265	 2.5656420643	 0.116898
H	 3.5013619261	-2.7844521464	 4.959922539	 0.081943
H	 1.9494827985	-3.4885775932	 5.4497812823	 0.08205
H	 4.6592949684	-4.7833423737	 5.7384567099	 0.101817
H	 3.0986763155	-5.4910517124	 6.2308328696	 0.101864
H	 4.1220595899	-6.3332853728	 5.035900153	 0.126395
9.3296	48.1517	63.6212	94.2929	119.8135	143.9961	166.2885	217.275	235.7639	288.0913	330.8826	359.0937	419.8382	511.0979	541.4947	743.4118	755.5832	785.4244	867.3671	955.7275	985.5848	1040.7504	1070.2192	1079.0069	1103.1694	1117.3538	1164.8761	1168.9945	1180.7165	1223.135	1225.3877	1281.0839	1286.6891	1299.7195	1309.1774	1351.2454	1372.6969	1407.9409	1428.0549	1475.614	1476.8001	1482.1194	1485.465	1494.5054	1497.4616	1505.8375	1506.5001	1532.5222	2368.3023	2933.922	2958.4282	2966.2193	3004.8858	3007.2117	3016.3668	3031.0166	3042.3924	3042.5367	3054.4269	3099.9731	3111.9405	3115.1348	3121.8193
CCC#CCCCOC	CCC#CCCCOC	
InChI=1S/C8H14O/c1-3-4-5-6-7-8-9-2/h3,6-8H2,1-2H3	InChI=1S/C8H14O/c1-3-4-5-6-7-8-9-2/h3,6-8H2,1-2H3
