21
gdb 81378	2.19284	1.71809	1.54053	1.3441	77.41	-0.2307	0.0766	0.3073	1032.609	0.183617	-424.213576	-424.205368	-424.204423	-424.245725	32.705	
C	 0.0023138587	 1.6267898419	-0.11614731	-0.442789
C	 0.0503325352	 0.1076060376	-0.03471531	 0.029708
C	 1.0368909312	-0.7513011046	-0.8628583094	 0.047227
C	 2.4491393327	-0.1807134645	-0.8338040294	-0.076839
O	 2.7239013911	 0.4366025933	 0.4217638428	-0.286868
C	 2.0685654961	-0.1578344615	 1.5496832271	 0.147836
C	 2.0254033975	 0.8825650772	 2.6601678174	-0.414578
C	 0.7050952314	-0.7017879349	 1.1199729969	 0.030048
O	 0.9789757007	-1.7762970736	 0.1712085795	-0.303174
H	 0.9885514346	 2.0769371261	-0.0001060718	 0.144734
H	-0.4088680012	 1.9384366404	-1.0830207565	 0.113826
H	-0.6572069847	 2.0350039972	 0.6576802884	 0.116522
H	-0.9501692279	-0.3079878883	-0.1851783738	 0.088327
H	 0.7500320295	-1.1254844263	-1.8501393598	 0.075721
H	 3.1591706071	-0.9979785271	-1.0322108879	 0.103043
H	 2.5887222316	 0.5949929171	-1.5957445101	 0.104118
H	 2.6513375424	-1.029869623	 1.8888841231	 0.079374
H	 1.3801263211	 1.7258113393	 2.4009152505	 0.124245
H	 1.6534382534	 0.4316916363	 3.5856548857	 0.115312
H	 3.0314317164	 1.2680862539	 2.8459422897	 0.130242
H	 0.0961323931	-1.0324401365	 1.9666988975	 0.073966
153.5253	197.616	224.1477	231.7489	258.9609	289.3638	352.2519	416.	460.3607	520.8212	621.1447	634.8143	750.6595	813.3756	833.0978	886.611	889.3408	932.1912	963.5499	1008.0076	1013.9723	1052.4193	1078.2105	1086.6299	1110.4713	1146.6921	1164.8937	1172.8537	1201.0581	1247.189	1252.1893	1311.8398	1330.5721	1340.3499	1357.6995	1371.4743	1391.8944	1407.7043	1413.9592	1420.5081	1485.6603	1490.2854	1497.862	1501.6886	1520.5862	2969.6375	2992.6465	3034.8599	3045.865	3058.9204	3062.327	3068.7721	3076.725	3087.5912	3117.2086	3127.2763	3150.648
CC1C2COC(C)C1O2	C[C@H]1[C@H]2CO[C@@H](C)[C@@H]1O2	
InChI=1S/C7H12O2/c1-4-6-3-8-5(2)7(4)9-6/h4-7H,3H2,1-2H3	InChI=1S/C7H12O2/c1-4-6-3-8-5(2)7(4)9-6/h4-7H,3H2,1-2H3/t4-,5-,6+,7+/m0/s1
