17
gdb 114730	2.50689	1.49093	1.09287	3.3831	68.31	-0.2473	-0.0311	0.2162	1109.0446	0.135754	-458.95817	-458.950093	-458.949149	-458.991272	30.393	
O	 0.134538167	 1.2239516268	-0.4106600362	-0.419528
C	 0.0265055196	-0.1755607027	-0.2724272079	-0.062121
C	-1.3776005128	-0.578089021	 0.1810767181	-0.030607
O	-2.3519596541	-0.0955218273	-0.7507980793	-0.28957
C	-3.1299372908	-1.1619846183	-1.2488853811	 0.105522
C	-2.4365685736	-2.1507460675	-2.1205062736	-0.322779
C	-2.6853544391	-2.4656797488	-0.6374956942	-0.187177
C	-1.5848335386	-2.0954157719	 0.3028500826	 0.383076
O	-0.9915035236	-2.8115954877	 1.068601028	-0.325102
H	-0.5832922963	 1.4955736679	-0.9949762462	 0.2923
H	 0.2763480273	-0.6949025659	-1.2116605947	 0.088542
H	 0.7481587629	-0.4908163254	 0.4866476679	 0.132808
H	-1.5762966952	-0.115412152	 1.1571592611	 0.124069
H	-4.1694359647	-0.8944493361	-1.3978964266	 0.117102
H	-3.0333560374	-2.7287379674	-2.8173687768	 0.13456
H	-1.4270974742	-1.9362273411	-2.4527045564	 0.135671
H	-3.3394712364	-3.2855586516	-0.3722360148	 0.123234
70.1155	116.9253	165.3249	191.2996	315.882	407.6513	419.9513	443.8318	525.8613	607.3279	611.6123	716.5111	787.1127	799.4277	851.0868	896.2068	966.9407	984.1441	1025.7965	1038.8567	1057.6504	1076.633	1091.5644	1101.5765	1134.0424	1178.0567	1201.6912	1234.5971	1269.0257	1310.3881	1335.2888	1375.0423	1392.6412	1424.4537	1477.4301	1497.9473	1838.429	2974.3615	3025.8061	3096.9685	3138.7974	3184.1076	3206.7543	3230.2085	3793.9145
OCC1OC2CC2C1=O	OC[C@H]1O[C@H]2C[C@H]2C1=O	
InChI=1S/C6H8O3/c7-2-5-6(8)3-1-4(3)9-5/h3-5,7H,1-2H2	InChI=1S/C6H8O3/c7-2-5-6(8)3-1-4(3)9-5/h3-5,7H,1-2H2/t3-,4+,5-/m1/s1
