17
gdb 82351	2.37975	1.69622	1.36086	0.9691	72.17	-0.2422	0.0254	0.2676	998.9064	0.135344	-421.766519	-421.758448	-421.757504	-421.798884	31.583	
O	 0.4157268689	 0.9436671692	 0.8207776025	-0.426919
C	-0.0625629229	-0.222352502	 0.2019369191	 0.106838
C	-1.5046833948	-0.218400453	-0.2808050627	-0.105013
C	-1.8253726305	 0.545378713	-1.5580933984	-0.343037
C	-1.4957727091	-0.920232577	-1.6011690058	 0.117264
O	-0.1837730909	-1.3099440904	-1.9513896554	-0.247559
C	 0.7413987035	-0.6504820065	-1.088609301	-0.150789
C	 1.3810851503	 0.4983248867	-1.7389413111	 0.348825
C	 1.9119851352	 1.4474353135	-2.2537860323	-0.46457
H	 0.510633777	 1.6229454323	 0.1411640556	 0.282581
H	 0.0500043076	-1.0109949174	 0.9521233449	 0.101978
H	-2.2839433596	-0.375300979	 0.4548931155	 0.097317
H	-2.8632453381	 0.824377884	-1.7052398348	 0.117924
H	-1.1075961454	 1.2520381113	-1.9582956092	 0.130013
H	-2.2243212627	-1.6593826433	-1.9107944052	 0.105674
H	 1.5186881425	-1.3786851182	-0.8345085031	 0.121848
H	 2.3925927291	 2.2681883268	-2.7274963784	 0.207624
99.8939	146.5843	184.0416	259.1681	315.2534	366.7332	405.5593	483.4473	511.7615	591.2519	637.0836	660.8255	667.4042	737.6471	772.2771	800.806	854.3739	932.6122	961.5035	987.3285	1025.3043	1051.0886	1062.3804	1089.0215	1106.7954	1128.9044	1154.1255	1205.2866	1237.7033	1292.3197	1317.9461	1335.5658	1356.8951	1391.1136	1444.5718	1483.6056	2222.764	3050.521	3069.5136	3137.772	3182.1029	3192.8874	3227.1289	3497.8436	3770.4498
OC1C2CC2OC1C#C	O[C@H]1[C@H]2C[C@H]2O[C@H]1C#C	
InChI=1S/C7H8O2/c1-2-5-7(8)4-3-6(4)9-5/h1,4-8H,3H2	InChI=1S/C7H8O2/c1-2-5-7(8)4-3-6(4)9-5/h1,4-8H,3H2/t4-,5-,6+,7-/m0/s1
