23
gdb 121850	4.07664	0.66251	0.65263	1.7231	79.39	-0.2454	0.0595	0.3049	1831.9047	0.202149	-462.549044	-462.537466	-462.536522	-462.586168	41.234	
C	-0.2343451446	 1.3498604872	-0.0082891201	-0.225937
O	-0.0375290031	-0.041519437	-0.0295546672	-0.232528
C	 0.6555701154	-0.5129531928	 1.1097012149	-0.068374
C	 0.7786167953	-2.0270574367	 0.9807962928	-0.216497
C	 1.4269931057	-2.7147609085	 2.1894989852	 0.354272
C	 2.8784003554	-2.2606282868	 2.4262579802	-0.425978
O	 0.6242465205	-2.3989015429	 3.3273009052	-0.477567
C	 1.3800841964	-4.2380676259	 1.9873134247	-0.111758
O	 1.8041526287	-4.8330264476	 3.2128331919	-0.436022
H	 0.7206011837	 1.9003414344	 0.0117751662	 0.099133
H	-0.7759315308	 1.6199555659	-0.9185867801	 0.122389
H	-0.8267942011	 1.6674306101	 0.8649179694	 0.102452
H	 1.6470999322	-0.0348308538	 1.169960333	 0.081257
H	 0.1108846413	-0.2575154535	 2.0307667655	 0.109535
H	-0.2307731229	-2.431022712	 0.8466061024	 0.107101
H	 1.3475330079	-2.2635677179	 0.0742187772	 0.098309
H	 2.9059598935	-1.2110632492	 2.7268701189	 0.12209
H	 3.3303745789	-2.8574703535	 3.222652991	 0.126952
H	 3.4859629625	-2.3817461819	 1.5229125147	 0.106976
H	 0.8598242985	-3.052029637	 3.9986960325	 0.282771
H	 0.3494695018	-4.5330397749	 1.7482799943	 0.095261
H	 2.0332273529	-4.5379639526	 1.1545369855	 0.090963
H	 1.5498549517	-5.7593452433	 3.2099572922	 0.2952
56.952	67.9354	111.9351	122.6232	146.1397	225.8528	232.4384	242.5819	248.071	294.2584	335.9087	342.3176	390.6854	448.9694	451.4292	497.1197	632.9783	774.5047	802.9128	910.7383	942.7207	964.9696	996.0897	1022.1505	1060.0734	1085.6801	1144.8439	1163.7722	1171.2537	1182.7957	1203.3495	1224.7914	1241.4886	1256.6481	1290.0289	1323.6264	1337.5465	1395.1992	1407.5565	1430.7902	1444.1395	1477.9568	1481.3781	1484.9075	1493.331	1503.047	1505.817	1510.7019	1536.2489	2959.8184	2971.7566	2989.2404	3005.3764	3013.6613	3034.9561	3038.0783	3042.7898	3085.2029	3108.3076	3113.279	3130.6551	3771.2922	3849.2986
COCCC(C)(O)CO	COCC[C@@](C)(O)CO	
InChI=1S/C6H14O3/c1-6(8,5-7)3-4-9-2/h7-8H,3-5H2,1-2H3	InChI=1S/C6H14O3/c1-6(8,5-7)3-4-9-2/h7-8H,3-5H2,1-2H3/t6-/m1/s1
