16
gdb 5724	4.76741	2.11002	1.50591	2.7455	71.1	-0.1768	0.0542	0.2311	816.4347	0.134968	-342.81308	-342.806828	-342.805883	-342.843352	24.694	
C	 0.0112797846	 1.4297461218	-0.155989057	-0.17308
C	 1.4801268641	 1.8607081379	 0.1251574203	-0.195397
N	 2.1587310599	 0.5961119413	-0.078251375	 0.007795
C	 3.456663405	 0.1398836897	-0.121536875	-0.150514
C	 3.3954694172	-1.2360626228	-0.1192016772	-0.131645
C	 2.0202409797	-1.6329108662	-0.0667952135	-0.305413
C	 1.2957954097	-0.4669704938	-0.02940305	 0.358829
N	-0.0477413635	-0.035607412	 0.0572313652	-0.408299
H	-0.7116661189	 1.9488812802	 0.4758311837	 0.113061
H	-0.234939508	 1.6437849312	-1.2015522972	 0.125838
H	 1.8216272093	 2.6321244898	-0.5703578646	 0.122179
H	 1.6270147043	 2.2289157672	 1.1499471153	 0.112477
H	 4.2924666293	 0.8163373739	-0.192925029	 0.109375
H	 4.2452689255	-1.8994275362	-0.1810133691	 0.08907
H	 1.6304973304	-2.6380377431	-0.0674047838	 0.089513
H	-0.4597240785	-0.2659245688	 0.9553856369	 0.236211
132.2884	182.3151	264.9575	446.4008	603.3357	615.5326	633.3607	665.5706	713.2339	746.5077	753.1384	792.6419	819.306	909.7598	932.6887	937.5686	1006.8025	1036.286	1078.0058	1118.5956	1156.4536	1207.4658	1241.7538	1267.9165	1303.5436	1331.0673	1363.5234	1396.0323	1425.1765	1470.9906	1501.7932	1506.7955	1533.5582	1612.4365	3006.283	3045.2912	3086.305	3117.4098	3239.2286	3261.2814	3271.7116	3509.8167
C1CN2C=CC=C2N1	C1Cn2cccc2N1	
InChI=1S/C6H8N2/c1-2-6-7-3-5-8(6)4-1/h1-2,4,7H,3,5H2	InChI=1S/C6H8N2/c1-2-6-7-3-5-8(6)4-1/h1-2,4,7H,3,5H2
