21
gdb 80094	2.08878	1.74604	1.34546	1.0696	83.32	-0.227	0.0215	0.2485	1077.2495	0.183948	-387.08992	-387.081327	-387.080383	-387.122849	33.817	
C	-0.1374383781	 1.5185206136	-0.0135845674	-0.418751
C	 0.0049033583	 0.0116423494	 0.0282042307	-0.008365
C	 1.3200996624	-0.7300993077	-0.2553382644	-0.115701
C	 2.5934609533	 0.0120327825	-0.3871525936	-0.043077
C	 3.111364856	 0.7619897175	 0.5890177548	-0.079566
C	 2.4348963822	 0.9435106923	 1.9215601557	-0.30901
C	 1.4417796707	-0.1812742406	 2.2850925564	 0.109141
O	 0.4747296024	 0.2728385643	 3.233620669	-0.437829
C	 0.6842408605	-0.774832451	 1.1186173269	-0.045198
H	 0.8296013077	 2.0254615152	-0.0258921909	 0.127328
H	-0.6714991262	 1.8205598775	-0.9204915738	 0.10943
H	-0.7047314869	 1.8814637839	 0.8494479189	 0.12975
H	-0.8645407101	-0.505473073	-0.3708900427	 0.085384
H	 1.2372014355	-1.6167992572	-0.876348236	 0.080664
H	 3.1117203523	-0.0653842605	-1.3394733092	 0.085287
H	 4.0431796407	 1.2971126403	 0.4270290647	 0.085021
H	 3.1860061349	 1.0304979711	 2.7178056015	 0.092497
H	 1.8776430412	 1.8898733963	 1.9355916376	 0.121012
H	 2.0235398546	-1.0084444106	 2.7237845485	 0.067693
H	 0.9471648184	 0.5536820312	 4.0244973788	 0.277665
H	 0.1870282299	-1.7024284643	 1.3877895143	 0.086626
89.4551	112.136	209.264	238.3551	287.3744	308.7975	371.4521	413.8099	438.2479	516.6653	537.0815	676.4616	707.6303	731.1371	766.0623	809.2967	869.619	914.6614	953.4594	978.2961	993.8904	1004.1197	1050.143	1063.4674	1075.4621	1092.6423	1118.489	1144.0491	1149.0587	1201.8776	1217.0609	1248.0802	1270.7094	1328.0548	1362.1202	1367.3124	1384.1061	1416.9027	1422.5463	1443.2751	1448.7848	1481.0214	1496.7114	1509.8878	1709.5104	2956.6641	3012.3659	3038.4775	3040.9855	3097.2228	3118.6207	3131.6803	3138.6757	3147.4976	3155.1235	3172.5808	3805.3172
CC1C2C=CCC(O)C12	C[C@H]1[C@H]2C=CC[C@@H](O)[C@@H]12	
InChI=1S/C8H12O/c1-5-6-3-2-4-7(9)8(5)6/h2-3,5-9H,4H2,1H3	InChI=1S/C8H12O/c1-5-6-3-2-4-7(9)8(5)6/h2-3,5-9H,4H2,1H3/t5-,6+,7+,8-/m0/s1
