15
gdb 25969	4.83947	1.01606	0.97641	1.5877	68.21	-0.2206	-0.0014	0.2193	1233.0387	0.11147	-457.820421	-457.812173	-457.811229	-457.854652	29.112	
C	-0.0575715772	 1.4343679521	 0.1984426437	-0.48519
C	-0.1078231497	 0.0222956952	-0.3168779777	 0.403163
O	 0.3860147785	-0.4048618614	-1.3163299597	-0.305393
O	-0.838635975	-0.7619011249	 0.5651801113	-0.281592
C	-0.9525760523	-2.0840517991	 0.2791458808	 0.464606
C	-1.9924246767	-2.8237665985	-0.1753255484	-0.300972
C	-1.5159110305	-4.1786395094	-0.178572885	-0.163969
C	-0.2373309658	-4.1369364482	 0.2728252135	-0.009365
O	 0.1223257353	-2.8515775255	 0.5644196649	-0.164946
H	 0.4557135685	 1.4554942918	 1.1641820695	 0.160744
H	 0.4698410102	 2.0629715404	-0.5174255745	 0.154645
H	-1.0709511663	 1.8111749877	 0.3609143102	 0.156916
H	-2.960556061	-2.455004229	-0.4705406987	 0.117842
H	-2.0605786891	-5.0589718136	-0.4811940214	 0.114964
H	 0.5228447211	-4.8803309176	 0.4417520914	 0.138545
48.5259	74.6907	103.4371	112.7834	319.4107	345.7816	436.1284	586.887	593.3006	615.5225	649.696	726.5252	770.1	805.6449	846.5874	883.8446	898.7463	975.9031	1018.4676	1032.617	1063.2876	1101.3656	1185.8951	1203.3277	1250.2001	1266.2701	1394.48	1418.9394	1468.0435	1473.9547	1545.9398	1652.4803	1874.6591	3059.6143	3125.1462	3174.0934	3257.4685	3275.9244	3294.0449
CC(=O)OC1=CC=CO1	CC(=O)Oc1ccco1	
InChI=1S/C6H6O3/c1-5(7)9-6-3-2-4-8-6/h2-4H,1H3	InChI=1S/C6H6O3/c1-5(7)9-6-3-2-4-8-6/h2-4H,1H3
