15
gdb 42701	4.32062	1.64066	1.51919	2.2349	67.36	-0.2426	-0.0117	0.2309	853.7079	0.1151	-420.58019	-420.574588	-420.573644	-420.610105	23.663	
O	-0.0700537532	-0.0189385721	-0.0935361003	-0.324668
C	-0.0152992009	 1.168909629	 0.0268493904	 0.436322
C	-1.044733291	 2.3116125778	 0.0502976898	-0.184473
C	-0.7639550551	 3.064357469	 1.3719996571	 0.074001
O	-0.9313208551	 4.4687932606	 1.0629920184	-0.280827
C	 0.2667863063	 4.3224583247	 0.2955362803	 0.080852
C	 0.8029119626	 3.1755530169	 1.184853111	-0.094361
C	 1.0813150499	 2.2296504439	-0.0199834833	-0.201839
C	 0.0297690125	 3.1646989117	-0.7449819091	-0.078151
H	-2.0783405654	 2.1874451153	-0.2608974685	 0.096667
H	-1.2633114265	 2.7482004595	 2.2854543243	 0.100277
H	 0.7585914507	 5.250757186	 0.0111572244	 0.094956
H	 1.4490963607	 3.2938493843	 2.0509681111	 0.09276
H	 2.1005958047	 2.0459179618	-0.3479722739	 0.093952
H	-0.0573709502	 3.2699690414	-1.8220882616	 0.094532
148.9611	332.2949	507.3272	539.3149	568.393	697.3185	717.6847	785.5141	792.9	810.9373	829.7422	863.5338	882.8624	896.2372	931.747	949.8829	962.8698	986.5324	1014.6053	1058.4447	1096.1821	1119.4799	1122.8807	1152.5467	1169.5025	1192.846	1206.1721	1223.5397	1248.6357	1258.1575	1292.9779	1328.8589	1893.0179	3140.529	3144.5156	3154.5716	3162.5902	3164.955	3174.0089
O=C1C2C3OC4C3C1C24	O=C1[C@H]2[C@@H]3O[C@H]4[C@@H]3[C@@H]1[C@@H]24	
InChI=1S/C7H6O2/c8-5-1-2-3(5)7-4(1)6(2)9-7/h1-4,6-7H	InChI=1S/C7H6O2/c8-5-1-2-3(5)7-4(1)6(2)9-7/h1-4,6-7H/t1-,2-,3-,4-,6+,7-/m0/s1
