19
gdb 89913	5.38249	0.88165	0.83634	3.7008	79.28	-0.2161	0.0188	0.2349	1416.1229	0.158139	-419.145934	-419.13701	-419.136065	-419.180066	32.856	
C	-0.2034704033	 1.5138733066	 0.2140088202	-0.325939
N	 0.0496906462	 0.0909003898	 0.0859462974	-0.067802
C	 0.9730369	-0.3773285078	-0.9904579968	-0.246455
C	 1.7965091688	-1.1137581106	 0.0688376201	 0.407713
C	 2.3158629517	-0.1545099738	 1.1081090391	-0.356382
C	 0.8533276215	-0.573447498	 1.1102944801	-0.09468
O	 2.2437675536	-2.4207287561	-0.0740457458	-0.227038
C	 3.5348788868	-2.5791714228	-0.4575383624	 0.104241
N	 3.9810362328	-3.7367698779	-0.6783090565	-0.437189
H	 0.7063239016	 2.130819779	 0.3228892938	 0.093457
H	-0.74754125	 1.8661709829	-0.6680381246	 0.124554
H	-0.836280743	 1.6894572592	 1.0899453671	 0.125723
H	 0.4701909841	-1.0434894349	-1.6982913818	 0.124778
H	 1.4980346838	 0.4150358387	-1.5405821236	 0.096013
H	 2.9041335898	-0.6208175955	 1.8925427787	 0.127272
H	 2.6253175715	 0.85257639	 0.8416586259	 0.113761
H	 0.3920978314	-1.0577159375	 1.9636302793	 0.112055
H	 4.0826213056	-1.631409569	-0.5282512269	 0.09467
H	 4.9626521871	-3.6848856022	-0.9429207433	 0.231247
56.1465	103.5026	112.246	209.7645	224.8208	268.5113	360.3552	388.0017	413.9339	496.9332	509.9103	671.2292	758.9614	823.2289	830.9679	875.3885	935.873	966.9129	977.4853	996.4148	1042.7167	1049.9094	1065.1489	1079.7748	1091.7287	1137.7014	1168.552	1210.0559	1222.6038	1234.015	1279.1687	1296.6697	1308.9173	1389.873	1413.7054	1450.8933	1477.9535	1487.3563	1500.7935	1509.0108	1747.1718	2947.0389	3011.8344	3046.1546	3062.5319	3079.8168	3104.464	3116.4238	3176.7962	3207.9113	3517.8201
CN1CC2(CC12)OC=N	CN1C[C@]2(C[C@@H]12)O[CH][NH]	
InChI=1S/C6H10N2O/c1-8-3-6(9-4-7)2-5(6)8/h4-5,7H,2-3H2,1H3	InChI=1S/C6H10N2O/c1-8-3-6(9-4-7)2-5(6)8/h4-5,7H,2-3H2,1H3/t5-,6+/m1/s1
