15
gdb 25000	4.96073	1.36124	1.07537	1.13	74.01	-0.2008	-0.0029	0.1979	1050.8567	0.115553	-416.848376	-416.841629	-416.840685	-416.879676	26.416	
N	-0.0674205561	 1.2324729923	 0.0073584128	-0.524766
C	-0.0258363346	-0.0217098906	 0.0007382541	 0.382138
C	-1.2426447936	-0.9514340229	 0.0024811624	-0.271112
N	-0.5968228222	-2.2413760893	-0.0074828445	-0.040276
C	-0.9151563455	-3.5850931362	-0.0126009619	-0.141932
C	 0.2766400195	-4.2715817474	-0.022412047	-0.129162
C	 1.3635884863	-3.331764874	-0.0233645086	-0.339083
C	 0.7571301137	-2.1088874491	-0.0139710529	 0.418611
O	 1.1286094707	-0.7870355767	-0.0092312219	-0.247551
H	 0.8695060618	 1.6368199083	 0.0044645777	 0.239438
H	-1.8538205371	-0.7824302879	 0.8948816631	 0.1585
H	-1.8632364193	-0.773419918	-0.8816301622	 0.158498
H	-1.9372447911	-3.9240762111	-0.0089079057	 0.124137
H	 0.3768426827	-5.3460596041	-0.028405426	 0.102123
H	 2.4194526348	-3.5417284332	-0.0300030294	 0.110436
100.0939	143.3908	299.2797	340.5472	532.8033	535.9695	568.2523	601.752	644.5389	685.6493	746.4777	749.4925	815.8779	820.6814	858.8429	887.841	931.5051	1022.2011	1032.8443	1039.0985	1081.998	1152.8457	1188.9768	1239.6143	1276.8133	1299.2566	1326.8497	1424.4525	1472.3329	1496.5707	1534.6152	1624.0706	1808.8116	3048.5323	3085.6273	3250.3285	3277.308	3282.7016	3493.1516
N=C1CN2C=CC=C2O1	[NH][C]1Cn2cccc2O1	
InChI=1S/C6H6N2O/c7-5-4-8-3-1-2-6(8)9-5/h1-3,7H,4H2	InChI=1S/C6H6N2O/c7-5-4-8-3-1-2-6(8)9-5/h1-3,7H,4H2
