18
gdb 48585	3.20187	1.52639	1.32124	2.8494	75.65	-0.2456	-0.0291	0.2165	1000.403	0.149079	-401.897417	-401.890332	-401.889387	-401.929086	28.54	
O	-0.1270041991	-0.0303603952	 0.1683752804	-0.257927
C	 0.0299868986	 1.1265653695	-0.1344918172	 0.05817
C	 1.3469654526	 1.83482425	-0.0688461328	 0.259136
C	 1.7809492222	 2.627453732	 1.2231586524	-0.244382
C	 3.1733755089	 2.5241683982	 0.5018291135	-0.06427
C	 2.7081475263	 1.107323916	 0.0712034412	-0.28791
C	 2.8583457479	 3.4014710182	-0.7185448118	-0.015953
C	 2.5904585413	 2.7839433213	-2.0421251744	-0.259453
N	 1.4847531837	 2.9382245923	-1.077025391	-0.150889
H	-0.8149291019	 1.7658545429	-0.4716762704	 0.086669
H	 1.338202038	 3.618196947	 1.3447373937	 0.112338
H	 1.7099650531	 2.0377987762	 2.138503022	 0.115087
H	 4.1121196851	 2.6968830981	 1.026684685	 0.075571
H	 2.6868936683	 0.4106718559	 0.9084306695	 0.122856
H	 3.1579745476	 0.6162718136	-0.7908472393	 0.104603
H	 3.0131273632	 4.4741313986	-0.6368386571	 0.099633
H	 2.49077636	 3.4450050595	-2.8985526655	 0.122235
H	 2.9726304844	 1.8011705458	-2.2906489682	 0.124487
71.3479	190.5721	231.7597	371.2013	408.8799	464.2669	552.2335	564.0227	645.7244	714.4108	745.7082	788.2718	833.1053	842.9823	869.5564	938.7162	955.4707	975.5647	994.4195	1018.8621	1050.7194	1056.5947	1085.298	1105.3603	1117.1994	1141.3904	1163.0044	1179.408	1210.1459	1217.3408	1244.8186	1293.3775	1297.6662	1363.3577	1410.0377	1476.0195	1498.7024	1544.9427	1821.7368	2899.4324	3072.993	3100.2075	3124.0432	3129.0883	3143.5159	3145.787	3154.5474	3214.4908
O=CC12CC(C1)C1CN21	O=C[C@@]12C[C@@H](C1)[C@H]1CN21	
InChI=1S/C7H9NO/c9-4-7-1-5(2-7)6-3-8(6)7/h4-6H,1-3H2	InChI=1S/C7H9NO/c9-4-7-1-5(2-7)6-3-8(6)7/h4-6H,1-3H2/t5-,6-,7+,8?/m1/s1
