23
gdb 89300	2.0985	1.64557	1.11241	1.141	85.16	-0.2417	0.0727	0.3144	1203.2705	0.204925	-388.267177	-388.257692	-388.256748	-388.300932	37.172	
C	 0.4819119008	 1.5167336333	-0.4363543694	-0.407595
C	 0.008806493	 0.1140239167	-0.0704535807	 0.039451
C	 0.3856294422	-1.0370585688	-1.0634255609	-0.321553
C	 1.1293502067	-1.7558458704	 0.0835751704	 0.436535
O	 0.8692165968	-3.1120955976	 0.3205114012	-0.491836
C	 2.598024819	-1.2774697458	 0.3259472676	-0.320582
C	 2.110445198	-0.4943722506	 1.5830638255	 0.061692
C	 2.7153344036	 0.8570666525	 1.9406271449	-0.424791
C	 0.6394634495	-0.6959253923	 1.1229350301	-0.114529
H	 1.5380783174	 1.5370855941	-0.7213833538	 0.116777
H	-0.0891910499	 1.8896664985	-1.294455091	 0.110676
H	 0.3410759036	 2.2234562978	 0.3879985498	 0.115176
H	-1.0749484556	 0.1511953827	 0.0747832172	 0.077912
H	-0.4829386557	-1.6071399417	-1.4035673782	 0.098408
H	 0.9874070962	-0.7512926971	-1.9330580949	 0.083241
H	 1.3340638265	-3.627740142	-0.3482769188	 0.273413
H	 3.3162450022	-2.079876443	 0.5154376419	 0.092912
H	 2.9862421894	-0.6399494688	-0.4750528788	 0.089889
H	 2.2345844879	-1.1573765981	 2.4476936753	 0.082724
H	 2.7261390732	 1.5518212426	 1.098318976	 0.115236
H	 2.1614077635	 1.3327252044	 2.7580913764	 0.112311
H	 3.7513872917	 0.7322416979	 2.2763462053	 0.110017
H	-0.0777280903	-0.9495044841	 1.9055472151	 0.064516
61.9052	165.9108	213.6662	222.7344	245.3766	262.4758	291.629	332.8548	362.8483	369.432	427.5978	552.8288	568.5271	638.3746	697.0018	808.6847	854.667	870.5224	875.931	909.8468	937.8213	956.0303	987.1766	1007.3795	1076.0845	1087.3718	1096.8533	1109.3105	1154.5968	1174.6088	1189.9563	1199.2742	1237.8704	1250.1241	1267.2242	1275.2079	1315.5449	1329.8372	1354.4325	1361.851	1389.7739	1408.2238	1414.4216	1470.8402	1482.247	1490.3879	1490.8574	1504.6689	1511.4272	3022.803	3026.9142	3031.4772	3036.5107	3042.3261	3045.0884	3084.1157	3087.8621	3090.4322	3097.4428	3100.0134	3106.069	3127.8261	3788.5424
CC1CC2(O)CC(C)C12	C[C@H]1C[C@@]2(O)C[C@@H](C)[C@@H]12	
InChI=1S/C8H14O/c1-5-3-8(9)4-6(2)7(5)8/h5-7,9H,3-4H2,1-2H3	InChI=1S/C8H14O/c1-5-3-8(9)4-6(2)7(5)8/h5-7,9H,3-4H2,1-2H3/t5-,6+,7+,8+
