19
gdb 106039	2.57053	1.55031	1.2384	2.172	74.07	-0.2301	0.0557	0.2858	1073.1142	0.158337	-422.95134	-422.942868	-422.941924	-422.984497	32.293	
C	 0.0188275226	 1.5858435937	-0.1978430302	-0.424135
C	 0.0510786762	 0.0711285234	-0.0548667806	-0.040801
C	 1.1632812287	-0.7262192289	-0.7954037059	 0.048545
O	 2.4017638122	-0.114774128	-0.3309423556	-0.293533
C	 2.1246820608	-0.7244728098	 0.9301229046	 0.054117
C	 1.1900958572	-1.7532487843	 0.3944005575	-0.207918
C	 0.6153574587	-0.5949455735	 1.2142295487	 0.256992
C	 0.0417931612	-0.6228090398	 2.5986480083	-0.199015
O	 0.2443788746	 0.586399702	 3.3213346388	-0.410628
H	 1.0104981327	 2.0070292302	-0.0180664942	 0.140748
H	-0.3012352421	 1.8798586882	-1.2038966936	 0.11537
H	-0.6882435628	 2.0389234941	 0.5076093156	 0.100106
H	-0.9218543586	-0.3778423018	-0.286625042	 0.07408
H	 1.1500813719	-0.920707273	-1.8660253508	 0.084295
H	 2.8943338022	-0.7467792451	 1.6900093163	 0.115635
H	 1.1106412172	-2.8279176693	 0.4814255979	 0.101878
H	-1.028133855	-0.884908117	 2.557618662	 0.08972
H	 0.535768648	-1.4030623695	 3.1895869204	 0.109413
H	-0.1680310056	 1.2993449987	 2.8240266128	 0.285129
72.2126	124.9431	200.258	221.0331	233.3013	263.9172	334.1674	401.8737	546.0564	586.2426	679.4844	716.7026	777.7756	804.6182	822.5858	853.5059	904.1667	925.5302	969.9393	981.5667	994.5293	1036.9369	1052.504	1064.1348	1107.5495	1121.8136	1131.1733	1162.9757	1187.8864	1206.194	1249.768	1290.2474	1311.9407	1366.1668	1375.144	1399.7583	1408.1455	1431.4083	1489.9304	1497.8667	1501.3666	2968.9839	3025.3113	3044.3623	3055.7329	3081.131	3129.2758	3141.5679	3204.8139	3218.8892	3824.6234
CC1C2OC3C2C13CO	C[C@H]1[C@H]2O[C@@H]3[C@H]2[C@]13CO	
InChI=1S/C7H10O2/c1-3-5-4-6(9-5)7(3,4)2-8/h3-6,8H,2H2,1H3	InChI=1S/C7H10O2/c1-3-5-4-6(9-5)7(3,4)2-8/h3-6,8H,2H2,1H3/t3-,4-,5+,6+,7-/m0/s1
