21
gdb 87255	4.00882	0.79024	0.76133	2.7597	81.29	-0.2473	0.0275	0.2748	1575.7425	0.181362	-420.415933	-420.405567	-420.404623	-420.452272	37.049	
C	-0.3426726155	 1.7192158779	-0.2448553736	-0.400482
C	 0.016487756	 0.280159023	 0.0383304497	-0.033423
N	 1.3396740457	 0.0072066227	 0.6362232416	-0.379621
C	 0.1098583546	-0.3253377603	 1.3968319819	 0.308307
C	-0.1197239473	 0.4877004266	 2.6540813058	-0.446011
C	-0.2688489086	-1.794228153	 1.5099804407	-0.231375
N	 0.5032238369	-2.4982749642	 2.5238809594	-0.270324
C	-0.0668793449	-3.1901658058	 3.5480659311	 0.155446
O	-1.2585532857	-3.3278384655	 3.7239299458	-0.320647
H	 0.0349979314	 2.3889590386	 0.5297100158	 0.12891
H	 0.0922747812	 2.0364509542	-1.1986357024	 0.122547
H	-1.4289498545	 1.8426799437	-0.3134821312	 0.119105
H	-0.3045562959	-0.4073806978	-0.7450548947	 0.078656
H	 1.7413315851	-0.8291481449	 0.2165398747	 0.218498
H	 0.2670317931	 1.5013023045	 2.5452427332	 0.128865
H	-1.1873864233	 0.5401572954	 2.8932995954	 0.124076
H	 0.3890720717	 0.0264011429	 3.5061726607	 0.120168
H	-1.3163793631	-1.9097599439	 1.8015010983	 0.152639
H	-0.1399820598	-2.2826581042	 0.5341678193	 0.099635
H	 1.5091043352	-2.4371674446	 2.4955387266	 0.249342
H	 0.6976954176	-3.6282607353	 4.2200987419	 0.075689
31.6105	59.9432	142.1098	154.8693	164.8201	223.3383	240.505	273.8332	318.7482	380.8714	406.515	470.4584	534.7088	550.8163	698.497	773.9979	788.4018	867.7149	947.8451	963.4538	975.5785	1013.1054	1032.6896	1045.5062	1087.6855	1103.42	1115.793	1152.7505	1206.2485	1244.1593	1261.4257	1291.6175	1361.7905	1387.951	1412.3053	1424.0397	1430.5648	1459.8559	1478.0746	1486.6654	1489.7368	1499.9198	1512.6914	1531.1897	1806.9599	2935.7669	3006.439	3037.8847	3043.5625	3094.2547	3097.0835	3102.3945	3104.5804	3134.5824	3146.4372	3473.3823	3627.6882
CC1NC1(C)CNC=O	C[C@H]1N[C@]1(C)CNC=O	
InChI=1S/C6H12N2O/c1-5-6(2,8-5)3-7-4-9/h4-5,8H,3H2,1-2H3,(H,7,9)	InChI=1S/C6H12N2O/c1-5-6(2,8-5)3-7-4-9/h4-5,8H,3H2,1-2H3,(H,7,9)/t5-,6-/m1/s1
