16
gdb 125860	3.23909	1.77714	1.22387	3.7498	76.05	-0.2344	-0.0383	0.196	983.4862	0.127909	-396.967655	-396.960774	-396.95983	-396.998986	26.545	
C	-0.0607348062	 1.5668751995	 0.0709488401	-0.393277
C	 0.0078168905	 0.0373092502	 0.0290028178	-0.050444
C	 0.8061345164	-0.5363139866	-1.135082198	-0.090907
C	 1.840003239	-1.2819572914	-0.7059076251	-0.200477
C	 1.8149380847	-1.2751527265	 0.7514436373	 0.380749
N	 2.4617079551	-1.7412818024	 1.8082149489	-0.369044
C	 1.7254566197	-1.2133345346	 2.8314928961	 0.016902
N	 0.6799733341	-0.4630754465	 2.4810156414	-0.280211
N	 0.7629938635	-0.5234520952	 1.1381799329	 0.065348
H	 0.9438547143	 1.9964623393	 0.0424820735	 0.137534
H	-0.6290059146	 1.9421176747	-0.7846174908	 0.127115
H	-0.5552288245	 1.891659423	 0.9897059123	 0.151138
H	-1.0092234974	-0.3763699527	 0.0319251388	 0.126664
H	 0.535600672	-0.3328810818	-2.1621013131	 0.121771
H	 2.5700005284	-1.801909596	-1.3083191253	 0.133436
H	 1.9636476151	-1.385625883	 3.8707194731	 0.1237
119.8974	168.4319	228.0885	298.5262	369.9039	492.1989	544.8001	665.4001	675.6397	704.8388	737.2619	805.6004	816.8054	895.775	907.5174	951.0011	986.9055	1030.345	1075.3502	1091.6066	1117.6134	1173.6461	1197.6401	1261.1759	1280.4524	1318.3607	1331.7625	1350.7085	1406.9453	1430.5705	1449.7044	1488.816	1496.7965	1568.1192	1619.3403	3030.5525	3049.7524	3128.1798	3134.5371	3230.2233	3256.633	3258.2321
CC1C=CC2=NC=NN12	C[C@H]1C=Cc2ncnn12	
InChI=1S/C6H7N3/c1-5-2-3-6-7-4-8-9(5)6/h2-5H,1H3	InChI=1S/C6H7N3/c1-5-2-3-6-7-4-8-9(5)6/h2-5H,1H3/t5-/m0/s1
