19
gdb 98540	3.74125	1.0766	0.91793	2.0541	77.07	-0.2485	-0.026	0.2225	1322.2903	0.157172	-423.014571	-423.005503	-423.004559	-423.049066	33.117	
C	-0.2429757896	 1.6681687913	-0.717092322	-0.382632
C	-0.3057729077	 0.1556371609	-0.9123617396	-0.287191
C	 0.9931767342	-0.5439702053	-0.552064572	 0.258098
O	 1.9352485941	 0.0248003139	-0.0408805012	-0.318814
C	 1.0892334725	-1.9979684528	-0.8511865133	 0.353123
C	 2.1859031173	-2.9831927787	-0.4280526804	-0.296627
C	 1.9719909674	-3.7465670607	-1.7813391886	-0.242153
C	 0.8838961202	-2.7262850068	-2.1377638289	-0.036072
O	-0.1036608178	-2.7544005604	-1.1176761551	-0.276074
H	 0.011205316	 1.9164679564	 0.3161540982	 0.134394
H	 0.5238794712	 2.1156857192	-1.3552680646	 0.126817
H	-1.2051125757	 2.1276499737	-0.9594525969	 0.110071
H	-1.0974188635	-0.2972251557	-0.300886432	 0.139369
H	-0.5724444925	-0.110324057	-1.9433340632	 0.121715
H	 3.1616513707	-2.5019051214	-0.3584422444	 0.134934
H	 1.9765473723	-3.5338147873	 0.4909109483	 0.11485
H	 2.842351621	-3.6899794331	-2.4382367455	 0.115883
H	 1.6244232562	-4.7802121425	-1.7210079947	 0.118464
H	 0.5831504137	-2.3483146137	-3.1090256439	 0.111845
56.6512	71.6649	145.2909	161.1632	205.2435	276.6635	307.6021	347.9113	487.5611	502.2991	568.0562	709.9942	743.5171	773.0625	796.6632	863.259	878.0667	918.0884	933.8721	975.3105	1011.6603	1019.46	1053.7427	1092.1235	1109.8437	1133.5745	1206.1909	1209.6999	1223.8579	1267.2845	1272.4024	1294.7237	1366.9081	1414.2895	1420.152	1441.1256	1464.9734	1485.9116	1493.5519	1498.4872	1783.0271	3031.6455	3051.159	3055.9457	3072.8422	3085.7233	3120.9562	3127.8225	3128.6491	3151.7679	3179.2344
CCC(=O)C12CCC1O2	CCC(=O)[C@]12CC[C@H]1O2	
InChI=1S/C7H10O2/c1-2-5(8)7-4-3-6(7)9-7/h6H,2-4H2,1H3	InChI=1S/C7H10O2/c1-2-5(8)7-4-3-6(7)9-7/h6H,2-4H2,1H3/t6-,7-/m1/s1
