17
gdb 124138	3.5037	0.96081	0.76116	1.8512	88.03	-0.2104	0.0108	0.2212	1478.4897	0.136016	-380.88597	-380.87657	-380.875626	-380.922514	32.632	
C	-0.0231973132	 1.5023224426	 0.0659391071	-0.508845
C	 0.0158764865	 0.0481137755	 0.0540808317	 0.182512
C	 0.0534697918	-1.1583611976	 0.0445418763	-0.107752
C	 0.0618621836	-2.5710774356	 0.0306330525	 0.06225
C	 1.1538387111	-3.4223255111	 0.1062961022	-0.163592
N	 0.6623204856	-4.6783182488	 0.0553615225	-0.188614
N	-0.6838878783	-4.7208489079	-0.0491532089	-0.271805
C	-1.0637084507	-3.4487198616	-0.0654311363	 0.240266
C	-2.5037154277	-3.0679481587	-0.17287834	-0.506844
H	 0.5498551889	 1.9264287572	-0.7667365335	 0.147127
H	-1.0516649934	 1.8701500513	-0.0210395706	 0.148868
H	 0.3941778046	 1.9079780835	 0.9948543766	 0.147102
H	 2.2087154897	-3.2162075709	 0.1899923435	 0.138123
H	 1.1753639019	-5.54237438	 0.0861663779	 0.27598
H	-2.8212380252	-2.4744006174	 0.691130299	 0.133641
H	-2.6859189305	-2.4578587334	-1.064078387	 0.133636
H	-3.1235184648	-3.9648762772	-0.2291512931	 0.137948
11.1428	81.6401	87.532	114.5215	252.6463	253.2818	297.5984	361.4186	468.9385	474.0791	506.3781	540.3076	663.85	696.9145	714.8451	791.6715	943.147	976.2814	1007.1698	1051.4419	1052.6686	1067.9366	1079.29	1175.803	1224.8908	1343.0625	1374.1148	1412.123	1414.4958	1475.8452	1476.3094	1478.6478	1479.7891	1487.8162	1515.0162	1598.5845	2357.9646	3021.3302	3037.7835	3077.9593	3084.4244	3089.5289	3136.014	3266.9877	3680.7645
CC#CC1=CNN=C1C	CC#Cc1c[nH]nc1C	
InChI=1S/C7H8N2/c1-3-4-7-5-8-9-6(7)2/h5H,1-2H3,(H,8,9)	InChI=1S/C7H8N2/c1-3-4-7-5-8-9-6(7)2/h5H,1-2H3,(H,8,9)
