16
gdb 92670	3.47984	1.2645	0.93839	3.9888	82.48	-0.2428	-0.0463	0.1966	1207.6643	0.123577	-400.7674	-400.758747	-400.757803	-400.800754	31.5	
C	-0.0315564192	 1.4078671254	 0.0088571193	-0.342916
N	-0.0183753562	-0.0339908105	-0.0011622058	-0.094269
C	-1.2053084974	-0.8531108104	 0.0037025074	-0.210876
C	-0.652707605	-2.2487677407	-0.0065562004	-0.228562
C	 0.6894654797	-2.2200290426	-0.015327292	 0.071946
C	 1.5988350021	-3.2988718107	-0.0264047095	 0.278902
C	 2.3904501892	-4.2055097874	-0.0359435776	-0.412661
C	 1.1418460543	-0.7770045312	-0.0113961065	 0.329694
O	 2.2731792392	-0.3438307807	-0.0158814222	-0.385557
H	 1.0079414732	 1.7412884002	 0.0019208156	 0.169205
H	-0.5435162876	 1.8114177973	-0.8737395333	 0.123608
H	-0.5276719838	 1.799481884	 0.9058305099	 0.123578
H	-1.8291454312	-0.6683653573	 0.8925991843	 0.127984
H	-1.8419648225	-0.6603624196	-0.8743089855	 0.128012
H	-1.2806915677	-3.1287488633	-0.0066458211	 0.124627
H	 3.0944710327	-5.0001299023	-0.0444154426	 0.197286
97.1133	132.4956	139.4553	161.9733	224.9202	299.7238	353.9395	405.3236	502.7149	508.6172	584.2187	613.0673	638.0249	708.3729	766.8454	786.0226	831.8515	961.6181	985.4929	1008.0687	1082.008	1147.3627	1192.4821	1196.0342	1265.7091	1301.3968	1325.5356	1420.7844	1447.0798	1490.9083	1492.8589	1526.7173	1666.0564	1811.6217	2235.6022	2980.8822	2997.8862	3012.5176	3060.2603	3139.9371	3235.8385	3504.8367
CN1CC=C(C#C)C1=O	CN1CC=C(C#C)C1=O	
InChI=1S/C7H7NO/c1-3-6-4-5-8(2)7(6)9/h1,4H,5H2,2H3	InChI=1S/C7H7NO/c1-3-6-4-5-8(2)7(6)9/h1,4H,5H2,2H3
