18
gdb 91272	3.22036	1.36243	1.14122	4.95	71.36	-0.2568	0.0563	0.3131	1103.4383	0.1494	-439.134698	-439.126902	-439.125958	-439.167213	30.029	
C	-0.799274174	 1.3353345509	-0.1670603187	-0.4141
C	-0.0390884047	 0.0232903206	-0.0686612421	 0.024883
C	 1.3370385943	-0.1043416408	-0.7964005232	-0.27769
C	 1.9237137359	-0.7846658009	 0.4664412448	 0.116013
O	 3.0532844489	-0.1543012933	 1.059172412	-0.244815
C	 2.6280372149	 0.7815851172	 1.9695371871	 0.471322
O	 3.3696518937	 1.4882606129	 2.5910709771	-0.389214
N	 1.2496025153	 0.7523734258	 2.0117379863	-0.360668
C	 0.6688807525	-0.3440503078	 1.2750773003	-0.043822
H	-0.1776894938	 2.1702424647	 0.1707758046	 0.127143
H	-1.099664397	 1.5339580957	-1.2010657589	 0.122688
H	-1.7077675161	 1.3189410429	 0.4455216034	 0.114382
H	-0.6895876103	-0.8116488607	-0.3512150029	 0.078585
H	 1.3573194664	-0.684289148	-1.7209977108	 0.109414
H	 1.8151157496	 0.8621139015	-0.9757629032	 0.122318
H	 2.1203537865	-1.8534934253	 0.3847396121	 0.099801
H	 0.7874023298	 1.2333634918	 2.7642483914	 0.262422
H	 0.1603869981	-1.0649955373	 1.9235587706	 0.081338
80.9675	125.7484	209.8637	229.9179	340.5557	395.8498	447.172	460.3271	567.0948	600.7237	698.3957	757.7286	767.2624	803.8075	877.3895	896.1843	919.1059	934.8905	947.7312	1025.7535	1058.9497	1108.3216	1130.7897	1143.4978	1173.6224	1211.6573	1228.6403	1259.6261	1270.8183	1290.3261	1350.6085	1363.2827	1393.2542	1411.4042	1419.2097	1479.9646	1491.8658	1501.716	1893.44	3030.745	3039.0788	3052.3573	3069.9839	3095.7797	3109.6752	3111.823	3130.3098	3671.9904
CC1CC2OC(=O)NC12	C[C@H]1C[C@H]2OC(=O)N[C@@H]12	
InChI=1S/C6H9NO2/c1-3-2-4-5(3)7-6(8)9-4/h3-5H,2H2,1H3,(H,7,8)	InChI=1S/C6H9NO2/c1-3-2-4-5(3)7-6(8)9-4/h3-5H,2H2,1H3,(H,7,8)/t3-,4+,5-/m0/s1
