23
gdb 110317	2.10272	1.47096	1.03285	1.5613	86.53	-0.2418	0.0722	0.314	1282.9947	0.204869	-388.269331	-388.259494	-388.25855	-388.303563	37.667	
C	 0.0883593993	 1.3832549416	-0.3338089146	-0.370216
C	 0.0337606263	-0.0088157394	 0.3060037336	-0.20547
C	-1.3355476845	-0.650721686	 0.1686615443	-0.034437
C	-1.9215580335	-1.2533758078	-1.0892249279	-0.131012
C	-0.915985383	-2.0763894861	-1.8766572799	 0.125297
O	 0.1012736002	-1.3202389246	-2.5071908454	-0.427806
C	-0.5818946348	-2.9091480396	-0.5905580599	-0.343994
C	-1.6615736394	-2.1182915613	 0.1672409278	 0.31664
C	-2.644742142	-2.7510246706	 1.1112134815	-0.494306
H	 1.0640250189	 1.8537793498	-0.1746890157	 0.102053
H	-0.0818586086	 1.3093779073	-1.4116680022	 0.133994
H	-0.6744215013	 2.0483782655	 0.087327745	 0.102415
H	 0.7995110515	-0.635661486	-0.1552141184	 0.106107
H	 0.2804061275	 0.0623899934	 1.3741615939	 0.082826
H	-2.1051426356	-0.0865246298	 0.6979380009	 0.075397
H	-2.8658145648	-0.9028156562	-1.4913534814	 0.075075
H	-1.428792533	-2.7107801862	-2.6122352155	 0.069829
H	 0.6716077685	-1.9265837408	-2.9906997884	 0.280862
H	-0.8298057744	-3.9681732877	-0.704941987	 0.093758
H	 0.4418125854	-2.8276318412	-0.213142726	 0.095917
H	-2.1605992398	-3.0457136809	 2.0507338055	 0.118689
H	-3.4553926632	-2.0591050461	 1.3627693538	 0.116427
H	-3.0947846496	-3.6521972573	 0.677719226	 0.111956
74.1496	155.3628	164.1165	196.91	212.5944	241.3975	269.4702	287.257	304.3167	406.0081	433.1383	483.4909	567.4046	658.9686	699.754	762.6335	819.531	854.8907	887.0117	932.1005	960.4066	976.6775	982.9009	1008.6862	1046.3624	1069.3583	1079.1732	1123.3922	1138.2669	1157.0007	1174.4659	1215.2292	1231.6899	1262.0051	1274.7523	1313.1297	1328.441	1339.51	1374.0462	1405.1065	1417.8524	1422.2643	1473.9941	1484.1923	1485.7348	1493.3754	1498.993	1503.1218	1508.8501	3001.2008	3015.3648	3016.6398	3030.0409	3048.3501	3071.4422	3087.3345	3091.3153	3094.7681	3098.5085	3112.3155	3121.0923	3167.1278	3812.1248
CCC1C2C(O)CC12C	CC[C@H]1[C@H]2[C@@H](O)C[C@@]12C	
InChI=1S/C8H14O/c1-3-5-7-6(9)4-8(5,7)2/h5-7,9H,3-4H2,1-2H3	InChI=1S/C8H14O/c1-3-5-7-6(9)4-8(5,7)2/h5-7,9H,3-4H2,1-2H3/t5-,6-,7-,8-/m0/s1
