20
gdb 104527	2.1805	1.32075	0.98024	4.7098	78.5	-0.2549	0.0284	0.2833	1271.3099	0.170322	-403.144769	-403.135309	-403.134365	-403.179456	34.281	
C	 0.0804983594	 1.573513989	-0.0738990452	-0.401892
C	-0.0281148094	 0.0584246763	 0.1313540628	-0.240766
C	-1.4465648791	-0.5221483148	 0.0295379722	 0.276339
C	-2.3746057665	 0.0900378592	 1.0953295219	-0.419119
C	-3.7269206968	-0.4650795651	 1.1006181041	 0.262635
N	-4.7950172454	-0.9065083181	 1.0989166821	-0.310693
C	-1.9792541568	-0.5902089532	-1.4262880869	-0.114707
O	-1.6823832795	-1.9969656112	-1.5073964666	-0.270934
C	-1.4341251066	-2.0682840004	-0.0902466584	-0.122257
H	 1.1298045637	 1.8815066628	-0.0924332898	 0.126248
H	-0.3693671219	 1.8841220333	-1.0231207582	 0.125205
H	-0.4066524768	 2.1379388844	 0.7274679009	 0.120864
H	 0.5860132935	-0.4520171572	-0.6196324899	 0.118285
H	 0.3949970839	-0.2129897702	 1.1080657661	 0.100271
H	-1.9399044508	-0.05578989	 2.092303755	 0.15274
H	-2.4568823565	 1.1726158982	 0.9489312322	 0.157246
H	-3.0544932999	-0.3935905058	-1.5296032658	 0.11654
H	-1.4321693062	-0.0087085696	-2.1773556439	 0.103736
H	-0.4840436138	-2.564502177	 0.1409554411	 0.102455
H	-2.2489657943	-2.5766896306	 0.4411688663	 0.117804
77.4782	82.7422	117.7248	155.5384	211.9401	248.3651	299.0468	342.7927	391.1835	394.2321	440.4944	545.5709	681.6061	787.5578	829.9985	853.6915	886.4354	951.6535	982.1388	994.9865	1011.6791	1039.6089	1045.0548	1060.588	1140.1623	1163.7598	1167.2894	1211.1797	1241.9585	1269.9084	1317.7386	1327.76	1346.0479	1373.1697	1395.4603	1416.8796	1462.5363	1484.4375	1502.6739	1508.5151	1512.4185	1535.6843	2360.5776	3007.5342	3015.166	3019.4971	3035.7513	3038.1088	3058.5051	3060.9444	3063.6486	3078.3439	3104.7265	3110.3676
CCC1(CC#N)COC1	CCC1(CC#N)COC1	
InChI=1S/C7H11NO/c1-2-7(3-4-8)5-9-6-7/h2-3,5-6H2,1H3	InChI=1S/C7H11NO/c1-2-7(3-4-8)5-9-6-7/h2-3,5-6H2,1H3
