17
gdb 73232	2.20038	1.98724	1.39962	2.4085	67.71	-0.2365	-0.0391	0.1975	971.1443	0.135085	-458.960895	-458.952842	-458.951898	-458.99358	30.028	
C	-0.1906662067	 1.4704013333	 0.0382416104	-0.47275
C	 0.0669389862	-0.013020427	 0.0248690148	 0.285732
O	-1.1308631157	-0.8214227109	 0.2406346464	-0.323842
C	-0.522451308	-1.5155542597	 1.357167557	-0.110476
C	 0.8079103086	-0.7653758482	 1.1506149029	 0.021726
O	 1.871575966	-1.5156720695	 0.5818890102	-0.269622
C	 1.6480492725	-1.6958723331	-0.8098161109	-0.200877
C	 0.7420033008	-0.5458623468	-1.2506681136	 0.36113
O	 0.5737660562	-0.1436012522	-2.3698045118	-0.301341
H	 0.753629858	 2.0240282575	 0.0103659595	 0.128892
H	-0.7711916547	 1.7477323028	-0.8464309027	 0.152118
H	-0.7450771627	 1.7604077035	 0.9345911534	 0.12526
H	-1.0475863929	-1.3007578798	 2.2950378021	 0.11218
H	-0.4697264098	-2.5992362709	 1.2054951559	 0.114625
H	 1.2061330306	-0.2100271068	 2.0001394817	 0.102068
H	 2.6063572411	-1.6724771047	-1.3350375309	 0.143511
H	 1.1575564304	-2.6570319374	-1.0299812344	 0.131668
84.3541	141.9551	193.6582	203.9862	262.1101	293.0945	395.5207	479.0321	528.7026	616.3105	637.8018	668.7576	806.5667	845.3317	882.7584	912.4887	986.765	1003.1815	1012.6724	1061.2089	1085.8682	1101.3761	1132.5959	1161.7424	1198.2883	1211.9216	1228.9309	1306.7838	1320.0019	1335.6419	1380.3138	1406.0576	1478.0174	1482.9348	1484.3635	1513.4522	1860.6837	2989.6223	3027.7313	3041.3308	3079.4706	3097.9429	3113.6608	3114.4876	3126.0514
CC12OCC1OCC2=O	C[C@]12OC[C@H]1OCC2=O	
InChI=1S/C6H8O3/c1-6-4(7)2-8-5(6)3-9-6/h5H,2-3H2,1H3	InChI=1S/C6H8O3/c1-6-4(7)2-8-5(6)3-9-6/h5H,2-3H2,1H3/t5-,6-/m1/s1
