23
gdb 120987	3.90948	0.86697	0.8136	0.9077	86.29	-0.2496	0.0821	0.3317	1534.9362	0.206064	-388.250723	-388.241441	-388.240496	-388.285748	34.501	
C	 0.1467809075	 1.3710559843	-0.0807908893	-0.223182
O	 0.1159909394	-0.0332062943	-0.0264910471	-0.232889
C	 0.6635196074	-0.5523788348	 1.1691746424	-0.07791
C	 0.6147882084	-2.0645945173	 1.0933361739	 0.026387
C	 1.5648608014	-2.8089914438	 0.1070721673	-0.248052
C	 1.9297952506	-3.8286647142	 1.2263196443	-0.005198
C	 3.265218271	-3.5473754413	 1.9525489813	-0.217685
C	 2.5424072784	-2.5161700583	 2.8719482578	-0.233644
C	 1.1645559651	-2.9238582112	 2.2613345742	-0.052416
H	 1.1758086406	 1.7622257585	-0.0270961264	 0.100424
H	-0.2951366002	 1.6736410043	-1.0336221279	 0.124539
H	-0.4322897309	 1.8266550606	 0.7389580891	 0.100542
H	 1.6999898213	-0.1945548625	 1.2927511474	 0.079212
H	 0.0921037412	-0.1912322588	 2.0435495982	 0.080104
H	-0.4229339537	-2.3516782066	 0.8930044348	 0.078949
H	 1.0777388594	-3.226353815	-0.7762980369	 0.102419
H	 2.4162892457	-2.2086687766	-0.2309964568	 0.092575
H	 1.6614421974	-4.8682859631	 1.0330641919	 0.059664
H	 3.636464064	-4.4119772136	 2.5098853174	 0.096852
H	 4.0813921264	-3.1689999625	 1.3289658794	 0.092228
H	 2.6314534386	-2.7289747316	 3.9397952162	 0.100674
H	 2.8326376713	-1.4736073314	 2.7194097233	 0.098287
H	 0.4344342398	-3.3104379409	 2.9746675354	 0.05812
53.0793	74.4889	99.2926	132.9749	231.4458	260.6696	337.3182	343.687	404.4802	490.8881	640.2114	729.9862	745.662	796.993	848.6101	868.8911	896.5359	904.9067	958.2246	967.2555	992.4595	1019.0427	1053.9746	1085.1012	1115.2185	1141.6469	1144.8063	1162.3147	1179.9987	1198.9215	1213.6424	1223.4697	1236.1675	1247.9136	1262.9579	1269.4813	1277.7566	1296.1512	1307.1996	1323.7893	1362.3819	1425.3502	1475.8326	1481.1756	1481.4182	1485.0488	1496.7485	1503.1357	1525.1953	2937.7345	2964.6034	2970.6195	3005.6815	3043.7352	3045.4617	3049.6519	3062.9547	3079.3602	3089.4622	3093.3969	3109.274	3109.9201	3115.8287
COCC1CC2CCC12	COC[C@H]1C[C@H]2CC[C@@H]12	
InChI=1S/C8H14O/c1-9-5-7-4-6-2-3-8(6)7/h6-8H,2-5H2,1H3	InChI=1S/C8H14O/c1-9-5-7-4-6-2-3-8(6)7/h6-8H,2-5H2,1H3/t6-,7-,8-/m1/s1
