22
gdb 114760	3.82566	1.03854	0.88286	1.5024	88.14	-0.2325	0.0155	0.2481	1387.3548	0.196256	-367.2031	-367.194481	-367.193537	-367.236459	33.713	
C	-0.1184524196	 1.5237942028	 0.1887613654	-0.392772
C	-0.0724009707	 0.0095970012	-0.037147384	-0.177632
C	 0.7373976968	-0.4256714322	-1.2736137319	-0.022367
C	 1.0225554571	-1.9440766562	-1.2328249833	-0.216945
C	 1.6089262246	-2.4770505509	-2.5350640064	-0.056807
N	 0.6659822919	-3.1817575262	-3.4321109645	-0.337952
C	 1.1856970711	-1.8390791533	-3.805015162	-0.06724
C	 0.2426400161	-0.6963776357	-3.7184489794	-0.068867
C	 0.0535672235	-0.0441490013	-2.5708784253	-0.039239
H	 0.8894084954	 1.9319363905	 0.3247108847	 0.113868
H	-0.5757323614	 2.0530552269	-0.6535304754	 0.119056
H	-0.6999329253	 1.7696010892	 1.0828233863	 0.113308
H	 0.3654759174	-0.4684027333	 0.8484259229	 0.091692
H	-1.0926100884	-0.3872077757	-0.1233414466	 0.099256
H	 1.7031535432	 0.1043491619	-1.2318959585	 0.078467
H	 1.6941933188	-2.1662944613	-0.3958292016	 0.089561
H	 0.0821407073	-2.4721085274	-1.0411701196	 0.114001
H	 2.62395725	-2.863252769	-2.4849235888	 0.080425
H	 1.1691044202	-3.8897017119	-3.9637609666	 0.224315
H	 1.9003488795	-1.8048396649	-4.6254190419	 0.084113
H	-0.2833567622	-0.3975163473	-4.6215772062	 0.085891
H	-0.6288011652	 0.8019546343	-2.5444676974	 0.085869
72.7103	106.4205	193.3811	207.2334	250.499	332.2513	368.6071	433.7509	474.7814	525.5142	575.739	722.6	737.1714	779.2114	818.9521	822.0447	903.0004	920.0668	928.2339	957.226	978.5761	995.0973	997.5554	1045.0364	1072.7712	1103.5963	1134.353	1143.76	1165.2323	1193.7842	1221.1603	1252.3904	1268.0022	1278.1699	1304.2833	1341.2349	1356.361	1376.3128	1395.951	1413.2364	1427.0135	1455.1288	1477.1609	1488.7959	1500.4546	1505.937	1708.5419	2964.1626	3016.2241	3032.0017	3033.4263	3049.3096	3078.8847	3097.7968	3102.4894	3115.4299	3133.9203	3145.5568	3168.5657	3479.4565
CCC1CC2NC2C=C1	CC[C@H]1C[C@H]2N[C@H]2C=C1	
InChI=1S/C8H13N/c1-2-6-3-4-7-8(5-6)9-7/h3-4,6-9H,2,5H2,1H3	InChI=1S/C8H13N/c1-2-6-3-4-7-8(5-6)9-7/h3-4,6-9H,2,5H2,1H3/t6-,7+,8-/m1/s1
