14
gdb 42309	3.61923	1.18472	1.00286	3.9818	69.01	-0.2599	-0.0893	0.1707	1140.7619	0.100049	-436.695579	-436.687505	-436.686561	-436.729405	28.138	
O	-0.154700613	-0.0432679099	-0.0653999435	-0.251103
C	-0.1049502786	 1.1547450763	-0.0280401855	 0.288975
C	 1.1861462164	 1.8680871724	 0.1211586731	 0.212212
N	 2.1695176755	 2.4644708501	 0.242874828	-0.295878
C	-1.3197669021	 2.0953853785	-0.0987812735	-0.036195
O	-2.4765519981	 1.3874918734	-0.4621145454	-0.247056
C	-3.3765237045	 1.3093166838	 0.6480819717	-0.120399
C	-2.7767137203	 2.2074219685	 1.6915714321	-0.078613
C	-1.6078337605	 2.6768565157	 1.2716584539	-0.111906
H	-1.0933020259	 2.8690584262	-0.8505317291	 0.124181
H	-4.3718541581	 1.6373556844	 0.3195468439	 0.12338
H	-3.4645900577	 0.2690805495	 0.9942795133	 0.128907
H	-3.2553475745	 2.4188772181	 2.6389122369	 0.12528
H	-0.9292222187	 3.339263013	 1.7909599642	 0.138216
49.2818	77.1499	127.1103	198.321	278.9069	294.2433	420.1942	452.9436	585.2462	684.6515	720.581	766.7749	820.2815	884.8508	935.0523	943.8907	958.6783	1004.4722	1044.5417	1055.4	1120.7395	1160.3204	1200.3828	1246.9161	1329.3773	1349.7697	1386.1374	1513.4841	1682.4268	1816.6916	2333.3924	2976.5601	3000.473	3032.1569	3219.5728	3245.4552
O=C(C#N)C1OCC=C1	O=C(C#N)[C@H]1OCC=C1	
InChI=1S/C6H5NO2/c7-4-5(8)6-2-1-3-9-6/h1-2,6H,3H2	InChI=1S/C6H5NO2/c7-4-5(8)6-2-1-3-9-6/h1-2,6H,3H2/t6-/m0/s1
