18
gdb 18068	5.11848	1.14428	1.11718	3.1006	72.41	-0.2423	-0.0175	0.2249	1109.221	0.153724	-347.78077	-347.773099	-347.772155	-347.813708	28.317	
O	-0.3750362546	 0.2057350753	-0.1577410727	-0.241395
C	 0.0758941902	 1.3144701394	-0.0264796731	 0.166134
C	 1.4905415415	 1.7252345431	-0.3738388403	-0.309685
C	 1.5039992367	 2.9159730229	-1.320038437	-0.011679
C	 1.2645752139	 4.3528259316	-0.9281360691	-0.062929
C	 1.897318787	 4.6925153633	 0.4286829201	-0.230738
C	 3.2867181265	 4.2315050437	-0.1186025411	-0.229304
C	 2.6314098091	 3.9042229952	-1.4661028004	-0.078135
H	-0.5529610338	 2.1460604911	 0.3694343908	 0.074455
H	 1.995248081	 1.9762298713	 0.5679721115	 0.120873
H	 2.0076164173	 0.863996212	-0.8078619244	 0.119664
H	 1.0513033979	 2.6848793072	-2.2827888775	 0.0977
H	 0.5026150393	 4.9461943935	-1.4197996296	 0.087182
H	 1.8780706557	 5.7637409253	 0.6387917386	 0.108688
H	 1.4994044411	 4.1680340868	 1.3039805469	 0.094762
H	 3.9931406273	 5.0609874506	-0.1886064526	 0.107805
H	 3.7837208535	 3.404161043	 0.3989563778	 0.098674
H	 3.0778091904	 4.0949860147	-2.4349757779	 0.08793
57.9859	63.808	177.6842	231.7936	285.596	437.7554	465.9274	545.4415	718.4053	751.4653	783.1718	795.2283	831.2637	897.1704	941.3967	951.5424	981.1678	1008.8454	1024.8555	1052.5396	1069.6897	1092.7757	1122.8966	1147.0202	1185.4882	1222.4092	1239.4694	1250.4488	1263.5675	1291.3855	1307.4563	1352.7906	1426.8494	1439.8469	1457.9908	1487.3779	1508.3814	1834.1757	2860.3616	3032.6755	3042.5599	3050.3249	3091.9543	3098.3445	3116.0532	3125.9373	3172.0138	3183.8505
O=CCC1C2CCC12	O=CC[C@H]1[C@H]2CC[C@@H]12	
InChI=1S/C7H10O/c8-4-3-7-5-1-2-6(5)7/h4-7H,1-3H2	InChI=1S/C7H10O/c8-4-3-7-5-1-2-6(5)7/h4-7H,1-3H2/t5-,6+,7-
