21
gdb 100650	2.48313	1.08968	0.96676	0.4155	80.71	-0.2504	0.0367	0.287	1358.2649	0.177531	-424.190895	-424.179574	-424.17863	-424.226756	41.625	
C	-0.0941203225	 1.6108435627	-0.0841743069	-0.390441
C	-0.0109444272	 0.08303407	-0.0187874919	-0.205666
C	 0.807872919	-0.5058412568	-1.1716452669	 0.117857
O	 2.1687560468	-0.1033541355	-1.1241521961	-0.430108
C	 0.6776029971	-2.0623669162	-1.2926431824	 0.136875
C	 1.1952542001	-2.7973161214	-0.0499064136	-0.419282
O	-0.7086865358	-2.4097309902	-1.4079549578	-0.448452
C	 1.4032428505	-2.5085445691	-2.4898790959	 0.320553
C	 1.94449262	-2.8708389146	-3.5002717422	-0.470061
H	 0.9047934712	 2.0556791904	-0.105370794	 0.125274
H	-0.6206487858	 1.937166974	-0.987794269	 0.115456
H	-0.6318592403	 2.0140503412	 0.7790570283	 0.11106
H	 0.4437200407	-0.2197379402	 0.9351491668	 0.086256
H	-1.010321082	-0.3610273287	-0.039867366	 0.119125
H	 0.4292521374	-0.0960449774	-2.1174271018	 0.082194
H	 2.4935702105	-0.2629563479	-0.2314620306	 0.2811
H	 0.5876277788	-2.5397147201	 0.8208285089	 0.12897
H	 1.1313762178	-3.8753731807	-0.2085475386	 0.137805
H	 2.2397871842	-2.5407149623	 0.1439731449	 0.118538
H	-0.9815235201	-2.220653844	-2.3124084236	 0.285326
H	 2.4375601298	-3.1892254132	-4.3855299415	 0.197622
69.1539	93.1557	123.5796	179.219	207.4086	229.735	241.1136	267.4284	274.823	286.1702	307.6113	365.7919	412.0661	450.7056	495.4662	570.6333	614.8594	632.5284	661.5701	748.1253	786.904	883.8626	939.8466	960.5556	990.3013	1042.3311	1092.2917	1095.7682	1134.0568	1164.5614	1200.5867	1254.5483	1293.929	1331.3052	1362.6407	1389.5952	1402.9297	1413.2827	1420.8315	1484.6921	1488.1238	1496.4879	1497.9102	1509.315	2230.9061	3008.2309	3027.0394	3036.977	3055.7276	3087.2746	3103.6071	3117.8895	3133.3317	3139.5528	3500.401	3806.6623	3811.5705
CCC(O)C(C)(O)C#C	CC[C@@H](O)[C@@](C)(O)C#C	
InChI=1S/C7H12O2/c1-4-6(8)7(3,9)5-2/h2,6,8-9H,4H2,1,3H3	InChI=1S/C7H12O2/c1-4-6(8)7(3,9)5-2/h2,6,8-9H,4H2,1,3H3/t6-,7+/m1/s1
