21
gdb 69451	2.94243	1.12471	1.07029	3.0115	82.76	-0.2424	-0.0176	0.2248	1251.9501	0.182643	-387.109623	-387.100809	-387.099865	-387.1434	33.645	
C	 0.0868973793	 1.5090735303	 0.2379059086	-0.482935
C	 0.1323478655	 0.0125704684	 0.0426634392	 0.375004
C	-0.9488453247	-0.8571883719	 0.6374632549	-0.352393
C	 0.4663027394	-0.9539117227	 1.1636557573	-0.079226
C	 1.3347845109	-2.0879391829	 0.6206444711	-0.080365
C	 1.1418124219	-1.9997392643	-0.9239536887	-0.267785
C	 0.7876950182	-0.5257557665	-1.2253761784	-0.26527
C	 2.7823967317	-1.8494615292	 0.9938702236	 0.159645
O	 3.4639493252	-2.6041648242	 1.6387836249	-0.25385
H	 1.089308663	 1.948719338	 0.1720351194	 0.115153
H	-0.5352793795	 1.98978938	-0.5262483516	 0.118953
H	-0.3304599492	 1.772072045	 1.214948709	 0.116005
H	-1.6713265435	-0.3692344181	 1.2834564726	 0.111822
H	-1.3619214482	-1.6811426388	 0.0640941326	 0.109682
H	 0.6582723919	-0.5967512042	 2.1705671622	 0.089282
H	 1.0553705349	-3.0702128101	 1.0139659397	 0.089637
H	 2.0255656373	-2.3381912344	-1.4729044131	 0.110848
H	 0.3246361846	-2.6641917973	-1.2164815884	 0.116398
H	 0.1490460383	-0.4318858853	-2.1110818557	 0.099876
H	 1.6961827462	 0.0553119012	-1.4271114743	 0.100947
H	 3.2001338067	-0.8850482231	 0.616140805	 0.068571
55.3246	98.5556	182.8635	208.7863	289.425	305.0127	346.5941	362.5135	417.6932	457.7423	556.3224	679.4135	724.4006	815.5636	825.2429	884.7278	911.3634	921.9222	947.7514	973.3182	995.3335	1011.9223	1059.0794	1061.1356	1075.9804	1089.8362	1119.7168	1138.3003	1204.5103	1208.0083	1258.7844	1278.799	1285.0281	1316.7176	1330.6861	1343.9	1406.4129	1423.5242	1429.2272	1488.4671	1489.3296	1492.3961	1503.2877	1516.714	1832.5597	2840.5129	3020.3855	3026.4211	3056.8625	3063.6935	3069.4649	3079.1142	3098.3011	3100.455	3126.0125	3157.9263	3207.6265
CC12CC1C(CC2)C=O	C[C@]12C[C@H]1[C@@H](CC2)C=O	
InChI=1S/C8H12O/c1-8-3-2-6(5-9)7(8)4-8/h5-7H,2-4H2,1H3	InChI=1S/C8H12O/c1-8-3-2-6(5-9)7(8)4-8/h5-7H,2-4H2,1H3/t6-,7-,8-/m0/s1
