13
gdb 42243	3.7932	1.03691	0.82285	2.7129	66.59	-0.2884	-0.0729	0.2154	1262.3136	0.087686	-452.769383	-452.761028	-452.760084	-452.804369	28.397	
O	-0.0241207349	-0.0428680628	 0.325724244	-0.339483
C	-0.059952948	 1.1555952	 0.1437123719	 0.331129
C	 1.1579402067	 1.9927467954	 0.1843720625	 0.224117
N	 2.1236242654	 2.6261525728	 0.2211550208	-0.320763
N	-1.1762811864	 1.8672167067	-0.1122774159	-0.112678
C	-1.4606741398	 3.2902377523	-0.3599176994	-0.299657
C	-2.9436384753	 2.8586576378	-0.4955171461	 0.388643
O	-3.9600690555	 3.4325917147	-0.7165765473	-0.249745
C	-2.5578160108	 1.3859315248	-0.2267840126	-0.291336
H	-1.2489552915	 3.9571714315	 0.4826386309	 0.167724
H	-1.0132606889	 3.6988814094	-1.2722480398	 0.16772
H	-2.7312108331	 0.6952881826	-1.0591382635	 0.167161
H	-2.9663199378	 0.9534065047	 0.6929553946	 0.167169
17.1755	105.9523	112.2137	171.415	225.935	328.4938	437.8319	439.0459	465.4763	536.9183	661.5325	724.7449	750.1112	762.1805	903.3162	1019.2251	1038.6275	1058.4557	1104.8968	1164.1489	1167.9437	1269.3849	1281.5765	1444.1779	1461.2369	1483.6483	1775.1524	1945.0506	2349.7259	3041.5404	3049.5117	3096.0007	3097.262
O=C(C#N)N1CC(=O)C1	O=C(C#N)N1CC(=O)C1	
InChI=1S/C5H4N2O2/c6-1-5(9)7-2-4(8)3-7/h2-3H2	InChI=1S/C5H4N2O2/c6-1-5(9)7-2-4(8)3-7/h2-3H2
