16
gdb 57740	2.69758	1.10507	0.84158	4.3766	69.94	-0.2277	-0.0378	0.1899	1320.525	0.12199	-471.225617	-471.215957	-471.215013	-471.260526	34.286	
N	 0.0787033301	 1.0540778048	 0.7983367966	-0.544817
C	 0.0061074201	-0.1024817724	 0.0663959323	 0.419082
N	 1.2297868027	-0.6529444233	-0.2837244123	-0.549238
N	-1.0726254129	-0.6535342022	-0.382609245	-0.344886
C	-2.3189934509	 0.0738646873	-0.2309529839	-0.147755
C	-3.3263003467	-0.450293893	-1.2421244154	 0.153761
O	-4.5167494324	-0.4391602819	-1.0563765863	-0.25437
C	-2.8619247779	-0.0655300511	 1.1944893088	 0.171865
O	-2.4540380505	 0.5991028428	 2.1203042736	-0.272517
H	 0.985837855	 1.3910081616	 1.0741083344	 0.250982
H	-0.6972772094	 1.2588825808	 1.4169382941	 0.282737
H	 1.9141344476	-0.7101885968	 0.4573633936	 0.24763
H	 1.115863762	-1.5251584447	-0.780384378	 0.259935
H	-2.2047507855	 1.1577345642	-0.4223659109	 0.117687
H	-2.8668075187	-0.8521680477	-2.1700057762	 0.092162
H	-3.6224033825	-0.8538913583	 1.3502757945	 0.11774
72.4412	99.6658	116.147	144.9167	198.1859	218.5614	325.0903	347.7832	361.9906	431.9949	463.2478	530.0497	576.7758	607.335	642.5379	675.7985	747.6118	847.4401	917.2339	989.6696	1072.0973	1085.6352	1095.6627	1108.9992	1221.7574	1255.1176	1300.608	1389.6827	1415.6519	1454.7632	1627.3308	1644.7895	1712.2869	1794.7096	1826.4703	2915.5704	2930.2581	2961.3892	3510.3624	3559.4557	3666.6853	3683.5302
NC(N)=NC(C=O)C=O	NC(=NC(C=O)C=O)N	
InChI=1S/C4H7N3O2/c5-4(6)7-3(1-8)2-9/h1-3H,(H4,5,6,7)	InChI=1S/C4H7N3O2/c5-4(6)7-3(1-8)2-9/h1-3H,(H4,5,6,7)
