14
gdb 133767	2.00738	1.69014	1.22859	2.8791	50.42	-0.2827	0.047	0.3297	1008.7126	0.09553	-605.296345	-605.2877	-605.286756	-605.330477	30.76	
O	 0.4605473913	 0.7998684207	-0.8647112159	-0.399106
C	-0.0830610143	 0.2036591174	 0.293324049	-0.153408
C	-1.4152612379	-0.4886695739	 0.0531716446	 0.177775
C	-1.5024658279	-1.9434766448	-0.1442554719	-0.225042
O	-1.845089369	-1.3397651275	 1.1062578888	-0.25209
C	-2.5208465494	 0.3716827681	-0.5453084371	 0.268678
F	-2.2499258516	 0.6719691097	-1.8237134664	-0.072257
F	-3.6994966076	-0.2578925514	-0.5165708547	-0.069831
F	-2.6504962195	 1.5220630522	 0.1269053597	-0.07502
H	 0.5654877267	 0.1206538922	-1.5390537479	 0.288813
H	 0.5924840207	-0.5307601663	 0.7557930416	 0.106556
H	-0.2308409644	 1.016127371	 1.0106673364	 0.139508
H	-2.3378582887	-2.3648616212	-0.6975016102	 0.141478
H	-0.5845985685	-2.5292358162	-0.144128396	 0.123947
43.2645	93.1809	183.7315	214.121	265.7796	296.6186	343.266	380.4682	422.9761	484.6935	521.4187	584.0519	630.4033	756.9715	873.8644	914.5613	941.1506	1030.6118	1091.1401	1127.0052	1140.6273	1178.4769	1201.895	1214.7581	1217.1452	1340.8827	1356.95	1420.5391	1436.7046	1499.9873	1522.9079	3002.0632	3095.4757	3096.6445	3193.6381	3814.9069
OCC1(CO1)C(F)(F)F	OC[C@]1(CO1)C(F)(F)F	
InChI=1S/C4H5F3O2/c5-4(6,7)3(1-8)2-9-3/h8H,1-2H2	InChI=1S/C4H5F3O2/c5-4(6,7)3(1-8)2-9-3/h8H,1-2H2/t3-/m0/s1
