16
gdb 126075	3.88537	1.11694	1.02714	3.8276	71.51	-0.2643	-0.0202	0.2441	1181.7915	0.124142	-437.858221	-437.850455	-437.849511	-437.891242	28.648	
C	-0.1344749325	 1.5097158748	-0.1805257166	-0.433426
C	-0.0441986896	 0.0261737808	 0.0487948902	 0.080887
O	 1.2318288671	-0.5926342798	-0.1138660578	-0.239179
C	 0.6653962362	-0.5989431309	 1.1925035116	-0.06004
C	 1.3454536059	 0.1616468748	 2.2667219689	 0.38498
N	 2.2295034577	 1.1038238994	 2.0201463679	-0.201584
O	 2.6265230872	 1.5822328498	 3.2642196682	-0.158078
C	 1.9733295438	 0.909326039	 4.2203691764	 0.085835
C	 1.1441463809	-0.0102549407	 3.6696330632	-0.342755
H	 0.6871614379	 2.0338608241	 0.3104735978	 0.162855
H	-0.0927001004	 1.7222691407	-1.2538094461	 0.131272
H	-1.0872159779	 1.8933036005	 0.2003467206	 0.118478
H	-0.8658933297	-0.56121477	-0.3679377286	 0.093376
H	 0.3083588623	-1.5753135142	 1.5242452716	 0.096883
H	 2.2043418039	 1.1906572549	 5.2361485554	 0.155946
H	 0.4913458973	-0.7061900933	 4.1695234873	 0.124551
51.12	132.8745	176.572	208.7609	290.7702	385.6044	426.9969	506.5095	613.109	699.6999	749.4453	799.0465	799.2786	860.7269	869.2282	918.2472	946.1124	980.7715	1004.3815	1049.5144	1080.5901	1089.7316	1158.6238	1166.4734	1173.2902	1259.8383	1292.8347	1377.641	1407.6659	1436.9914	1469.5436	1487.6625	1496.3659	1509.2329	1605.9463	3039.6908	3079.067	3097.4805	3101.446	3145.8215	3261.8066	3285.5122
CC1OC1C1=NOC=C1	C[C@H]1O[C@H]1c1nocc1	
InChI=1S/C6H7NO2/c1-4-6(9-4)5-2-3-8-7-5/h2-4,6H,1H3	InChI=1S/C6H7NO2/c1-4-6(9-4)5-2-3-8-7-5/h2-4,6H,1H3/t4-,6-/m1/s1
