18
gdb 76861	3.23433	1.44169	1.20431	1.4479	70.13	-0.2259	0.0399	0.2658	1045.2421	0.148258	-438.995449	-438.98782	-438.986876	-439.027238	30.659	
O	 0.1466953099	 1.3770295227	-0.1458017429	-0.4413
C	 0.0731088209	-0.0205873301	-0.066023697	 0.092855
C	 0.3344151172	-0.5737700001	 1.4003413095	 0.037938
O	 0.4177491141	 0.4732912422	 2.353825432	-0.436295
C	-1.0982888613	-1.1612452962	 1.4186379983	 0.014157
C	-1.3658410385	-0.6253965693	-0.00488084	-0.0856
C	-1.5587903399	-2.0935937755	-0.4204821521	-0.030778
C	-0.4157933548	-2.9615883607	-0.0844336237	-0.25096
N	-1.3470183996	-2.6022305288	 1.0047881229	-0.155118
H	-0.0769078534	 1.7030410211	 0.7378669707	 0.280878
H	 0.7149230007	-0.4320085015	-0.8508627288	 0.08229
H	 1.1600866379	-1.2847767077	 1.5203888821	 0.07876
H	 1.3154368423	 0.822956263	 2.3320255393	 0.294935
H	-1.6939374803	-0.8986104683	 2.2921252169	 0.094955
H	-2.1831116002	 0.0549139877	-0.2381818126	 0.081862
H	-2.3895862866	-2.4512228378	-1.0206344384	 0.097555
H	-0.5010732463	-4.0105457933	-0.3529396019	 0.124264
H	 0.6060709183	-2.5965911175	-0.0933446941	 0.119601
119.9509	206.4955	250.4959	291.8416	299.2391	343.1475	381.3761	531.0645	566.521	598.0621	705.6051	722.5202	791.3786	811.4218	852.9905	898.0655	920.8518	944.842	980.9949	995.0883	1037.7676	1057.7264	1097.6191	1104.1628	1131.5403	1137.786	1167.8808	1192.7443	1212.615	1221.095	1235.1349	1260.7439	1279.7527	1293.6552	1328.3152	1360.4443	1421.0493	1446.2641	1510.5133	3032.1025	3064.0369	3118.1036	3126.087	3129.7451	3158.213	3203.7619	3729.0161	3807.8186
OC1C(O)C2C1C1CN21	O[C@H]1[C@@H](O)[C@H]2[C@@H]1[C@H]1CN21	
InChI=1S/C6H9NO2/c8-5-3-2-1-7(2)4(3)6(5)9/h2-6,8-9H,1H2	InChI=1S/C6H9NO2/c8-5-3-2-1-7(2)4(3)6(5)9/h2-6,8-9H,1H2/t2-,3+,4-,5-,6+,7?/m1/s1
