19
gdb 85149	2.03117	1.70779	0.99729	0.6282	79.68	-0.2525	-0.0185	0.234	1207.0242	0.158262	-419.249639	-419.240268	-419.239324	-419.283971	34.211	
C	-0.4755784033	 1.3285063079	 0.3191827393	-0.405618
C	 0.0619434771	-0.0412019983	-0.0593625128	 0.053387
C	 1.0413895747	-0.1236211899	-1.2705706579	-0.348618
C	 2.0920282853	-0.6305285892	-0.2925158713	 0.400169
N	 3.2922224275	-0.9848350171	-0.4492367489	-0.542861
N	 1.1775051409	-0.5345579949	 0.7831492684	-0.130936
C	 1.1383163069	-0.875219046	 2.1205247925	 0.385242
C	 2.4270123475	-1.4067443484	 2.7137711264	-0.501989
O	 0.1116850634	-0.743718839	 2.7565808917	-0.345432
H	 0.3313477871	 2.0678508916	 0.3571070356	 0.117531
H	-1.2096032408	 1.65899867	-0.4228929983	 0.122057
H	-0.9594425968	 1.2891148974	 1.2972261193	 0.154861
H	-0.7479116088	-0.7757741761	-0.0998360342	 0.102447
H	 0.7740315116	-0.8387317871	-2.050110393	 0.136045
H	 1.2862421741	 0.8370167283	-1.7284525938	 0.133904
H	 3.737253918	-1.2793377986	 0.4183296437	 0.220718
H	 2.7439335454	-2.3208521776	 2.2006457797	 0.148986
H	 3.2327385332	-0.6713790173	 2.6198683721	 0.14826
H	 2.2560248069	-1.6246353357	 3.7677669715	 0.151849
83.4405	102.0065	116.9236	174.2991	186.0545	246.687	293.3109	373.0352	414.0317	429.9912	513.0212	591.3281	607.2343	655.8259	717.7981	838.0321	854.3276	910.1699	929.4224	974.7137	1032.4663	1055.7851	1071.1035	1106.9721	1122.4695	1163.2279	1191.4913	1233.9509	1245.4056	1321.9906	1370.224	1379.4026	1399.6191	1408.7258	1465.5296	1471.8498	1480.4179	1486.0684	1504.8405	1775.0198	1784.8436	3039.089	3041.0073	3064.4283	3084.8104	3106.3662	3108.3278	3136.216	3139.9517	3159.7978	3505.8292
CC1CC(=N)N1C(C)=O	C[C@H]1C[C]([NH])N1C(=O)C	
InChI=1S/C6H10N2O/c1-4-3-6(7)8(4)5(2)9/h4,7H,3H2,1-2H3	InChI=1S/C6H10N2O/c1-4-3-6(7)8(4)5(2)9/h4,7H,3H2,1-2H3/t4-/m0/s1
