13
gdb 99423	1.76748	1.52703	1.33483	2.8937	69.32	-0.3166	-0.0518	0.2648	1072.1786	0.085405	-415.55129	-415.541839	-415.540894	-415.585597	32.547	
C	-0.0397082413	 1.4136859079	 0.0530395055	-0.273369
O	 0.0032882287	-0.0159569061	 0.0018156148	-0.242346
C	 0.6441244777	-0.5644572459	-1.1218340984	-0.082746
C	 0.5952448189	-2.0256734585	-1.0096521556	 0.306946
C	 0.5641829156	-3.2211203657	-0.9344321482	-0.349259
C	-0.0322801685	-0.147643748	-2.3878815483	 0.300778
N	-0.584303554	 0.1942717072	-3.3423217655	-0.321229
C	 2.0712053469	-0.126566198	-1.1984559953	 0.300756
N	 3.1683075622	 0.2318769413	-1.2202842995	-0.321231
H	 0.9694219157	 1.8403426158	 0.0833257582	 0.14981
H	-0.5899290347	 1.8252002109	-0.8009060348	 0.149804
H	-0.566097291	 1.6522465865	 0.9770942091	 0.15582
H	 0.5340531839	-4.2815258875	-0.862573472	 0.226264
108.3805	119.6107	121.0426	147.221	178.5057	187.5447	265.2119	344.7258	356.749	498.39	522.1608	545.1207	570.1328	583.7505	676.435	678.2947	701.1502	979.5954	1042.2171	1079.8278	1143.7887	1182.4147	1228.3444	1476.4498	1489.7096	1504.9656	2259.9168	2359.1804	2364.7476	3024.9141	3095.5967	3156.4328	3495.9195
COC(C#C)(C#N)C#N	COC(C#C)(C#N)C#N	
InChI=1S/C6H4N2O/c1-3-6(4-7,5-8)9-2/h1H,2H3	InChI=1S/C6H4N2O/c1-3-6(4-7,5-8)9-2/h1H,2H3
