15
gdb 55519	3.53218	1.04657	0.80797	7.5931	67.84	-0.2455	-0.0439	0.2016	1317.6154	0.113503	-487.335141	-487.326412	-487.325468	-487.368811	32.226	
N	 0.1468105612	 1.3085361929	-0.5990931304	-0.522621
C	 0.0135690394	 0.0285314338	-0.217636535	 0.477122
N	 1.1508378013	-0.7145883212	-0.0555077304	-0.55082
H	 1.9703455111	-0.4586000669	-0.5823273786	 0.260959
H	 0.9914921233	-1.7042978045	 0.0450832975	 0.269835
N	-1.1394980621	-0.5589332264	 0.0346787397	-0.413565
C	-2.3133913301	 0.1527122315	-0.00697063	 0.231817
N	-2.4745484795	 1.3882666261	-0.3173454429	-0.547582
C	-3.5226954099	-0.7118292573	 0.3705376057	 0.406569
O	-4.6436463549	-0.2756248392	 0.3966996559	-0.345948
O	-3.2031550834	-1.9737300503	 0.6606933262	-0.371726
H	 1.0477824091	 1.7547376967	-0.6054363609	 0.257667
H	-0.7286182923	 1.8456849967	-0.6124384282	 0.304244
H	-2.2274543895	-2.008206105	 0.5484293658	 0.300703
H	-3.4680529736	 1.6150672931	-0.2480438144	 0.243346
87.573	89.2122	170.3261	182.3217	298.3335	346.4352	392.0677	418.3218	428.4238	495.7644	520.1621	543.8033	563.4274	711.0995	737.0297	785.8909	801.6869	831.6531	898.2355	910.4106	985.7794	1081.8425	1108.8339	1221.1595	1230.7415	1405.7459	1450.6486	1491.8619	1555.275	1643.5229	1669.6306	1685.877	1864.2896	3271.8972	3466.7829	3486.5493	3596.3383	3680.8297	3712.4722
NC(=[NH2+])NC(=N)C([O-])=O	NC(=NC(=N)C(=O)O)N	
InChI=1S/C3H6N4O2/c4-1(2(8)9)7-3(5)6/h(H,8,9)(H5,4,5,6,7)	InChI=1S/C3H6N4O2/c4-1(2(8)9)7-3(5)6/h(H,8,9)(H5,4,5,6,7)
