19
gdb 14208	2.72246	2.46061	1.85076	1.6047	75.5	-0.2262	0.0931	0.3193	841.6992	0.165658	-327.876387	-327.868831	-327.867886	-327.907593	29.596	
C	-0.1245049944	 1.4745499672	-0.0031428597	-0.49733
C	-0.0162200304	-0.0147895734	-0.0921966838	 0.306993
C	 0.9180363589	-0.8426692936	-0.9759171524	-0.286894
C	 0.1014918339	-2.073930689	-0.5058094727	-0.124912
C	 0.4055001729	-2.1038974044	 0.9976233861	-0.150132
N	-0.3273956623	-0.8075999227	 1.1649731614	-0.224824
C	-1.0632124155	-1.0710132587	-0.1133459662	 0.312525
C	-2.5456792489	-1.0789785742	-0.2667375678	-0.532021
H	 0.7837850153	 1.9066631471	 0.4324580594	 0.123214
H	-0.2670257991	 1.9186824519	-0.9944983717	 0.114173
H	-0.9661313746	 1.7644284657	 0.6317180123	 0.129913
H	 0.7490199146	-0.6131601848	-2.0319178368	 0.09956
H	 1.9944353901	-0.8393682687	-0.7657563964	 0.088245
H	 0.0328905073	-2.9725566408	-1.1173638814	 0.06827
H	-0.1376055562	-2.8801834035	 1.5436808114	 0.102915
H	 1.4558483648	-2.097189051	 1.3145424886	 0.090505
H	-2.9805702603	-0.2027244935	 0.224196406	 0.13343
H	-2.8363105519	-1.0588209425	-1.3231348826	 0.121186
H	-2.9912685942	-1.9717777408	 0.1868625464	 0.125186
176.2497	185.6532	193.2245	226.3427	303.4254	319.6803	437.7579	505.393	593.6294	645.7112	693.1696	753.2698	832.3616	840.0739	909.1214	937.6835	964.569	978.6156	1009.7288	1029.4854	1088.9767	1103.5721	1129.4961	1143.6575	1151.3183	1186.2539	1195.4415	1225.6936	1264.2751	1307.2919	1326.4208	1406.5156	1411.5762	1461.7675	1478.7058	1487.1037	1489.0532	1493.5153	1501.4246	1519.7907	3022.7849	3025.0379	3028.0359	3032.5467	3084.6177	3087.7098	3091.774	3094.1798	3104.1153	3114.6699	3123.182
CC12CC3CN1C23C	C[C@@]12C[C@H]3CN1[C@@]23C	
InChI=1S/C7H11N/c1-6-3-5-4-8(6)7(5,6)2/h5H,3-4H2,1-2H3	InChI=1S/C7H11N/c1-6-3-5-4-8(6)7(5,6)2/h5H,3-4H2,1-2H3/t5-,6-,7+,8?/m0/s1
