23
gdb 102517	2.05263	1.10195	0.98265	4.2711	86.79	-0.2259	0.0317	0.2577	1415.6203	0.203935	-384.472716	-384.461626	-384.460682	-384.50926	39.814	
C	 0.0195397689	 1.4844177161	 0.3552993886	-0.397872
C	-0.0565647994	-0.0267132096	 0.1368949588	-0.13055
N	 0.4606112447	-0.4932906748	-1.1550205752	-0.062863
C	 0.7224247832	-1.9383242257	-1.1522355841	-0.129737
C	 2.0125193808	-2.3075899172	-0.4166217876	-0.38279
C	-0.2822105864	-0.0537499939	-2.3411254336	-0.117006
C	-1.8191173188	-0.2187229112	-2.3093653387	-0.405892
C	 0.069890143	 1.3327031894	-2.7143444127	 0.296315
N	 0.3268017723	 2.4059818794	-3.0569801862	-0.335667
H	 1.0329770712	 1.8516968785	 0.173916024	 0.136182
H	-0.6580430813	 2.0426011147	-0.2948594712	 0.13533
H	-0.2544352965	 1.7123777843	 1.3902699638	 0.111655
H	 0.5529181741	-0.5104945017	 0.904706834	 0.107641
H	-1.0902087768	-0.3775580011	 0.310724258	 0.082728
H	-0.1230525589	-2.5091271648	-0.7255597141	 0.08533
H	 0.8190846145	-2.2651800176	-2.1927684138	 0.100637
H	 2.8615564335	-1.7678724351	-0.8448163575	 0.129631
H	 1.965696255	-2.0742246582	 0.6507740216	 0.1236
H	 2.1980650156	-3.3827233768	-0.5068747621	 0.114967
H	 0.0927977938	-0.6629121317	-3.1716100519	 0.13049
H	-2.2432684747	 0.0314205384	-3.2853766402	 0.137419
H	-2.0754772182	-1.2556759176	-2.0753315273	 0.128843
H	-2.2812177897	 0.4323705263	-1.5644565424	 0.141609
54.5952	65.4526	93.2655	142.6407	198.8463	210.5625	240.9316	261.1212	282.5133	312.1925	322.1692	396.6599	445.2814	462.9547	570.9913	598.2087	754.6646	792.4406	807.0094	840.2545	926.8551	956.5468	1017.1582	1072.8668	1076.154	1084.8746	1105.6883	1137.8921	1144.9596	1207.2325	1240.1831	1319.22	1323.2251	1328.0992	1376.198	1397.847	1402.4822	1410.5903	1421.6749	1428.7348	1486.0276	1487.5337	1488.5951	1496.2774	1497.9333	1500.796	1509.3226	1524.6242	2355.5344	2929.4603	2938.2042	3041.0605	3043.3069	3047.5608	3051.9522	3059.6511	3080.7408	3111.1883	3116.6852	3123.9657	3125.2151	3131.9012	3138.3831
CCN(CC)C(C)C#N	CCN(CC)[C@@H](C)C#N	
InChI=1S/C7H14N2/c1-4-9(5-2)7(3)6-8/h7H,4-5H2,1-3H3	InChI=1S/C7H14N2/c1-4-9(5-2)7(3)6-8/h7H,4-5H2,1-3H3/t7-/m0/s1
