17
gdb 5930	4.05119	1.2008	1.16256	3.1811	67.05	-0.2647	-0.0391	0.2256	1089.755	0.138073	-401.007676	-400.998156	-400.997212	-401.043259	32.732	
C	-0.0954765179	 1.6402311364	-0.0058602878	-0.420414
C	-0.0529493571	 0.1051885672	 0.0173978291	 0.255018
C	 0.8223011335	-0.4408084593	 1.1515319688	-0.422797
O	-1.3767062816	-0.464443707	 0.0274966941	-0.232387
C	-2.1842148213	-0.2494629167	 1.084340151	 0.122629
N	-3.3466996793	-0.7420970243	 1.0870443097	-0.438868
C	 0.513961863	-0.3751931698	-1.3265606302	 0.140734
O	 1.649874415	-0.1804248861	-1.6666662079	-0.256201
H	 0.9086805867	 2.0236352764	-0.2026932974	 0.148983
H	-0.767237087	 1.9947443817	-0.7926496991	 0.139045
H	-0.4385934355	 2.0424796199	 0.9514994187	 0.122117
H	 0.5296245624	-0.027070607	 2.1204565793	 0.120073
H	 0.7499459195	-1.5307767173	 1.1996979091	 0.139025
H	 1.8622497647	-0.1682609786	 0.9570292328	 0.150864
H	-1.7400384426	 0.3578725642	 1.8806188369	 0.091395
H	-3.8262053142	-0.492603114	 1.9496494126	 0.229666
H	-0.2236618282	-0.9099632557	-1.9606686897	 0.111118
16.9861	77.5291	123.1443	165.0824	217.85	256.3598	286.0947	299.7856	343.1281	421.7398	429.1077	494.0464	689.1111	776.2635	822.0622	900.2144	918.7816	959.2013	997.5371	1041.2454	1045.6411	1107.9631	1195.7321	1207.6303	1252.039	1300.4132	1384.0624	1390.2822	1409.5231	1427.1755	1481.2654	1482.3778	1499.2425	1506.9582	1739.8167	1840.1948	2925.0394	3044.2687	3045.8969	3057.9498	3119.0734	3122.3239	3132.5412	3137.151	3517.3482	16.9853	77.5286	123.1448	165.0823	217.8503	256.3601	286.0947	299.7857	343.1281	421.7398	429.1077	494.0463	689.111	776.2634	822.0622	900.2146	918.7815	959.201	997.5372	1041.2451	1045.6408	1107.9634	1195.7323	1207.6303	1252.0388	1300.4132	1384.0621	1390.2819	1409.5228	1427.1752	1481.2651	1482.3775	1499.2422	1506.9578	1739.8163	1840.1945	2925.0392	3044.2686	3045.8969	3057.9497	3119.0734	3122.3239	3132.5413	3137.151	3517.3479
CC(C)(OC=N)C=O	CC(C)(O[CH][NH])C=O	
InChI=1S/C5H9NO2/c1-5(2,3-7)8-4-6/h3-4,6H,1-2H3	InChI=1S/C5H9NO2/c1-5(2,3-7)8-4-6/h3-4,6H,1-2H3
