15
gdb 44279	3.42201	1.92549	1.50027	3.5394	67.22	-0.2247	-0.0185	0.2062	852.3837	0.113819	-416.7309	-416.724633	-416.723689	-416.762115	25.289	
O	-0.0033388769	-0.0231390118	-0.3644465024	-0.292949
C	-0.0605753519	 1.1316992759	-0.0406316634	 0.387941
C	-1.3602094692	 1.862570287	 0.2032549416	-0.280139
N	-1.2096390429	 3.2615217415	 0.5885667643	-0.094216
C	-0.1314218867	 3.6877201477	 1.4516163246	-0.075163
C	-0.1763103521	 4.0897359024	 0.0095074393	-0.075141
C	 1.1735629854	 3.3218920893	-0.236985996	-0.088527
C	 1.217952054	 2.9248998851	 1.1873596638	-0.08853
N	 1.1329862997	 1.8974299302	 0.1354455941	-0.143926
H	-1.9709578615	 1.8097394856	-0.7045214806	 0.149364
H	-1.918663059	 1.3383826593	 0.9863321839	 0.149347
H	-0.3492543197	 4.2492762523	 2.3520951276	 0.108677
H	-0.4366723227	 5.0323084176	-0.4567836541	 0.108675
H	 1.9622435018	 3.6428768435	-0.9056915585	 0.117298
H	 2.0490093019	 2.8667783544	 1.8788658859	 0.117292
40.921	280.4976	432.5613	491.9717	501.4291	517.288	583.767	693.6034	720.629	738.4801	767.2916	838.6258	879.9413	886.221	906.1724	933.7498	947.1676	969.2814	1030.7185	1049.8584	1055.5855	1063.4892	1155.1091	1215.1487	1231.1335	1245.458	1260.8806	1270.5968	1331.1858	1339.1198	1385.7978	1446.7401	1847.9445	3048.7298	3089.1687	3179.0182	3189.9561	3191.8389	3203.7773
O=C1CN2C3C2C2C3N12	O=C1CN2[C@@H]3[C@H]2[C@H]2[C@@H]3N12	
InChI=1S/C6H6N2O/c9-2-1-7-3-4(7)6-5(3)8(2)6/h3-6H,1H2	InChI=1S/C6H6N2O/c9-2-1-7-3-4(7)6-5(3)8(2)6/h3-6H,1H2/t3-,4+,5-,6+,7?,8?
