17
gdb 67749	3.15525	2.03182	1.46687	1.341	76.19	-0.2227	-0.0003	0.2224	890.1495	0.136372	-384.577244	-384.570686	-384.569742	-384.607554	28.207	
O	-0.0170214129	 1.5062535341	 0.1001411243	-0.488551
C	-0.0101992685	 0.1135369536	 0.0503278274	 0.324073
C	 0.8306365361	-0.6756934193	 1.0971011521	-0.175152
C	 0.5897345533	-1.973187212	 0.8620982575	-0.241471
C	-0.3781618526	-1.8878389746	-0.3049690553	 0.2991
C	-1.3127367879	-2.4616590881	-1.393923694	-0.356009
C	-1.3953542013	-0.9076480345	-1.5753533085	-0.101306
C	-1.3383659613	-0.6734956461	-0.0362389303	-0.060776
C	 0.1194657216	-0.7397494343	-1.2520813572	-0.103863
H	 0.8924758071	 1.817978259	 0.0442584868	 0.278161
H	 1.4584016321	-0.2261331117	 1.8554537726	 0.10108
H	 0.9724047216	-2.8499963677	 1.3646857204	 0.112057
H	-0.8411504806	-3.02633719	-2.2043134082	 0.098333
H	-2.2216328953	-2.9658074592	-1.0505531807	 0.099397
H	-1.9825476153	-0.3560332313	-2.3075750354	 0.078042
H	-2.1678516205	-0.6821881034	 0.6744187344	 0.07141
H	 0.9642157745	-0.8288180547	-1.9402603859	 0.065476
227.6408	290.223	309.704	371.7265	420.7129	470.7688	559.3143	619.1271	666.001	712.0122	754.0012	758.4683	811.8042	849.8836	873.5682	884.7012	915.1504	940.7853	963.2277	997.3047	1025.1862	1049.8458	1051.0882	1076.8523	1108.8581	1135.1168	1155.7543	1182.4939	1190.3739	1199.9894	1227.4234	1272.8585	1292.3887	1319.3835	1371.7465	1507.7732	1594.0655	3040.3233	3080.7692	3093.5196	3099.9427	3128.7105	3211.2765	3240.8261	3807.6156
OC12C=CC34CC(C13)C24	O[C@@]12C=C[C@@]34C[C@@H]([C@H]13)[C@@H]24	
InChI=1S/C8H8O/c9-8-2-1-7-3-4(5(7)8)6(7)8/h1-2,4-6,9H,3H2	InChI=1S/C8H8O/c9-8-2-1-7-3-4(5(7)8)6(7)8/h1-2,4-6,9H,3H2/t4-,5-,6+,7+,8-
