17
gdb 85636	3.40464	1.07636	0.90819	0.5766	80.53	-0.2381	-0.0307	0.2074	1273.0113	0.135056	-421.803401	-421.794602	-421.793658	-421.837047	33.208	
O	-0.1689058452	 1.3115130517	 0.8261341151	-0.436557
C	 0.0163972117	 0.0948522941	 0.121901537	 0.066607
C	 0.8178663586	-0.8594485869	 1.0254679938	-0.322642
C	-0.2274889269	-1.8173997759	 1.5762090569	 0.201246
C	-1.4043680356	-1.679472734	 0.9475008172	-0.241408
C	-1.3683865109	-0.6109346694	-0.1108808358	 0.091125
O	-2.4585756951	 0.3017770845	-0.0532681878	-0.439071
C	 0.0788854071	-2.7414430787	 2.603443199	 0.197669
C	 0.3872335604	-3.5088851321	 3.4798812846	-0.402103
H	-0.8111342569	 1.8208343402	 0.3164706722	 0.283176
H	 0.52936812	 0.2809101087	-0.8310504794	 0.064768
H	 1.5793911902	-1.4083431388	 0.4599423784	 0.118738
H	 1.3353241056	-0.3046152391	 1.8133185248	 0.133181
H	-2.2933701531	-2.265158196	 1.1490059293	 0.107898
H	-1.420956731	-1.0418650887	-1.1181666331	 0.099163
H	-2.5203377178	 0.5900268096	 0.8656609174	 0.282772
H	 0.6437139288	-4.190378519	 4.2527418204	 0.195439
71.2875	109.4166	149.3727	179.9514	284.752	310.2432	395.5229	436.8564	514.9442	543.4006	561.3202	573.0157	608.5417	613.8656	635.7225	780.4229	825.0241	883.7315	898.195	909.8154	993.7532	1036.1815	1063.7923	1098.8552	1167.0432	1203.5685	1241.0104	1257.7977	1278.0034	1298.4699	1324.3463	1357.8942	1415.0896	1432.2392	1475.0972	1671.6689	2222.2676	3003.8453	3036.7879	3047.9481	3094.3597	3207.859	3502.9058	3780.4343	3786.2152
OC1CC(=CC1O)C#C	O[C@H]1CC(=C[C@H]1O)C#C	
InChI=1S/C7H8O2/c1-2-5-3-6(8)7(9)4-5/h1,3,6-9H,4H2	InChI=1S/C7H8O2/c1-2-5-3-6(8)7(9)4-5/h1,3,6-9H,4H2/t6-,7+/m1/s1
