21
gdb 36637	5.50039	0.723	0.71068	0.7756	89.72	-0.2575	0.0591	0.3167	1645.8092	0.182708	-349.869338	-349.860674	-349.85973	-349.903422	33.454	
C	-0.1201725865	-1.2357394911	-0.2894240528	-0.437916
C	-0.073461379	-0.0434211649	-0.1430402356	 0.294106
C	 0.0193088398	 1.4011613975	 0.0274932731	-0.350799
C	 1.4544500943	 1.9420066723	-0.1618657723	-0.248714
C	 1.5051762294	 3.4586195741	-0.0388874815	 0.075824
C	 1.4322408078	 4.1937870469	 1.3443173484	-0.047104
C	 2.9080896578	 3.7691741121	 1.6011361586	-0.221515
C	 2.8552474957	 4.2327227457	 0.1150149766	-0.070475
C	 2.0078092736	 5.4402488822	 0.6115858147	-0.217964
H	-0.1746392279	-2.2881782699	-0.4171092365	 0.191764
H	-0.6540547077	 1.8965332092	-0.6846408019	 0.127918
H	-0.3440529496	 1.6753326583	 1.0263341946	 0.131709
H	 2.1127965317	 1.4467662362	 0.5566195012	 0.111423
H	 1.809844087	 1.6499902139	-1.1573782284	 0.109344
H	 0.8413964928	 3.9042413854	-0.7917720555	 0.058428
H	 0.6078734609	 4.1786492226	 2.0598617268	 0.066661
H	 3.4785775681	 4.4063039988	 2.2825934978	 0.089621
H	 3.1103338204	 2.716158396	 1.8004271423	 0.09398
H	 3.6807737691	 4.2573719221	-0.5987614582	 0.067495
H	 1.3587951779	 5.9230424315	-0.1246066248	 0.087445
H	 2.5256789245	 6.1739718312	 1.2347841534	 0.088768
61.7018	72.2141	102.5397	204.3643	314.5494	350.9585	364.0139	470.0495	565.9822	609.8838	615.3393	634.1931	737.6754	780.1476	801.4504	846.7973	878.73	900.1848	904.7871	972.3014	1001.1248	1008.2571	1025.1526	1030.7044	1043.2229	1094.4538	1103.5586	1114.3535	1144.9208	1159.4724	1188.4613	1199.1394	1216.9808	1241.9998	1251.0138	1273.5881	1288.8998	1316.0768	1368.4951	1431.7453	1472.6366	1489.2062	1506.4463	1543.693	2238.3	3011.7933	3016.9937	3037.9883	3048.0279	3048.6314	3061.3165	3089.7518	3096.1725	3097.3929	3114.7461	3128.975	3507.802
C#CCCC1C2CC1C2	C#CCC[C@H]1[C@H]2C[C@@H]1C2	
InChI=1S/C9H12/c1-2-3-4-9-7-5-8(9)6-7/h1,7-9H,3-6H2	InChI=1S/C9H12/c1-2-3-4-9-7-5-8(9)6-7/h1,7-9H,3-6H2/t7-,8+,9-
