17
gdb 53543	2.65426	0.96717	0.80617	1.4973	82.71	-0.2462	0.0238	0.27	1477.2539	0.131796	-384.605951	-384.595876	-384.594932	-384.642645	35.131	
C	 0.1583369491	 1.4567836647	 0.3441963935	-0.496709
C	 0.0852355841	 0.0309740371	 0.0610726132	 0.075703
C	 0.0227569607	-1.1478768827	-0.1712049928	 0.078061
C	-0.0630562843	-2.5772659994	-0.4465079541	-0.440058
C	-1.4353395182	-3.1757468645	-0.1338700055	 0.205572
C	-1.5196545119	-4.5609923245	 0.3735792132	-0.215
O	-1.6748537806	-3.4531264891	 1.2544135693	-0.251349
C	-2.5516060285	-2.6284221892	-0.8685428085	 0.320777
C	-3.4624389279	-2.1738678562	-1.5067496306	-0.435865
H	 0.6865618587	 1.6502851861	 1.2842970373	 0.148221
H	 0.6862953404	 1.9951434297	-0.4506820107	 0.146272
H	-0.8428430337	 1.8929650012	 0.4312715488	 0.151152
H	 0.1657469577	-2.7734317462	-1.5021447105	 0.13611
H	 0.6789209729	-3.1226368705	 0.148339722	 0.134476
H	-2.4193828855	-5.1424981407	 0.183217898	 0.126094
H	-0.6016308183	-5.1357504578	 0.493784735	 0.116308
H	-4.2719926247	-1.7663581279	-2.0604556676	 0.200234
27.8733	46.5708	75.7225	156.8223	206.1487	215.8434	265.6454	333.8618	368.1618	380.6283	454.0484	550.3954	562.5967	622.7973	665.653	716.7814	774.3417	829.3031	909.1655	957.9247	971.8098	1052.1646	1054.499	1131.9097	1161.7733	1171.4069	1196.0435	1266.4341	1322.4914	1385.3843	1414.5338	1453.3607	1478.1376	1478.7614	1519.5695	2241.8476	2379.7072	3022.2075	3027.4719	3063.1256	3082.3616	3087.8853	3089.2642	3176.9888	3502.3457
CC#CCC1(CO1)C#C	CC#CC[C@]1(CO1)C#C	
InChI=1S/C8H8O/c1-3-5-6-8(4-2)7-9-8/h2H,6-7H2,1H3	InChI=1S/C8H8O/c1-3-5-6-8(4-2)7-9-8/h2H,6-7H2,1H3/t8-/m0/s1
