18
gdb 98338	4.31066	0.79658	0.72349	4.3067	73.21	-0.2857	-0.0036	0.2821	1549.1196	0.14544	-439.141159	-439.130857	-439.129913	-439.177844	34.855	
C	 0.0430019985	 1.3531739489	 0.123065652	-0.245013
O	 0.1077787935	-0.0763209535	 0.0094456791	-0.238185
C	 0.6046705182	-0.5425156695	-1.1492094569	 0.460363
O	 0.9908423457	 0.1628180585	-2.0484230554	-0.361199
C	 0.5982326702	-2.0647987	-1.1676564539	-0.121721
C	-0.8452646239	-2.5993898412	-1.1964113629	-0.407924
C	 1.4344520894	-2.5493487124	-2.3710783016	-0.339664
C	 1.5716601034	-4.003013078	-2.39894858	 0.260444
N	 1.6729161321	-5.154229664	-2.4052167865	-0.311527
H	 1.0408134069	 1.7898526683	 0.0364606623	 0.145339
H	-0.5941883313	 1.7721237503	-0.6594560434	 0.144836
H	-0.3782388123	 1.5522877784	 1.1080524293	 0.139127
H	 1.0718056432	-2.404512551	-0.2400446729	 0.124482
H	-1.3983510721	-2.253856608	-0.3210351595	 0.140409
H	-1.3697051838	-2.2561590757	-2.0945390074	 0.129932
H	-0.8428833802	-3.6923227065	-1.1995551946	 0.151402
H	 0.971489993	-2.2115509319	-3.3037638036	 0.165867
H	 2.4310222796	-2.0984712226	-2.3449385642	 0.163033
34.5413	58.7996	110.6954	117.4983	145.3154	210.9303	234.8687	294.0954	306.4349	352.6319	393.1285	421.409	547.9846	683.6539	761.3915	845.9805	881.9249	898.493	970.059	1017.8349	1070.2226	1098.4571	1137.1146	1178.1669	1200.557	1217.4014	1253.9881	1307.2863	1335.0383	1381.1008	1410.103	1456.1446	1473.3036	1481.5438	1495.9714	1499.09	1504.2648	1813.4536	2362.2765	3044.2684	3054.6935	3055.7113	3065.3105	3103.2943	3118.3221	3131.3883	3140.0128	3164.6054
COC(=O)C(C)CC#N	COC(=O)[C@@H](C)CC#N	
InChI=1S/C6H9NO2/c1-5(3-4-7)6(8)9-2/h5H,3H2,1-2H3	InChI=1S/C6H9NO2/c1-5(3-4-7)6(8)9-2/h5H,3H2,1-2H3/t5-/m0/s1
