18
gdb 92721	2.37747	1.62208	1.07445	2.1905	75.82	-0.22	-0.0085	0.2115	1130.1932	0.149177	-435.32493	-435.316316	-435.315372	-435.358207	32.289	
C	 0.115609896	 1.5899654651	 0.0049728292	-0.39267
C	 0.0102308285	 0.0650609378	 0.0333060908	-0.001628
C	 0.7412262777	-0.6255195468	-1.1581062583	-0.180919
N	 1.9531331209	-1.2408460225	-0.6216305864	-0.337647
C	 1.8978800801	-1.1690956836	 0.654528861	 0.46206
N	 2.8345053551	-1.6071218939	 1.5333612824	-0.586942
N	 0.7462305824	-0.5147430936	 1.1734322504	-0.1103
C	 0.3262521545	-0.4872033431	 2.4671337357	 0.156666
O	 0.9069186567	-0.9786528532	 3.4193566769	-0.345575
H	 1.1628936701	 1.8994562338	-0.0688171462	 0.138316
H	-0.4223724649	 1.9861502714	-0.8620550401	 0.126525
H	-0.313964913	 2.0410947553	 0.905218569	 0.120175
H	-1.040254715	-0.2354659553	 0.092129654	 0.096255
H	 0.1079516061	-1.3877776059	-1.6305143676	 0.107221
H	 0.9901364942	 0.1068829249	-1.9345829223	 0.108423
H	 3.5113863399	-2.2515365374	 1.1597981939	 0.263393
H	 2.5367257629	-1.7033101964	 2.4952842282	 0.283698
H	-0.6377659422	 0.0424697437	 2.5768873696	 0.09295
68.987	125.8383	210.9254	247.5878	268.9848	272.9248	328.2872	423.4339	437.5938	475.4328	514.1787	584.2753	698.2946	724.0832	747.5434	799.001	880.3382	946.2913	976.59	1019.3081	1030.1989	1104.4842	1134.8632	1158.7525	1211.8259	1237.8326	1288.4619	1323.6726	1370.6429	1377.8371	1411.0453	1422.5145	1446.3713	1492.0277	1494.366	1510.8964	1603.0303	1740.2469	1782.768	2965.2117	3013.6397	3035.313	3049.4014	3060.4798	3107.7832	3116.5807	3541.0916	3700.0693
CC1CN=C(N)N1C=O	C[C@H]1C[N][C](N)N1C=O	
InChI=1S/C5H9N3O/c1-4-2-7-5(6)8(4)3-9/h3-4H,2H2,1H3,(H2,6,7)	InChI=1S/C5H9N3O/c1-4-2-7-5(6)8(4)3-9/h3-4H,2H2,1H3,(H2,6,7)/t4-/m0/s1
