18
gdb 54102	2.79344	1.58482	1.32852	9.7651	72.74	-0.1945	0.0208	0.2153	1010.8912	0.148034	-439.005711	-438.997673	-438.996729	-439.038349	30.893	
C	-0.1494750336	 1.5560896111	 0.0055926072	-0.495522
C	-0.0212067425	 0.0511748841	-0.0877719654	 0.246296
C	 1.2146242243	-0.6115509581	-0.8025687873	-0.097126
C	 2.0942677691	-0.1294240356	 0.3910209495	-0.204378
N	 0.8378320769	-0.6846240794	 1.0449409464	-0.099294
H	 0.5775810152	-0.7558211861	 2.0295417028	 0.286822
C	 0.9448620407	-1.8624805219	 0.0798162227	-0.17316
C	-1.4496200695	-0.6011266032	-0.2270006759	 0.315936
O	-2.0020604931	-0.2930714858	-1.2869130868	-0.454601
O	-1.7754869749	-1.2959395972	 0.7561427757	-0.493906
H	 0.7809078612	 2.1281248681	-0.0362361996	 0.105205
H	-0.7740700671	 1.8344835685	-0.8467469487	 0.186139
H	-0.6987574925	 1.8315178685	 0.9116113954	 0.145457
H	 1.4557321543	-0.5840069038	-1.8591127319	 0.125493
H	 2.9856358229	-0.7126073903	 0.6309276876	 0.136385
H	 2.2477288576	 0.9338581949	 0.5518119654	 0.146392
H	 0.0047106913	-2.3949824715	-0.0208449848	 0.200746
H	 1.7982225497	-2.5028730924	 0.3122937078	 0.123116
77.1089	128.8601	199.8807	248.2737	275.4123	337.9085	414.9482	447.835	582.5207	606.7428	641.6326	761.5744	769.1734	798.9663	823.7646	857.2169	878.4028	909.8992	1007.3285	1013.5218	1058.2555	1083.8162	1089.0975	1129.4676	1139.5528	1172.7759	1187.6105	1195.8435	1222.0368	1238.3277	1270.9973	1297.4826	1334.9832	1398.9848	1479.4263	1487.1358	1516.8057	1551.6469	1794.9232	3042.893	3085.1479	3091.9744	3111.3655	3134.4887	3190.118	3201.107	3210.1674	3481.9162
CC1(C2C[NH+]1C2)C([O-])=O	C[C@]1([C@H]2C[N@@H]1C2)C(=O)[O]	
InChI=1S/C6H9NO2/c1-6(5(8)9)4-2-7(6)3-4/h4H,2-3H2,1H3,(H,8,9)	InChI=1S/C6H9NO2/c1-6(5(8)9)4-2-7(6)3-4/h4,7H,2-3H2,1H3/t6-/m0/s1
