18
gdb 75157	3.3741	1.10655	1.07531	1.809	73.88	-0.2506	-0.0349	0.2157	1211.1209	0.145316	-439.126931	-439.117636	-439.116692	-439.161431	33.215	
C	 0.2440183332	 1.4370051004	 0.0671419242	-0.478047
C	-0.0022538841	-0.0277302161	-0.0404390699	 0.402906
N	 0.0951549203	-0.7407926761	-1.0856944953	-0.297279
C	-0.2734363875	-2.1046639267	-0.7063181402	-0.237381
C	-0.4496501923	-2.058123353	 0.8531289589	 0.259902
C	 0.6349382506	-2.8006388167	 1.61777198	-0.437775
O	-0.3719768305	-0.6365159828	 1.1283231593	-0.285786
C	-1.8496550672	-2.5088482188	 1.2410980103	 0.123363
O	-2.1157933247	-3.591454186	 1.6914970519	-0.247171
H	 1.0433559416	 1.634840993	 0.7879371383	 0.148564
H	 0.5207629168	 1.8351059378	-0.9082495771	 0.155914
H	-0.6547110041	 1.9448292895	 0.4309280133	 0.148465
H	-1.1924201344	-2.39837745	-1.2286115925	 0.122238
H	 0.5039192196	-2.8201090014	-0.991915373	 0.12766
H	 1.6238995765	-2.508350658	 1.2546817286	 0.125231
H	 0.5720115763	-2.5830100491	 2.686951559	 0.134776
H	 0.5054746459	-3.8769692151	 1.4810969482	 0.144807
H	-2.6298888461	-1.7415276909	 1.0374836261	 0.089614
65.3734	72.2916	139.6359	203.4528	216.0563	248.9435	278.6678	311.3494	389.5319	426.9107	464.4633	610.6942	672.9183	718.3164	809.5523	889.6553	928.9985	950.6008	977.1851	986.3312	1012.673	1066.9485	1079.6359	1137.3766	1175.1035	1188.9752	1264.2331	1294.3932	1340.1543	1395.6496	1412.5285	1416.8825	1474.9454	1475.615	1479.7609	1490.2859	1498.5681	1748.5794	1835.0395	2888.7462	3027.561	3051.0242	3052.3257	3075.8305	3110.0461	3128.3552	3136.1398	3168.2113
CC1=NCC(C)(O1)C=O	CC1=NC[C@@](C)(O1)C=O	
InChI=1S/C6H9NO2/c1-5-7-3-6(2,4-8)9-5/h4H,3H2,1-2H3	InChI=1S/C6H9NO2/c1-5-7-3-6(2,4-8)9-5/h4H,3H2,1-2H3/t6-/m1/s1
