21
gdb 77367	2.45135	1.61951	1.33292	1.5525	82.2	-0.2449	0.078	0.3229	1086.9099	0.181569	-387.054693	-387.045811	-387.044866	-387.087376	35.089	
C	 0.0203632108	 1.4804849174	 0.038020066	-0.511704
C	 0.0097481794	-0.0172751869	-0.0492447375	 0.295883
C	-0.9579129997	-0.8891374015	 0.7719221341	-0.120129
C	-1.0681569223	-2.2529112627	 0.0938172576	-0.294487
C	 0.4444533185	-2.1015864722	-0.2341199921	 0.286727
C	 1.3255336789	-3.3010411335	-0.4592209545	-0.513546
C	 0.5364566593	-1.0375200946	 0.9400134088	-0.184156
C	 0.4842726709	-0.8823005392	-1.2099541375	 0.070818
O	-0.2123619202	-0.9152326345	-2.4342008367	-0.449022
H	 1.0075141992	 1.885545937	-0.2117916196	 0.119745
H	-0.7042420436	 1.9238109489	-0.6546429349	 0.12217
H	-0.2343801968	 1.8227654213	 1.0468587985	 0.117365
H	-1.65474796	-0.4275480729	 1.4606101258	 0.083114
H	-1.2342889708	-3.0487562405	 0.826132693	 0.098967
H	-1.7641307554	-2.3934497801	-0.744845736	 0.072589
H	 1.0422859711	-3.8126924594	-1.3866031913	 0.126556
H	 2.3783504546	-3.0110577006	-0.5490268727	 0.11612
H	 1.2442052035	-4.0229702327	 0.3605812225	 0.113787
H	 1.1901068014	-0.926709479	 1.7929798669	 0.088481
H	 1.5229607972	-0.6449194647	-1.4651912697	 0.079007
H	-1.1532074057	-0.9734898495	-2.2396460107	 0.281717
162.1733	179.8851	196.0652	211.2118	238.3103	256.7987	302.7276	332.2471	365.7762	511.9051	566.6554	595.1011	639.0538	728.4896	788.3015	822.6337	839.9077	873.5901	907.6538	930.1928	954.1503	977.8519	1006.6668	1037.0341	1070.0718	1094.114	1119.6432	1130.2198	1145.5283	1165.4842	1211.8472	1229.17	1250.0466	1270.8657	1302.6155	1353.2935	1399.5926	1412.6708	1421.9729	1448.4754	1486.1269	1489.3922	1494.0884	1498.6119	1505.1332	3003.202	3022.6985	3023.415	3057.4753	3081.1057	3083.5461	3088.9388	3091.7214	3092.3559	3189.2751	3222.291	3820.2878
CC12C3CC(C)(C13)C2O	C[C@]12[C@H]3C[C@](C)([C@@H]13)[C@H]2O	
InChI=1S/C8H12O/c1-7-3-4-5(7)8(4,2)6(7)9/h4-6,9H,3H2,1-2H3	InChI=1S/C8H12O/c1-7-3-4-5(7)8(4,2)6(7)9/h4-6,9H,3H2,1-2H3/t4-,5-,6+,7+,8-/m0/s1
