20
gdb 6480	2.95953	1.7886	1.4062	2.5419	71.12	-0.2464	0.0751	0.3215	977.3314	0.175392	-386.120977	-386.112216	-386.111272	-386.153618	33.53	
C	-0.0060840442	 1.3200569727	 0.1193190167	-0.253102
O	-0.0510467004	-0.078215319	-0.0882012146	-0.292762
C	 0.6708034564	-0.5717788107	-1.2278103863	 0.408613
C	 0.1882008085	 0.0369442159	-2.5339716062	-0.472574
C	 2.2033112843	-0.6123490923	-0.9244943903	-0.296182
C	 1.9941684464	-2.0221150131	-0.2953980223	 0.150069
O	 1.8434522326	-2.0133409933	 1.1061365079	-0.442597
C	 0.6531997556	-2.1161992108	-1.0785605623	-0.280503
H	 1.0217540957	 1.7092571246	 0.1202996589	 0.110784
H	-0.5852728613	 1.8685449284	-0.6348307629	 0.115175
H	-0.4505345249	 1.5067694005	 1.100056941	 0.129111
H	 0.4239129633	 1.1035605549	-2.6050871117	 0.118572
H	 0.6706741434	-0.4620712186	-3.3792865013	 0.118229
H	-0.8955272459	-0.0837632498	-2.6365118749	 0.124824
H	 2.7989214634	-0.6479510585	-1.841595135	 0.096981
H	 2.6102515147	 0.1553195123	-0.2617914604	 0.100957
H	 2.7523769398	-2.7760605283	-0.5181960334	 0.07837
H	 1.1294741619	-1.3905531262	 1.2958130397	 0.281849
H	-0.2003140384	-2.5348238175	-0.5405344506	 0.107445
H	 0.7661994891	-2.6178279111	-2.0433931119	 0.096741
108.5648	144.9421	185.7998	227.5424	240.6059	312.2263	329.8646	393.1289	417.82	433.8196	491.7167	518.0911	655.183	780.8705	821.7045	840.6914	891.0938	904.4291	958.4903	975.8005	1012.3151	1074.3612	1100.7668	1143.9669	1155.5042	1182.4667	1201.9417	1211.0841	1233.2031	1256.3843	1272.4273	1304.8782	1338.3061	1406.3957	1446.9007	1453.8806	1470.8527	1479.207	1485.9805	1488.4969	1503.8906	1512.8781	2997.0687	3034.2535	3051.6534	3054.8699	3061.9377	3087.8894	3103.0471	3110.786	3113.4254	3115.5794	3125.879	3763.4343
COC1(C)CC(O)C1	CO[C@@]1(C)C[C@@H](O)C1	
InChI=1S/C6H12O2/c1-6(8-2)3-5(7)4-6/h5,7H,3-4H2,1-2H3	InChI=1S/C6H12O2/c1-6(8-2)3-5(7)4-6/h5,7H,3-4H2,1-2H3/t5-,6+
