19
gdb 89732	2.49517	1.44061	1.21695	2.4157	71.67	-0.2516	0.0624	0.3141	1102.705	0.155974	-460.121651	-460.112186	-460.111242	-460.155284	35.896	
C	-0.0870356506	 1.5329182574	-0.0372852111	-0.445115
C	-0.014693799	 0.0082106004	-0.0132498967	 0.290785
O	-1.2844465489	-0.5797948505	-0.1559247229	-0.468321
C	 1.134454086	-0.5684724136	-0.9010660768	 0.075842
O	 1.5336843835	 0.2689462708	-1.9590820474	-0.439606
C	 2.038236643	-0.6882055683	 0.3657100228	-0.371035
C	 0.7646850975	-0.5382038497	 1.2014005015	 0.42044
C	 0.5358694489	-0.3703876137	 2.6344353523	-0.270934
O	 0.2661916167	-1.6147645733	 1.9731133291	-0.26578
H	 0.8874978466	 1.9910995195	 0.1488603816	 0.126619
H	-0.4222122721	 1.8812899934	-1.0202415456	 0.122539
H	-0.7912661422	 1.8794196869	 0.724600176	 0.119975
H	-1.7524842453	-0.1100760058	-0.8546197834	 0.279493
H	 0.8316417437	-1.5629611655	-1.253696396	 0.08497
H	 2.2218135902	-0.178578721	-2.460907914	 0.287645
H	 2.5892669989	-1.6199580466	 0.5056537723	 0.1146
H	 2.71690029	 0.1644503992	 0.4599663446	 0.109885
H	 1.3804211409	-0.378033984	 3.3228859217	 0.111477
H	-0.3449257179	 0.1674564446	 2.9833918021	 0.116522
78.9468	181.7823	221.1265	231.3642	236.2407	243.5305	257.8442	288.1894	342.5181	403.1865	425.6018	495.5285	529.0328	600.2481	685.777	779.2384	853.7233	864.4684	908.8222	949.1715	972.7285	1018.0494	1064.9207	1111.5675	1126.0453	1135.9933	1149.6589	1169.7765	1174.7781	1194.5617	1224.0434	1261.7109	1304.7194	1372.7554	1401.4708	1416.4558	1441.9201	1474.763	1487.2589	1494.8652	1538.1466	3022.7967	3037.527	3061.6443	3077.5034	3107.2017	3124.5808	3127.6266	3163.3213	3808.0571	3822.0651
CC1(O)C(O)CC11CO1	C[C@@]1(O)[C@@H](O)C[C@]21CO2	
InChI=1S/C6H10O3/c1-5(8)4(7)2-6(5)3-9-6/h4,7-8H,2-3H2,1H3	InChI=1S/C6H10O3/c1-5(8)4(7)2-6(5)3-9-6/h4,7-8H,2-3H2,1H3/t4-,5+,6+/m0/s1
