14
gdb 129417	5.17956	1.06438	0.88346	7.6123	65.86	-0.2357	0.0064	0.2422	1215.2537	0.102761	-466.18615	-466.178469	-466.177525	-466.218983	28.457	
N	-0.11582019	 1.3076801508	 0.5396891591	-0.560031
C	 0.1599550803	 0.0748523097	 0.0039101909	 0.475195
N	 1.2840547618	-0.4637100388	-0.250177761	-0.566371
H	 0.9219475937	-2.4063339252	-0.9168277553	 0.306636
H	 2.0598755948	 0.154208235	-0.0320351065	 0.227866
O	-1.0227086783	-0.5742597462	-0.1976191365	-0.262369
C	-1.0868132048	-1.8578354064	-0.6381255651	 0.427765
C	-2.2130737616	-2.6150843499	-0.853063221	-0.170336
N	-1.810030565	-3.8366512734	-1.2962013374	-0.185071
N	-0.5084092795	-3.8708701081	-1.3642926763	-0.131544
N	-0.0551042373	-2.6637171772	-0.9647042174	-0.225004
H	 0.6014740726	 2.0087869304	 0.4575185534	 0.267032
H	-1.0609402088	 1.6413391815	 0.4322630229	 0.272553
H	-3.2487787078	-2.3545543421	-0.7164144498	 0.12368
67.4762	80.3436	207.599	325.024	371.7441	382.2795	400.294	457.8189	600.3575	652.3569	699.7997	715.9897	762.9495	768.4375	772.1854	824.0454	974.3235	991.7126	1043.3477	1086.5963	1109.6347	1115.2087	1139.6764	1232.936	1341.1602	1352.6177	1428.5288	1470.0743	1618.1214	1633.0968	1744.6001	3281.7027	3542.295	3597.6442	3599.8499	3714.9012
NC(=[NH2+])OC1=CN=N[N-]1	NC(=N)Oc1cnn[nH]1	
InChI=1S/C3H4N5O/c4-3(5)9-2-1-6-8-7-2/h1H,(H3-,4,5,6,7,8)/q-1/p+1	InChI=1S/C3H5N5O/c4-3(5)9-2-1-6-8-7-2/h1H,(H3,4,5)(H,6,7,8)
