23
gdb 63924	2.98307	1.3877	1.20125	0.1193	90.46	-0.2319	0.0267	0.2587	1165.9151	0.206542	-351.1693	-351.160678	-351.159734	-351.201977	34.868	
C	-0.9069781063	 1.4753375915	 0.07347436	-0.449432
C	-0.1951546255	 0.1271123005	 0.0262932024	 0.347329
C	-1.1914327647	-1.0032515713	-0.2417731046	-0.43736
C	 1.049719319	 0.0410762844	-0.9152989631	-0.278007
C	 1.8840818415	-0.620651372	 0.2175049483	 0.001948
C	 3.1661017374	 0.1149833657	 0.656838089	-0.27822
C	 2.6563732395	 1.0950373016	 1.6898567754	-0.066652
C	 1.3727510473	 0.9013291167	 1.9985081343	-0.083511
C	 0.7542548941	-0.2351349419	 1.2311322205	-0.090943
H	-0.2067650541	 2.2896118373	 0.2827531983	 0.113647
H	-1.393703586	 1.6885504638	-0.8857690661	 0.107508
H	-1.6838057391	 1.4916613041	 0.847597343	 0.105813
H	-1.7060841669	-0.8534847887	-1.1980799976	 0.107969
H	-0.6928674108	-1.9779360056	-0.2805513898	 0.109704
H	-1.9536951667	-1.0506929485	 0.5448989514	 0.108281
H	 0.9149002744	-0.5433907001	-1.83003071	 0.089944
H	 1.437143867	 1.0264205109	-1.1922395778	 0.092603
H	 2.0359977566	-1.6907715582	 0.0691340803	 0.063333
H	 3.9126905585	-0.5635756346	 1.0925891845	 0.099823
H	 3.6624781009	 0.6132437401	-0.1867437698	 0.10035
H	 3.2930642015	 1.8534042642	 2.1343134292	 0.088113
H	 0.8201731918	 1.4820892793	 2.7299988845	 0.089146
H	 0.3553336707	-1.0123470289	 1.8940718376	 0.058614
83.9176	182.6316	222.4107	250.2653	287.7698	301.8288	326.994	376.0441	416.751	499.7095	566.9063	704.3558	732.9172	772.5608	795.2804	857.5412	864.3747	896.6044	917.3861	945.4886	950.5829	966.474	976.9088	990.6453	1020.4886	1048.5618	1058.0439	1097.7658	1134.5911	1175.6211	1194.8905	1208.8749	1220.1537	1239.1542	1268.7047	1290.2722	1308.818	1313.1459	1331.5987	1380.2983	1398.3016	1416.242	1477.2813	1483.8657	1484.3639	1488.355	1500.4019	1506.2527	1675.3242	3005.3104	3015.4383	3019.7386	3026.4438	3032.5552	3045.2699	3077.1199	3084.7617	3086.2639	3089.0624	3100.2446	3103.8203	3171.1194	3196.646
CC1(C)CC2CC=CC12	CC1(C)C[C@H]2CC=C[C@@H]12	
InChI=1S/C9H14/c1-9(2)6-7-4-3-5-8(7)9/h3,5,7-8H,4,6H2,1-2H3	InChI=1S/C9H14/c1-9(2)6-7-4-3-5-8(7)9/h3,5,7-8H,4,6H2,1-2H3/t7-,8-/m1/s1
