16
gdb 80189	2.48467	1.75019	1.44212	4.1074	64.31	-0.2387	0.0494	0.2881	955.3016	0.124397	-475.040174	-475.031996	-475.031052	-475.073098	29.844	
C	-0.1025418933	 1.3892679121	-0.1470567241	-0.342017
N	-0.0528568252	-0.0321693819	 0.1302052628	-0.112055
C	-1.2001714547	-0.8770511387	 0.0790890412	-0.09404
C	-1.3633642942	-1.7053673631	-1.193808488	 0.057592
O	-0.6864542384	-1.2966742923	-2.3335274712	-0.417612
C	-0.5975530024	-2.2553665785	-0.0110037864	-0.003307
O	 0.8010291849	-2.0960359875	-0.0540527359	-0.254589
C	 1.1111415835	-0.7451171554	-0.0384306627	 0.477502
O	 2.2300956098	-0.3331736088	-0.1627596572	-0.393597
H	 0.918359262	 1.7703631378	-0.099150567	 0.167014
H	-0.5141760203	 1.5836621528	-1.1443933434	 0.140386
H	-0.7157621546	 1.9034716095	 0.5998248401	 0.125731
H	-2.0461619433	-0.6135249808	 0.7041319456	 0.114144
H	-2.3505374634	-2.1356924972	-1.3581245083	 0.106284
H	 0.0017898613	-1.9424263115	-2.5315353489	 0.305541
H	-0.9162362816	-3.1246159765	 0.5497353933	 0.123024
94.0939	126.2195	152.4824	188.114	277.3605	282.1607	304.6391	485.0215	587.7222	643.9526	681.1144	733.3702	759.7257	775.9376	809.3814	842.7404	968.2363	1034.4394	1063.6923	1067.9971	1101.2806	1113.321	1135.0072	1160.7385	1216.5437	1252.2306	1319.9998	1350.9776	1359.0933	1399.9573	1427.8896	1455.148	1490.9638	1515.8356	1884.1275	3028.079	3088.3591	3114.5264	3151.1668	3169.3979	3197.9849	3792.8793
CN1C2C(O)C2OC1=O	CN1[C@H]2[C@@H](O)[C@H]2OC1=O	
InChI=1S/C5H7NO3/c1-6-2-3(7)4(2)9-5(6)8/h2-4,7H,1H3	InChI=1S/C5H7NO3/c1-6-2-3(7)4(2)9-5(6)8/h2-4,7H,1H3/t2-,3+,4-/m0/s1
