21
gdb 52691	2.87896	0.86178	0.69264	1.9181	88.05	-0.2456	0.0394	0.285	1677.2514	0.180783	-387.053182	-387.042728	-387.041784	-387.090215	36.864	
C	 0.051415455	 1.4613985988	 0.034760479	-0.499384
C	 0.020678072	 0.0060176402	 0.022300292	 0.073911
C	-0.0015378436	-1.1987987667	 0.0322022512	 0.049679
C	-0.0536053257	-2.6632599909	-0.0176457794	-0.0821
O	-1.3941027434	-3.1545609033	 0.0374719418	-0.420844
C	 0.6886162163	-3.2079190257	-1.2397923593	 0.058325
C	 2.2328916807	-3.0474662829	-1.3088777183	-0.230055
C	 2.3174894085	-4.493271031	-1.8713032977	-0.213682
C	 0.8773164516	-4.7456028836	-1.3470099979	-0.231342
H	 0.7415322666	 1.8358882131	 0.7988100732	 0.151304
H	 0.3742307199	 1.864770387	-0.931328524	 0.14772
H	-0.9389347254	 1.8757065868	 0.2536231546	 0.150776
H	 0.4233746125	-3.0727357666	 0.8830249311	 0.104495
H	-1.8991062265	-2.6762813226	-0.6294069036	 0.279697
H	 0.2184119338	-2.8059588845	-2.1450003908	 0.064561
H	 2.6315052587	-2.2333176616	-1.9174805657	 0.098957
H	 2.6693637848	-2.9742752976	-0.3070832986	 0.100749
H	 2.3598111772	-4.5012370014	-2.9642462179	 0.100827
H	 3.114410683	-5.1368829086	-1.4916452064	 0.096256
H	 0.8761036565	-5.2136535095	-0.3574484318	 0.102392
H	 0.1870950376	-5.2978207495	-1.9878481916	 0.097756
32.5834	57.0415	82.2642	121.3521	148.0171	194.2048	261.1286	302.8267	319.6717	374.6259	417.2505	463.9042	567.3434	661.1411	770.1917	782.8121	814.5566	895.9098	933.055	959.9218	967.2218	1022.439	1051.9545	1054.2546	1057.7678	1097.2476	1135.5781	1170.3719	1202.5102	1221.2207	1254.5559	1256.6119	1262.1346	1276.0347	1288.0202	1310.1586	1378.7125	1412.8557	1418.2309	1477.1495	1478.8668	1479.4071	1486.3658	1510.0124	2363.1614	3016.0375	3027.6571	3038.6732	3050.2304	3055.8554	3058.7311	3088.5377	3089.4679	3100.0807	3109.7776	3120.6599	3806.0775
CC#CC(O)C1CCC1	CC#C[C@@H](O)C1CCC1	
InChI=1S/C8H12O/c1-2-4-8(9)7-5-3-6-7/h7-9H,3,5-6H2,1H3	InChI=1S/C8H12O/c1-2-4-8(9)7-5-3-6-7/h7-9H,3,5-6H2,1H3/t8-/m1/s1
