18
gdb 55040	3.27951	1.12321	0.91815	3.5057	74.02	-0.2387	0.0386	0.2772	1273.7508	0.14834	-435.243393	-435.234575	-435.23363	-435.277692	32.548	
N	-0.1447018598	 1.1207223605	-0.2040943505	-0.536229
C	-0.096131346	-0.2492618065	-0.0546876891	 0.413322
O	 0.8417158317	-0.9307747176	-0.4083935879	-0.373036
N	-1.2339901875	-0.7669817595	 0.5867552744	-0.124776
C	-2.5975954489	-0.613052945	 0.0997083048	-0.273443
C	-1.9271854223	-1.9573103501	 0.1359915538	-0.018574
C	-1.5574468224	-2.6505722437	-1.1357265926	 0.034471
C	-0.9409882435	-3.9950083142	-1.0848694134	-0.23351
N	-2.3310660116	-3.8349946089	-1.5506179647	-0.333445
H	 0.7460315628	 1.5500782722	-0.3995786641	 0.263931
H	-0.7649758041	 1.6437657911	 0.3933479089	 0.259362
H	-3.3443060745	-0.3448384922	 0.8430452316	 0.12139
H	-2.7355400646	-0.1590356841	-0.8793610811	 0.134773
H	-2.1972966344	-2.6368476976	 0.9456801823	 0.092388
H	-1.289406653	-1.9906735115	-1.9562764948	 0.103502
H	-0.2298293557	-4.2907283541	-1.8496020436	 0.128075
H	-0.76296306	-4.4327569536	-0.1058473839	 0.113843
H	-2.9773388961	-4.1044222951	-0.8111863901	 0.227956
59.6999	65.1142	124.1893	195.6894	261.8075	300.8687	361.7713	448.2787	458.7979	509.8841	534.6319	640.111	726.6705	785.4421	793.0221	856.8004	900.3239	945.0778	953.5937	972.3752	1029.6302	1075.4311	1094.5154	1112.6421	1121.4207	1126.5478	1155.6601	1165.2948	1242.2513	1252.8783	1280.8424	1293.9471	1335.3403	1399.4654	1463.1993	1509.9628	1516.8285	1617.4321	1806.1102	3093.9349	3098.5203	3113.5008	3147.9691	3187.2071	3201.7619	3481.7415	3586.776	3708.9342
NC(=O)N1CC1C1CN1	NC(=O)N1C[C@H]1[C@H]1CN1	
InChI=1S/C5H9N3O/c6-5(9)8-2-4(8)3-1-7-3/h3-4,7H,1-2H2,(H2,6,9)	InChI=1S/C5H9N3O/c6-5(9)8-2-4(8)3-1-7-3/h3-4,7H,1-2H2,(H2,6,9)/t3-,4+,8?/m1/s1
