21
gdb 118285	5.82422	0.53614	0.51046	3.9226	77.37	-0.2734	0.0086	0.282	2092.3928	0.179583	-461.381678	-461.370616	-461.369672	-461.419634	37.622	
C	-0.0122216496	 1.4537877047	 0.2566556332	-0.404208
C	-0.0191598423	-0.0649540749	 0.0375391551	 0.007256
C	 0.6684547228	-0.4903975487	-1.2706389533	-0.173747
C	-0.0393148811	-0.0198956252	-2.5367027085	-0.084365
O	 0.6516237942	-0.5863764964	-3.6397486588	-0.419904
C	 0.6509303988	-0.7949767422	 1.2040839008	-0.086567
O	-0.0655146196	-0.5562619608	 2.4230548954	-0.182183
C	 0.6154087497	-0.1165297912	 3.4965468945	 0.170858
O	 0.0983446267	 0.0851276312	 4.5537494209	-0.275496
H	 1.0127184336	 1.8449566734	 0.256000843	 0.113048
H	-0.5662532444	 1.975153591	-0.5282102322	 0.122365
H	-0.4750778348	 1.7123035261	 1.2125428986	 0.136565
H	-1.062765513	-0.4072110218	 0.0092548997	 0.092628
H	 1.7018199106	-0.1204393191	-1.2909091614	 0.105229
H	 0.7285043166	-1.5847155282	-1.3203778094	 0.107754
H	-1.0924076224	-0.3463915936	-2.5138918191	 0.087696
H	-0.0389139443	 1.0788761452	-2.5941477906	 0.090954
H	 0.2410987408	-0.2677453117	-4.4487745765	 0.287514
H	 0.6497049146	-1.8766194829	 1.0320215855	 0.120494
H	 1.6945932938	-0.4685412121	 1.3158954148	 0.107561
H	 1.6929042292	 0.0360883673	 3.2874392184	 0.07655
37.8457	53.7057	64.4596	105.6326	130.4145	184.2917	232.7916	264.3296	271.091	298.3398	347.9129	381.1977	439.5565	537.6499	680.3965	792.0629	853.2241	924.8896	946.1358	985.7752	1020.7731	1047.0991	1052.4083	1069.5476	1127.5441	1141.4355	1174.0019	1203.4244	1242.2379	1247.4116	1300.5125	1309.6938	1317.8642	1368.3948	1385.1583	1398.5875	1416.1412	1436.1184	1462.4228	1486.8302	1497.4489	1503.2255	1511.9064	1529.3367	1865.7032	2940.8213	2962.6434	2999.5337	3006.27	3016.423	3024.8435	3033.6868	3064.1465	3075.4983	3103.4546	3122.0134	3831.4219
CC(CCO)COC=O	C[C@@H](CCO)COC=O	
InChI=1S/C6H12O3/c1-6(2-3-7)4-9-5-8/h5-7H,2-4H2,1H3	InChI=1S/C6H12O3/c1-6(2-3-7)4-9-5-8/h5-7H,2-4H2,1H3/t6-/m0/s1
