16
gdb 77331	2.48879	1.52551	1.17602	3.6882	70.8	-0.2446	0.0058	0.2504	1068.4197	0.12547	-434.093792	-434.085316	-434.084372	-434.127341	30.175	
C	-0.0679524384	 1.3731109046	 0.0349201985	-0.345425
N	-0.0271951908	-0.0629319796	-0.1647800075	-0.09455
C	-1.1940510039	-0.8968703141	 0.022315699	-0.159155
C	-0.5696154476	-2.2897066835	-0.218685731	-0.106094
O	 0.802345643	-2.1235039429	 0.1338564354	-0.246808
C	 1.123684405	-0.7911908558	 0.1023147795	 0.481311
N	 2.2721056002	-0.2959183714	 0.2738952974	-0.594054
C	-1.7998903046	-0.7624504936	 1.3674594955	 0.278797
N	-2.2713907626	-0.634831772	 2.4146781773	-0.313733
H	 0.9389188545	 1.7556593687	-0.1315628413	 0.178657
H	-0.7573808907	 1.8301216261	-0.6814484687	 0.126745
H	-0.383824878	 1.6370919481	 1.0528006754	 0.142511
H	-1.9710441604	-0.6732775348	-0.7167557086	 0.139378
H	-1.0042023414	-3.0748342211	 0.4004098116	 0.149113
H	-0.6522035503	-2.5593651889	-1.2771047909	 0.130849
H	 2.967428466	-1.0277120199	 0.3939250384	 0.23246
77.3599	114.4516	144.0539	168.9262	215.7591	280.7313	311.9387	452.2338	487.3793	578.2344	657.3415	715.6055	744.3611	783.1412	807.1778	851.3703	983.1818	1002.0143	1048.5533	1083.3091	1101.3979	1163.1686	1199.1539	1239.9743	1252.1207	1287.2467	1355.9067	1376.6821	1427.8428	1458.5497	1493.1072	1511.6787	1516.3011	1785.8572	2352.1096	3018.8637	3045.549	3056.7256	3087.4705	3135.7625	3160.8077	3541.6236
CN1C(COC1=N)C#N	CN1[C@@H](CO[C]1[NH])C#N	
InChI=1S/C5H7N3O/c1-8-4(2-6)3-9-5(8)7/h4,7H,3H2,1H3	InChI=1S/C5H7N3O/c1-8-4(2-6)3-9-5(8)7/h4,7H,3H2,1H3/t4-/m1/s1
