15
gdb 113132	2.17849	1.34692	1.10491	4.4705	72.25	-0.2812	-0.014	0.2672	1151.5486	0.111028	-416.801312	-416.792267	-416.791322	-416.835443	31.634	
C	 0.3119398456	 1.0442658996	-0.2581279478	-0.25269
O	-0.3528377083	-0.0161133342	 0.4278541926	-0.214707
C	 0.4128403046	-0.6294233157	 1.3753897388	 0.109845
C	 0.0216996282	-1.9917194437	 1.7819763658	-0.34002
C	 1.308527434	-1.8500373381	 0.9399202293	-0.03626
C	 1.2525414113	-2.2450040651	-0.4412567819	 0.258151
N	 1.2014792681	-2.5459641233	-1.5563877054	-0.331
C	 2.5721265201	-2.0109153519	 1.6061796941	 0.248654
N	 3.5730308482	-2.1057644248	 2.177848494	-0.325456
H	 1.1644155984	 0.6673229663	-0.8343940871	 0.142845
H	-0.4214597238	 1.4798290038	-0.9372120085	 0.15063
H	 0.6576110355	 1.810289597	 0.4482812808	 0.12513
H	 0.8977395589	 0.0196960682	 2.1051098889	 0.13148
H	 0.1579439887	-2.295835385	 2.8123182208	 0.162515
H	-0.8182992394	-2.4351212831	 1.2608025157	 0.170882
92.1351	108.6257	137.2935	144.1009	193.2419	214.2036	286.6202	390.4049	454.2203	497.1585	517.4994	595.3864	616.3136	659.5427	762.8869	851.1117	947.9387	1020.0577	1030.0006	1096.649	1124.2995	1173.7655	1181.5582	1236.1399	1270.5149	1296.6247	1404.9931	1464.7315	1486.4821	1493.9369	1502.9906	2354.6813	2359.7891	3012.9685	3082.833	3110.6512	3150.9294	3156.4589	3256.0375
COC1CC1(C#N)C#N	CO[C@H]1CC1(C#N)C#N	
InChI=1S/C6H6N2O/c1-9-5-2-6(5,3-7)4-8/h5H,2H2,1H3	InChI=1S/C6H6N2O/c1-9-5-2-6(5,3-7)4-8/h5H,2H2,1H3/t5-/m0/s1
