20
gdb 59451	2.61485	1.09461	0.96435	4.4839	76.83	-0.2388	-0.0147	0.2241	1342.7967	0.167945	-440.275642	-440.265269	-440.264325	-440.311816	37.07	
C	-0.1168396398	 1.6356221809	-0.502793697	-0.415937
C	 0.0898660767	 0.2398952601	 0.0819397388	 0.137051
O	 0.8038974748	 0.2747963868	 1.3166586103	-0.437143
C	-1.2324676385	-0.480705679	 0.2635848163	-0.03832
N	-1.7888627878	-1.1622113041	-0.8970723245	-0.315929
C	-1.3486130147	-1.9797319689	 0.2471431637	-0.148004
C	-0.1402521403	-2.8594366947	 0.0624572243	 0.417754
C	 0.042033539	-3.9270994141	 1.1251697673	-0.487667
O	 0.6423185294	-2.7096136468	-0.8470824304	-0.303491
H	 0.8445765275	 2.1419385063	-0.6227469103	 0.12679
H	-0.6062798007	 1.5733512411	-1.4792108069	 0.135231
H	-0.7483520336	 2.2496471607	 0.1536268809	 0.096687
H	 0.7071286469	-0.3536553793	-0.5953883623	 0.134052
H	 0.3599103496	 0.9023363274	 1.8978035245	 0.273933
H	-1.925457057	 0.0238722049	 0.9413115076	 0.076934
H	-2.8035242949	-1.1036698226	-0.9078720097	 0.237622
H	-2.1135925274	-2.3926276116	 0.9021588665	 0.085147
H	-0.8108837268	-4.6159710892	 1.1268681692	 0.135217
H	 0.9621447437	-4.4812270249	 0.9384629562	 0.144167
H	 0.0830921039	-3.464216063	 2.1179194757	 0.145906
36.7294	63.0856	124.7914	137.1767	182.5773	245.1442	260.0935	269.4599	335.4055	343.872	382.5157	488.7503	503.6651	605.8026	639.8108	764.299	829.7244	875.9983	924.6178	929.6794	955.6341	978.5033	1029.2954	1052.4648	1076.7226	1112.8353	1141.2131	1184.169	1186.2607	1214.6951	1245.0686	1299.9841	1342.0973	1376.8364	1397.631	1419.8228	1424.5908	1462.3793	1471.6822	1476.5167	1493.5974	1495.9751	1811.7276	3016.7711	3032.8479	3072.9204	3089.0397	3093.3245	3115.7088	3123.4885	3124.5221	3155.8394	3507.2375	3794.7714
CC(O)C1NC1C(C)=O	C[C@@H](O)[C@H]1N[C@H]1C(=O)C	
InChI=1S/C6H11NO2/c1-3(8)5-6(7-5)4(2)9/h3,5-8H,1-2H3	InChI=1S/C6H11NO2/c1-3(8)5-6(7-5)4(2)9/h3,5-8H,1-2H3/t3-,5-,6+/m1/s1
