16
gdb 28958	2.88554	1.50335	0.99444	4.2589	85.94	-0.2595	-0.0495	0.21	1136.6121	0.126354	-363.708036	-363.700186	-363.699242	-363.740712	29.228	
C	-0.0345907482	 1.5253711165	 0.004927058	-0.503982
C	-0.0096785806	 0.0196231088	-0.0045293973	 0.224108
C	-0.0259814183	-0.6995809815	-1.1990972581	-0.173278
C	-0.001592648	-2.0920722075	-1.2102990512	-0.104978
C	 0.0399325521	-2.803390773	-0.0137288579	-0.112952
C	 0.0568672642	-2.1141449376	 1.1913103139	-0.184811
C	 0.0323201761	-0.7132988228	 1.1996210052	 0.117161
C	 0.0503514744	-0.0222300536	 2.4523230572	 0.211329
N	 0.0650554448	 0.546141065	 3.4614350857	-0.347653
H	 0.85771126	 1.9344391646	 0.4909048683	 0.151196
H	-0.0826570805	 1.9220657311	-1.0115545494	 0.125597
H	-0.8963076791	 1.9056846017	 0.5635792588	 0.151463
H	-0.0585325997	-0.154769114	-2.1372352537	 0.104043
H	-0.015272197	-2.6220146612	-2.1568288785	 0.10965
H	 0.05887445	-3.8873087211	-0.018069884	 0.111083
H	 0.0889130799	-2.6471022854	 2.1345090328	 0.122024
77.86	134.5864	149.2824	219.7321	342.1491	400.421	456.6442	475.8198	553.0204	592.4259	607.516	731.3706	741.1991	788.3581	826.3675	894.8896	951.9138	986.8492	1010.379	1063.3187	1068.3283	1127.6275	1188.834	1206.2373	1239.3978	1305.2473	1329.8874	1418.622	1466.1737	1481.5401	1494.8003	1516.0349	1608.0109	1640.7082	2338.1287	3039.2683	3094.0582	3127.1359	3174.788	3187.4211	3197.3061	3209.3683
CC1=CC=CC=C1C#N	Cc1ccccc1C#N	
InChI=1S/C8H7N/c1-7-4-2-3-5-8(7)6-9/h2-5H,1H3	InChI=1S/C8H7N/c1-7-4-2-3-5-8(7)6-9/h2-5H,1H3
