21
gdb 109164	3.18251	1.07057	0.87302	0.9138	80.83	-0.2373	0.0215	0.2587	1376.522	0.181825	-424.234818	-424.224995	-424.224051	-424.269551	36.381	
C	 0.0201673625	 1.5764712356	 0.0334882088	-0.393113
C	 0.1253058226	 0.0538193583	 0.0123510177	 0.001258
C	 0.892793994	-0.5423978892	-1.1968186386	-0.280784
C	 1.5420191651	-1.7763891816	-0.6210591989	-0.155787
C	 1.4640263449	-1.8199509095	 0.7106556239	 0.274099
C	 2.016502796	-2.8631910484	 1.6255609838	-0.185114
O	 2.7280264246	-3.8338278771	 0.877430445	-0.417583
C	 0.8136474018	-0.5683525909	 1.2636092622	 0.019694
O	 1.7819146249	 0.2735918686	 1.9013102047	-0.430709
H	 1.0082501461	 2.0419332327	 0.0964353668	 0.110202
H	-0.4708446846	 1.9438248596	-0.873730282	 0.107759
H	-0.5581145023	 1.9241220665	 0.8953065223	 0.116111
H	-0.8870173888	-0.3681932046	-0.0132134736	 0.077897
H	 0.2245550323	-0.7685952598	-2.036001353	 0.104587
H	 1.6455234393	 0.1552397102	-1.5935443166	 0.099349
H	 2.0306148314	-2.5307863228	-1.225884049	 0.109367
H	 2.6609015246	-2.3708287458	 2.3732175827	 0.105017
H	 1.1862433435	-3.3232405024	 2.1914592023	 0.094732
H	 3.063824406	-4.4943490385	 1.4896640097	 0.289286
H	 0.0838304935	-0.7676853783	 2.0565916656	 0.077155
H	 2.5357525026	 0.3425777771	 1.3043448562	 0.276576
63.5117	89.036	171.718	197.4923	224.4059	244.5305	258.5235	279.3417	324.5718	369.7569	402.0735	545.6461	576.3848	671.8929	681.0791	817.7833	839.6666	893.8494	910.9816	941.5988	994.2023	1010.654	1044.312	1066.3166	1078.5668	1115.237	1144.601	1166.24	1205.6432	1213.7613	1242.5635	1254.5017	1284.3458	1306.4817	1320.8806	1348.6593	1370.3469	1413.0941	1430.5567	1463.7192	1490.0462	1491.9287	1498.0348	1510.3803	1721.7241	2939.5826	2971.0392	2997.7033	3021.8947	3036.0363	3045.8127	3054.0343	3102.0357	3109.0055	3211.2368	3795.4598	3837.4446
CC1CC=C(CO)C1O	C[C@H]1CC=C(CO)[C@H]1O	
InChI=1S/C7H12O2/c1-5-2-3-6(4-8)7(5)9/h3,5,7-9H,2,4H2,1H3	InChI=1S/C7H12O2/c1-5-2-3-6(4-8)7(5)9/h3,5,7-9H,2,4H2,1H3/t5-,7-/m0/s1
