20
gdb 78352	2.21223	1.65879	1.42864	1.5131	78.71	-0.2328	0.0612	0.294	1050.0104	0.170458	-403.082155	-403.073513	-403.072569	-403.114852	33.902	
C	-0.1744648787	 1.5463330819	-0.0163586322	-0.438624
C	 0.0638262706	 0.0537308416	-0.1118920189	 0.022503
C	 0.7517120085	-0.6894842926	-1.1951942798	-0.112476
C	 1.9727490986	 0.0282173048	-1.7702983113	 0.040604
O	 1.8237055215	 1.1327050922	-2.6301083079	-0.432056
C	 2.4429704615	 0.1826801826	-0.3150535917	 0.342281
C	 3.8351699427	 0.0340839017	 0.1993995627	-0.353381
C	 3.0917338419	 1.342612275	 0.3723000365	-0.324375
N	 1.3266100266	-0.6357435468	 0.2307821054	-0.186542
H	 0.6628964072	 2.145659827	-0.376654267	 0.125612
H	-1.0708935154	 1.8178296055	-0.584855867	 0.1243
H	-0.3481433792	 1.8326796793	 1.0264429666	 0.129718
H	-0.7664982854	-0.515493398	 0.3050920859	 0.098392
H	 0.3420318394	-1.6106797829	-1.5981540289	 0.09436
H	 2.6187900164	-0.6706428291	-2.3088203833	 0.104395
H	 1.1127488317	 1.6864788733	-2.2953071325	 0.286332
H	 3.9692992436	-0.5868015639	 1.0786246295	 0.123645
H	 4.6454745337	-0.0096313628	-0.5215357114	 0.116019
H	 3.3840451586	 2.187988413	-0.2432744751	 0.120568
H	 2.7477533762	 1.6008243983	 1.3683177403	 0.118727
123.1624	162.8088	204.4418	204.8887	241.4742	294.2152	324.9891	354.2504	442.836	537.6972	580.0171	651.1623	722.4042	761.9173	775.7528	798.0761	888.1862	909.0757	922.612	967.4686	987.5252	998.9558	1038.0365	1053.7503	1076.4619	1078.2469	1109.352	1124.7539	1170.3483	1192.501	1219.4402	1244.566	1278.6256	1278.7508	1349.0924	1379.4134	1408.9052	1434.1822	1445.0282	1452.5251	1494.0568	1497.2493	1510.8559	3037.5303	3076.3015	3093.0468	3109.5506	3124.3413	3127.628	3136.6471	3158.2182	3207.0064	3221.5465	3840.5881
CC1C2C(O)C3(CC3)N12	C[C@H]1[C@H]2[C@@H](O)C3(CC3)N12	
InChI=1S/C7H11NO/c1-4-5-6(9)7(2-3-7)8(4)5/h4-6,9H,2-3H2,1H3	InChI=1S/C7H11NO/c1-4-5-6(9)7(2-3-7)8(4)5/h4-6,9H,2-3H2,1H3/t4-,5-,6+,8?/m0/s1
