23
gdb 65563	3.68737	0.98133	0.92525	0.9969	86.29	-0.2325	0.0868	0.3193	1404.15	0.20454	-388.261612	-388.252221	-388.251277	-388.295963	36.386	
C	-0.3622303517	 1.4142245032	 0.2324005325	-0.440903
C	-0.0400718213	-0.0536675315	-0.0373190202	 0.436597
C	 1.2137335275	-0.2577214752	-0.949304233	-0.264847
C	 2.0566153013	-0.5014425503	 0.3321257622	-0.22203
C	 0.7376873879	-0.7336963618	 1.1172502496	-0.266096
O	-1.193175408	-0.8105853073	-0.3798790317	-0.300074
C	-1.817548413	-0.4594590973	-1.5769136809	 0.133637
C	-3.166561241	-1.0588926384	-1.8093539654	-0.296148
C	-3.0357094236	 0.4312982506	-1.5614591167	-0.282486
H	 0.533949267	 1.9466311017	 0.5664811096	 0.113664
H	-0.7350699163	 1.9137887328	-0.6660849141	 0.121375
H	-1.1218372578	 1.4978552242	 1.0162460161	 0.1169
H	 1.109296675	-1.1704764036	-1.5417884363	 0.106198
H	 1.5066407106	 0.5660812757	-1.6055054242	 0.091245
H	 2.7697423026	-1.3274052976	 0.305494725	 0.100626
H	 2.5855811394	 0.3973764869	 0.6593362124	 0.103075
H	 0.6429543439	-0.2903148076	 2.1117298412	 0.092554
H	 0.4708412903	-1.7917413475	 1.1680752589	 0.110493
H	-1.1426052119	-0.3787072073	-2.4287307814	 0.084487
H	-3.4171983063	-1.4080053408	-2.8046599324	 0.111466
H	-3.5681617383	-1.6596099909	-1.0011414977	 0.123945
H	-3.3613436616	 0.7977472512	-0.5949468693	 0.118174
H	-3.1945577046	 1.116768591	-2.3874289445	 0.108149
56.8242	90.9315	142.3542	172.042	273.6656	301.2411	306.7342	333.6347	404.0834	457.5145	478.1041	649.8934	714.4168	759.4523	793.1271	810.8877	834.8781	865.4433	905.4801	926.0884	934.6576	938.4237	971.2521	990.5282	1025.6053	1048.484	1058.1678	1069.2938	1126.8544	1167.9792	1186.946	1192.648	1196.2778	1201.8888	1225.9798	1238.2189	1249.9137	1277.9173	1288.9005	1301.237	1400.9484	1406.6408	1452.1928	1467.3728	1480.9802	1488.3223	1494.5322	1500.3135	1506.0311	3036.4614	3054.403	3061.3038	3068.3769	3102.4815	3103.7676	3106.5481	3114.7555	3116.3652	3128.825	3132.8259	3139.7474	3218.5822	3232.9939
CC1(CCC1)OC1CC1	CC1(CCC1)OC1CC1	
InChI=1S/C8H14O/c1-8(5-2-6-8)9-7-3-4-7/h7H,2-6H2,1H3	InChI=1S/C8H14O/c1-8(5-2-6-8)9-7-3-4-7/h7H,2-6H2,1H3
