22
gdb 102168	2.16692	1.04761	0.86954	3.1755	82.52	-0.2685	0.0298	0.2984	1449.4325	0.19219	-404.371079	-404.36017	-404.359226	-404.407344	39.354	
C	-0.1865149994	 1.3396555799	 0.3388608265	-0.39659
C	-0.1206317236	-0.1533053847	-0.0021554359	-0.183839
C	 0.5340477317	-0.4940039545	-1.3553884299	-0.0089
C	 0.7946130118	-2.0227375294	-1.4179624208	-0.359766
C	 1.570660799	-2.4402844268	-2.5841489513	 0.262314
N	 2.1945123579	-2.7550719471	-3.5050687188	-0.315484
C	-0.2280653301	-0.0047660437	-2.6161250336	 0.121238
C	-1.7032955061	-0.3896593873	-2.6690667723	-0.388529
O	-0.1866265317	 1.4152159915	-2.7356302083	-0.431087
H	 0.8167505897	 1.7808492968	 0.3538249664	 0.107672
H	-0.7772862031	 1.8967587789	-0.3890961675	 0.145776
H	-0.6238778089	 1.4829501038	 1.3319932574	 0.109808
H	 0.4486775217	-0.6659192371	 0.7843301029	 0.093574
H	-1.1274406304	-0.5877441987	 0.0337560517	 0.103031
H	 1.520202593	-0.0074884507	-1.3861861977	 0.079555
H	 1.3397854445	-2.3360878218	-0.5209478089	 0.152155
H	-0.1523689124	-2.5748019285	-1.4124386196	 0.152754
H	 0.2722683628	-0.4548553588	-3.4873606648	 0.095685
H	-2.2676980327	 0.0892822715	-1.8644676567	 0.130034
H	-2.1287120206	-0.0582915209	-3.6193595536	 0.132982
H	-1.8405684365	-1.4724428709	-2.5966970694	 0.114634
H	 0.7333395033	 1.6829709585	-2.8292044255	 0.282984
54.3779	70.3372	110.4903	142.6285	223.3757	228.7315	233.4836	290.1728	290.275	316.0096	348.9084	391.8527	414.7748	458.3193	542.5384	613.0542	747.0884	798.9762	897.9917	913.5965	940.3756	969.7427	1018.3392	1027.8685	1036.8815	1093.9857	1136.1747	1140.3681	1159.6651	1220.8753	1275.234	1288.2639	1300.7841	1347.8051	1363.9708	1376.6403	1401.8408	1413.7436	1422.0373	1450.1075	1465.4226	1482.6848	1490.1646	1495.1195	1506.2268	1515.153	2357.5504	2982.9815	2997.9666	3017.3827	3035.8919	3045.9896	3050.8624	3055.0407	3083.6137	3096.1629	3123.2137	3128.0127	3145.5382	3815.0193
CCC(CC#N)C(C)O	CC[C@@H](CC#N)[C@@H](C)O	
InChI=1S/C7H13NO/c1-3-7(4-5-8)6(2)9/h6-7,9H,3-4H2,1-2H3	InChI=1S/C7H13NO/c1-3-7(4-5-8)6(2)9/h6-7,9H,3-4H2,1-2H3/t6-,7+/m1/s1
