19
gdb 45577	2.58407	1.63087	1.30953	3.5629	75.61	-0.2173	0.0261	0.2434	1038.5495	0.162466	-419.207749	-419.199979	-419.199035	-419.240534	30.18	
N	 0.2540138525	 0.8209619304	 0.8620882535	-0.549203
C	 0.0691968431	-0.2143063317	 0.1811117823	 0.432904
O	 0.9502159868	-0.9571171583	-0.5817348715	-0.273437
C	-0.0605333447	-1.9800954601	-0.8710722988	 0.100365
C	 0.2487382324	-3.290883557	-0.1674559516	-0.210286
C	 0.0144191986	-3.166435882	 1.3434067726	-0.223644
C	-1.4509456497	-2.8368782408	 1.6454360328	-0.140106
N	-1.9255066553	-1.644307984	 0.9268588159	-0.291236
C	-1.133904527	-1.1062643641	-0.1422202858	-0.125144
H	 1.2287633126	 1.1249104713	 0.8183611328	 0.224254
H	-0.167712267	-2.0951435999	-1.9530011204	 0.083287
H	-0.4028955234	-4.0722170981	-0.5810066636	 0.099492
H	 1.2806894853	-3.5830634837	-0.3900712339	 0.113616
H	 0.2745026325	-4.1011613588	 1.8491405937	 0.101894
H	 0.6705337721	-2.3937819445	 1.7593243064	 0.130283
H	-2.0584030807	-3.7146200483	 1.3733437442	 0.087666
H	-1.5813227119	-2.6889740663	 2.7255583875	 0.105932
H	-2.8943460246	-1.7319282107	 0.663996927	 0.225732
H	-1.7921847315	-0.5866911335	-0.842957833	 0.107629
51.2809	102.2409	242.2917	266.7404	347.6713	411.883	455.2787	501.5782	550.4454	600.6153	716.8502	784.8293	792.7683	846.7257	861.1031	866.3515	876.6575	932.3496	969.94	1003.8987	1027.382	1057.208	1085.7946	1112.9537	1169.7626	1196.0054	1204.9375	1231.7544	1250.3376	1286.7542	1330.0635	1352.4538	1354.6627	1374.2846	1390.4053	1432.5573	1468.6357	1493.4719	1502.8445	1528.9108	1821.5358	2970.946	3017.4446	3022.1148	3050.6751	3070.8335	3075.8143	3085.7113	3091.2099	3467.0686	3608.3185
N=C1OC2CCCNC12	[NH][C]1O[C@H]2CCCN[C@@H]12	
InChI=1S/C6H10N2O/c7-6-5-4(9-6)2-1-3-8-5/h4-5,7-8H,1-3H2	InChI=1S/C6H10N2O/c7-6-5-4(9-6)2-1-3-8-5/h4-5,7-8H,1-3H2/t4-,5+/m0/s1
