18
gdb 46836	2.80253	1.82067	1.49269	3.2808	77.14	-0.2468	-0.0025	0.2443	938.0063	0.151476	-401.970154	-401.963287	-401.962342	-402.001327	27.93	
N	-0.0819244488	 1.2821415201	 0.2929803486	-0.524551
C	-0.0245112377	 0.0574415981	-0.0214519085	 0.410972
O	 1.1712895822	-0.5523716495	-0.2932156603	-0.26965
C	 1.2561429465	-1.8514997923	-0.9150595612	-0.06688
C	-0.0462200477	-2.6620714203	-0.8478864979	-0.079576
C	-1.1812645844	-1.7219745897	-1.3022498308	-0.238852
C	-1.2584704672	-0.8231143358	-0.0501569838	-0.115271
C	-1.1140113679	-1.8611578821	 1.0633674672	-0.078271
C	-0.4298467533	-2.90828051	 0.6060105153	-0.073251
H	 0.8545891778	 1.6928669497	 0.2703409304	 0.215098
H	 1.5449306796	-1.6954159693	-1.9627325519	 0.109969
H	 2.0780505528	-2.3674643305	-0.4082271594	 0.11504
H	 0.067159802	-3.5664853487	-1.4522954297	 0.075471
H	-0.9503868743	-1.1722178806	-2.2204875704	 0.10439
H	-2.1179800106	-2.2679304078	-1.4398809353	 0.106588
H	-2.1392395239	-0.1866624478	 0.0206801741	 0.095628
H	-1.4537955498	-1.690632628	 2.0769691635	 0.11163
H	-0.1037743254	-3.7696270956	 1.1764108698	 0.101517
107.2927	177.6259	312.8932	377.6535	406.0543	418.2312	572.8237	601.1914	680.0006	742.1058	759.8676	817.2562	849.3166	865.6119	899.0491	909.7673	938.5815	957.1368	968.0463	1005.0037	1011.7098	1051.457	1092.7716	1102.9874	1128.739	1188.1361	1209.9551	1252.701	1288.1795	1299.3808	1307.2005	1316.3222	1333.8682	1368.5973	1424.6803	1494.133	1509.886	1668.0719	1746.4046	3016.3293	3051.818	3073.2896	3074.5556	3106.3825	3129.3077	3198.334	3225.8338	3453.8433
N=C1OCC2CC1C=C2	[NH][C]1OC[C@@H]2C[C@H]1C=C2	
InChI=1S/C7H9NO/c8-7-6-2-1-5(3-6)4-9-7/h1-2,5-6,8H,3-4H2	InChI=1S/C7H9NO/c8-7-6-2-1-5(3-6)4-9-7/h1-2,5-6,8H,3-4H2/t5-,6+/m0/s1
