19
gdb 107910	3.91368	1.13343	1.08885	2.0064	74.78	-0.233	0.0651	0.298	1194.6492	0.158539	-422.954532	-422.946198	-422.945254	-422.987535	32.095	
C	-0.1563466858	 1.4109853714	 0.0221158713	-0.408423
C	 0.020955378	-0.1005944657	-0.043107743	 0.005645
C	 0.8697357643	-0.592347359	-1.2206403898	-0.150046
C	 2.1580913003	-0.5022809579	-0.3993685727	-0.22048
C	 1.1847064322	-0.649281099	 0.8310359437	 0.058812
O	 1.1107973586	-2.0903062951	 0.6373564478	-0.340601
C	 1.5888299279	-1.8475064168	-0.6956463324	 0.448321
C	 2.0335462093	-3.0235153394	-1.4967163188	-0.193769
O	 0.952942206	-3.8774865584	-1.8384490876	-0.412721
H	 0.7992729703	 1.9295244334	-0.1124262174	 0.116756
H	-0.8375738684	 1.7618501071	-0.7598075559	 0.120131
H	-0.5755497404	 1.7145436034	 0.987791507	 0.114994
H	-0.9315157599	-0.6172233809	 0.1232571861	 0.073098
H	 0.7362588604	-0.4055366891	-2.2791730301	 0.093103
H	 3.1226206527	-0.043668891	-0.5669919672	 0.100219
H	 1.343924323	-0.3529372344	 1.8666022651	 0.085312
H	 2.4755993333	-2.6792953209	-2.4376040899	 0.115088
H	 2.8116997377	-3.5679488262	-0.9396106375	 0.100337
H	 0.5044238905	-4.1022768213	-1.0157366087	 0.294224
74.8061	114.329	218.4383	235.3701	240.9755	312.1745	370.5354	414.0943	500.4906	558.5405	701.2001	767.5315	779.3583	792.2116	834.7692	872.9123	911.5353	914.7431	948.1601	983.7054	1011.0465	1038.5063	1060.2479	1068.0727	1077.3912	1110.4011	1128.6911	1150.2552	1171.4222	1225.1284	1246.3554	1280.1818	1292.1503	1368.4844	1374.7166	1400.7764	1411.1201	1466.3497	1490.6125	1495.1666	1500.3605	2987.8669	3028.3633	3040.175	3078.0266	3094.8144	3100.2441	3135.5213	3193.2976	3210.8452	3808.2432
CC1C2C3C1OC23CO	C[C@H]1[C@H]2[C@H]3[C@@H]1O[C@@]23CO	
InChI=1S/C7H10O2/c1-3-4-5-6(3)9-7(4,5)2-8/h3-6,8H,2H2,1H3	InChI=1S/C7H10O2/c1-3-4-5-6(3)9-7(4,5)2-8/h3-6,8H,2H2,1H3/t3-,4-,5-,6+,7-/m0/s1
