18
gdb 97139	4.02055	1.11013	1.00149	3.3223	76.14	-0.2397	0.0269	0.2666	1228.0957	0.147126	-439.081659	-439.07297	-439.072026	-439.115151	32.329	
C	-0.1692722787	 1.4082589424	 0.0772539718	-0.329529
N	-0.2028615585	-0.0437058541	 0.1440296368	-0.338022
C	 0.5892472101	-0.6473504734	 0.913123705	 0.465331
O	 1.4874005545	-0.031650711	 1.7668416681	-0.262763
C	 2.4752991107	-0.9646138605	 2.2221682304	-0.150348
C	 1.9260250914	-2.3541577505	 1.9236066488	 0.366782
O	 2.8395597752	-3.358542371	 1.6275949129	-0.46202
C	 0.570947435	-2.6610238941	 2.4784011248	-0.351666
C	 0.7172927098	-2.1189586919	 1.0569499556	-0.199545
H	 0.7602726579	 1.8509464948	 0.4536229321	 0.119459
H	-0.3204526135	 1.7185056383	-0.9615859508	 0.119996
H	-1.0026566101	 1.8229020389	 0.6583760647	 0.123569
H	 3.4113166089	-0.8206636738	 1.6685805134	 0.121501
H	 2.6541777772	-0.7710765414	 3.2853351372	 0.11034
H	 3.0905037156	-3.7919090721	 2.4503620298	 0.290693
H	 0.3028397183	-3.7098527951	 2.5398347874	 0.124939
H	 0.14290409	-2.0229442055	 3.2453039124	 0.12721
H	 0.456890586	-2.7537195401	 0.2222715296	 0.124074
74.1157	99.288	178.5957	223.1721	248.1222	281.2476	349.8016	375.3173	410.1755	494.5653	581.8857	679.3769	700.8145	747.4265	809.7243	903.6942	933.1148	954.5529	991.3438	1023.7553	1054.2477	1055.3606	1068.5202	1095.9476	1125.3033	1152.4873	1195.4128	1208.2251	1255.4626	1300.4739	1328.923	1365.4025	1417.9815	1437.6455	1484.5751	1491.8394	1497.8848	1517.4586	1804.9215	3013.2796	3027.4853	3070.3915	3075.4968	3091.1206	3128.2982	3221.8112	3230.9017	3804.0916
CN=C1OCC2(O)CC12	CN=C1OC[C@@]2(O)C[C@@H]12	
InChI=1S/C6H9NO2/c1-7-5-4-2-6(4,8)3-9-5/h4,8H,2-3H2,1H3	InChI=1S/C6H9NO2/c1-7-5-4-2-6(4,8)3-9-5/h4,8H,2-3H2,1H3/t4-,6-/m0/s1
