15
gdb 18851	3.74486	2.3028	1.91882	2.9351	64.04	-0.2424	-0.0168	0.2256	731.8546	0.121319	-362.652205	-362.646305	-362.645361	-362.68214	23.398	
O	-0.025396841	 0.0231822065	-0.1232889176	-0.32802
C	-0.0440159693	 1.2096503678	 0.0484465506	 0.447376
C	-1.1186073462	 2.2432432538	 0.0637000377	-0.19415
C	-0.74075829	 3.3667883302	 0.9910532549	-0.004629
C	 0.2154018491	 3.1282250351	 2.1550037897	-0.25733
C	 1.517796203	 2.6791646923	 1.4456389555	-0.219733
C	 1.0290084466	 2.313175841	 0.0453866693	-0.128277
N	-0.0767161695	 3.3164049725	-0.3096605983	-0.134589
H	-2.0976115903	 2.1794641547	-0.3990989113	 0.119221
H	-1.4937035819	 4.1453083422	 1.0774909684	 0.107845
H	 0.3596462487	 4.0497611932	 2.7248808785	 0.116554
H	-0.1672631079	 2.3720358894	 2.8458889698	 0.123862
H	 2.2366491398	 3.5020840609	 1.3869609484	 0.118714
H	 2.008581126	 1.8365422442	 1.9389074973	 0.12594
H	 1.793297423	 2.2203856562	-0.7258730431	 0.107216
141.3244	208.3805	361.6886	455.9023	550.2395	653.8947	690.8983	715.5565	785.2102	802.7821	839.6024	852.3657	914.762	935.0341	978.5123	1026.5945	1040.6208	1055.786	1066.9314	1124.7991	1145.6303	1186.4043	1210.3156	1240.5711	1258.2561	1309.7589	1317.6171	1329.8632	1384.9718	1481.8253	1503.9107	1883.9239	3056.137	3064.7414	3098.6602	3115.4527	3129.2826	3154.4217	3180.0407
O=C1C2C3CCC1N23	O=C1[C@H]2[C@H]3CC[C@@H]1N23	
InChI=1S/C6H7NO/c8-6-4-2-1-3-5(6)7(3)4/h3-5H,1-2H2	InChI=1S/C6H7NO/c8-6-4-2-1-3-5(6)7(3)4/h3-5H,1-2H2/t3-,4+,5-,7?/m1/s1
