15
gdb 29960	3.51851	1.24099	0.92274	6.7933	73.09	-0.2266	-0.0282	0.1984	1193.2809	0.112401	-453.989711	-453.981155	-453.980211	-454.023536	30.041	
C	 0.0026848689	 1.4721448744	 0.0424410868	-0.340224
N	-0.0237076125	 0.021802471	 0.0040222029	-0.058703
C	-0.192370767	-0.8014335279	-1.0988274861	 0.002388
N	-0.1670472161	-2.0626417869	-0.7932255753	-0.301062
C	 0.027724926	-2.1137836903	 0.5813875931	 0.067385
C	 0.1236885748	-3.3177383112	 1.3777945981	 0.084481
O	 0.0525582676	-4.4621903831	 0.9932945768	-0.280387
C	 0.1155930914	-0.814189115	 1.067918077	 0.315145
O	 0.2962746697	-0.2682169046	 2.2829597946	-0.423191
H	 0.960619869	 1.832076692	 0.4272920601	 0.156983
H	-0.1371887719	 1.8475832199	-0.9721299822	 0.151007
H	-0.7982779368	 1.8573994333	 0.6791034604	 0.157004
H	-0.3266425768	-0.3815200899	-2.0854201742	 0.137419
H	 0.2821307615	-3.1016910695	 2.4700251184	 0.01072
H	 0.3786431422	-0.9729512321	 2.9356462897	 0.321034
54.4329	101.2018	172.2343	200.2503	252.0152	267.0958	345.1231	353.013	391.8208	527.3722	666.3805	684.9007	712.5619	752.4757	809.2957	826.4496	1011.3209	1019.0974	1064.6621	1153.5071	1191.2061	1247.6558	1300.0418	1339.2933	1382.0472	1449.1677	1457.645	1480.3994	1510.4177	1519.9677	1585.9769	1596.689	1802.3664	2737.3894	3051.3275	3117.1834	3149.1793	3242.243	3812.7572
CN1C=NC(C=O)=C1O	Cn1cnc(C=O)c1O	
InChI=1S/C5H6N2O2/c1-7-3-6-4(2-8)5(7)9/h2-3,9H,1H3	InChI=1S/C5H6N2O2/c1-7-3-6-4(2-8)5(7)9/h2-3,9H,1H3
