16
gdb 113281	2.72071	1.08465	0.86943	5.3881	72.01	-0.286	-0.0657	0.2203	1339.1667	0.121131	-437.881277	-437.871876	-437.870931	-437.916211	32.596	
C	 0.4497037611	 1.4866479214	 0.2072585642	-0.382929
C	-0.0126778683	 0.030993752	 0.0571401342	-0.232785
C	 0.4126191222	-0.5378201886	-1.2750699367	 0.048153
O	 1.7552307489	-0.968445123	-1.4386805258	-0.257692
C	 0.7405728123	-1.976916513	-1.5356159592	 0.106291
C	 0.7250536271	-2.9838279683	-0.4114419876	 0.110568
O	 0.2256598471	-4.0704783503	-0.5017756099	-0.218974
C	 0.4880654531	-2.505412687	-2.8620417879	 0.264305
N	 0.2810293231	-2.9128919024	-3.9225398512	-0.317867
H	 1.5404160623	 1.5549292826	 0.161275493	 0.140926
H	 0.0376090078	 2.1176987521	-0.5869831111	 0.128861
H	 0.1221106832	 1.8969624794	 1.1658951639	 0.129564
H	 0.3864177464	-0.573257976	 0.8758677993	 0.115845
H	-1.1061842256	-0.0264860531	 0.1166763383	 0.1273
H	 0.0221269793	-0.0074194633	-2.1461332138	 0.128768
H	 1.2354525401	-2.6231190925	 0.5036257505	 0.109665
66.3921	81.6209	135.1373	137.3535	196.0056	227.3629	288.5069	299.3739	386.1836	445.9286	479.1027	597.5997	604.7043	750.0906	760.3875	846.8149	884.5814	943.0677	1026.473	1041.9286	1062.7139	1127.5631	1157.8172	1249.1829	1294.7632	1310.4478	1348.4032	1397.8998	1413.1653	1458.4425	1475.5383	1498.2783	1506.9228	1836.9055	2367.7493	2942.1664	3042.5694	3045.8882	3089.4722	3102.1452	3119.1447	3124.5493
CCC1OC1(C=O)C#N	CC[C@H]1O[C@]1(C=O)C#N	
InChI=1S/C6H7NO2/c1-2-5-6(3-7,4-8)9-5/h4-5H,2H2,1H3	InChI=1S/C6H7NO2/c1-2-5-6(3-7,4-8)9-5/h4-5H,2H2,1H3/t5-,6+/m1/s1
