19
gdb 86250	2.05683	1.34366	0.88265	3.8732	71.98	-0.2487	-0.0182	0.2305	1297.2016	0.158128	-460.176607	-460.167303	-460.166359	-460.211462	34.077	
O	-0.1382925244	 1.3697027946	-0.1792264808	-0.431228
C	-0.0932534729	-0.035466852	-0.0109666029	 0.127131
C	 0.6551891479	-0.5112656656	 1.2456396757	-0.28861
C	 0.1258295849	-1.9361750136	 1.4583081313	 0.101936
O	 0.2092161649	-2.4319289063	 2.7826157853	-0.435476
C	-1.3763975446	-1.8351447697	 1.060196122	-0.076692
C	-1.522480821	-0.5694035133	 0.1915158928	-0.244057
C	-1.8406915689	-3.1207921912	 0.413635586	 0.130544
O	-2.3797027039	-3.2090025041	-0.660333348	-0.24555
H	 0.7452927264	 1.6758353593	-0.4057801042	 0.282376
H	 0.3527355858	-0.5106446404	-0.8996358249	 0.071121
H	 1.7461241542	-0.4664204392	 1.1526286513	 0.084125
H	 0.3522194186	 0.1109972006	 2.0956719583	 0.116417
H	 0.6437643593	-2.6236032345	 0.7684515557	 0.073734
H	 1.1361519667	-2.5849710429	 2.9922181814	 0.285638
H	-1.9256236004	-1.7486579137	 2.0064681537	 0.114691
H	-2.0971463395	 0.2013918034	 0.7120957167	 0.11621
H	-2.0283603213	-0.7892464374	-0.7501295843	 0.129223
H	-1.6258822219	-4.0281312839	 1.0229975949	 0.088468
41.1248	92.0008	127.7988	205.2109	265.0073	270.0831	307.1776	325.9893	396.1024	458.5966	493.3689	518.871	563.9774	677.9664	812.0779	880.8473	900.9539	933.7348	996.8892	1004.5324	1028.8893	1087.2857	1099.42	1117.9552	1122.7603	1161.7641	1195.2055	1218.6149	1256.9248	1276.8701	1289.4212	1312.7471	1333.1868	1361.3034	1388.4413	1418.5788	1425.4086	1434.8029	1487.0285	1501.692	1827.3366	2877.6112	2951.9833	2967.9571	3033.4274	3035.4468	3072.5263	3087.619	3126.8794	3817.019	3821.9235
OC1CC(O)C(C1)C=O	O[C@H]1C[C@@H](O)[C@@H](C1)C=O	
InChI=1S/C6H10O3/c7-3-4-1-5(8)2-6(4)9/h3-6,8-9H,1-2H2	InChI=1S/C6H10O3/c7-3-4-1-5(8)2-6(4)9/h3-6,8-9H,1-2H2/t4-,5+,6+/m0/s1
