17
gdb 133841	3.40195	1.93909	1.78947	1.5564	77.86	-0.1911	-0.0845	0.1066	837.2883	0.134397	-384.515057	-384.507943	-384.506999	-384.546083	28.855	
C	 1.4617406901	-0.119556635	 0.2734123415	-0.529805
C	 2.9448248338	-0.0194079669	 0.0687576361	 0.412948
C	 4.0301424074	-0.4951893458	 1.0490429502	-0.141409
C	 3.9699552422	-1.0075701485	-0.3796980252	-0.15464
C	 4.7399096788	 0.0687461499	-1.1428566104	-0.148697
C	 5.7109469518	 0.603923786	-0.2970348222	-0.011802
C	 5.0674953146	 0.6281897977	 1.086365863	 0.019235
O	 4.3367004472	 1.8226565503	 0.6626476219	-0.297675
C	 3.6949696163	 1.1714360153	-0.5682402224	-0.040491
H	 1.2051244691	-1.0622528985	 0.7677398832	 0.12523
H	 0.9234841288	-0.0888101708	-0.6803179713	 0.127372
H	 1.0903932559	 0.6991929971	 0.8996898391	 0.130158
H	 3.7555817278	-1.0628648491	 1.929700417	 0.089166
H	 3.8221310549	-2.0378425012	-0.6776197951	 0.086099
H	 6.3195493826	 1.4722466581	-0.5475454353	 0.140819
H	 5.6244475189	 0.8378574689	 1.9955915398	 0.09405
H	 3.22122179	 1.9610244625	-1.1459862999	 0.099441
137.0083	195.6111	206.1587	287.4606	364.7764	522.9638	574.6267	614.2404	662.8216	667.28	755.317	762.2505	817.9322	836.2107	864.987	890.845	901.4521	911.9779	951.8797	974.0263	991.9144	1009.4382	1036.7556	1100.273	1118.0809	1167.3885	1171.0185	1212.9256	1221.3929	1246.721	1270.4405	1285.4973	1385.3163	1407.9849	1430.6751	1484.5537	1497.3269	3026.4739	3090.1561	3099.1881	3135.404	3155.3423	3162.6633	3188.1451	3198.3592
CC12C3C1C1=CC3OC21	C[C@@]12[C@H]3[C@@H]1[C]1[CH][C@H]3O[C@H]21	
InChI=1S/C8H8O/c1-8-5-3-2-4(6(5)8)9-7(3)8/h2,4-7H,1H3	InChI=1S/C8H8O/c1-8-5-3-2-4(6(5)8)9-7(3)8/h2,4-7H,1H3/t4-,5+,6-,7+,8+/m1/s1
