20
gdb 97585	3.08196	0.73686	0.62313	1.7306	85.49	-0.2391	0.0321	0.2712	1806.2186	0.168683	-403.077483	-403.067071	-403.066127	-403.115065	36.555	
C	 0.0508277309	 1.3589405108	 0.1381287569	-0.384474
C	-0.0826294006	-0.1646726398	-0.0052404774	-0.156503
C	-1.4868007733	-0.5774328502	-0.0358696477	 0.093338
C	-2.6481739689	-0.8980517699	-0.040060158	 0.07091
C	-4.0409942144	-1.3422173834	-0.0665848915	-0.194857
O	-4.2430941904	-2.6202071256	 0.5227273949	-0.402663
N	 0.5976918564	-0.5956014402	-1.2362339356	-0.053809
C	 2.0215322214	-0.8911998806	-1.0982453493	-0.224191
C	 1.0297772482	-1.9872387988	-1.2769609595	-0.214834
H	 1.1074145667	 1.6383607261	 0.1860091981	 0.117009
H	-0.4031289096	 1.8557711575	-0.722346275	 0.136617
H	-0.4450265643	 1.7030317363	 1.0490044879	 0.124366
H	 0.3862900337	-0.6375587509	 0.8795497079	 0.084014
H	-4.6684315504	-0.6495976144	 0.505481771	 0.139561
H	-4.4088500838	-1.317572034	-1.1049323492	 0.119314
H	-3.617042918	-3.2258621992	 0.112490166	 0.286259
H	 2.6526233173	-0.5706812903	-1.9218486636	 0.119128
H	 2.4722783025	-0.7882359815	-0.1118434371	 0.110177
H	 0.820518318	-2.612823525	-0.4106629836	 0.112786
H	 0.9205749788	-2.486685007	-2.2350531652	 0.117851
14.0371	58.9729	99.3659	120.1283	197.9508	223.8829	235.5535	283.708	329.643	334.8449	432.4849	477.4282	546.1006	580.1427	735.1203	778.4312	832.0048	910.4508	949.3925	984.8371	1005.2659	1031.8027	1049.6037	1079.3207	1104.829	1111.6225	1116.5135	1166.8962	1179.1279	1201.6642	1215.5351	1310.4318	1336.9628	1355.7423	1358.6074	1402.3121	1418.3452	1487.3427	1491.3376	1491.6015	1495.1401	1518.6118	2360.0503	2904.3396	2976.4247	3048.289	3061.8181	3092.4841	3098.8147	3123.2163	3137.0394	3178.4295	3192.5739	3816.6294
CC(C#CCO)N1CC1	C[C@@H](C#CCO)N1CC1	
InChI=1S/C7H11NO/c1-7(3-2-6-9)8-4-5-8/h7,9H,4-6H2,1H3	InChI=1S/C7H11NO/c1-7(3-2-6-9)8-4-5-8/h7,9H,4-6H2,1H3/t7-/m0/s1
