18
gdb 29189	2.99733	1.34347	0.93841	4.5043	84.	-0.2063	-0.0289	0.1774	1231.2788	0.148916	-402.036506	-402.02811	-402.027166	-402.069209	32.137	
C	-0.0326154282	 1.5531054897	-0.0103422938	-0.498807
C	-0.0077989549	 0.0476219186	 0.0002652948	 0.17036
C	-0.0279015747	-0.6596654645	-1.1626606829	-0.03294
N	-0.0061862925	-2.0207687044	-1.1763948838	-0.375958
C	 0.0380089848	-2.84043422	-0.0343372756	 0.429991
O	 0.0550685868	-4.0563552297	-0.1486856117	-0.406905
C	 0.0591721575	-2.0734654462	 1.1938337534	-0.347036
C	 0.0379152794	-0.7083661428	 1.2281777241	 0.277802
C	 0.0618060275	 0.0210723153	 2.5459611613	-0.490512
H	 0.8538750923	 1.9823770836	 0.4716107845	 0.129833
H	-0.0668430806	 1.9342887814	-1.0347217561	 0.121689
H	-0.9049528126	 1.9536923648	 0.5197284753	 0.129826
H	-0.0620558514	-0.1783587926	-2.1337053524	 0.125337
H	-0.0217602595	-2.523781757	-2.0524600487	 0.258257
H	 0.0936569679	-2.6561895848	 2.1072834377	 0.106116
H	 0.0971997962	-0.6788179466	 3.3831831478	 0.132249
H	 0.9315408946	 0.6845191887	 2.6171941751	 0.135326
H	-0.8253114524	 0.6538191963	 2.6658873509	 0.135371
116.0998	156.3588	197.0145	215.1684	294.418	308.2451	338.5081	428.6838	450.3779	519.9971	550.7291	598.3466	703.8481	739.6087	757.8244	769.9325	879.2839	891.5085	914.2406	1021.3926	1030.6283	1053.299	1073.9449	1155.5455	1192.2466	1227.4449	1254.6512	1341.1288	1407.3127	1427.3355	1430.2067	1473.7964	1474.5273	1485.0947	1491.0334	1506.2322	1579.0791	1686.8065	1781.885	3022.8462	3030.736	3069.8548	3081.1275	3108.2733	3127.8224	3193.2651	3198.5849	3610.2795
CC1=CNC(=O)C=C1C	Cc1c[nH]c(=O)cc1C	
InChI=1S/C7H9NO/c1-5-3-7(9)8-4-6(5)2/h3-4H,1-2H3,(H,8,9)	InChI=1S/C7H9NO/c1-5-3-7(9)8-4-6(5)2/h3-4H,1-2H3,(H,8,9)
