19
gdb 81669	3.53236	1.33685	1.24816	2.975	76.57	-0.2269	0.0212	0.2481	1081.4868	0.161295	-419.187429	-419.17978	-419.178836	-419.219419	30.489	
C	-0.2799132801	 1.3916379474	 0.0100261524	-0.421528
C	 0.0460465856	-0.0893922219	-0.0743369265	 0.042882
C	 0.9863366685	-0.5569928841	-1.2070227995	 0.099771
C	 2.1284512451	-0.3027455526	-0.2140873681	-0.210362
N	 1.1314377114	-0.5175272485	 0.9031230164	-0.134315
C	 0.9987705565	-1.9712001054	 1.0708255586	-0.257254
C	 0.8381181468	-2.7339004993	-0.2516562212	 0.382244
N	 0.722149008	-3.991493254	-0.2746558441	-0.532492
O	 0.8290410996	-1.9747385084	-1.3928722602	-0.257126
H	 0.6064684057	 2.0207275857	-0.1106459569	 0.122952
H	-1.0004459072	 1.6687557917	-0.7664981621	 0.121811
H	-0.7193721035	 1.6198048843	 0.9851909643	 0.134339
H	-0.8705472734	-0.6823978501	 0.0170142299	 0.088204
H	 0.9633756269	-0.1122271359	-2.2040970069	 0.08655
H	 2.9709190798	-0.9988156294	-0.234432392	 0.119161
H	 2.500168935	 0.7233962052	-0.2077483031	 0.118133
H	 1.877944938	-2.3620054189	 1.5919002677	 0.138694
H	 0.1319163476	-2.1871406972	 1.7026864643	 0.139081
H	 0.6258218797	-4.3253082286	-1.2359535129	 0.219254
82.6349	202.2091	241.4047	268.6746	349.4789	410.253	442.3305	462.6753	524.8508	531.5879	667.3549	778.0352	805.2985	818.5011	871.0796	895.9995	901.9477	936.2093	991.7676	1008.5978	1051.9129	1066.6503	1078.7501	1103.5442	1116.3514	1166.3169	1197.2046	1255.1461	1255.8715	1267.7788	1275.4345	1310.9923	1332.4065	1365.8225	1400.7348	1415.3364	1471.8704	1489.5569	1494.9356	1509.0836	1757.8523	3041.8589	3047.9363	3057.9369	3068.0342	3090.6302	3099.4088	3111.5136	3118.8172	3128.0631	3461.6635
CC1C2CN1CC(=N)O2	C[C@H]1[C@H]2CN1C[C]([NH])O2	
InChI=1S/C6H10N2O/c1-4-5-2-8(4)3-6(7)9-5/h4-5,7H,2-3H2,1H3	InChI=1S/C6H10N2O/c1-4-5-2-8(4)3-6(7)9-5/h4-5,7H,2-3H2,1H3/t4-,5+/m0/s1
