14
gdb 66911	2.9742	1.98986	1.38021	3.1834	70.93	-0.2424	-0.0887	0.1538	877.2615	0.099995	-436.568042	-436.56119	-436.560246	-436.598985	27.488	
O	 0.1365477743	 1.2992507163	-0.2021767443	-0.462593
C	-0.014351643	-0.0340759199	 0.0477704171	 0.338013
C	-0.8816881736	-0.8162990471	-1.001132865	-0.07241
N	-0.7456679857	-2.3566691273	-0.9434850128	-0.351051
C	-0.7623395533	-2.0698114773	 0.5064216223	 0.087087
C	 0.4394176862	-2.0742873806	 1.142875874	-0.220273
C	 0.9335273896	-0.6705935723	 1.040624443	 0.324455
O	 1.9124913001	-0.1045461032	 1.4726574725	-0.362212
C	-1.3855875021	-0.6990745215	 0.3856059275	-0.218575
H	 0.8547220863	 1.5872669617	 0.3848293073	 0.306088
H	-1.1786209143	-0.3282235869	-1.9256695629	 0.127688
H	-1.6735146042	-2.6576533328	-1.2608357354	 0.234296
H	 1.1516832528	-2.8893669268	 1.0797269641	 0.138016
H	-2.2125660732	-0.2009953824	 0.8709741624	 0.131471
126.5015	261.8445	266.5387	376.2189	415.8549	456.9621	476.3573	553.8465	621.6335	645.5674	704.6613	768.2149	778.8019	824.0848	848.7366	891.4854	911.3482	967.6638	979.9175	994.7566	1083.0169	1098.4299	1129.7685	1187.3548	1220.6064	1259.1847	1304.5117	1340.6691	1411.0927	1544.2346	1788.4986	3157.2283	3200.1323	3223.8631	3379.6353	3693.575
OC12C3NC(=CC1=O)C23	O[C@@]12[C@H]3N[C]([CH]C1=O)[C@@H]23	
InChI=1S/C6H5NO2/c8-3-1-2-4-5(7-2)6(3,4)9/h1,4-5,7,9H	InChI=1S/C6H5NO2/c8-3-1-2-4-5(7-2)6(3,4)9/h1,4-5,7,9H/t4-,5+,6+/m1/s1
