19
gdb 41701	3.32348	1.78259	1.76363	1.4839	77.51	-0.2343	0.0154	0.2497	877.2536	0.164265	-385.899177	-385.893183	-385.892239	-385.92908	26.505	
C	 0.0035177381	 1.5846780294	-0.005293296	-0.078682
O	 1.4005129644	 1.9225014065	 0.1163022478	-0.289569
C	 2.0695545993	 0.7258318383	 0.4741051737	 0.145299
C	 2.3114788213	-0.2572036371	-0.7188607886	-0.095802
C	 0.8449181456	-0.3430389293	-1.2827256093	-0.210284
C	 0.0162901582	 0.054317482	-0.0306943978	-0.059223
C	 1.0327702253	-0.2043877532	 1.1517109597	-0.076557
C	 1.7331049719	-1.5353300692	 1.1085357556	-0.103382
C	 2.532176013	-1.5512717079	 0.0343292842	-0.087201
H	-0.5527481601	 1.9949004727	 0.8504221354	 0.089301
H	-0.3950656186	 2.0291112551	-0.9232791216	 0.102609
H	 2.9647382412	 0.9652497915	 1.0499405748	 0.079271
H	 3.0676444274	 0.0268748058	-1.4502426942	 0.06334
H	 0.6821232591	 0.3625366685	-2.1021843492	 0.100303
H	 0.6205759423	-1.3474027419	-1.6464793387	 0.096074
H	-0.9633235558	-0.4145647046	 0.0592478568	 0.068519
H	 0.6509602387	 0.119090911	 2.1212703774	 0.065411
H	 1.5797802259	-2.3321480144	 1.8252997587	 0.096345
H	 3.1455967527	-2.3727905034	-0.3148997787	 0.094228
244.5827	342.4911	357.4752	423.8987	497.9011	570.5267	656.5974	724.4301	754.522	785.1822	814.7575	847.2782	865.73	908.54	926.9004	934.7124	947.9067	958.7262	976.6247	1002.1303	1022.1541	1035.6391	1073.03	1085.0757	1113.7593	1140.3444	1169.4456	1176.1626	1202.3517	1246.2626	1255.8271	1270.3868	1293.5596	1304.4255	1327.1679	1334.0296	1364.2583	1389.1167	1492.8722	1528.2602	1641.4179	2993.638	3059.1192	3066.7899	3100.7026	3108.9697	3110.991	3119.5696	3122.9259	3194.6986	3219.9988
C1OC2C3CC1C2C=C3	C1O[C@@H]2[C@@H]3C[C@H]1[C@H]2C=C3	
InChI=1S/C8H10O/c1-2-7-6-3-5(1)8(7)9-4-6/h1-2,5-8H,3-4H2	InChI=1S/C8H10O/c1-2-7-6-3-5(1)8(7)9-4-6/h1-2,5-8H,3-4H2/t5-,6+,7+,8+/m0/s1
