15
gdb 27086	3.13666	1.25352	0.89861	4.9466	71.77	-0.1908	0.0215	0.2123	1203.2727	0.113507	-453.995085	-453.986759	-453.985815	-454.028313	30.691	
O	-0.0023230168	 1.3516416784	-0.0054711948	-0.440073
C	 0.0397799201	-0.0138716937	-0.0210702595	 0.205341
C	-0.0023361603	-0.8819988688	-1.0892206311	 0.279347
N	-0.0387265052	-0.4530154688	-2.4236528992	-0.411498
C	-0.0125901703	-1.2413064703	-3.5345483589	 0.143303
O	 0.071316624	-2.4510670168	-3.5483287407	-0.319188
C	-0.0113441764	-2.2080493049	-0.5626996204	-0.241753
C	 0.0160406342	-2.0952341377	 0.8067580051	-0.080443
N	 0.0485355229	-0.7603022673	 1.1324063497	-0.287041
H	 0.8957281693	 1.703215351	 0.0353110042	 0.304727
H	-0.1398436832	 0.5414886964	-2.5614324103	 0.250437
H	-0.077138313	-0.6283789942	-4.4555392752	 0.071491
H	-0.0281346456	-3.1116254326	-1.1452604912	 0.137213
H	 0.0167375292	-2.8527759398	 1.5727385932	 0.123675
H	 0.0088001411	-0.3697110908	 2.057215069	 0.264462
58.5287	162.4304	193.3548	244.3241	257.55	273.1766	377.5643	415.7024	465.136	582.4269	610.5219	627.5616	666.9969	711.7756	717.3673	850.9231	869.4684	920.0368	1010.4586	1059.9437	1095.526	1165.6325	1174.9538	1236.7318	1271.578	1348.6939	1425.3062	1435.687	1496.0411	1517.8939	1534.6135	1677.5719	1801.9929	2933.8294	3271.6923	3305.5157	3616.7049	3688.7765	3749.9257
OC1=C(NC=O)C=CN1	Oc1c(NC=O)cc[nH]1	
InChI=1S/C5H6N2O2/c8-3-7-4-1-2-6-5(4)9/h1-3,6,9H,(H,7,8)	InChI=1S/C5H6N2O2/c8-3-7-4-1-2-6-5(4)9/h1-3,6,9H,(H,7,8)
