15
gdb 131199	3.35102	1.53883	1.07093	4.3489	66.91	-0.2084	0.0426	0.251	1047.5941	0.115194	-453.952735	-453.945177	-453.944233	-453.984841	28.076	
O	-0.1224394798	 1.3387301797	 0.2620428301	-0.422676
C	-0.0081401706	 0.0209277687	-0.0127294299	 0.278147
C	 0.1181397414	-0.7260468613	-1.1606507239	 0.006701
C	 0.3046116037	-0.7586955911	-2.6461792968	-0.404883
C	 0.1949528322	-2.3060236734	-2.888332548	-0.080208
O	 0.3542879993	-2.9891586055	-1.6183518261	-0.26836
C	 0.1829742094	-2.0416387385	-0.6689931624	 0.454625
N	 0.0992079339	-2.1770954589	 0.6328861056	-0.36464
N	-0.0070910443	-0.8544493936	 1.0270263801	-0.259444
H	-0.1101995188	 1.8286725141	-0.5656188813	 0.313248
H	-0.4577514739	-0.2286261195	-3.2263590914	 0.113545
H	 1.2823573619	-0.3756658696	-2.9645676876	 0.118315
H	-0.7925415458	-2.5634773271	-3.2874333859	 0.118108
H	 0.9601119958	-2.68932668	-3.5662633583	 0.121705
H	-0.1769477646	-0.6372108641	 1.9930721258	 0.275816
106.4876	182.1202	209.2513	241.7376	274.6699	287.2157	450.8188	564.7337	602.296	649.2641	653.0369	724.5884	772.9355	804.0373	853.8117	932.7001	1012.6504	1064.8721	1079.1854	1130.2841	1156.4785	1206.1401	1237.6922	1246.0864	1307.5994	1354.5032	1367.3481	1467.7911	1496.3377	1513.7297	1537.6166	1608.427	1689.9624	3018.9598	3039.2276	3064.1918	3113.3273	3694.1732	3848.1428
OC1=C2CCOC2=NN1	Oc1c2CCOc2n[nH]1	
InChI=1S/C5H6N2O2/c8-4-3-1-2-9-5(3)7-6-4/h1-2H2,(H2,6,7,8)	InChI=1S/C5H6N2O2/c8-4-3-1-2-9-5(3)7-6-4/h1-2H2,(H2,6,7,8)
