16
gdb 19455	5.22701	1.54763	1.53086	1.2754	70.65	-0.2366	0.0452	0.2818	869.8481	0.131448	-346.543447	-346.536882	-346.535938	-346.573899	26.38	
C	-0.0825960528	-1.2144110101	-0.0936145231	-0.439981
C	-0.0420910718	-0.0133422021	-0.0347416628	 0.305018
C	-0.0024869432	 1.4300713226	 0.0153801355	-0.192613
C	-0.0231785226	 2.0835814131	 1.4543601656	-0.066411
C	 1.4971141071	 1.741961713	 1.5356600125	-0.251514
C	 1.4129446283	 2.1115743645	 0.0379743954	 0.111413
O	 1.0853317216	 3.5034898867	 0.0433337098	-0.279393
C	 0.0523039939	 3.5605990187	 1.0588254622	-0.094476
H	-0.1201289624	-2.2741794901	-0.1471156103	 0.192736
H	-0.6919228572	 1.8687631282	-0.7127190553	 0.10207
H	-0.745071182	 1.785117384	 2.2122149567	 0.084567
H	 2.1331511419	 2.3685043855	 2.1647846536	 0.101202
H	 1.680704995	 0.6827585315	 1.7105844122	 0.125329
H	 2.1853613193	 1.9075389922	-0.700542111	 0.091808
H	-0.8749694394	 3.9518309206	 0.6251176821	 0.104652
H	 0.3676639145	 4.2136540319	 1.8807757968	 0.105595
149.5276	161.3655	351.5512	396.5088	456.9168	493.0929	523.8156	608.5727	643.4942	651.8667	822.7255	850.4171	883.3927	902.693	929.012	942.7796	976.9824	999.3055	1035.8505	1064.206	1069.6258	1104.622	1128.6219	1169.3345	1211.508	1229.8095	1251.0873	1261.1788	1280.3961	1341.7629	1373.6951	1488.7743	1526.0591	2231.1653	3026.5501	3060.4263	3068.4145	3080.0753	3139.5194	3150.3928	3157.6749	3504.1199
C#CC1C2CC1OC2	C#C[C@H]1[C@H]2C[C@@H]1OC2	
InChI=1S/C7H8O/c1-2-6-5-3-7(6)8-4-5/h1,5-7H,3-4H2	InChI=1S/C7H8O/c1-2-6-5-3-7(6)8-4-5/h1,5-7H,3-4H2/t5-,6-,7-/m0/s1
