19
gdb 7849	3.76911	1.31394	1.17943	3.2889	72.52	-0.2378	0.0326	0.2704	1110.6048	0.16406	-365.089093	-365.079761	-365.078816	-365.123944	33.029	
C	-0.3100229062	 1.336226819	 0.4177436398	-0.404267
C	 0.0772781343	-0.0961972289	 0.1347210911	 0.03221
C	 1.4374767905	-0.438063779	-0.4274140282	-0.338996
C	 1.0897789716	-0.8232273705	 0.9877687571	 0.04807
N	 1.7559329164	-0.139638378	 2.0568852232	-0.318
C	 1.1671896736	 0.025006186	 3.284587554	 0.403563
C	 2.08198198	 0.5906585232	 4.3620533784	-0.488804
O	 0.0060971674	-0.2680927138	 3.4962895555	-0.366506
H	 0.5539993708	 1.9223290884	 0.7432963599	 0.109552
H	-0.7209448878	 1.8137677261	-0.4780881617	 0.110784
H	-1.0615566071	 1.3820017106	 1.2113396194	 0.139901
H	-0.7419781267	-0.7247212318	-0.2030951267	 0.089923
H	 1.5337656435	-1.2262099022	-1.1656550361	 0.11544
H	 2.1351855987	 0.3841053819	-0.5573827261	 0.108832
H	 0.8844360346	-1.8726422802	 1.1855973785	 0.100673
H	 2.7509743297	-0.001384381	 1.9806127248	 0.24248
H	 2.9171455676	 1.1690931548	 3.9570911145	 0.115574
H	 1.4901035766	 1.2212909222	 5.0269110107	 0.151961
H	 2.4898568525	-0.2324291767	 4.9584285318	 0.147608
50.657	60.1313	91.9119	148.5242	197.002	250.0446	313.7003	368.9077	431.258	456.6544	528.2203	632.8985	659.4537	785.2769	812.999	842.1117	913.7753	958.5491	978.3905	1038.0704	1050.6663	1054.4951	1084.8453	1108.6362	1145.7307	1185.2971	1193.1093	1247.3591	1282.2493	1382.6507	1391.838	1412.2096	1419.9353	1467.6773	1482.4695	1487.2289	1495.0901	1502.3408	1512.564	1787.4681	3037.705	3045.2903	3102.1757	3111.8911	3114.4483	3124.6947	3127.3607	3148.1386	3149.7435	3214.0729	3626.2481
CC1CC1NC(C)=O	C[C@H]1C[C@H]1NC(=O)C	
InChI=1S/C6H11NO/c1-4-3-6(4)7-5(2)8/h4,6H,3H2,1-2H3,(H,7,8)	InChI=1S/C6H11NO/c1-4-3-6(4)7-5(2)8/h4,6H,3H2,1-2H3,(H,7,8)/t4-,6+/m0/s1
