15
gdb 20280	5.50381	2.13867	2.04981	1.7286	62.79	-0.229	0.0748	0.3038	688.8369	0.121133	-362.555428	-362.550258	-362.549314	-362.584345	22.123	
C	 0.0121340085	 1.4942109517	-0.0249193977	-0.24388
C	 1.2906705646	 0.7334692862	 0.005360103	-0.055171
C	 1.8527861105	 0.3367215745	 1.3522103814	-0.057639
C	 1.3875124493	-1.1454518289	 1.6171105115	 0.060618
O	 1.2272785143	-0.8854985936	 3.0443426776	-0.315312
C	 0.6946566434	 0.3130775776	 2.3889524467	 0.027136
C	-0.0270388464	-0.5663825053	 1.3085941912	-0.016583
N	-0.0180733886	 0.0198948902	-0.0333992519	-0.11727
H	-0.3127966652	 2.0213449036	 0.8680715682	 0.11931
H	-0.3089565417	 1.9489574846	-0.9574174293	 0.123243
H	 1.9132244727	 0.6658657291	-0.8819347706	 0.100948
H	 2.8468335589	 0.6496517997	 1.6653130495	 0.086022
H	 1.8415720456	-2.0871483573	 1.3088896243	 0.099709
H	 0.3168260306	 1.1075564936	 3.0315868589	 0.096663
H	-0.9194186764	-1.1288962357	 1.5761922572	 0.092209
308.5516	344.6429	489.1602	542.2307	662.7636	679.9635	773.7817	799.5968	810.0232	835.3063	890.1788	891.8266	903.1425	958.6214	984.3291	991.6637	1026.5201	1062.9788	1081.9501	1113.3178	1130.563	1149.0793	1154.9689	1166.3567	1189.3686	1223.178	1240.1838	1267.7199	1272.7594	1340.113	1373.5405	1504.8015	3112.5304	3120.4182	3122.2533	3145.3311	3149.5068	3157.4722	3200.6119
C1C2C3C4OC3C4N12	C1[C@H]2[C@@H]3[C@H]4O[C@@H]3[C@H]4N12	
InChI=1S/C6H7NO/c1-2-3-5-4(7(1)2)6(3)8-5/h2-6H,1H2	InChI=1S/C6H7NO/c1-2-3-5-4(7(1)2)6(3)8-5/h2-6H,1H2/t2-,3-,4+,5-,6+,7?/m0/s1
