21
gdb 89183	2.50062	1.39225	1.17104	2.1248	79.58	-0.2261	0.0719	0.2979	1183.0859	0.179222	-424.196758	-424.186915	-424.185971	-424.230449	37.645	
C	 0.0322863844	 1.4756131839	 0.0087267059	-0.397164
C	 0.0202629098	-0.0355342723	 0.1312666041	 0.11599
O	 0.9828835119	-0.6479634797	-0.7841764466	-0.337378
C	 1.7779273452	-1.1120108696	 0.3164454736	 0.423405
C	 3.2628723161	-1.0390150462	 0.185645594	-0.493755
C	 0.7537109155	-0.6166619332	 1.3325480666	-0.270528
C	 1.0028804205	-2.1111828742	 1.13106928	 0.320644
C	 0.0010525508	-3.0778910778	 0.5471539796	-0.467121
O	 1.8100436117	-2.6553168101	 2.1491899618	-0.467006
H	 1.0309061157	 1.8749176929	 0.2084970256	 0.122333
H	-0.2655480821	 1.7734866758	-1.0011735322	 0.126282
H	-0.6713739099	 1.9212852919	 0.7209159103	 0.113107
H	-0.9894163808	-0.4255185035	-0.052906167	 0.073853
H	 3.597993124	-0.0080630897	 0.0356289383	 0.120056
H	 3.7342744935	-1.446304565	 1.0818681852	 0.144817
H	 3.5915315444	-1.629997416	-0.6771166391	 0.128905
H	 0.8940714353	-0.1397124522	 2.295119541	 0.089768
H	-0.4414100313	-2.6831151776	-0.3690972046	 0.14153
H	 0.5040631836	-4.0194873063	 0.3059441347	 0.12571
H	-0.8050618828	-3.29604877	 1.25840554	 0.103699
H	 1.2607368842	-2.7692442411	 2.9327845287	 0.282852
136.9924	180.985	186.7832	192.5068	211.4974	232.0797	252.4791	296.5439	319.1845	350.6875	423.8284	446.5842	518.0069	522.1882	663.6093	702.5472	779.4945	863.869	896.1793	907.5862	933.0369	964.2955	987.542	1041.9644	1076.7697	1093.0977	1106.4057	1131.6277	1167.4822	1194.2865	1217.2134	1250.8531	1297.4952	1324.5737	1389.0349	1400.9001	1405.76	1408.3216	1466.6573	1480.7219	1485.6763	1487.3986	1491.0589	1493.0125	1511.9687	3016.3045	3028.1724	3033.9029	3035.5533	3093.1668	3094.7913	3104.9894	3118.5233	3136.1519	3141.8879	3184.2213	3790.8706
CC1OC2(C)C1C2(C)O	C[C@H]1O[C@@]2(C)[C@@H]1[C@]2(C)O	
InChI=1S/C7H12O2/c1-4-5-6(2,8)7(5,3)9-4/h4-5,8H,1-3H3	InChI=1S/C7H12O2/c1-4-5-6(2,8)7(5,3)9-4/h4-5,8H,1-3H3/t4-,5+,6+,7+/m1/s1
