16
gdb 27537	5.52918	0.95359	0.86174	1.5432	72.15	-0.2325	0.0029	0.2354	1326.8237	0.124217	-437.90136	-437.893263	-437.892319	-437.934863	28.965	
C	 0.5679805152	 1.4346303872	 0.3848735467	-0.490609
C	 0.0774085818	 0.0467063778	 0.1846407598	 0.38302
N	-0.7149027671	-0.6463902748	 0.9414089914	-0.355578
C	-0.8480998641	-1.8694354397	 0.2890430932	 0.241089
C	-0.1061857538	-1.8454575944	-0.8436369589	-0.123989
O	 0.4923978502	-0.6172479184	-0.9251657121	-0.170915
C	-1.6789099439	-2.960221396	 0.8322896709	-0.046681
C	-2.8595426219	-3.476304968	 0.1143274835	-0.16537
O	-1.627508535	-4.1964917285	 0.1181205959	-0.229551
H	 1.6614546161	 1.4628455245	 0.4302036671	 0.147916
H	 0.2553878703	 2.0855870704	-0.4381701279	 0.147208
H	 0.1614577564	 1.8218255425	 1.3192309022	 0.158016
H	 0.1065948755	-2.5509004308	-1.626438137	 0.158101
H	-1.66650359	-3.0496400957	 1.9182391387	 0.109667
H	-3.6720385495	-3.9360040009	 0.6754189541	 0.119956
H	-3.1353651904	-3.0255063353	-0.8372173674	 0.117721
61.6414	99.1021	146.0917	157.591	257.2278	319.5154	415.3129	464.3278	651.5554	666.7741	715.8799	725.975	778.9989	866.7131	898.2493	939.8166	985.4457	1037.15	1048.3923	1066.5959	1093.4711	1135.0753	1150.215	1168.0426	1219.0943	1257.0927	1274.5146	1342.8184	1413.2596	1436.8626	1476.1515	1480.8672	1519.4744	1622.2823	1637.7581	3045.5351	3085.0553	3100.1952	3118.5591	3158.9201	3178.933	3308.2576
CC1=NC(=CO1)C1CO1	Cc1nc(co1)[C@H]1CO1	
InChI=1S/C6H7NO2/c1-4-7-5(2-8-4)6-3-9-6/h2,6H,3H2,1H3	InChI=1S/C6H7NO2/c1-4-7-5(2-8-4)6-3-9-6/h2,6H,3H2,1H3/t6-/m1/s1
