19
gdb 76577	2.8284	1.23347	1.18695	2.3062	71.53	-0.2395	0.0614	0.3009	1154.0857	0.158436	-460.136616	-460.127624	-460.12668	-460.170628	33.	
C	-0.0151885731	 1.5601282676	-0.1926427537	-0.424921
C	-0.0051696318	 0.0601839384	 0.004688348	-0.142747
C	 1.2957421888	-0.7419090487	-0.0582244242	-0.012161
O	 2.5206337708	-0.0763383379	-0.1685932166	-0.416002
C	 0.5638801374	-0.5648071202	 1.242129942	 0.369246
C	 1.1845061903	 0.1805170579	 2.4275209631	-0.16603
O	 0.8857130981	-0.6567595723	 3.5449651639	-0.247805
C	 0.5440377616	-1.9123462538	 3.0117155942	 0.008564
O	-0.1260824032	-1.6607024436	 1.7965180964	-0.272752
H	 0.9317342374	 2.0075055068	 0.121299813	 0.129193
H	-0.169711862	 1.8140760218	-1.2470877527	 0.116706
H	-0.8199744799	 2.031206646	 0.3811151947	 0.127898
H	-0.8680065546	-0.4690256086	-0.3922741496	 0.1005
H	 1.2504161314	-1.7285026788	-0.5180459821	 0.095935
H	 2.6070929767	 0.2549825282	-1.0689627487	 0.293286
H	 2.2655553415	 0.3045761342	 2.2954939395	 0.125194
H	 0.7318034301	 1.1600996744	 2.607311394	 0.113122
H	 1.4482109342	-2.5232902443	 2.8337797971	 0.083908
H	-0.1356100837	-2.4258760068	 3.6967515217	 0.118866
53.3551	146.9157	164.7564	180.7205	213.6175	232.6437	292.1788	323.2585	438.4969	508.7311	552.0714	582.0075	743.0733	782.7802	829.1276	877.7767	943.6469	965.589	1010.2557	1027.2999	1042.9066	1096.9501	1100.1666	1119.4303	1147.5285	1164.5094	1178.2509	1210.469	1235.77	1239.4745	1270.5987	1307.5823	1365.5997	1374.0968	1411.562	1428.2291	1471.4084	1498.302	1505.0821	1527.1958	1540.4253	2933.3014	3033.6534	3036.359	3081.8369	3092.3841	3096.858	3109.6372	3113.3802	3145.5597	3798.6588
CC1C(O)C11COCO1	C[C@H]1[C@@H](O)[C@]21COCO2	
InChI=1S/C6H10O3/c1-4-5(7)6(4)2-8-3-9-6/h4-5,7H,2-3H2,1H3	InChI=1S/C6H10O3/c1-4-5(7)6(4)2-8-3-9-6/h4-5,7H,2-3H2,1H3/t4-,5+,6+/m0/s1
