20
gdb 92350	2.96927	1.5526	1.39663	1.7212	74.39	-0.216	0.0823	0.2983	1024.5754	0.173769	-440.283706	-440.27625	-440.275306	-440.31533	29.801	
C	-0.0583022958	 1.5022464229	 0.0666202167	-0.312626
N	-0.0368076501	 0.0542739086	 0.046943896	-0.067173
C	-1.3501048882	-0.5366209912	-0.1828442488	-0.153758
C	-1.2298214861	-2.0606146273	-0.1256752896	 0.028433
C	-0.0535035964	-2.5931051939	-0.9729043758	-0.081911
O	 1.0503967377	-2.5724361296	-0.0627162378	-0.264751
C	 0.5491510039	-2.0503720144	 1.1551976632	 0.178105
C	 0.6535689507	-0.5204618629	 1.196837318	-0.167738
O	-0.8139480011	-2.4223136862	 1.1971309854	-0.254199
H	 0.9643575981	 1.8871671031	 0.137701609	 0.119461
H	-0.4992443359	 1.8793391936	-0.8623468466	 0.11611
H	-0.6381827308	 1.9205091272	 0.9121184701	 0.092762
H	-2.1015547724	-0.2235933647	 0.5674596525	 0.085946
H	-1.7124663326	-0.2154944937	-1.1677180322	 0.100476
H	-2.1832011618	-2.5490892076	-0.3331925339	 0.088265
H	-0.2246416913	-3.6233699596	-1.3048503051	 0.10173
H	 0.1588517179	-1.9571230082	-1.8375196275	 0.110855
H	 1.0739600421	-2.5187720012	 1.9919133363	 0.090414
H	 1.7068656907	-0.2199526028	 1.1632605743	 0.108919
H	 0.2353468314	-0.181775242	 2.164907026	 0.080679
134.7169	190.4342	242.4519	327.1571	344.2387	346.7222	366.0307	448.6836	547.9002	657.3553	777.2402	802.2906	841.5405	854.3825	893.8003	923.5551	955.9404	1004.7908	1029.0014	1049.7973	1062.3076	1084.97	1095.3324	1137.3358	1154.2519	1198.4281	1205.3926	1211.4271	1276.0472	1282.5291	1300.4037	1342.119	1355.939	1374.2496	1377.3555	1393.3023	1409.1547	1459.8761	1482.2151	1483.9836	1507.8763	1508.2948	1511.7975	2913.9859	2917.0845	2928.0797	3033.0318	3039.4443	3052.8535	3058.8185	3085.4851	3088.2163	3098.0166	3108.0286
CN1CC2COC(C1)O2	CN1C[C@H]2CO[C@@H](C1)O2	
InChI=1S/C6H11NO2/c1-7-2-5-4-8-6(3-7)9-5/h5-6H,2-4H2,1H3	InChI=1S/C6H11NO2/c1-7-2-5-4-8-6(3-7)9-5/h5-6H,2-4H2,1H3/t5-,6+/m0/s1
