18
gdb 121784	2.82625	0.75005	0.61509	4.5947	78.7	-0.2743	0.0129	0.2872	1750.2568	0.145004	-401.91835	-401.907947	-401.907003	-401.954769	36.128	
O	-0.0453664905	 1.4584256167	-0.0094533004	-0.417959
C	 0.0446442087	 0.0445035359	 0.027869564	-0.07995
C	-1.3764719937	-0.5066552119	 0.0337455416	-0.185752
C	-1.4055649622	-2.0354638638	 0.032005486	-0.195395
C	-2.8482167379	-2.61712005	 0.0442444183	-0.331472
C	-2.8482487695	-4.0730290821	-0.1059216917	 0.314516
C	-2.816583958	-5.2645370302	-0.2457398164	-0.408782
C	-3.5675304385	-2.2207900501	 1.2674829058	 0.299951
N	-4.1178572579	-1.8902506375	 2.2276817407	-0.325972
H	 0.8451881597	 1.8196924356	 0.0213332237	 0.288703
H	 0.5928699946	-0.3454830616	-0.8460598765	 0.085835
H	 0.5794124593	-0.3009680458	 0.9276259387	 0.091542
H	-1.8993438735	-0.1151630094	 0.9131726842	 0.137665
H	-1.9018135378	-0.1171174388	-0.8471301505	 0.110959
H	-0.9132228145	-2.4297394475	-0.8630996959	 0.12076
H	-0.8663286774	-2.4376010949	 0.8961366426	 0.12859
H	-3.397007263	-2.1773082881	-0.8005519532	 0.157933
H	-2.8010913078	-6.3200583066	-0.3646625011	 0.208827
58.2943	75.1402	97.6499	127.9161	138.7353	214.8302	219.893	259.9752	335.6272	363.7661	413.3567	514.015	578.7103	592.5745	648.1014	666.8299	757.1644	819.18	903.8416	993.3658	1017.4544	1049.9527	1057.1199	1091.6758	1125.6846	1203.6899	1233.3941	1274.9767	1291.3314	1319.5911	1326.636	1339.4085	1388.1642	1466.402	1487.0782	1501.7707	1529.3066	2249.0351	2363.8487	2957.4873	2984.5992	3014.3086	3034.5847	3049.6268	3077.8059	3100.8266	3502.1417	3832.6246
OCCCC(C#C)C#N	OCCC[C@@H](C#C)C#N	
InChI=1S/C7H9NO/c1-2-7(6-8)4-3-5-9/h1,7,9H,3-5H2	InChI=1S/C7H9NO/c1-2-7(6-8)4-3-5-9/h1,7,9H,3-5H2/t7-/m1/s1
