16
gdb 49700	2.24924	1.14945	0.87179	1.8933	75.45	-0.2476	-0.0905	0.1571	1319.7311	0.12063	-437.835711	-437.825921	-437.824976	-437.87129	33.488	
O	-0.2200811397	 0.1146403461	 0.1326460209	-0.239575
C	 0.0461280554	 1.2432169558	-0.2047459642	 0.046288
C	 1.2670044635	 1.941074674	 0.2084359711	 0.128175
C	 2.4330907121	 1.9217520047	 0.7704172766	-0.233402
N	 3.4715537015	 2.6182788991	-1.7392991678	-0.516982
H	 4.0625850871	 2.9714124119	-2.4847247154	 0.236737
H	 2.8199151404	 1.9717650242	-2.1744504746	 0.22863
C	 2.7556859293	 3.7288476084	-1.109309164	-0.237557
C	 2.0449573054	 3.2541389772	 0.1548912906	 0.161105
C	 1.5807110179	 4.3371720057	 1.0705271484	 0.114554
O	 1.709958227	 5.5166018712	 0.8500818061	-0.26285
H	-0.6314807187	 1.8362459138	-0.8509247699	 0.099133
H	 3.2283807883	 1.3950561144	 1.2679637154	 0.178621
H	 3.4876907351	 4.4884074944	-0.8165677435	 0.12856
H	 2.0310631541	 4.2425337829	-1.761896326	 0.099177
H	 1.082199681	 3.9645928563	 1.9955662264	 0.069385
57.1738	84.8154	99.6154	142.3567	188.498	205.5406	255.2931	272.7695	341.7037	373.6229	453.7445	544.242	636.1891	738.3083	782.0153	828.0802	857.1845	972.6305	994.1622	1012.7609	1024.7119	1060.6343	1080.1165	1122.508	1206.9983	1254.5395	1314.2654	1414.4228	1421.6468	1428.11	1505.6062	1657.2509	1774.8253	1800.1028	1830.1839	2866.035	2930.6823	2969.0453	3076.1266	3300.2834	3495.8343	3575.759
O=C[C-]1C2[NH2+]CC12C=O	O=CC1=C[C@]1(CN)C=O	
InChI=1S/C6H6NO2/c8-1-4-5-6(4,3-9)2-7-5/h1,3,5,7H,2H2/q-1/p+1	InChI=1S/C6H7NO2/c7-3-6(4-9)1-5(6)2-8/h1-2,4H,3,7H2/t6-/m0/s1
