16
gdb 16316	3.18299	1.94207	1.39416	2.6308	65.23	-0.2412	-0.0252	0.216	912.4166	0.128755	-383.723418	-383.715631	-383.714687	-383.755868	28.397	
C	 0.1566438726	 1.5345360996	-0.1217572044	-0.386061
C	-0.0991584597	 0.0247891636	 0.0003878698	-0.318194
C	 0.488059544	-0.5421926121	 1.251839038	 0.307459
O	 1.9268642391	-0.7248193633	 1.3394828064	-0.279292
C	 1.0992865376	-1.8471515494	 1.6278694064	-0.054054
C	 0.7251171497	-1.7232648274	 3.1106499994	-0.371672
C	 0.0561642203	-0.3697221383	 2.7122474354	 0.385546
O	-0.6612706958	 0.3995154835	 3.2790268378	-0.299695
H	 1.2299624534	 1.7437320279	-0.1450160939	 0.13445
H	-0.289110914	 1.9289362832	-1.0390483374	 0.116455
H	-0.2768567797	 2.0697651088	 0.727770625	 0.14356
H	-1.1778843157	-0.1728016094	 0.0031815815	 0.116014
H	 0.32553638	-0.5074052089	-0.8580079532	 0.115371
H	 1.2082108648	-2.7356536664	 1.0179269603	 0.119973
H	-0.028805901	-2.4321793012	 3.4666934304	 0.132354
H	 1.5662356844	-1.6869636202	 3.8052669184	 0.137786
67.509	122.7534	176.0319	195.6485	278.857	374.5221	451.2354	495.6414	573.4518	659.2579	710.3551	747.3624	816.025	871.9393	914.0253	954.0618	974.707	991.2787	1040.1265	1070.9531	1101.8329	1137.4079	1189.0242	1230.9467	1249.672	1312.4522	1343.6609	1408.3613	1433.936	1452.2991	1472.4244	1498.1584	1510.8979	1892.739	3034.6996	3045.896	3066.5898	3075.0627	3119.6842	3124.2299	3131.199	3199.8512
CCC12OC1CC2=O	CC[C@]12O[C@H]1CC2=O	
InChI=1S/C6H8O2/c1-2-6-4(7)3-5(6)8-6/h5H,2-3H2,1H3	InChI=1S/C6H8O2/c1-2-6-4(7)3-5(6)8-6/h5H,2-3H2,1H3/t5-,6+/m0/s1
