25
gdb 59057	2.0571	1.23801	1.00854	1.3815	89.51	-0.2385	0.0676	0.306	1388.5438	0.225723	-389.489372	-389.477971	-389.477027	-389.525169	42.598	
C	-0.547907879	 0.2793128965	-2.7517517225	-0.389336
C	-0.2100174147	-0.5678200324	-1.5147221288	 0.024436
C	 0.8526868985	 0.118496224	-0.6437264296	-0.391499
C	-1.4696612416	-0.8485743508	-0.7103570189	-0.055281
C	-2.4522997872	-1.912498502	-1.1216429456	 0.021595
O	-2.1076458332	-2.6681728946	-2.2510073011	-0.417957
C	-1.6776913374	-2.0737323416	 0.1755865124	 0.263485
C	-0.6181461838	-3.1562035674	 0.2550880438	-0.466065
C	-2.4443560915	-1.8621797056	 1.4681763275	-0.451302
H	 0.3513243206	 0.490529883	-3.340626793	 0.102492
H	-1.2637298076	-0.2411250971	-3.3937460424	 0.12937
H	-0.9871394626	 1.2416938029	-2.4615628731	 0.103267
H	 0.198214532	-1.5177676555	-1.8725244568	 0.082859
H	 0.4869102849	 1.0802483218	-0.2639793215	 0.107464
H	 1.1242481984	-0.4971023189	 0.2196400055	 0.111092
H	 1.764208471	 0.3154659182	-1.2182787732	 0.106624
H	-1.9283871436	 0.0625873219	-0.3263182191	 0.071651
H	-3.5166070265	-1.6827860917	-1.0478613321	 0.074872
H	-2.439253924	-3.5633873147	-2.1252251312	 0.287611
H	-0.1790792843	-3.3759556281	-0.7193834877	 0.129549
H	 0.1900389369	-2.8727970708	 0.938793211	 0.116686
H	-1.0532062392	-4.0871664567	 0.6404072568	 0.104519
H	-2.9207368621	-2.7914589321	 1.8046169299	 0.107927
H	-1.779583697	-1.5220822003	 2.2715623043	 0.114605
H	-3.2298326368	-1.1085297378	 1.3508322752	 0.111336
61.9447	117.557	154.7126	182.9591	203.2229	225.8873	229.9903	240.5758	262.2023	297.9537	308.2619	338.0725	372.8828	417.2085	495.0621	511.4553	601.2524	718.1276	807.4718	835.6598	896.8559	928.6276	964.0863	968.196	979.404	1000.924	1016.634	1061.2248	1105.3799	1143.4576	1154.7545	1164.0366	1190.523	1203.2132	1260.0789	1295.3454	1308.3575	1336.2108	1343.1997	1390.2121	1397.2649	1408.2211	1417.85	1422.5901	1461.5166	1484.3909	1488.656	1490.9441	1491.8513	1503.0959	1504.6882	1510.2452	1514.7703	3014.514	3021.6147	3022.78	3025.9244	3057.9368	3072.392	3075.0716	3076.3834	3084.0832	3091.3701	3093.6037	3100.2667	3105.9504	3114.835	3131.126	3803.6876
CC(C)C1C(O)C1(C)C	CC(C)[C@H]1[C@@H](O)C1(C)C	
InChI=1S/C8H16O/c1-5(2)6-7(9)8(6,3)4/h5-7,9H,1-4H3	InChI=1S/C8H16O/c1-5(2)6-7(9)8(6,3)4/h5-7,9H,1-4H3/t6-,7+/m0/s1
