17
gdb 127520	2.51339	1.67883	1.02118	1.9503	72.56	-0.1834	0.0522	0.2356	1134.7821	0.136007	-451.341583	-451.33205	-451.331106	-451.377315	33.05	
C	 0.1437127131	 1.390560201	-0.0386097663	-0.328017
N	-0.0365337097	-0.0349288327	 0.0158115282	-0.083921
N	 0.0506683625	-0.7848478547	-1.1699525518	-0.378412
C	 0.1108630966	-2.0016448584	-0.7423118462	 0.483286
O	 0.1635161542	-3.1029103175	-1.5007385013	-0.419379
N	 0.1015621669	-2.1229055638	 0.6153378052	-0.141842
C	 0.1919459286	-3.325608585	 1.4145150626	-0.335998
C	 0.0641562709	-0.8242469209	 1.1445512753	 0.437614
N	 0.107016137	-0.5818017271	 2.4009451171	-0.630303
H	 1.2015433202	 1.6861326487	-0.0051060107	 0.12854
H	-0.2958152145	 1.7573109825	-0.967626824	 0.150345
H	-0.3786891733	 1.8562239642	 0.801730008	 0.136005
H	 0.1300397964	-2.8136313578	-2.4219108739	 0.319308
H	-0.3196411661	-4.1426921318	 0.903125537	 0.144175
H	 1.2338844388	-3.6105429839	 1.5964721537	 0.138749
H	-0.2844575981	-3.1201936693	 2.3742790124	 0.170933
H	 0.0670252765	 0.4144183667	 2.5941503648	 0.208917
24.2625	76.4307	98.6386	142.3717	195.4274	265.4148	291.6567	341.9104	351.9236	426.202	588.4162	622.114	648.3832	668.5266	676.6387	733.5308	776.7412	916.8093	1005.5591	1025.9679	1149.6148	1158.9104	1186.7509	1223.8016	1258.099	1284.4068	1341.7655	1422.2101	1435.9422	1452.4418	1490.0357	1492.4034	1506.9339	1510.397	1593.1411	1688.512	1737.4407	3006.4387	3041.9598	3088.6024	3116.0355	3140.0862	3157.998	3541.3126	3797.8686
CN1N=C(O)N(C)C1=N	CN1N=C(O)N(C)[C@@H]1[NH]	
InChI=1S/C4H8N4O/c1-7-3(5)8(2)6-4(7)9/h5H,1-2H3,(H,6,9)	InChI=1S/C4H9N4O/c1-7-3(5)8(2)6-4(7)9/h3,5H,1-2H3,(H,6,9)/t3-/m0/s1
