14
gdb 125733	3.21177	1.47221	1.01584	4.2485	69.23	-0.2516	-0.0681	0.1835	1097.7446	0.100775	-470.031832	-470.023821	-470.022877	-470.064306	29.714	
C	-0.2045707296	 1.5259411144	 0.0563181836	-0.451228
C	 0.0248677047	 0.044047804	-0.0039432217	 0.388382
N	 0.1015077158	-0.4602921511	-1.1952085811	-0.154307
O	 0.3190775959	-1.8658063082	-1.2515905663	-0.24723
C	 0.4379466391	-2.6245249014	-0.1532945682	 0.427903
O	 0.6222415717	-3.8161327883	-0.2198581263	-0.352921
C	 0.3252793845	-1.8872226037	 1.1394548521	 0.28108
N	 0.446819637	-2.6635944509	 2.2213464047	-0.535124
N	 0.1267404857	-0.6046035181	 1.2049642155	-0.366813
H	 0.6140172582	 2.0039434871	 0.6032354183	 0.144355
H	-0.2710379165	 1.9464754982	-0.9469937497	 0.149089
H	-1.127966793	 1.7341476448	 0.6055702186	 0.144356
H	 0.5992862255	-3.6496326799	 2.0823603122	 0.293062
H	 0.3860727607	-2.2647978369	 3.1427058482	 0.279396
99.4302	160.3752	184.4242	292.3966	317.1212	327.8837	340.6628	457.6347	492.9484	521.1072	579.0016	634.6004	652.82	678.8461	784.0461	822.7145	942.2743	979.3126	1056.8779	1064.6186	1128.9785	1227.5357	1343.6009	1407.9182	1452.7158	1468.099	1473.9764	1571.0509	1619.2559	1683.5543	1813.2682	3049.5006	3109.8238	3159.9364	3598.2816	3738.5162
CC1=NOC(=O)C(N)=N1	Cc1noc(=O)c(N)n1	
InChI=1S/C4H5N3O2/c1-2-6-3(5)4(8)9-7-2/h1H3,(H2,5,6,7)	InChI=1S/C4H5N3O2/c1-2-6-3(5)4(8)9-7-2/h1H3,(H2,5,6,7)
