21
gdb 41211	2.7219	1.81291	1.5778	1.1985	92.09	-0.182	-0.0429	0.1391	966.8954	0.185246	-349.876292	-349.869273	-349.868329	-349.906915	30.822	
C	-0.3137401168	 1.2329332666	-0.1110445424	-0.219752
C	 1.2361621572	 1.2466709266	 0.3221540074	-0.268494
C	 1.4123350401	 0.0884568901	 1.3070920637	 0.203099
C	 1.2451046087	-1.3534235986	 0.7531063545	-0.331256
C	-0.2443587701	-1.0827815126	 0.6572139751	 0.220109
C	-0.9432226134	-1.0816136996	 2.0092581417	-0.249953
C	 0.0985615713	-0.8083825149	 3.1512945337	-0.266728
C	 0.9814442456	 0.2719199717	 2.5694933995	-0.084921
C	-0.4814273264	-0.2487941429	-0.4042193199	-0.201142
H	-0.9133180117	 1.5893938597	 0.7302356343	 0.104029
H	-0.4866669849	 1.892543829	-0.9673780543	 0.096239
H	 1.8560990044	 1.1502957718	-0.5754060653	 0.098476
H	 1.4861163826	 2.1942966881	 0.8086172372	 0.105432
H	 1.7289209379	-1.4729675532	-0.2167874309	 0.108691
H	 1.5928181017	-2.126779789	 1.4442515729	 0.095333
H	-1.7280258814	-0.3166815685	 2.030370307	 0.104776
H	-1.4477883474	-2.0459351214	 2.1637573287	 0.102096
H	-0.3925321477	-0.4839340588	 4.0721835052	 0.101775
H	 0.6396306205	-1.7292321991	 3.3930580776	 0.118974
H	 0.923239615	 1.2729148114	 2.9901222725	 0.09185
H	 0.1266088749	-0.5005271863	-1.2810740284	 0.071365
221.8106	244.3916	335.2406	382.9204	421.5343	462.2153	479.152	524.5689	558.0266	609.2651	666.3065	709.7601	775.337	789.9947	840.2779	864.6885	873.7455	897.3123	947.2662	957.6397	981.0927	993.3753	1023.7307	1029.2342	1088.8695	1110.8107	1134.0186	1155.6552	1177.9709	1206.9847	1218.9001	1223.226	1266.8457	1286.6168	1295.4404	1315.7765	1343.1997	1408.2053	1470.9387	1477.6438	1484.5906	1487.5252	1509.0669	1548.8582	1644.9897	3007.8122	3026.9485	3042.4431	3044.8478	3049.0362	3053.7382	3059.6986	3093.6822	3097.2331	3110.7198	3128.9677	3153.3881
C1CC23CC4(CCC24)C13	C1C[C]2C[C](CC[CH]2)[CH]1	
InChI=1S/C9H12/c1-3-8-5-9(6(1)8)4-2-7(8)9/h6-7H,1-5H2	InChI=1S/C9H12/c1-3-8-5-2-6-9(4-1)7-8/h3,6H,1-2,4-5,7H2
