17
gdb 20257	3.62843	2.96227	2.40135	1.4235	69.46	-0.2309	0.0819	0.3128	665.2597	0.146225	-326.671018	-326.665849	-326.664905	-326.699847	22.741	
C	-0.0254967955	 1.56521871	 0.0392824841	-0.24053
C	 1.52817699	 1.5059178847	-0.0184770866	-0.055782
C	 2.0789075971	 1.3155455808	 1.4024130437	-0.154158
N	 1.8122561625	-0.0819066885	 1.7790499368	-0.099532
C	 0.5717300478	-0.6861513134	 1.2667810115	-0.062589
C	 1.8964376599	-0.9154400346	 0.5932893983	-0.067622
C	 1.4427478295	 0.021032245	-0.5606904775	-0.056569
C	-0.0068779988	 0.024250935	 0.0109161469	-0.032034
H	-0.4736366143	 2.0719896697	 0.9006432907	 0.090514
H	-0.4618715357	 1.9691342985	-0.8790270946	 0.095291
H	 2.0532484659	 2.2636563093	-0.6022330204	 0.06599
H	 3.1648114315	 1.4584195796	 1.440893774	 0.100527
H	 1.6200032948	 1.9983415168	 2.1249650059	 0.103619
H	 0.0121107189	-1.3092867772	 1.9560703964	 0.090118
H	 2.5595770318	-1.7722526626	 0.5618923033	 0.087851
H	 1.6704095159	-0.1935080323	-1.6015019072	 0.067233
H	-0.8140303411	-0.5373088306	-0.4622493152	 0.067673
288.0075	400.5156	484.1297	619.357	660.9019	724.4827	756.1471	786.2076	830.7188	848.2597	861.0319	885.8179	915.376	944.0228	948.2207	972.4618	993.3766	1018.9647	1035.6253	1056.9371	1086.5223	1101.7216	1138.6976	1182.4825	1188.8799	1210.159	1236.5468	1245.9175	1253.6495	1275.1322	1305.8781	1311.8425	1330.0903	1369.7292	1485.8164	1501.8338	3035.6123	3037.4885	3082.587	3087.8647	3094.7123	3097.8416	3150.3751	3163.2877	3179.9635
C1C2CN3C4C3C2C14	C1[C@H]2CN3[C@@H]4[C@H]3[C@H]2[C@H]14	
InChI=1S/C7H9N/c1-3-2-8-6-4(1)5(3)7(6)8/h3-7H,1-2H2	InChI=1S/C7H9N/c1-3-2-8-6-4(1)5(3)7(6)8/h3-7H,1-2H2/t3-,4-,5+,6-,7+,8?/m0/s1
