18
gdb 109756	2.77235	1.12928	1.08377	5.5128	69.22	-0.2483	0.0045	0.2528	1202.1157	0.147596	-476.236062	-476.226837	-476.225893	-476.270262	34.328	
N	-0.0528075201	 1.3183305248	 0.016855627	-0.529001
C	-0.0639072069	 0.0883831768	-0.5581706313	 0.458819
O	 0.8638995997	-0.2818297441	-1.2805182669	-0.408623
C	-1.2692039537	-0.7414989227	-0.2930112157	-0.236064
C	-1.5749827218	-1.8894543028	-1.257400459	 0.110342
O	-0.7146516228	-2.1698224284	-2.3136843839	-0.432933
C	-1.1644489598	-2.2214616221	 0.1396294943	-0.091472
C	 0.1625927307	-2.9342787839	 0.3472971383	-0.104271
O	 0.1369605477	-4.2178419413	-0.2561776522	-0.427113
H	 0.7523173397	 1.904993589	-0.1309940991	 0.268117
H	-0.7562356676	 1.6113932944	 0.6711795041	 0.266404
H	-2.1200065852	-0.1996691434	 0.1078552993	 0.089788
H	-2.6159657025	-2.0176019162	-1.5400945981	 0.108112
H	 0.0571939261	-1.5746051052	-2.2113741175	 0.313877
H	-1.9601682027	-2.530397825	 0.8113642439	 0.099901
H	 0.9913610208	-2.3288322401	-0.0358522702	 0.116371
H	 0.338251692	-3.0961184045	 1.4153849611	 0.104079
H	 0.0100995366	-4.0545765252	-1.2000289541	 0.293666
72.8816	90.6662	134.8868	208.6307	218.2557	275.1305	316.1834	362.5806	420.4596	494.5771	521.8679	598.3543	634.3391	684.5776	702.3745	765.8921	786.7761	804.9694	859.6755	948.8496	995.1649	1028.214	1064.3337	1075.026	1114.2808	1121.132	1140.9236	1235.3919	1240.5937	1287.8166	1349.8925	1382.204	1415.8502	1442.2793	1449.7609	1496.5597	1514.9176	1616.912	1728.5831	3042.7095	3084.6879	3145.0723	3147.152	3161.7838	3489.6315	3604.6473	3742.5558	3767.2542
NC(=O)C1C(O)C1CO	NC(=O)[C@H]1[C@@H](O)[C@H]1CO	
InChI=1S/C5H9NO3/c6-5(9)3-2(1-7)4(3)8/h2-4,7-8H,1H2,(H2,6,9)	InChI=1S/C5H9NO3/c6-5(9)3-2(1-7)4(3)8/h2-4,7-8H,1H2,(H2,6,9)/t2-,3+,4-/m0/s1
