19
gdb 38959	3.03428	1.73946	1.43593	1.3782	73.29	-0.2516	0.0769	0.3285	959.6844	0.16275	-423.027115	-423.020251	-423.019307	-423.058402	27.797	
C	 0.1753543175	 1.6093534357	 0.3333968433	-0.282414
C	 1.3584251812	 0.7756366741	-0.0754423509	-0.038711
C	 2.2727706231	 0.2568014922	 1.0301336942	-0.253143
C	 1.367372165	-0.4972786203	 2.011331867	 0.054766
O	 0.9718905211	 0.3194517311	 3.1148160957	-0.250884
C	-0.2995708646	-0.1623513407	 3.4686488712	 0.018111
O	-0.9807412427	-0.4568581521	 2.2680055704	-0.267774
C	 0.0142588568	-0.7748430524	 1.2900302294	 0.094257
C	-0.009528023	 0.1346800739	 0.0735818446	-0.049746
H	 0.1161502081	 1.9593393164	 1.3574622132	 0.130376
H	-0.2343434143	 2.2920768739	-0.4029041036	 0.1081
H	 1.7895978232	 0.9373727528	-1.0573998381	 0.081556
H	 3.010199131	-0.4353262737	 0.6094948705	 0.102646
H	 2.8245137672	 1.0467380446	 1.5495423202	 0.119055
H	 1.8328945747	-1.4178249462	 2.3896928082	 0.074919
H	-0.210010775	-1.0716138465	 4.0925865847	 0.081795
H	-0.8378754531	 0.6172077343	 4.0157304643	 0.117772
H	-0.0928587216	-1.8255413739	 0.9963383631	 0.076229
H	-0.5862316147	-0.1762171129	-0.7895867272	 0.083091
102.0947	191.0224	248.6409	336.1774	376.3244	503.4975	574.1225	658.1933	735.4698	765.8635	794.2287	823.6795	849.3883	873.2254	928.6405	953.033	994.3191	1003.4758	1010.6866	1053.9184	1066.7995	1076.7103	1089.5036	1107.7802	1115.9934	1127.9118	1180.9878	1203.409	1224.5889	1239.8238	1273.0257	1302.7643	1330.9511	1344.748	1360.8487	1379.2381	1405.5047	1429.0675	1478.3612	1494.8293	1539.013	2924.3163	3000.8227	3036.3962	3048.2545	3084.0768	3088.552	3138.6277	3164.2471	3177.8884	3227.8387
C1C2CC3OCOC3C12	C1[C@H]2C[C@H]3OCO[C@H]3[C@@H]12	
InChI=1S/C7H10O2/c1-4-2-6-7(5(1)4)9-3-8-6/h4-7H,1-3H2	InChI=1S/C7H10O2/c1-4-2-6-7(5(1)4)9-3-8-6/h4-7H,1-3H2/t4-,5-,6+,7-/m0/s1
