25
gdb 121563	6.05427	0.38447	0.37651	0.1716	100.79	-0.238	0.0649	0.3029	3054.1959	0.226731	-352.350793	-352.338802	-352.337858	-352.391129	41.444	
C	-0.540499583	 1.4355925134	 0.3150566771	-0.385066
C	 0.0464711557	 0.0538930923	 0.0146165903	-0.160249
C	 0.7613671518	-0.5670275006	 1.2182159025	-0.148143
C	 1.3505185781	-1.9582381217	 0.9098131599	-0.358362
C	 2.0346972957	-2.5616391409	 2.0487006286	 0.065888
C	 2.600362998	-3.0302895363	 3.0039195125	 0.074177
C	 3.2612003182	-3.6282977067	 4.1591489254	-0.335218
C	 2.4308651618	-4.7414268603	 4.8302712005	-0.151406
C	 3.1428477872	-5.3531167414	 6.0382973146	-0.381168
H	 0.2417235763	 2.1401544114	 0.6186377706	 0.114999
H	-1.0445017772	 1.8550115809	-0.5612700642	 0.111516
H	-1.2726764989	 1.3859578608	 1.1286302919	 0.11488
H	-0.7537766528	-0.6201024723	-0.3195012565	 0.094636
H	 0.7493724169	 0.1286318113	-0.8259944589	 0.094768
H	 1.5687941611	 0.0946165921	 1.5547386475	 0.103827
H	 0.0653957507	-0.6544287782	 2.0614056506	 0.103337
H	 0.5449882363	-2.6235347306	 0.5695483315	 0.121583
H	 2.0460962922	-1.8759509725	 0.0632384149	 0.121739
H	 4.2348324107	-4.038214772	 3.8566913766	 0.121226
H	 3.4841544689	-2.8490046022	 4.9010782586	 0.121064
H	 1.4629020431	-4.3263127845	 5.1327834786	 0.106526
H	 2.214070978	-5.5170849435	 4.0872270141	 0.107022
H	 4.1026360037	-5.7973532559	 5.7512625788	 0.114702
H	 3.3453964651	-4.5971352993	 6.8053766381	 0.114576
H	 2.5372089726	-6.1395808733	 6.4986645363	 0.113146
8.6323	56.6623	60.1311	102.3076	108.0481	121.7622	224.4356	240.2164	243.4996	279.7059	289.9213	357.8538	389.1936	494.7276	521.0036	734.3152	742.9058	790.8616	792.616	872.3049	893.5548	907.6359	932.5198	1005.3089	1041.9057	1061.3331	1108.0375	1118.2871	1122.5835	1131.6891	1164.7836	1241.2883	1259.068	1277.2537	1306.4735	1311.8377	1321.1126	1327.2886	1359.6119	1381.6254	1394.0101	1412.2117	1413.423	1473.3862	1474.7238	1485.7112	1491.8612	1497.9528	1498.911	1499.7103	1509.0258	1512.0149	2366.1698	3004.1399	3004.6868	3010.7147	3027.8695	3028.3591	3029.5466	3030.0664	3032.388	3037.3248	3039.6591	3071.1334	3073.8047	3096.6218	3098.4563	3101.217	3103.7822	8.6407	56.6641	60.1303	102.308	108.048	121.7619	224.4356	240.217	243.4988	279.7057	289.9212	357.8528	389.1934	494.7272	521.003	734.3152	742.9059	790.8616	792.6159	872.3047	893.5549	907.6359	932.5198	1005.3089	1041.9056	1061.3331	1108.0373	1118.2869	1122.5835	1131.6891	1164.7834	1241.2885	1259.0674	1277.2539	1306.4731	1311.8379	1321.1119	1327.2888	1359.6121	1381.6251	1394.0102	1412.2116	1413.4233	1473.3861	1474.7236	1485.7114	1491.8606	1497.953	1498.9107	1499.7107	1509.0252	1512.0152	2366.1694	3004.14	3004.6868	3010.7147	3027.8695	3028.3592	3029.5466	3030.0664	3032.388	3037.3248	3039.6591	3071.1334	3073.8047	3096.6219	3098.4563	3101.2169	3103.7822
CCCCC#CCCC	CCCCC#CCCC	
InChI=1S/C9H16/c1-3-5-7-9-8-6-4-2/h3-7H2,1-2H3	InChI=1S/C9H16/c1-3-5-7-9-8-6-4-2/h3-7H2,1-2H3
