16
gdb 123808	5.50657	0.97812	0.8823	2.8162	71.48	-0.2233	-0.0009	0.2224	1289.4661	0.12545	-434.035232	-434.027586	-434.026641	-434.068544	28.36	
C	-0.3556553847	 1.1254039273	-0.1252070839	-0.275961
C	 1.126120877	 1.0450471786	 0.1943243611	-0.299896
C	 0.3340517016	-0.200670929	-0.0194510972	 0.152916
O	 0.1234129532	-0.9790135534	 1.1403235574	-0.282378
C	-0.900398837	-1.8492299951	 1.0874577408	 0.406805
C	-1.3247744814	-2.668282449	 2.1120667839	-0.20213
N	-2.3533005232	-3.3478110457	 1.5430269064	-0.14197
N	-2.5573520792	-2.9864064133	 0.2725153021	-0.127973
N	-1.6666977461	-2.0671078541	-0.0101465763	-0.26925
H	-1.0207440876	 1.3984294026	 0.685809482	 0.12327
H	-0.6697505299	 1.4618353001	-1.1065719582	 0.122337
H	 1.8475030086	 1.330881839	-0.5625452501	 0.118588
H	 1.4241735651	 1.2628211884	 1.2135606635	 0.125346
H	 0.4789657244	-0.7927513413	-0.9166711316	 0.11705
H	-0.9981582305	-2.8121093098	 3.1261301046	 0.14848
H	-2.9450772801	-4.0517411354	 1.9542831654	 0.284766
54.129	59.5387	152.3736	307.1626	355.5098	391.8764	484.1628	567.6547	685.2863	716.6129	718.4572	754.8181	759.8654	827.2001	847.1692	976.4957	984.8635	990.0731	1048.5886	1057.4361	1071.2192	1073.5311	1119.6398	1137.0848	1181.2221	1189.9988	1237.951	1277.5081	1343.1695	1351.4607	1392.7989	1454.333	1496.631	1507.2283	1617.8179	3140.7594	3144.1003	3168.7608	3224.1096	3238.2666	3300.3858	3658.7438
C1CC1OC1=CNN=N1	C1CC1Oc1c[nH]nn1	
InChI=1S/C5H7N3O/c1-2-4(1)9-5-3-6-8-7-5/h3-4H,1-2H2,(H,6,7,8)	InChI=1S/C5H7N3O/c1-2-4(1)9-5-3-6-8-7-5/h3-4H,1-2H2,(H,6,7,8)
