20
gdb 99087	3.38455	0.78703	0.70742	2.6635	77.72	-0.2498	-0.0194	0.2304	1645.8449	0.167913	-440.336283	-440.325369	-440.324425	-440.374113	37.08	
C	-0.1141881339	 1.3811226726	 0.1526005415	-0.334483
N	 0.0887978923	-0.0409291737	-0.0449173445	-0.314662
C	 0.5389500921	-0.5677395939	-1.2188140496	 0.424259
O	 0.8428842732	 0.1181537803	-2.1818697794	-0.380598
C	 0.6103357819	-2.0938468656	-1.2405612165	-0.335023
C	 1.5137294611	-2.6109122776	-2.3591913482	-0.060162
C	 3.0138635008	-2.4146995406	-2.0792662145	-0.414638
C	 1.2232644262	-4.0561143797	-2.7008388954	 0.147624
O	 0.3346272248	-4.7221917374	-2.2318013634	-0.253626
H	 0.4675642996	 1.7502980819	 1.0042535164	 0.125488
H	 0.2207991809	 1.8849068581	-0.754592619	 0.171923
H	-1.1709862398	 1.6174338804	 0.3219024009	 0.126889
H	-0.1579499482	-0.6726075639	 0.6989653372	 0.24691
H	 0.9428849258	-2.4751636513	-0.2676550009	 0.108076
H	-0.4026037979	-2.4876921902	-1.3854215714	 0.145885
H	 1.2820917732	-2.0332926231	-3.2670122807	 0.131152
H	 3.6247747371	-2.8170075451	-2.8940743111	 0.120514
H	 3.2363477556	-1.3494632528	-1.9871572306	 0.147931
H	 3.3142285101	-2.9170640579	-1.152961396	 0.119199
H	 1.9160417653	-4.4867003005	-3.4613432647	 0.077344
30.299	47.7509	87.087	115.5521	128.6565	153.9245	228.9352	238.1048	283.2553	353.8036	396.4301	438.7072	459.7749	600.3516	631.8574	739.6101	822.417	899.0492	909.5881	920.2647	946.6185	1055.8782	1094.8918	1115.4591	1154.5067	1165.8904	1173.453	1220.5895	1250.1852	1296.6352	1318.6697	1384.745	1401.839	1427.7171	1438.599	1461.1655	1494.1949	1498.0348	1500.2286	1508.3561	1563.5829	1770.1789	1824.8562	2860.9511	3009.1242	3027.4582	3034.252	3037.8755	3074.7916	3079.508	3099.4368	3130.1113	3155.4062	3644.8945
CNC(=O)CC(C)C=O	CNC(=O)C[C@@H](C)C=O	
InChI=1S/C6H11NO2/c1-5(4-8)3-6(9)7-2/h4-5H,3H2,1-2H3,(H,7,9)	InChI=1S/C6H11NO2/c1-5(4-8)3-6(9)7-2/h4-5H,3H2,1-2H3,(H,7,9)/t5-/m1/s1
