13
gdb 128550	2.53989	1.50624	0.95121	3.0628	73.69	-0.2366	-0.0634	0.1732	1149.5548	0.08733	-452.674579	-452.666473	-452.665529	-452.707813	28.733	
C	 0.0185749246	 1.4599360922	-0.0553132228	-0.250536
O	 0.0059745789	 0.0281780545	-0.0115490899	-0.264604
C	 0.5866505572	-0.5970167503	-1.0302826834	 0.228191
C	 0.7064525422	-1.9526216876	-1.2240824684	 0.195314
O	 1.3688666782	-2.1117183255	-2.3941772792	-0.20672
N	 1.6441742472	-0.8422948186	-2.8978472705	-0.022839
N	 1.1818227134	 0.024390715	-2.0904510141	-0.209032
C	 0.2958506104	-3.0655716843	-0.4835020709	 0.287035
C	-0.0626237196	-4.0159970889	 0.162661913	-0.405244
H	 1.0442401821	 1.8401441315	-0.0642243946	 0.146656
H	-0.5069265604	 1.8269859518	-0.9417356066	 0.146637
H	-0.4959579731	 1.782567835	 0.8494032406	 0.144355
H	-0.3797861211	-4.853455915	 0.7342390868	 0.210786
74.5064	121.0418	167.1225	178.7132	245.3803	332.7813	411.3715	477.3953	551.646	582.5369	619.7157	680.8251	696.834	734.3983	756.4453	819.1839	1010.5909	1048.9958	1178.0097	1187.2698	1214.0235	1230.7838	1397.6198	1423.6657	1485.1406	1492.8404	1498.7266	1660.8521	2237.4135	3042.9735	3116.0284	3160.9311	3497.5632
COC1=C(ON=N1)C#C	COc1c(onn1)C#C	
InChI=1S/C5H4N2O2/c1-3-4-5(8-2)6-7-9-4/h1H,2H3	InChI=1S/C5H4N2O2/c1-3-4-5(8-2)6-7-9-4/h1H,2H3
