20
gdb 11076	2.19374	2.14013	1.79859	1.6796	75.57	-0.2233	0.0858	0.309	933.3987	0.175243	-348.978761	-348.969936	-348.968992	-349.011347	33.063	
C	 0.0256933373	 1.5736459075	-0.0215386848	-0.424989
C	 0.0688328645	 0.0622171373	-0.072610113	-0.113619
C	 0.6579243632	-0.7693094228	-1.2093143027	 0.195697
C	-0.0983893495	-1.8215779822	-1.9665459479	-0.497972
C	 1.9491779456	-0.1056105174	-1.6772395967	-0.136274
O	 2.4636176689	-0.0391132193	-0.3222813453	-0.323359
C	 1.3126130586	-0.7524055954	 0.1652526258	 0.412253
C	 1.5448721189	-1.764945547	 1.239154011	-0.488213
H	 1.006998062	 1.9994517226	-0.2441423253	 0.135512
H	-0.7006716697	 1.9818921771	-0.7329617566	 0.111316
H	-0.2604187287	 1.9170627834	 0.9784593556	 0.115019
H	-0.8162211284	-0.4274817594	 0.3328399941	 0.079038
H	-0.6827454203	-1.3846685928	-2.7858828419	 0.121467
H	 0.5766308386	-2.5673296548	-2.4025600324	 0.117368
H	-0.8010465623	-2.3499323921	-1.3138089022	 0.119322
H	 2.5733601356	-0.7663106579	-2.2919164217	 0.1014
H	 1.8864859098	 0.8813411228	-2.1517284144	 0.098599
H	 1.8787536003	-1.2773227155	 2.1624726405	 0.131424
H	 0.62106922	-2.3069812733	 1.4618725115	 0.120836
H	 2.3124320156	-2.4869358708	 0.9425513163	 0.125174
159.6328	172.537	176.592	185.9244	205.3753	251.0512	261.1759	319.245	366.4286	508.7951	578.2496	593.5175	697.6186	758.7919	768.173	912.427	927.6937	961.9421	989.7747	1004.8365	1059.8486	1093.6761	1104.9348	1123.4142	1134.3243	1160.9607	1195.1499	1240.0661	1276.6106	1318.7382	1355.1077	1403.5264	1410.0863	1418.4301	1472.8467	1482.7974	1488.6408	1493.4975	1496.4472	1499.9873	1516.4432	1527.1869	3012.2205	3018.5178	3029.9793	3032.6267	3058.0154	3074.0416	3088.3819	3092.19	3093.1492	3110.021	3113.8123	3127.1767
CC1C2(C)COC12C	C[C@H]1[C@@]2(C)CO[C@@]12C	
InChI=1S/C7H12O/c1-5-6(2)4-8-7(5,6)3/h5H,4H2,1-3H3	InChI=1S/C7H12O/c1-5-6(2)4-8-7(5,6)3/h5H,4H2,1-3H3/t5-,6+,7-/m0/s1
