17
gdb 17035	6.08841	1.31061	1.30071	4.09	70.93	-0.2349	0.0149	0.2498	990.2471	0.142242	-363.812226	-363.804919	-363.803975	-363.843744	27.579	
C	 0.0208254757	 1.6991698089	 0.0482115413	-0.442186
C	-0.0371730895	 0.1827039238	 0.0484742215	 0.060532
C	 0.9660796293	-0.6972792473	-0.7726812305	-0.036077
C	 2.0749343425	-0.3695683206	 0.2757758878	-0.236807
C	 0.7714118363	-0.6892097304	 1.0669095536	-0.055958
N	 0.5273361177	-1.8349666336	 0.112104828	-0.071727
C	 1.1131250117	-3.0746375705	 0.1512366431	 0.12867
O	 1.5775788476	-3.6564938324	-0.8046991306	-0.317004
H	 1.0303067416	 2.1032834264	 0.1512236131	 0.122962
H	-0.3988771995	 2.0903362216	-0.8846363505	 0.129054
H	-0.5829992165	 2.1002829692	 0.8691770793	 0.126667
H	-1.0654747865	-0.1723043194	-0.0570174698	 0.090274
H	 1.055314558	-0.8194910095	-1.8502818825	 0.109873
H	 2.8762446753	-1.1053675243	 0.3564139979	 0.121984
H	 2.4611664306	 0.6496573931	 0.3131608932	 0.105025
H	 0.6245643406	-0.7988856954	 2.1421041062	 0.094075
H	 1.025365155	-3.5359832097	 1.1571139186	 0.070643
110.0787	153.0357	177.0062	276.4497	309.9769	358.8035	479.478	585.9244	667.9486	747.4452	780.6976	801.2728	816.5898	894.1358	961.5144	1009.0412	1014.4608	1030.011	1058.5933	1090.3343	1111.31	1123.1023	1140.244	1167.4206	1203.9988	1230.5773	1236.4233	1264.1653	1345.9487	1398.1592	1416.9547	1425.9112	1494.8899	1496.2504	1521.6929	1787.0561	2915.7437	3040.2876	3079.1806	3081.5261	3097.8155	3114.8328	3123.9457	3146.617	3150.304
CC1C2CC1N2C=O	C[C@H]1[C@H]2C[C@@H]1N2C=O	
InChI=1S/C6H9NO/c1-4-5-2-6(4)7(5)3-8/h3-6H,2H2,1H3	InChI=1S/C6H9NO/c1-4-5-2-6(4)7(5)3-8/h3-6H,2H2,1H3/t4-,5+,6-
