17
gdb 40258	2.8589	1.65134	1.25312	0.9629	67.83	-0.2559	0.0649	0.3209	1005.1179	0.136623	-458.916547	-458.909287	-458.908343	-458.948272	28.344	
C	 0.0854352375	 1.4668083503	-0.0149108153	-0.240946
O	 1.2254404634	 0.6036697551	-0.0322102753	-0.273031
C	-0.0786099524	 0.0094213962	 0.0115731695	 0.409765
C	-0.4533820082	-0.721237154	 1.2855582824	-0.168007
O	-0.0218733827	-2.069493743	 1.2330790863	-0.24738
C	-0.6981299442	-2.8370326796	 0.2528078806	-0.104289
C	-0.7703709168	-2.168354391	-1.1107770213	 0.020404
O	-1.8071739998	-1.1900051493	-1.2820902317	-0.260166
C	-0.4509043057	-0.7369516603	-1.2323636841	-0.030921
H	-0.0531890413	 2.0395320457	 0.9016076481	 0.117942
H	-0.1062249055	 2.0147933669	-0.9366228228	 0.118638
H	 0.0567067534	-0.2603517581	 2.1346320188	 0.120352
H	-1.5419703736	-0.6621837146	 1.4399119377	 0.106158
H	-0.1419683814	-3.7757449694	 0.174595581	 0.118316
H	-1.7243599961	-3.0716389676	 0.5807088692	 0.106789
H	-0.6290125629	-2.8158420288	-1.9752553825	 0.104946
H	-0.0466836538	-0.3389059386	-2.1621936405	 0.101429
96.8918	202.1857	240.4225	307.0107	360.2392	386.7155	442.751	493.1865	536.7171	684.9614	794.8412	796.2921	840.0977	896.176	908.4975	946.1767	979.9377	986.7397	1033.531	1050.2143	1086.9844	1126.6053	1132.5907	1159.8161	1171.4378	1256.5203	1266.9507	1304.655	1324.5847	1337.3771	1367.8191	1399.813	1427.4789	1471.7311	1481.3472	1486.8847	1532.584	2973.8256	2990.9813	3080.2173	3086.1816	3107.4163	3117.1815	3129.3818	3166.5296
C1OC11COCC2OC12	C1O[C@]21COC[C@H]1O[C@@H]21	
InChI=1S/C6H8O3/c1-4-5(9-4)6(2-7-1)3-8-6/h4-5H,1-3H2	InChI=1S/C6H8O3/c1-4-5(9-4)6(2-7-1)3-8-6/h4-5H,1-3H2/t4-,5-,6+/m1/s1
