15
gdb 31114	3.49059	1.18045	0.90117	1.2513	63.58	-0.1812	0.0522	0.2334	1207.0701	0.113693	-491.115928	-491.107624	-491.10668	-491.148728	31.268	
O	 0.2651566426	 0.9386670723	 0.8522709769	-0.422379
C	-0.0323752339	 0.040693151	-0.2360265593	-0.195306
C	-1.4357030242	-0.4584902814	-0.131334448	 0.089983
C	-2.1529850158	-0.5639518076	 1.0239003125	 0.332763
O	-1.880541197	-0.2688282524	 2.3123681423	-0.44138
N	-3.3876560792	-1.0823608878	 0.6742261827	-0.365478
C	-3.3414104241	-1.2613877723	-0.6801748508	 0.424766
O	-4.4210904293	-1.7597516157	-1.3113270779	-0.428585
N	-2.2101072448	-0.9056270001	-1.2087457582	-0.421825
H	-0.2508837124	 1.738693958	 0.6998055761	 0.29017
H	 0.1364122655	 0.5209680726	-1.2086816474	 0.117825
H	 0.7096152123	-0.7613037385	-0.1395514037	 0.124607
H	-1.0072912418	 0.1585145435	 2.2876207126	 0.305269
H	-4.1621116013	-1.2648901409	 1.289381404	 0.27721
H	-4.1839286366	-1.8108175506	-2.2457455919	 0.312361
83.254	186.3185	209.9977	240.289	322.5114	353.9974	366.0766	396.7869	425.9361	441.2308	525.6805	641.4517	653.4143	667.7768	716.3442	735.4273	822.5862	975.9805	1014.267	1045.2836	1152.3746	1169.2512	1189.0438	1238.31	1275.7039	1354.8314	1376.2989	1408.0892	1507.1317	1521.1338	1552.8705	1637.7471	1681.5297	3016.7888	3051.3115	3668.0134	3675.5037	3798.5239	3806.5121
OCC1=C(O)NC(O)=N1	OCc1c(O)[nH]c(O)n1	
InChI=1S/C4H6N2O3/c7-1-2-3(8)6-4(9)5-2/h7-8H,1H2,(H2,5,6,9)	InChI=1S/C4H6N2O3/c7-1-2-3(8)6-4(9)5-2/h7-8H,1H2,(H2,5,6,9)
