17
gdb 130152	3.12402	1.18786	0.90126	1.9046	73.05	-0.188	0.0231	0.2111	1258.2363	0.13757	-451.330657	-451.321101	-451.320157	-451.365699	34.29	
N	-0.0469924993	 1.3335757768	-0.1046416431	-0.599178
C	 0.0228954667	-0.0595455791	 0.0105235731	 0.336161
N	-1.0381309561	-0.8181490127	 0.2509307752	-0.307278
N	-0.5315966588	-2.0642501077	 0.3998123473	-0.268621
C	 0.8210314112	-2.1213150046	 0.2093877294	 0.281772
C	 1.5645318968	-3.4119334665	 0.2896546711	-0.176615
O	 0.99847672	-4.4290876286	-0.5351944823	-0.415623
C	 1.2223817511	-0.8197324662	-0.03225351	 0.024917
N	 2.491976403	-0.2762284566	-0.3177902555	-0.628131
H	 0.4681176678	 1.6701184909	-0.9108571323	 0.247232
H	-1.0097664665	 1.6441451947	-0.1594463279	 0.248923
H	-1.1588604351	-2.8486805944	 0.4340993868	 0.270528
H	 2.6252348456	-3.2395846945	 0.0503820882	 0.090833
H	 1.5309128595	-3.8269424461	 1.3039603847	 0.125567
H	 0.9483033014	-4.0750123069	-1.430059249	 0.284043
H	 3.2398046755	-0.9466449431	-0.1895765958	 0.237123
H	 2.6843346373	 0.5287328646	 0.2706284101	 0.248348
44.3279	67.4883	119.3583	220.7928	234.0566	278.9514	298.966	331.0419	364.0242	393.4087	435.3823	541.9218	597.4363	670.5299	713.6154	757.3545	786.0855	816.0963	841.1574	965.5713	1000.2787	1045.7092	1102.5692	1185.7922	1221.6357	1242.4223	1276.0441	1302.9066	1370.5875	1420.0492	1467.7253	1500.6375	1521.364	1561.5622	1624.8108	1645.143	1672.2776	2985.1159	3051.6527	3500.6923	3513.778	3598.5755	3611.5873	3683.9083	3801.6546
NC1=NNC(CO)=C1N	Nc1n[nH]c(CO)c1N	
InChI=1S/C4H8N4O/c5-3-2(1-9)7-8-4(3)6/h9H,1,5H2,(H3,6,7,8)	InChI=1S/C4H8N4O/c5-3-2(1-9)7-8-4(3)6/h9H,1,5H2,(H3,6,7,8)
