20
gdb 40798	3.87614	1.05132	0.88031	2.3568	79.31	-0.2412	0.0288	0.2701	1328.6796	0.173163	-403.148545	-403.140362	-403.139417	-403.181762	31.138	
C	-0.1899989845	 1.4117266436	-0.1657638405	-0.279723
C	 1.2458433106	 1.031965946	 0.0963044937	-0.27359
C	 0.1821170281	-0.0367083126	 0.044329779	 0.025046
C	-0.2339207166	-0.7703359677	 1.3000851783	-0.051643
C	-1.6629148669	-1.3008284186	 1.1901539239	-0.076717
O	-2.0488277445	-2.0337875662	 2.3623124331	-0.227713
C	-1.0731868266	-2.7780331504	 2.93873693	 0.128093
N	 0.1608299003	-2.835803424	 2.6730987842	-0.274466
C	 0.6831578832	-1.9587813948	 1.6278953605	-0.161019
H	-0.7313949302	 1.9158017192	 0.6283572684	 0.113355
H	-0.4648856389	 1.7349634651	-1.1634987804	 0.114299
H	 1.9541451552	 1.0942851436	-0.7220521375	 0.115103
H	 1.6649193585	 1.2808261034	 1.0657492827	 0.115493
H	 0.1831215561	-0.6580427657	-0.849258006	 0.083551
H	-0.2046252053	-0.0697739163	 2.1460105023	 0.08233
H	-2.3920233216	-0.4938770488	 1.086788974	 0.119647
H	-1.7581116771	-1.9637815084	 0.3189565034	 0.107719
H	-1.4991602236	-3.3803252259	 3.7394479102	 0.120953
H	 0.8597695137	-2.558521226	 0.7233793946	 0.106577
H	 1.66795401	-1.6002605856	 1.9468022462	 0.112703
77.2926	114.3542	156.593	172.3865	283.5855	378.6316	422.6343	478.668	495.6786	534.5857	766.1457	798.6439	828.3742	877.3527	893.6992	919.7885	931.5054	959.1188	979.1101	986.1687	994.6663	1058.5846	1079.0135	1124.6456	1130.5738	1138.2199	1172.4535	1184.6378	1198.9925	1225.4846	1233.311	1276.9905	1309.3774	1341.0186	1363.2753	1401.4616	1413.2018	1430.1983	1469.1512	1484.402	1504.8656	1508.7876	1737.7801	3003.8239	3008.1279	3023.3124	3059.3797	3101.769	3123.6201	3129.9884	3135.1348	3156.7136	3208.769	3223.6679
C1CC1C1COC=NC1	C1CC1[C@H]1COC=NC1	
InChI=1S/C7H11NO/c1-2-6(1)7-3-8-5-9-4-7/h5-7H,1-4H2	InChI=1S/C7H11NO/c1-2-6(1)7-3-8-5-9-4-7/h5-7H,1-4H2/t7-/m1/s1
