15
gdb 14220	4.8522	1.82257	1.66456	4.5671	64.97	-0.2419	0.0017	0.2436	804.2879	0.119004	-362.616781	-362.610181	-362.609237	-362.647318	25.527	
C	 0.0047398423	 1.4673439751	 0.0148097965	-0.509082
C	-0.0258887568	-0.0312023324	-0.0130578417	 0.313777
C	-1.2175986787	-0.9708340419	-0.2084994505	-0.235579
N	-0.3572378321	-2.1083452926	 0.3286309932	-0.22195
C	 0.5681688233	-1.0295072998	 0.9093983599	-0.072072
C	 1.2117890192	-0.8783794964	-0.465502296	-0.272708
C	 0.6356781711	-2.2119494795	-0.786550139	 0.44086
O	 0.8538571994	-3.117519852	-1.5251500833	-0.313646
H	 0.9712820523	 1.8416121129	 0.3663315221	 0.130267
H	-0.17558214	 1.8857312902	-0.9809353352	 0.134983
H	-0.7682604895	 1.8531748333	 0.6884134675	 0.132311
H	-2.0342770703	-0.7608595241	 0.487760259	 0.11786
H	-1.6150009858	-1.1449991121	-1.2146613578	 0.118792
H	 1.0105198911	-1.0415696555	 1.8941260973	 0.121213
H	 2.1476195145	-0.4145147453	-0.7474528821	 0.114973
132.63	201.8688	241.1572	301.5301	424.6098	496.3585	570.0176	657.463	731.5661	784.68	825.9764	833.0577	891.302	902.7897	924.6093	952.9927	957.8884	1022.9917	1038.4681	1080.5149	1125.139	1139.9672	1165.4609	1198.1904	1264.6123	1289.3282	1405.7583	1431.7077	1486.1003	1496.1089	1511.5041	1924.8686	3032.0073	3040.4523	3097.1097	3102.7405	3105.6407	3210.0859	3237.3929
CC12CN3C1C2C3=O	C[C@]12CN3[C@H]1[C@H]2C3=O	
InChI=1S/C6H7NO/c1-6-2-7-4(6)3(6)5(7)8/h3-4H,2H2,1H3	InChI=1S/C6H7NO/c1-6-2-7-4(6)3(6)5(7)8/h3-4H,2H2,1H3/t3-,4-,6+/m0/s1
