17
gdb 95061	2.12654	2.10641	1.27573	2.2527	67.1	-0.2513	-0.0423	0.209	982.8554	0.136113	-458.967012	-458.959341	-458.958397	-458.999329	29.676	
O	 0.3028156653	 1.2991916711	-0.3540069159	-0.437195
C	 0.0717185645	-0.0281011882	 0.0441743077	 0.125595
C	 0.4039266115	-0.328881199	 1.5248325149	-0.131639
O	-0.3421646562	-1.490230193	 1.8709258611	-0.257595
C	-1.5701098199	-1.4797753678	 1.1615249853	 0.097025
C	-2.6875902892	-0.571167306	 1.7767503386	-0.360494
C	-2.3476352555	 0.4676689652	 0.7047677895	 0.388945
O	-2.5845048623	 1.6363717628	 0.5542422279	-0.31434
C	-1.399861423	-0.4930417277	-0.0334175494	-0.214105
H	-0.4551353127	 1.8355129551	-0.085039502	 0.300756
H	 0.6854297854	-0.6616318438	-0.6048376059	 0.101237
H	 1.4601389289	-0.5433356196	 1.7005592991	 0.121152
H	 0.1209101514	 0.5396041435	 2.1416911058	 0.099056
H	-1.8564347792	-2.5128982431	 0.9647718263	 0.094389
H	-3.6922980547	-0.9845484153	 1.6376960866	 0.138709
H	-2.5702093941	-0.2645947199	 2.8195286966	 0.140713
H	-1.7179653402	-0.7984445146	-1.0306771262	 0.107794
75.593	150.4664	177.7297	340.5656	377.5777	387.5401	440.9898	447.8557	537.0593	585.1161	624.9738	735.3454	757.5405	863.4127	885.594	925.3381	940.1711	969.7128	1015.6612	1062.0132	1078.8005	1093.6746	1123.0376	1145.1132	1179.2341	1197.5262	1225.4898	1230.1019	1256.9583	1306.7383	1329.4283	1364.8333	1381.3324	1419.607	1444.2444	1514.9734	1861.7022	2976.4346	3054.3992	3055.1729	3108.171	3108.8438	3116.6763	3120.5098	3753.6432
OC1COC2CC(=O)C12	O[C@H]1CO[C@H]2CC(=O)[C@@H]12	
InChI=1S/C6H8O3/c7-3-1-5-6(3)4(8)2-9-5/h4-6,8H,1-2H2	InChI=1S/C6H8O3/c7-3-1-5-6(3)4(8)2-9-5/h4-6,8H,1-2H2/t4-,5-,6-/m0/s1
