19
gdb 128293	2.26369	1.45261	0.89944	2.1557	82.02	-0.1733	0.0416	0.2149	1307.1076	0.160421	-415.395668	-415.3858	-415.384856	-415.430853	34.95	
C	-0.0222892843	 1.4504014404	-0.1327561788	-0.309506
N	-0.1669430214	 0.003027567	-0.1516480899	-0.385059
C	 0.5410246019	-0.7027121103	-1.1143597213	 0.410854
N	 1.1065653262	-0.1289792265	-2.1728057967	-0.369971
N	 1.6716830939	-1.1559452813	-2.8603204104	 0.043475
C	 2.2823846295	-0.9015956731	-4.1400151015	-0.314379
C	 1.444251409	-2.357411998	-2.2648165801	-0.100758
C	 0.7196219501	-2.1122502079	-1.1177045342	 0.046098
N	 0.2900724417	-2.9716718793	-0.0772656824	-0.623126
H	 1.0190541143	 1.784677099	-0.0112141797	 0.111954
H	-0.3890669659	 1.8626396209	-1.0762111247	 0.141968
H	-0.6261489781	 1.8565601497	 0.6826956577	 0.109922
H	-0.0705043915	-0.4302030888	 0.7581478348	 0.236564
H	 2.9306858648	-1.7411841752	-4.4014780549	 0.129098
H	 1.5339392399	-0.7711407653	-4.9316306352	 0.131966
H	 2.883242553	 0.0088030373	-4.0773598523	 0.146093
H	 1.8190408004	-3.2775539637	-2.6865327858	 0.115373
H	 0.6434570929	-3.9132651405	-0.1973482563	 0.236734
H	-0.7237314464	-3.0258289644	-0.0352220285	 0.242701
64.748	83.3232	137.859	164.0622	172.971	179.4942	262.0014	277.2784	344.315	371.8916	559.5737	594.7686	598.3998	622.5262	696.0924	736.9566	755.7876	838.8798	869.3474	1002.5283	1074.4508	1080.5904	1133.14	1150.8303	1153.4983	1173.8797	1217.1817	1261.2233	1345.8227	1405.2598	1450.1192	1452.0242	1474.5402	1478.392	1481.4271	1496.3706	1516.707	1525.4087	1585.3921	1634.2467	1658.0076	2991.6177	3021.342	3082.7776	3094.4736	3124.6578	3134.6773	3247.0074	3488.8698	3559.7634	3590.0804
CNC1=NN(C)C=C1N	CNc1nn(C)cc1N	
InChI=1S/C5H10N4/c1-7-5-4(6)3-9(2)8-5/h3H,6H2,1-2H3,(H,7,8)	InChI=1S/C5H10N4/c1-7-5-4(6)3-9(2)8-5/h3H,6H2,1-2H3,(H,7,8)
