19
gdb 88213	3.32799	1.25982	1.07461	1.4717	72.11	-0.2339	0.073	0.3068	1157.5733	0.159609	-460.132501	-460.124335	-460.12339	-460.16495	31.994	
O	-0.0064842049	 1.3783681656	-0.0435952624	-0.424141
C	-0.015142988	-0.0190785782	 0.0032186656	 0.016962
C	-0.4887443759	-0.7393342926	 1.2526219589	-0.388738
C	-1.3450493266	-0.6831033384	-0.0014822335	 0.409164
C	-2.6263792434	 0.1183201404	-0.0179301345	-0.139453
O	-3.7205590275	-0.6904184114	 0.3985682407	-0.252379
C	-3.8240675616	-1.8534229206	-0.405554737	-0.075463
C	-2.5284687152	-2.6565632	-0.3575647106	-0.093105
O	-1.4319632494	-1.8488666483	-0.7793530168	-0.298213
H	 0.7118113979	 1.6890555302	 0.517368008	 0.290909
H	 0.7590416254	-0.515778045	-0.5814533846	 0.100519
H	-0.0102138942	-1.6808323807	 1.4983300186	 0.11795
H	-0.7977265364	-0.1332627337	 2.097929842	 0.118493
H	-2.5743301823	 0.9690096295	 0.6621444725	 0.116378
H	-2.8038317149	 0.4946594646	-1.0385562774	 0.097426
H	-4.6609895435	-2.4393639451	-0.0132756398	 0.106804
H	-4.0448035862	-1.5779968078	-1.4504608219	 0.092773
H	-2.3568937695	-3.0220416457	 0.666269943	 0.097524
H	-2.5677428136	-3.5115607728	-1.0388008007	 0.106591
115.7908	163.0312	192.1202	276.8524	309.7527	329.4647	389.1785	432.5923	444.0719	482.9108	546.8349	621.6396	738.4178	836.2541	877.6037	890.4209	927.5378	952.9917	981.0805	1008.212	1016.0955	1045.9674	1096.2944	1112.9947	1131.6674	1140.2984	1170.8173	1230.1344	1256.2348	1288.9884	1302.1306	1314.5446	1335.8925	1383.5369	1401.6298	1418.7798	1423.8378	1480.3027	1480.8618	1491.0672	1499.9685	2969.0599	2978.9453	2996.1048	3084.7436	3091.6364	3107.6564	3126.681	3132.3222	3226.9553	3807.4141
OC1CC11COCCO1	O[C@H]1C[C@]21COCCO2	
InChI=1S/C6H10O3/c7-5-3-6(5)4-8-1-2-9-6/h5,7H,1-4H2	InChI=1S/C6H10O3/c7-5-3-6(5)4-8-1-2-9-6/h5,7H,1-4H2/t5-,6+/m0/s1
