23
gdb 79182	2.4304	1.77137	1.40744	0.3014	87.21	-0.2474	0.0809	0.3283	1061.2292	0.208106	-351.142045	-351.133994	-351.13305	-351.173919	33.428	
C	-0.2282745579	 1.5943882669	-0.0747698571	-0.397116
C	 0.0251603302	 0.0822369848	-0.0013190003	-0.01993
C	 0.7209450263	-0.4825751208	-1.2423184891	-0.027654
C	 2.1721781859	-0.125433159	-1.5421658423	-0.063308
C	 2.9154360268	 0.3274034225	-0.2857698435	-0.240031
C	 2.2405379209	-0.8548392209	 0.4855238713	-0.043065
C	 1.8097058215	-1.4497487069	-0.8857426172	-0.103311
C	 0.9275898434	-0.4415405424	 1.1766457293	 0.031411
C	 1.0971331789	 0.4874907813	 2.3797122564	-0.411658
H	 0.6949328329	 2.1677029288	-0.194049406	 0.118996
H	-0.8654552003	 1.8234468378	-0.93608402	 0.107379
H	-0.7420075289	 1.9631763391	 0.8187937857	 0.108802
H	-0.9573746379	-0.3988365132	 0.0848202729	 0.064886
H	 0.1217792234	-0.6860993559	-2.1245926894	 0.074668
H	 2.4904635016	 0.0524595222	-2.5633066273	 0.075815
H	 3.9914059821	 0.1612848134	-0.3907347341	 0.096694
H	 2.7586336379	 1.3451411928	 0.0866419316	 0.086936
H	 2.9046960459	-1.4444661667	 1.1192402407	 0.058498
H	 1.9100305924	-2.4673359268	-1.2393039459	 0.078836
H	 0.4636218641	-1.3691077817	 1.5389416152	 0.067121
H	 1.5709788685	 1.4354479743	 2.1076240791	 0.11694
H	 0.1328446928	 0.7216862175	 2.8430937543	 0.111559
H	 1.7217186992	 0.0140737627	 3.1451192658	 0.10753
137.3822	217.3969	234.5736	240.7468	269.6431	299.04	410.3626	475.7007	522.2454	602.1816	663.0351	736.8459	750.9155	785.7764	810.3857	834.0471	900.5428	933.5582	946.923	974.9655	986.6282	997.31	1009.7582	1027.8011	1056.7903	1061.8247	1084.2887	1106.2106	1109.9564	1139.0745	1164.5576	1174.9197	1216.3531	1234.3677	1262.5111	1290.5656	1303.7138	1323.6502	1354.9681	1361.9565	1371.6947	1400.8296	1408.4998	1419.2181	1490.2144	1493.7154	1496.4683	1505.3397	1512.9851	2995.7126	3018.9353	3031.3766	3035.1179	3039.8887	3083.9776	3091.1096	3095.3012	3098.37	3105.5261	3117.1976	3155.7138	3168.9112	3198.4
CC1C2C3CC(C23)C1C	C[C@H]1[C@H]2[C@H]3C[C@H]([C@@H]23)[C@H]1C	
InChI=1S/C9H14/c1-4-5(2)8-7-3-6(4)9(7)8/h4-9H,3H2,1-2H3	InChI=1S/C9H14/c1-4-5(2)8-7-3-6(4)9(7)8/h4-9H,3H2,1-2H3/t4-,5+,6-,7+,8-,9+/m0/s1
