18
gdb 90555	4.21899	1.0604	0.95341	4.077	72.49	-0.2249	-0.0214	0.2034	1229.6324	0.146933	-439.037888	-439.029508	-439.028564	-439.071699	30.979	
O	 0.2869916617	 0.8978280213	-0.9688061783	-0.423067
C	-0.0302485342	-0.2700579746	-0.2490194463	 0.105289
C	 0.3405569233	-0.3236832463	 1.2630369793	-0.211772
N	-1.0960267337	-0.5073087262	 1.6503234968	-0.161401
C	-1.7846533042	 0.7869241688	 1.9679173527	-0.044719
C	-2.2066058554	 1.0070012004	 0.4967020511	-0.273965
C	-1.5087017524	-0.3342955877	 0.1903347845	 0.010177
C	-2.9023973734	 0.5274099855	 2.9571449299	 0.151623
O	-4.0503440311	 0.8546647229	 2.8014976749	-0.242537
H	 1.2149822067	 0.8608029487	-1.2205109306	 0.289385
H	 0.2834479611	-1.1691597236	-0.7949407601	 0.076185
H	 0.9635945574	-1.1692011473	 1.5696798728	 0.105124
H	 0.7868748801	 0.6048059295	 1.6369509962	 0.102699
H	-1.1161589145	 1.5413471133	 2.4070535063	 0.09357
H	-3.2882312519	 1.0129018289	 0.3562976762	 0.128618
H	-1.7650777808	 1.8695557872	-0.0012894411	 0.130205
H	-2.1173579315	-1.1244709713	-0.2552185682	 0.082286
H	-2.5661703972	-0.0314951895	 3.8590481739	 0.0823
46.1948	85.3296	151.3704	245.1955	262.6745	308.1625	362.5936	390.5159	525.4937	622.5981	668.2	769.9901	791.563	829.9765	860.7851	893.6993	937.7335	973.7105	997.6252	1023.9288	1046.3645	1061.4937	1102.9132	1135.7524	1162.6674	1190.9759	1212.8413	1225.5044	1246.9956	1259.1084	1292.6645	1310.2198	1327.0822	1357.5994	1406.3657	1429.6558	1481.1018	1491.7156	1830.2207	2887.9177	3006.6808	3012.9893	3031.7042	3078.6752	3088.4483	3094.7137	3153.672	3822.6723
OC1CN2C(CC12)C=O	O[C@H]1CN2[C@@H](C[C@@H]12)C=O	
InChI=1S/C6H9NO2/c8-3-4-1-5-6(9)2-7(4)5/h3-6,9H,1-2H2	InChI=1S/C6H9NO2/c8-3-4-1-5-6(9)2-7(4)5/h3-6,9H,1-2H2/t4-,5-,6-/m0/s1
