19
gdb 122793	4.16452	0.60033	0.53159	2.1374	74.7	-0.2638	-0.0831	0.1808	2046.7318	0.156114	-460.201574	-460.191099	-460.190155	-460.239033	35.093	
C	-0.142032993	 1.5470863516	-0.2763753757	-0.381629
C	 0.0315587288	 0.0364935293	-0.0988484837	-0.169713
C	 0.6744030858	-0.6319683285	-1.3196918052	-0.187358
C	 0.8401406397	-2.1290840038	-1.1293054443	-0.071278
O	 1.4507547468	-2.6634526622	-2.3272167147	-0.217375
C	 1.6708276017	-3.97350194	-2.3325348687	 0.336027
O	 1.4126471237	-4.7484754738	-1.4441179052	-0.342079
C	 2.3188261274	-4.4562752568	-3.6359411902	 0.09235
O	 2.6041011936	-3.749683901	-4.5606126851	-0.211694
H	 0.8226796989	 2.0392920825	-0.4404649222	 0.118885
H	-0.7791674803	 1.7732119364	-1.1382271935	 0.118885
H	-0.602020307	 2.0000536232	 0.6068828628	 0.116506
H	 0.6447840501	-0.1606279234	 0.7901961689	 0.101828
H	-0.9451594041	-0.4247309873	 0.0976109751	 0.101828
H	 0.0634403243	-0.4514833083	-2.2122866531	 0.113072
H	 1.6567624483	-0.1868439472	-1.5182114238	 0.113072
H	 1.4817933227	-2.3679111537	-0.2745190772	 0.126931
H	-0.118971738	-2.6338008399	-0.9718878515	 0.126928
H	 2.4918692408	-5.5511373371	-3.6153084727	 0.114814
38.5774	61.5048	83.5728	109.7587	122.4992	191.7674	192.092	249.7192	251.8126	389.106	425.5738	515.6672	604.2385	722.5728	744.0053	805.1497	883.137	937.6983	947.9231	1008.3256	1030.2766	1049.8758	1073.3428	1144.8596	1190.1481	1252.6577	1292.6046	1309.6648	1312.9413	1327.2026	1377.9112	1387.3515	1415.8535	1424.9774	1488.1886	1494.4634	1501.1721	1506.5444	1518.049	1804.8775	1843.1071	2944.5726	3016.4087	3031.6217	3035.3785	3043.4099	3047.4387	3069.7657	3096.5127	3102.5897	3107.5542
CCCCOC(=O)C=O	CCCCOC(=O)C=O	
InChI=1S/C6H10O3/c1-2-3-4-9-6(8)5-7/h5H,2-4H2,1H3	InChI=1S/C6H10O3/c1-2-3-4-9-6(8)5-7/h5H,2-4H2,1H3
