16
gdb 123751	5.16694	1.04692	1.01008	5.2289	70.36	-0.3136	-0.0438	0.2698	1187.6614	0.126234	-430.187787	-430.18055	-430.179605	-430.220652	26.284	
C	-0.0531402917	 1.5317440457	-0.0634598598	-0.215267
C	 1.5010341042	 1.5147294446	-0.0436100409	-0.242286
C	 1.4178356277	 0.1028936227	 0.588871317	 0.086286
C	-0.0375165807	-0.016720199	 0.0712934644	-0.242282
N	 2.3835346058	-0.8989131965	 0.1672128942	 0.138701
N	 2.6167287497	-1.2275329079	-1.0930380741	-0.128375
N	 3.5344451802	-2.1458212595	-1.0428221298	-0.08138
N	 3.8559714298	-2.3726010173	 0.2443187655	-0.086902
N	 3.1407747564	-1.5973430113	 1.0014977137	-0.117278
H	-0.4689894605	 2.016055556	 0.8234306741	 0.117214
H	-0.5338314414	 1.9482225393	-0.9489843212	 0.119278
H	 1.916063997	 1.4588846567	-1.0521206414	 0.141792
H	 2.0284973872	 2.2819681082	 0.5253987732	 0.119792
H	 1.4803920647	 0.1216491546	 1.6765689775	 0.129129
H	-0.7609885952	-0.494638907	 0.7337329017	 0.119793
H	-0.0580497431	-0.5061147494	-0.9046856639	 0.141785
45.155	117.8958	135.5371	249.1997	394.8451	397.2258	564.8866	735.0236	736.4856	765.5054	789.9118	865.771	925.1248	929.8682	954.1589	984.4729	1021.9937	1057.0964	1083.7787	1107.6818	1145.6553	1179.8594	1206.3645	1251.7205	1254.7537	1255.2763	1259.3118	1283.443	1288.2679	1347.4891	1389.8176	1439.2015	1473.8223	1488.0802	1509.4408	3076.0719	3078.1005	3081.6864	3120.6112	3131.2841	3138.4357	3149.968
C1CC(C1)N1N=NN=N1	C1CC(C1)n1nnnn1	
InChI=1S/C4H7N5/c1-2-4(3-1)9-7-5-6-8-9/h4H,1-3H2	InChI=1S/C4H7N5/c1-2-4(3-1)9-7-5-6-8-9/h4H,1-3H2
