13
gdb 132390	2.03517	1.97317	1.00204	3.691	63.96	-0.2474	0.0003	0.2477	1064.4272	0.091273	-490.31061	-490.302794	-490.301849	-490.342883	28.782	
N	-0.0188423604	 1.316468617	 0.073647106	-0.555668
C	 0.010592522	-0.032123534	 0.0223270767	 0.449053
N	-1.1832733143	-0.6626515716	 0.0234521691	-0.384164
C	-1.0604542153	-1.9724304764	-0.0032673522	 0.330279
F	-2.1945943821	-2.6457793196	-0.000341519	-0.055131
N	 0.0305648766	-2.7074000691	-0.0324616295	-0.384146
C	 1.1556911869	-1.9611379889	-0.0372315222	 0.448924
N	 2.3254350536	-2.6327735263	-0.0918002828	-0.55562
N	 1.2100546712	-0.6244404917	-0.0089966492	-0.3739
H	 0.8385077758	 1.8263509492	-0.0421640431	 0.268178
H	-0.9039575733	 1.7829049605	-0.015500684	 0.272039
H	 2.3113438827	-3.6328072313	 0.0015406591	 0.272009
H	 3.1837283767	-2.1238945877	 0.021583351	 0.268146
181.8841	184.5467	197.5406	203.6485	217.927	334.8005	360.1799	554.9166	566.0997	578.274	580.4817	590.1138	674.4499	760.2878	762.1573	842.7517	982.5905	999.2597	1063.9074	1160.5029	1169.3053	1315.3099	1458.3058	1481.6398	1525.2511	1589.079	1620.1314	1652.0451	1666.4114	3627.6027	3629.4098	3766.4521	3766.858
NC1=NC(F)=NC(N)=N1	Nc1nc(F)nc(N)n1	
InChI=1S/C3H4FN5/c4-1-7-2(5)9-3(6)8-1/h(H4,5,6,7,8,9)	InChI=1S/C3H4FN5/c4-1-7-2(5)9-3(6)8-1/h(H4,5,6,7,8,9)
