20
gdb 6809	2.89115	1.6884	1.41409	0.7184	80.97	-0.2514	0.0482	0.2996	1001.1946	0.175154	-311.837301	-311.828423	-311.827479	-311.870023	34.162	
C	-0.1059936442	 1.5267166655	-0.0470367014	-0.434614
C	-0.0244096582	 0.0002328525	-0.0298214923	 0.330732
C	-1.3907290191	-0.624260885	-0.2875333713	-0.453439
C	 1.1632462062	-0.5298352432	-0.8954636005	-0.258801
C	 2.0396173706	-0.6265058435	 0.3779753136	-0.235827
C	 0.7402733995	-0.5593069009	 1.239127516	-0.190218
C	 0.7441499679	 0.198126271	 2.4722741263	 0.321287
C	 0.7507698583	 0.8436155126	 3.4881003605	-0.464565
H	 0.869372228	 1.9898190041	 0.1304271174	 0.116698
H	-0.4709932264	 1.8734581156	-1.0203295799	 0.107952
H	-0.7887678545	 1.8937926787	 0.7256093786	 0.122574
H	-1.7887372347	-0.3103133653	-1.259622617	 0.113372
H	-1.3365703758	-1.7182891396	-0.286729819	 0.107632
H	-2.1129659838	-0.3222675504	 0.4798341445	 0.119618
H	 0.9483468221	-1.513850349	-1.3229721745	 0.096597
H	 1.5149098624	 0.1262209681	-1.6957149132	 0.096993
H	 2.6597329148	-1.5160941321	 0.5041420176	 0.10314
H	 2.6634828096	 0.2571409591	 0.5274610213	 0.114265
H	 0.3836701319	-1.5764497429	 1.4382977041	 0.095413
H	 0.7582860252	 1.4068015847	 4.3880372592	 0.191191
91.2698	138.4998	198.2416	221.6944	258.9359	290.6345	341.579	363.2888	382.0919	506.9511	543.1933	589.6836	615.3799	625.7883	720.5053	775.3127	872.2022	906.3411	950.7645	956.1009	968.1149	998.4638	1011.5811	1075.6068	1107.2936	1181.2388	1186.1198	1224.571	1243.9396	1264.3468	1280.5893	1303.5522	1354.1123	1403.2729	1421.6686	1478.6742	1482.402	1489.6206	1497.5465	1501.8864	1505.2738	2227.1157	3019.3426	3031.3279	3035.6518	3051.8434	3071.9931	3086.2322	3091.0573	3098.8118	3101.594	3108.0297	3127.8935	3504.6581
CC1(C)CCC1C#C	CC1(C)CC[C@H]1C#C	
InChI=1S/C8H12/c1-4-7-5-6-8(7,2)3/h1,7H,5-6H2,2-3H3	InChI=1S/C8H12/c1-4-7-5-6-8(7,2)3/h1,7H,5-6H2,2-3H3/t7-/m1/s1
