25
gdb 87962	3.4728	0.97668	0.88992	0.1034	93.32	-0.2523	0.0868	0.3391	1475.8985	0.229495	-352.37167	-352.361999	-352.361055	-352.406395	37.601	
C	 0.1292294707	 1.5397423446	-0.3085234296	-0.409097
C	 0.0972338359	 0.0447628973	-0.080832448	-0.045066
C	 1.3734001568	-0.7621450976	-0.0516820184	-0.345567
C	 0.5580758865	-0.5903079471	 1.2106787948	 0.379668
C	 1.1125684254	 0.2220598211	 2.3984121388	-0.299813
C	 0.5742730288	-0.4938588987	 3.6557366004	-0.205085
C	 0.36509832	-1.9540784925	 3.2136729862	 0.048046
C	-0.4974659261	-2.789039582	 4.1564184071	-0.406601
C	-0.208717978	-1.7808871437	 1.7953577169	-0.283612
H	 1.0244764535	 1.994937512	 0.126320167	 0.115319
H	 0.1317068448	 1.7715957038	-1.3794944685	 0.114051
H	-0.7425618989	 2.0349346117	 0.1352939572	 0.112425
H	-0.7535255406	-0.4501375742	-0.5465776941	 0.074594
H	 1.3900378245	-1.7363785563	-0.5312529929	 0.101382
H	 2.3106371479	-0.2160727077	-0.1234890943	 0.100284
H	 2.2083869563	 0.2070214907	 2.3925499357	 0.096537
H	 0.81274419	 1.2741097149	 2.370803833	 0.096031
H	 1.2402418374	-0.3971008303	 4.5187379366	 0.089163
H	-0.3949470512	-0.0683204914	 3.9481527072	 0.091633
H	 1.3539091831	-2.4270992122	 3.1251262497	 0.069485
H	-1.4946410504	-2.3463084718	 4.2673062371	 0.109843
H	-0.6272373423	-3.8107485327	 3.783314165	 0.109723
H	-0.0503289965	-2.8550172512	 5.154282754	 0.109569
H	-1.2806250137	-1.5457672314	 1.8692785355	 0.088275
H	-0.1208008438	-2.6842781751	 1.1829922033	 0.088814
31.6921	129.8254	182.1207	203.606	224.6859	235.3716	270.3256	370.144	398.21	423.9165	443.2609	510.1955	551.7909	730.8788	765.5749	827.761	859.4671	867.5516	907.2862	921.6949	935.303	953.3741	972.3977	994.8326	1016.568	1045.9924	1070.7427	1095.9875	1108.5641	1133.8384	1151.5395	1177.5669	1189.9553	1224.7432	1244.107	1262.1178	1287.4499	1298.2134	1322.4867	1347.8367	1351.0045	1389.6066	1405.1823	1411.4933	1424.9976	1484.187	1488.2763	1491.9399	1493.6109	1496.8943	1498.8506	1503.3843	1508.4248	2993.1179	3003.6787	3019.6112	3023.8814	3024.8003	3033.7125	3067.8866	3072.4747	3082.0264	3083.02	3089.9571	3092.8969	3094.8562	3107.7358	3117.9508	3192.3744
CC1CC11CCC(C)C1	C[C@H]1C[C@]21CC[C@@H](C)C2	
InChI=1S/C9H16/c1-7-3-4-9(5-7)6-8(9)2/h7-8H,3-6H2,1-2H3	InChI=1S/C9H16/c1-7-3-4-9(5-7)6-8(9)2/h7-8H,3-6H2,1-2H3/t7-,8+,9+/m1/s1
