13
gdb 8762	3.7964	1.53997	1.10313	1.4922	57.7	-0.267	-0.1046	0.1625	980.0466	0.093419	-435.783019	-435.774763	-435.773819	-435.816694	27.487	
C	-0.3869651021	 1.3944857115	-0.1529744749	-0.341033
N	 0.0001269213	-0.0211627607	-0.0701085404	-0.166416
C	 0.0205494833	-0.6218720719	 1.2025092684	 0.173758
O	-0.2615754157	-0.0355964937	 2.2156340475	-0.299484
C	 0.3474526836	-0.808015314	-1.1577686057	 0.341061
O	 0.6664110933	-1.9779029467	-1.0777851087	-0.326534
C	 0.343512721	-0.2069072639	-2.5744724753	 0.093319
O	 0.0644386821	 0.9168666076	-2.8893000593	-0.23095
H	 0.4194044309	 1.9949765241	-0.5740158413	 0.152982
H	-1.275323566	 1.5199681597	-0.771941928	 0.153038
H	-0.594839992	 1.710915048	 0.8682228937	 0.171315
H	 0.321669023	-1.6749505463	 1.1514785265	 0.148029
H	 0.6477008773	-0.9901985236	-3.2973105525	 0.130917
40.0634	101.2705	172.6252	184.6789	217.3065	300.4528	318.2795	370.8356	485.0073	582.8363	590.42	692.0237	825.9793	983.5855	1032.5568	1055.5811	1149.9354	1155.5198	1270.8935	1353.8347	1381.4295	1421.4758	1461.2691	1496.6694	1504.3824	1761.0814	1817.7578	1836.3891	2951.943	3077.856	3082.3548	3155.0781	3175.013
CN(C=O)C(=O)C=O	CN(C=O)C(=O)C=O	
InChI=1S/C4H5NO3/c1-5(3-7)4(8)2-6/h2-3H,1H3	InChI=1S/C4H5NO3/c1-5(3-7)4(8)2-6/h2-3H,1H3
