21
gdb 90782	3.7214	1.3001	1.19746	1.2451	81.07	-0.2421	0.0827	0.3248	1121.8435	0.183801	-387.075604	-387.067594	-387.06665	-387.107548	32.801	
C	-0.0497009432	 1.5516194282	 0.0107407626	-0.403501
C	-0.0004183683	 0.020835666	 0.0074319627	 0.041748
C	 0.8073119022	-0.5377325095	-1.2046582329	-0.254702
C	 2.1616357427	-0.9192490326	-0.6104142358	-0.106877
C	 2.2781640852	-0.4688980671	 0.8310852825	-0.139399
C	 0.7737650997	-0.5281606079	 1.2205349881	-0.029582
C	 0.8607857489	-2.0932291179	 1.190360215	-0.324333
C	 2.2219509968	-1.9435233303	 0.5142908142	 0.398042
O	 3.2633803132	-2.849903302	 0.6205655818	-0.469394
H	 0.9618749879	 1.974462706	 0.0108439044	 0.119056
H	-0.5691012091	 1.9338283035	-0.8744014419	 0.109759
H	-0.5702515868	 1.9322679258	 0.8962868735	 0.108451
H	-1.025165581	-0.3690460725	 0.0044811544	 0.064618
H	 0.3056252048	-1.3957458877	-1.6659109745	 0.091746
H	 0.9202160867	 0.2194699006	-1.9877933747	 0.094506
H	 3.0578087143	-0.8853231935	-1.2207671855	 0.080963
H	 3.0694999488	 0.1391539281	 1.247161382	 0.087943
H	 0.4763716175	-0.0953306572	 2.1762010873	 0.064536
H	 0.9768991907	-2.5083754365	 2.1948247414	 0.104668
H	 0.0651614593	-2.635483205	 0.6640633418	 0.080034
H	 3.1800611997	-3.4919817985	-0.0930461463	 0.281718
118.4629	204.0593	249.4526	279.0466	289.8544	327.2491	392.5298	423.6596	461.9949	603.5238	682.8896	708.9964	728.8539	792.1204	847.1169	864.9412	912.2951	915.7071	922.4074	962.4563	982.7325	1006.0868	1016.4632	1032.4037	1039.2799	1097.0258	1124.0505	1141.7924	1177.779	1192.2413	1221.9773	1229.7228	1247.8871	1261.9453	1295.8474	1301.5206	1325.7037	1333.0333	1365.2256	1408.2537	1444.3117	1491.0057	1498.0415	1501.0925	1507.1869	3021.5514	3023.8416	3027.383	3040.656	3070.5295	3091.6088	3094.8284	3095.841	3107.6885	3173.264	3209.3016	3792.6921
CC1CC2C3C1CC23O	C[C@H]1C[C@H]2[C@H]3[C@@H]1C[C@@]23O	
InChI=1S/C8H12O/c1-4-2-6-7-5(4)3-8(6,7)9/h4-7,9H,2-3H2,1H3	InChI=1S/C8H12O/c1-4-2-6-7-5(4)3-8(6,7)9/h4-7,9H,2-3H2,1H3/t4-,5+,6-,7+,8+/m0/s1
