19
gdb 57282	2.22713	1.42789	1.24907	2.1217	76.21	-0.2439	0.0315	0.2754	1130.3744	0.156164	-422.968865	-422.959094	-422.95815	-423.003322	36.098	
C	-0.0323444047	 1.5256826823	-0.039739474	-0.406281
C	-0.0191064776	-0.0055116909	-0.0021489212	 0.13932
O	 0.6361469827	-0.3822263676	 1.2137016603	-0.44941
C	-1.3876779266	-0.5397542852	-0.0372669893	 0.332099
C	-2.4936535571	-1.0121178285	-0.0370707398	-0.502825
C	 0.8184533224	-0.5443002786	-1.1826853449	 0.149787
C	 0.7637433971	-2.0544761092	-1.4992099375	-0.322865
C	 0.1935333905	-1.5981186713	-2.8576003753	-0.056985
O	 0.2579010035	-0.2078636163	-2.4668029852	-0.292779
H	 0.9897219369	 1.8951701246	 0.0839114074	 0.123524
H	-0.4267340996	 1.8700212676	-0.9977101438	 0.147207
H	-0.6489877504	 1.91858423	 0.7710612035	 0.129285
H	 0.4533012247	-1.3151519908	 1.3697300977	 0.285828
H	-3.478567588	-1.4103052474	-0.0382659531	 0.201852
H	 1.8309079451	-0.1374361374	-1.0621554925	 0.082954
H	 1.7297459982	-2.5587946105	-1.5354014839	 0.112758
H	 0.0710097257	-2.6304050642	-0.8828415995	 0.111694
H	 0.8258973807	-1.8025448193	-3.7295574231	 0.103291
H	-0.8339572937	-1.9094151874	-3.0743838559	 0.111546
77.8163	92.7874	152.201	179.6758	192.4156	240.3573	280.0964	322.4625	324.8696	421.0876	434.9768	580.3552	621.8515	636.4695	661.5767	671.702	793.4018	827.2589	894.6415	940.5196	952.8414	998.4535	1034.8217	1041.2699	1058.7362	1119.0579	1161.7345	1167.0392	1215.8796	1237.8221	1259.7046	1277.9591	1331.6531	1358.593	1388.644	1401.6653	1483.6197	1486.9045	1490.8129	1526.6567	2227.1832	3019.4442	3027.1352	3052.8555	3071.1621	3081.4645	3130.7987	3138.9759	3148.7534	3498.2492	3811.857
CC(O)(C#C)C1CCO1	C[C@@](O)(C#C)[C@H]1CCO1	
InChI=1S/C7H10O2/c1-3-7(2,8)6-4-5-9-6/h1,6,8H,4-5H2,2H3	InChI=1S/C7H10O2/c1-3-7(2,8)6-4-5-9-6/h1,6,8H,4-5H2,2H3/t6-,7-/m1/s1
