20
gdb 114353	2.80258	1.23061	1.14134	3.57	74.69	-0.2254	0.0608	0.2863	1185.0862	0.171289	-440.232693	-440.224002	-440.223058	-440.266208	33.174	
C	 0.597877676	 1.573129501	-0.0022403351	-0.388107
C	 0.2235280859	 0.1066449062	 0.0952598241	 0.034893
N	 0.9347592946	-0.8082429204	-0.8558651326	-0.332312
C	 1.2486904313	-1.7669271759	 0.2327732873	-0.099084
C	 2.6459491959	-1.538252861	 0.8456143613	 0.138781
C	 3.8115533421	-1.0788375342	-0.0061526397	-0.083661
O	 4.8357384756	-0.5372002855	 0.8133456058	-0.426183
O	 2.1226146012	-0.4398816223	 1.6628506021	-0.331919
C	 0.7646194154	-0.7361826329	 1.2771535285	 0.099959
H	 1.6683182222	 1.7022717291	 0.1723117508	 0.130205
H	 0.3566388008	 1.9668321234	-0.994661045	 0.11628
H	 0.0493735079	 2.1632326051	 0.7401480983	 0.113144
H	-0.8685623378	-0.0154010534	 0.0441138679	 0.067704
H	 0.3426822583	-1.1907893086	-1.5827576002	 0.221037
H	 0.8835193277	-2.7884965674	 0.1222437442	 0.076484
H	 2.9571524875	-2.3583104828	 1.5071827787	 0.079975
H	 4.2463912497	-1.9343263508	-0.535729818	 0.101358
H	 3.4542814202	-0.3594593283	-0.7530242544	 0.1087
H	 4.4150845708	 0.1467103969	 1.3478259471	 0.291969
H	 0.1176654446	-0.9176919181	 2.1379472688	 0.080776
69.3399	118.5902	170.7541	212.4159	216.893	298.9626	380.0749	420.2597	467.48	526.6177	543.3244	640.3343	711.8342	798.2369	822.5896	851.8366	891.6687	922.9054	968.0573	994.2474	1034.6559	1053.9931	1069.2	1083.7312	1104.2293	1127.965	1142.5782	1176.8721	1208.1318	1219.505	1244.933	1293.0127	1309.2201	1334.7861	1351.9757	1378.3922	1380.2331	1399.1683	1412.5702	1434.6347	1485.8355	1493.9883	1507.1003	2989.2617	3013.0292	3029.4384	3038.2186	3077.6088	3083.582	3103.1829	3104.2836	3130.7337	3550.6486	3794.1979
CC1NC2C(CO)OC12	C[C@H]1N[C@H]2[C@@H](CO)O[C@@H]12	
InChI=1S/C6H11NO2/c1-3-6-5(7-3)4(2-8)9-6/h3-8H,2H2,1H3	InChI=1S/C6H11NO2/c1-3-6-5(7-3)4(2-8)9-6/h3-8H,2H2,1H3/t3-,4-,5+,6+/m1/s1
