21
gdb 85911	2.57279	1.47993	1.30789	1.9902	78.02	-0.2495	0.089	0.3385	1115.3852	0.180593	-424.22901	-424.219874	-424.21893	-424.262226	35.329	
C	 0.2809483593	 1.5810776627	-0.0811802499	-0.401911
C	 0.0502253225	 0.0833270398	 0.0602245237	 0.102345
O	 0.581762117	-0.5709129233	-1.0936281126	-0.315854
C	 1.1245248426	-1.8649250388	-0.7668390595	 0.350362
C	 0.0786345778	-2.958051635	-1.0224353581	-0.425727
C	 2.3755708755	-2.0532613533	-1.6215651469	-0.42119
C	 1.4242851445	-1.7666472763	 0.7242142102	 0.001261
O	 2.1810836872	-0.602954602	 1.073697184	-0.261078
C	 0.7561387558	-0.5720307378	 1.2326179579	 0.011246
H	 1.353514284	 1.790013772	-0.0875802908	 0.137626
H	-0.1534142346	 1.9426596257	-1.0168104559	 0.126213
H	-0.1844271066	 2.1237689113	 0.7479502402	 0.110181
H	-1.0300207938	-0.1232245886	 0.1561372578	 0.06792
H	-0.2247381846	-2.940130526	-2.0727387413	 0.127722
H	 0.4801533617	-3.9516801671	-0.7967844709	 0.113467
H	-0.8133674671	-2.8036549475	-0.4069968814	 0.115126
H	 3.1095131457	-1.2833351868	-1.3747464873	 0.136891
H	 2.8206920471	-3.0384928572	-1.4498069576	 0.108577
H	 2.122057431	-1.9698095813	-2.6821275666	 0.122071
H	 1.612460874	-2.6599705074	 1.3144133046	 0.095959
H	 0.3851278009	-0.4623760831	 2.2482463803	 0.098791
98.2103	169.0635	197.4209	224.5977	236.7553	248.6321	293.1963	319.8507	383.3393	423.184	521.8453	528.1602	611.8777	705.6718	819.9137	845.7301	857.4476	865.7728	918.5015	930.6529	947.3111	990.3141	1003.9776	1024.5336	1061.6859	1095.5725	1128.4595	1152.651	1191.6379	1214.2313	1251.2724	1267.5472	1329.2133	1342.5792	1376.6556	1392.7366	1404.8545	1409.933	1443.0498	1476.7764	1482.6889	1485.8435	1495.9602	1499.5055	1505.5962	2950.1734	3034.5235	3043.909	3044.6256	3103.1211	3112.9021	3116.6036	3118.9322	3133.7671	3135.8325	3144.3398	3157.9208
CC1OC(C)(C)C2OC12	C[C@H]1OC(C)(C)[C@H]2O[C@@H]12	
InChI=1S/C7H12O2/c1-4-5-6(8-5)7(2,3)9-4/h4-6H,1-3H3	InChI=1S/C7H12O2/c1-4-5-6(8-5)7(2,3)9-4/h4-6H,1-3H3/t4-,5+,6+/m1/s1
