13
gdb 124099	3.70448	1.64982	1.17834	4.011	60.26	-0.2482	-0.0347	0.2134	941.9511	0.090563	-489.849817	-489.843213	-489.842269	-489.880934	24.709	
C	 0.0379571415	 1.4189061608	-0.0080309309	 0.005671
O	 1.3301523735	 1.9066423499	-0.0240559694	-0.225909
C	 2.0617719945	 1.6485159992	 1.1892196481	-0.196591
C	 1.8335670897	 0.2088338938	 1.511939064	 0.089999
C	 0.8568207474	-0.5130971343	 0.8721415568	 0.476768
O	 0.8713826507	-1.7661765476	 1.2231751157	-0.252032
N	 2.0333630457	-1.8284013446	 2.2376506576	-0.040648
N	 2.4895000621	-0.6734489602	 2.3122272713	-0.155478
O	-0.020559764	-0.0425634049	-0.0006425827	-0.248764
H	-0.5249624529	 1.7574987025	 0.8737771271	 0.120191
H	-0.4495885632	 1.7168705695	-0.9346801758	 0.150337
H	 3.1068045281	 1.8715017395	 0.9611537449	 0.151599
H	 1.7282377168	 2.3329465364	 1.9828708931	 0.124858
123.4389	227.584	271.5433	317.9879	365.0686	448.036	492.1193	594.9919	656.3745	728.6802	749.0769	798.9913	927.4837	946.3376	970.235	1037.3136	1110.2924	1150.4083	1227.1032	1269.0631	1311.4862	1316.5925	1380.2236	1422.4246	1479.8198	1496.7553	1510.0838	1525.1656	1632.1515	2997.8242	3007.3183	3101.2054	3159.2953
C1OCC2=C(ON=N2)O1	C1OCc2c(onn2)O1	
InChI=1S/C4H4N2O3/c1-3-4(8-2-7-1)9-6-5-3/h1-2H2	InChI=1S/C4H4N2O3/c1-3-4(8-2-7-1)9-6-5-3/h1-2H2
