16
gdb 29874	3.25479	1.36657	0.96831	6.2144	76.27	-0.2097	-0.0048	0.2049	1154.8551	0.125507	-437.944632	-437.936512	-437.935568	-437.977438	30.445	
C	-0.0284004529	 1.4863805261	 0.060797004	-0.337227
N	-0.00611828	 0.0271578483	 0.0278282938	-0.138026
C	-0.0347444283	-0.6653524534	-1.1648770465	 0.030618
C	-0.0150272816	-2.0121928932	-1.2284993641	-0.281469
C	 0.0388601929	-2.8424970166	-0.0192306639	 0.392543
O	 0.0580356236	-4.0698464858	-0.0424170814	-0.410382
C	 0.0670103451	-2.0544186711	 1.2070131408	-0.439105
C	 0.0445124061	-0.6959525832	 1.1923208551	 0.512076
O	 0.0682271053	 0.1003586795	 2.2885860857	-0.424864
H	 0.8686226161	 1.8808653081	 0.5450046938	 0.152765
H	-0.068842486	 1.8505552267	-0.9657702911	 0.140583
H	-0.9029696025	 1.852445372	 0.6047064729	 0.152785
H	-0.0744030485	-0.0364230025	-2.0460355628	 0.129664
H	-0.0390800028	-2.5104647597	-2.1895752507	 0.110676
H	 0.1071386005	-2.5831961921	 2.1533248083	 0.093557
H	 0.1040256932	-0.4620533129	 3.069788796	 0.315806
85.5726	113.3502	201.563	233.0303	339.6489	367.6337	394.25	432.9157	461.644	521.7448	592.1992	673.3431	708.1761	765.8635	775.1719	811.5058	852.0824	939.6047	948.6713	1050.2284	1152.0952	1159.6857	1192.5837	1235.3366	1241.5697	1272.3118	1353.7266	1430.7463	1472.3128	1478.5537	1504.356	1540.8856	1598.1461	1696.5003	1732.4331	3053.3223	3116.5009	3153.8838	3186.1102	3200.131	3221.0304	3830.9984
CN1C=CC(=O)C=C1O	Cn1ccc(=O)cc1O	
InChI=1S/C6H7NO2/c1-7-3-2-5(8)4-6(7)9/h2-4,9H,1H3	InChI=1S/C6H7NO2/c1-7-3-2-5(8)4-6(7)9/h2-4,9H,1H3
