18
gdb 110922	2.26405	1.49485	1.10964	2.261	71.95	-0.2392	-0.0316	0.2076	1130.6781	0.146562	-439.025032	-439.016309	-439.015365	-439.058781	31.905	
O	 0.1164230896	 0.711266697	-1.4250601924	-0.416282
C	-0.0138739961	 0.2270444213	-0.0941330335	-0.106459
C	-1.3595939214	-0.4527703487	 0.0848997689	-0.003342
C	-1.6566306618	-1.872044257	-0.1761109559	-0.025244
C	-0.5229344325	-2.8008256948	 0.2613706855	-0.301488
C	-0.7300486408	-2.187979501	 1.6821229022	-0.039864
C	 0.4339511906	-1.6280142293	 2.4539498347	 0.155768
O	 0.5822161808	-0.4750128746	 2.7683716003	-0.241625
N	-1.8267164862	-1.2743513211	 1.225968562	-0.1679
H	-0.4900040007	 1.4508114255	-1.5319878386	 0.284949
H	 0.8206503591	-0.4616089956	 0.0477978814	 0.108517
H	 0.1013915156	 1.0245759169	 0.6502134404	 0.122065
H	-2.1751054878	 0.214605616	-0.1966791207	 0.091588
H	-2.5148729544	-2.1951887588	-0.7559522286	 0.101418
H	-0.7767730283	-3.8599373652	 0.216282355	 0.121688
H	 0.443525786	-2.6494319438	-0.2272922803	 0.122508
H	-1.1825023098	-2.9423049513	 2.33982893	 0.114646
H	 1.1782657979	-2.4070362556	 2.7462550395	 0.079056
80.7027	107.3022	141.9986	173.7838	242.6676	277.3222	295.0205	357.2918	461.4603	519.9766	680.1172	726.8071	744.0971	786.0426	839.449	893.7719	953.531	960.9929	993.1577	1036.9632	1056.0923	1074.299	1078.7809	1109.7957	1117.6937	1149.8227	1214.8612	1246.5683	1251.9012	1271.6527	1339.259	1352.5672	1381.7675	1411.3023	1419.4968	1456.2354	1484.9183	1509.5799	1827.2241	2848.3724	3021.6689	3035.4292	3066.5857	3097.9544	3118.7912	3131.5176	3167.5318	3819.3484
OCC1C2CC(C=O)N12	OC[C@H]1[C@H]2C[C@@H](C=O)N12	
InChI=1S/C6H9NO2/c8-2-4-1-5-6(3-9)7(4)5/h2,4-6,9H,1,3H2	InChI=1S/C6H9NO2/c8-2-4-1-5-6(3-9)7(4)5/h2,4-6,9H,1,3H2/t4-,5+,6-,7?/m0/s1
