21
gdb 110967	2.58474	1.22925	1.12547	2.8758	79.44	-0.2304	0.0665	0.2969	1227.8624	0.180366	-424.159549	-424.149932	-424.148988	-424.19381	36.137	
C	-0.2138547324	 1.6213042793	 0.6663985193	-0.43299
C	-0.1302603394	 0.1621814329	 0.2567771182	-0.014189
C	 1.0862186884	-0.3179947521	-0.5796281568	-0.005097
O	 1.9536801857	-0.1090949715	 0.5996969836	-0.347814
C	 0.73903706	-0.8137320077	 1.1150421511	 0.403109
C	 0.6650991271	-1.1419218727	 2.572112855	-0.516749
C	 0.8752831911	-1.778296838	-0.1023774937	 0.012729
C	-0.2558614627	-2.6751093889	-0.5660375863	-0.143016
O	-0.4536650707	-3.6466469361	 0.4573233498	-0.416949
H	 0.7690961264	 1.9937724112	 0.9607256871	 0.137642
H	-0.5892804772	 2.2371136832	-0.158299394	 0.110792
H	-0.9036352599	 1.7509933926	 1.5079387544	 0.11233
H	-1.1044834552	-0.2261937216	-0.0521899555	 0.063473
H	 1.4570200783	 0.0478835464	-1.5384995663	 0.084872
H	 0.6037154121	-0.2330208768	 3.1787247207	 0.124824
H	-0.2160977137	-1.7610015925	 2.7626402742	 0.138175
H	 1.5512708474	-1.7061993479	 2.8776279829	 0.134583
H	 1.8175256911	-2.3301810341	-0.0603641012	 0.086457
H	-1.1799804195	-2.111212912	-0.7549875396	 0.089744
H	 0.0313418207	-3.152225045	-1.5166339459	 0.089592
H	-1.1158880474	-4.2741341288	 0.1527839028	 0.288483
63.5505	134.0995	174.5029	193.2851	210.638	238.617	269.497	314.7709	337.4306	366.2157	460.6684	587.3382	633.252	651.132	718.5757	785.4864	799.1781	864.3562	888.2466	959.6056	1018.5712	1025.3577	1056.2326	1073.0588	1075.6553	1115.2641	1125.2485	1149.3321	1183.83	1206.578	1230.8287	1242.6316	1255.7941	1263.0118	1311.7917	1383.8823	1398.9486	1404.1052	1430.5004	1462.86	1475.0526	1487.0623	1494.5509	1506.5651	1526.2611	2975.2708	3012.5873	3033.332	3040.8713	3073.7116	3087.7923	3089.9502	3105.3487	3113.5349	3123.0764	3136.4569	3826.3375
CC1C2OC1(C)C2CO	C[C@H]1[C@H]2O[C@]1(C)[C@H]2CO	
InChI=1S/C7H12O2/c1-4-6-5(3-8)7(4,2)9-6/h4-6,8H,3H2,1-2H3	InChI=1S/C7H12O2/c1-4-6-5(3-8)7(4,2)9-6/h4-6,8H,3H2,1-2H3/t4-,5-,6+,7-/m0/s1
