14
gdb 5695	4.84092	2.13019	1.5146	2.5241	63.24	-0.1918	0.0164	0.2082	783.6682	0.111105	-378.734622	-378.728675	-378.727731	-378.76473	22.765	
C	 0.0146733582	 1.4134098924	 0.0398947281	-0.168169
C	 1.511421379	 1.9005484376	-0.0430304474	-0.34382
C	 2.2176244438	 0.5824508638	 0.065994818	 0.206181
C	 1.3225620523	-0.4141720927	-0.0543993679	 0.365062
N	 0.0004904109	-0.0617129559	-0.2770891601	-0.410461
O	 1.9497065175	-1.605641767	-0.094422079	-0.203589
C	 3.284283825	-1.2350688486	 0.0158301739	 0.021211
N	 3.4931978288	 0.0396633396	 0.0970507283	-0.32872
H	-0.3682866911	 1.5766071904	 1.0538388133	 0.114246
H	-0.6340297148	 1.942844959	-0.6605597406	 0.121468
H	 1.7095170219	 2.3983667192	-1.0004107885	 0.120919
H	 1.7346623637	 2.6214170575	 0.7492893085	 0.118514
H	-0.6870162861	-0.5728083747	 0.2651957402	 0.242467
H	 3.992709861	-2.0460848307	 0.0460519433	 0.144693
129.5795	212.0577	289.9604	442.0333	581.1578	644.3187	678.1017	708.6494	730.2921	745.7133	834.8271	850.1255	929.7625	939.6584	997.0481	1039.4403	1074.7294	1118.2381	1188.8044	1237.3747	1272.4569	1288.6047	1313.5609	1363.135	1383.3792	1486.2064	1499.8239	1519.6751	1523.8206	1686.3319	3025.1171	3034.3248	3072.1338	3107.7749	3290.1631	3531.071
C1CC2=C(N1)OC=N2	C1Cc2c(N1)ocn2	
InChI=1S/C5H6N2O/c1-2-6-5-4(1)7-3-8-5/h3,6H,1-2H2	InChI=1S/C5H6N2O/c1-2-6-5-4(1)7-3-8-5/h3,6H,1-2H2
