15
gdb 25906	2.74872	1.51813	0.98766	1.8887	69.56	-0.1973	-0.02	0.1773	1116.4003	0.114325	-454.004055	-453.996001	-453.995057	-454.036636	30.905	
N	-0.0232472422	 1.3119557674	-0.0603699882	-0.538514
C	 0.024369184	-0.0542219166	 0.070120615	 0.324055
O	 1.0837446869	-0.642771476	 0.2492271352	-0.38105
C	-1.2659693287	-0.7617889579	 0.0273219168	 0.10589
C	-2.5367416186	-0.2661552814	 0.1346728249	-0.100057
O	-3.4417939862	-1.2521504348	 0.1030922922	-0.145583
C	-2.7516987962	-2.437655268	-0.0301421871	-0.087623
C	-1.4090274196	-2.1993049195	-0.0758741928	 0.137172
N	-0.3533675251	-3.077387299	-0.2603367585	-0.614385
H	 0.8706716373	 1.7683481446	-0.1590267008	 0.260598
H	-0.8026738097	 1.7408383891	-0.5309718289	 0.256766
H	-2.9263427975	 0.7294299568	 0.2767490178	 0.139866
H	-3.3541521105	-3.3278282891	-0.0749805019	 0.129022
H	-0.5113039015	-4.0126367781	 0.0841588179	 0.242173
H	 0.5223949878	-2.6761932875	 0.0546928383	 0.27167
72.2473	179.1477	200.7662	303.0648	333.4013	374.1679	394.4552	435.4986	509.9675	535.7446	606.4051	632.8669	658.2877	684.0864	711.2046	734.972	761.8102	813.1645	892.939	1070.3509	1088.7055	1115.5325	1159.0488	1219.4057	1269.941	1324.2758	1394.9953	1444.4532	1564.8012	1615.4034	1629.5526	1663.4158	1758.7575	3262.4421	3291.0119	3526.9241	3587.3933	3648.1474	3714.149
NC(=O)C1=COC=C1N	NC(=O)c1cocc1N	
InChI=1S/C5H6N2O2/c6-4-2-9-1-3(4)5(7)8/h1-2H,6H2,(H2,7,8)	InChI=1S/C5H6N2O2/c6-4-2-9-1-3(4)5(7)8/h1-2H,6H2,(H2,7,8)
