19
gdb 126404	5.07171	1.00675	0.91115	2.6123	84.89	-0.2263	0.0356	0.262	1342.1807	0.16119	-382.066031	-382.057665	-382.056721	-382.100271	30.645	
C	 0.2531871008	 1.3794827337	-0.3661058978	-0.36697
C	-0.055422058	 0.0181603354	 0.2805968755	-0.276182
C	-1.4773723416	-0.4195089263	 0.0820900245	 0.358903
N	-2.3798243621	-0.2355665117	 1.0671340416	-0.367233
N	-3.5037104997	-0.6861675991	 0.4952883725	 0.090456
C	-4.9157455552	-1.0450614887	 0.6777160747	-0.168493
C	-4.8350519031	-1.586259862	-0.8091427072	-0.374241
C	-3.3726582056	-1.1572425828	-0.7519230807	 0.397683
C	-2.0428514373	-1.007082622	-1.0926984069	-0.484673
H	 1.2975788221	 1.6634252369	-0.2006805016	 0.107633
H	 0.0764464464	 1.3528559443	-1.4461893179	 0.114249
H	-0.3849989226	 2.1607871745	 0.0574678911	 0.125241
H	 0.6195744821	-0.7412602867	-0.1318913155	 0.099675
H	 0.1394113186	 0.0703097859	 1.3561465376	 0.115522
H	-5.085670184	-1.8075330098	 1.4425401908	 0.13437
H	-5.5781618664	-0.1916317359	 0.8448184654	 0.131993
H	-5.0126035454	-2.6596497641	-0.9062486927	 0.131364
H	-5.4656800831	-1.0504411008	-1.5222155354	 0.130303
H	-1.529652246	-1.2608220608	-2.005395268	 0.100401
29.6344	74.5269	143.9361	208.1827	246.8003	309.3647	378.8692	494.7832	579.3273	654.1564	729.1345	781.0946	786.4151	796.2031	815.7447	831.3645	902.8815	973.8674	1005.5285	1058.4101	1064.2466	1084.9845	1090.4233	1133.4412	1164.0064	1171.2624	1218.1207	1267.6129	1277.3824	1332.6182	1344.2137	1385.3191	1402.4578	1454.3601	1477.5568	1479.6215	1492.2211	1495.979	1508.7994	1531.2723	1570.6621	3034.0993	3034.4864	3059.3576	3072.6493	3081.8666	3104.8188	3110.456	3114.335	3125.789	3269.5003
CCC1=NN2CCC2=C1	CCc1nn2CCc2c1	
InChI=1S/C7H10N2/c1-2-6-5-7-3-4-9(7)8-6/h5H,2-4H2,1H3	InChI=1S/C7H10N2/c1-2-6-5-7-3-4-9(7)8-6/h5H,2-4H2,1H3
