17
gdb 92668	3.21089	1.24243	0.93975	3.3376	85.23	-0.2403	-0.0549	0.1854	1236.716	0.134695	-384.704483	-384.695758	-384.694814	-384.738185	32.444	
C	-0.1611614959	 1.5521153274	 0.0218304628	-0.3989
C	 0.0684132071	 0.0394187061	-0.0175086191	-0.087163
C	 0.8428397809	-0.494791099	-1.2406558461	-0.283645
C	 1.9278682158	-1.3577251676	-0.659284267	-0.164148
C	 1.9641535227	-1.3451555202	 0.6873704902	 0.062488
C	 2.8659653113	-2.0232741424	 1.5390428102	 0.246296
C	 3.6145551926	-2.5879237849	 2.2939704128	-0.409761
C	 0.8763078184	-0.4466358497	 1.1994924283	 0.299308
O	 0.6661751692	-0.1468590233	 2.3478382715	-0.321545
H	 0.7844058949	 2.0950426831	-0.0833427589	 0.120836
H	-0.827652786	 1.8725816594	-0.7843556296	 0.115583
H	-0.6060965311	 1.8350165298	 0.9791903845	 0.143747
H	-0.9040171377	-0.4648904337	 0.0496439339	 0.112344
H	 0.2114699141	-1.0626538922	-1.9345415106	 0.122972
H	 1.2806142344	 0.3203335619	-1.8330743823	 0.125826
H	 2.6159191923	-1.9193197827	-1.28149871	 0.118959
H	 4.2751819369	-3.084978272	 2.9603660293	 0.196802
47.5662	130.7855	157.1706	224.0771	239.5606	287.6617	375.2868	402.255	486.1268	520.6029	586.6119	615.2678	635.3076	662.2082	732.2649	788.9251	844.4261	890.457	942.501	956.9163	1010.3426	1055.1545	1106.7478	1127.8811	1189.0874	1224.4764	1274.5277	1301.5549	1313.5515	1338.8541	1405.5175	1472.1393	1495.8428	1500.2003	1657.4731	1821.5628	2232.1478	3018.4053	3028.2737	3037.6455	3053.7137	3104.9958	3125.5024	3199.9696	3502.8987
CC1CC=C(C#C)C1=O	C[C@H]1CC=C(C#C)C1=O	
InChI=1S/C8H8O/c1-3-7-5-4-6(2)8(7)9/h1,5-6H,4H2,2H3	InChI=1S/C8H8O/c1-3-7-5-4-6(2)8(7)9/h1,5-6H,4H2,2H3/t6-/m0/s1
