23
gdb 59178	2.51846	1.33189	1.04198	1.3051	86.17	-0.2577	0.0785	0.3362	1269.3435	0.205035	-388.249663	-388.240229	-388.239285	-388.283646	36.932	
C	-0.0947633992	 1.4747929104	 0.0469882673	-0.386338
C	-0.1714793091	-0.0590902515	 0.0214918416	-0.026669
C	-1.6301750819	-0.5411438228	-0.0377609312	-0.389656
C	 0.610842582	-0.6147534052	-1.1669966403	 0.051624
C	 2.1769873899	-0.6137363171	-1.234698545	-0.080823
C	 2.1943496873	-1.7957023209	-0.2231461824	-0.298728
C	 1.0567661172	-2.1023301706	-1.2499752042	 0.377725
O	 0.159613664	-3.157152693	-1.2527529065	-0.473855
C	 2.0544327331	-1.670144229	-2.3701599859	-0.287036
H	 0.9388618806	 1.8253518418	 0.1341274972	 0.109443
H	-0.5155855634	 1.9033263776	-0.8706680653	 0.109954
H	-0.6604949163	 1.8825499073	 0.8914652095	 0.107798
H	 0.2619406284	-0.4295872973	 0.9578005759	 0.070696
H	-2.1250666304	-0.1748417603	-0.9455052075	 0.107409
H	-1.6831791854	-1.6331212447	-0.0473783462	 0.135156
H	-2.2008085353	-0.17250534	 0.8214048991	 0.102122
H	 0.1468396417	-0.2604674161	-2.0975231573	 0.057275
H	 2.8337104011	 0.2529637624	-1.2309907625	 0.078759
H	 3.0722849808	-2.4476165653	-0.2658637336	 0.082038
H	 1.9095065189	-1.5914214368	 0.8091090461	 0.098154
H	 0.6554175923	-3.9825109273	-1.2843869445	 0.28192
H	 1.6164806935	-1.3335078825	-3.3133926597	 0.091482
H	 2.9256636503	-2.3124657093	-2.5289153147	 0.08155
52.5789	137.0559	211.5865	226.0812	247.5645	256.1737	279.6271	318.611	377.9811	445.0027	477.4805	542.7171	587.4488	656.3508	769.2561	813.912	846.8198	893.4011	913.1417	931.8552	944.6775	957.0611	968.8585	1016.7806	1020.1457	1042.47	1100.7916	1110.5457	1125.5386	1130.8619	1147.7425	1175.8894	1202.1844	1212.9208	1221.9404	1227.5215	1294.2096	1328.7557	1341.9093	1360.5346	1398.7249	1418.5725	1439.5833	1489.1301	1491.186	1498.1643	1504.0538	1511.7171	1543.5079	3011.0209	3022.2968	3026.3158	3034.3007	3045.8818	3057.165	3085.26	3092.8423	3097.7956	3115.478	3118.2794	3132.0309	3143.8073	3807.0154
CC(C)C1C2CC1(O)C2	CC(C)[C@H]1[C@H]2C[C@]1(O)C2	
InChI=1S/C8H14O/c1-5(2)7-6-3-8(7,9)4-6/h5-7,9H,3-4H2,1-2H3	InChI=1S/C8H14O/c1-5(2)7-6-3-8(7,9)4-6/h5-7,9H,3-4H2,1-2H3/t6-,7-,8-/m0/s1
