20
gdb 62954	2.08918	1.83488	1.42415	1.9763	78.13	-0.2412	0.065	0.3062	1036.7132	0.16954	-403.081982	-403.073339	-403.072395	-403.114543	34.03	
C	-0.0254217814	 1.5632778694	-0.0806888127	-0.448248
C	-0.0033527641	 0.0411699985	 0.0037337985	 0.180662
C	-1.3871887273	-0.5784349732	-0.1894294231	-0.453454
C	 1.0631176621	-0.6578214795	-0.8827353095	 0.006566
O	 2.3529655467	-0.1938196307	-0.4795848186	-0.252843
C	 1.7399078075	-1.2500419951	 0.2815189186	-0.07122
C	 0.7614527485	-0.5817956285	 1.2260412572	 0.325755
C	 0.9728139168	-0.0510293002	 2.5856861917	-0.30258
N	 0.1702000493	-1.2760551067	 2.3624893102	-0.378225
H	 0.988567093	 1.9627508803	-0.0065113535	 0.137492
H	-0.462845921	 1.8983042735	-1.0283309447	 0.111432
H	-0.6264381696	 1.9944383436	 0.7282707407	 0.108134
H	-1.8052851486	-0.2913315879	-1.1605161774	 0.119151
H	-1.3506585373	-1.6716946044	-0.145070159	 0.126281
H	-2.087368244	-0.231577266	 0.579317836	 0.113604
H	 0.9533082504	-1.0221971061	-1.8986030953	 0.100383
H	 2.2871687173	-2.1773678981	 0.4013246356	 0.110754
H	 1.9172430626	-0.2075662572	 3.099621343	 0.122237
H	 0.4549675844	 0.8656244877	 2.8580539934	 0.113045
H	-0.8226151353	-1.0647612994	 2.4342688486	 0.231073
118.2082	207.4485	223.3843	229.4247	253.6024	270.7496	305.0454	337.2082	405.2686	527.0691	546.385	601.449	651.787	833.3476	846.9043	860.808	873.7134	899.8422	939.3198	951.4955	970.0529	980.5612	984.625	1020.6864	1049.0495	1064.1564	1120.9389	1185.0451	1195.2261	1203.6646	1225.1954	1252.0263	1262.4831	1309.6352	1370.5978	1396.7993	1413.7534	1428.6145	1484.4147	1486.0384	1503.0767	1507.0981	1518.6399	3023.5231	3028.0839	3083.4465	3088.6859	3101.9562	3104.4486	3125.1976	3172.8345	3188.9765	3196.8819	3490.6876
CC1(C)C2OC2C11CN1	CC1(C)[C@H]2O[C@H]2[C@]21CN2	
InChI=1S/C7H11NO/c1-6(2)4-5(9-4)7(6)3-8-7/h4-5,8H,3H2,1-2H3	InChI=1S/C7H11NO/c1-6(2)4-5(9-4)7(6)3-8-7/h4-5,8H,3H2,1-2H3/t4-,5+,7-/m0/s1
