21
gdb 120312	2.8864	1.02991	0.9214	1.5116	80.16	-0.2309	0.0825	0.3134	1398.3722	0.180783	-424.172878	-424.163294	-424.16235	-424.207808	34.884	
C	-0.3052411127	 1.268563323	 0.5428044314	-0.223452
O	-0.2397910953	-0.132752808	 0.6383611438	-0.235186
C	 1.0842133045	-0.6241663556	 0.5425882422	-0.088622
C	 1.0318585297	-2.121852184	 0.6816873287	-0.084652
C	 2.2335629566	-3.0130859951	 0.9541818971	-0.218558
C	 3.1344262197	-2.3736565914	 2.0012106983	-0.099809
O	 2.0098727532	-2.1378842559	 2.8877131793	-0.31973
C	 1.133011174	-2.8459322055	 1.9919210845	 0.459295
C	 0.1132767126	-3.7467963544	 2.6061156055	-0.487131
H	 0.0842328867	 1.6335373709	-0.4218055809	 0.099259
H	-1.3564640343	 1.5552121385	 0.6282191265	 0.124134
H	 0.2637802034	 1.7615883101	 1.3473286765	 0.104296
H	 1.5257625737	-0.3394526368	-0.4285767457	 0.079962
H	 1.7093663017	-0.1872058074	 1.335069775	 0.101122
H	 0.3276123607	-2.5917185816	-0.001773045	 0.09456
H	 2.4938925999	-3.8541872043	 0.3249765263	 0.095828
H	 3.8358086621	-3.0835096568	 2.454722482	 0.108306
H	 3.6670605538	-1.4506923915	 1.7430717082	 0.102846
H	-0.6077923164	-3.1609983891	 3.1870984443	 0.138414
H	-0.4384755321	-4.2848076416	 1.830186378	 0.124295
H	 0.5810864285	-4.4747881637	 3.276264944	 0.124823
61.7196	86.5111	110.6761	195.1246	221.6711	240.2206	254.9924	303.1325	321.0736	416.9044	491.5565	571.1869	665.0233	768.8941	799.6294	881.8675	919.9559	955.1505	978.7379	987.715	995.1232	1035.1777	1048.0706	1103.5371	1123.2354	1149.8385	1160.86	1169.9181	1188.4299	1202.9747	1229.6095	1252.0983	1291.5004	1314.322	1343.9762	1406.1803	1415.9048	1473.4965	1476.4959	1485.0849	1489.075	1499.4781	1503.0451	1524.0911	1525.9214	2948.3375	2965.7721	3005.9287	3010.0446	3022.7932	3034.2804	3066.572	3098.6307	3110.4599	3117.3161	3140.3866	3194.643
COCC1C2COC12C	COC[C@H]1[C@H]2CO[C@@]12C	
InChI=1S/C7H12O2/c1-7-5(3-8-2)6(7)4-9-7/h5-6H,3-4H2,1-2H3	InChI=1S/C7H12O2/c1-7-5(3-8-2)6(7)4-9-7/h5-6H,3-4H2,1-2H3/t5-,6+,7-/m0/s1
