17
gdb 50932	1.86771	1.34909	0.86193	1.5438	72.38	-0.2538	-0.0487	0.2051	1323.9374	0.134095	-455.10872	-455.099313	-455.098369	-455.144682	32.097	
N	 0.1414848837	 1.1772675609	-0.7942255254	-0.430631
C	 0.1674727423	 0.0116557314	-0.3208682757	 0.125935
O	-0.889994612	-0.8133969707	-0.5227147975	-0.200598
C	-0.8596608848	-2.0899369369	 0.1056138523	-0.028406
C	-1.4543591872	-2.0067507696	 1.5103489775	 0.13947
O	-1.2397465774	-2.8243154288	 2.3645550932	-0.234245
C	-1.7012802248	-3.0572705946	-0.7171845059	-0.002933
C	-2.9392742544	-2.5963956892	-1.3947814123	-0.236462
N	-1.7376468122	-2.9538996945	-2.1736828273	-0.325181
H	 1.0074153007	 1.6656507808	-0.5765221863	 0.239103
H	 0.9791844658	-0.453224315	 0.2538820895	 0.103419
H	 0.1693320189	-2.466664468	 0.1776732576	 0.115492
H	-2.1338126226	-1.1387756143	 1.6598076725	 0.104122
H	-1.6516996165	-4.0705395367	-0.3273483823	 0.11979
H	-3.7773401397	-3.2779592229	-1.5025908408	 0.126804
H	-3.1991828959	-1.5454945786	-1.3168045111	 0.136399
H	-1.2705613438	-2.0952484335	-2.4595090378	 0.247924
42.7549	78.542	90.4382	95.7292	154.1814	216.5078	300.8256	317.138	438.7254	472.8058	547.7322	694.5944	783.2037	824.2244	866.2043	927.0494	959.4498	976.3406	1031.6861	1040.5923	1048.0335	1082.0307	1112.9625	1136.3804	1161.4376	1207.9702	1260.1631	1274.6259	1287.4254	1303.5854	1343.9561	1398.8441	1404.0159	1425.9906	1502.038	1749.7081	1835.1648	2899.0055	3023.6848	3038.6799	3122.7366	3149.1729	3213.8926	3495.9616	3524.7277
N=COC(C=O)C1CN1	[NH][CH]O[C@@H](C=O)[C@H]1CN1	
InChI=1S/C5H8N2O2/c6-3-9-5(2-8)4-1-7-4/h2-7H,1H2	InChI=1S/C5H8N2O2/c6-3-9-5(2-8)4-1-7-4/h2-7H,1H2/t4-,5+/m1/s1
