23
gdb 110971	2.28536	1.22586	1.08006	1.6075	86.32	-0.2465	0.0735	0.3199	1306.8229	0.204767	-388.248174	-388.238417	-388.237472	-388.282573	37.346	
C	-0.0333427735	 1.6109947497	 0.0069940611	-0.374825
C	 0.0057919379	 0.0898702186	 0.2011106352	-0.23911
C	-1.370949009	-0.5501647513	 0.0536952543	 0.013423
C	-2.0396910266	-0.7971883987	-1.3405196499	-0.116985
C	-1.0829556934	-2.0078811166	-1.5234011705	-0.272734
C	-1.5641190125	-2.1091654428	-0.042758868	 0.265511
C	-1.1998800527	-3.1432547574	 0.9884623393	-0.520318
C	-2.9890050073	-1.8098742759	-0.6277104235	 0.156099
O	-4.0546918185	-1.4054206417	 0.1844743648	-0.453109
H	 0.9559403967	 2.0554725799	 0.153213607	 0.112297
H	-0.3720599696	 1.873168358	-1.0008937416	 0.119173
H	-0.7187818237	 2.0849503847	 0.7187724017	 0.112142
H	 0.7280969101	-0.3435319283	-0.4973414484	 0.099697
H	 0.3858942962	-0.1356454099	 1.2066828052	 0.096881
H	-2.0305424136	-0.0652112937	 0.7882824776	 0.02822
H	-2.3101759338	-0.0521372925	-2.0901982958	 0.068063
H	-1.4246204443	-2.7997104071	-2.1973509648	 0.088263
H	-0.0291714667	-1.789857267	-1.6911253166	 0.097619
H	-0.1400704405	-3.0862839184	 1.2604089569	 0.117859
H	-1.7899962203	-3.0047507941	 1.9013840718	 0.12027
H	-1.396323181	-4.1547744434	 0.6162977924	 0.120529
H	-3.3932545092	-2.595928798	-1.2716683551	 0.076975
H	-3.7717056049	-0.6748068241	 0.7432409068	 0.284059
63.1364	133.4626	173.5685	191.6205	204.7337	227.0787	256.3416	282.9644	387.6182	408.4437	466.709	545.8753	619.1769	639.0796	750.2342	759.0969	825.0894	834.8627	882.8211	897.9997	940.7405	967.8764	1011.102	1023.0898	1039.9867	1085.7163	1100.4882	1119.853	1128.2277	1163.8066	1178.8918	1186.4033	1217.692	1232.0011	1250.9916	1282.0798	1292.7138	1326.7658	1350.5845	1406.5621	1411.8802	1444.3579	1456.7546	1484.8697	1488.83	1490.6995	1500.8449	1505.9978	1533.1859	2980.3849	3019.3301	3024.7211	3030.5853	3056.0758	3069.7283	3076.0881	3091.1178	3092.6854	3098.9396	3102.8653	3105.0226	3142.4284	3819.5482
CCC1C2CC1(C)C2O	CC[C@H]1[C@H]2C[C@]1(C)[C@H]2O	
InChI=1S/C8H14O/c1-3-6-5-4-8(6,2)7(5)9/h5-7,9H,3-4H2,1-2H3	InChI=1S/C8H14O/c1-3-6-5-4-8(6,2)7(5)9/h5-7,9H,3-4H2,1-2H3/t5-,6+,7+,8+/m1/s1
