17
gdb 14760	2.34039	1.94638	1.18786	3.1599	64.96	-0.2642	0.0189	0.2831	1021.389	0.140473	-400.982207	-400.973123	-400.972179	-401.01656	30.885	
C	 0.532392629	 0.4009024935	 0.8411317594	-0.234375
O	 0.0491184341	-0.758203057	 0.193688253	-0.237299
C	-1.3456414521	-0.930912237	 0.3253198769	-0.072748
C	-1.7081311178	-2.3158714564	-0.1871675716	-0.087072
O	-1.4067481723	-3.3822974564	 0.7039535445	-0.236016
C	-0.0405244627	-3.6352881107	 0.9362762532	-0.187224
C	 0.4795632043	-2.9201501446	 2.1187712745	 0.279321
N	 0.8728443753	-2.3874528095	 3.06582589	-0.328103
H	 1.6044577428	 0.4591997786	 0.6413285321	 0.131023
H	 0.0459477754	 1.3088806505	 0.4532087026	 0.103339
H	 0.3761516179	 0.3465152221	 1.9272963987	 0.132509
H	-1.6611512222	-0.8297616133	 1.3753261515	 0.111787
H	-1.8879771874	-0.1716255118	-0.2645921232	 0.093802
H	-2.7896169738	-2.377239427	-0.3376646044	 0.11972
H	-1.2119319831	-2.4757547076	-1.1563944431	 0.108188
H	 0.060931185	-4.7103103356	 1.1237186813	 0.152125
H	 0.5811139376	-3.3734561878	 0.0715057944	 0.151022
68.8401	76.9683	115.1956	146.7806	221.5872	232.3119	281.5788	355.4116	377.9177	385.0591	534.3776	592.2563	836.2843	877.6548	906.04	1001.211	1022.2505	1061.2763	1116.6633	1144.7499	1163.5226	1187.8228	1231.2064	1259.0325	1300.585	1338.0015	1388.3904	1404.1482	1424.0068	1460.4441	1479.3514	1479.6778	1487.2255	1496.2844	1517.7873	2356.2921	2957.4758	2985.2912	2996.5366	3014.6263	3031.8327	3045.7594	3078.6728	3098.1914	3123.8218
COCCOCC#N	COCCOCC#N	
InChI=1S/C5H9NO2/c1-7-4-5-8-3-2-6/h3-5H2,1H3	InChI=1S/C5H9NO2/c1-7-4-5-8-3-2-6/h3-5H2,1H3
