19
gdb 110697	2.659	1.34656	1.19507	1.2236	75.04	-0.2426	-0.0067	0.2359	1127.209	0.1602	-419.179976	-419.171467	-419.170523	-419.21309	32.17	
C	 0.6713614175	 0.0411948067	-1.7105190378	-0.400375
C	 1.3623227292	-1.1009963523	-0.9649979262	 0.032999
N	 2.7310944821	-1.3588684243	-1.4687002435	-0.203864
C	 3.4887521801	-1.4682702071	-0.4537570275	 0.014044
N	 2.93425905	-1.3635769153	 0.8570305395	-0.148976
C	 2.458492354	 0.0328626446	 1.1656669787	-0.029979
C	 3.0479269965	 1.2594803707	 0.5077785808	-0.098428
O	 4.2069185928	 1.7065631321	 1.1959561982	-0.416965
C	 1.5354575399	-0.9597067241	 0.553673433	-0.083104
H	 1.2049979702	 0.9872736438	-1.5923428747	 0.126114
H	 0.6223818897	-0.1882049017	-2.778145171	 0.133961
H	-0.3494287389	 0.1764889022	-1.3397375364	 0.118292
H	 0.7795364645	-2.0147221073	-1.1474268994	 0.099131
H	 4.5537822817	-1.6716581726	-0.5348824769	 0.122218
H	 2.3566034507	 0.1701292931	 2.240510526	 0.111789
H	 3.2491847913	 1.0937571268	-0.5574437719	 0.114398
H	 2.3255326683	 2.0793518203	 0.5841271024	 0.119987
H	 4.8677356816	 1.0082168629	 1.1431416402	 0.28674
H	 0.7731248389	-1.3959734882	 1.1919400266	 0.102018
89.3416	132.5516	191.2738	210.2149	220.6781	299.2118	331.6499	389.5474	462.2545	558.8021	597.4114	711.2428	744.4717	775.239	838.3883	872.189	909.4571	961.3576	968.0323	1034.4785	1039.87	1058.7505	1072.2358	1090.1722	1129.9069	1147.3009	1160.7492	1221.9658	1279.8113	1311.7463	1321.9008	1341.6424	1360.911	1376.5834	1408.2806	1411.7092	1443.7876	1489.966	1497.7412	1501.2056	1673.4709	3005.0203	3030.119	3047.9582	3077.2254	3118.2688	3130.0438	3130.9268	3155.4993	3173.0417	3813.8941
CC1N=CN2C(CO)C12	C[C@H]1N=CN2[C@@H](CO)[C@@H]12	
InChI=1S/C6H10N2O/c1-4-6-5(2-9)8(6)3-7-4/h3-6,9H,2H2,1H3	InChI=1S/C6H10N2O/c1-4-6-5(2-9)8(6)3-7-4/h3-6,9H,2H2,1H3/t4-,5+,6-,8?/m1/s1
