13
gdb 44192	5.70443	1.04627	0.95902	3.2576	63.78	-0.2679	-0.0263	0.2416	1137.2469	0.089776	-452.734947	-452.727698	-452.726754	-452.767127	26.435	
O	-0.0118499062	 0.0298707894	 0.1122017269	-0.329406
C	 0.0041863889	 1.2203051055	 0.0129064069	 0.425398
N	-1.0022696029	 2.1811179025	-0.0334121668	-0.327971
C	-0.1217511844	 3.3334362133	-0.0610246872	-0.044647
C	 0.4325111444	 3.7670857083	 1.3351306184	-0.048536
O	 1.4799080451	 2.7760344472	 1.2658784494	-0.27978
C	 1.0774310579	 2.3503991281	-0.0591232969	-0.04521
C	 0.9682469787	 5.127404221	 1.3824615985	 0.292003
N	 1.3638575404	 6.212941089	 1.3915806199	-0.305317
H	-1.9828504998	 2.1107013482	 0.2026327694	 0.262391
H	-0.3265180171	 4.1011915645	-0.8035668275	 0.132074
H	-0.2446363383	 3.602072439	 2.1799184228	 0.13959
H	 1.8969299433	 2.303252324	-0.7741791136	 0.129412
80.4194	131.9758	179.3098	280.3082	371.7484	447.0856	475.1972	499.6324	562.8668	720.2071	756.2475	813.8116	873.1245	931.6217	948.2295	975.8218	1009.4155	1038.1718	1047.8006	1127.2806	1170.0402	1215.505	1217.3871	1282.1012	1309.9247	1350.214	1374.6099	1913.7941	2359.0896	3060.486	3140.5623	3149.71	3593.2586
O=C1NC2C(OC12)C#N	O=C1N[C@H]2[C@@H](O[C@@H]12)C#N	
InChI=1S/C5H4N2O2/c6-1-2-3-4(9-2)5(8)7-3/h2-4H,(H,7,8)	InChI=1S/C5H4N2O2/c6-1-2-3-4(9-2)5(8)7-3/h2-4H,(H,7,8)/t2-,3-,4+/m0/s1
