20
gdb 92985	2.79588	1.15496	0.88898	4.3371	84.31	-0.253	0.0092	0.2622	1326.1398	0.171985	-366.046606	-366.037797	-366.036852	-366.080394	33.193	
C	-0.6692791254	 1.3357733949	-0.0424714738	-0.417048
C	 0.0907372335	 0.0106174065	-0.0732422354	 0.013876
C	 1.297471851	-0.0222433779	-1.0478484097	-0.263832
C	 2.2165328662	-1.0383217678	-0.4159146781	-0.066742
C	 1.8646166377	-1.3202017507	 0.8374060805	-0.070207
C	 0.6625438281	-0.5145592091	 1.2836262689	-0.056413
C	 1.0736222086	 0.6089740512	 2.2763164886	-0.3548
C	 1.6390430019	 0.0702819396	 3.5109926848	 0.266653
N	 2.0776680233	-0.3773611889	 4.4822122698	-0.312711
H	-0.026529436	 2.1722734417	 0.2525488605	 0.117302
H	-1.0668679494	 1.569464253	-1.0353836008	 0.119023
H	-1.5180991117	 1.3012015918	 0.6492433696	 0.117551
H	-0.6039723809	-0.7675171051	-0.4116541484	 0.088546
H	 0.993147204	-0.287823185	-2.066596262	 0.107613
H	 1.790290932	 0.9589209097	-1.1242584617	 0.10406
H	 3.0729287803	-1.4575124209	-0.9323955483	 0.099081
H	 2.3875892354	-1.9939060201	 1.5063644786	 0.115538
H	-0.0795663129	-1.1355392865	 1.7984445432	 0.092216
H	 1.8155894862	 1.2705616247	 1.8154795868	 0.151085
H	 0.2074239678	 1.226233029	 2.5378504768	 0.149209
70.3385	104.3393	136.0548	225.4746	263.7229	270.4435	339.9723	404.1856	449.12	489.7082	549.7217	628.4597	743.2589	766.2715	817.5109	856.8204	924.5162	939.0578	949.9311	981.1418	989.7436	996.0056	1036.4002	1080.2353	1118.9707	1137.7404	1163.9028	1187.0893	1216.5794	1272.7235	1300.835	1326.5071	1337.6861	1365.7435	1371.1653	1376.8208	1418.1556	1466.1919	1489.4717	1499.6352	1507.9481	1685.9705	2359.0113	2995.5254	3022.9303	3030.4804	3039.6177	3046.7426	3058.0091	3088.5553	3096.404	3099.8564	3187.2757	3212.5971
CC1CC=CC1CC#N	C[C@H]1CC=C[C@H]1CC#N	
InChI=1S/C8H11N/c1-7-3-2-4-8(7)5-6-9/h2,4,7-8H,3,5H2,1H3	InChI=1S/C8H11N/c1-7-3-2-4-8(7)5-6-9/h2,4,7-8H,3,5H2,1H3/t7-,8-/m0/s1
