19
gdb 75271	2.40494	1.358	1.12541	3.453	82.45	-0.2254	-0.0174	0.208	1174.7409	0.159169	-385.905834	-385.897446	-385.896502	-385.938901	31.877	
C	 0.0218500727	 1.4888609608	 0.0690080622	-0.499624
C	-0.0148770867	-0.0044968652	-0.0128416179	 0.33133
C	-0.061700727	-0.7645586741	-1.1136839196	-0.178236
C	-0.0866075493	-2.2440997283	-0.7992449817	-0.278603
C	 0.0219928179	-2.2840332495	 0.7268964267	-0.072156
C	 1.2668543239	-1.7386352847	 1.4294442356	-0.112353
C	 2.5593318086	-1.4821808447	 0.755428699	 0.146157
O	 3.6287560613	-1.7624182615	 1.2473539232	-0.2777
C	 0.0184422889	-0.8641500875	 1.2160708213	-0.155145
H	 0.9392512172	 1.8365602452	 0.5603598021	 0.13417
H	-0.03036668	 1.9472362888	-0.9218352111	 0.127108
H	-0.8149556183	 1.8726826401	 0.6660506997	 0.128641
H	-0.0521227397	-0.3838585217	-2.1292844747	 0.093107
H	-1.0254475878	-2.7101261923	-1.1274370521	 0.114419
H	 0.7173078237	-2.7963245201	-1.3016791797	 0.119188
H	-0.4998531755	-3.0666456635	 1.2641936354	 0.100234
H	 1.4025282531	-2.1112777303	 2.4400857743	 0.106341
H	 2.499741127	-1.0025425965	-0.2424855249	 0.077846
H	-0.5031571701	-0.5428845552	 2.1119859822	 0.095276
83.0424	144.8176	175.0679	198.3354	262.2422	294.7411	355.2077	417.4795	479.8888	575.326	620.1046	734.7187	776.2195	816.6955	833.8356	850.7969	935.2196	951.3129	976.7709	1002.5748	1029.9484	1047.1984	1055.9827	1076.4492	1096.9477	1112.8875	1180.3924	1188.523	1216.9422	1270.6971	1312.1279	1340.2451	1369.248	1373.1381	1416.1573	1447.4747	1478.7967	1484.0806	1489.3225	1704.6556	1800.2819	2924.9169	3017.2348	3020.0394	3047.1962	3066.6233	3115.4939	3157.4162	3165.0036	3185.33	3191.7733
CC1=CCC2C(C=O)C12	CC1=CC[C@H]2[C@@H](C=O)[C@@H]12	
InChI=1S/C8H10O/c1-5-2-3-6-7(4-9)8(5)6/h2,4,6-8H,3H2,1H3	InChI=1S/C8H10O/c1-5-2-3-6-7(4-9)8(5)6/h2,4,6-8H,3H2,1H3/t6-,7+,8-/m0/s1
