20
gdb 107480	2.09734	1.78962	1.26427	2.2364	78.84	-0.2327	0.081	0.3137	1093.4287	0.170152	-403.083209	-403.074609	-403.073665	-403.11637	33.042	
C	-0.0148189864	 1.584776632	 0.0567496123	-0.390673
C	-0.0118881074	 0.0543807057	-0.0566453276	-0.29405
C	-1.3793114529	-0.5627756853	 0.0484696696	 0.248073
C	-1.8731295557	-1.6845581268	-0.7851171944	-0.293576
N	-2.4864805991	-0.3571557886	-0.9858574536	-0.165891
C	-3.47963679	-0.2095972115	 0.140179012	-0.254856
C	-2.3712072301	-0.3713634354	 1.1813581249	 0.408161
C	-2.3471500378	-0.8275615322	 2.5725332718	-0.277115
O	-2.1840635537	 0.5597988205	 2.2294055248	-0.271609
H	 0.9982525793	 1.9819996189	-0.0575456222	 0.107908
H	-0.6428202831	 2.0222923059	-0.7251115202	 0.129385
H	-0.4032888113	 1.904081289	 1.026367501	 0.143476
H	 0.4303174666	-0.2479340636	-1.012987539	 0.105943
H	 0.625190374	-0.3800613194	 0.7258769003	 0.103503
H	-1.2523583239	-1.9985886178	-1.619306406	 0.121786
H	-2.4700839219	-2.4800920998	-0.34161097	 0.107603
H	-3.897355201	 0.7997503443	 0.1459979859	 0.129237
H	-4.2893988729	-0.9467413635	 0.1217939121	 0.107388
H	-3.2789566019	-1.0711769992	 3.0811039472	 0.118221
H	-1.4584618006	-1.3170851431	 2.9689884611	 0.117087
78.3355	133.5629	164.7108	205.5442	262.7168	283.978	398.5349	406.9099	458.241	523.6497	586.7788	628.4341	730.1955	801.2552	843.922	851.7395	872.5943	886.8722	963.7793	972.1619	1010.0736	1047.7332	1091.5058	1096.644	1113.3127	1123.5865	1128.6945	1149.8641	1161.9947	1195.6876	1259.9348	1274.2128	1322.8904	1330.8161	1397.4703	1408.3765	1444.1895	1471.8331	1483.7572	1499.3229	1506.6204	1515.6703	1536.8265	3018.4211	3045.1091	3045.6536	3060.5049	3081.229	3093.5515	3112.2657	3115.002	3134.9126	3168.6398	3188.0601
CCC12CN1CC21CO1	CC[C@]12CN1C[C@]12CO1	
InChI=1S/C7H11NO/c1-2-6-3-8(6)4-7(6)5-9-7/h2-5H2,1H3	InChI=1S/C7H11NO/c1-2-6-3-8(6)4-7(6)5-9-7/h2-5H2,1H3/t6-,7-,8?/m1/s1
