19
gdb 100452	2.87948	0.75057	0.62266	3.1366	84.08	-0.2579	-0.0502	0.2077	1807.6321	0.154802	-423.008664	-422.997604	-422.99666	-423.046757	37.251	
C	-0.6713730971	 0.6330404283	 0.0954237202	-0.24206
O	 0.6786050126	 0.2242008814	-0.0084335891	-0.22427
C	 0.9825114802	-0.4782511798	-1.1988002583	-0.042855
C	 2.5020443435	-0.6605344133	-1.23806818	-0.393497
C	 0.2799696243	-1.7665221152	-1.2864757605	 0.120557
C	-0.3080345184	-2.8206173055	-1.341491041	-0.016559
C	-1.0187299171	-4.0845173076	-1.4085723416	 0.249009
C	-0.585078062	-5.0166000296	-2.5217483862	-0.478025
O	-1.8978601397	-4.3603274251	-0.620272176	-0.275087
H	-0.956619565	 1.2930591454	-0.7385551901	 0.104143
H	-1.3571030934	-0.2241645359	 0.1155535491	 0.130748
H	-0.7616587833	 1.1861146053	 1.0325682153	 0.132691
H	 0.670548566	 0.123633377	-2.0714821445	 0.099414
H	 2.9821230199	 0.3195256062	-1.1891353119	 0.131353
H	 2.8289254615	-1.2560620599	-0.38255545	 0.141011
H	 2.8041427755	-1.1654773564	-2.1585757121	 0.126463
H	 0.4782639936	-5.2578757607	-2.4170787211	 0.146946
H	-1.1811219141	-5.9296031788	-2.4859894062	 0.144169
H	-0.7073965169	-4.5256092156	-3.4932446861	 0.145848
22.8441	59.5801	95.7028	119.3403	127.3587	168.0686	211.221	225.728	261.5568	285.4528	390.8797	443.3044	510.8851	561.2161	605.7644	630.6772	688.7034	851.4867	924.2238	981.7629	1042.8966	1046.7889	1094.7621	1131.2939	1147.4912	1183.9442	1229.0318	1239.6139	1332.3522	1357.5888	1381.4502	1401.8144	1460.7285	1469.0948	1477.1262	1481.303	1485.8818	1496.7401	1510.1001	1768.8492	2317.3052	2940.8122	2983.4986	3039.3349	3049.4673	3055.5146	3103.5871	3126.1465	3138.1601	3139.4397	3152.2915
COC(C)C#CC(C)=O	CO[C@@H](C)C#CC(=O)C	
InChI=1S/C7H10O2/c1-6(8)4-5-7(2)9-3/h7H,1-3H3	InChI=1S/C7H10O2/c1-6(8)4-5-7(2)9-3/h7H,1-3H3/t7-/m0/s1
