18
gdb 57069	2.52139	1.27208	0.95905	4.0555	72.54	-0.2467	0.0261	0.2727	1234.0365	0.148564	-435.23663	-435.227429	-435.226484	-435.270962	33.688	
N	-0.080339195	 1.4600909971	 0.1167791675	-0.50426
C	 0.0830179473	 0.0137006194	-0.0523850783	-0.130264
C	 0.8842836237	-0.3503079289	-1.2410962056	 0.264885
N	 1.5360788286	-0.5754961894	-2.1692755378	-0.327842
C	 0.7138668659	-0.5801793536	 1.2095246187	 0.019336
N	-0.1266513166	-0.500074249	 2.4177386498	-0.320855
C	 0.3902796071	-1.8101858813	 2.8814835589	-0.212023
C	 0.7466736073	-2.1281042388	 1.4056984286	 0.132885
O	-0.2440849861	-2.8372123102	 0.7007795623	-0.428466
H	 0.8286608577	 1.9143124125	 0.0832561902	 0.239372
H	-0.6182597544	 1.8432674101	-0.6548432052	 0.245569
H	-0.9112076831	-0.4271807964	-0.1684464972	 0.12117
H	 1.7247818711	-0.1588803904	 1.3359048326	 0.070926
H	 0.017838515	 0.3017291972	 3.0198662501	 0.22805
H	 1.2827390643	-1.7555878357	 3.5209982344	 0.099367
H	-0.352080259	-2.4605136969	 3.3569636984	 0.105844
H	 1.6932061211	-2.6285101481	 1.203367135	 0.103989
H	-1.102854315	-2.5216673675	 1.0054245375	 0.292316
58.5149	104.5443	136.6926	193.7168	221.8986	268.5581	295.9149	392.0626	402.3434	434.064	485.6127	566.679	615.0382	708.7142	819.7737	854.4635	869.0712	953.4709	966.9683	987.7701	1013.7096	1029.2088	1079.7288	1119.2909	1137.5926	1160.7574	1196.308	1213.1377	1246.0409	1285.8853	1304.1144	1333.2892	1368.3746	1380.5851	1401.7083	1438.6886	1516.0638	1663.7144	2345.5119	2965.556	3000.6246	3065.7566	3079.3756	3125.2295	3490.6416	3548.2862	3569.667	3797.3936
NC(C#N)C1NCC1O	N[C@@H](C#N)[C@H]1NC[C@H]1O	
InChI=1S/C5H9N3O/c6-1-3(7)5-4(9)2-8-5/h3-5,8-9H,2,7H2	InChI=1S/C5H9N3O/c6-1-3(7)5-4(9)2-8-5/h3-5,8-9H,2,7H2/t3-,4+,5+/m0/s1
