15
gdb 48394	2.28935	1.68584	1.2106	3.397	71.68	-0.2497	-0.0331	0.2165	1029.2449	0.109394	-420.550903	-420.542608	-420.541664	-420.584113	30.571	
O	-0.1461443856	 0.0597850754	-0.2872579445	-0.232848
C	-0.013221831	 1.2232206504	-0.0253376274	 0.117937
C	 1.3295136531	 1.950406155	-0.0062926901	 0.032177
C	 2.5685626598	 1.1355412516	-0.5402225543	-0.317029
C	 2.6672047943	 2.1285583885	-1.704260256	 0.054053
O	 1.4151702197	 2.1069188445	-2.4057558339	-0.235656
C	 1.5148057012	 2.9083850463	-1.2380948831	-0.032485
C	 1.5190567291	 2.6155947755	 1.266272691	 0.227628
C	 1.6400652772	 3.1798606532	 2.3215405857	-0.418658
H	-0.8789468093	 1.8756947174	 0.2205218143	 0.091874
H	 3.4126191256	 1.181991469	 0.1483027481	 0.127776
H	 2.3464306617	 0.1035992408	-0.8141214119	 0.144607
H	 3.5399025107	 2.4404761103	-2.2644529699	 0.117088
H	 1.2610160897	 3.9599232445	-1.2954512435	 0.120053
H	 1.7587784537	 3.6701932377	 3.2563391955	 0.203484
69.8192	116.4702	158.8595	182.426	235.0477	364.6909	472.2019	476.5427	508.3066	530.1089	631.6334	645.0159	663.3039	793.3107	839.66	863.5191	905.6177	916.6338	979.6767	992.364	1041.102	1051.4725	1109.172	1155.1549	1202.931	1229.8291	1244.2104	1262.9968	1378.2711	1416.4036	1467.7109	1836.3979	2230.0511	2898.9017	3092.4404	3158.5123	3191.4187	3206.6935	3499.3771
O=CC1(CC2OC12)C#C	O=C[C@]1(C[C@H]2O[C@@H]12)C#C	
InChI=1S/C7H6O2/c1-2-7(4-8)3-5-6(7)9-5/h1,4-6H,3H2	InChI=1S/C7H6O2/c1-2-7(4-8)3-5-6(7)9-5/h1,4-6H,3H2/t5-,6-,7-/m1/s1
