14
gdb 125049	3.3132	1.30526	0.94257	6.696	72.01	-0.2352	-0.0446	0.1906	1154.9165	0.10089	-432.880973	-432.872438	-432.871494	-432.91458	30.305	
C	-0.0294214488	 1.5446313598	 0.055232341	-0.531918
C	-0.0134423647	 0.0502767029	 0.0074935613	-0.017375
C	-0.0129483646	-0.7828954583	-1.0826970112	 0.424321
N	-0.0764559993	-0.5441217713	-2.4287723503	-0.598669
O	-0.0056568424	-2.069066955	-0.7014392397	-0.201834
N	-0.0038334584	-2.1469067202	 0.6917976774	-0.223249
C	-0.0077688079	-0.884152765	 1.0804366218	 0.250449
C	-0.0045077978	-0.5651028736	 2.4704423721	 0.253631
N	-0.0006186869	-0.2461805799	 3.5820238353	-0.334741
H	 0.8111184361	 1.9816088205	-0.4974080642	 0.129829
H	-0.9526043666	 1.958463861	-0.3664629723	 0.142781
H	 0.0453205611	 1.8933106973	 1.0881219986	 0.159115
H	 0.2781596164	 0.352997714	-2.7240471332	 0.272269
H	 0.2313019439	-1.3089483522	-3.0122471167	 0.275392
59.152	120.8815	138.5901	231.6456	241.0535	300.19	318.6524	411.4464	515.1262	518.027	558.6187	594.7037	685.2358	692.5611	750.2935	780.9842	959.7524	969.7174	1059.4068	1067.2659	1145.621	1269.3553	1356.1033	1425.1503	1460.9277	1487.6989	1499.9527	1520.7915	1629.6123	1682.1893	2362.11	3024.4244	3073.5858	3121.3826	3573.66	3679.8065
CC1=C(N)ON=C1C#N	Cc1c(N)onc1C#N	
InChI=1S/C5H5N3O/c1-3-4(2-6)8-9-5(3)7/h7H2,1H3	InChI=1S/C5H5N3O/c1-3-4(2-6)8-9-5(3)7/h7H2,1H3
