22
gdb 60149	3.95553	0.73241	0.72611	3.9521	83.93	-0.2457	0.0383	0.284	1680.5372	0.193088	-404.385055	-404.375004	-404.37406	-404.42086	36.976	
C	-0.0912416802	 1.5700269638	-0.0033890321	-0.388729
C	-0.0270340824	 0.0369701328	 0.0258735048	 0.039023
C	 0.9470249302	-0.441672446	 1.1123231804	-0.385092
C	-1.4399333104	-0.5532942217	 0.1955452017	-0.185384
C	-1.5354230398	-2.06630001	 0.0335762552	 0.050158
C	-2.9644135436	-2.673296803	-0.1105872085	-0.411818
C	-2.494743285	-3.1768851784	-1.4976844857	 0.430674
O	-2.9612968212	-3.8368445959	-2.3863087027	-0.359029
N	-1.2705145718	-2.5751280876	-1.3251438938	-0.325396
H	 0.9010055424	 2.0055250761	-0.1598405508	 0.111963
H	-0.7460487985	 1.9274239633	-0.8048125955	 0.113956
H	-0.4798729699	 1.9622525895	 0.944100632	 0.113751
H	 0.3565900347	-0.2982812115	-0.9490389565	 0.06869
H	 0.5967926103	-0.1435107304	 2.1079333382	 0.114588
H	 1.0688799797	-1.5292257337	 1.115220015	 0.111603
H	 1.9388902987	-0.0020139372	 0.9660620792	 0.114853
H	-1.8260229427	-0.287439216	 1.1899127338	 0.097137
H	-2.1114389176	-0.0900920493	-0.5386745963	 0.09571
H	-0.9375047641	-2.582245394	 0.7932504714	 0.086516
H	-3.2153704049	-3.4714230794	 0.5899836423	 0.13046
H	-3.7764129299	-1.9440947756	-0.1453734428	 0.128423
H	-0.4233902639	-2.6391805058	-1.8703525694	 0.247944
43.3619	62.3656	102.9768	160.8129	223.2002	243.0911	289.889	334.6703	372.7076	411.4493	420.9873	477.5264	520.7954	564.6837	728.5772	815.4666	825.7192	881.4038	927.3501	937.3242	952.6399	968.9415	984.1433	1019.3048	1081.9851	1091.3402	1143.1797	1168.0254	1188.6048	1193.0959	1198.9083	1255.7233	1281.8432	1320.3667	1361.6556	1370.9447	1386.2869	1402.9095	1410.2671	1424.6887	1460.4567	1472.4493	1487.6629	1495.3734	1505.621	1510.5196	1895.2762	2993.7325	3009.4547	3024.6968	3029.507	3036.0963	3058.8561	3084.2517	3089.9898	3095.7876	3101.1059	3103.4932	3143.0967	3609.34
CC(C)CC1CC(=O)N1	CC(C)C[C@H]1CC(=O)N1	
InChI=1S/C7H13NO/c1-5(2)3-6-4-7(9)8-6/h5-6H,3-4H2,1-2H3,(H,8,9)	InChI=1S/C7H13NO/c1-5(2)3-6-4-7(9)8-6/h5-6H,3-4H2,1-2H3,(H,8,9)/t6-/m0/s1
