19
gdb 123857	3.37237	1.48897	1.07781	2.7218	80.78	-0.2206	0.0291	0.2497	1111.8586	0.164682	-382.120342	-382.113215	-382.112271	-382.151777	28.733	
C	-0.0230702173	 1.5193857787	-0.049641671	-0.19015
C	 1.3955747879	 2.1123848114	 0.0116585605	-0.194758
C	 2.0982003011	 1.7962321169	 1.3480380345	-0.331192
C	 1.9039161862	 0.3501056514	 1.7011615965	 0.168798
C	 0.9450329734	-0.4417587088	 1.0993908968	 0.331216
C	-0.0060235123	-0.0221378154	 0.0246433656	-0.331702
N	 1.0547608398	-1.6694303277	 1.6669031995	-0.295213
N	 2.0250409936	-1.7365022967	 2.6048508241	-0.232487
C	 2.5392900043	-0.5097938178	 2.6265501982	-0.119252
H	-0.6134506785	 1.911675707	 0.7880778892	 0.104578
H	-0.528023686	 1.8362905461	-0.9679676081	 0.095753
H	 1.9903427127	 1.7019184218	-0.814886184	 0.100073
H	 1.3535278642	 3.1962698101	-0.139433928	 0.094098
H	 3.163384583	 2.0462230192	 1.2792077428	 0.104887
H	 1.6876684582	 2.441906844	 2.1374777181	 0.106453
H	-1.0163610043	-0.406352638	 0.211970129	 0.106651
H	 0.3062071994	-0.4365854996	-0.9445733041	 0.114966
H	 0.513668356	-2.4938966325	 1.4689528946	 0.264491
H	 3.3503018687	-0.2863751901	 3.3054233257	 0.102789
109.3801	211.8769	290.4093	310.4796	364.1733	436.8736	486.1041	493.8834	663.541	668.3966	693.9775	705.2685	832.8373	853.8885	882.7013	923.3372	938.7177	963.4391	972.5384	1066.7333	1101.3592	1123.363	1156.4041	1164.3296	1190.6166	1233.4704	1256.4293	1264.6524	1302.5226	1330.0148	1367.9771	1372.0059	1379.9004	1409.6328	1445.0946	1479.5832	1486.8654	1488.3891	1500.8732	1528.4001	1626.9554	3002.1954	3003.2872	3021.2477	3027.557	3046.8013	3051.6832	3072.8894	3078.223	3234.9817	3670.6977
C1CCC2=C(C1)NN=C2	C1CCc2c(C1)[nH]nc2	
InChI=1S/C7H10N2/c1-2-4-7-6(3-1)5-8-9-7/h5H,1-4H2,(H,8,9)	InChI=1S/C7H10N2/c1-2-4-7-6(3-1)5-8-9-7/h5H,1-4H2,(H,8,9)
