17
gdb 109576	2.712	1.30434	1.0231	2.2982	64.55	-0.2595	-0.0436	0.2159	1160.8815	0.134231	-496.087785	-496.078593	-496.077649	-496.121865	33.505	
O	 0.0472688818	 1.3708629533	 0.3270823503	-0.423507
C	 0.0640930804	 0.019839262	-0.0962340369	-0.087699
C	-1.3483100432	-0.5677587297	-0.0656383482	-0.139543
C	-1.5909278399	-2.1174561423	-0.0883393232	 0.054057
O	-0.4862480526	-2.8177610732	 0.4222317025	-0.431755
C	-2.6822199141	-1.9456931489	 1.0356222814	 0.021786
O	-2.6747480479	-2.9003363626	 2.0614269849	-0.437367
C	-2.0051649025	-0.6028524222	 1.3125572316	 0.334059
O	-1.7983900193	-0.0216917317	 2.3463569074	-0.329378
H	-0.2641578252	 1.3721059522	 1.2408086184	 0.296228
H	 0.4607893752	 0.0119781909	-1.1159918807	 0.11512
H	 0.7225227071	-0.6012735475	 0.5232943601	 0.114585
H	-1.9932918247	-0.0639756364	-0.7936521142	 0.113712
H	-1.93914688	-2.5363033292	-1.0383530671	 0.082242
H	-0.8385646342	-3.4168673952	 1.0968260936	 0.293497
H	-3.6840279334	-1.8303003766	 0.6041503811	 0.115658
H	-2.3960267177	-2.449510933	 2.869389789	 0.308305
83.5813	106.9679	144.5716	182.6795	214.9128	246.4022	288.3287	340.1712	454.0329	482.2783	504.9319	552.7837	580.917	639.0521	780.9577	829.0341	865.0319	904.0108	958.144	1029.6056	1065.5778	1068.7485	1124.6617	1136.2305	1151.9662	1200.6443	1222.072	1247.116	1310.9759	1336.9288	1366.2836	1371.8684	1383.5695	1400.6294	1435.3239	1515.0942	1853.2437	3031.6146	3036.9713	3048.5343	3064.485	3088.895	3721.5693	3768.2248	3781.1534
OCC1C(O)C(O)C1=O	OC[C@H]1[C@@H](O)[C@@H](O)C1=O	
InChI=1S/C5H8O4/c6-1-2-3(7)5(9)4(2)8/h2-3,5-7,9H,1H2	InChI=1S/C5H8O4/c6-1-2-3(7)5(9)4(2)8/h2-3,5-7,9H,1H2/t2-,3+,5+/m0/s1
