17
gdb 12261	2.7174	1.78916	1.50743	3.8465	65.09	-0.2452	-0.0284	0.2168	930.2528	0.1415	-400.992443	-400.984197	-400.983253	-401.02539	30.039	
C	 0.4268981737	 1.5927740941	 0.156525159	-0.390224
C	 0.1264159944	 0.1030177627	 0.0825089327	-0.0719
N	 1.0519587815	-0.7038906026	-0.7748125683	-0.354177
C	 1.369667562	-1.6736082129	 0.3170681514	-0.123944
C	 2.8735508087	-1.7945347576	 0.5699594399	-0.063671
O	 3.4890244819	-0.5278061719	 0.5074450522	-0.422732
C	 0.5714264809	-0.7656854212	 1.2735241448	 0.400922
O	 0.3899969107	-0.7382804279	 2.4523104279	-0.29071
H	 1.4742405927	 1.7539361996	 0.4263604964	 0.135533
H	 0.2351086302	 2.0780985787	-0.8052302179	 0.121619
H	-0.2041269971	 2.0650586508	 0.9155714629	 0.134229
H	-0.9361234033	-0.0687481181	-0.1434305519	 0.100304
H	 0.612366399	-1.1160375654	-1.5888411835	 0.228352
H	 0.907277464	-2.665252578	 0.2158055715	 0.096692
H	 3.0409107844	-2.2028087495	 1.5724161083	 0.125935
H	 3.3133314183	-2.4962183269	-0.1583059876	 0.088209
H	 3.1168944381	-0.1161041238	-0.2868794177	 0.285562
64.8077	115.4342	180.8886	211.162	221.6535	271.1435	388.2136	502.8738	536.8567	550.8423	637.9468	675.7918	734.2274	858.2153	872.5433	947.0113	951.4376	1021.4148	1036.8864	1070.453	1077.4678	1113.2787	1132.4904	1176.5629	1235.1117	1265.1303	1299.8615	1354.9063	1361.574	1385.724	1403.2437	1443.0157	1486.4613	1497.6075	1501.9406	1916.5228	2964.2348	3002.991	3018.5918	3040.9694	3076.4778	3115.1519	3123.6417	3553.3269	3715.2674
CC1NC(CO)C1=O	C[C@H]1N[C@@H](CO)C1=O	
InChI=1S/C5H9NO2/c1-3-5(8)4(2-7)6-3/h3-4,6-7H,2H2,1H3	InChI=1S/C5H9NO2/c1-3-5(8)4(2-7)6-3/h3-4,6-7H,2H2,1H3/t3-,4+/m1/s1
