16
gdb 26716	3.29088	1.21109	0.8915	4.2129	75.89	-0.2076	-0.0444	0.1632	1247.2729	0.123668	-437.92671	-437.917796	-437.916852	-437.960483	31.826	
C	 0.0806157719	 1.4905716684	 0.0482839356	-0.498847
C	-0.0698919238	 0.0136786599	 0.0334755483	 0.323526
C	-1.1408384338	-0.8300617568	-0.0146791682	-0.010471
N	-2.5042260681	-0.5063730331	-0.0061850325	-0.610699
C	-0.6040545166	-2.1747864279	 0.0199588106	 0.144076
C	-1.3230375308	-3.4436698639	 0.0201921807	 0.064596
O	-0.7968575152	-4.5368606552	 0.0287355167	-0.283534
C	 0.7556372373	-2.0254421029	 0.0862085979	-0.085137
O	 1.0938520349	-0.7316721239	 0.1046725567	-0.175045
H	 0.8546415148	 1.8151728301	-0.6553630478	 0.143652
H	-0.8579805753	 1.9694827678	-0.2469016159	 0.124395
H	 0.3510827985	 1.8774944282	 1.0387182735	 0.142199
H	-2.6766452857	 0.4792796616	-0.1561433194	 0.2438
H	-3.0459456077	-1.0432159778	-0.6717344478	 0.250819
H	-2.4321912475	-3.3507928027	 0.0204742879	 0.061221
H	 1.5567290371	-2.7446633018	 0.1270507337	 0.165446
99.9215	105.4271	159.6321	179.8325	203.1197	263.6932	290.0396	334.8442	372.6925	501.646	614.8828	649.3874	672.8566	736.4089	755.7349	809.525	824.011	926.7051	999.7514	1039.6989	1060.5307	1186.3057	1194.9789	1217.7843	1267.4502	1321.96	1410.3324	1437.8503	1468.0107	1477.3013	1492.4526	1568.4625	1647.6855	1687.9058	1783.7902	2875.0112	3021.822	3076.1171	3106.5786	3283.8583	3534.5965	3623.2822
CC1=C(N)C(C=O)=CO1	Cc1c(N)c(C=O)co1	
InChI=1S/C6H7NO2/c1-4-6(7)5(2-8)3-9-4/h2-3H,7H2,1H3	InChI=1S/C6H7NO2/c1-4-6(7)5(2-8)3-9-4/h2-3H,7H2,1H3
