20
gdb 121223	3.29105	0.8971	0.74623	3.2573	77.58	-0.2235	-0.026	0.1975	1510.2627	0.169228	-440.258222	-440.248448	-440.247504	-440.293927	34.525	
O	 0.1835830494	 1.4338362534	-0.0934230527	-0.41342
C	 0.1038144491	 0.0148006977	-0.0633978738	-0.077382
C	-1.355328657	-0.3754376331	 0.1166932164	-0.137768
N	-2.1597840802	-0.0517118188	-1.0451132214	-0.084849
C	-2.5564919499	 1.3494883346	-1.3073778638	-0.143789
C	-3.9226693324	 0.8307419554	-1.8115233588	-0.266141
C	-3.5635456815	-0.4947993267	-1.0702154087	-0.040461
C	-3.8122205713	-1.7722757299	-1.8389264	 0.154924
O	-4.6821277362	-2.5672314157	-1.5917429398	-0.248031
H	 1.0816173426	 1.6821183312	-0.3299031243	 0.289443
H	 0.4781223833	-0.4271344253	-0.9982125454	 0.096098
H	 0.6914858652	-0.3977568526	 0.7720290331	 0.086766
H	-1.4041543121	-1.4600645374	 0.2731127547	 0.105361
H	-1.7393137043	 0.1070408849	 1.0359003411	 0.0889
H	-2.6463302304	 1.9479165337	-0.3889223982	 0.098027
H	-1.913726797	 1.886117891	-2.0089683884	 0.107397
H	-4.8226869401	 1.3420674624	-1.4725040839	 0.119008
H	-3.9588109287	 0.705605049	-2.8962629366	 0.115285
H	-4.0462113031	-0.5601311208	-0.0832933826	 0.076339
H	-3.1135188753	-1.9052393731	-2.6976472568	 0.074292
52.4352	62.8054	122.7873	141.6973	183.6375	220.2434	242.015	327.8722	331.7324	411.4355	459.6105	524.7318	659.7076	773.4396	866.8871	899.498	907.5973	946.9963	963.9215	995.3122	1064.3297	1077.2335	1093.1062	1130.0767	1146.4349	1158.1806	1205.5199	1219.7287	1243.266	1252.1924	1260.2765	1278.259	1311.78	1320.3773	1345.8901	1397.8991	1409.034	1458.621	1477.3009	1484.9298	1511.258	1523.9841	1830.8162	2867.5995	2925.7915	2974.5119	2992.2014	3001.0038	3019.8036	3054.1762	3077.3671	3092.6456	3147.5088	3835.116
OCCN1CCC1C=O	OCCN1CC[C@H]1C=O	
InChI=1S/C6H11NO2/c8-4-3-7-2-1-6(7)5-9/h5-6,8H,1-4H2	InChI=1S/C6H11NO2/c8-4-3-7-2-1-6(7)5-9/h5-6,8H,1-4H2/t6-/m0/s1
