20
gdb 119200	1.85555	1.30476	0.89219	5.1092	81.52	-0.2241	0.0324	0.2565	1385.7815	0.170809	-399.314216	-399.30426	-399.303316	-399.349272	36.546	
C	 0.012101041	 1.5798780344	-0.1128097304	-0.392935
C	-0.2301776097	 0.0815986604	-0.2622814411	-0.116378
N	 0.8987601739	-0.5537500406	-0.9398479531	-0.354181
C	 0.7805808653	-1.9647982025	-1.1407168616	 0.188475
C	-0.2459041098	-2.5595956133	-2.1176681794	-0.326254
C	 1.2062159181	-2.5403147333	-2.4931771338	-0.064513
N	 1.6262973493	-1.5853020267	-3.4820943183	-0.513407
C	 1.092854272	-2.7658065669	 0.0235438079	 0.281637
N	 1.3272161855	-3.4180617051	 0.9498909598	-0.355125
H	 0.9343374429	 1.7679294495	 0.4438729748	 0.131383
H	 0.1032144477	 2.0644021762	-1.0919979538	 0.112704
H	-0.8193653074	 2.0544452994	 0.4161968405	 0.117635
H	-0.3306888649	-0.3787192046	 0.7279989281	 0.120302
H	-1.187454707	-0.093764644	-0.7859267362	 0.078506
H	 1.0830241618	-0.1254162297	-1.8430937659	 0.231491
H	-0.7085746986	-3.5111971749	-1.8841901613	 0.135532
H	-0.8890352606	-1.8324851466	-2.6011213318	 0.12821
H	 1.7282717082	-3.4947972138	-2.4390113163	 0.107055
H	 2.6385018158	-1.5398303651	-3.536132096	 0.246134
H	 1.2803859165	-1.8428902925	-4.400424742	 0.243729
69.9284	93.297	145.2255	149.9349	170.9159	251.6318	265.7107	323.8755	342.9204	389.8211	437.2197	510.1266	581.2588	609.2756	700.5513	769.5138	809.4203	823.377	841.8758	913.2892	926.4869	943.2526	1003.5368	1055.5856	1086.3713	1099.2051	1147.5407	1165.9461	1184.683	1248.792	1272.0126	1293.7779	1328.3689	1388.0486	1412.9586	1419.531	1466.8566	1483.826	1498.9064	1504.0485	1524.1758	1655.6402	2348.7955	2936.6018	3033.9909	3048.0803	3101.7958	3106.6927	3122.4156	3140.4969	3235.7693	3503.0489	3506.2687	3583.8003
CCNC1(CC1N)C#N	CCN[C@]1(C[C@H]1N)C#N	
InChI=1S/C6H11N3/c1-2-9-6(4-7)3-5(6)8/h5,9H,2-3,8H2,1H3	InChI=1S/C6H11N3/c1-2-9-6(4-7)3-5(6)8/h5,9H,2-3,8H2,1H3/t5-,6-/m1/s1
