21
gdb 92702	2.25833	1.57623	1.16911	0.815	80.23	-0.2328	0.0284	0.2611	1149.8147	0.180104	-424.243588	-424.233434	-424.23249	-424.277896	38.152	
C	-0.6089411038	 1.4571399647	 0.032407016	-0.512557
C	-0.1136118926	 0.0488658599	-0.0471466361	 0.312006
C	 0.1575321254	-0.6643038802	-1.1416705592	-0.181617
C	 0.6267246387	-2.0600552438	-0.8182122672	-0.304409
C	 0.2023343001	-2.2123963331	 0.6615937033	 0.097643
O	 1.0530312292	-3.0242948112	 1.4501793663	-0.438085
C	 0.1444435927	-0.7680110655	 1.2182053023	 0.276895
C	 1.438968998	-0.3508300639	 1.9239640018	-0.449048
O	-0.957514094	-0.7012893308	 2.1305489187	-0.476653
H	 0.1047950493	 2.1108013482	 0.5508641128	 0.12104
H	-0.785296409	 1.8774891142	-0.9611934129	 0.122855
H	-1.5470066621	 1.4993577876	 0.5978297897	 0.13332
H	 0.067414781	-0.2937110387	-2.1581294158	 0.084928
H	 0.1873673826	-2.8275912467	-1.4667896001	 0.093654
H	 1.7179947776	-2.1599830127	-0.9012094526	 0.108549
H	-0.8314047857	-2.582711116	 0.7007052895	 0.084628
H	 0.9288659282	-3.9383440645	 1.1793564227	 0.285033
H	 2.3024341174	-0.448528289	 1.2607631315	 0.125889
H	 1.379858365	 0.696546374	 2.2436545987	 0.099947
H	 1.6058430568	-0.9838477468	 2.7982627377	 0.13893
H	-0.7851364948	 0.0056960745	 2.7597167529	 0.277053
79.3207	149.7427	178.6649	208.7199	218.2783	237.9199	260.0097	265.4631	277.4906	311.3909	390.0702	486.8452	510.1353	560.3092	614.1186	663.3936	701.3052	827.885	862.7264	930.8858	950.6651	996.4581	1028.4908	1038.9731	1060.776	1080.9794	1104.2043	1126.3063	1142.5481	1185.5411	1232.3506	1259.3394	1297.2761	1322.826	1348.1901	1368.4651	1396.9016	1405.6745	1433.9877	1476.2258	1486.0253	1491.0629	1492.6308	1496.8491	1724.1683	3007.2974	3011.4816	3018.1151	3031.8953	3049.9309	3070.909	3104.7533	3112.7491	3134.0899	3175.4466	3825.1595	3832.9533
CC1=CCC(O)C1(C)O	CC1=CC[C@@H](O)[C@]1(C)O	
InChI=1S/C7H12O2/c1-5-3-4-6(8)7(5,2)9/h3,6,8-9H,4H2,1-2H3	InChI=1S/C7H12O2/c1-5-3-4-6(8)7(5,2)9/h3,6,8-9H,4H2,1-2H3/t6-,7-/m1/s1
