17
gdb 14840	2.94508	1.6192	1.15897	4.3246	68.12	-0.2778	0.0002	0.278	1045.16	0.141871	-363.856493	-363.848164	-363.84722	-363.890151	29.209	
C	-0.0000639242	 1.5657695277	-0.0888050139	-0.390987
C	 0.0279062362	 0.0371710693	 0.0142755625	-0.203892
C	-1.3704854393	-0.5618970186	 0.0671963744	-0.038088
C	-2.2166093545	-0.5653565804	-1.2269032644	-0.079369
O	-2.3999779908	-2.0009590156	-1.1597910489	-0.272136
C	-1.5457726218	-2.1115913115	-0.0098269279	-0.030036
C	-0.3351391868	-2.8973565062	-0.2790236699	 0.287164
N	 0.6244320303	-3.5100698824	-0.478317665	-0.327113
H	 1.0138773966	 1.973042446	-0.1309461529	 0.125781
H	-0.5268446949	 1.8966784562	-0.9907321184	 0.1217
H	-0.5052813049	 2.0136954352	 0.7739034574	 0.119312
H	 0.5738420261	-0.3852887407	-0.8374392086	 0.122779
H	 0.5828339002	-0.2642020286	 0.911037491	 0.114108
H	-1.9219876284	-0.1604424559	 0.9216241059	 0.094987
H	-3.1741016238	-0.0361335703	-1.1943202285	 0.115289
H	-1.6697374358	-0.2723035342	-2.1318238068	 0.114368
H	-2.0680122342	-2.56553257	 0.840755824	 0.126132
48.439	103.255	115.2434	208.7829	222.7048	265.1818	371.0173	404.1259	531.0721	589.7695	751.6918	791.4141	821.0408	906.0087	961.4305	970.1077	979.2509	1031.0514	1035.7503	1091.0775	1142.3597	1157.6468	1182.5584	1237.2806	1267.1069	1294.5177	1332.2906	1358.6298	1362.2591	1397.9735	1415.3524	1484.617	1501.2394	1506.2856	1525.1738	2352.7637	3022.8062	3031.2874	3034.4024	3037.6592	3060.3101	3072.1624	3086.2466	3100.3503	3112.6837
CCC1COC1C#N	CC[C@H]1CO[C@H]1C#N	
InChI=1S/C6H9NO/c1-2-5-4-8-6(5)3-7/h5-6H,2,4H2,1H3	InChI=1S/C6H9NO/c1-2-5-4-8-6(5)3-7/h5-6H,2,4H2,1H3/t5-,6-/m0/s1
