20
gdb 73052	2.44576	1.42904	1.17863	3.2927	79.76	-0.2394	0.0293	0.2686	1145.6484	0.17104	-403.150325	-403.141348	-403.140404	-403.184347	33.548	
C	 0.28817461	 1.4738834443	-0.0517880724	-0.500554
C	 0.1659469236	-0.0168314433	 0.0694180003	 0.358957
C	-1.0902438328	-0.8194582835	-0.2988976457	-0.276456
C	-0.8194288312	-1.7884105874	 0.8936291899	-0.226178
C	 0.4380599791	-0.9854903072	 1.2437063473	-0.166666
C	 1.3699331726	-0.9125342087	 0.06555097	-0.011698
N	 1.530789149	-2.0058713402	-0.8503344813	-0.283103
C	 1.6467094041	-1.8317302596	-2.196333209	 0.151929
O	 1.5520113857	-0.7712939798	-2.7752286884	-0.322806
H	 1.1844622427	 1.8445910148	 0.4562556898	 0.114654
H	 0.3619115536	 1.7606714793	-1.1068702897	 0.14459
H	-0.5793716834	 1.9830688873	 0.3826365198	 0.111831
H	-2.0031345027	-0.2367132873	-0.1545960484	 0.102227
H	-1.1055490642	-1.2497409575	-1.303676073	 0.109552
H	-1.5861507106	-1.7208178691	 1.6678917257	 0.105991
H	-0.670032635	-2.8445842706	 0.6467368509	 0.08582
H	 0.7976755073	-0.7806772953	 2.2463075672	 0.084648
H	 2.2918991603	-0.3703863445	 0.2715276608	 0.099592
H	 1.7030092046	-2.927530785	-0.4786503483	 0.247146
H	 1.8304202173	-2.7933388568	-2.7187153756	 0.070522
46.9109	108.125	183.9503	203.785	224.4866	273.4776	306.9312	321.3275	444.2385	519.7655	561.0439	616.5759	734.875	782.6768	791.7045	856.693	880.7022	953.4499	958.6414	977.0223	1002.741	1024.0534	1033.2751	1070.1396	1105.1902	1143.0781	1147.5823	1208.3823	1223.796	1237.281	1251.687	1273.9772	1311.147	1347.1874	1414.5788	1430.2484	1459.6036	1480.3923	1487.8305	1496.2734	1502.7567	1511.4604	1807.6284	2920.5103	3025.2274	3047.7737	3063.077	3091.0151	3097.0812	3100.6941	3114.1375	3118.5181	3168.2768	3614.8448
CC12CCC1C2NC=O	C[C@]12CC[C@H]1[C@H]2NC=O	
InChI=1S/C7H11NO/c1-7-3-2-5(7)6(7)8-4-9/h4-6H,2-3H2,1H3,(H,8,9)	InChI=1S/C7H11NO/c1-7-3-2-5(7)6(7)8-4-9/h4-6H,2-3H2,1H3,(H,8,9)/t5-,6+,7-/m0/s1
