13
gdb 10250	3.24593	1.68581	1.21274	4.1668	58.12	-0.264	-0.0497	0.2143	939.6972	0.094808	-431.956891	-431.948869	-431.947925	-431.989792	27.956	
N	-0.0437909443	 1.2470988033	-0.4856430999	-0.506177
C	 0.0426286824	-0.0163609904	 0.0567996461	 0.351126
N	 1.1297043704	-0.4620384629	 0.5423455158	-0.495668
N	-1.209802337	-0.720609563	 0.0326764278	-0.163527
C	-1.1805001802	-2.0798896917	-0.3643448036	 0.149805
O	-2.1099110409	-2.8321569011	-0.3516703598	-0.248959
C	-2.3894150637	-0.0520842436	 0.4491610822	 0.1506
O	-3.4905090421	-0.5198741549	 0.4405594582	-0.248712
H	 0.8460942209	 1.7231595972	-0.5273775935	 0.274885
H	-0.6194547357	 1.3571645947	-1.3072507971	 0.26678
H	 0.9909314679	-1.32955524	 1.0540202693	 0.232527
H	-0.1651793026	-2.3533780326	-0.7040509808	 0.113899
H	-2.1507819151	 0.9693704049	 0.7907721352	 0.123421
57.6205	134.2042	163.0428	235.0467	238.7661	299.5575	418.3154	461.7227	493.1219	541.0051	594.6152	657.1917	746.5728	842.4412	928.2368	1030.0054	1044.9315	1073.9102	1147.2877	1166.936	1246.5536	1400.5402	1433.7324	1461.5734	1619.1481	1743.4868	1805.8381	1880.9476	2973.3588	2997.0946	3530.5439	3567.2044	3681.5461
NC(=N)N(C=O)C=O	NC(=N)N(C=O)C=O	
InChI=1S/C3H5N3O2/c4-3(5)6(1-7)2-8/h1-2H,(H3,4,5)	InChI=1S/C3H5N3O2/c4-3(5)6(1-7)2-8/h1-2H,(H3,4,5)
