17
gdb 71059	2.50951	2.14752	1.37173	2.0617	74.85	-0.217	-0.0352	0.1818	929.4353	0.134915	-421.716432	-421.708981	-421.708037	-421.747515	30.885	
O	 0.0219647481	 1.288654482	-0.0748810595	-0.466222
C	-0.0203601481	-0.086203454	-0.0730222621	 0.399707
C	 0.5768595456	-0.9015816154	-1.2633724735	-0.315888
C	-0.2217837808	-2.0232454919	-0.5829729922	 0.049576
C	 0.4384287309	-2.7736490922	 0.3263357066	-0.094866
C	 0.2044109307	-2.2219334597	 1.7232773515	-0.321391
C	-0.3285958465	-0.833597947	 1.3002592815	 0.298629
O	-0.6452277402	 0.1201216514	 2.2749506425	-0.482199
C	-1.187281378	-1.0313602399	 0.0869320937	-0.274022
H	-0.2212792204	 1.563648204	 0.8218173993	 0.292015
H	 0.1702804375	-0.4979882055	-2.1975021779	 0.114503
H	 1.6603104618	-1.0309922501	-1.3402736093	 0.10261
H	 1.3773882795	-3.2661257044	 0.0881849123	 0.100327
H	-0.5278442373	-2.7316785227	 2.3678448851	 0.098074
H	 1.1538122062	-2.1980854166	 2.2715156693	 0.115246
H	-1.4867254071	-0.1116408799	 2.6843322078	 0.291786
H	-2.2583693018	-0.9250521981	-0.0345080051	 0.092116
212.9929	261.0317	283.7992	290.2207	354.6142	389.8522	414.8265	459.2008	482.804	573.4976	596.8385	645.7471	711.7616	777.2186	809.8593	862.8457	912.266	931.8461	939.5464	975.4953	1008.1043	1045.9158	1076.8848	1092.5461	1123.6569	1144.1257	1171.7604	1194.0463	1238.6848	1274.6564	1295.4826	1311.9337	1368.3368	1384.9896	1478.0818	1503.5374	1588.3014	2983.6944	3033.4409	3055.3943	3097.6017	3160.7193	3185.713	3727.4938	3789.4633
OC12CC3=CCC1(O)C23	O[C@@]12C[C]3[CH]C[C@]1(O)[C@@H]23	
InChI=1S/C7H8O2/c8-6-2-1-4-3-7(6,9)5(4)6/h1,5,8-9H,2-3H2	InChI=1S/C7H8O2/c8-6-2-1-4-3-7(6,9)5(4)6/h1,5,8-9H,2-3H2/t5-,6-,7+/m0/s1
