22
gdb 116599	5.33397	0.76248	0.6912	2.9686	86.98	-0.2402	0.0328	0.273	1720.8821	0.193995	-404.381135	-404.371362	-404.370418	-404.416871	35.624	
C	 0.1442634459	 1.4606650182	 0.4169178403	-0.371914
C	-0.1047404087	 0.3816962882	-0.633226689	-0.116184
N	-1.5133185405	-0.0059486116	-0.6404787521	-0.342343
C	-1.8570156058	-1.0169258845	-1.3063104034	 0.434554
C	-3.2584209319	-1.5678085794	-1.4463501099	-0.326787
C	-3.0193016089	-3.0217586205	-1.8848552217	 0.011213
C	-4.1451556616	-3.6673106175	-2.6868728295	-0.412854
C	-1.6995760416	-2.8735319273	-2.6596281442	-0.08516
O	-0.987697241	-1.8029045275	-2.0243799025	-0.250802
H	 1.1951150709	 1.768331456	 0.419622872	 0.100548
H	-0.4748968336	 2.3407840588	 0.218987705	 0.117408
H	-0.109706104	 1.0929796787	 1.4159425255	 0.114986
H	 0.1804914407	 0.755594293	-1.6273709708	 0.099877
H	 0.5392973553	-0.4892256376	-0.445131875	 0.100037
H	-3.8240831338	-1.455175383	-0.5211300398	 0.131911
H	-3.7892162567	-1.0125121058	-2.2312018327	 0.121206
H	-2.8198183386	-3.6247634579	-0.9902398608	 0.089409
H	-4.3767105331	-3.0797483076	-3.5825714089	 0.119395
H	-3.8756026987	-4.6787652278	-3.009363875	 0.119445
H	-5.060095832	-3.7431321779	-2.0914196805	 0.125175
H	-1.0672203678	-3.7646937318	-2.6316681585	 0.116932
H	-1.8838089945	-2.6091676752	-3.7105355385	 0.103947
23.4851	85.067	130.9034	181.521	197.7204	235.7352	285.046	287.1861	343.0937	414.796	473.3825	571.5826	614.1365	725.6662	788.5811	830.9287	866.2391	894.5405	919.9105	949.6359	965.8786	1053.6309	1064.4529	1096.2734	1115.283	1119.872	1140.7289	1164.851	1193.3631	1203.5469	1260.2629	1281.6421	1298.5125	1346.6751	1358.3657	1381.6836	1405.2715	1411.3911	1417.0747	1475.2298	1476.7746	1488.4147	1497.7341	1501.0728	1505.4901	1521.8898	1796.9158	2992.3305	3006.98	3020.8735	3023.1303	3029.778	3036.3992	3036.7678	3092.8755	3098.1671	3105.2793	3107.644	3112.7747	3129.4531
CCN=C1CC(C)CO1	CCN=C1C[C@@H](C)CO1	
InChI=1S/C7H13NO/c1-3-8-7-4-6(2)5-9-7/h6H,3-5H2,1-2H3	InChI=1S/C7H13NO/c1-3-8-7-4-6(2)5-9-7/h6H,3-5H2,1-2H3/t6-/m1/s1
