17
gdb 66747	2.66022	1.96952	1.50943	3.1961	74.8	-0.2218	-0.007	0.2148	916.7361	0.136406	-384.636323	-384.629395	-384.628451	-384.667441	28.166	
C	 0.0148758645	 1.5599678888	-0.0506682991	-0.532189
C	 0.0350246367	 0.0619237177	-0.0645666451	 0.376232
C	 0.6168663102	-0.9108258797	-1.1510800834	-0.179929
C	-0.4656122995	-1.8767652704	-0.74142553	-0.065913
C	 0.902291128	-1.8649672468	-0.0193696123	-0.0659
C	 0.6362785932	-0.8457373554	 1.1023289034	-0.245325
C	-0.8127653474	-1.0872168046	 1.5598977378	 0.44282
O	-1.3689769416	-1.1782586763	 2.6149042405	-0.328515
C	-1.2554050875	-0.8619304334	 0.1036368289	-0.24531
H	 1.0303828958	 1.970104968	-0.0840990398	 0.126641
H	-0.5356737936	 1.9567057068	-0.9109464339	 0.12664
H	-0.4686664102	 1.9337408625	 0.8591046437	 0.133153
H	 1.115139336	-0.7511271759	-2.0976696777	 0.095182
H	-0.8372262862	-2.7522380881	-1.2558822738	 0.098065
H	 1.5484835534	-2.7316451979	 0.0034025553	 0.098064
H	 1.4345886634	-0.5406717708	 1.7749167656	 0.083139
H	-2.2650596051	-0.5723490644	-0.17828592	 0.083145
112.0974	224.6101	258.6516	279.8866	386.9485	555.4121	572.9121	601.335	714.7902	715.7039	755.6363	800.0427	802.2045	832.4356	862.5501	905.5043	919.848	948.8783	997.4903	1005.8094	1026.4612	1043.5361	1067.324	1084.6889	1113.1815	1154.777	1157.6761	1187.8647	1192.2695	1227.2692	1268.4852	1340.8867	1352.0613	1414.6711	1482.7633	1493.587	1886.6279	3023.338	3090.1148	3092.5922	3149.0602	3150.6339	3199.7775	3204.7583	3218.2517
CC12C3C4C3C1C(=O)C24	C[C@@]12[C@@H]3[C@H]4[C@@H]3[C@@H]1C(=O)[C@@H]24	
InChI=1S/C8H8O/c1-8-4-2-3(4)6(8)7(9)5(2)8/h2-6H,1H3	InChI=1S/C8H8O/c1-8-4-2-3(4)6(8)7(9)5(2)8/h2-6H,1H3/t2-,3+,4-,5+,6-,8+
