18
gdb 76476	3.26305	1.09311	1.01515	3.8456	74.76	-0.2459	0.03	0.2758	1241.8903	0.146032	-439.062808	-439.053893	-439.052949	-439.096374	33.382	
C	 0.0872880558	 1.6403306742	-0.2589189823	-0.420112
C	 0.0449099375	 0.1396071273	-0.0724534324	-0.144935
C	 1.3321744027	-0.6974007204	-0.0368497743	-0.010223
O	 2.5823576085	-0.0740931439	-0.0500211327	-0.415772
C	 0.5291008788	-0.4903764855	 1.1933804518	 0.415309
C	 0.9491314154	 0.108651741	 2.5278210598	-0.431084
C	 0.1844192676	-1.0727552731	 3.0949978978	 0.421803
N	-0.071611613	-1.4984029968	 4.2445175136	-0.540355
O	-0.1740036073	-1.5715193991	 1.8507962353	-0.276134
H	 1.0092812133	 2.0588376484	 0.1530128934	 0.132988
H	 0.0458256683	 1.9042731551	-1.321243845	 0.119769
H	-0.76005641	 2.1259249377	 0.235834798	 0.127706
H	-0.794618116	-0.3717569794	-0.5377732717	 0.103695
H	 1.2878367496	-1.6840396678	-0.4980434566	 0.102841
H	 2.7772641565	 0.1942653821	-0.9545009135	 0.294526
H	 2.0215741517	 0.1063561164	 2.7266309912	 0.153415
H	 0.5282579422	 1.084875798	 2.7749514896	 0.138192
H	-0.6326096114	-2.351246654	 4.2077314279	 0.22837
82.8053	151.3761	156.0792	183.0256	216.1809	277.6205	321.0131	376.4827	473.1341	487.5771	505.7023	571.1485	602.5851	772.2599	800.8815	860.6446	873.3663	919.5985	967.9626	996.2778	1007.0182	1034.5937	1053.7226	1089.1684	1134.9581	1140.6666	1166.0098	1182.6454	1215.1363	1273.002	1283.9641	1331.0226	1375.7953	1411.9755	1464.6079	1488.7516	1499.2483	1512.3356	1832.853	3035.5348	3088.8071	3094.708	3105.3253	3117.3862	3143.5907	3144.0375	3476.6562	3801.4536
CC1C(O)C11CC(=N)O1	C[C@H]1[C@@H](O)[C@]21C[C]([NH])O2	
InChI=1S/C6H9NO2/c1-3-5(8)6(3)2-4(7)9-6/h3,5,7-8H,2H2,1H3	InChI=1S/C6H9NO2/c1-3-5(8)6(3)2-4(7)9-6/h3,5,7-8H,2H2,1H3/t3-,5+,6+/m0/s1
