18
gdb 10744	3.0378	1.65784	1.40207	1.1045	73.45	-0.2637	0.0352	0.2989	975.3184	0.150923	-347.755019	-347.746074	-347.74513	-347.787954	33.905	
C	 0.157221652	 1.4155329306	 0.0898930659	-0.393865
C	-0.0421282917	-0.1047309995	 0.0081903112	 0.144697
O	 0.5747103301	-0.6415807591	 1.1852082895	-0.450037
C	-1.4753276336	-0.4383188181	-0.0001879627	 0.317195
C	-2.6392464984	-0.7402162721	-0.002355545	-0.491363
C	 0.6152997095	-0.6601205113	-1.2617803034	 0.028136
C	 2.0988142897	-0.9071900766	-1.299530119	-0.276789
C	 1.1350696803	-2.0696723099	-1.3243850134	-0.278613
H	 1.2269855686	 1.6316057215	 0.1490935152	 0.127607
H	-0.2556794599	 1.9060855088	-0.7950544998	 0.120373
H	-0.3362154473	 1.8128073824	 0.979406658	 0.128215
H	 0.1711096037	-1.497338099	 1.3625680867	 0.288502
H	-3.6695232013	-0.9987426452	-0.0032187186	 0.19915
H	 0.1591395713	-0.2776315283	-2.1701107346	 0.089974
H	 2.6404158766	-0.6553326773	-2.204342901	 0.107746
H	 2.6469681554	-0.7520692208	-0.3775665033	 0.126979
H	 1.0795083	-2.6777835716	-0.4281197452	 0.100763
H	 1.0007084252	-2.6234868944	-2.2465851405	 0.111333
79.1587	142.4165	180.4661	233.7743	239.9406	271.8796	297.5112	388.9544	419.112	468.1814	551.8377	587.0946	623.8921	665.3583	692.9282	789.8588	828.828	864.7802	931.0243	948.8846	968.6809	1058.1077	1062.4597	1081.4843	1088.1332	1138.3778	1170.4569	1197.871	1207.4906	1235.8137	1356.1038	1388.855	1404.4452	1458.6353	1482.3228	1489.5118	1501.8917	2228.6813	3051.9713	3131.7173	3135.9015	3137.5125	3139.9854	3152.5133	3215.6442	3232.7166	3500.156	3824.2557
CC(O)(C#C)C1CC1	C[C@@](O)(C#C)C1CC1	
InChI=1S/C7H10O/c1-3-7(2,8)6-4-5-6/h1,6,8H,4-5H2,2H3	InChI=1S/C7H10O/c1-3-7(2,8)6-4-5-6/h1,6,8H,4-5H2,2H3/t7-/m1/s1
