21
gdb 102562	2.30568	1.08093	0.91571	3.6803	75.1	-0.2511	0.0683	0.3194	1382.2162	0.181022	-461.332708	-461.322602	-461.321657	-461.367895	37.044	
C	-1.7426298855	 0.2733826475	 2.0205043018	-0.435383
C	-0.864224936	-0.7027175599	 1.2825738205	 0.070264
O	-0.05165887	-0.1722562574	 0.2202512353	-0.274871
C	 0.6066471327	-0.7163815285	 1.3861357083	 0.042696
C	 1.4217135058	 0.2190210454	 2.2759599841	-0.043258
C	 2.5652833071	-0.5729521541	 2.9151450156	-0.100354
O	 3.1837183706	 0.2530820684	 3.8863235667	-0.419858
C	 1.9565982079	 1.4450535414	 1.5089489181	-0.061268
O	 0.9245479121	 2.3057369585	 1.0694985845	-0.430953
H	-1.2246826176	 1.2216926623	 2.1788402591	 0.151819
H	-2.6533131857	 0.4703159037	 1.4455982363	 0.129133
H	-2.0424904867	-0.138695714	 2.990343062	 0.123575
H	-1.344442086	-1.6452039231	 1.013962535	 0.093335
H	 1.0978337345	-1.6657424829	 1.1604816213	 0.088556
H	 0.7961664495	 0.5982161889	 3.091696682	 0.099678
H	 2.1667265977	-1.4942688657	 3.3708294883	 0.088884
H	 3.2809005088	-0.880065648	 2.133515923	 0.090956
H	 3.9410735379	-0.2161703638	 4.2475468955	 0.290099
H	 2.5947971373	 2.0240864512	 2.1804240741	 0.124756
H	 2.5820843397	 1.1028713136	 0.6672552914	 0.081259
H	 0.3952390459	 1.7801844667	 0.4544511672	 0.290937
56.448	108.7953	157.3631	171.7101	213.5409	224.5982	248.0767	266.0291	309.6541	390.2543	407.5472	445.9134	544.2813	582.6971	615.7126	775.5316	817.8078	871.1433	925.6517	956.6028	1004.4526	1059.7907	1072.8345	1077.3458	1094.093	1113.943	1141.1993	1170.2865	1187.8899	1227.7194	1243.7396	1262.1457	1304.058	1329.8869	1346.8543	1389.8054	1402.8456	1425.649	1450.0977	1459.9995	1465.5983	1501.123	1510.0581	1512.8918	1522.0393	2953.1486	2964.5424	2981.9678	3038.1479	3053.1562	3077.3117	3096.4972	3101.2256	3105.757	3137.9664	3748.599	3835.3684
CC1OC1C(CO)CO	C[C@H]1O[C@H]1C(CO)CO	
InChI=1S/C6H12O3/c1-4-6(9-4)5(2-7)3-8/h4-8H,2-3H2,1H3	InChI=1S/C6H12O3/c1-4-6(9-4)5(2-7)3-8/h4-8H,2-3H2,1H3/t4-,6-/m1/s1
