16
gdb 96703	3.15797	1.06988	0.87094	2.5667	70.91	-0.2515	-0.0772	0.1743	1337.4727	0.119646	-475.056834	-475.046758	-475.045814	-475.093254	33.57	
C	-0.4664195897	 1.8274993256	-0.1515528811	-0.32662
N	-0.7254740808	 0.4023980799	-0.077347887	-0.228581
C	-0.0165215716	-0.4542971657	-0.656917689	 0.312907
O	-0.4577081349	-1.7813539369	-0.5686420708	-0.242777
C	 0.470326061	-2.7164119664	-0.2135272794	 0.424172
C	-0.1541891347	-4.0828937337	-0.145881958	-0.481859
O	 1.6196179892	-2.4422805507	 0.0153307583	-0.335098
C	 1.1840977173	-0.2724810405	-1.5558096831	 0.104703
O	 1.8547608899	 0.7267713969	-1.5713957678	-0.24395
H	 0.098435681	 2.1215302809	 0.7410387771	 0.15085
H	 0.105505598	 2.1458581641	-1.02610305	 0.148876
H	-1.4269660297	 2.3487411897	-0.1123289285	 0.132601
H	-0.6137663023	-4.3330364885	-1.1061001142	 0.157543
H	 0.6070283266	-4.817933148	 0.1112741043	 0.156435
H	-0.9493559366	-4.0866555718	 0.6050916089	 0.164902
H	 1.3727834073	-1.1216019448	-2.2415034794	 0.105895
47.4135	74.7157	83.5154	96.6641	116.7311	227.4195	263.8518	286.3949	343.0652	378.1972	424.7669	524.8897	592.6263	605.2211	720.2522	848.6026	918.4641	995.9038	1020.3557	1064.7639	1080.6375	1115.4458	1136.321	1182.3181	1250.898	1396.7505	1423.8591	1438.3633	1466.5522	1473.2881	1475.3959	1495.5173	1752.675	1815.5656	1829.2963	2940.2955	3034.0036	3059.6328	3093.608	3124.9553	3125.0808	3174.1113
CN=C(OC(C)=O)C=O	CN=C(OC(=O)C)C=O	
InChI=1S/C5H7NO3/c1-4(8)9-5(3-7)6-2/h3H,1-2H3	InChI=1S/C5H7NO3/c1-4(8)9-5(3-7)6-2/h3H,1-2H3
