16
gdb 125682	2.6874	1.57019	0.99818	2.672	73.71	-0.2351	-0.0198	0.2153	1130.4969	0.126589	-430.27391	-430.265453	-430.264509	-430.307213	31.18	
C	-0.0696234724	 1.5209384972	-0.0943037174	-0.478262
C	-0.0316406989	 0.0355790939	 0.020440999	 0.2389
N	-0.0159574843	-0.7561880248	-1.0537826544	-0.256017
N	 0.0180180484	-1.9839012902	-0.5432016771	-0.081227
N	 0.0247850917	-2.0732741944	 0.7733782708	-0.30556
C	-0.006230841	-0.7956076598	 1.1686476853	 0.294929
C	-0.0030284345	-0.4333317306	 2.5964555102	 0.250641
N	-0.0936292172	-1.5098114089	 3.4522465857	-0.553648
N	 0.0443543902	 0.809242866	 2.9130711747	-0.540296
H	 0.8059847245	 1.9683052834	 0.3831960057	 0.149035
H	-0.1032267711	 1.8102601737	-1.1466885107	 0.127195
H	-0.9398882174	 1.9271586915	 0.4277536002	 0.147767
H	 0.0353280251	-2.8010092225	-1.1314871311	 0.293113
H	 0.107014632	-2.4198300678	 3.0669643903	 0.266816
H	 0.1787222691	-1.364619908	 4.410833833	 0.246497
H	 0.037079526	 0.9299790913	 3.9275920357	 0.200118
67.8055	107.5484	193.216	204.6516	292.1545	316.9839	398.6668	420.3757	462.4453	499.5741	529.8286	650.2756	653.145	715.3713	717.6254	801.6783	856.0313	991.0425	1027.8219	1071.7593	1088.5721	1133.5406	1176.4674	1197.7406	1255.5736	1359.4626	1385.8496	1417.2113	1462.0934	1470.9517	1474.9897	1547.5215	1556.506	1631.6162	1708.2761	3055.4747	3117.1359	3141.8259	3453.1176	3581.8301	3670.0435	3702.4683
CC1=NNN=C1C(N)=N	Cc1n[nH]nc1C(=N)N	
InChI=1S/C4H7N5/c1-2-3(4(5)6)8-9-7-2/h1H3,(H3,5,6)(H,7,8,9)	InChI=1S/C4H7N5/c1-2-3(4(5)6)8-9-7-2/h1H3,(H3,5,6)(H,7,8,9)
