22
gdb 58357	2.10899	1.26056	0.98282	2.5859	83.05	-0.2461	-0.0261	0.2199	1334.6336	0.191351	-404.328537	-404.318206	-404.317262	-404.364147	37.44	
C	-0.1733964666	 1.4204312113	-0.0792932441	-0.398119
C	 0.1307112942	-0.0738193441	 0.1028153925	 0.022331
C	 0.8804881305	-0.6540774179	-1.1019044636	-0.400579
C	 0.8788430275	-0.3671629303	 1.4336723971	-0.056449
C	 2.1531383206	 0.4597281278	 1.5490423761	 0.163966
O	 3.1858513899	 0.195850606	 0.987462056	-0.256812
N	 0.027029305	-0.046489081	 2.5754456496	-0.071749
C	-0.89815133	-1.0854040492	 3.0122070859	-0.220585
C	 0.30733888	-0.7590827495	 3.8213329466	-0.231982
H	 0.7418520361	 1.9939860525	-0.2663157947	 0.12004
H	-0.8335250748	 1.5729494962	-0.9387164358	 0.112413
H	-0.6604160508	 1.8325809861	 0.8079640526	 0.132019
H	-0.8275980795	-0.6025422429	 0.1957577149	 0.079309
H	 1.87523618	-0.2109967935	-1.2033740237	 0.141003
H	 1.0095257046	-1.7376693343	-1.0096502027	 0.11006
H	 0.3241060857	-0.4591198495	-2.0243714115	 0.110333
H	 1.1824231532	-1.4295087547	 1.4239417219	 0.075296
H	 2.0546797096	 1.3567300374	 2.1998746017	 0.090754
H	-1.8810789857	-0.7443692538	 3.3237199248	 0.121977
H	-0.8938769605	-2.0318556138	 2.4736543847	 0.115457
H	 1.1166061278	-1.4876313082	 3.8223728241	 0.11888
H	 0.2210828934	-0.1721560346	 4.7308195072	 0.122438
64.0663	79.1721	101.9993	171.4442	197.4842	220.5608	233.7164	264.1602	302.6839	361.0224	420.6363	464.9219	497.6752	542.2567	791.4385	803.246	881.7047	904.641	919.0013	936.7256	968.9237	997.0766	1010.145	1039.3092	1074.2626	1113.6598	1121.8276	1132.4791	1158.7886	1180.255	1196.7458	1205.2622	1277.9318	1312.5091	1321.9772	1355.2933	1369.8062	1402.3489	1417.2049	1423.5775	1490.3336	1491.4514	1494.1527	1503.8187	1514.5185	1518.4512	1828.5192	2889.659	2938.1795	3010.1505	3033.0022	3036.5179	3095.1153	3096.9373	3099.3236	3099.7525	3118.0459	3123.6236	3179.8079	3194.0661
CC(C)C(C=O)N1CC1	CC(C)[C@@H](C=O)N1CC1	
InChI=1S/C7H13NO/c1-6(2)7(5-9)8-3-4-8/h5-7H,3-4H2,1-2H3	InChI=1S/C7H13NO/c1-6(2)7(5-9)8-3-4-8/h5-7H,3-4H2,1-2H3/t7-/m1/s1
