12
gdb 129215	3.19256	1.55005	1.04344	5.4295	73.27	-0.2521	-0.1156	0.1365	1025.8775	0.079893	-427.851527	-427.844469	-427.843525	-427.883403	25.858	
N	-0.0959876035	 1.3409869126	 0.0108581236	-0.529147
C	-0.0133864922	 0.069572169	 0.0034115417	 0.355582
N	 1.1461531799	-0.7124909465	-0.0081092904	-0.287399
N	 1.2110277076	-2.0506671036	-0.0158385659	-0.153283
C	 0.0729229778	-2.6749162144	-0.0121301159	 0.060704
N	-1.1693549914	-2.0862659073	-0.0011164483	-0.298754
C	-1.2118478891	-0.7919456254	 0.0062345621	 0.192437
C	-2.4969179755	-0.1458580581	 0.017809452	 0.317793
N	-3.5414429128	 0.3496275589	 0.0270607363	-0.308524
H	 0.8157468174	 1.7998297982	 0.0076425344	 0.218257
H	 2.0460499888	-0.2523796719	-0.0112283066	 0.279609
H	 0.105908423	-3.7562910215	-0.0182553929	 0.152727
85.1304	158.589	191.5993	371.292	372.8861	467.9272	480.6931	558.9824	600.3158	612.3441	671.9874	725.5944	800.5416	822.8883	897.6161	913.0345	1071.5611	1114.8939	1194.8768	1215.7111	1346.957	1398.6731	1449.1389	1544.3774	1622.6291	1718.8432	2353.9836	3231.8163	3473.9594	3600.0022
N=C1NN=CN=C1C#N	[NH]c1[nH]ncnc1C#N	
InChI=1S/C4H3N5/c5-1-3-4(6)9-8-2-7-3/h2H,(H2,6,9)	InChI=1S/C4H8N5/c5-1-3-4(6)9-8-2-7-3/h3-4,6-9H,2H2
