16
gdb 67768	3.25238	1.67689	1.34912	2.977	73.31	-0.2237	-0.0323	0.1914	957.0097	0.124592	-400.728995	-400.721917	-400.720973	-400.760165	28.283	
C	-0.0024884808	 1.4688135508	 0.0293549491	-0.491478
C	 0.0201729221	-0.03988768	-0.0068175969	 0.311905
C	-0.4587805839	-0.7670196796	-1.232705721	-0.14701
C	-0.878843731	-1.9791394026	-0.8765742527	-0.087075
C	-0.5819322911	-2.1589066257	 0.589829063	-0.201655
N	-0.4955416414	-0.7419988795	 1.1749235519	-0.152871
C	 1.0219290528	-0.7430530319	 0.8893905469	-0.24015
C	 0.9606889152	-2.2287836045	 0.7690794034	 0.463533
O	 1.7345594996	-3.1145671648	 0.9892536068	-0.321506
H	 0.7306983758	 1.8849194135	-0.6688293039	 0.128452
H	-0.9944487222	 1.8352990819	-0.2534495469	 0.134595
H	 0.2238059245	 1.8376838845	 1.0327374575	 0.136737
H	-0.4404569543	-0.334302397	-2.2239049439	 0.116222
H	-1.2395111234	-2.7714479452	-1.5184183241	 0.125053
H	-1.1834814272	-2.8615143498	 1.1641904705	 0.106279
H	 1.7406432853	-0.1906094102	 1.4849942803	 0.118968
150.3505	193.6517	235.3825	313.1589	360.009	444.4079	506.7646	560.1585	634.3751	705.6081	737.709	743.3487	804.0782	822.0816	856.4745	867.0798	932.0021	978.0891	987.8294	999.7091	1007.4752	1059.8337	1101.9871	1123.7952	1144.5989	1206.494	1233.6614	1294.2107	1334.2461	1361.0595	1415.9814	1485.3442	1492.4234	1661.5403	1883.4154	3040.4465	3108.651	3126.469	3137.0705	3180.2247	3217.0996	3241.23
CC12C=CC3N1C2C3=O	C[C@]12C=C[C@@H]3N1[C@H]2C3=O	
InChI=1S/C7H7NO/c1-7-3-2-4-5(9)6(7)8(4)7/h2-4,6H,1H3	InChI=1S/C7H7NO/c1-7-3-2-4-5(9)6(7)8(4)7/h2-4,6H,1H3/t4-,6-,7+,8?/m0/s1
