17
gdb 34325	2.32762	1.80549	1.32162	3.36	79.14	-0.2469	-0.0134	0.2335	1008.3734	0.138118	-380.850325	-380.842811	-380.841867	-380.882255	29.214	
N	-0.1517328481	-1.2110255312	-0.0586760501	-0.347217
C	-0.0821213539	-0.0570141159	-0.0084765405	 0.240053
C	-0.0248973147	 1.4078458039	 0.0153781483	 0.164297
C	-0.6784880577	 2.0242053315	 1.2735330212	-0.293914
C	 0.5562557065	 2.3339956964	 2.1827056432	-0.250327
C	 1.6766587814	 2.5826269777	 1.1743145144	-0.206417
C	 1.3663481707	 2.0060560677	 0.0226312036	 0.239205
C	 1.3283557831	 2.1325160408	-1.4816055098	-0.264852
N	-0.1726581116	 2.004878915	-1.3606065127	-0.365642
H	-1.1595305441	 2.9582443368	 0.9710481299	 0.128308
H	-1.4217106336	 1.3829003015	 1.7525716557	 0.114452
H	 0.3845030009	 3.208878257	 2.8173681782	 0.11623
H	 0.7799914778	 1.49752103	 2.8576689424	 0.126496
H	 2.5288259102	 3.2196186486	 1.3787787677	 0.111549
H	 1.6673006143	 3.0773794483	-1.9142127373	 0.128825
H	 1.7960485034	 1.2960152289	-2.0166941645	 0.125866
H	-0.5854715945	 1.3676803829	-2.0371172797	 0.233087
107.1842	145.8172	221.716	256.5719	326.9059	388.5734	496.6216	557.2045	574.4766	647.9227	674.7446	732.2693	804.8285	847.4948	873.1219	901.848	929.1227	950.967	977.575	1007.6453	1028.5512	1087.2947	1115.9829	1146.5736	1166.3252	1189.1793	1222.4391	1271.5149	1287.8692	1310.0122	1325.9875	1371.2794	1476.453	1492.5592	1500.0115	1751.735	2337.1808	3020.6277	3026.3356	3066.6567	3080.8604	3094.1698	3124.6737	3206.7627	3503.163
N#CC12CCC=C1CN2	N#C[C@@]12CC[CH][C]1CN2	
InChI=1S/C7H8N2/c8-5-7-3-1-2-6(7)4-9-7/h2,9H,1,3-4H2	InChI=1S/C7H8N2/c8-5-7-3-1-2-6(7)4-9-7/h2,9H,1,3-4H2/t7-/m0/s1
