16
gdb 29951	3.37661	1.38493	0.98812	2.2308	76.85	-0.205	-0.0265	0.1785	1139.9941	0.127096	-434.12343	-434.115699	-434.114755	-434.155551	29.645	
C	-0.0307357406	 1.4284421629	 0.0204380134	-0.3241
N	-0.0062520317	-0.0297056486	 0.0139174329	-0.092449
C	-0.0336664539	-0.7240419153	-1.1407812931	 0.11565
N	-0.015690067	-2.0170932386	-1.2545206758	-0.401671
C	 0.0360709591	-2.7126881811	-0.0736816891	 0.428955
O	 0.0541935861	-4.0506700697	-0.2060787596	-0.412642
C	 0.0678099269	-2.128548715	 1.1544034689	-0.308649
C	 0.0475158524	-0.6937508568	 1.2729842056	 0.385578
N	 0.0699607627	 0.0578238775	 2.3150960839	-0.588806
H	 0.8603065835	 1.8118889988	 0.5217080332	 0.160637
H	-0.0706630502	 1.7867075096	-1.0095980097	 0.124192
H	-0.8993825092	 1.782223477	 0.5795364021	 0.160558
H	-0.0744420294	-0.1210546543	-2.0444063744	 0.133263
H	 0.0249584961	-4.2265077663	-1.1564323939	 0.301531
H	 0.1084085685	-2.7289569777	 2.0535862057	 0.105857
H	 0.1080928169	-0.5167655225	 3.1547305199	 0.212098
121.0426	159.5638	188.0556	282.333	345.367	372.4527	448.9632	456.8563	509.8925	543.4582	613.2944	709.5877	749.5359	761.4004	794.3602	812.5134	848.5661	968.12	972.6545	1091.3097	1110.6002	1157.8002	1204.0787	1208.5063	1281.5104	1346.725	1397.9715	1408.7136	1458.3738	1460.7787	1475.5379	1518.2396	1618.0839	1658.8214	1724.6374	3060.101	3133.5475	3149.976	3168.3731	3218.0971	3503.9344	3774.9561
CN1C=NC(O)=CC1=N	CN1C=N[C@@H](O)C=C1[NH]	
InChI=1S/C5H7N3O/c1-8-3-7-5(9)2-4(8)6/h2-3,6,9H,1H3	InChI=1S/C5H8N3O/c1-8-3-7-5(9)2-4(8)6/h2-3,5-6,9H,1H3/t5-/m0/s1
