22
gdb 120757	3.22112	0.87283	0.77105	1.6961	82.76	-0.2438	0.0861	0.3299	1585.7999	0.193986	-404.306088	-404.29642	-404.295476	-404.341432	35.343	
C	 0.3986595203	 1.4617937482	-0.0857220922	-0.382828
C	 0.5051663711	-0.0602260217	 0.0331504314	-0.159049
C	 0.3325555028	-0.559945015	 1.4752168106	-0.231067
C	 0.4201319295	-2.0636208691	 1.5721535806	 0.068458
O	 1.7102007025	-2.6794637509	 1.3782272764	-0.267633
C	 1.0828967114	-2.8056071336	 2.6584345172	 0.016382
C	 1.7909149401	-2.1536363823	 3.8106299101	-0.032068
C	 3.1921848867	-2.5426533505	 4.1108923598	-0.239756
N	 2.886509384	-1.2101591537	 3.5593235058	-0.315368
H	 1.1613029426	 1.960088032	 0.5227329519	 0.119709
H	 0.5314479468	 1.7899940637	-1.1211822084	 0.113506
H	-0.5796974923	 1.8196767222	 0.2543703098	 0.11318
H	-0.2491664409	-0.5348163224	-0.6082968567	 0.094364
H	 1.4791931132	-0.3970275813	-0.341098816	 0.112081
H	 1.0765459589	-0.093274694	 2.1274844606	 0.127651
H	-0.6524963077	-0.2544969195	 1.8549684856	 0.099656
H	-0.373420707	-2.5936831663	 1.039611751	 0.090173
H	 0.7086622894	-3.8094518588	 2.8729136136	 0.094245
H	 1.1403052706	-1.8791991919	 4.6392855042	 0.097544
H	 3.5486203099	-2.5489187379	 5.1368204424	 0.11815
H	 3.6622967083	-3.2709263392	 3.4551710958	 0.121583
H	 3.0818271498	-1.2345414079	 2.5591896466	 0.241089
58.4146	87.9831	99.7817	135.7639	195.4799	239.6034	248.5298	309.4036	343.4627	488.7483	545.955	626.7073	741.2269	756.5453	806.2624	858.302	874.4418	893.8447	904.7834	955.1866	981.1634	1001.9338	1036.2978	1058.115	1104.607	1115.0862	1128.3756	1143.8715	1161.6835	1180.8803	1196.5128	1264.9875	1278.0523	1292.8999	1307.3273	1316.5784	1329.9158	1381.0996	1395.5797	1412.8163	1423.2861	1480.4191	1485.4564	1494.3219	1499.8721	1505.6464	1510.7976	3017.5353	3021.8915	3030.1779	3057.8002	3071.2858	3083.1564	3094.3525	3101.8964	3104.2143	3109.8194	3122.7924	3198.0126	3478.9398
CCCC1OC1C1CN1	CCC[C@H]1O[C@H]1[C@H]1CN1	
InChI=1S/C7H13NO/c1-2-3-6-7(9-6)5-4-8-5/h5-8H,2-4H2,1H3	InChI=1S/C7H13NO/c1-2-3-6-7(9-6)5-4-8-5/h5-8H,2-4H2,1H3/t5-,6-,7+/m1/s1
