20
gdb 12733	2.68665	2.02955	1.68773	1.2479	74.09	-0.2416	0.0767	0.3183	908.1758	0.17665	-348.982856	-348.974657	-348.973713	-349.015131	31.725	
C	 0.1683336787	 1.6198453974	-0.0848346997	-0.421216
C	 0.0590940219	 0.1090010423	 0.0562468982	-0.011904
C	 0.8718643139	-0.8206330441	-0.8991613135	-0.258188
C	 1.2740276232	-1.7267623802	 0.3033279195	-0.051902
C	 2.6916862222	-1.4603497147	 0.8572470209	-0.21732
C	 2.1406835122	-0.2488405982	 1.6721173882	-0.297522
C	 0.6839901494	-0.6425523358	 1.2636253957	 0.402264
O	-0.1676451199	-1.0269887113	 2.3095406464	-0.485014
H	 1.2113356926	 1.9547148354	-0.0799679571	 0.114127
H	-0.2779097745	 1.9583802512	-1.0265137002	 0.116821
H	-0.3526634503	 2.1386839223	 0.7287156384	 0.106591
H	-0.9951606493	-0.1893911349	 0.0285337949	 0.076827
H	 0.287862649	-1.3047244052	-1.6846424225	 0.100544
H	 1.7291762405	-0.3266281756	-1.3685109539	 0.092293
H	 0.9005730386	-2.7506001887	 0.2861065295	 0.068738
H	 3.0548482896	-2.2637334072	 1.5029934249	 0.102825
H	 3.4636297343	-1.2394711321	 0.1144244609	 0.093414
H	 2.3032669199	-0.3237755161	 2.7498754579	 0.10044
H	 2.4775653697	 0.7358272506	 1.3379924675	 0.094559
H	-0.3217847216	-0.2583638853	 2.8704920439	 0.273623
72.6094	194.5913	199.541	214.5021	239.974	331.1992	388.5037	417.5636	484.6476	583.9643	619.3307	739.9436	764.6735	830.5252	870.8954	880.8342	923.3238	944.837	957.8664	1000.3082	1021.1836	1048.5608	1120.0278	1129.9696	1151.044	1176.3788	1187.2104	1216.5891	1232.7692	1246.5521	1263.6826	1272.5346	1294.137	1312.5476	1357.5149	1380.7254	1408.0917	1465.9273	1483.5208	1492.2996	1496.9446	1501.4107	3021.8676	3038.874	3047.0123	3051.9694	3061.2055	3084.456	3091.7855	3096.4636	3102.1331	3114.2723	3120.5115	3790.4491
CC1CC2CCC12O	C[C@H]1C[C@H]2CC[C@@]12O	
InChI=1S/C7H12O/c1-5-4-6-2-3-7(5,6)8/h5-6,8H,2-4H2,1H3	InChI=1S/C7H12O/c1-5-4-6-2-3-7(5,6)8/h5-6,8H,2-4H2,1H3/t5-,6+,7+/m0/s1
