15
gdb 45720	3.41018	1.17672	0.90085	4.1956	72.59	-0.2426	-0.0283	0.2142	1201.1404	0.114638	-416.869812	-416.862098	-416.861154	-416.902426	28.774	
O	 0.0139524426	-0.0726768543	 0.0163350229	-0.343927
C	-0.0210650303	 1.1370658942	 0.039726491	 0.390843
C	-1.31513785	 1.9438113749	 0.075116408	-0.326846
C	-1.1808132654	 3.2855703251	 0.8359350593	-0.212212
C	 0.0781154742	 4.0121046528	 0.4037127089	-0.117633
C	 1.1385786054	 3.3000478098	 0.0220095941	 0.01242
N	 1.123648757	 1.905640692	-0.0376839731	-0.332194
C	-2.3802691019	 4.1053359565	 0.6458969984	 0.269157
N	-3.3261977523	 4.7504721043	 0.4908824632	-0.316771
H	-1.587119152	 2.1507516876	-0.9672975199	 0.155076
H	-2.0958647357	 1.3127873791	 0.5004592732	 0.153605
H	-1.1151977034	 3.0709602315	 1.914356114	 0.145778
H	 0.1153290415	 5.0916519533	 0.4404912895	 0.126147
H	 2.0800339898	 3.7589610029	-0.2549324908	 0.133413
H	 1.9835048505	 1.3941739304	-0.1682571186	 0.263145
90.5986	127.1248	149.3975	252.5778	384.9953	435.7698	449.8756	498.9519	556.9335	575.0411	583.9538	662.9931	725.1966	764.3418	849.1026	937.9063	945.3755	985.8682	1043.6589	1066.4205	1111.6576	1165.2111	1229.3269	1279.2789	1291.3805	1313.0361	1358.2889	1417.3606	1459.2692	1467.8723	1722.5631	1816.0074	2362.1231	2982.6435	3048.9307	3137.4637	3206.1562	3237.4947	3628.2301
O=C1CC(C=CN1)C#N	O=C1C[C@@H](C=CN1)C#N	
InChI=1S/C6H6N2O/c7-4-5-1-2-8-6(9)3-5/h1-2,5H,3H2,(H,8,9)	InChI=1S/C6H6N2O/c7-4-5-1-2-8-6(9)3-5/h1-2,5H,3H2,(H,8,9)/t5-/m1/s1
