19
gdb 30872	2.6838	1.25831	0.90815	1.1713	81.38	-0.1638	0.0546	0.2184	1318.0245	0.158578	-419.228278	-419.218118	-419.217174	-419.263902	36.074	
C	 0.3397763146	 0.9480000788	-0.3717926631	-0.25083
O	-0.2639271548	 0.2374364377	 0.713885693	-0.280158
C	-1.3263278101	-0.5337229085	 0.3565512069	 0.269363
C	-1.371284142	-1.8263109466	-0.1069771091	 0.171694
N	-0.255118426	-2.6358947212	-0.4163388905	-0.620707
C	-2.7512493892	-2.1436954162	-0.2921065738	-0.303726
C	-3.5025125532	-1.0432905246	 0.0636369864	 0.31899
C	-4.9813674729	-0.84334004	 0.0893392433	-0.501568
N	-2.6244706975	-0.0553748961	 0.4389516653	-0.362399
H	 1.1908433011	 1.4930417751	 0.0435424477	 0.12413
H	 0.6865414904	 0.2569769108	-1.1486289711	 0.132982
H	-0.365020452	 1.6602235259	-0.8191697773	 0.112671
H	 0.5504681528	-2.3578802387	 0.1335045158	 0.239004
H	-0.4421582044	-3.6129451629	-0.2232923506	 0.237329
H	-3.1477291358	-3.0800463949	-0.6569272548	 0.080612
H	-5.3575170672	-0.6306123299	 1.0987594864	 0.121776
H	-5.3016875303	-0.0159727834	-0.5569236922	 0.122805
H	-5.4824918575	-1.7482534627	-0.2624940949	 0.134498
H	-2.869843076	 0.8282512073	 0.8504337125	 0.253534
37.4608	98.2826	131.9253	153.8704	193.7041	208.4701	257.3016	274.5656	278.945	385.8065	431.2932	500.8932	587.7325	636.7935	655.547	693.4172	765.546	801.3392	843.1913	998.1344	1012.6717	1018.9412	1059.8116	1082.3992	1173.8389	1177.7057	1203.0293	1239.3122	1252.3878	1345.0916	1417.1244	1441.6389	1457.7198	1478.6867	1485.1407	1502.0749	1503.723	1512.6474	1566.3812	1647.6318	1682.5493	3009.4087	3010.8499	3051.0379	3078.2148	3118.9177	3122.7967	3234.5077	3510.6312	3597.2381	3679.2559
COC1=C(N)C=C(C)N1	COc1c(N)cc(C)[nH]1	
InChI=1S/C6H10N2O/c1-4-3-5(7)6(8-4)9-2/h3,8H,7H2,1-2H3	InChI=1S/C6H10N2O/c1-4-3-5(7)6(8-4)9-2/h3,8H,7H2,1-2H3
