17
gdb 28453	3.1269	1.39796	0.9777	1.412	80.76	-0.2321	-0.0357	0.1964	1192.7907	0.136218	-418.087069	-418.078541	-418.077596	-418.120352	31.499	
C	 0.0085869582	 1.4883424846	 0.0677455013	-0.471963
C	 0.007870538	-0.0125672819	 0.0017482607	 0.307867
C	-0.181073343	-0.7124450473	-1.1833189464	-0.091138
N	-0.180620926	-2.0519798882	-1.2355222956	-0.288617
C	 0.0080700479	-2.7245305065	-0.1083208229	 0.244324
C	 0.0150822801	-4.225277814	-0.1269820558	-0.476238
C	 0.1991762279	-2.0013150801	 1.09093865	 0.363383
O	 0.3905693459	-2.6935983895	 2.2338785012	-0.411088
N	 0.2003114869	-0.6845522678	 1.1519010124	-0.396469
H	 0.9621879898	 1.8561105561	 0.4605933593	 0.139948
H	-0.1552732358	 1.9296585581	-0.9181156553	 0.126213
H	-0.7753451413	 1.8444841975	 0.7441692342	 0.139949
H	-0.3377772646	-0.1868279134	-2.1207737245	 0.103969
H	 0.9678495209	-4.6201948498	 0.2427074669	 0.137249
H	-0.7652307385	-4.6318140605	 0.5258848928	 0.137249
H	-0.1491807302	-4.5761317669	-1.1466874438	 0.137546
H	 0.5004766838	-2.0340068202	 2.9335684956	 0.297815
89.9477	116.7287	123.9726	229.3981	278.3137	296.1568	340.3395	470.4351	496.4848	509.8032	554.5118	588.1445	643.0677	726.301	769.1464	801.5025	904.374	967.235	1025.2779	1033.3445	1057.9703	1060.815	1167.9225	1231.0569	1290.6209	1306.8935	1324.3897	1405.997	1410.8393	1445.066	1474.2278	1475.6443	1477.5387	1492.7322	1514.859	1597.9247	1634.0854	3036.342	3039.4634	3087.8877	3097.6022	3127.1799	3145.5634	3167.8685	3757.8183
CC1=CN=C(C)C(O)=N1	Cc1cnc(C)c(O)n1	
InChI=1S/C6H8N2O/c1-4-3-7-5(2)6(9)8-4/h3H,1-2H3,(H,8,9)	InChI=1S/C6H8N2O/c1-4-3-7-5(2)6(9)8-4/h3H,1-2H3,(H,8,9)
