13
gdb 25334	3.93707	1.17699	0.90611	1.2688	70.79	-0.2524	-0.0955	0.1569	1167.5622	0.089616	-456.613289	-456.606096	-456.605152	-456.645371	26.288	
O	-0.009504997	-0.0363295627	-0.001694445	-0.248464
C	 0.01383417	 1.1667846187	 0.0079816327	 0.109927
C	 1.2561876041	 1.9803164517	 0.001160923	 0.289963
C	 1.250319685	 3.3291568716	 0.0129256101	-0.313041
C	 2.4999178191	 4.1063711863	 0.0053942574	 0.393683
O	 2.5316909732	 5.3263538886	 0.0167494244	-0.360533
C	 3.6859695463	 3.2445349736	-0.0145042661	-0.270248
C	 3.5714994004	 1.9058460935	-0.0248695633	 0.073696
O	 2.3924716793	 1.2446207251	-0.0177688554	-0.206314
H	-0.9075016776	 1.7851954164	 0.0236674624	 0.102111
H	 0.3067586947	 3.8632709589	 0.0281425246	 0.137602
H	 4.6664615594	 3.7040501412	-0.0209850519	 0.134446
H	 4.4013935232	 1.210177457	-0.039814293	 0.157172
95.9666	160.0968	193.4433	248.3142	390.1084	418.4642	474.7352	510.8075	575.9586	684.0127	737.6521	796.2863	857.6464	896.9983	914.1197	956.731	978.6781	1023.9101	1067.2847	1160.5112	1228.7346	1282.9674	1396.3638	1419.2798	1426.0578	1622.9064	1675.0259	1757.485	1816.2572	2922.6867	3204.7675	3212.3822	3230.4083
O=CC1=CC(=O)C=CO1	O=Cc1cc(=O)cco1	
InChI=1S/C6H4O3/c7-4-6-3-5(8)1-2-9-6/h1-4H	InChI=1S/C6H4O3/c7-4-6-3-5(8)1-2-9-6/h1-4H
