15
gdb 52065	2.7474	1.11375	0.90403	4.7394	67.55	-0.2674	-0.0084	0.2589	1263.1777	0.111477	-453.950494	-453.941584	-453.94064	-453.985584	30.778	
O	-0.043236568	 0.6937304026	 0.960316188	-0.31118
C	 0.0983918619	 1.3568204341	-0.0421612344	 0.166069
N	 1.2894502378	 1.5639714998	-0.678048134	-0.278702
C	 2.5335938666	 1.014305811	-0.1865006434	-0.22974
C	 3.5775979502	 2.0936072707	 0.0340579976	 0.21959
C	 5.0016851578	 1.8400406115	-0.2587685256	-0.204562
O	 4.1972556141	 2.5956963909	-1.1600724336	-0.25338
C	 3.2428165586	 3.1161421648	 1.0116573911	 0.280522
N	 2.9676997599	 3.917177327	 1.7972994596	-0.320336
H	-0.735687478	 1.8682009765	-0.5585424831	 0.089637
H	 1.3051043135	 2.1206293785	-1.5184028405	 0.26355
H	 2.3006599013	 0.5007809612	 0.7498819325	 0.170541
H	 2.9512355551	 0.2858567745	-0.8913621194	 0.124887
H	 5.7623220237	 2.4023128849	 0.2773940019	 0.148168
H	 5.2922440756	 0.8486294721	-0.6018489766	 0.134936
38.2222	54.3249	134.6006	191.1111	232.075	246.5123	300.6684	375.5582	439.4891	541.3827	574.9437	593.5379	700.8504	776.6991	836.0801	912.9179	956.2554	996.7788	1034.5851	1056.1709	1131.962	1172.2661	1202.7816	1225.5737	1293.1024	1344.1249	1405.1111	1428.0086	1474.0471	1518.1002	1528.0751	1810.4092	2363.7209	2960.2537	3038.5304	3097.2346	3117.8276	3195.1789	3633.6674
O=CNCC1(CO1)C#N	O=CNC[C@]1(CO1)C#N	
InChI=1S/C5H6N2O2/c6-1-5(3-9-5)2-7-4-8/h4H,2-3H2,(H,7,8)	InChI=1S/C5H6N2O2/c6-1-5(3-9-5)2-7-4-8/h4H,2-3H2,(H,7,8)/t5-/m0/s1
