18
gdb 10546	2.9216	1.49044	1.12051	1.4102	75.31	-0.2411	0.0547	0.2959	1115.9563	0.151244	-347.74367	-347.734666	-347.733722	-347.777447	32.588	
C	-0.1605313099	 1.3982585237	-0.1136666068	-0.222685
O	-0.2760499173	 0.0018340746	-0.2407825834	-0.229179
C	 0.8012146879	-0.5747489843	-0.9429473012	-0.124752
C	 0.6456681727	-2.0819928574	-0.9356507139	 0.145762
C	-0.3454486433	-2.6851323549	-1.9190940869	-0.279202
C	 1.1248229475	-2.8419681659	-2.1666099192	-0.305599
C	 0.8006482434	-2.7167404679	 0.3462620427	 0.288619
C	 0.9462954626	-3.247831369	 1.4155651011	-0.470562
H	 0.7515769691	 1.6857058358	 0.4331392852	 0.105428
H	-0.1426634881	 1.900267153	-1.0948372795	 0.10011
H	-1.0320039543	 1.7482704182	 0.4446296418	 0.12888
H	 0.8205388681	-0.2131223986	-1.9858058949	 0.078209
H	 1.7600959671	-0.2923942745	-0.4779277598	 0.094416
H	-0.9070022121	-3.5499444585	-1.5882389698	 0.129718
H	-0.9043912561	-1.9872203373	-2.5322540102	 0.123839
H	 1.5833128994	-2.2620191498	-2.960516606	 0.117679
H	 1.5754206544	-3.8120939851	-1.9967923476	 0.129261
H	 1.063550949	-3.7125502922	 2.3626913785	 0.190057
69.4176	94.8816	140.6276	186.3149	220.1635	239.3814	322.1312	374.2523	404.7257	539.9245	560.8418	583.4138	645.4865	722.9918	786.8034	880.1129	944.337	946.5217	957.4186	1012.355	1051.7746	1071.0012	1087.155	1157.346	1183.5599	1192.142	1228.234	1250.7061	1298.1352	1346.561	1418.1318	1466.2031	1480.1521	1486.1183	1494.6556	1502.5901	1522.1201	2236.5615	2947.3707	2967.8317	2986.3229	3009.9416	3115.6528	3139.3031	3145.234	3226.0043	3240.401	3505.2782
COCC1(CC1)C#C	COCC1(CC1)C#C	
InChI=1S/C7H10O/c1-3-7(4-5-7)6-8-2/h1H,4-6H2,2H3	InChI=1S/C7H10O/c1-3-7(4-5-7)6-8-2/h1H,4-6H2,2H3
