21
gdb 80857	1.82799	1.8145	1.65904	1.6474	77.52	-0.2393	0.0673	0.3066	1035.6635	0.182037	-424.214661	-424.205749	-424.204804	-424.247406	35.027	
C	-0.2727049778	 1.6190031968	-0.1341173815	-0.437676
C	 0.0026306618	 0.1290973594	-0.007399746	 0.00198
C	 1.1734655859	-0.5953330726	-0.7113055966	 0.057241
C	 2.4460218593	 0.1324946367	-0.2393795598	-0.271464
C	 2.1052520926	 0.1373632907	 1.2863336776	 0.090093
O	 2.002387082	 1.4086703977	 1.9060489134	-0.438319
C	 0.7180987132	-0.549261175	 1.201181598	 0.387997
C	 0.038004874	-0.9363371699	 2.4820810206	-0.512447
O	 1.0599348686	-1.6538639763	 0.2954593554	-0.338196
H	 0.5983957087	 2.2289440778	 0.1043933436	 0.133915
H	-0.6051020015	 1.8573031832	-1.1510701719	 0.108778
H	-1.0756116967	 1.917013798	 0.5488073018	 0.117893
H	-0.9054218338	-0.4504396571	-0.1996155239	 0.080701
H	 1.1195141552	-0.9515632307	-1.7405606134	 0.072754
H	 3.3448366684	-0.4418400631	-0.4746191456	 0.102208
H	 2.5531294852	 1.1442987984	-0.6404275725	 0.098985
H	 2.7882026746	-0.5106075862	 1.850541524	 0.074779
H	 2.889387796	 1.7626830886	 2.0182805608	 0.287324
H	-0.1202494395	-0.0455738737	 3.0973891175	 0.137131
H	-0.9270692126	-1.413358863	 2.2912433343	 0.121746
H	 0.6622539164	-1.6349480997	 3.0497713742	 0.124577
163.264	178.395	196.2191	220.2548	234.1515	251.4753	261.5321	355.1046	417.6541	460.0449	522.808	608.7812	616.7128	729.0367	740.6922	814.0018	848.4829	871.4444	911.7102	921.6733	966.8398	1010.7176	1035.0283	1072.6035	1093.96	1116.0521	1150.0206	1157.535	1182.5091	1191.6729	1245.6369	1263.6969	1281.4845	1286.424	1318.5233	1353.387	1389.5742	1408.2839	1417.3399	1433.6388	1481.7912	1483.1901	1490.9083	1493.3124	1508.9551	3017.0715	3035.009	3038.3143	3063.0938	3065.8703	3089.9081	3107.1029	3113.2801	3117.1184	3121.9096	3151.5452	3828.3855
CC1C2CC(O)C1(C)O2	C[C@H]1[C@H]2C[C@@H](O)[C@]1(C)O2	
InChI=1S/C7H12O2/c1-4-5-3-6(8)7(4,2)9-5/h4-6,8H,3H2,1-2H3	InChI=1S/C7H12O2/c1-4-5-3-6(8)7(4,2)9-5/h4-6,8H,3H2,1-2H3/t4-,5+,6+,7+/m0/s1
