20
gdb 11137	6.41972	0.91529	0.86402	1.6861	72.53	-0.2444	0.076	0.3204	1365.0142	0.175883	-386.113523	-386.104401	-386.103457	-386.147729	32.7	
C	 0.1402098705	 1.2663984084	 0.2073454327	-0.23949
O	-0.3059748444	 0.0065702522	-0.2391834462	-0.238775
C	 0.5013683101	-0.5433228279	-1.2445806138	 0.165837
C	 1.8765769052	-1.1639708359	-0.855244923	-0.291109
C	 1.5387552065	-2.3523654474	-1.7985221854	 0.049767
C	 1.9084970605	-3.7480911601	-1.3443385854	-0.093008
O	 1.3927886281	-4.66888164	-2.2954756335	-0.422286
C	 0.0450733621	-1.9267826073	-1.7427240326	-0.262448
H	 1.1438888504	 1.2145494988	 0.6561968384	 0.105951
H	 0.1695047617	 2.0018528573	-0.6125806259	 0.102422
H	-0.5652969494	 1.6130939045	 0.9664259156	 0.125144
H	 0.6183931166	 0.1725308578	-2.0742521302	 0.060854
H	 2.7871682025	-0.5929115677	-1.0499808606	 0.094675
H	 1.8599894041	-1.472749247	 0.1957198748	 0.102351
H	 1.9501434789	-2.1874850454	-2.7994911733	 0.079235
H	 3.0050058332	-3.8334053082	-1.2579179045	 0.082585
H	 1.4859619022	-3.9307891258	-0.342164153	 0.080413
H	 1.5914157625	-5.5594830632	-1.9922405865	 0.286176
H	-0.4857210435	-2.4508521155	-0.941923743	 0.108457
H	-0.5469542477	-1.9765342275	-2.6576788046	 0.10325
61.2262	84.4471	119.1709	195.1465	213.7161	245.7475	263.0131	390.4539	410.2719	446.7935	469.0076	620.8231	783.6239	813.069	905.9119	944.4872	959.3444	1015.0114	1041.9858	1058.3753	1082.5264	1109.5687	1148.2174	1167.0662	1182.8291	1194.5469	1218.5975	1240.4926	1250.3695	1264.2385	1274.6007	1286.7967	1310.3884	1367.7545	1396.7547	1462.0566	1469.5151	1481.4599	1486.6922	1498.1703	1509.5645	1520.8701	2952.5842	2965.6743	2974.5728	2979.9433	3017.9	3047.108	3057.8161	3064.6842	3109.7341	3112.6117	3126.6154	3829.901
COC1CC(CO)C1	CO[C@H]1C[C@@H](CO)C1	
InChI=1S/C6H12O2/c1-8-6-2-5(3-6)4-7/h5-7H,2-4H2,1H3	InChI=1S/C6H12O2/c1-8-6-2-5(3-6)4-7/h5-7H,2-4H2,1H3/t5-,6+
