17
gdb 56716	2.0193	1.59339	1.06148	1.1982	80.14	-0.2457	0.021	0.2667	1160.722	0.132092	-384.598698	-384.589024	-384.58808	-384.633043	36.157	
O	-0.5033600965	 1.1657869576	 0.1120447729	-0.421133
C	 0.0161690216	-0.155972814	 0.0049900791	-0.129675
C	 0.8218858954	-0.3065060053	-1.2079622818	 0.303788
C	 1.4958140055	-0.3653967866	-2.2013401934	-0.455498
C	 0.8109638629	-0.5633850164	 1.2668365917	 0.154142
C	 1.7076207562	 0.4697099408	 1.9239169051	-0.292511
C	 0.4165606542	 0.0807467932	 2.5847704019	-0.309077
C	 1.2210035169	-1.9400509388	 1.2796449641	 0.262427
C	 1.5385364187	-3.100392101	 1.2744676488	-0.42775
H	 0.1145275745	 1.7591585161	-0.3269132102	 0.293342
H	-0.8560864906	-0.818103539	-0.0574551169	 0.125373
H	 2.0863475095	-0.4406430532	-3.0811225851	 0.204426
H	 2.6410757986	 0.1186293092	 2.345917263	 0.127779
H	 1.7551431599	 1.4467655857	 1.4562707943	 0.109035
H	-0.397852165	 0.7933601964	 2.5426312201	 0.138616
H	 0.4529312823	-0.5457879724	 3.4675355435	 0.125825
H	 1.8287913058	-4.1215834123	 1.2700526728	 0.190894
56.2761	112.5138	159.1297	200.1296	219.1124	240.6395	272.3318	321.2007	424.228	459.7084	522.6498	561.6518	586.1425	597.7429	633.0367	653.4166	677.1168	731.6641	786.9135	871.3083	924.8028	941.9121	964.8771	1019.411	1060.9603	1074.9879	1091.6808	1196.7128	1247.7862	1274.1094	1295.3708	1342.8724	1409.2675	1450.8916	1487.055	2234.3906	2235.4783	3035.704	3143.8538	3151.0481	3231.7002	3249.0487	3502.2532	3503.4369	3825.1797
OC(C#C)C1(CC1)C#C	O[C@@H](C#C)C1(CC1)C#C	
InChI=1S/C8H8O/c1-3-7(9)8(4-2)5-6-8/h1-2,7,9H,5-6H2	InChI=1S/C8H8O/c1-3-7(9)8(4-2)5-6-8/h1-2,7,9H,5-6H2/t7-/m0/s1
