17
gdb 39717	3.45194	1.68613	1.48081	1.647	75.42	-0.2212	0.0074	0.2287	918.7621	0.137295	-384.62979	-384.623328	-384.622384	-384.660328	27.211	
C	-0.0844188754	 1.4851459379	 0.008489588	-0.276628
O	 1.1143038345	 0.6782116286	 0.0005521809	-0.291032
C	-0.1436112903	 0.0269802298	 0.0117927388	 0.501501
C	-0.4446074445	-0.9940835118	 1.0769645995	-0.17699
C	-1.7071210314	-1.8171064535	 0.7202452295	-0.088469
C	-2.6676447573	-1.2562550879	-0.2827270686	-0.087614
C	-1.9967790851	-0.8481180587	-1.3633603867	-0.093879
C	-0.5103111492	-0.9965173042	-1.1023809879	-0.204322
C	-0.406258	-2.0890148957	 0.0222788969	-0.071299
H	-0.2604736611	 2.0412221541	 0.9284500479	 0.112237
H	-0.273617201	 2.0394538497	-0.9100746024	 0.110912
H	-0.0472378655	-0.985975527	 2.0842065838	 0.097769
H	-2.0425305448	-2.4860649063	 1.5048944304	 0.089004
H	-3.734255729	-1.1796721628	-0.1137784201	 0.098978
H	-2.4073493847	-0.3406471572	-2.2270401009	 0.101186
H	 0.1656727844	-1.0223291993	-1.9553452133	 0.082836
H	 0.1349577905	-3.0259534256	 0.0006245143	 0.095807
144.0416	251.9447	314.7165	407.9106	441.551	530.0643	622.6465	708.3948	738.8975	762.7863	794.6108	806.6832	837.7349	862.5921	876.8776	905.0414	927.9036	956.0743	972.6326	985.7762	994.2445	1051.5169	1069.9032	1082.8565	1114.0264	1123.0816	1138.7327	1167.1851	1173.8449	1243.1027	1253.3563	1278.8381	1349.4332	1371.4779	1444.9018	1537.2659	1648.1029	3079.6957	3134.207	3164.9681	3175.2895	3189.7415	3201.1938	3202.5425	3226.9311
C1OC11C2C3C=CC1C23	C1O[C@]21[C@H]1[C@H]3C=C[C@@H]2[C@@H]13	
InChI=1S/C8H8O/c1-2-5-6-4(1)7(6)8(5)3-9-8/h1-2,4-7H,3H2	InChI=1S/C8H8O/c1-2-5-6-4(1)7(6)8(5)3-9-8/h1-2,4-7H,3H2/t4-,5+,6-,7-,8-/m0/s1
