19
gdb 90133	3.39335	1.507	1.37606	1.4246	79.47	-0.2225	0.0108	0.2333	1020.1437	0.160002	-385.846234	-385.838752	-385.837808	-385.877642	30.534	
C	-0.0530069811	 1.5666831425	-0.0397411312	-0.402145
C	 0.0930184706	 0.0621914754	 0.0314949775	 0.092888
O	 1.166845337	-0.4546306894	-0.8255526062	-0.342763
C	 1.6943641914	-1.1998093803	 0.281247814	 0.387415
C	 2.1957642799	-0.3146907464	 1.3685352253	-0.371251
C	 0.7033886077	-0.6233845163	 1.2735727792	 0.103667
C	 0.1694848017	-1.8069227397	 2.0010572442	-0.174024
C	 0.7113679802	-2.9417425351	 1.532328138	-0.059257
C	 1.6717061619	-2.7155834069	 0.3640044028	-0.35618
H	 0.8588525577	 2.0745188554	 0.2852538994	 0.120859
H	-0.2712293867	 1.8786269888	-1.0661279547	 0.126314
H	-0.8797267368	 1.8926346101	 0.6006376731	 0.118621
H	-0.8479267912	-0.4291843048	-0.245978524	 0.08391
H	 2.7043066473	-0.7920673015	 2.1984374964	 0.122585
H	 2.5618560069	 0.6724637779	 1.1058160532	 0.118941
H	-0.5450395101	-1.7578925384	 2.8160496656	 0.095419
H	 0.5252311627	-3.9315939926	 1.9393000156	 0.095385
H	 1.2863844759	-3.1463871906	-0.5682284676	 0.12603
H	 2.6560477151	-3.1654347684	 0.5393393195	 0.113586
157.8396	206.5096	229.6145	244.4974	329.0823	428.6445	472.8007	491.6787	575.9384	638.0048	686.8455	762.7663	784.071	831.3394	859.2936	867.4469	907.3179	918.2615	945.8268	948.6948	978.2555	1028.3023	1057.8194	1083.178	1117.2761	1128.199	1134.7382	1175.3413	1211.1419	1246.9918	1284.5634	1317.5358	1360.5531	1369.8161	1387.1491	1412.2196	1465.2557	1475.9384	1482.677	1492.5474	1636.241	3024.1797	3030.773	3037.9871	3063.2625	3106.5026	3120.0939	3130.9475	3167.7065	3193.2023	3225.9531
CC1OC23CC12C=CC3	C[C@H]1O[C@@]23C[C@@]12C=CC3	
InChI=1S/C8H10O/c1-6-7-3-2-4-8(7,5-7)9-6/h2-3,6H,4-5H2,1H3	InChI=1S/C8H10O/c1-6-7-3-2-4-8(7,5-7)9-6/h2-3,6H,4-5H2,1H3/t6-,7+,8+/m1/s1
