17
gdb 126670	6.51532	0.7521	0.68287	2.8075	71.26	-0.2611	-0.0037	0.2574	1623.9281	0.136016	-455.147194	-455.138564	-455.137619	-455.181815	30.06	
C	 0.0068455403	 1.4998764993	 0.0088285574	-0.388227
C	-0.0598247469	-0.0299717844	 0.002831933	-0.190983
C	-1.494159516	-0.5274346437	 0.0134705255	-0.063368
O	-1.4507175534	-1.9749171075	 0.0069326663	-0.256026
C	-2.5916408156	-2.6230491821	 0.013966149	 0.535547
N	-2.7314876404	-3.9184849184	 0.0093953325	-0.369206
C	-4.0952212541	-4.0289518054	 0.0207448	 0.059019
N	-4.7727695609	-2.9131512868	 0.0318589789	-0.135576
O	-3.7408235923	-1.936851114	 0.0271322821	-0.21822
H	 1.0453390888	 1.8406915332	 0.0010358466	 0.127841
H	-0.4899391322	 1.9258603359	-0.8694139252	 0.12435
H	-0.4741661672	 1.9182362723	 0.8994290423	 0.124351
H	 0.4452876667	-0.4309782965	-0.8826846577	 0.120178
H	 0.460949438	-0.4385495199	 0.8757258357	 0.120181
H	-2.0332716815	-0.1932910359	 0.906584836	 0.131205
H	-2.0490570653	-0.1857445258	-0.8670285838	 0.131209
H	-4.607741118	-4.9807647603	 0.0209966717	 0.147726
52.3406	69.6553	113.4161	145.143	234.9319	289.9929	312.4904	344.9774	534.9705	639.5007	758.9415	765.1497	771.8336	887.7625	896.2175	916.6245	941.6564	972.8702	990.4937	1050.3253	1067.2626	1143.5569	1186.0159	1217.4216	1269.6876	1284.8443	1320.1326	1336.1502	1352.8119	1413.1426	1422.7931	1492.2428	1502.2943	1503.8731	1517.7352	1558.4653	1656.1654	3036.5171	3038.622	3048.7646	3072.6697	3092.1843	3110.2353	3117.8762	3253.3195
CCCOC1=NC=NO1	CCCOc1ncno1	
InChI=1S/C5H8N2O2/c1-2-3-8-5-6-4-7-9-5/h4H,2-3H2,1H3	InChI=1S/C5H8N2O2/c1-2-3-8-5-6-4-7-9-5/h4H,2-3H2,1H3
