18
gdb 5120	3.28407	1.99298	1.2646	1.5282	76.16	-0.1724	0.0528	0.2252	969.4889	0.15419	-344.018419	-344.009508	-344.008564	-344.051963	31.902	
C	 0.0159108747	 1.4409170462	 0.0143663976	-0.335926
N	 0.0206395195	-0.0038601368	 0.0217133779	-0.032911
C	-0.0107357941	-0.8007175109	-1.0933806514	-0.10837
C	-0.0098854637	-2.1155933895	-0.6891930601	-0.245384
C	 0.0106309587	-2.1156577864	 0.7343389711	 0.149217
N	-0.0199457414	-3.2394918215	 1.6036779729	-0.610975
C	 0.0175212435	-0.7987493154	 1.155494359	 0.262368
C	 0.0088536255	-0.2507494978	 2.5420172369	-0.514861
H	 0.8718355537	 1.8436640589	 0.5669674552	 0.133905
H	 0.0781730546	 1.7900177463	-1.0180289216	 0.136817
H	-0.9004827778	 1.8458505343	 0.4596898119	 0.134115
H	-0.0237493668	-0.3623862568	-2.0788764666	 0.10731
H	-0.0172032126	-2.9814145045	-1.334776218	 0.079887
H	-0.1702512026	-4.0930673434	 1.0794683596	 0.232339
H	 0.8510013223	-3.3501739555	 2.1123573682	 0.234811
H	 0.9694560292	 0.1885105449	 2.846240406	 0.116247
H	-0.7556686006	 0.5238833414	 2.6808141526	 0.119159
H	-0.217292772	-1.0646171736	 3.2363404589	 0.142252
76.2895	80.008	151.4885	167.7361	229.709	263.4629	287.6847	311.5372	493.7993	578.8351	609.0454	661.1252	690.5341	719.9416	746.9875	766.2203	832.3608	948.1663	1050.1297	1062.3331	1091.2086	1100.8429	1149.7165	1162.9293	1241.1892	1272.0011	1380.514	1412.0955	1413.4523	1459.9373	1478.225	1483.3951	1487.0912	1495.2015	1522.9307	1538.0425	1627.4145	1658.281	3000.3403	3023.9166	3046.7861	3075.6525	3112.423	3131.6153	3233.599	3259.6416	3504.3834	3591.4571
CN1C=CC(N)=C1C	Cn1ccc(N)c1C	
InChI=1S/C6H10N2/c1-5-6(7)3-4-8(5)2/h3-4H,7H2,1-2H3	InChI=1S/C6H10N2/c1-5-6(7)3-4-8(5)2/h3-4H,7H2,1-2H3
