15
gdb 7315	4.09813	1.14581	0.95362	3.6051	58.96	-0.2489	-0.0259	0.2231	1152.1187	0.116425	-436.976506	-436.967535	-436.96659	-437.011194	30.859	
N	-0.0389509573	 1.3214470733	 0.0674736649	-0.517677
C	 0.0252601764	-0.0250000051	-0.0445891393	 0.389476
O	 1.0694435119	-0.6451624647	-0.1609871115	-0.371717
C	-1.3084005442	-0.793092463	-0.0021890611	 0.019314
O	-1.0632344811	-2.1234232981	-0.3647308504	-0.433166
C	-1.9368603644	-0.7190903112	 1.4111509754	-0.285987
C	-3.2390475652	-1.4916251989	 1.4748661903	 0.153347
O	-4.2833430652	-1.0172163148	 1.8444353911	-0.241608
H	 0.8153877205	 1.8533925229	 0.0306684039	 0.273548
H	-0.9145370689	 1.8141621479	 0.0964231643	 0.272101
H	-2.0018739469	-0.3366582383	-0.7254250357	 0.098467
H	-0.0917760666	-2.1930277815	-0.3917485782	 0.296902
H	-1.2263517474	-1.1763428906	 2.1124939401	 0.132265
H	-2.1298620541	 0.3114205445	 1.7229432713	 0.108389
H	-3.1630453475	-2.5473404325	 1.1435045949	 0.106346
49.9831	74.0716	76.4375	173.6199	237.4229	269.5736	324.5245	399.9992	465.6454	501.2109	517.8502	566.0197	654.3121	711.781	836.6569	855.6486	924.133	1055.1867	1084.0638	1096.3399	1146.7586	1223.7041	1248.9409	1298.448	1356.4685	1366.0333	1417.5327	1447.5954	1469.0826	1622.706	1788.9119	1827.292	2932.8235	2987.2442	3030.1007	3103.3904	3602.3895	3626.0145	3734.925
NC(=O)C(O)CC=O	NC(=O)[C@@H](O)CC=O	
InChI=1S/C4H7NO3/c5-4(8)3(7)1-2-6/h2-3,7H,1H2,(H2,5,8)	InChI=1S/C4H7NO3/c5-4(8)3(7)1-2-6/h2-3,7H,1H2,(H2,5,8)/t3-/m0/s1
