21
gdb 102294	2.31802	0.98712	0.8168	3.672	80.16	-0.235	0.028	0.263	1503.2086	0.180838	-420.408116	-420.397403	-420.396459	-420.444405	38.542	
C	 0.0783576604	 1.5578965114	 0.1812017188	-0.391829
C	 0.0568302491	 0.0284513565	 0.1233272495	 0.064312
C	 0.2609435923	-0.5801191435	 1.5228881451	-0.387018
N	-1.1711239036	-0.3831598789	-0.5626932542	-0.282133
C	-1.3310261793	-1.7892196192	-0.8925722897	-0.142746
C	-2.2913873688	-2.5486344544	 0.0581627671	-0.081472
O	-3.5411843079	-1.894954634	 0.1490306005	-0.416133
C	-1.8659721858	-1.9240993424	-2.2687333563	 0.281596
N	-2.3442547531	-2.0497849665	-3.3137019731	-0.327665
H	 1.0142326162	 1.9186917349	 0.6176495844	 0.116107
H	-0.0329498105	 1.9815106666	-0.8196624436	 0.130094
H	-0.7433943876	 1.9331497182	 0.8033016027	 0.114398
H	 0.8889104198	-0.2985351986	-0.5155403378	 0.087291
H	-0.5539763386	-0.2880522886	 2.195502477	 0.117271
H	 0.3006901336	-1.6738550784	 1.492139059	 0.109837
H	 1.2016734806	-0.2329742576	 1.9634402384	 0.116655
H	-2.0067903775	-0.0543369948	-0.0890449194	 0.229149
H	-0.3537082232	-2.2863781737	-0.8723528702	 0.124344
H	-2.3942425049	-3.5932785232	-0.2681797822	 0.111558
H	-1.8669944891	-2.5397953574	 1.065128987	 0.124101
H	-3.9911246821	-1.9911309366	-0.699122473	 0.302282
51.9276	71.1425	97.7419	143.0348	184.9395	235.5385	257.7243	279.5957	302.272	356.1605	402.296	426.4094	450.6288	465.9773	578.1502	682.1012	709.7553	819.0219	873.546	906.2061	926.0037	947.0216	982.1764	1020.9687	1092.3035	1130.5883	1140.0341	1188.7646	1194.9617	1221.1159	1268.283	1327.9598	1354.4879	1378.0554	1391.2096	1399.1833	1416.4581	1419.8737	1480.8889	1483.4339	1489.8651	1494.8885	1509.4683	1511.5501	2348.6381	3007.3124	3009.5559	3024.6508	3033.613	3048.683	3094.7409	3096.5703	3103.1151	3107.9628	3128.5007	3523.0427	3788.6429
CC(C)NC(CO)C#N	CC(C)N[C@@H](CO)C#N	
InChI=1S/C6H12N2O/c1-5(2)8-6(3-7)4-9/h5-6,8-9H,4H2,1-2H3	InChI=1S/C6H12N2O/c1-5(2)8-6(3-7)4-9/h5-6,8-9H,4H2,1-2H3/t6-/m1/s1
