13
gdb 131066	4.80824	0.8871	0.81941	3.0365	60.82	-0.2726	-0.0824	0.1902	1317.2612	0.088955	-486.026908	-486.019042	-486.018098	-486.061594	26.615	
O	 0.0855603878	 0.616617753	-0.9748501144	-0.309012
C	 0.1417520191	 1.3286766448	 0.001996373	 0.164835
N	 1.2695825952	 1.5585742476	 0.7368958083	-0.282219
C	 2.5517426126	 0.9906010309	 0.3689340445	-0.266155
C	 3.5531712507	 2.0513902228	 0.0339395358	 0.423602
N	 4.3184128941	 2.0767011672	-1.0174085862	-0.138417
O	 5.05526338	 3.2037818423	-0.8752801437	-0.13267
N	 4.6837321194	 3.8406380353	 0.3027121279	 0.05522
N	 3.7869316172	 3.1484067441	 0.846907737	-0.209945
H	-0.7306962853	 1.8692031842	 0.4151790915	 0.091114
H	 1.2278292383	 2.1969139132	 1.5157069205	 0.267969
H	 2.9465434995	 0.3704437129	 1.183030708	 0.147167
H	 2.3861160113	 0.3528660317	-0.5006188322	 0.18851
29.99	40.6895	132.9199	238.1232	269.5611	326.8376	438.0674	527.5748	672.1516	693.4622	701.9696	740.4535	820.9237	956.6022	978.5361	1030.2469	1036.2945	1065.0621	1099.4369	1209.4952	1247.5308	1316.0272	1374.339	1426.6968	1476.5268	1482.897	1528.4138	1600.0187	1811.3758	2960.0768	3035.2011	3140.5053	3638.925
O=CNCC1=NON=N1	O=CNCc1nonn1	
InChI=1S/C3H4N4O2/c8-2-4-1-3-5-7-9-6-3/h2H,1H2,(H,4,8)	InChI=1S/C3H4N4O2/c8-2-4-1-3-5-7-9-6-3/h2H,1H2,(H,4,8)
