19
gdb 87720	2.50799	1.30062	1.17265	1.6759	71.83	-0.2565	0.042	0.2985	1159.3871	0.157041	-460.129408	-460.120183	-460.119238	-460.163302	34.746	
C	 0.0408732483	 1.5070120556	-0.232857749	-0.418165
C	-0.0047015397	 0.0221904839	 0.0068852843	-0.013839
O	 1.2426062119	-0.6961135164	-0.0967519584	-0.30485
C	 0.6191216124	-0.6152965113	 1.1690223727	 0.420901
C	 1.1960559506	 0.0077692777	 2.4452478603	-0.343421
C	 0.2815128858	-0.9569435899	 3.2547834614	 0.097367
O	-0.9323437509	-0.3537873183	 3.6326289672	-0.447075
C	 0.091742085	-1.8127396089	 1.9533952366	-0.018218
O	-1.2386144177	-2.1906936931	 1.6598629856	-0.426881
H	 0.9038547429	 1.959002821	 0.2622200321	 0.128155
H	 0.1100042827	 1.7204991238	-1.3045401775	 0.128944
H	-0.8702936229	 1.9814964273	 0.1472821554	 0.127384
H	-0.8435322213	-0.5062002242	-0.4468729966	 0.102481
H	 2.2611609135	-0.2091954816	 2.5680210423	 0.109727
H	 1.0116455641	 1.0692349189	 2.6173579187	 0.119915
H	 0.7462213393	-1.459289526	 4.1110301127	 0.066443
H	-1.625323558	-0.8295335384	 3.151630698	 0.285979
H	 0.7814740028	-2.663059316	 1.9006526161	 0.087794
H	-1.3848295387	-3.0892032643	 1.972414728	 0.297358
62.4798	140.2095	172.1554	210.0687	225.6595	263.6377	277.6664	366.6691	426.6546	457.4724	492.3186	515.7549	559.6621	665.5043	788.9445	804.1187	842.5607	857.8327	927.2288	964.2211	1013.0835	1032.6897	1092.5055	1099.6477	1129.1651	1142.7901	1163.5936	1173.8471	1203.3741	1229.4601	1254.9814	1279.2086	1346.5571	1368.6107	1408.3693	1410.9264	1422.3785	1460.0244	1478.0366	1490.4536	1524.9361	3028.7473	3038.0107	3045.3445	3067.0423	3102.0035	3108.1939	3129.1283	3131.5145	3715.43	3822.101
CC1OC11CC(O)C1O	C[C@H]1O[C@]21C[C@@H](O)[C@H]2O	
InChI=1S/C6H10O3/c1-3-6(9-3)2-4(7)5(6)8/h3-5,7-8H,2H2,1H3	InChI=1S/C6H10O3/c1-3-6(9-3)2-4(7)5(6)8/h3-5,7-8H,2H2,1H3/t3-,4-,5-,6+/m1/s1
