20
gdb 61185	2.4594	1.02254	0.76355	4.0566	85.57	-0.2758	0.0309	0.3068	1488.1278	0.168221	-366.005795	-365.995329	-365.994385	-366.041476	37.98	
C	 0.0111858588	 1.5765467704	-0.016203648	-0.422917
C	 0.0047778923	 0.0433509561	 0.0031722976	 0.032666
C	 0.7662000892	-0.4930943243	 1.2410906698	-0.354343
C	 2.1737501441	-0.1045895078	 1.2536764509	 0.26486
N	 3.2860442779	 0.2099077673	 1.246989063	-0.316334
C	-1.4364981964	-0.5441717878	-0.0218506874	-0.15795
C	-2.2610728279	-0.0546046101	-1.2313754001	-0.406863
C	-1.4123506002	-2.007776805	-0.0017383566	 0.313878
C	-1.3896506312	-3.2102153064	-0.0130300615	-0.455401
H	 1.0319447597	 1.9559910955	 0.0829933593	 0.146868
H	-0.397091287	 1.9718125597	-0.9486104195	 0.127778
H	-0.5801386012	 1.9835752424	 0.8130808276	 0.116744
H	 0.5255114852	-0.3253935071	-0.8888608637	 0.105174
H	 0.2955237232	-0.1203691113	 2.1598142284	 0.144762
H	 0.7055098378	-1.585353384	 1.2717804215	 0.166219
H	-1.9449951586	-0.2020229048	 0.8923523352	 0.106142
H	-1.7528211592	-0.2982209699	-2.1694100294	 0.130325
H	-3.2383361546	-0.5428373263	-1.241806537	 0.132618
H	-2.4198857205	 1.0250812702	-1.1901512289	 0.124282
H	-1.3775867913	-4.2723423368	-0.0154897714	 0.201493
65.0011	66.5632	127.0671	159.9118	202.3097	215.8969	253.404	297.2219	351.8064	374.0627	398.688	404.4024	493.2784	555.4647	587.8142	635.1267	647.7166	807.0069	858.2004	891.2705	922.0302	965.3775	977.8098	1054.9858	1091.2222	1115.0286	1145.1304	1156.5163	1237.5534	1278.5174	1324.9206	1328.9691	1363.723	1368.8389	1408.0881	1418.1015	1467.0246	1492.2756	1495.0764	1498.2804	1515.3814	2230.2876	2359.275	2990.1352	3030.8854	3033.532	3046.4447	3049.0064	3091.9261	3106.4317	3122.2193	3126.2631	3135.2059	3501.688
CC(CC#N)C(C)C#C	C[C@@H](CC#N)[C@@H](C)C#C	
InChI=1S/C8H11N/c1-4-7(2)8(3)5-6-9/h1,7-8H,5H2,2-3H3	InChI=1S/C8H11N/c1-4-7(2)8(3)5-6-9/h1,7-8H,5H2,2-3H3/t7-,8-/m0/s1
