19
gdb 98318	4.22835	0.83626	0.70744	1.5769	80.3	-0.2374	0.0057	0.2431	1608.3434	0.157276	-456.387477	-456.376835	-456.375891	-456.423833	35.818	
C	-0.008442404	 1.3511976425	-0.014200905	-0.23732
O	 0.0700790263	-0.0782423954	 0.0141493757	-0.258247
C	 0.6661575243	-0.5854681588	 1.1129654777	 0.535249
O	 1.1090274338	 0.0837814337	 2.0186812528	-0.410572
N	 0.6947914204	-1.9673237442	 1.0498458458	-0.201211
C	 0.1346468419	-2.7000028381	-0.0857341256	-0.34046
C	 1.2803014805	-2.6549180452	 2.1130963162	 0.12215
N	 1.3524837794	-3.9176804097	 2.1434134264	-0.246995
C	 1.9826485569	-4.5203073835	 3.2999056745	-0.312578
H	 0.9901080379	 1.7938140104	 0.0144946243	 0.143765
H	-0.5088777635	 1.5978754326	-0.9506237495	 0.134379
H	-0.5833889303	 1.7237040104	 0.8369709927	 0.143795
H	 0.640209904	-2.4196539153	-1.0127105993	 0.136533
H	 0.2862863721	-3.7590122054	 0.1152065079	 0.167149
H	-0.9319368831	-2.489070878	-0.1923971185	 0.136539
H	 1.6530593237	-1.9775843247	 2.8852382157	 0.13277
H	 2.8351157093	-5.1302531846	 2.9787017573	 0.126355
H	 2.3389572804	-3.7903840002	 4.0437138488	 0.102339
H	 1.27614816	-5.1985732166	 3.7925980721	 0.126359
60.4869	95.5162	110.0244	135.5843	147.7335	161.8962	188.7887	222.6675	260.4981	351.6813	382.6564	398.8051	419.0116	572.6204	745.8622	780.1839	861.5155	988.1062	1010.7427	1061.6548	1095.8036	1141.5855	1152.6433	1159.2481	1183.081	1193.6835	1220.978	1323.8726	1362.2764	1408.5145	1447.1391	1453.0815	1480.6516	1481.7196	1483.0063	1499.813	1500.6681	1502.2822	1512.279	1754.6236	1808.3046	2977.9412	3054.3952	3058.0919	3058.7965	3073.5229	3105.8359	3121.8025	3130.4965	3159.9795	3174.089
COC(=O)N(C)C=NC	COC(=O)N(C)C=NC	
InChI=1S/C5H10N2O2/c1-6-4-7(2)5(8)9-3/h4H,1-3H3	InChI=1S/C5H10N2O2/c1-6-4-7(2)5(8)9-3/h4H,1-3H3
