18
gdb 9406	4.81424	0.93169	0.82053	2.6655	65.69	-0.2603	-0.0357	0.2246	1386.7689	0.150764	-422.074111	-422.064656	-422.063712	-422.109556	32.482	
C	 0.0570801709	 1.236938653	-0.2110698472	-0.386475
C	-0.452441765	-0.1833530211	-0.4454355618	-0.042556
O	 0.2041991181	-0.8569001324	-1.5089548981	-0.252548
C	 1.5152849364	-1.2866075557	-1.2211249865	-0.097734
C	 1.9890710317	-2.1526755185	-2.4001904092	 0.036836
O	 3.3468659214	-2.4582417337	-2.2592263825	-0.436597
C	 1.1641882442	-3.4200383634	-2.5021211453	 0.138026
O	 1.6871929241	-4.5099684632	-2.4917590397	-0.266224
H	 1.0970750222	 1.2489417291	 0.1281830643	 0.125637
H	-0.0123886246	 1.8247553732	-1.1310602781	 0.128951
H	-0.5481873112	 1.726798055	 0.5585416693	 0.119961
H	-0.3716200546	-0.7764482152	 0.4796888517	 0.092297
H	-1.5092064463	-0.1592029645	-0.7299790569	 0.110917
H	 2.2203727859	-0.450900768	-1.1133502655	 0.114305
H	 1.5484367561	-1.8729574387	-0.2879768836	 0.097282
H	 1.799913863	-1.5731247184	-3.3211792777	 0.104711
H	 3.3973979423	-3.4271747375	-2.2948850698	 0.295823
H	 0.0694385756	-3.2897383899	-2.5782646033	 0.117388
34.3857	67.8063	113.348	156.1987	162.6403	233.143	303.7675	331.9963	393.377	428.4875	480.8566	502.6098	736.6572	803.0636	837.982	884.2588	912.7288	1013.6066	1059.2186	1092.0414	1113.6783	1162.2004	1166.9505	1204.3577	1222.4842	1291.7449	1313.8676	1332.9584	1382.8487	1393.5997	1408.6043	1420.6433	1448.279	1488.0651	1489.4046	1507.7023	1527.3142	1807.0821	2955.0974	2972.7211	2981.282	2982.3455	3027.3313	3041.7683	3072.7323	3111.6819	3120.2506	3682.4675
CCOCC(O)C=O	CCOC[C@@H](O)C=O	
InChI=1S/C5H10O3/c1-2-8-4-5(7)3-6/h3,5,7H,2,4H2,1H3	InChI=1S/C5H10O3/c1-2-8-4-5(7)3-6/h3,5,7H,2,4H2,1H3/t5-/m0/s1
