14
gdb 130239	3.17839	1.49936	1.0273	6.2283	71.44	-0.2264	-0.0622	0.1642	1077.0857	0.102596	-466.174587	-466.166867	-466.165923	-466.206805	29.773	
N	 0.0192339886	 1.3455471821	 0.0311676346	-0.578398
C	 0.0183573527	-0.0501711886	 0.0389677094	 0.330195
N	-1.0913452607	-0.6804134828	 0.1864665414	-0.149138
O	-1.0129267547	-2.0630748079	 0.2783375596	-0.27847
C	 0.1753153938	-2.7552144913	-0.0264835478	 0.441674
N	 0.1231782653	-4.0079887685	-0.1991268271	-0.524809
N	 1.3580746172	-2.0491872187	-0.063538949	-0.341107
C	 1.3017433958	-0.7632361409	-0.0209552974	 0.35909
N	 2.4344922303	-0.0062762571	-0.0644704344	-0.563485
H	 0.4996150461	 1.7374621915	-0.7715469141	 0.263077
H	-0.9239656289	 1.7129367757	 0.0955245893	 0.267008
H	-0.842706685	-4.3286605135	-0.132931918	 0.226366
H	 3.2982894912	-0.5182365143	 0.0443758825	 0.274982
H	 2.3936153883	 0.9054626543	 0.3646861311	 0.273016
69.7989	194.678	281.626	308.5512	332.4418	382.3682	414.2632	492.6245	535.8664	545.2101	587.7269	605.8382	710.0213	716.5687	771.2421	803.126	822.2348	842.4205	883.8485	986.5827	1034.1107	1175.5623	1187.4734	1313.0858	1325.8423	1473.5975	1609.346	1624.9285	1656.7795	1719.8596	1744.3844	3500.7328	3512.7256	3569.5357	3608.0957	3691.5283
NC1=NOC(=N)N=C1N	NC1=NOC(=N[C]1N)[NH]	
InChI=1S/C3H5N5O/c4-1-2(5)8-9-3(6)7-1/h(H2,5,8)(H3,4,6,7)	InChI=1S/C3H5N5O/c4-1-2(5)8-9-3(6)7-1/h(H2,5,8)(H3,4,6,7)
