27
gdb 122343	3.05067	0.68041	0.63498	0.046	97.1	-0.2554	0.0804	0.3358	1977.7068	0.250585	-353.559461	-353.547831	-353.546886	-353.597032	42.172	
C	 4.1947646369	 0.0087525867	 1.4518824817	-0.379577
C	 3.1292211663	-1.0334597721	 1.1016692068	-0.164331
C	 3.162992313	-1.4614852224	-0.3690379431	-0.151295
C	 2.0925267596	-2.5020781958	-0.7272701453	-0.209013
C	 2.1154134932	-2.8874389567	-2.1941241817	-0.024731
C	 3.0031435251	-3.9849246454	-2.7544456409	-0.014177
C	 3.9432126627	-4.8111455767	-1.9012347042	-0.40644
C	 1.4969272688	-4.1639202349	-2.7306661984	-0.041783
C	 0.7979834018	-5.1771579688	-1.8472591953	-0.403101
H	 5.2025853344	-0.3740989973	 1.255552927	 0.112355
H	 4.0678458664	 0.9198408296	 0.8563321034	 0.112395
H	 4.1468285821	 0.2926705959	 2.5079750508	 0.109266
H	 3.2590997006	-1.9185553867	 1.7389318505	 0.091994
H	 2.1340513021	-0.6344628316	 1.3398468469	 0.092632
H	 3.0354961696	-0.5762988798	-1.0080348431	 0.088999
H	 4.1553576188	-1.865353653	-0.6104051115	 0.095855
H	 2.2218412858	-3.3814137538	-0.0870085682	 0.089978
H	 1.1013843876	-2.0972072021	-0.4776321184	 0.091049
H	 2.0032442953	-2.0226059641	-2.846082515	 0.072841
H	 3.4157496018	-3.7726424084	-3.7383358411	 0.075522
H	 3.5443146515	-5.0178022492	-0.9054054066	 0.114812
H	 4.1505712468	-5.7777637999	-2.3745468171	 0.113876
H	 4.9031049412	-4.2992503029	-1.7681516805	 0.115076
H	 1.0146474888	-4.0573862372	-3.7000136448	 0.07571
H	 1.2801400666	-5.2991346274	-0.8746753246	 0.114506
H	-0.2405150728	-4.8809439737	-1.6602319213	 0.11453
H	 0.7770573359	-6.1626240323	-2.3264156062	 0.113051
45.0125	74.7399	91.5246	123.481	153.1409	161.2244	202.7738	222.4944	243.8594	274.7362	321.0906	382.1478	458.5292	527.7413	541.6756	730.0055	745.2169	769.729	796.7069	848.1902	905.0086	919.2407	953.8396	961.2661	1009.6407	1040.9619	1046.2143	1066.7446	1079.3157	1102.9845	1134.9823	1142.692	1161.3193	1189.5989	1196.2907	1246.6162	1272.4705	1276.8498	1315.7816	1330.7683	1351.6938	1378.356	1393.1122	1403.3332	1413.3867	1417.156	1422.7671	1455.5598	1479.3106	1485.6763	1492.6432	1494.1292	1499.3544	1500.3055	1503.8773	1511.6223	1517.0975	3004.3651	3006.1839	3015.2037	3027.9399	3028.0448	3030.3672	3031.8066	3049.1207	3068.0583	3080.9009	3082.8112	3094.0515	3099.4067	3104.4699	3107.837	3118.3161	3122.2985	3136.8858
CCCCC1C(C)C1C	CCCC[C@H]1[C@@H](C)[C@H]1C	
InChI=1S/C9H18/c1-4-5-6-9-7(2)8(9)3/h7-9H,4-6H2,1-3H3	InChI=1S/C9H18/c1-4-5-6-9-7(2)8(9)3/h7-9H,4-6H2,1-3H3/t7-,8+,9-
