18
gdb 38648	2.73976	2.14329	1.51307	2.1464	74.18	-0.239	0.0253	0.2643	896.2979	0.151505	-401.936244	-401.929814	-401.92887	-401.967037	26.613	
C	 0.0360112078	 1.3599775589	 0.4265041006	-0.267261
C	 1.5010105509	 1.5627796228	-0.0533019109	-0.023601
C	 2.565355062	 1.1583685224	 0.9941575059	-0.234898
C	 2.4438602718	-0.3342084955	 0.5392278499	 0.017516
N	 1.9271550415	-1.2541173667	 1.5328341978	-0.270611
C	 0.7036633487	-1.5728493523	 1.4996282456	 0.121848
O	-0.2832168322	-1.1529539509	 0.6709757258	-0.232936
C	 0.0242235966	-0.065401064	-0.2013517056	 0.123989
C	 1.4966140385	 0.0942830468	-0.6192577837	-0.096711
H	-0.1070179499	 1.3819625308	 1.5103199325	 0.110794
H	-0.6923795358	 2.0320278252	-0.0325043932	 0.108147
H	 1.6962426205	 2.441065413	-0.6673146339	 0.069448
H	 3.5544241829	 1.572984859	 0.7846788878	 0.102722
H	 2.3175080615	 1.3522455096	 2.0412916274	 0.103493
H	 3.3944639467	-0.73797233	 0.1824023645	 0.088557
H	 0.3003309903	-2.2934448396	 2.209306414	 0.121039
H	-0.6746322006	-0.1647027813	-1.0329136701	 0.093837
H	 1.7793946789	-0.1913550382	-1.6317553842	 0.064628
91.7043	271.3247	357.1986	373.4345	504.0326	542.8387	556.4994	611.2996	724.7337	776.588	793.1536	836.5251	891.9058	904.9918	934.1612	954.0192	968.5221	988.2314	1018.8318	1039.6508	1059.6185	1105.3037	1114.2209	1140.8929	1154.7737	1200.1531	1214.3631	1226.6263	1261.3335	1270.0979	1287.238	1303.8051	1314.7561	1347.0157	1384.7174	1421.9158	1466.3618	1480.4407	1723.4378	3055.6928	3060.2842	3065.5194	3092.5317	3106.6272	3112.6659	3114.2213	3125.4343	3153.1655
C1C2CC3N=COC1C23	C1[C@H]2C[C@H]3N=CO[C@@H]1[C@@H]23	
InChI=1S/C7H9NO/c1-4-2-6-7(4)5(1)8-3-9-6/h3-7H,1-2H2	InChI=1S/C7H9NO/c1-4-2-6-7(4)5(1)8-3-9-6/h3-7H,1-2H2/t4-,5-,6+,7+/m1/s1
