19
gdb 37179	3.76613	1.62396	1.47451	1.9713	77.63	-0.2482	0.0698	0.318	941.2037	0.162031	-385.796841	-385.790609	-385.789665	-385.826931	27.639	
C	-0.038399814	 1.5314776483	 0.2276625421	-0.28299
C	 1.4916762835	 1.5671569229	-0.1563412884	-0.34226
C	 1.2842589267	 0.1886496885	-0.8083113518	 0.319226
C	 0.3814221998	 0.1624915151	-2.0904818326	-0.26448
C	-0.4236314192	-0.8641867201	-1.2659362108	-0.121527
C	 0.6543576801	-1.9901979245	-1.0916358632	 0.043902
O	 1.7604640656	-1.9721322378	-2.0145833795	-0.258535
C	 1.8806162455	-1.2278798205	-0.7928803219	-0.068866
C	-0.0266499959	-0.0253455062	 0.0031150836	 0.013112
H	-0.2714218074	 1.8267090158	 1.2524040236	 0.10234
H	-0.6738431225	 2.1091908344	-0.4445796204	 0.113948
H	 1.8388887902	 2.3837003337	-0.7954197468	 0.101341
H	 2.1248763989	 1.5229428909	 0.7353614222	 0.105124
H	-0.1505956174	 1.0985837507	-2.2458307959	 0.096947
H	 0.839698141	-0.1771550421	-3.0162808853	 0.119223
H	-1.434589951	-1.1882418315	-1.519643979	 0.059856
H	 0.40495138	-2.9605236235	-0.6747978534	 0.09951
H	 2.6568378058	-1.543544198	-0.1034674156	 0.098606
H	 0.0317177903	-0.5749009561	 0.9478043531	 0.065521
266.3833	299.185	316.2373	446.1316	491.4858	532.7926	587.0981	656.3513	711.3625	768.3955	789.9766	816.5994	843.7631	874.2067	879.2216	899.5661	907.5779	931.1708	959.6569	1007.4991	1017.713	1036.9276	1075.2863	1083.0134	1101.8268	1106.7222	1181.3657	1196.7409	1209.9388	1220.504	1227.6508	1247.6529	1254.3253	1258.1638	1282.0766	1309.3976	1337.6375	1382.1805	1474.6284	1485.9563	1513.6346	3047.5179	3054.5604	3079.6316	3092.4866	3099.2834	3115.615	3134.3019	3163.064	3173.9711	3175.0975
C1CC23CC(C4OC24)C13	C1C[C@@]23C[C@@H]([C@H]4O[C@@H]24)[C@H]13	
InChI=1S/C8H10O/c1-2-8-3-4(5(1)8)6-7(8)9-6/h4-7H,1-3H2	InChI=1S/C8H10O/c1-2-8-3-4(5(1)8)6-7(8)9-6/h4-7H,1-3H2/t4-,5+,6-,7-,8+/m1/s1
