21
gdb 84913	2.3725	1.68827	1.15249	1.5451	84.03	-0.2392	0.0251	0.2644	1136.5573	0.184235	-387.084557	-387.07623	-387.075285	-387.117609	32.589	
C	 0.7584729498	 1.4792432798	-0.0313444502	-0.383143
C	-0.0988311348	 0.1932847013	 0.0451552508	-0.077877
C	-0.0881896793	-0.493624603	-1.2977451631	-0.037658
C	 0.3124530451	-1.7032967493	-1.6866540704	-0.076197
C	 0.8807522648	-2.8296552784	-0.8653670329	-0.249784
C	 0.185426577	-3.0923196367	 0.4753576399	-0.242281
C	 0.3975864057	-2.0139677924	 1.5153743732	 0.040742
O	 1.5701885928	-1.1941605916	 1.3941972857	-0.260875
C	 0.2837106772	-0.5659695442	 1.3006712644	 0.074189
H	 1.8128673395	 1.2200913634	-0.1615915194	 0.137437
H	 0.4514304373	 2.1058176256	-0.873810009	 0.112294
H	 0.6606395607	 2.0707752646	 0.8849205921	 0.111324
H	-1.1374352993	 0.5186689816	 0.2213317354	 0.086381
H	-0.4594118274	 0.1655866812	-2.082751254	 0.08239
H	 0.2335012968	-1.91308838	-2.7519371022	 0.081884
H	 0.8357664144	-3.7496319843	-1.4576559628	 0.094101
H	 1.9439153837	-2.6416507224	-0.6695744402	 0.131463
H	-0.8923935807	-3.23591025	 0.3263377413	 0.106851
H	 0.5687904001	-4.0342958074	 0.8875686385	 0.102314
H	 0.2146171909	-2.3522778235	 2.5384176517	 0.083103
H	 0.0461132457	 0.0204869156	 2.1936355009	 0.083341
47.1965	184.7981	214.5022	243.4217	270.7443	300.9262	352.3005	439.923	487.5446	585.1651	633.9764	677.5066	739.51	771.6894	827.4097	848.3329	855.2865	940.1001	961.457	996.4892	1005.0268	1020.7035	1038.5107	1072.4236	1093.9271	1119.8455	1155.541	1179.764	1222.5079	1268.6095	1293.6896	1300.2387	1308.6818	1373.6941	1383.321	1399.9565	1401.1271	1413.4545	1443.7685	1471.7571	1482.2154	1494.8563	1502.4184	1507.519	1743.446	2968.7603	3019.3452	3030.7553	3036.1869	3052.7818	3056.8384	3069.2981	3076.8298	3105.646	3113.0685	3121.2572	3143.6893
CC1C=CCCC2OC12	C[C@H]1C=CCC[C@H]2O[C@@H]12	
InChI=1S/C8H12O/c1-6-4-2-3-5-7-8(6)9-7/h2,4,6-8H,3,5H2,1H3	InChI=1S/C8H12O/c1-6-4-2-3-5-7-8(6)9-7/h2,4,6-8H,3,5H2,1H3/t6-,7+,8-/m0/s1
