22
gdb 89724	2.63179	1.34191	0.99589	1.369	89.74	-0.2172	0.0272	0.2444	1282.7749	0.194528	-367.213174	-367.204003	-367.203059	-367.246846	35.424	
C	-0.009385971	 1.5943844029	-0.0393465044	-0.395121
C	 0.0131277015	 0.0630202934	 0.0186757538	-0.015962
C	 0.7234094235	-0.602831276	-1.1908062763	-0.32599
C	 1.4809825492	-1.7946617344	-0.6012040075	 0.265026
C	 1.3647609961	-3.169955889	-1.1675284698	-0.291715
N	 2.6237200552	-2.4142595731	-1.2950991877	-0.361841
C	 1.584524692	-1.518379886	 0.8674366898	 0.28423
C	 2.4702849872	-2.3217395134	 1.7642274169	-0.500368
C	 0.7799133715	-0.5038429072	 1.1952105251	-0.18792
H	 1.0085332968	 1.9975101924	-0.0812154641	 0.115148
H	-0.5512249119	 1.9495978402	-0.922704731	 0.110654
H	-0.5006605207	 2.0162540935	 0.8440573395	 0.111586
H	-1.0301345787	-0.2851681174	 0.0675715324	 0.077453
H	 0.0356510759	-0.8829672775	-1.993978437	 0.09583
H	 1.4490915572	 0.1063360582	-1.6109825925	 0.10139
H	 1.4207733496	-4.0436885264	-0.5234671237	 0.113827
H	 0.7374116922	-3.2991209754	-2.046508176	 0.107825
H	 2.7027709759	-2.0282570735	-2.2333647839	 0.227348
H	 3.4936294915	-2.3398312926	 1.374996389	 0.145389
H	 2.4809542763	-1.918556958	 2.7800520604	 0.118058
H	 2.1407986552	-3.367135113	 1.8202016933	 0.123467
H	 0.6478731055	-0.1222849378	 2.2032947137	 0.081687
72.0965	132.5923	175.8425	234.7381	241.0058	249.1958	283.9089	346.2838	429.4222	447.4907	509.3888	593.1079	627.1782	690.2392	817.9473	849.7576	866.9809	897.7777	920.373	936.3043	966.0513	979.5309	1007.0828	1019.3849	1055.5218	1067.9772	1113.8502	1126.9748	1137.248	1166.6829	1215.3356	1261.4931	1270.6297	1294.586	1315.1393	1342.0245	1359.7268	1402.4764	1411.3277	1415.0549	1473.4075	1486.2241	1490.7719	1496.9931	1499.403	1510.2426	1715.0513	2977.5999	3017.3227	3025.3239	3026.1683	3080.423	3082.0245	3094.9896	3097.2024	3099.4284	3119.2736	3174.5328	3183.3148	3488.4866
CC1CC2(CN2)C(C)=C1	C[C@H]1C[C@]2(CN2)C(=C1)C	
InChI=1S/C8H13N/c1-6-3-7(2)8(4-6)5-9-8/h3,6,9H,4-5H2,1-2H3	InChI=1S/C8H13N/c1-6-3-7(2)8(4-6)5-9-8/h3,6,9H,4-5H2,1-2H3/t6-,8+/m1/s1
