18
gdb 37501	3.78077	2.01686	1.75645	1.7183	78.05	-0.2136	0.0103	0.2239	825.4721	0.152244	-364.761241	-364.755727	-364.754783	-364.790647	24.985	
C	-0.0391098736	 1.5749929438	-0.054121629	-0.252503
C	 1.5016344818	 1.4113531033	 0.0320943123	-0.056292
C	 1.2788230938	 0.0887454905	 0.8829889868	-0.057479
C	-0.0124118619	 0.0505115139	 0.0335346436	 0.010941
N	 0.9034991449	-0.5064397361	-1.0826188925	-0.152497
C	 1.8189966351	-1.074805314	-0.0009910466	-0.037857
C	 3.208910802	-0.920548286	-0.5333123696	-0.086978
C	 3.1841284739	 0.1309720053	-1.3543170906	-0.092823
C	 1.7915385307	 0.700339425	-1.3272460843	-0.023636
H	-0.477720863	 2.0098831594	 0.8487280266	 0.100303
H	-0.453757093	 2.0596383552	-0.9439153064	 0.096928
H	 2.1634258771	 2.2155144321	 0.3505961712	 0.06621
H	 1.3329281834	 0.141783812	 1.970253522	 0.065635
H	-0.8779228668	-0.581374179	 0.2248522829	 0.074573
H	 1.5072343277	-2.0660637991	 0.333200424	 0.072755
H	 4.0601847052	-1.5243427335	-0.2473418472	 0.102979
H	 4.0127080681	 0.579774882	-1.8868170184	 0.100738
H	 1.4902167747	 1.2793619352	-2.2020737748	 0.069002
324.9563	367.2393	418.1521	511.2637	625.4501	695.2011	724.7775	750.8982	805.5708	824.0442	835.3641	844.6701	874.3187	884.653	930.3006	935.341	940.4152	966.886	994.1329	999.0488	1021.7821	1030.3573	1070.688	1092.7041	1099.9388	1132.4689	1169.1479	1188.4313	1203.3613	1214.8587	1233.565	1260.2293	1279.093	1285.3503	1303.8027	1335.0331	1367.199	1492.3465	1654.2513	3043.6114	3090.677	3096.2466	3102.2642	3111.6419	3126.5436	3133.8201	3205.1771	3230.1935
C1C2C3C1N1C3C=CC21	C1[C@H]2[C@H]3[C@@H]1N1[C@H]3C=C[C@H]21	
InChI=1S/C8H9N/c1-2-6-8-4-3-7(8)9(6)5(1)4/h1-2,4-8H,3H2	InChI=1S/C8H9N/c1-2-6-8-4-3-7(8)9(6)5(1)4/h1-2,4-8H,3H2/t4-,5-,6+,7-,8-/m1/s1
