18
gdb 69275	2.62799	1.55953	1.15725	2.867	72.8	-0.2412	-0.0318	0.2093	1085.175	0.148275	-439.076602	-439.068542	-439.067598	-439.109125	30.919	
C	 0.0134729759	 1.4996175524	-0.067841843	-0.45757
C	-0.0197581483	-0.0101305149	 0.0265185881	 0.289931
C	-1.2552892575	-0.6888463797	-0.5785023747	-0.155485
O	-1.8779117225	-1.6403298355	 0.2627409007	-0.232203
C	-0.9869324768	-2.6212860385	 0.7552123888	-0.207891
C	 0.0569839945	-1.9855034754	 1.6781064065	 0.393107
O	 0.375904938	-2.4865346731	 2.7318149031	-0.312142
C	 0.6260934757	-0.6913755547	 1.1991826099	-0.155895
N	 1.2802885261	-0.6614639289	-0.1374005627	-0.358922
H	 0.9555054501	 1.8848408555	 0.3287900505	 0.137224
H	-0.0688913067	 1.8226526276	-1.1118665786	 0.126368
H	-0.8162787981	 1.9429844947	 0.4921761568	 0.128119
H	-2.0227329722	 0.0609129942	-0.7872896882	 0.122628
H	-0.9762728368	-1.1563830321	-1.5398584195	 0.097026
H	-1.5688944665	-3.3354957799	 1.3402258985	 0.143347
H	-0.4970628927	-3.1715572584	-0.0692732083	 0.103067
H	 1.1373542681	-0.1124073541	 1.9630306389	 0.109601
H	 1.1836383795	-1.5642634892	-0.5996498468	 0.229691
91.74	148.3138	223.5008	235.9571	314.886	359.662	392.601	425.8663	472.9405	504.1347	563.7288	655.847	737.7523	822.8313	856.6301	905.5471	958.1306	983.4442	1004.2989	1028.1557	1046.918	1109.2961	1125.2353	1150.4736	1182.0475	1229.2103	1265.207	1285.1838	1321.2175	1334.3697	1351.3927	1390.3307	1415.4195	1432.0089	1475.4126	1487.6225	1492.807	1496.8309	1810.2666	2940.0064	2946.2036	3033.7418	3093.6475	3098.1293	3122.3477	3129.4507	3157.5002	3476.9987
CC12COCC(=O)C1N2	C[C@]12COCC(=O)[C@H]1N2	
InChI=1S/C6H9NO2/c1-6-3-9-2-4(8)5(6)7-6/h5,7H,2-3H2,1H3	InChI=1S/C6H9NO2/c1-6-3-9-2-4(8)5(6)7-6/h5,7H,2-3H2,1H3/t5-,6+/m1/s1
