19
gdb 93367	2.64976	1.5882	1.20969	4.5463	74.71	-0.2563	0.007	0.2633	1072.5813	0.160926	-423.0577	-423.04974	-423.048796	-423.090342	30.96	
C	-0.0400720373	 1.6252966634	-0.0770483594	-0.400292
C	 0.0261539269	 0.094491847	 0.0125215791	-0.016369
C	 0.6854134793	-0.5199970614	-1.2220569943	-0.083142
O	 2.1095415147	-0.3088698042	-1.2524532312	-0.236707
C	 2.8479197984	-0.8290999494	-0.2305835509	 0.413229
O	 4.0080813198	-1.0841048421	-0.4034240778	-0.33228
C	 2.1490589151	-0.9838366912	 1.082192875	-0.164383
C	 1.8987533884	 0.2891937271	 1.8753031644	-0.280378
C	 0.7435125612	-0.4437647946	 1.2595466697	-0.056095
H	 0.9453525701	 2.0583594937	-0.2716788318	 0.133515
H	-0.6992970607	 1.9305063684	-0.8961659816	 0.116017
H	-0.425687322	 2.0593833202	 0.84966086	 0.121055
H	-1.0017667462	-0.2861899168	 0.0377760005	 0.085079
H	 0.4888737849	-1.598419239	-1.2643139733	 0.110837
H	 0.3154039217	-0.0696835038	-2.1468010234	 0.119106
H	 2.4719864011	-1.8536244853	 1.6408727341	 0.117052
H	 2.0358288677	 0.2301776743	 2.9488263005	 0.124443
H	 2.2194971945	 1.2268819438	 1.436929646	 0.133691
H	 0.1159064824	-0.9962688302	 1.9510959745	 0.095623
57.6818	184.2903	215.2961	243.6155	297.6065	359.7072	395.5242	450.1423	528.6052	567.505	730.4558	733.6997	748.5946	791.5138	831.5715	880.3523	946.8293	958.7813	978.4417	1008.1204	1018.2017	1063.6228	1092.4765	1101.9187	1125.0073	1141.9366	1170.3585	1209.2008	1230.7738	1289.8738	1329.0348	1360.7255	1370.4672	1391.0632	1405.0654	1429.139	1486.3468	1494.486	1507.0353	1513.5467	1847.6259	3024.6311	3038.4303	3041.6199	3099.2273	3107.8104	3118.6979	3144.7951	3155.9101	3189.6147	3231.414
CC1COC(=O)C2CC12	C[C@H]1COC(=O)[C@H]2C[C@@H]12	
InChI=1S/C7H10O2/c1-4-3-9-7(8)6-2-5(4)6/h4-6H,2-3H2,1H3	InChI=1S/C7H10O2/c1-4-3-9-7(8)6-2-5(4)6/h4-6H,2-3H2,1H3/t4-,5-,6-/m0/s1
