19
gdb 116578	4.86071	0.88699	0.82701	3.465	80.56	-0.2273	0.0137	0.2411	1455.8123	0.159365	-419.1655	-419.15684	-419.155895	-419.199742	31.823	
C	-0.0755978265	 1.7461525439	-0.0307701284	-0.363865
C	 0.3455607828	 0.2802695596	 0.0501838602	-0.14295
N	 1.1575581376	-0.0833952931	-1.1059896596	-0.32853
C	 1.9715922515	-1.0347611402	-0.984486231	 0.428904
N	 2.3837108346	-1.877479446	 0.0726162788	-0.356564
C	 3.263042621	-2.6896316309	-0.7730743823	-0.033525
C	 2.577593583	-3.7740856939	-1.6275536913	-0.086662
O	 2.236471879	-2.81843912	-2.6566878232	-0.281347
C	 2.9070020577	-1.7436485239	-1.9597645246	-0.022389
H	 0.8019814161	 2.3996243211	-0.0255442977	 0.118793
H	-0.6262091455	 1.9322498224	-0.9571561152	 0.125605
H	-0.7131018722	 2.0176774052	 0.8168334069	 0.102619
H	 0.8805635999	 0.0984353239	 0.9972805909	 0.085699
H	-0.5530432778	-0.3547694177	 0.0705668604	 0.101339
H	 1.7816654812	-2.247893425	 0.796049509	 0.242713
H	 4.2589220439	-2.8769756922	-0.3729547894	 0.097123
H	 3.2601721278	-4.5413311997	-2.0140037661	 0.109716
H	 1.6977156063	-4.2561065497	-1.1847675818	 0.103218
H	 3.5884206397	-1.1744456537	-2.5916028056	 0.100104
38.3951	110.1381	138.2833	164.2901	237.3058	299.5381	371.6342	414.8768	471.8003	501.6861	711.7634	727.4849	799.8728	805.0436	846.7407	869.47	928.7186	968.5163	984.947	1020.2029	1053.8692	1068.3488	1095.2951	1109.842	1137.4837	1150.3689	1167.7542	1194.3065	1225.852	1282.4367	1301.6877	1333.8094	1342.9481	1354.363	1386.5325	1410.6461	1482.6269	1488.3889	1505.3896	1508.9145	1811.5569	2959.6936	3001.8707	3015.1159	3039.5742	3064.3849	3110.3917	3115.0994	3119.3136	3126.9475	3577.4884
CCN=C1NC2COC12	CCN=C1N[C@H]2CO[C@@H]12	
InChI=1S/C6H10N2O/c1-2-7-6-5-4(8-6)3-9-5/h4-5H,2-3H2,1H3,(H,7,8)	InChI=1S/C6H10N2O/c1-2-7-6-5-4(8-6)3-9-5/h4-5H,2-3H2,1H3,(H,7,8)/t4-,5+/m0/s1
