19
gdb 87421	3.84293	1.41516	1.262	0.8383	79.3	-0.217	0.0821	0.2991	1050.3745	0.159978	-381.958801	-381.951364	-381.95042	-381.990397	29.929	
C	-0.0721734241	 1.4164420559	-0.0733324774	-0.314901
N	 0.0787141213	-0.0272943758	 0.060667561	-0.159151
C	 1.4415672055	-0.5664575937	-0.0979160217	-0.344607
C	 0.7689474622	-0.5433027016	 1.2210979623	 0.431219
C	 1.0648703529	 0.2162067653	 2.4986931113	-0.149783
C	 0.0516864237	-0.5748719483	 3.2437402742	-0.041704
C	 0.1928331756	-1.6631262198	 2.1022706281	-0.186443
C	 1.4429530686	-2.1148118791	 2.8735358155	-0.149015
N	 1.4909595387	-0.7733364797	 3.5571234707	-0.153648
H	 0.7993853871	 1.992250926	 0.2780015162	 0.100323
H	-0.2346327525	 1.6586324003	-1.1281810281	 0.124679
H	-0.9512431775	 1.7449293157	 0.4901224262	 0.12504
H	 1.5227705477	-1.4845619645	-0.6749610998	 0.114385
H	 2.2498137353	 0.1466008893	-0.2600528412	 0.107804
H	 1.3918619852	 1.2362929534	 2.646190595	 0.102175
H	-0.7089958509	-0.3113271795	 3.9662934633	 0.100377
H	-0.5639899818	-2.3375391856	 1.7084770795	 0.084449
H	 1.2475850634	-2.8740637343	 3.6345515024	 0.108698
H	 2.3363751794	-2.3802399441	 2.2965219724	 0.100106
140.1849	157.4776	221.2355	243.7215	355.9892	416.1754	471.7928	514.596	593.8903	741.939	774.6465	786.2346	822.8503	836.2098	890.6034	918.885	935.7571	937.1567	972.9366	1008.7129	1023.4368	1038.7659	1068.9052	1098.752	1130.8678	1136.2087	1157.244	1167.0476	1181.8199	1190.6591	1200.0409	1226.9419	1255.0046	1291.4441	1312.7434	1436.4266	1448.3468	1492.2813	1498.1658	1506.0417	1516.2207	2970.9678	3037.1382	3068.9129	3083.3854	3104.6122	3106.1698	3147.0289	3169.7191	3200.7331	3215.3621
CN1CC11C2C3C1CN23	CN1C[C@]21[C@H]1[C@H]3[C@@H]2CN13	
InChI=1S/C7H10N2/c1-8-3-7(8)4-2-9-5(4)6(7)9/h4-6H,2-3H2,1H3	InChI=1S/C7H10N2/c1-8-3-7(8)4-2-9-5(4)6(7)9/h4-6H,2-3H2,1H3/t4-,5+,6+,7+,8?,9?/m0/s1
