20
gdb 47427	2.9198	1.23667	0.9207	2.8591	78.84	-0.2344	-0.0208	0.2136	1283.1857	0.172181	-403.155086	-403.146619	-403.145675	-403.189038	31.899	
O	-0.3540607458	 0.0968895798	 0.6175095384	-0.31326
C	-0.2406251524	 1.2455208275	 0.2777469404	 0.396943
C	-1.3819414081	 2.1860975099	-0.1217469269	-0.314733
C	-0.689786244	 3.436497644	-0.6859160608	-0.22224
C	 0.6536956073	 3.4936669347	 0.0725724335	-0.233208
C	 1.092887123	 2.0216798587	 0.1810214182	-0.110199
C	 2.0602146391	 1.6855018895	 1.2882731749	 0.031622
C	 2.9561373461	 0.5123559199	 1.181544258	-0.235038
N	 3.5115649116	 1.8780028321	 1.116126009	-0.335662
H	-2.0800951491	 1.688972808	-0.7994077703	 0.129286
H	-1.9411776796	 2.4209393082	 0.793821693	 0.134184
H	-0.5047352041	 3.3109223652	-1.7592064563	 0.106474
H	-1.2811120312	 4.3469638018	-0.5643749492	 0.106771
H	 1.3956303892	 4.1265607041	-0.4201818709	 0.106665
H	 0.4982035532	 3.9011899778	 1.079633437	 0.108015
H	 1.534742477	 1.7091311949	-0.7794019166	 0.091413
H	 1.7113846118	 1.9684342465	 2.2804059615	 0.092023
H	 3.225014471	-0.0501644363	 2.0703188609	 0.121976
H	 2.9076776331	-0.0796173204	 0.2716894414	 0.114118
H	 3.714016092	 2.118694124	 0.1480658049	 0.224851
55.7277	72.3986	150.5349	178.1617	286.0782	319.1849	401.9891	484.8976	540.3285	566.0252	612.9388	725.1681	822.9009	833.817	862.2178	901.1011	915.6928	934.003	958.5883	969.6229	1010.3659	1047.6799	1060.9044	1116.2673	1130.2238	1154.8063	1159.4251	1175.472	1223.19	1236.8688	1251.5035	1273.4252	1299.0807	1299.6017	1311.0044	1339.7346	1349.5994	1429.8447	1447.2829	1493.6051	1505.6573	1515.3091	1843.8753	2978.5359	3032.2946	3032.5282	3043.234	3097.7474	3101.7327	3108.2803	3114.6592	3117.5903	3200.0509	3485.9104
O=C1CCCC1C1CN1	O=C1CCC[C@H]1[C@H]1CN1	
InChI=1S/C7H11NO/c9-7-3-1-2-5(7)6-4-8-6/h5-6,8H,1-4H2	InChI=1S/C7H11NO/c9-7-3-1-2-5(7)6-4-8-6/h5-6,8H,1-4H2/t5-,6+/m0/s1
