23
gdb 104163	3.07659	0.99277	0.95702	2.5064	81.01	-0.2557	0.0631	0.3188	1384.7705	0.205507	-425.445612	-425.435826	-425.434882	-425.480192	37.869	
C	-0.0210471633	 1.5348418005	 0.0454381479	-0.407035
C	 0.0837309189	 0.016891419	-0.0816726285	 0.049666
C	 1.1350710573	-0.4821535614	-1.0914254414	-0.209091
C	 1.2763902119	-1.9705180232	-0.7486263157	-0.280753
C	 1.1870239663	-2.0352319053	 0.797914729	 0.382433
O	 0.5009973364	-3.2094206488	 1.2555809341	-0.497601
C	 2.5722113262	-2.1652286582	 1.4441369457	-0.070569
O	 3.2018249002	-3.3787048352	 1.0953499693	-0.429701
C	 0.4872416604	-0.7105297395	 1.2199811555	-0.280094
H	 0.9348624406	 1.9670003131	 0.3643409435	 0.112831
H	-0.2936448979	 1.9972157096	-0.9094286137	 0.11162
H	-0.7776199154	 1.8239842611	 0.7827088426	 0.113471
H	-0.8930986458	-0.3715227385	-0.4052741898	 0.063182
H	 0.8502831179	-0.3042936019	-2.1328558209	 0.094472
H	 2.0859784509	 0.0417060781	-0.9235814496	 0.098012
H	 0.4312204475	-2.5242324581	-1.1808797456	 0.079361
H	 2.1900581062	-2.4421666056	-1.1171379509	 0.11848
H	-0.2674986053	-3.3511286334	 0.6947744606	 0.277052
H	 3.2195577935	-1.3506904204	 1.1022179887	 0.101786
H	 2.4571371567	-2.0684276436	 2.536296343	 0.08915
H	 2.5276699982	-4.056815147	 1.2310104171	 0.286382
H	 1.1869152212	-0.0850643491	 1.7905956944	 0.094608
H	-0.3566473927	-0.9216875121	 1.8818915446	 0.102338
39.6368	140.3021	174.2364	236.0042	244.2598	259.9296	276.3216	340.8568	365.3613	417.6543	427.7596	465.4037	492.3575	560.3553	649.8488	754.4834	818.7781	849.8574	882.6977	920.6693	933.3181	958.979	992.2283	1011.8703	1063.0446	1079.4545	1090.6022	1094.7141	1144.1084	1157.1174	1176.3872	1233.0344	1248.9473	1267.7796	1285.1063	1309.692	1335.5939	1348.0809	1370.5914	1386.1896	1396.5301	1412.9322	1438.8751	1481.4149	1490.3686	1496.3348	1497.6272	1499.6773	1505.4731	2972.3858	2990.5554	3008.4805	3018.7981	3022.1369	3027.1659	3074.5837	3082.2225	3089.6748	3094.9996	3095.2704	3107.4039	3775.8637	3824.8726
CC1CCC(O)(CO)C1	C[C@H]1CC[C@@](O)(CO)C1	
InChI=1S/C7H14O2/c1-6-2-3-7(9,4-6)5-8/h6,8-9H,2-5H2,1H3	InChI=1S/C7H14O2/c1-6-2-3-7(9,4-6)5-8/h6,8-9H,2-5H2,1H3/t6-,7-/m0/s1
