23
gdb 39495	2.11123	1.78467	1.24603	1.1624	84.6	-0.2448	0.0777	0.3225	1124.3529	0.209175	-388.273426	-388.265178	-388.264234	-388.306	33.257	
C	 0.0270362196	 1.4060520185	-0.4577271209	-0.298689
C	 1.3146261374	 0.7250386862	-0.0491992619	 0.001386
C	 2.1690500629	 1.1687354321	 1.1460822361	-0.20863
C	 1.9684371837	 0.4196222315	 2.4787545205	-0.216694
C	 0.8375281853	 1.0066404647	 3.3393621988	-0.066869
O	-0.281919808	 1.4633633522	 2.6035263397	-0.233173
C	-1.2255213899	 0.484546684	 2.2182311835	-0.070972
C	-0.7382909394	-0.5575713725	 1.2049156333	-0.251322
C	 0.0004088403	-0.0409667345	-0.0245192626	-0.004111
H	-0.3622920427	 2.1395436115	 0.2379576226	 0.129738
H	-0.1365409844	 1.6449399559	-1.5035768309	 0.09635
H	 1.9328185989	 0.4282378417	-0.8926601347	 0.076961
H	 3.2153120531	 1.039392426	 0.8490570584	 0.091806
H	 2.0412302115	 2.2436260006	 1.3197764442	 0.104957
H	 1.8145201312	-0.645987333	 2.2846791483	 0.102241
H	 2.8878851468	 0.4872631714	 3.0738545848	 0.09006
H	 0.5223174217	 0.2893890383	 4.114552558	 0.082899
H	 1.2132162988	 1.8991683561	 3.8528902123	 0.104384
H	-1.6152622435	-0.036346435	 3.1092411638	 0.084561
H	-2.0531575912	 1.0542676823	 1.7827785812	 0.108053
H	-0.1344844309	-1.3217261796	 1.7085106841	 0.101168
H	-1.6398423946	-1.0836285972	 0.8623285043	 0.097149
H	-0.0727786267	-0.750589211	-0.8456473633	 0.078745
75.5641	195.4391	233.0129	247.6511	275.5582	315.7936	363.4979	418.5722	518.5248	568.1899	624.9251	703.6985	723.3452	800.4054	835.849	855.9915	886.1896	908.9706	923.5322	948.6038	1018.0234	1032.9499	1050.393	1075.232	1105.4352	1120.8207	1134.239	1151.4752	1158.5928	1173.2731	1248.5058	1251.5902	1273.8989	1277.584	1301.3269	1336.3519	1366.5075	1377.1634	1385.6152	1397.588	1410.2165	1414.221	1437.5085	1476.3321	1482.2646	1491.7258	1494.9275	1496.7225	1508.416	2962.6148	2975.3613	3018.0684	3025.3274	3034.6412	3044.0511	3052.5268	3063.85	3073.5631	3088.6395	3115.8802	3128.1494	3135.9071	3226.5302
C1C2CCCOCCC12	C1[C@H]2CCCOCC[C@@H]12	
InChI=1S/C8H14O/c1-2-7-6-8(7)3-5-9-4-1/h7-8H,1-6H2	InChI=1S/C8H14O/c1-2-7-6-8(7)3-5-9-4-1/h7-8H,1-6H2/t7-,8+/m1/s1
