20
gdb 61847	2.60265	1.12969	0.93888	2.9197	76.37	-0.2496	0.0319	0.2815	1318.5474	0.170593	-440.29743	-440.287893	-440.286949	-440.333283	33.882	
C	 0.1078043528	 1.7381928837	-0.1110436568	-0.399881
C	 0.0185133646	 0.2092941332	-0.0073338124	 0.012139
N	-1.366358097	-0.2402833394	 0.0067343433	-0.277568
C	-2.0168253888	-0.6498434722	 1.1257448695	 0.153895
O	-1.5293848878	-0.7228682152	 2.2351085425	-0.330364
C	 0.7604930203	-0.469272469	-1.1568291625	 0.154851
C	 0.7475375194	-2.0081560897	-1.2676388385	-0.298632
C	 0.146428295	-1.760388866	-2.6639386501	-0.064356
O	 0.0356604383	-0.3393463275	-2.4107723336	-0.308503
H	 1.1502481096	 2.0686696877	-0.0608713683	 0.118013
H	-0.3137351337	 2.0855931882	-1.0597629904	 0.13057
H	-0.4424079129	 2.2070941419	 0.7083454341	 0.13189
H	 0.4569508104	-0.1215522179	 0.9394801547	 0.123739
H	-1.8612995479	-0.1969307408	-0.8713082617	 0.25288
H	-3.0693104146	-0.9237821095	 0.910639709	 0.072632
H	 1.7645296625	-0.0322019689	-1.2446201062	 0.077017
H	 1.7189720866	-2.5020056743	-1.2327688583	 0.113638
H	 0.0650353573	-2.4897593681	-0.5658189385	 0.125147
H	 0.823434202	-1.9659637288	-3.5022942077	 0.107576
H	-0.8281245861	-2.2146897875	-2.8742316281	 0.105315
26.5406	72.9978	103.121	176.132	196.2415	227.9495	267.6215	275.4156	368.7512	498.1476	595.3354	613.1476	691.2799	778.7392	819.7131	868.4634	905.1073	936.0987	976.5376	1007.2465	1023.3439	1031.3869	1053.9261	1104.741	1136.2921	1150.9283	1174.5719	1215.2993	1220.6841	1261.6198	1277.8597	1329.4642	1342.9794	1366.5414	1389.6308	1407.4486	1429.9039	1485.3781	1490.6094	1497.3036	1519.7225	1529.9238	1800.2723	2930.9781	3009.3035	3021.6795	3039.674	3065.1097	3077.4286	3087.0746	3111.1433	3126.1308	3144.3817	3624.2267
CC(NC=O)C1CCO1	C[C@@H](NC=O)[C@H]1CCO1	
InChI=1S/C6H11NO2/c1-5(7-4-8)6-2-3-9-6/h4-6H,2-3H2,1H3,(H,7,8)	InChI=1S/C6H11NO2/c1-5(7-4-8)6-2-3-9-6/h4-6H,2-3H2,1H3,(H,7,8)/t5-,6-/m1/s1
