18
gdb 86735	3.88827	1.07387	0.88251	1.9061	75.94	-0.2348	-0.0042	0.2306	1307.6331	0.149177	-435.326501	-435.317672	-435.316728	-435.360603	32.375	
C	-0.1464231592	 1.5313834355	-0.0614743263	-0.38685
C	 0.1102404771	 0.0295738214	 0.0221406569	 0.039827
C	 0.8808200134	-0.5471813381	-1.2027247652	-0.194435
N	 1.9194814041	-1.3523132774	-0.5464281456	-0.135767
C	 1.8752782167	-1.0549135513	 0.8140809351	 0.070824
N	 0.9284013894	-0.3062037049	 1.2117574932	-0.270805
C	 2.9072131186	-2.0021606739	-1.2711465643	 0.447467
N	 3.813745908	-2.7240512447	-0.508857421	-0.563861
O	 2.9770133576	-1.909285372	-2.4801208095	-0.38197
H	 0.7971316613	 2.0782020392	-0.1576610219	 0.12207
H	-0.7723436083	 1.770558803	-0.927521619	 0.1157
H	-0.6532666583	 1.8813885521	 0.8413602425	 0.130735
H	-0.852500935	-0.4850402903	 0.1376870929	 0.092636
H	 0.2669975303	-1.1684981476	-1.857460517	 0.129371
H	 1.3436376342	 0.2340481966	-1.8154881839	 0.127947
H	 2.6441923005	-1.4509299112	 1.4688108298	 0.134105
H	 3.4759047149	-3.1850394708	 0.3222824975	 0.256773
H	 4.4103007745	-3.3013633054	-1.0828045041	 0.266232
55.2069	85.7151	144.3246	188.3361	234.2485	328.8349	357.2703	408.1503	430.2861	540.6229	566.3071	572.1409	649.6751	747.1147	773.3372	830.9639	888.5239	930.1529	943.9456	948.2464	1076.1911	1085.5856	1131.6469	1152.6759	1174.4275	1224.651	1245.7404	1313.6391	1326.3644	1364.1975	1389.8691	1410.7937	1433.6808	1488.4282	1496.1134	1522.638	1624.404	1693.0897	1798.6993	3015.9245	3036.9608	3049.8259	3106.1177	3109.7541	3124.4155	3197.5496	3576.4379	3687.8657
CC1CN(C=N1)C(N)=O	C[C@H]1CN(C=N1)C(=O)N	
InChI=1S/C5H9N3O/c1-4-2-8(3-7-4)5(6)9/h3-4H,2H2,1H3,(H2,6,9)	InChI=1S/C5H9N3O/c1-4-2-8(3-7-4)5(6)9/h3-4H,2H2,1H3,(H2,6,9)/t4-/m0/s1
