22
gdb 9431	3.84072	0.83591	0.71847	1.3809	75.88	-0.2484	0.0819	0.3303	1613.3507	0.197517	-387.331523	-387.320848	-387.319903	-387.367909	36.941	
C	-0.0091250089	 1.4169240864	-0.0931997874	-0.233678
O	-0.0236752869	 0.0253192776	 0.114868751	-0.242762
C	-1.3095994332	-0.5809044472	 0.0376151755	 0.141937
C	-1.7701252408	-0.7445968361	-1.4138421518	-0.402761
C	-1.2069065759	-1.9257722835	 0.7600512126	-0.193929
C	-0.8692222473	-1.7926447917	 2.2470030181	-0.168271
C	-0.726172165	-3.1393922804	 2.9420182028	-0.075575
O	-0.4333309308	-2.8988828621	 4.3110136674	-0.421816
H	 1.0139228094	 1.7584487477	 0.0850222967	 0.125684
H	-0.2933586937	 1.698488751	-1.1179750192	 0.103705
H	-0.6820387001	 1.9399794544	 0.6047573297	 0.102959
H	-2.0349683919	 0.0558749307	 0.5746083517	 0.060227
H	-1.0677860222	-1.3782636354	-1.9649055042	 0.121609
H	-2.7606241913	-1.2091337868	-1.4526267999	 0.113172
H	-1.8367480342	 0.2184784681	-1.9279415203	 0.114576
H	-2.1576139498	-2.4594383117	 0.6343974854	 0.090059
H	-0.4393822013	-2.524958497	 0.2522980154	 0.101212
H	 0.0626023749	-1.2313803068	 2.361752801	 0.121994
H	-1.6512829119	-1.2198174773	 2.7614066923	 0.097034
H	-1.6584170108	-3.7189200452	 2.8318133542	 0.078178
H	 0.0756802458	-3.722863201	 2.459802239	 0.083029
H	-0.3283111843	-3.7482624936	 4.7491056498	 0.283418
66.9754	71.3664	80.0135	128.6295	150.5769	199.5169	225.7081	262.2176	280.9738	304.9331	328.3395	439.4666	507.4895	533.0005	753.744	816.3293	870.1804	924.5737	994.7215	1006.0243	1052.2795	1072.0803	1108.7425	1120.4263	1150.7965	1174.7931	1184.9499	1208.3988	1239.0292	1245.3999	1299.2266	1307.8633	1319.327	1358.2466	1384.6205	1402.2929	1406.4852	1463.4022	1473.9241	1478.8567	1483.5616	1494.1181	1502.7511	1503.2211	1513.1954	1529.5615	2945.0854	2953.1621	2974.3217	2978.1678	3017.5725	3020.568	3034.5017	3038.3186	3056.9434	3100.169	3107.2081	3108.9781	3112.2899	3830.1952
COC(C)CCCO	CO[C@@H](C)CCCO	
InChI=1S/C6H14O2/c1-6(8-2)4-3-5-7/h6-7H,3-5H2,1-2H3	InChI=1S/C6H14O2/c1-6(8-2)4-3-5-7/h6-7H,3-5H2,1-2H3/t6-/m0/s1
