19
gdb 18755	2.74128	2.32508	1.55717	1.5183	70.61	-0.2098	0.0531	0.2628	881.818	0.166134	-365.008424	-365.000614	-364.999669	-365.040981	29.799	
C	 0.2651277284	 1.5501659195	-0.3603322955	-0.40601
C	 0.031742396	 0.0944209325	 0.0229459486	 0.026928
C	 0.6273033336	-1.0253299175	-0.8769994775	-0.192446
N	 1.2267272659	-1.7281691698	 0.3031604194	-0.123424
C	 2.6559676983	-1.3466762975	 0.5293590077	-0.21611
C	 2.2440251087	-0.2682323136	 1.5714728009	 0.104094
O	 2.6535660489	 1.0654824866	 1.3681184463	-0.422681
C	 0.7750066142	-0.588718908	 1.2069497055	-0.017703
H	 1.3209987774	 1.7567803136	-0.5396283563	 0.131929
H	-0.299934353	 1.790191261	-1.2684888453	 0.104129
H	-0.0723766531	 2.2274393718	 0.4311198639	 0.114671
H	-1.0427909799	-0.0638927918	 0.1620784945	 0.078028
H	-0.100760719	-1.6455883539	-1.4093281907	 0.099226
H	 1.3754491916	-0.6772307838	-1.6002722121	 0.094446
H	 3.2597986667	-2.1753361429	 0.9135874012	 0.097149
H	 3.1493906486	-0.9267316698	-0.3551724167	 0.09857
H	 2.4651484074	-0.5842994416	 2.6002859227	 0.073502
H	 3.5647651368	 1.1491940213	 1.6664556309	 0.286036
H	 0.1434542525	-0.849009446	 2.0618471727	 0.069666
32.4832	180.0876	247.1009	257.3448	285.3288	341.5639	397.0647	420.5647	584.4354	627.6588	714.9572	753.6419	846.0552	870.2609	904.0449	934.4617	958.1858	991.8664	1023.0496	1045.4826	1084.4574	1120.3876	1164.7775	1174.1983	1176.0274	1205.7546	1218.345	1222.689	1286.4097	1288.8849	1308.2114	1318.4313	1357.9963	1371.3167	1415.0415	1436.8235	1486.8675	1492.419	1500.5984	1512.9459	2996.4001	3017.8168	3024.552	3032.1916	3038.0156	3056.3054	3072.9802	3078.252	3092.6891	3141.8196	3815.2048
CC1CN2CC(O)C12	C[C@H]1CN2C[C@@H](O)[C@@H]12	
InChI=1S/C6H11NO/c1-4-2-7-3-5(8)6(4)7/h4-6,8H,2-3H2,1H3	InChI=1S/C6H11NO/c1-4-2-7-3-5(8)6(4)7/h4-6,8H,2-3H2,1H3/t4-,5+,6+/m0/s1
