19
gdb 88716	2.5268	1.3498	1.09505	2.3644	82.38	-0.215	0.03	0.245	1177.3169	0.157953	-381.963041	-381.953869	-381.952925	-381.99715	34.354	
C	-0.7855703454	 0.8783803769	 0.2335219191	-0.314027
N	 0.1374647207	-0.2464665398	 0.1242694346	-0.083728
C	 1.519019484	 0.0174901236	-0.2335556987	-0.252016
C	 1.1704015539	-0.5527120854	 1.1049583255	-0.004878
C	 1.5279807271	 0.1792396939	 2.3675009407	-0.025217
N	 0.9636830527	 1.488177171	 2.6857435588	-0.3297
C	 0.6279643051	 0.3367190046	 3.5599294452	-0.259375
C	-0.7314977024	-0.1247594405	 3.5975349763	 0.385096
C	-1.8542057227	-0.5471736371	 3.6803039999	-0.432076
H	-0.3255356503	 1.8096993755	 0.5812648081	 0.125291
H	-1.2238685808	 1.0391117993	-0.7574490952	 0.107886
H	-1.5876005359	 0.6166540209	 0.9276469642	 0.1304
H	 1.955712601	-0.6044032735	-1.0122232486	 0.108138
H	 1.8467997768	 1.057985273	-0.24140086	 0.104008
H	 1.3042000667	-1.6275805839	 1.2380931311	 0.094878
H	 2.573306801	 0.0133098584	 2.6355750257	 0.094012
H	 1.6526212028	 2.0767806907	 3.1460413346	 0.239096
H	 1.1302942662	 0.2981358534	 4.524918015	 0.11152
H	-2.8487462707	-0.9148860609	 3.7383452637	 0.200693
53.586	99.2608	177.7222	184.4262	232.7938	258.8183	305.7617	352.1843	412.5296	532.1879	576.9756	611.2159	659.1613	662.4114	713.3699	757.3258	826.9836	863.9686	918.3212	949.8845	982.6643	1040.8341	1061.8664	1092.6099	1111.7059	1124.6968	1142.7732	1176.6895	1186.8357	1207.5999	1217.1451	1256.6651	1350.9847	1393.8468	1414.2175	1451.1845	1460.6348	1488.0486	1501.1148	1515.038	2239.5582	3024.6399	3073.7234	3079.1684	3087.8752	3091.1227	3119.7283	3122.5671	3159.1042	3503.2343	3506.513
CN1CC1C1NC1C#C	CN1C[C@H]1[C@H]1N[C@H]1C#C	
InChI=1S/C7H10N2/c1-3-5-7(8-5)6-4-9(6)2/h1,5-8H,4H2,2H3	InChI=1S/C7H10N2/c1-3-5-7(8-5)6-4-9(6)2/h1,5-8H,4H2,2H3/t5-,6-,7-,9?/m0/s1
