16
gdb 47773	2.07094	1.68421	1.21794	3.1344	68.88	-0.2558	-0.0529	0.2029	1051.2023	0.125142	-437.913528	-437.905529	-437.904584	-437.946537	29.295	
O	 0.008180947	-0.0307063411	 0.0648222761	-0.281089
C	-0.0285852235	 1.1685367327	 0.0057452283	 0.390249
C	-1.3210807415	 1.9786342594	-0.0495804333	-0.182648
O	-1.2852081826	 2.9663335288	-1.0643989581	-0.243347
C	-0.2066247612	 3.8770284583	-0.9161966569	-0.083435
C	 1.1320713252	 3.1587551027	-1.0756206283	-0.230939
C	 1.2666947683	 2.0259272062	-0.0240233775	-0.244737
C	 1.4923656525	 2.5731690315	 1.3148563992	 0.265183
N	 1.6495830632	 3.0184289605	 2.3704263961	-0.317556
H	-2.1516210284	 1.3059649771	-0.2695073946	 0.144632
H	-1.4856835708	 2.4349568876	 0.9428749812	 0.131565
H	-0.3355495801	 4.6295024412	-1.6979851229	 0.125641
H	-0.2599979527	 4.3842597469	 0.0605970671	 0.118639
H	 1.1775567976	 2.7067331448	-2.0714611714	 0.129896
H	 1.9669082009	 3.8599830371	-0.982955466	 0.129443
H	 2.0931282062	 1.3511103861	-0.2646766591	 0.148502
72.9704	128.6672	135.998	225.3514	330.4648	371.4119	414.6283	449.2199	484.565	551.2201	605.575	695.8853	768.9126	862.4393	868.1018	939.6462	980.1463	1025.1368	1058.6222	1098.2608	1127.8677	1164.2704	1223.138	1241.7927	1281.0873	1303.4665	1326.8989	1360.7086	1374.179	1412.432	1469.9089	1476.4362	1496.6044	1844.1916	2349.7169	2958.2211	2985.8992	3052.865	3080.1058	3101.5407	3105.7777	3126.7482
O=C1COCCC1C#N	O=C1COCC[C@H]1C#N	
InChI=1S/C6H7NO2/c7-3-5-1-2-9-4-6(5)8/h5H,1-2,4H2	InChI=1S/C6H7NO2/c7-3-5-1-2-9-4-6(5)8/h5H,1-2,4H2/t5-/m0/s1
