21
gdb 63816	3.18663	1.50128	1.33748	1.645	81.14	-0.2402	0.074	0.3142	1060.9349	0.18211	-387.037703	-387.029496	-387.028552	-387.069757	33.394	
C	-0.3143810234	 1.6122009219	-0.0280604543	-0.446851
C	-0.0039726856	 0.124422177	 0.0219418565	 0.396455
C	-1.2505606708	-0.7033450025	-0.2910442997	-0.419539
O	 1.0726018302	-0.2732364762	-0.9066093803	-0.349207
C	 1.7175007801	-1.0731624708	 0.1172462626	 0.10838
C	 2.9676939788	-0.467614568	 0.794655658	-0.068183
C	 2.8693138828	 1.0216649135	 0.8229011865	-0.291181
C	 2.0366969254	 0.2332459199	 1.8052003466	-0.088842
C	 0.8036081545	-0.4840611675	 1.199665491	-0.104915
H	-0.5727395958	 1.9032090088	-1.0518937785	 0.12386
H	-1.1757835654	 1.8344145403	 0.6106429549	 0.114098
H	 0.5200874978	 2.2272702288	 0.3072989519	 0.126104
H	-1.6196615742	-0.464667164	-1.2934951491	 0.121046
H	-1.027390402	-1.7737928867	-0.258282829	 0.115013
H	-2.0483375842	-0.495215043	 0.430300374	 0.1098
H	 1.7627496542	-2.1346662216	-0.137095277	 0.073966
H	 3.8949670402	-1.0012505188	 0.9644352297	 0.083199
H	 3.7163543954	 1.5253056805	 1.2785863845	 0.109215
H	 2.4392451767	 1.5409602036	-0.0233561742	 0.130899
H	 2.1814858906	 0.362899291	 2.8709724524	 0.087595
H	 0.2655793847	-1.1141392262	 1.9079344338	 0.069089
150.4586	174.9168	193.9797	237.9978	315.3138	326.851	360.596	391.1854	527.8396	557.6692	622.7033	735.0639	740.3414	768.8328	836.6692	877.5411	892.3091	910.9938	930.2401	945.7099	960.5625	983.6129	991.5065	1011.8801	1039.4181	1056.7187	1068.5504	1103.1991	1164.3242	1173.1146	1193.8259	1203.6601	1220.5862	1275.1554	1297.6961	1302.9601	1317.4961	1366.7015	1396.4709	1411.4569	1473.6613	1479.5579	1483.6798	1496.0859	1507.9217	3030.6634	3042.452	3076.4386	3098.5547	3106.8654	3108.8998	3112.2532	3139.1235	3150.3951	3176.0894	3186.8828	3231.3703
CC1(C)OC2C3CC3C12	CC1(C)O[C@H]2[C@H]3C[C@H]3[C@@H]12	
InChI=1S/C8H12O/c1-8(2)6-4-3-5(4)7(6)9-8/h4-7H,3H2,1-2H3	InChI=1S/C8H12O/c1-8(2)6-4-3-5(4)7(6)9-8/h4-7H,3H2,1-2H3/t4-,5+,6-,7+/m1/s1
