16
gdb 95535	2.18339	1.72601	1.2504	5.2528	69.56	-0.2415	0.0099	0.2514	1024.102	0.126021	-434.082398	-434.073941	-434.072997	-434.115614	30.766	
O	-0.067494377	 1.4226636167	 0.07401652	-0.417277
C	 0.0132688197	 0.0171237265	 0.013373859	 0.090915
C	-1.4203098287	-0.5073139767	 0.0645964713	-0.171482
N	-1.390002412	-1.9434453512	-0.1558983215	-0.294704
C	-0.3885265715	-2.5324944264	-0.8641961703	 0.109634
N	 0.6355556787	-1.9766582735	-1.3994898679	-0.269032
C	 0.7095912375	-0.5163550965	-1.2665243105	-0.181029
C	 0.1540758758	 0.1318847698	-2.467961348	 0.308969
N	-0.2933713373	 0.6262216534	-3.4118392358	-0.33501
H	 0.8220375305	 1.7897525942	 0.0467174937	 0.294647
H	 0.5737372881	-0.3945851315	 0.8659600112	 0.093099
H	-1.8588791842	-0.2900069782	 1.0423457874	 0.126673
H	-2.013711551	 0.0148244597	-0.6972874158	 0.146614
H	-2.1708034216	-2.5041725339	 0.1381903959	 0.257064
H	-0.4871198618	-3.6146905522	-0.9534643413	 0.121925
H	 1.772303865	-0.2428425202	-1.2214827873	 0.118993
67.8425	148.2622	178.0588	200.5504	249.5884	303.6148	330.8655	411.9861	446.526	500.6793	541.4169	627.9293	658.8076	780.1364	893.6225	954.2505	976.9591	985.4124	1025.2318	1068.1294	1091.0927	1134.6419	1212.3327	1230.2688	1255.4828	1299.8749	1314.4539	1344.7845	1378.8806	1411.3227	1441.7572	1507.5076	1534.2279	1708.8413	2354.5701	2992.4461	3018.5734	3028.419	3091.4937	3133.8315	3661.79	3820.3115
OC1CNC=NC1C#N	O[C@H]1CNC=N[C@H]1C#N	
InChI=1S/C5H7N3O/c6-1-4-5(9)2-7-3-8-4/h3-5,9H,2H2,(H,7,8)	InChI=1S/C5H7N3O/c6-1-4-5(9)2-7-3-8-4/h3-5,9H,2H2,(H,7,8)/t4-,5-/m0/s1
