19
gdb 38178	3.05735	1.60207	1.24623	1.7282	82.53	-0.2199	-0.0039	0.216	1032.4021	0.160204	-385.823184	-385.815646	-385.814702	-385.854739	30.633	
C	-0.0192541194	 1.4493528024	 0.0185519197	-0.243884
C	 1.5821487026	 1.6662022754	 0.0084840719	-0.24389
C	 2.2093786974	 0.2932679262	 0.0572577728	-0.056318
C	 2.4330030969	-0.4747146437	-1.0143959772	-0.099139
C	 2.0150629556	-1.9005096176	-1.04748043	 0.016489
O	 1.3217483595	-2.4289303609	 0.0820482692	-0.240689
C	 0.4989425754	-2.1058144298	-1.0379264268	 0.016481
C	-0.2826657327	-0.8424483026	-0.9972796887	-0.099125
C	-0.2581428737	-0.0408630156	 0.072816742	-0.056332
H	-0.4534043529	 1.9782141983	 0.8717371748	 0.105764
H	-0.4380566773	 1.8826697365	-0.8948185174	 0.107246
H	 1.8593205359	 2.1938057728	-0.9092388065	 0.107246
H	 1.870526182	 2.2928630779	 0.8571536629	 0.105765
H	 2.128819128	-0.2188983498	 1.0121624911	 0.107711
H	 2.5193228658	-0.0206508789	-2.0031170169	 0.084139
H	 2.6016567805	-2.6361003392	-1.5972556127	 0.098342
H	 0.122335802	-2.971836772	-1.5816259446	 0.098344
H	-0.4988002915	-0.4293182374	-1.9840956097	 0.084139
H	-0.0325310241	-0.5115462021	 1.0258138359	 0.107711
134.1964	214.8568	219.091	304.6807	330.4761	366.9956	443.0652	493.692	545.1288	654.3606	668.3432	779.355	794.0599	824.4646	838.792	866.1738	876.1205	883.7299	942.1502	993.7028	1023.294	1066.5192	1070.8831	1088.8874	1096.7324	1118.7858	1165.8811	1223.6991	1224.6973	1247.8603	1306.6313	1323.0837	1326.0634	1333.7072	1360.0476	1363.6577	1390.3777	1475.1183	1494.7378	1691.9551	1696.6679	3042.449	3053.8533	3085.2332	3102.6579	3107.1864	3108.871	3112.7781	3122.3606	3152.4033	3170.7163
C1CC=CC2OC2C=C1	C1C[CH][CH][C@H]2O[C@H]2[CH][CH]1	
InChI=1S/C8H10O/c1-2-4-6-8-7(9-8)5-3-1/h3-8H,1-2H2/b5-3-,6-4-	InChI=1S/C8H10O/c1-2-4-6-8-7(9-8)5-3-1/h3-8H,1-2H2/t7-,8+
