15
gdb 12903	3.31343	1.86303	1.52647	5.6511	65.99	-0.2324	0.0347	0.2671	856.5383	0.120401	-358.797387	-358.790115	-358.789171	-358.828695	27.612	
N	-0.0527795242	 1.4784866209	 0.1034280482	-0.595236
C	-0.0445939654	 0.0685810145	-0.0497084729	 0.266439
C	 0.6019166288	-0.7936223708	-1.152675475	-0.241147
N	-0.4899657843	-1.8192559209	-1.0076224477	-0.31481
C	-1.1799290909	-0.9411385015	-0.0519265264	-0.057494
C	-0.3109552185	-0.7938552293	 1.1808286776	-0.208172
C	 0.5900642212	-1.8176936113	 1.6367064571	 0.312439
N	 1.3303374352	-2.6218365721	 2.0151666854	-0.350074
H	 0.8181006626	 1.8152996688	 0.5039182168	 0.241264
H	-0.1867821317	 1.9481117112	-0.7865401965	 0.235209
H	 0.573497005	-0.2793852457	-2.1192982842	 0.103261
H	 1.6079161401	-1.1858807794	-0.9739553122	 0.128476
H	-1.0199869957	-1.905243853	-1.8680985247	 0.229746
H	-2.257326748	-0.8380428202	-0.0037781048	 0.111241
H	-0.7801701744	-0.216651221	 1.9714802394	 0.138858
133.3095	140.1026	235.7077	298.9505	345.5041	383.543	397.2198	557.3195	605.7675	630.4158	763.0609	780.4757	804.1997	844.3471	903.955	947.9994	991.8527	1010.2165	1021.8421	1049.541	1083.5149	1141.1385	1197.3596	1245.6896	1278.296	1287.0327	1339.8467	1359.9199	1472.6125	1501.9525	1658.2429	2353.999	3038.3699	3093.8281	3170.7736	3192.4513	3489.0052	3532.0158	3568.3416
NC12CNC1C2C#N	N[C@]12CN[C@H]1[C@H]2C#N	
InChI=1S/C5H7N3/c6-1-3-4-5(3,7)2-8-4/h3-4,8H,2,7H2	InChI=1S/C5H7N3/c6-1-3-4-5(3,7)2-8-4/h3-4,8H,2,7H2/t3-,4+,5+/m1/s1
