18
gdb 32453	3.20206	1.22934	0.89986	1.6063	76.75	-0.1854	0.0359	0.2213	1289.3473	0.146621	-439.099472	-439.089764	-439.08882	-439.134192	34.493	
C	-0.0418188643	 1.3455402657	-0.0271903106	-0.250624
O	-0.0624548298	-0.0688109802	 0.0297035392	-0.272187
C	 0.6293702601	-0.6109929983	 1.0620381626	 0.29683
C	 1.3559375383	-0.0391766172	 2.0619389166	-0.1812
O	 1.8734304279	-1.0195337713	 2.860332435	-0.200541
C	 1.4553655441	-2.2270651301	 2.3660112363	 0.342183
C	 1.8889160039	-3.4512336562	 3.0859747274	-0.49956
C	 0.6925359203	-2.0339545299	 1.2522524849	-0.006229
N	 0.0281513004	-2.9827588002	 0.4518428243	-0.625239
H	 0.9849001593	 1.7202331079	-0.1372916049	 0.122264
H	-0.6317838725	 1.6375588781	-0.8972148591	 0.133734
H	-0.4833640832	 1.7817848331	 0.8788784228	 0.124197
H	 1.5922737421	 0.9741650725	 2.3329147061	 0.12604
H	 1.7382127413	-3.3460226442	 4.1659363662	 0.13727
H	 1.2977025587	-4.3057236792	 2.7447810478	 0.133014
H	 2.9493356996	-3.6858849214	 2.925540861	 0.128274
H	 0.6354264327	-3.7338087876	 0.1478016858	 0.242318
H	-0.3693808789	-2.5370356414	-0.3661764614	 0.249456
77.9298	102.7698	126.701	163.1335	182.965	215.8386	241.2011	298.505	337.7265	401.8046	522.0366	596.2357	605.1185	646.3451	699.3775	739.0457	755.4898	803.5967	940.2786	990.4754	1061.4109	1089.6367	1167.814	1182.6445	1194.1782	1230.194	1247.2323	1282.1207	1320.2942	1411.8807	1468.0167	1474.8936	1481.9045	1488.2347	1493.2806	1509.3146	1626.8109	1651.6141	1707.4484	2999.3177	3015.9519	3055.4087	3070.9848	3113.9919	3136.3537	3290.8673	3527.4189	3613.4677
COC1=COC(C)=C1N	COc1coc(C)c1N	
InChI=1S/C6H9NO2/c1-4-6(7)5(8-2)3-9-4/h3H,7H2,1-2H3	InChI=1S/C6H9NO2/c1-4-6(7)5(8-2)3-9-4/h3H,7H2,1-2H3
