18
gdb 122056	2.65734	0.96262	0.8336	6.4161	71.72	-0.2464	-0.0306	0.2157	1435.8925	0.144977	-476.244479	-476.23441	-476.233466	-476.280819	33.851	
C	-0.096483874	 1.3487015399	 0.1019944069	-0.233329
O	 0.0324554523	-0.0561970142	 0.0540494026	-0.229276
C	 0.6082861501	-0.5259200339	-1.1392398893	-0.042808
C	 0.5542723014	-2.0501582463	-1.1184448577	-0.227896
N	-0.8114515626	-2.5750566247	-1.1353173353	-0.08313
C	-1.3688210386	-2.937196787	-2.3675906473	 0.166006
O	-2.4811509432	-3.3379216562	-2.5646761452	-0.263446
C	-1.5092562549	-2.6469589748	 0.0861086812	 0.171293
O	-2.6529339487	-2.9761284374	 0.2252381149	-0.267023
H	 0.8828153275	 1.8468924008	 0.0386226886	 0.110633
H	-0.731362497	 1.723928308	-0.7144279473	 0.116486
H	-0.5615419637	 1.5984125473	 1.0577413184	 0.139372
H	 0.0615121009	-0.1426506581	-2.0173408063	 0.098788
H	 1.6573471971	-0.196775608	-1.2316688318	 0.096567
H	 1.0931179302	-2.4457815422	-1.9836254687	 0.129282
H	 1.0642446402	-2.4157833733	-0.2223993981	 0.138653
H	-0.6202825521	-2.813136633	-3.1778564851	 0.078723
H	-0.8482335449	-2.3602549467	 0.9228816395	 0.101105
44.0412	62.7831	104.8004	148.8293	160.8482	230.0569	235.115	238.3987	284.9501	359.9088	405.2581	525.3515	542.3428	658.5825	844.2568	960.347	967.9619	1013.5417	1033.1969	1036.5431	1090.731	1164.7535	1181.7816	1200.0331	1208.2071	1246.4155	1278.4702	1375.1322	1391.9532	1418.6216	1452.8579	1457.1355	1480.4765	1487.3146	1496.89	1499.9796	1523.1856	1798.1092	1877.8476	2908.6864	2955.8974	2979.0806	2983.313	2989.1405	3032.0852	3064.7314	3110.4931	3127.2467
COCCN(C=O)C=O	COCCN(C=O)C=O	
InChI=1S/C5H9NO3/c1-9-3-2-6(4-7)5-8/h4-5H,2-3H2,1H3	InChI=1S/C5H9NO3/c1-9-3-2-6(4-7)5-8/h4-5H,2-3H2,1H3
