17
gdb 7253	4.18582	1.18828	1.0056	1.993	66.95	-0.2865	-0.0263	0.2603	1170.088	0.13967	-401.03455	-401.025445	-401.024501	-401.06892	31.659	
C	-0.1210623202	 0.9175666435	-0.706898595	-0.400328
C	-0.0011362083	-0.253634599	 0.2893751019	-0.037695
C	 0.6410699364	 0.180572591	 1.6084177951	-0.384148
C	-1.3490058081	-0.8970121345	 0.502793388	 0.406234
N	-1.9855166552	-0.8734856968	 1.5906912368	-0.485579
O	-1.7690539155	-1.5475634081	-0.6640690434	-0.204903
C	-3.0775272679	-1.4701070706	-1.0371084348	 0.153484
O	-3.5182467082	-2.115518662	-1.9351695577	-0.250776
H	 0.8685746684	 1.336548834	-0.9088849058	 0.12631
H	-0.5525948402	 0.5947392585	-1.657602955	 0.131476
H	-0.7466499703	 1.7152804815	-0.292603778	 0.12673
H	 0.6230153979	-1.0241084047	-0.1832651875	 0.109998
H	 0.035660124	 0.9440416457	 2.1038946922	 0.134117
H	 0.7393576649	-0.6602404632	 2.2990511976	 0.127857
H	 1.6357989551	 0.5947439887	 1.4189032754	 0.111113
H	-2.8583772341	-1.3995362091	 1.560018113	 0.232701
H	-3.6450130985	-0.7363174551	-0.439634083	 0.10341
45.3487	84.4802	141.335	211.4653	220.8895	237.2805	274.5286	320.5944	336.4465	433.617	543.5037	659.9857	690.2604	833.1373	894.0311	927.5789	935.9649	971.4127	1029.1161	1053.0747	1110.7604	1131.2076	1143.7352	1190.8769	1248.5185	1324.8081	1375.8123	1400.4911	1414.4787	1423.348	1485.592	1487.6835	1501.3169	1512.2285	1751.3673	1873.456	2997.1917	3022.7691	3041.0141	3048.8609	3111.7097	3120.7786	3125.2173	3129.1496	3491.5326
CC(C)C(=N)OC=O	CC(C)[C]([NH])OC=O	
InChI=1S/C5H9NO2/c1-4(2)5(6)8-3-7/h3-4,6H,1-2H3	InChI=1S/C5H9NO2/c1-4(2)5(6)8-3-7/h3-4,6H,1-2H3
