19
gdb 46839	2.68314	1.75355	1.44677	2.9921	78.76	-0.2231	-0.0173	0.2058	971.7583	0.162623	-385.932152	-385.925118	-385.924174	-385.963459	28.912	
O	 0.0381143212	-0.0593066869	 0.1525482002	-0.324258
C	-0.0065464277	 1.1404564428	 0.025347969	 0.404413
C	-1.3335341912	 1.8988324991	-0.1092324126	-0.300668
C	-1.2900976168	 3.1733984712	-0.9931884812	-0.217763
C	 0.0864640237	 3.879611358	-0.9393741953	-0.047922
C	 1.1667428303	 2.8446017171	-1.3200242585	-0.23052
C	 1.2479336747	 2.0247375403	-0.0065500153	-0.13847
C	 1.1192580599	 3.1366405466	 1.0278795642	-0.09238
C	 0.4767382147	 4.1806873495	 0.5019096195	-0.069473
H	-2.0915055892	 1.1918376541	-0.4548293834	 0.12107
H	-1.6139692733	 2.1765394622	 0.9141564976	 0.132645
H	-1.4948462278	 2.9024687544	-2.035488867	 0.106545
H	-2.089905897	 3.8563001847	-0.6859822939	 0.100112
H	 0.0810204536	 4.7596864132	-1.5889953596	 0.067875
H	 0.8981770515	 2.2425344852	-2.1946225998	 0.101169
H	 2.1294834094	 3.3275782719	-1.5116659155	 0.104812
H	 2.1314761961	 1.3921701411	 0.0924064619	 0.080483
H	 1.4454345348	 3.0265623495	 2.0551410439	 0.104389
H	 0.1846240329	 5.082638086	 1.0272998759	 0.09794
93.8811	209.4335	309.4295	354.9933	393.3266	439.9466	515.9237	556.9163	620.7445	713.6669	753.7556	767.9977	811.2974	844.4421	883.8127	894.8867	922.1888	962.1635	967.6171	1002.3788	1014.136	1051.8572	1061.0003	1098.6229	1128.2762	1171.373	1200.5511	1225.8052	1254.726	1275.7655	1290.7504	1308.816	1320.9174	1344.0395	1354.4039	1381.9273	1456.3729	1486.5354	1500.9148	1658.4194	1817.1715	3031.2841	3040.8814	3044.0095	3065.9278	3071.1053	3094.2501	3102.9345	3106.2497	3189.6304	3215.7279
O=C1CCC2CC1C=C2	O=C1CC[C@@H]2C[C@H]1C=C2	
InChI=1S/C8H10O/c9-8-4-2-6-1-3-7(8)5-6/h1,3,6-7H,2,4-5H2	InChI=1S/C8H10O/c9-8-4-2-6-1-3-7(8)5-6/h1,3,6-7H,2,4-5H2/t6-,7-/m1/s1
