16
gdb 7864	4.41301	1.19195	1.01647	3.9613	62.98	-0.2271	0.0616	0.2886	1132.3124	0.130401	-417.072993	-417.064532	-417.063588	-417.106567	31.075	
N	-0.1064051105	 1.3175027476	-0.1639047971	-0.568879
C	 0.0255032082	-0.048901304	 0.0693114441	 0.452841
O	 1.0983245303	-0.576373593	 0.298696171	-0.393349
N	-1.1622736924	-0.738820385	-0.0138570557	-0.353923
C	-1.162111736	-2.1686211482	-0.0083063856	 0.06322
C	-2.1054723348	-2.917719585	 0.9136424021	-0.341279
C	-2.3728498552	-2.8483984395	-0.5735822191	 0.057375
O	-3.3658060577	-1.9799177024	-1.0494623873	-0.42746
H	 0.7112224418	 1.8316035283	 0.1275527945	 0.25844
H	-0.9766482456	 1.7512283213	 0.1069065242	 0.245229
H	-1.9464825757	-0.3144943594	-0.4872616517	 0.251625
H	-0.1809513568	-2.5871151994	-0.1945001952	 0.132217
H	-1.7829126115	-3.8598480088	 1.3434567686	 0.118907
H	-2.7403732742	-2.3086340031	 1.5485941655	 0.11388
H	-2.2315486724	-3.746563143	-1.1726868059	 0.096654
H	-4.2224022474	-2.3117066166	-0.7624930025	 0.2945
37.8304	106.6749	152.2802	248.815	291.0393	330.6158	390.736	424.4303	479.6095	529.0075	565.0442	594.9702	648.6516	766.2536	777.9236	830.3564	918.812	968.0769	1007.7637	1038.5271	1084.4895	1097.6321	1129.9253	1173.0846	1204.6898	1244.8848	1294.1291	1312.5116	1382.2457	1416.0758	1478.5055	1537.9144	1627.5644	1801.524	3112.0401	3130.5545	3198.9389	3225.063	3571.4566	3607.4284	3685.7732	3815.4056
NC(=O)NC1CC1O	NC(=O)N[C@H]1C[C@H]1O	
InChI=1S/C4H8N2O2/c5-4(8)6-2-1-3(2)7/h2-3,7H,1H2,(H3,5,6,8)	InChI=1S/C4H8N2O2/c5-4(8)6-2-1-3(2)7/h2-3,7H,1H2,(H3,5,6,8)/t2-,3+/m0/s1
