18
gdb 70544	2.66467	1.61014	1.19417	4.7859	71.9	-0.2487	0.0526	0.3014	1065.6444	0.148891	-439.124168	-439.116113	-439.115169	-439.156789	31.011	
C	 0.0154112133	 1.5066299562	 0.0471722317	-0.44632
C	 0.0419655893	-0.0001168918	 0.057819568	 0.423533
C	-0.880647781	-0.8063053392	 0.9239812828	-0.337821
C	 0.6115075791	-0.7881628544	 1.2018730334	-0.08507
C	 1.4818849362	-1.9646901317	 0.7995037335	-0.196557
N	 2.1386574696	-1.6581769195	-0.4683612361	-0.354683
C	 1.4519115538	-1.1510129742	-1.5431565946	 0.42966
O	 1.818043802	-1.2383569597	-2.6869486971	-0.381368
O	 0.275447695	-0.5243042888	-1.2417714161	-0.277953
H	 0.9852916219	 1.9101358199	-0.2611255358	 0.132153
H	-0.7428732785	 1.8684370239	-0.6538021535	 0.137406
H	-0.2200661157	 1.8951859899	 1.0420367403	 0.117301
H	-1.5379926972	-0.2788858509	 1.6060672495	 0.118682
H	-1.2966500677	-1.7102594368	 0.4917078318	 0.126259
H	 0.95172649	-0.2197353082	 2.060492844	 0.101049
H	 2.2585067078	-2.1388161444	 1.5489868905	 0.121111
H	 0.8878156243	-2.8874638832	 0.7298052155	 0.115865
H	 2.9094065778	-2.242507437	-0.7540786479	 0.256755
81.0965	141.2286	195.5318	222.0181	313.6716	386.6906	440.8772	459.2859	498.4324	521.8989	592.947	682.2066	768.7714	788.6816	840.7885	867.4218	892.1153	945.3703	956.6703	1007.4985	1048.7239	1058.9499	1090.9078	1128.6898	1136.473	1159.545	1222.3489	1273.8159	1279.9652	1328.1832	1390.2047	1405.5994	1424.8468	1470.8578	1480.3806	1482.7107	1501.8782	1519.12	1851.0108	2994.3985	3038.7125	3081.9783	3108.7131	3118.0623	3134.1217	3166.0016	3225.2932	3630.8914
CC12CC1CNC(=O)O2	C[C@]12C[C@H]1CNC(=O)O2	
InChI=1S/C6H9NO2/c1-6-2-4(6)3-7-5(8)9-6/h4H,2-3H2,1H3,(H,7,8)	InChI=1S/C6H9NO2/c1-6-2-4(6)3-7-5(8)9-6/h4H,2-3H2,1H3,(H,7,8)/t4-,6-/m0/s1
