14
gdb 15022	2.8223	1.82968	1.27157	2.9217	66.76	-0.2629	0.0028	0.2657	942.1723	0.106455	-341.523388	-341.515487	-341.514542	-341.555988	28.268	
C	 0.0887625239	-1.1920959036	-0.1921176916	-0.422146
C	 0.0596197463	 0.002009426	-0.0799006369	 0.332998
C	-0.0154189499	 1.4602131538	 0.0459000648	-0.345586
C	 1.3335455428	 2.0449955639	 0.1247148547	 0.290886
N	 2.3821685523	 2.5282260129	 0.1599641211	-0.326899
C	-0.8359093649	 2.0859064184	-1.0977134309	 0.019138
C	-0.6568543997	 3.5032735949	-1.4892876766	-0.256746
N	-0.2402996839	 2.4102615496	-2.3895103277	-0.305791
H	 0.1227859163	-2.2493719482	-0.2913664467	 0.214447
H	-0.5259977298	 1.7036400387	 0.989078954	 0.165503
H	-1.8221828476	 1.6333528036	-1.1619989629	 0.118883
H	-1.5129012022	 4.0788764225	-1.8280272814	 0.127967
H	 0.1150417419	 4.0790066511	-0.9864599464	 0.138546
H	 0.7720658347	 2.3042018262	-2.3573664635	 0.2488
73.0705	130.761	154.7545	164.3907	334.0119	358.6353	373.492	488.072	577.4666	635.0503	650.7173	675.3785	769.4288	844.5527	894.1834	954.38	970.05	1015.6289	1068.4818	1125.0457	1147.4323	1186.072	1252.7997	1272.8786	1304.7941	1313.9175	1400.0136	1510.9037	2250.0485	2362.645	3009.5634	3117.7288	3143.6761	3205.8555	3491.2871	3501.162
C#CC(C#N)C1CN1	C#C[C@@H](C#N)[C@H]1CN1	
InChI=1S/C6H6N2/c1-2-5(3-7)6-4-8-6/h1,5-6,8H,4H2	InChI=1S/C6H6N2/c1-2-5(3-7)6-4-8-6/h1,5-6,8H,4H2/t5-,6+/m0/s1
