16
gdb 50607	2.39473	1.64328	0.99165	3.8511	83.44	-0.2118	-0.0288	0.183	1145.6242	0.12383	-400.748774	-400.740281	-400.739337	-400.782373	30.838	
O	-0.2222198618	 0.0465237333	 0.3030227566	-0.317087
C	-0.0525850596	 1.2379523888	 0.1818692099	 0.137734
N	 1.1452077609	 1.8773945705	 0.0251550279	-0.146026
C	 1.2618693566	 3.3386770346	-0.1349162417	-0.185554
C	 2.7684457658	 3.627699024	 0.0752520694	-0.264441
C	 3.3855250476	 2.2579480607	-0.0378967589	-0.233982
C	 2.4408625908	 1.3012860372	-0.0339240267	 0.274693
C	 2.6618346921	-0.0960924483	-0.086514527	 0.27465
C	 2.9494489725	-1.2626918665	-0.1442520267	-0.428698
H	-0.8856097537	 1.97034373	 0.1899220768	 0.072263
H	 0.9476258565	 3.6281097416	-1.1447057511	 0.125986
H	 0.6205778354	 3.8548473922	 0.5828256394	 0.127777
H	 3.1484951498	 4.333864407	-0.6692912479	 0.122643
H	 2.9681954923	 4.0720464792	 1.0599687313	 0.124453
H	 4.4463783928	 2.060652927	-0.0707824095	 0.116201
H	 3.1609619319	-2.3023331513	-0.1885417518	 0.199387
53.2186	147.5216	153.9842	169.3777	236.8699	258.9787	389.2181	453.5691	511.6211	608.049	609.6695	657.0899	662.0096	723.7398	784.2025	821.9001	866.0013	941.5364	1015.6967	1023.2511	1065.1776	1102.9603	1195.3177	1226.0668	1257.1714	1271.6925	1325.8251	1346.465	1424.6772	1451.4854	1490.2614	1518.5137	1663.7174	1806.2217	2236.7138	2920.5933	3010.4763	3028.094	3070.7037	3100.5767	3250.8782	3504.1473
O=CN1CCC=C1C#C	O=CN1CCC=C1C#C	
InChI=1S/C7H7NO/c1-2-7-4-3-5-8(7)6-9/h1,4,6H,3,5H2	InChI=1S/C7H7NO/c1-2-7-4-3-5-8(7)6-9/h1,4,6H,3,5H2
