20
gdb 109234	2.96035	1.20211	1.0763	1.3613	80.84	-0.2176	0.0194	0.237	1214.5242	0.170716	-403.118827	-403.109928	-403.108984	-403.152413	33.54	
C	-0.208036917	 1.4934117528	-0.0724573142	-0.317542
N	 0.0485699121	 0.0700063044	 0.0712924467	-0.091681
C	 1.3784692501	-0.4843859466	-0.1308186216	-0.034979
C	 2.6135147844	 0.418410761	-0.060394174	-0.287402
C	 2.5967758365	 0.9469035617	 1.3569033878	-0.175536
C	 1.5973863495	 0.4225175811	 2.0742365962	 0.320249
C	 1.2689274197	 0.694181561	 3.5060743428	-0.186598
O	 2.2524395862	 1.5409509603	 4.0711130799	-0.413952
C	 0.7530579922	-0.4881319286	 1.2381324301	-0.14598
H	 0.5534462008	 2.1540805594	 0.3655176901	 0.111253
H	-0.2916862053	 1.7229835808	-1.1398404751	 0.11942
H	-1.17067866	 1.7239984763	 0.3958633656	 0.117019
H	 1.4155712303	-1.3702043014	-0.7590904031	 0.08726
H	 3.5220683687	-0.1610172437	-0.2682664045	 0.111571
H	 2.5887703143	 1.224710323	-0.8060137582	 0.111282
H	 3.2973934307	 1.6849393036	 1.7269342664	 0.109832
H	 0.2633372682	 1.1475828763	 3.5684145234	 0.100211
H	 1.2031240518	-0.2661700162	 4.0489667227	 0.095485
H	 2.009582924	 1.7132683041	 4.9849517375	 0.290114
H	 0.2758486727	-1.3557936893	 1.6885322314	 0.079974
71.7974	138.7739	185.4878	199.7673	227.2166	243.2303	280.6072	389.5018	404.2147	485.5068	601.1925	660.162	714.0345	750.2652	824.0388	828.9951	892.4309	950.5199	953.264	987.0013	1028.4376	1043.6746	1065.8017	1085.7063	1110.6436	1155.3709	1167.3569	1177.2037	1193.4084	1215.582	1248.2986	1277.0156	1304.292	1317.2478	1352.9833	1378.6216	1446.0389	1467.3424	1470.7679	1486.8841	1505.6775	1509.953	1706.7033	2936.8947	2948.8572	2997.568	3018.3904	3044.0439	3067.8156	3095.8656	3125.9349	3141.565	3216.0379	3839.4914
CN1C2CC=C(CO)C12	CN1[C@H]2CC=C(CO)[C@@H]12	
InChI=1S/C7H11NO/c1-8-6-3-2-5(4-9)7(6)8/h2,6-7,9H,3-4H2,1H3	InChI=1S/C7H11NO/c1-8-6-3-2-5(4-9)7(6)8/h2,6-7,9H,3-4H2,1H3/t6-,7+,8?/m0/s1
