16
gdb 125444	3.06792	1.46726	0.99955	1.9782	78.67	-0.1956	-0.0549	0.1407	1138.3102	0.126011	-430.268422	-430.260148	-430.259204	-430.301038	31.661	
C	 0.1134302491	 1.4592682505	 0.0207438435	-0.460058
C	 0.0680322628	-0.032993753	-0.0107747109	 0.320832
N	 0.071627059	-0.6577488761	-1.1417001665	-0.342059
C	 0.0178850624	-2.0431143577	-1.1195680372	 0.431923
N	 0.1069772396	-2.63489742	-2.3636069171	-0.554855
N	-0.0671276303	-2.7912984173	-0.0623934421	-0.282814
N	-0.0552826829	-2.1072397697	 1.1204434399	-0.31146
C	 0.0175574735	-0.7437584921	 1.2859181207	 0.341656
N	 0.035587744	-0.0840856214	 2.3914842921	-0.563898
H	 0.9883037701	 1.7926475348	 0.5879865402	 0.156923
H	 0.1423386827	 1.8554040197	-0.9943277571	 0.130858
H	-0.7546854127	 1.8485820485	 0.5620285995	 0.154722
H	-0.2267866162	-2.0527766544	-3.1162610799	 0.260213
H	-0.2034535056	-3.5939110031	-2.3999567273	 0.25872
H	-0.1123969608	-2.7034238164	 1.9315159834	 0.261509
H	-0.0073072948	-0.7043912823	 3.2022848887	 0.197788
88.4058	148.0275	211.428	288.4617	305.0696	343.4876	401.934	411.1691	501.3644	527.7055	534.8951	568.3454	583.041	684.8249	710.8417	784.1949	799.8582	820.6884	947.7805	1016.2262	1051.7144	1088.5908	1139.8099	1223.4403	1265.4915	1373.047	1403.2026	1431.3909	1455.3324	1460.4332	1472.1847	1597.3437	1633.1343	1665.7342	1702.1628	3050.0527	3105.4732	3159.5932	3450.0623	3581.8515	3626.6961	3698.0972
CC1=NC(N)=NNC1=N	Cc1nc(N)n[nH]c1[NH]	
InChI=1S/C4H7N5/c1-2-3(5)8-9-4(6)7-2/h1H3,(H2,5,8)(H2,6,7,9)	InChI=1S/C4H12N5/c1-2-3(5)8-9-4(6)7-2/h2-5,7-9H,6H2,1H3
