23
gdb 73716	2.49769	1.79059	1.33113	0.1484	88.41	-0.2415	0.0885	0.3301	1077.8594	0.209093	-351.149123	-351.141381	-351.140437	-351.180625	32.715	
C	-0.0100322864	 1.4522227795	 0.0362718096	-0.458317
C	 0.001415594	-0.0687278516	 0.0384809736	 0.341928
C	 1.1167691474	-0.6422394211	-0.8328049279	-0.258159
C	 1.1038988488	-2.1687130532	-1.0370077297	-0.217451
C	-0.3172400926	-2.7420949015	-1.1431582611	-0.204399
C	-1.1987803365	-2.2407811245	 0.0034753962	-0.026228
C	-0.525055533	-2.1802956337	 1.4197077513	-0.263713
C	-0.5262930324	-0.6532726207	 1.3390086178	-0.093349
C	-1.3589687494	-0.7042982726	 0.0502961369	-0.103229
H	 0.9186978282	 1.8549854626	 0.4576656486	 0.112379
H	-0.1072174487	 1.8426727729	-0.98344838	 0.111213
H	-0.8432937484	 1.8483286379	 0.6254276637	 0.111107
H	 1.0222111514	-0.1564841897	-1.8149253146	 0.091828
H	 2.0937972594	-0.3299194145	-0.4409182296	 0.089787
H	 1.6796329794	-2.4169835402	-1.9353149955	 0.087172
H	 1.624276112	-2.6562626636	-0.2062475731	 0.10221
H	-0.7753808986	-2.4489281288	-2.0977652457	 0.090963
H	-0.2708456669	-3.8379453993	-1.1404477048	 0.088125
H	-2.1540219307	-2.7699966334	 0.0221377076	 0.065669
H	-1.21771285	-2.5267142388	 2.1915816845	 0.096703
H	 0.4298802448	-2.6928289537	 1.5665314074	 0.09058
H	-0.6622095329	-0.0003422315	 2.1946481533	 0.074144
H	-2.2608702791	-0.1597107405	-0.2069499783	 0.071039
157.6917	218.307	253.6676	302.4054	330.5456	359.1291	391.9286	475.6198	503.4723	590.916	654.996	712.9771	806.3097	834.3821	843.29	865.2632	873.3387	910.8755	937.2685	980.2097	983.4364	1021.6749	1035.009	1049.4725	1056.1272	1067.1305	1091.2529	1114.9857	1126.3906	1181.783	1193.9467	1216.0602	1255.7044	1257.3506	1279.5045	1281.7331	1315.2783	1339.5395	1372.827	1379.6997	1389.9928	1413.	1427.9913	1481.7828	1482.4411	1492.2994	1494.6541	1506.4263	1517.1533	2997.0508	3010.9998	3020.8938	3028.9826	3040.6395	3050.0564	3052.2413	3073.5276	3078.9514	3080.2721	3096.768	3097.151	3157.0015	3169.4226
CC12CCCC3CC1C23	C[C@@]12CCC[C@H]3C[C@@H]1[C@@H]23	
InChI=1S/C9H14/c1-9-4-2-3-6-5-7(9)8(6)9/h6-8H,2-5H2,1H3	InChI=1S/C9H14/c1-9-4-2-3-6-5-7(9)8(6)9/h6-8H,2-5H2,1H3/t6-,7+,8-,9+/m0/s1
