17
gdb 57239	2.78034	1.23672	1.0513	3.0509	81.44	-0.2623	-0.0616	0.2007	1189.9335	0.130541	-384.634482	-384.62418	-384.623236	-384.669657	37.38	
C	-0.0169448527	 1.5303615119	-0.0258469157	-0.418169
C	-0.0167110272	-0.0203377241	-0.0121105632	-0.090181
C	 0.7576153996	-0.5384083215	 1.2274609779	-0.418249
C	-1.3910720282	-0.51731107	 0.0169067248	 0.362673
C	-2.5271517172	-0.9004159029	 0.0867689751	-0.475452
C	 0.6927203509	-0.52827383	-1.290406613	 0.262835
O	 0.1626825281	-1.2272534093	-2.1201609107	-0.28378
C	 2.078892934	-0.1073651986	-1.4497005878	 0.261171
C	 3.2253852959	 0.2235061211	-1.6101727802	-0.415866
H	 1.0062540737	 1.9134829443	-0.0597856467	 0.130487
H	-0.5663227835	 1.9128165686	-0.8898409021	 0.137794
H	-0.5012884558	 1.9024338894	 0.8805017292	 0.133528
H	 0.2752282722	-0.1722814368	 2.1372657624	 0.133527
H	 0.7607686651	-1.630976259	 1.2570405333	 0.137752
H	 1.7909723325	-0.182418182	 1.2102677645	 0.130484
H	-3.5291986644	-1.2495159086	 0.1298567271	 0.196517
H	 4.2380740571	 0.5082561774	-1.7645556449	 0.214931
36.045	123.6729	169.6686	176.9872	183.2549	233.7204	257.36	296.991	307.6001	332.7162	430.7099	479.3407	538.5759	596.3305	635.4575	646.6794	651.1183	688.1701	704.6191	758.0309	830.2134	948.7191	963.9088	1030.3942	1054.5616	1135.2674	1210.5217	1277.7636	1389.9789	1413.5083	1480.4572	1485.178	1496.9645	1507.1234	1775.7998	2206.9743	2242.2371	3046.3071	3048.7629	3125.9775	3128.2912	3128.7694	3131.2937	3492.3284	3502.6136
CC(C)(C#C)C(=O)C#C	CC(C)(C#C)C(=O)C#C	
InChI=1S/C8H8O/c1-5-7(9)8(3,4)6-2/h1-2H,3-4H3	InChI=1S/C8H8O/c1-5-7(9)8(3,4)6-2/h1-2H,3-4H3
