17
gdb 68770	2.56602	1.73939	1.21679	4.594	68.21	-0.2564	-0.0061	0.2504	1036.1813	0.134391	-458.999613	-458.991079	-458.990134	-459.032487	31.654	
C	-0.1059732003	 1.5308655632	 0.0018435495	-0.492414
C	 0.1621417154	 0.0538208539	-0.0044339289	 0.31731
C	 0.4716990754	-0.6701413481	-1.3041815132	-0.137887
O	 1.1284038425	-1.894932108	-0.9396746198	-0.23583
C	 1.4277602814	-1.9287203249	 0.3877006213	 0.452455
O	 2.1004806375	-2.7850716302	 0.8832945622	-0.343465
C	 0.7875359443	-0.7372254958	 1.0689423871	 0.155127
C	 1.2917509383	-0.2979402786	 2.4077467565	-0.495955
O	-0.6427240705	-0.7776535534	 0.8415845853	-0.318363
H	 0.7403747909	 2.082320939	-0.4196355951	 0.133114
H	-0.993107855	 1.7612643363	-0.5979266434	 0.140056
H	-0.2861212419	 1.8855096126	 1.0185943811	 0.142893
H	-0.4348690726	-0.9181581897	-1.8640526358	 0.134471
H	 1.1450227649	-0.0883188913	-1.943434777	 0.121813
H	 2.3422267713	 0.0015643905	 2.3441681164	 0.138052
H	 0.703484639	 0.5383092831	 2.7904598058	 0.132348
H	 1.2269367094	-1.1290643685	 3.1156596179	 0.156279
126.1047	145.6822	174.5305	210.9167	223.1408	267.6238	306.9408	388.0936	463.1361	533.7047	539.1415	656.9107	695.4109	728.3782	788.5184	850.6896	897.1573	951.5737	993.2705	1059.545	1082.76	1102.721	1129.4207	1141.4221	1227.7521	1236.7453	1311.6877	1383.8879	1414.0735	1418.1819	1463.7838	1474.2342	1484.6108	1492.9646	1500.5894	1514.4993	1881.5327	3040.0621	3045.5396	3050.8099	3096.6323	3104.7599	3118.1025	3134.0335	3139.4691
CC12COC(=O)C1(C)O2	C[C@@]12COC(=O)[C@]1(C)O2	
InChI=1S/C6H8O3/c1-5-3-8-4(7)6(5,2)9-5/h3H2,1-2H3	InChI=1S/C6H8O3/c1-5-3-8-4(7)6(5,2)9-5/h3H2,1-2H3/t5-,6+/m1/s1
