21
gdb 114259	4.87562	0.79115	0.77829	2.8488	78.88	-0.2413	0.0711	0.3124	1523.1803	0.182005	-424.184161	-424.17495	-424.174006	-424.219182	33.78	
O	 0.0232167696	 1.3892144043	-0.1832480326	-0.421726
C	 0.0475215347	-0.0033433249	 0.0945308098	-0.098291
C	-1.377864825	-0.5103634027	 0.0549141476	 0.058734
C	-2.1133276964	-0.5436717538	-1.3131548175	-0.299065
C	-2.6893241187	-1.9300376488	-0.9375111038	 0.308518
C	-4.1838858306	-2.0734815601	-0.5743870034	-0.122158
O	-4.3696754831	-3.1195171319	-1.5483562488	-0.275136
C	-2.9875172436	-3.0446378047	-1.9532825587	-0.141684
C	-1.6146886683	-2.0414122629	 0.1720622575	-0.329123
H	 0.9283466795	 1.7138057557	-0.1836428502	 0.287246
H	 0.6507866865	-0.5485428693	-0.6514651398	 0.077817
H	 0.4891230507	-0.2082152688	 1.0843282659	 0.085053
H	-1.9687961984	 0.036798487	 0.796505406	 0.081713
H	-2.8270979277	 0.2547879626	-1.5298843193	 0.105866
H	-1.4055806963	-0.6121113409	-2.1469972298	 0.097905
H	-4.3951995462	-2.4209227014	 0.44627657	 0.095948
H	-4.8094254194	-1.1964059127	-0.7893834687	 0.097932
H	-2.8820871862	-2.7601705632	-3.009348025	 0.096832
H	-2.4566154443	-3.9920247368	-1.7856344646	 0.095274
H	-0.7445057378	-2.6130923025	-0.1711171675	 0.09684
H	-1.9313588091	-2.4400967842	 1.139956883	 0.101506
53.039	54.9581	101.8958	188.8603	259.2953	261.6265	307.8554	349.4756	404.8529	438.4434	523.0292	712.399	820.7474	849.3232	870.2525	879.1285	927.6687	932.6361	956.7358	989.5137	1030.4804	1039.363	1065.2691	1079.8022	1095.6885	1149.9792	1159.4576	1170.1384	1201.423	1217.5245	1233.9476	1242.7046	1246.4841	1285.6181	1292.7477	1302.7828	1311.445	1366.0766	1388.9308	1462.4472	1470.4672	1491.1281	1505.3921	1519.6016	1531.7193	2950.1714	2977.4236	2987.4525	3000.0231	3032.4589	3035.6188	3036.8302	3043.0298	3057.5046	3094.1421	3104.0319	3829.8623
OCC1CC2(COC2)C1	OCC1CC2(COC2)C1	
InChI=1S/C7H12O2/c8-3-6-1-7(2-6)4-9-5-7/h6,8H,1-5H2	InChI=1S/C7H12O2/c8-3-6-1-7(2-6)4-9-5-7/h6,8H,1-5H2
