23
gdb 112122	2.07124	1.54599	1.03291	0.9034	88.11	-0.2416	0.017	0.2587	1271.8208	0.206222	-388.302711	-388.293217	-388.292273	-388.336924	35.995	
C	 0.1846178897	 1.3730872577	 0.1592778954	-0.232882
O	-0.117517247	 0.019774659	-0.0785823262	-0.246612
C	 0.5795287897	-0.5646831089	-1.1821435733	 0.095731
C	 2.0687559404	-0.6689109292	-0.9310094315	-0.089049
C	 2.6664956018	-1.8043652235	-0.5709268242	-0.036168
C	 1.9399749169	-3.1066958313	-0.3734708489	-0.265572
C	 0.4166012115	-2.9236262349	-0.3448779526	-0.195137
C	-0.0441452027	-1.9473124026	-1.4387420691	 0.007401
C	-1.5684751744	-1.8811763107	-1.5640197038	-0.406938
H	 1.2166169604	 1.5202808934	 0.5092129757	 0.106246
H	 0.0354531521	 1.9886640732	-0.7429243655	 0.097904
H	-0.49835771	 1.7238902703	 0.9375719329	 0.123605
H	 0.4120262648	 0.0740513602	-2.0675757135	 0.055772
H	 2.6612065723	 0.232895539	-1.0615775099	 0.084366
H	 3.7448044225	-1.8190268645	-0.4229014361	 0.085721
H	 2.2250697747	-3.7961690788	-1.1834186971	 0.106958
H	 2.2888622734	-3.5879108095	 0.5491970116	 0.103491
H	-0.0826712139	-3.8915808149	-0.4627780488	 0.084513
H	 0.111887599	-2.5203238486	 0.6276903289	 0.1139
H	 0.368439048	-2.2912902548	-2.3980642736	 0.069176
H	-2.0227443809	-1.5473948789	-0.628204009	 0.131209
H	-1.8721856488	-1.1806956476	-2.3499186244	 0.103535
H	-1.9767269694	-2.8654580441	-1.8164217867	 0.102829
66.083	107.7159	182.1914	206.1705	225.4014	231.1974	281.1901	300.4691	372.7848	449.1968	481.5833	512.6257	610.5746	726.2555	742.8123	796.9332	877.3912	908.872	947.0536	952.6937	976.7394	1012.497	1022.8769	1061.1747	1094.2938	1123.9723	1129.1674	1148.9392	1172.1819	1182.6047	1221.3833	1242.5078	1265.3878	1323.0355	1332.8253	1363.1734	1367.5511	1377.5063	1397.4702	1407.4121	1422.5777	1470.8542	1477.9753	1489.1086	1491.2141	1495.6889	1504.5884	1512.8147	1718.8584	2937.6594	2970.1503	2990.3295	3003.2197	3022.7496	3030.9546	3033.8547	3042.4868	3078.8918	3093.855	3105.6778	3125.5713	3135.8829	3164.0826
COC1C=CCCC1C	CO[C@H]1C=CCC[C@H]1C	
InChI=1S/C8H14O/c1-7-5-3-4-6-8(7)9-2/h4,6-8H,3,5H2,1-2H3	InChI=1S/C8H14O/c1-7-5-3-4-6-8(7)9-2/h4,6-8H,3,5H2,1-2H3/t7-,8+/m1/s1
