17
gdb 74065	2.2881	1.42405	0.9724	3.7041	77.58	-0.2439	-0.0519	0.192	1213.8385	0.134617	-421.885342	-421.876688	-421.875744	-421.91932	31.188	
C	-0.069045813	 1.4121959355	 0.2368531539	-0.486902
C	-0.0047519766	-0.0645703465	 0.0364010271	 0.326845
C	-0.11616542	-0.7305747785	-1.125600978	-0.280345
C	-0.0028600428	-2.1820416803	-0.924736223	 0.377
O	-0.0465333244	-3.0669908439	-1.7465408023	-0.338798
C	 0.1762444294	-2.4016756695	 0.6077352241	-0.221263
C	 0.2022083903	-0.9961774201	 1.2126634855	-0.328559
C	-0.9416577484	-3.2987228746	 1.1090572909	 0.151481
O	-1.7314702343	-2.9969268273	 1.9664573605	-0.24115
H	 0.8515871585	 1.7779627444	 0.7084054563	 0.141254
H	-0.2159395803	 1.949406472	-0.7025997623	 0.137062
H	-0.8881340663	 1.6701891758	 0.9194842163	 0.14711
H	-0.2691681453	-0.295971107	-2.1054583063	 0.113911
H	 1.1111369256	-2.9598254408	 0.7390621305	 0.125845
H	 1.1475779559	-0.7728098465	 1.7210065627	 0.119688
H	-0.5928157577	-0.8769065901	 1.9576116005	 0.147556
H	-0.9875310607	-4.2786609326	 0.5911813637	 0.109264
58.3908	111.8589	137.7073	179.9587	215.184	280.8792	317.5919	447.8582	478.6476	561.881	600.4946	637.3448	721.3704	794.6592	867.8608	874.6348	909.1867	957.8541	1009.1683	1020.3309	1070.1697	1089.7733	1146.7831	1183.5621	1185.8563	1194.3617	1290.7188	1313.5984	1344.0454	1409.8766	1413.1914	1469.938	1476.7233	1477.9311	1676.395	1799.6936	1829.1682	2929.8245	3025.1061	3037.318	3049.6714	3073.3681	3076.605	3126.772	3216.8343
CC1=CC(=O)C(C1)C=O	CC1=CC(=O)[C@@H](C1)C=O	
InChI=1S/C7H8O2/c1-5-2-6(4-8)7(9)3-5/h3-4,6H,2H2,1H3	InChI=1S/C7H8O2/c1-5-2-6(4-8)7(9)3-5/h3-4,6H,2H2,1H3/t6-/m0/s1
