17
gdb 16626	3.05313	2.35854	1.55146	2.8207	68.31	-0.2484	0.025	0.2735	844.3286	0.143567	-363.871705	-363.864669	-363.863725	-363.902822	27.475	
C	 0.0992531148	 1.603942014	 0.0044796517	-0.388416
C	 0.0815199883	 0.0738469605	 0.0021993838	-0.094196
C	 0.7917253397	-0.6253499736	-1.1465955395	-0.070948
C	 2.3080135615	-0.5366948817	-1.2044465459	-0.320562
C	 1.6384677741	-1.6898101671	-0.5158250017	 0.083565
O	 1.5353853504	-1.5941808694	 0.8937635089	-0.237982
C	 0.7461776295	-0.5269073545	 1.2393662514	 0.393889
N	 0.5930416765	-0.1071722787	 2.4192028115	-0.534411
H	 1.121800937	 1.9853308961	-0.0727730564	 0.117846
H	-0.4766183739	 1.9998578608	-0.837244215	 0.111318
H	-0.3308481941	 1.9771054702	 0.9366369601	 0.1473
H	-0.9641491657	-0.2614180089	 0.0119335501	 0.108853
H	 0.248258789	-0.8096654375	-2.0650406227	 0.09829
H	 2.7767367815	-0.7247426053	-2.1640700151	 0.121631
H	 2.8212595902	 0.1891740239	-0.5815234024	 0.129489
H	 1.7224408269	-2.7137611724	-0.8559857439	 0.110863
H	 1.1406995143	-0.6640450764	 3.0768100051	 0.223471
96.3771	213.5881	229.7359	259.7249	402.7591	455.9266	473.3994	593.4499	686.6852	700.1509	770.523	794.575	820.6353	893.1584	908.7326	977.4183	982.0195	1022.7373	1032.9169	1058.5687	1077.7957	1096.2842	1125.9705	1140.7874	1159.6115	1203.079	1262.8598	1299.8418	1334.7229	1372.1232	1390.7429	1409.1555	1476.8591	1495.8532	1498.7431	1773.5465	3021.866	3044.729	3113.2284	3130.6422	3133.346	3184.3164	3199.1198	3221.9111	3478.5436
CC1C2CC2OC1=N	C[C@H]1[C@H]2C[C@H]2O[C]1[NH]	
InChI=1S/C6H9NO/c1-3-4-2-5(4)8-6(3)7/h3-5,7H,2H2,1H3	InChI=1S/C6H9NO/c1-3-4-2-5(4)8-6(3)7/h3-5,7H,2H2,1H3/t3-,4+,5+/m0/s1
