23
gdb 13624	3.5336	1.18099	1.03034	1.2651	82.38	-0.2193	0.082	0.3014	1272.1917	0.210426	-330.302767	-330.29289	-330.291946	-330.337267	36.294	
C	 0.6867776775	 1.4623835311	-4.1354518133	-0.392962
C	 1.0737241083	 0.318172351	-3.1931363153	-0.163677
C	 0.1431770098	-0.9109598519	-3.2515759587	 0.014111
C	 0.1559251255	-1.5914753826	-4.630017684	-0.399414
C	 0.5530797919	-1.9001283345	-2.1706873739	 0.030667
C	 0.0988503134	-1.753051605	-0.7578648985	-0.264355
N	-0.3391033661	-2.8898619482	-1.5600791139	-0.093327
C	-1.7455305969	-2.9490885883	-1.9260142329	-0.313864
H	 0.7577800101	 1.1720809743	-5.1880621512	 0.118916
H	-0.3409624772	 1.7960061372	-3.951485467	 0.112329
H	 1.3450937171	 2.3246232222	-3.9898419036	 0.11273
H	 2.1018814345	-0.003375928	-3.4095493433	 0.093386
H	 1.0848278789	 0.6922335351	-2.1622409586	 0.09711
H	-0.8763689893	-0.5603075762	-3.0461859909	 0.068074
H	 1.1670958701	-1.9322114316	-4.8832556424	 0.113763
H	-0.5003990111	-2.4664453682	-4.6455562878	 0.119054
H	-0.1760844845	-0.9137808832	-5.4214798171	 0.113946
H	 1.5555088297	-2.3021851159	-2.3301502252	 0.082085
H	 0.7585844392	-1.9756302016	 0.0773581937	 0.109756
H	-0.6292494595	-0.9651742864	-0.5595654162	 0.098773
H	-2.2914110952	-3.4493120883	-1.119218553	 0.121563
H	-2.2240103632	-1.9713501602	-2.0946811948	 0.099575
H	-1.8643399833	-3.5506110508	-2.8331200919	 0.121762
71.6357	87.7962	140.1563	199.0213	205.2912	218.5616	257.6889	282.9092	347.1732	380.5305	396.8323	485.8487	530.8481	742.2204	777.5137	828.9194	848.343	920.6169	959.1644	984.604	989.4607	1035.05	1049.7525	1093.5454	1119.3882	1132.4613	1153.0702	1164.695	1181.9535	1201.7879	1209.1696	1280.0168	1301.4825	1339.3425	1349.2849	1376.3399	1408.5868	1415.5542	1428.5273	1448.9089	1482.9532	1487.8635	1495.4821	1499.3365	1501.0644	1505.9801	1511.8341	1513.578	2973.8966	3011.6893	3023.3734	3031.8702	3033.304	3052.542	3062.7344	3075.433	3082.103	3095.8585	3097.0967	3099.7654	3106.2648	3115.131	3163.121
CCC(C)C1CN1C	CC[C@@H](C)[C@H]1CN1C	
InChI=1S/C7H15N/c1-4-6(2)7-5-8(7)3/h6-7H,4-5H2,1-3H3	InChI=1S/C7H15N/c1-4-6(2)7-5-8(7)3/h6-7H,4-5H2,1-3H3/t6-,7-,8?/m1/s1
