20
gdb 79071	2.24478	1.99204	1.73091	0.3655	83.58	-0.2036	0.013	0.2166	952.1648	0.171035	-365.972563	-365.964713	-365.963769	-366.004102	32.268	
C	-0.0463597173	 1.5420973585	-0.0216422802	-0.328806
N	 0.1210240592	 0.0956062859	 0.013706164	-0.09816
C	 0.6506313876	-0.5723459038	-1.1373157508	-0.021066
C	 2.2498614316	-0.5963374679	-1.1839521457	-0.109341
C	 2.9563465371	 0.3383287045	-0.2841052603	-0.080859
C	 2.4014130647	 0.2952028023	 0.9383123809	-0.159916
C	 1.1815201779	-0.593855829	 0.893205821	 0.302427
C	 0.6244122204	-1.1366396486	 2.1875210757	-0.486182
C	 1.4416437404	-1.5395814061	-0.3315954269	-0.163767
H	 0.8418728365	 2.0941041197	-0.3619443453	 0.104384
H	-0.8736268991	 1.7712254418	-0.7030299493	 0.116109
H	-0.3244360813	 1.9046235121	 0.9734630496	 0.114746
H	 0.0823826773	-0.6811397011	-2.054929808	 0.096716
H	 2.6782972422	-0.9410982825	-2.1177156913	 0.081328
H	 3.7485844388	 1.0035284173	-0.6065011309	 0.095636
H	 2.6398726436	 0.9383401205	 1.7771692859	 0.090043
H	 0.3284469702	-0.320985958	 2.8565279762	 0.116931
H	-0.2569961831	-1.7554872428	 1.999901999	 0.123091
H	 1.3780379758	-1.739030249	 2.7063831499	 0.117157
H	 1.4752127176	-2.622046614	-0.3363335436	 0.089528
182.4893	193.8132	216.1789	265.0218	289.0363	302.3973	448.0015	498.9972	583.5639	624.2491	639.0277	690.5349	740.164	758.1594	800.6537	812.9749	830.2105	890.7372	917.8119	932.573	972.2729	1013.613	1020.5867	1066.396	1085.2057	1097.0763	1115.5851	1149.9655	1167.2214	1199.5733	1204.9852	1256.1211	1273.5555	1321.8034	1360.4104	1381.0735	1409.8765	1441.2509	1480.1491	1485.4348	1490.1353	1508.6441	1619.6641	2991.67	3031.9132	3062.3888	3095.0132	3096.7006	3117.2297	3166.6787	3180.091	3188.756	3193.3984	3214.5318
CN1C2C3C=CC1(C)C23	CN1[C@H]2[C@H]3C=C[C@]1(C)[C@@H]23	
InChI=1S/C8H11N/c1-8-4-3-5-6(8)7(5)9(8)2/h3-7H,1-2H3	InChI=1S/C8H11N/c1-8-4-3-5-6(8)7(5)9(8)2/h3-7H,1-2H3/t5-,6+,7-,8+/m0/s1
