23
gdb 118439	1.73355	1.24868	0.7952	2.6277	83.73	-0.2323	-0.0137	0.2185	1550.6301	0.201501	-425.448589	-425.436981	-425.436037	-425.486577	40.214	
C	-0.4264369798	 1.5884982738	 1.035516722	-0.385253
C	-0.5723868366	 0.10361559	 1.3192730077	-0.043039
O	 0.7059791543	-0.499134105	 1.1731604095	-0.239179
C	 0.7401420121	-1.8884828366	 1.3512564427	 0.029236
C	 2.0685471406	-2.3997405429	 0.7659546576	-0.198567
C	 2.2079791055	-2.0955124606	-0.7273128385	-0.382266
C	 0.5979442469	-2.2942211994	 2.8318679736	 0.362626
C	 0.5148342816	-3.7845793359	 3.1286655183	-0.479882
O	 0.558038073	-1.4688170664	 3.7127513028	-0.295614
H	-0.0422954785	 1.754349767	 0.0247493567	 0.120577
H	-1.3950857328	 2.0892009272	 1.1262648126	 0.113143
H	 0.2677688032	 2.0440735798	 1.7468908768	 0.13323
H	-0.9555882384	-0.0574138986	 2.3340222354	 0.112405
H	-1.2813780912	-0.3584846958	 0.6112168272	 0.07831
H	-0.0938710917	-2.3696449122	 0.8039557115	 0.06854
H	 2.8842077436	-1.9254542664	 1.3244731173	 0.118373
H	 2.1454194287	-3.4784923806	 0.9380911831	 0.099916
H	 1.4297422315	-2.6037783575	-1.3077943678	 0.109928
H	 2.1172360329	-1.0224181309	-0.9074020418	 0.139337
H	 3.1790593225	-2.4303726593	-1.1040132617	 0.11235
H	-0.0169968587	-4.3345448021	 2.3466581151	 0.128982
H	 1.526931622	-4.2007525808	 3.1916257842	 0.15135
H	 0.0263472193	-3.932763437	 4.0931169157	 0.145494
48.3286	56.7566	78.9825	108.9153	120.8605	167.8605	181.1895	236.2803	250.2487	288.0305	334.1434	343.0899	447.4429	488.2466	566.2329	630.6154	764.2118	812.8293	827.5506	892.9573	929.1589	964.4393	994.3847	1005.5332	1064.7081	1100.114	1124.8521	1154.3015	1173.4661	1186.0024	1208.8082	1274.1698	1300.5518	1314.6993	1367.9317	1370.794	1378.9288	1401.4084	1405.5286	1439.9735	1465.6058	1472.1647	1480.6605	1483.6211	1494.2921	1500.7216	1509.9957	1523.7198	1814.9968	2916.502	2960.4441	3037.0073	3038.0209	3040.8558	3044.2304	3050.2515	3080.6179	3102.8195	3104.349	3117.8111	3123.7288	3135.2886	3146.3858
CCOC(CC)C(C)=O	CCO[C@@H](CC)C(=O)C	
InChI=1S/C7H14O2/c1-4-7(6(3)8)9-5-2/h7H,4-5H2,1-3H3	InChI=1S/C7H14O2/c1-4-7(6(3)8)9-5-2/h7H,4-5H2,1-3H3/t7-/m0/s1
