21
gdb 120398	2.98243	0.90244	0.77906	1.6372	80.89	-0.2463	0.0222	0.2685	1555.1441	0.18255	-420.409147	-420.399168	-420.398224	-420.444732	36.101	
C	 0.2304207086	 1.4410349019	-0.2186598989	-0.382958
C	 0.0320305013	-0.0577456312	 0.0193320917	-0.171192
C	 0.7374567132	-0.5590804028	 1.2854244028	-0.177786
C	 0.5594943057	-2.0460388937	 1.5096733905	 0.115638
O	 1.2500454013	-2.8517970729	 0.4849287068	-0.269662
C	 2.1158826684	-3.3870417711	 1.4137006766	 0.403194
N	 3.129929238	-4.1120352646	 1.2714437683	-0.549578
C	 1.4214870135	-2.7360686587	 2.6074266023	-0.130944
N	 2.1436234854	-1.9093805332	 3.5477689006	-0.513906
H	 1.2922009447	 1.6870490682	-0.3305964269	 0.116007
H	-0.2841593661	 1.7703799491	-1.1264747351	 0.114641
H	-0.1585204489	 2.0316771597	 0.6183437033	 0.114811
H	-1.040609386	-0.2809610359	 0.0926168552	 0.095858
H	 0.4049646252	-0.6250005189	-0.8412439154	 0.11617
H	 1.8083413183	-0.3252791392	 1.2268183968	 0.093094
H	 0.3546472004	-0.0371664451	 2.1714603855	 0.115653
H	-0.5009475048	-2.3185361779	 1.5232508706	 0.087824
H	 3.3046681667	-4.3221849087	 0.2868191939	 0.226167
H	 0.8348432283	-3.469733984	 3.1669615503	 0.113141
H	 2.5517389951	-2.4898727586	 4.2725643602	 0.244946
H	 2.9198040915	-1.4412136623	 3.0906000708	 0.238883
60.2923	81.5446	110.262	128.2413	198.0104	239.7727	241.8096	269.1948	324.8028	405.1357	481.5728	549.3834	662.5564	733.4817	768.3017	821.6686	840.5016	862.8959	872.1952	911.0452	923.5451	964.7935	1020.682	1050.2838	1078.8251	1106.0171	1128.1402	1194.3313	1211.9572	1220.9555	1244.2478	1265.3406	1284.5083	1325.7229	1342.2913	1381.8644	1411.1899	1416.7499	1433.1415	1469.2976	1493.0976	1499.2332	1509.5879	1671.3658	1816.1032	3017.6504	3025.3978	3030.9688	3049.3216	3058.0997	3074.1926	3082.0137	3098.3483	3104.3101	3468.9501	3509.9595	3584.9498
CCCC1OC(=N)C1N	CCC[C@H]1O[C]([NH])[C@H]1N	
InChI=1S/C6H12N2O/c1-2-3-4-5(7)6(8)9-4/h4-5,8H,2-3,7H2,1H3	InChI=1S/C6H12N2O/c1-2-3-4-5(7)6(8)9-4/h4-5,8H,2-3,7H2,1H3/t4-,5+/m1/s1
