16
gdb 22537	1.99521	1.30195	0.87118	2.7389	75.33	-0.2505	-0.0275	0.2229	1307.7261	0.119126	-437.81472	-437.804422	-437.803477	-437.851906	35.393	
C	-0.0984277096	 1.5245158424	 0.0302587304	-0.482895
C	 0.0316884207	 0.0295212141	 0.0544174066	 0.362942
N	 0.2110597034	-0.6829049121	 1.0984593848	-0.149008
O	 0.2821179134	 0.0854912979	 2.2617728426	-0.401436
C	 0.0004976458	-0.7600248802	-1.2498999813	-0.316303
C	 0.0507476955	-2.2784839278	-0.9758239229	 0.17992
O	 0.9598234179	-2.9782319284	-1.3232513833	-0.244262
C	-1.1917856101	-0.466278608	-2.0416318808	 0.302828
C	-2.1905134938	-0.272745118	-2.6820320635	-0.460982
H	 0.8910892023	 1.9903481996	 0.1079945793	 0.149657
H	-0.5691468254	 1.8600340522	-0.8951763537	 0.140692
H	-0.6836293059	 1.8681225304	 0.8860547637	 0.156887
H	 0.3893877271	-0.5849754431	 2.9454163138	 0.311599
H	 0.8988886042	-0.5184174939	-1.8337475002	 0.138345
H	-0.8484835713	-2.6713011553	-0.4629871632	 0.103296
H	-3.0646799743	-0.0911445098	-3.2576407622	 0.208719
21.8405	45.4245	84.2651	126.3642	150.6782	237.1557	299.6553	310.6389	390.91	397.8322	458.9195	463.1232	498.1206	542.4557	637.8351	654.889	695.8941	835.4807	939.6537	980.3635	998.3478	1050.5047	1058.8794	1086.2282	1203.9962	1259.6972	1293.802	1396.0778	1401.7817	1412.2627	1476.3175	1483.2463	1734.337	1842.459	2232.1662	2945.3263	3025.4691	3042.8079	3110.0971	3147.9856	3500.9767	3815.9349
CC(=NO)C(C=O)C#C	CC(=NO)[C@@H](C=O)C#C	
InChI=1S/C6H7NO2/c1-3-6(4-8)5(2)7-9/h1,4,6,9H,2H3	InChI=1S/C6H7NO2/c1-3-6(4-8)5(2)7-9/h1,4,6,9H,2H3/t6-/m1/s1
