19
gdb 83765	2.43724	1.82605	1.4578	1.1095	73.9	-0.2438	0.0716	0.3154	975.3498	0.160465	-423.004882	-422.997063	-422.996119	-423.036586	31.642	
O	 0.0635488367	 1.4642382709	-0.0881863157	-0.439387
C	 0.0214352746	 0.056851955	 0.0454212474	 0.044828
C	 0.2235612016	-0.608013332	 1.459268283	-0.104382
C	-0.1852690379	 0.3521207555	 2.5851510498	-0.194034
C	-1.6879305577	 0.641180581	 2.3157858582	-0.230428
C	-2.0954559646	-0.436737214	 1.3127749879	-0.112846
C	-1.018794339	-1.4833860614	 1.1530564316	-0.141932
C	-1.3556344029	-0.5669349218	-0.0103413058	 0.381321
O	-2.0086588985	-0.9159015729	-1.1799973396	-0.470575
H	 0.9817927575	 1.7367064717	-0.1803277642	 0.28279
H	 0.6665988496	-0.4312126742	-0.6973694755	 0.074022
H	 1.1815695741	-1.1074511851	 1.6071200683	 0.061121
H	-0.0474699081	-0.1325778102	 3.5574739111	 0.092324
H	 0.4172884552	 1.2647548947	 2.5769912506	 0.091552
H	-2.284857575	 0.5640829308	 3.2302361165	 0.091313
H	-1.8313773758	 1.6455646164	 1.9087656208	 0.110553
H	-3.1275259935	-0.766255555	 1.25388764	 0.083459
H	-1.1350945737	-2.5532507174	 1.2521967276	 0.092472
H	-2.5306459227	-0.1586060719	-1.4671675621	 0.287829
161.8768	233.7105	236.1256	245.4085	270.9918	304.2449	369.6879	490.8541	544.2868	596.0705	671.7126	745.2207	755.6688	809.8519	844.7898	860.0298	891.7236	909.4801	931.8951	982.1762	1008.2563	1020.1994	1050.812	1057.474	1116.6468	1142.1132	1169.7277	1188.816	1217.406	1236.4323	1253.0759	1259.8147	1275.2981	1297.8992	1335.3065	1337.8002	1342.0429	1412.5379	1471.1055	1478.1677	1501.0163	3015.4337	3041.4926	3053.1563	3084.6412	3102.9002	3105.0253	3173.2486	3217.4637	3796.5885	3818.4001
OC1C2CCC3C2C13O	O[C@H]1[C@H]2CC[C@@H]3[C@H]2[C@]13O	
InChI=1S/C7H10O2/c8-6-3-1-2-4-5(3)7(4,6)9/h3-6,8-9H,1-2H2	InChI=1S/C7H10O2/c8-6-3-1-2-4-5(3)7(4,6)9/h3-6,8-9H,1-2H2/t3-,4+,5-,6-,7-/m0/s1
