17
gdb 39525	3.14188	1.99108	1.56171	3.6152	70.92	-0.2372	0.0062	0.2434	874.886	0.139995	-417.975598	-417.969292	-417.968348	-418.006047	25.92	
C	-0.1530930824	 1.4157021507	-0.007305534	-0.19092
N	 1.2019169381	 1.9447849016	 0.212399444	-0.271562
C	 1.9880469484	 0.9744853681	-0.0252953799	 0.344673
O	 3.2375456888	 0.8710034837	 0.4544617484	-0.253921
C	 3.231049537	-0.2174613356	 1.4332327491	-0.062394
C	 1.7886238207	-0.5400292377	 1.897146469	-0.274639
C	 0.9750312085	-0.9337398327	 0.6575983018	-0.041977
C	 0.0489890341	-0.0918914407	-0.1920804485	-0.059941
N	 1.4599073261	-0.2488283476	-0.5766427635	-0.145969
H	-0.7802031795	 1.6861525914	 0.8496352917	 0.119067
H	-0.6278868215	 1.8398561062	-0.9020472041	 0.119841
H	 3.6867839871	-1.1004713782	 0.9717590579	 0.125244
H	 3.8599518666	 0.1196938226	 2.2601870397	 0.128233
H	 1.8258855595	-1.3749754704	 2.6023920946	 0.114356
H	 1.3684743907	 0.3174068332	 2.4271313528	 0.142052
H	 0.8598058298	-2.0071115712	 0.5191551915	 0.105839
H	-0.6704265619	-0.6387852035	-0.7944822306	 0.102019
155.2585	264.1183	287.4515	431.3943	489.546	498.6103	553.8592	662.5468	739.5147	772.217	799.0016	833.1866	865.6496	882.3723	948.2335	967.8828	986.6468	987.2519	1030.9969	1054.7464	1094.3288	1104.4951	1149.0852	1200.7051	1220.1917	1236.9019	1242.3777	1265.2226	1315.3817	1342.0222	1360.373	1401.9133	1413.6705	1484.1887	1494.3454	1506.3219	1704.7861	3019.6351	3045.5297	3059.9755	3070.5656	3107.4304	3115.7196	3127.1166	3157.8377
C1N=C2OCCC3C1N23	C1[N][C]2OCC[C@H]3[C@@H]1N23	
InChI=1S/C6H8N2O/c1-2-9-6-7-3-5-4(1)8(5)6/h4-5H,1-3H2	InChI=1S/C6H8N2O/c1-2-9-6-7-3-5-4(1)8(5)6/h4-5H,1-3H2/t4-,5+,8?/m0/s1
