15
gdb 56111	3.90737	0.85971	0.78797	1.5398	70.75	-0.2459	-0.0597	0.1862	1398.7996	0.113154	-450.171924	-450.162695	-450.16175	-450.206922	32.636	
N	-0.6636138361	 0.1495356318	-1.0278319435	-0.505924
C	-0.0440550876	-0.0514082439	 0.1618169327	 0.373361
O	 1.0456966677	 0.3960244994	 0.4588125148	-0.352867
C	-0.8610847107	-0.912327031	 1.1516889862	-0.264846
N	-0.974835782	-2.3107461284	 0.763756935	-0.303107
C	-1.9156473086	-2.7606727413	-0.1053325171	 0.307809
N	-2.7495948689	-1.981155092	-0.6971825161	-0.544625
C	-1.9091383928	-4.2032012426	-0.292666837	 0.237602
N	-1.9315367097	-5.3452085596	-0.4709939768	-0.310174
H	-0.1683210039	 0.6541195589	-1.7450552201	 0.259259
H	-1.5476709731	-0.3019839164	-1.2294345229	 0.282945
H	-0.3500795329	-0.8619175105	 2.1130173399	 0.142307
H	-1.8734379543	-0.509117448	 1.2518358228	 0.153107
H	-0.2644205936	-2.9538540028	 1.0706851592	 0.278517
H	-3.4143871236	-2.5035739736	-1.2596628171	 0.246636
41.6172	65.7042	136.5849	172.2756	240.126	282.3755	336.7664	389.5606	418.2119	421.6236	513.2367	546.5068	598.4805	670.3866	724.3784	757.29	805.1042	845.9425	879.4204	1006.5474	1049.2697	1145.2128	1185.2375	1266.0595	1339.605	1350.3755	1382.0029	1460.8926	1556.3131	1627.8314	1673.3819	1811.1718	2351.5465	3067.2461	3147.0892	3505.3839	3547.1825	3661.9319	3689.1789
NC(=O)CNC(=N)C#N	NC(=O)CNC(=N)C#N	
InChI=1S/C4H6N4O/c5-1-3(6)8-2-4(7)9/h2H2,(H2,6,8)(H2,7,9)	InChI=1S/C4H6N4O/c5-1-3(6)8-2-4(7)9/h2H2,(H2,6,8)(H2,7,9)
