18
gdb 15350	3.35583	1.29249	1.01857	4.0398	72.87	-0.2415	0.0299	0.2714	1168.3825	0.153231	-343.969857	-343.961208	-343.960264	-344.003684	30.933	
C	-0.3484643997	 1.6831958864	 0.4105215067	-0.373555
C	 0.0986981536	 0.2998467465	-0.0545845782	-0.129917
N	 0.7562075288	-0.4085556477	 1.0415787193	-0.062983
C	-0.049802126	-1.2750875748	 1.891995383	-0.26723
C	 0.979583266	-1.8455431733	 0.9763084748	 0.019958
C	 0.5465604951	-2.7076459772	-0.2062888451	-0.373889
C	 1.4734137419	-2.6198026686	-1.3364560685	 0.269329
N	 2.2106801864	-2.543381726	-2.2228746314	-0.307226
H	 0.5049696692	 2.2567271684	 0.7816504222	 0.131869
H	-0.8100630465	 2.2346179852	-0.4140818831	 0.115955
H	-1.0822111342	 1.6056955859	 1.219573554	 0.117988
H	-0.7725779155	-0.2463156206	-0.4549950305	 0.079202
H	 0.823510893	 0.3924847682	-0.8710573828	 0.126859
H	 0.1284825575	-1.2118411861	 2.9620750597	 0.12299
H	-1.0931435335	-1.4326632215	 1.6146117053	 0.107214
H	 1.9383021446	-2.1518664139	 1.3909168274	 0.111151
H	 0.4948502286	-3.7542787877	 0.1161935453	 0.158635
H	-0.4548249693	-2.4389325532	-0.5539822982	 0.153651
52.5103	86.0498	143.7581	194.2243	229.5876	300.1079	350.3096	390.9808	424.1841	487.6198	575.7328	735.8621	803.7809	814.7075	886.1331	939.7874	965.1715	982.6962	1044.9611	1082.7149	1100.8125	1123.7667	1141.8394	1152.3848	1196.8364	1236.7771	1309.4915	1315.4708	1341.7216	1389.4727	1411.3528	1417.333	1460.9582	1488.7703	1489.2395	1505.2306	1518.3793	2362.2259	2948.9844	3040.7725	3049.1604	3062.6667	3078.9256	3096.4884	3110.3237	3123.4859	3124.2866	3172.6049
CCN1CC1CC#N	CCN1C[C@H]1CC#N	
InChI=1S/C6H10N2/c1-2-8-5-6(8)3-4-7/h6H,2-3,5H2,1H3	InChI=1S/C6H10N2/c1-2-8-5-6(8)3-4-7/h6H,2-3,5H2,1H3/t6-,8?/m1/s1
