18
gdb 6384	4.31476	1.02483	0.9269	3.6397	65.16	-0.2461	-0.0165	0.2295	1262.8562	0.150971	-422.090005	-422.080488	-422.079543	-422.12526	33.538	
C	 0.2630110679	 0.789292054	 0.8859934586	-0.484957
C	 0.038231269	-0.0009537483	-0.3857831032	 0.393365
O	 0.845542981	-0.0331740907	-1.2848870281	-0.298751
C	-1.2539193417	-0.8158054612	-0.4769765947	-0.315861
C	-1.0447641116	-2.2494293965	 0.0384939396	 0.098981
O	-0.758023875	-2.2875841251	 1.4428860214	-0.437983
C	-2.2373466678	-3.1635280885	-0.2510971821	-0.064683
O	-2.0183625018	-4.4572675939	 0.2622231718	-0.420627
H	 1.2233610118	 1.3042163719	 0.8454959745	 0.1423
H	-0.5434818382	 1.5169541735	 1.0334160751	 0.133056
H	 0.2394402761	 0.10042981	 1.7376321249	 0.150795
H	-2.0678916463	-0.3414676016	 0.0862317153	 0.093431
H	-1.5418810751	-0.8602424493	-1.5316658327	 0.131152
H	-0.1541613262	-2.6764278758	-0.4346612559	 0.123726
H	-1.508744252	-1.8934573858	 1.9049506776	 0.282906
H	-3.1511104919	-2.7055085806	 0.174298106	 0.07144
H	-2.3922758598	-3.2564784388	-1.3312519666	 0.115671
H	-1.5927028284	-4.3301046032	 1.1199941986	 0.286039
30.5865	75.1553	132.0821	153.3742	172.4697	251.3773	311.5553	383.1585	400.6746	441.8519	476.3582	519.1102	547.2477	627.9433	798.7022	851.4079	885.3104	951.3735	1006.6163	1056.4275	1074.0952	1093.8356	1108.1476	1156.4468	1204.4302	1242.9433	1270.2524	1317.1105	1351.7086	1373.8215	1381.7311	1420.4943	1442.2334	1462.4863	1472.8357	1477.5782	1507.5526	1815.5478	2921.3904	3025.8504	3036.0111	3067.0282	3075.3918	3098.6065	3100.7484	3154.907	3767.6403	3775.1261
CC(=O)CC(O)CO	CC(=O)C[C@@H](O)CO	
InChI=1S/C5H10O3/c1-4(7)2-5(8)3-6/h5-6,8H,2-3H2,1H3	InChI=1S/C5H10O3/c1-4(7)2-5(8)3-6/h5-6,8H,2-3H2,1H3/t5-/m1/s1
