21
gdb 40207	2.95979	1.40283	1.07043	0.7401	93.7	-0.203	-0.018	0.185	1184.8086	0.185146	-349.960935	-349.952976	-349.952032	-349.993377	32.233	
C	-0.1471654919	 1.5322809563	-0.0142101358	-0.315507
C	 1.2539972866	 1.0006559709	 0.0019651711	-0.29506
C	 0.07894205	 0.0261118977	 0.0032481074	 0.340598
C	-0.2343875398	-0.682799861	 1.3095135974	-0.291941
C	 0.5172871504	-2.0091922271	 1.5319702596	-0.25731
C	 0.0083522323	-3.1612403937	 0.7111883488	-0.086066
C	-0.3973137566	-3.1164615036	-0.5665950542	-0.064628
C	-0.4063844856	-1.9874643186	-1.4898366997	-0.104287
C	-0.1793007187	-0.6806670862	-1.2698015345	-0.110648
H	-0.5380888539	 1.9879028202	 0.8890054762	 0.112929
H	-0.518298576	 1.9765478435	-0.9314954109	 0.114282
H	 1.848683964	 1.0806609852	-0.9011018429	 0.114964
H	 1.826357246	 1.0802227803	 0.9210822072	 0.113029
H	 0.0069477679	-0.0012325634	 2.1334643148	 0.087271
H	-1.3125014924	-0.8743908289	 1.3679382611	 0.106915
H	 1.5885875448	-1.8523591742	 1.3376552662	 0.113531
H	 0.4467076063	-2.2775910107	 2.5923076828	 0.096987
H	-0.0355671213	-4.1233005167	 1.2164140388	 0.083913
H	-0.7341861815	-4.0524751053	-1.0075349068	 0.079844
H	-0.6091388002	-2.2639659842	-2.5224624137	 0.080606
H	-0.1907111804	-0.0309237604	-2.143882293	 0.080578
61.7743	182.9929	231.9394	295.5919	323.8315	346.2776	416.1343	449.6933	553.4715	612.1477	677.3853	719.6291	779.6796	808.2356	832.6702	856.4203	885.022	909.8	942.7327	943.222	977.3903	995.1531	999.9682	1009.5122	1047.7452	1059.7008	1076.0856	1081.1756	1187.2076	1195.4537	1235.8279	1251.7701	1278.0569	1319.0817	1347.2178	1365.4239	1394.8815	1436.258	1465.2195	1471.5207	1473.5109	1486.927	1499.7927	1673.7477	1708.589	3001.2031	3024.8673	3054.0293	3066.0582	3122.3946	3126.778	3132.3057	3134.2104	3149.6176	3162.6965	3207.4138	3222.3311
C1CC11CCC=CC=C1	C1CC21CCC=CC=C2	
InChI=1S/C9H12/c1-2-4-6-9(5-3-1)7-8-9/h1-3,5H,4,6-8H2	InChI=1S/C9H12/c1-2-4-6-9(5-3-1)7-8-9/h1-3,5H,4,6-8H2
