15
gdb 10948	5.59366	1.3667	1.23302	4.1155	63.57	-0.2346	0.0214	0.2559	957.0898	0.118266	-399.77348	-399.766119	-399.765175	-399.805201	27.332	
O	-0.0997324836	 1.4004020926	-0.1623390187	-0.452532
C	-0.07479014	 0.0386934963	 0.0341877993	 0.365506
C	-0.3278796964	-0.9691775359	-1.0593689733	-0.348689
C	-1.2647416118	-0.8984214242	 0.1310132159	-0.086551
N	-0.6568099669	-1.5319563347	 1.2926624779	-0.038891
C	 0.5144949567	-0.6335102967	 1.2914844889	-0.242759
C	-0.7107036877	-2.8226341095	 1.7141659054	 0.131007
O	 0.1048674133	-3.3427909946	 2.4456440423	-0.323563
H	 0.6327995278	 1.6404692454	-0.7403494275	 0.294124
H	-0.7343656346	-0.5313633021	-1.9662400211	 0.126391
H	 0.3150148963	-1.8334472949	-1.2047189899	 0.12214
H	-2.3284051713	-0.707987851	 0.0667951209	 0.123312
H	 1.4769200723	-1.1461069572	 1.202713546	 0.126479
H	 0.5219606773	 0.0355110102	 2.15682646	 0.132618
H	-1.6199824714	-3.3381296237	 1.3415573238	 0.071406
73.4792	176.9439	235.1045	276.3054	330.7372	386.3005	404.0682	462.7232	550.2875	652.0502	747.7212	846.7307	856.642	931.0369	955.386	987.9876	1034.9244	1038.6514	1062.7472	1087.0952	1140.1167	1165.5384	1221.7321	1247.4073	1284.0929	1316.1795	1390.4773	1420.0924	1437.062	1486.239	1509.1146	1793.6335	2922.3249	3052.206	3108.3081	3112.6812	3198.939	3210.3186	3799.5595
OC12CC1N(C2)C=O	O[C@]12C[C@H]1N(C2)C=O	
InChI=1S/C5H7NO2/c7-3-6-2-5(8)1-4(5)6/h3-4,8H,1-2H2	InChI=1S/C5H7NO2/c7-3-6-2-5(8)1-4(5)6/h3-4,8H,1-2H2/t4-,5+/m1/s1
