22
gdb 10607	2.34419	1.70709	1.3075	1.1649	78.52	-0.2396	0.0846	0.3242	1101.9959	0.197852	-350.189914	-350.180023	-350.179079	-350.224199	36.13	
C	-0.6993181582	 1.4719235995	 0.703252786	-0.372768
C	-0.0854615624	 0.1968967248	 0.1131862839	-0.25465
C	 0.8752614048	-0.4809321562	 1.0737729711	 0.43798
C	 0.3532713738	-1.3732716387	 2.1637298033	-0.344565
C	 1.169514931	-1.9662568474	 1.0288095189	-0.059121
C	 0.5637286652	-2.9288436292	 0.0307393654	-0.413658
O	 1.9426620426	 0.3326905063	 1.5019072635	-0.282272
C	 2.9317910913	 0.5693575863	 0.5202496101	-0.247859
H	 0.0814537854	 2.18024671	 0.9928368938	 0.128465
H	-1.3593624065	 1.9622719297	-0.0186856879	 0.104793
H	-1.2857299401	 1.2442506863	 1.5994915637	 0.116878
H	-0.8788550757	-0.5072678248	-0.1557490925	 0.097389
H	 0.4335268927	 0.435213294	-0.8243432052	 0.093849
H	 0.8190112416	-1.286677398	 3.1385181074	 0.117747
H	-0.7132942226	-1.5769376718	 2.1822019762	 0.104221
H	 2.1951575977	-2.1994618929	 1.3046444635	 0.088861
H	-0.4834575448	-2.694531485	-0.1815728951	 0.116403
H	 1.1056789084	-2.9185649335	-0.9217451152	 0.115442
H	 0.5932298688	-3.953786823	 0.4174824392	 0.11802
H	 3.3298743734	-0.369634913	 0.1093336621	 0.10388
H	 2.5597155651	 1.1813747549	-0.3136730244	 0.107111
H	 3.7426154887	 1.1125360817	 1.0121838721	 0.123854
79.1656	117.6476	148.9614	177.6025	198.198	209.9735	215.6625	276.7323	319.8129	413.3266	420.9634	474.1209	555.3125	682.136	779.8009	816.6957	872.8856	892.4665	939.1323	985.5728	1007.9894	1033.2249	1058.9347	1097.8125	1109.6304	1124.2925	1141.0413	1179.7235	1188.3402	1217.635	1240.9943	1292.0297	1322.9547	1373.3985	1401.7922	1407.7526	1421.2105	1467.4597	1478.2452	1486.8369	1493.2909	1493.9864	1499.7971	1504.1139	1509.2975	1512.776	2988.083	3024.365	3028.657	3038.9769	3039.6584	3075.1639	3084.6086	3103.1141	3105.7179	3111.7455	3120.8313	3127.2403	3138.2695	3220.0395
CCC1(CC1C)OC	CC[C@]1(C[C@H]1C)OC	
InChI=1S/C7H14O/c1-4-7(8-3)5-6(7)2/h6H,4-5H2,1-3H3	InChI=1S/C7H14O/c1-4-7(8-3)5-6(7)2/h6H,4-5H2,1-3H3/t6-,7-/m1/s1
