23
gdb 110011	1.89971	1.67653	0.97665	0.9689	88.67	-0.2333	0.0268	0.2601	1304.0283	0.204596	-388.303857	-388.293695	-388.29275	-388.33901	37.435	
C	-0.4234362137	 1.2810605787	 0.0680804947	-0.237453
O	 0.433273516	 0.184973664	-0.1619531352	-0.252095
C	 0.8936490646	-0.4802519733	 1.0191426789	 0.012499
C	 0.1678167462	-1.8282026013	 1.3158944273	 0.014942
C	-1.2799276407	-1.9134317643	 0.8362741951	-0.40827
C	 1.100565884	-2.9159935938	 0.7224016066	-0.266617
C	 2.425807397	-2.2117729551	 0.606840618	-0.166284
C	 2.3333078734	-0.8926131837	 0.7814877763	 0.337536
C	 3.4169315483	 0.1321765883	 0.675321698	-0.499909
H	 0.0540877868	 2.0463319826	 0.6996096602	 0.102921
H	-0.6479319297	 1.7236015493	-0.906407878	 0.123525
H	-1.3699751031	 0.9865932755	 0.5433402098	 0.10507
H	 0.7968702231	 0.2166653862	 1.8655847735	 0.054597
H	 0.1866960196	-1.9484203848	 2.4061538086	 0.073584
H	-1.3445231815	-1.6968751113	-0.2336543293	 0.129211
H	-1.6825752235	-2.9174434403	 1.0069304599	 0.108744
H	-1.9281968979	-1.2070355764	 1.3655675627	 0.107115
H	 1.1421186695	-3.8083950789	 1.358503861	 0.097591
H	 0.7515199415	-3.2584312967	-0.2625002319	 0.106562
H	 3.3478716412	-2.7357877231	 0.373431978	 0.084043
H	 4.379112161	-0.3199117509	 0.4195539718	 0.119168
H	 3.1665600939	 0.8702588722	-0.0954548825	 0.136115
H	 3.5401061336	 0.6850980971	 1.6158085367	 0.117404
53.7105	92.2886	159.2853	171.3175	205.0806	239.2991	258.4173	265.5679	272.2462	355.8145	393.6995	492.5824	558.7954	621.2242	670.7101	826.6694	836.5498	901.3788	923.2787	938.9293	960.2576	992.6463	1034.888	1047.1417	1075.0054	1115.9191	1120.734	1157.1269	1173.5087	1180.6178	1212.7361	1219.1162	1282.2021	1305.1036	1320.7579	1349.2487	1369.1393	1389.4392	1404.1227	1407.1031	1476.6226	1478.1353	1485.5233	1487.8518	1493.0594	1498.9708	1502.9434	1513.4308	1729.2455	2973.2136	2983.3948	3004.8467	3018.1101	3023.3062	3028.2558	3034.8351	3049.8049	3070.8105	3093.5017	3105.2195	3110.4857	3116.5557	3175.472
COC1C(C)CC=C1C	CO[C@H]1[C@@H](C)CC=C1C	
InChI=1S/C8H14O/c1-6-4-5-7(2)8(6)9-3/h4,7-8H,5H2,1-3H3	InChI=1S/C8H14O/c1-6-4-5-7(2)8(6)9-3/h4,7-8H,5H2,1-3H3/t7-,8+/m0/s1
