19
gdb 108036	3.57119	1.39628	1.28065	0.8422	79.49	-0.2089	0.0165	0.2254	1056.8448	0.160082	-385.847372	-385.839788	-385.838844	-385.879388	30.28	
C	 0.0338891239	 1.3084689754	-0.193693468	-0.2577
O	-0.0285934323	-0.0503163768	 0.2067162094	-0.281929
C	-1.2978308555	-0.577657514	 0.156308544	 0.440992
C	-2.3981727916	-0.346414065	 1.1880086894	-0.303535
C	-3.0198885138	-1.7279041001	 0.7309041635	-0.097728
C	-4.001654187	-1.4407544093	-0.388132552	-0.093962
C	-3.324186294	-1.0281141614	-1.4641417892	-0.079871
C	-1.8608574673	-1.1219479045	-1.1934228533	-0.150241
C	-1.6590366991	-2.0222756494	 0.0079715479	-0.165821
H	 1.0810440066	 1.6119919066	-0.1303698621	 0.126729
H	-0.3206860401	 1.4374111845	-1.225736893	 0.111026
H	-0.5649655862	 1.9531753997	 0.4645645935	 0.114107
H	-1.9737341183	-0.4258581235	 2.1919522214	 0.108746
H	-3.039540347	 0.5377147135	 1.1165444995	 0.08907
H	-3.3523859496	-2.3890337107	 1.5293025992	 0.07139
H	-5.0763111489	-1.4288850045	-0.255320895	 0.094185
H	-3.7428782685	-0.6418534728	-2.3852103992	 0.094261
H	-1.1248653763	-1.1439763509	-1.9889562936	 0.086537
H	-1.054130275	-2.9201306069	 0.0385501976	 0.093746
84.4203	161.0304	176.2271	332.005	358.9768	388.9157	439.7773	552.38	612.5016	698.0158	709.5818	753.9504	794.9532	851.7864	859.7268	888.1014	916.0343	931.3948	952.2587	980.8214	1011.6173	1029.9834	1045.6908	1071.9308	1111.265	1135.1804	1170.2723	1179.6855	1181.3322	1204.2823	1236.7916	1260.2426	1280.248	1303.4991	1356.6556	1399.0041	1479.4	1486.9729	1495.741	1507.054	1644.5571	2994.1126	3043.1324	3048.7048	3107.7901	3123.034	3124.1477	3180.6459	3190.1435	3198.6247	3223.3392
COC12CC3C=CC1C23	CO[C@@]12C[C@H]3C=C[C@@H]1[C@@H]23	
InChI=1S/C8H10O/c1-9-8-4-5-2-3-6(8)7(5)8/h2-3,5-7H,4H2,1H3	InChI=1S/C8H10O/c1-9-8-4-5-2-3-6(8)7(5)8/h2-3,5-7H,4H2,1H3/t5-,6-,7+,8+/m1/s1
