14
gdb 27804	2.10366	1.92398	1.01115	3.152	69.6	-0.253	-0.0535	0.1995	1099.773	0.100965	-470.060508	-470.052671	-470.051727	-470.093242	28.753	
C	-0.0193033029	 1.4707259487	 0.0282286928	-0.454894
C	 0.0006575222	-0.0237255536	-0.0234952459	 0.345362
N	-0.0227325881	-0.6152273035	-1.1786525457	-0.294531
C	-0.0035028554	-1.977999676	-1.2319013463	 0.429434
N	-0.0238534491	-2.6770745282	-2.2778307936	-0.51182
O	 0.0422139522	-2.6691276217	 0.0518814888	-0.272321
C	 0.0624895883	-1.9264452413	 1.1557406338	 0.502577
O	 0.1029021707	-2.6477889183	 2.2656062617	-0.37056
N	 0.0448401556	-0.6441294132	 1.2144794995	-0.373227
H	 0.8685911949	 1.83119402	 0.5583158634	 0.15053
H	-0.0537220716	 1.8894658967	-0.9765139515	 0.148591
H	-0.8858134383	 1.8059035479	 0.6079438877	 0.150486
H	-0.003351247	-3.6711707592	-2.0591602685	 0.230213
H	 0.1095958386	-3.5842114582	 2.0222764639	 0.32016
93.7954	123.4693	181.1671	191.6558	308.9274	358.1232	511.7405	527.7548	541.8393	582.355	607.6739	640.3579	741.3301	788.8091	809.2544	837.5444	948.0036	976.4561	1053.6775	1061.0746	1109.156	1210.3407	1241.644	1364.621	1412.5476	1430.2298	1463.4393	1471.1682	1607.2781	1709.9011	1789.0523	3047.2091	3103.3197	3169.4757	3523.873	3780.2017
CC1=NC(=N)OC(O)=N1	C[C@H]1N=C([NH])OC(=N1)O	
InChI=1S/C4H5N3O2/c1-2-6-3(5)9-4(8)7-2/h1H3,(H2,5,6,7,8)	InChI=1S/C4H6N3O2/c1-2-6-3(5)9-4(8)7-2/h2,5H,1H3,(H,7,8)/t2-/m0/s1
