18
gdb 73167	2.38662	1.48391	1.34613	4.4389	75.55	-0.2684	-0.0018	0.2667	1061.9741	0.147387	-401.931745	-401.923438	-401.922494	-401.964784	31.28	
C	-0.1447223528	 1.4219555916	-0.1114281443	-0.505156
C	 0.0090476338	-0.071640783	 0.0454398803	 0.271978
C	-1.2510493115	-0.9330145261	 0.3634259613	-0.297321
C	-0.5005256704	-1.6080793291	 1.5549726029	-0.230939
C	 0.7677597008	-0.8132004905	 1.1916720355	 0.08146
O	 1.6091125755	-1.5106847231	 0.2379538076	-0.300377
C	 1.0409005555	-0.7903565587	-0.8719616741	-0.041693
C	 0.5343547942	-1.6593743003	-1.9365694378	 0.286415
N	 0.1126488911	-2.3291280761	-2.7790715457	-0.33139
H	 0.8266511444	 1.926401116	-0.154131983	 0.124633
H	-0.6904274735	 1.6625734123	-1.0314635025	 0.135173
H	-0.7086682623	 1.8462788827	 0.7254676979	 0.127085
H	-2.1036357121	-0.3234959009	 0.6710804875	 0.109738
H	-1.577062029	-1.5971712734	-0.4398238208	 0.133929
H	-0.9112019931	-1.3450830503	 2.5331789333	 0.107947
H	-0.3714913148	-2.690612973	 1.5020140154	 0.124468
H	 1.3578645175	-0.3337322718	 1.9765046882	 0.084703
H	 1.7747981868	-0.0996752063	-1.3097889918	 0.119348
65.8459	141.3646	179.1574	216.2491	263.7196	327.0976	366.4213	390.8726	531.9087	540.0532	648.1761	670.5557	738.1852	826.3691	870.0564	876.7288	940.1972	949.3463	972.9566	1007.9449	1025.1246	1050.7623	1114.169	1162.734	1179.5987	1204.8784	1221.5131	1245.4266	1258.014	1279.9384	1311.7916	1338.3834	1372.6559	1415.215	1465.7625	1487.4383	1492.1888	1494.2225	2352.6994	3009.7147	3026.338	3065.3074	3070.7685	3083.9435	3091.7099	3101.1988	3116.7216	3133.8865
CC12CCC1OC2C#N	C[C@]12CC[C@H]1O[C@H]2C#N	
InChI=1S/C7H9NO/c1-7-3-2-5(7)9-6(7)4-8/h5-6H,2-3H2,1H3	InChI=1S/C7H9NO/c1-7-3-2-5(7)9-6(7)4-8/h5-6H,2-3H2,1H3/t5-,6+,7+/m1/s1
