23
gdb 115446	4.51714	0.75611	0.68517	3.0678	87.32	-0.2447	-0.0155	0.2293	1691.0037	0.205817	-388.326212	-388.316461	-388.315517	-388.361989	35.798	
C	-0.051319657	 1.605098919	 0.0044889021	-0.38596
C	-0.0304208231	 0.0737100125	-0.0339433333	-0.19308
C	 0.7495384441	-0.5107152223	-1.215868572	 0.067053
C	 2.2593018618	-0.2055878401	-1.2310699239	-0.212012
C	 2.8293988783	-1.2581364038	-2.1903005837	-0.237835
C	 2.0633322276	-2.555781002	-1.8220798084	-0.046489
C	 0.6800339319	-2.0605997188	-1.2937932461	-0.267063
C	 1.9207809216	-3.4754778109	-3.0089157968	 0.15294
O	 2.3798628168	-4.5841186429	-3.1016147189	-0.253465
H	 0.9570698897	 2.0191163687	 0.1053413981	 0.118925
H	-0.4882568314	 2.0173869882	-0.9120812916	 0.114118
H	-0.6446935956	 1.9705934378	 0.8482162388	 0.113723
H	 0.4004680803	-0.3133453614	 0.8999597608	 0.09346
H	-1.0619068981	-0.3002477919	-0.0691061626	 0.095942
H	 0.3210570699	-0.1021443257	-2.142177381	 0.067735
H	 2.4909455984	 0.8172535724	-1.5410134763	 0.099769
H	 2.6794870394	-0.3476846945	-0.2260333963	 0.097064
H	 2.6015600412	-0.9719092119	-3.226187098	 0.100392
H	 3.9126599922	-1.3849263254	-2.1206699892	 0.109185
H	 2.6023861427	-3.1032141073	-1.0446504029	 0.090079
H	 0.4873514592	-2.493602413	-0.3073582164	 0.109456
H	-0.1424994516	-2.3865828286	-1.9403950401	 0.102666
H	 1.3280288116	-3.0283169781	-3.8458253023	 0.063396
31.0847	69.2857	109.735	168.6998	192.2566	244.7737	298.0631	343.9321	365.545	406.0537	468.7771	557.6456	645.1487	769.7624	806.067	853.2403	880.4873	925.1973	937.1981	948.2555	992.5105	1002.2607	1020.1741	1056.5161	1065.5625	1097.0035	1109.3094	1152.9993	1196.1552	1218.0009	1243.4379	1289.5375	1295.3275	1296.8049	1318.0849	1324.7628	1341.5121	1351.0943	1375.8533	1391.5426	1412.1789	1427.2416	1484.923	1488.6849	1490.2459	1499.3908	1504.0073	1507.776	1834.5888	2821.7735	2995.931	3009.8551	3016.0767	3024.5524	3032.254	3038.6714	3044.6429	3069.9405	3085.6612	3090.5323	3098.3265	3100.538	3105.6417
CCC1CCC(C1)C=O	CC[C@H]1CC[C@@H](C1)C=O	
InChI=1S/C8H14O/c1-2-7-3-4-8(5-7)6-9/h6-8H,2-5H2,1H3	InChI=1S/C8H14O/c1-2-7-3-4-8(5-7)6-9/h6-8H,2-5H2,1H3/t7-,8-/m0/s1
