18
gdb 83836	2.28473	1.93599	1.30264	5.115	71.83	-0.2555	0.0324	0.2879	1010.2791	0.149183	-439.108118	-439.100279	-439.099335	-439.140431	29.994	
C	-0.278946395	 1.4403485927	 0.2552843622	-0.416038
C	-0.0374134183	-0.014431852	-0.0597977174	-0.0118
C	 0.7026843356	-0.5141149605	-1.2679566476	-0.036957
C	 1.4857468139	 0.3459277576	-2.2351376835	-0.270907
C	 2.963931207	 0.0606742078	-1.9546935299	-0.052987
O	 3.300141236	 0.4038624021	-0.6024357044	-0.237527
C	 2.393064543	 0.2032984997	 0.3928158943	 0.437533
O	 2.5837466086	 0.6631147288	 1.4858652275	-0.367095
N	 1.2991260914	-0.6067549279	 0.0692349753	-0.155331
H	 0.4577397383	 2.1015655343	-0.2067192217	 0.132881
H	-1.274265188	 1.7356012219	-0.0908954881	 0.123323
H	-0.2247232677	 1.6012540861	 1.3356759406	 0.157504
H	-0.8154802238	-0.6782868963	 0.3134100087	 0.105974
H	 0.3982066003	-1.4824672872	-1.6620586445	 0.103717
H	 1.2416161538	 0.0927646048	-3.2704592884	 0.117869
H	 1.2926019305	 1.4141082459	-2.1002322064	 0.124483
H	 3.1898074219	-0.9988784509	-2.1300275976	 0.119828
H	 3.6286767225	 0.6624253733	-2.5790546292	 0.125532
112.3548	143.4522	180.8875	210.8037	298.0436	394.693	444.5113	490.703	528.2298	560.6938	659.0166	721.0953	777.0672	816.0428	837.2021	925.0408	972.9417	977.0272	1007.086	1040.8401	1076.769	1121.8197	1142.4336	1161.2754	1178.7777	1188.7885	1235.7469	1271.2915	1338.272	1345.7303	1392.5713	1417.744	1423.2151	1441.7599	1476.8365	1486.3369	1499.6366	1513.4465	1840.0141	3028.7856	3048.1006	3061.8196	3100.4416	3105.0473	3114.9994	3117.913	3121.3459	3135.3069
CC1C2CCOC(=O)N12	C[C@H]1[C@H]2CCOC(=O)N12	
InChI=1S/C6H9NO2/c1-4-5-2-3-9-6(8)7(4)5/h4-5H,2-3H2,1H3	InChI=1S/C6H9NO2/c1-4-5-2-3-9-6(8)7(4)5/h4-5H,2-3H2,1H3/t4-,5+,7?/m0/s1
