20
gdb 60979	3.29789	0.91682	0.85798	2.4948	77.34	-0.2486	-0.0345	0.2141	1432.7818	0.168011	-440.273952	-440.26389	-440.262946	-440.309271	36.679	
C	 0.2613673508	 1.5290967185	-0.3622066657	-0.440464
C	 0.0119423873	 0.0703214964	-0.0408506688	 0.327637
C	-1.1824538988	-0.5288199579	-0.7580051981	-0.457856
N	 1.2241983397	-0.7634933491	 0.0978313434	-0.379369
C	 0.374567803	-0.5215561583	 1.2790190272	-0.088237
C	 1.0103603536	 0.2471549682	 2.4279635822	 0.045666
O	 0.0344244007	 0.7138060229	 3.3185272458	-0.436158
C	 1.9980633096	-0.6508545715	 3.1483093703	 0.131283
O	 1.9025444274	-0.8737565138	 4.3323158058	-0.266733
H	 1.187116962	 1.8921158433	 0.0872755593	 0.128281
H	 0.3485996118	 1.6649705678	-1.4459068789	 0.11806
H	-0.5668222166	 2.1522386738	-0.0087297735	 0.127035
H	-1.0405884425	-0.4907160798	-1.8444010572	 0.122639
H	-1.3405766405	-1.5735755885	-0.4710923785	 0.112975
H	-2.0977487459	 0.0253529115	-0.5242070082	 0.131643
H	 1.0638283507	-1.6986797473	-0.2682050274	 0.229569
H	-0.263407853	-1.3331258529	 1.6276030605	 0.089043
H	 1.6020670142	 1.0786595843	 2.0106535462	 0.095515
H	 0.2864905455	 0.3580449255	 4.1861698398	 0.293865
H	 2.801086871	-1.089353203	 2.5261207859	 0.115605
48.6718	93.3234	129.6301	158.7641	210.307	227.8811	277.1389	330.2245	373.8893	385.2432	428.7583	435.1529	482.1319	522.9075	707.0408	768.7827	806.9479	853.2427	936.8462	957.8403	969.5564	992.5306	1019.4471	1066.5185	1081.4224	1124.4915	1154.5056	1156.1523	1214.8593	1265.7354	1293.7041	1315.922	1353.7091	1381.6612	1415.3151	1423.3774	1425.5862	1458.6186	1476.7779	1488.5097	1499.8827	1512.9357	1807.5093	2960.7501	2979.2882	3025.2089	3037.8382	3090.3087	3097.9747	3101.084	3113.1346	3132.9245	3497.268	3679.1631
CC1(C)NC1C(O)C=O	CC1(C)N[C@H]1[C@@H](O)C=O	
InChI=1S/C6H11NO2/c1-6(2)5(7-6)4(9)3-8/h3-5,7,9H,1-2H3	InChI=1S/C6H11NO2/c1-6(2)5(7-6)4(9)3-8/h3-5,7,9H,1-2H3/t4-,5-/m0/s1
