17
gdb 27773	1.95441	1.76353	0.93336	5.4529	82.	-0.1939	-0.0145	0.1794	1217.6757	0.137443	-418.093086	-418.084613	-418.083669	-418.126011	32.403	
C	-0.0274501915	 1.5129692119	 0.0275713753	-0.488417
C	 0.0049292038	 0.006393846	-0.0077837466	 0.379913
C	-0.0333846676	-0.6717763144	-1.1968248488	-0.380767
C	-0.0003333178	-2.1112367639	-1.2582922195	 0.435304
O	-0.0180855089	-2.8240012425	-2.2496520167	-0.411452
N	 0.0683367069	-2.7211230296	 0.0216036249	-0.422896
C	 0.1041584151	-2.067344076	 1.2157549139	 0.452786
N	 0.2407575711	-2.8599924003	 2.3454080125	-0.57949
C	 0.0667235247	-0.6968097124	 1.2281288917	-0.330143
H	 0.8684868896	 1.9098663139	 0.5186629519	 0.133927
H	-0.0845624182	 1.9372019746	-0.976936955	 0.13088
H	-0.889880878	 1.8708430254	 0.6016847019	 0.132256
H	-0.0829646349	-0.1533560821	-2.1461169331	 0.100186
H	 0.1539947133	-3.7279078819	-0.0120435486	 0.25032
H	-0.253995979	-3.7413777113	 2.3182027282	 0.255695
H	 0.070004989	-2.3683363549	 3.2104420561	 0.261419
H	 0.0795627425	-0.1655318325	 2.1714938718	 0.080478
96.8219	167.3912	184.8836	220.6013	279.6861	287.7855	339.5362	495.9485	524.4372	545.0197	557.1219	596.9368	614.4179	642.682	699.8395	751.892	771.3586	850.5907	939.0592	996.5706	1000.6123	1058.8863	1069.1293	1126.0648	1158.7115	1227.8635	1281.247	1331.3585	1406.704	1447.2459	1480.4488	1488.0174	1515.101	1600.9683	1650.5792	1674.9149	1779.2218	3031.0172	3083.4664	3127.3522	3201.0668	3211.2796	3557.6955	3599.6543	3659.4037
CC1=CC(=O)NC(N)=C1	Cc1cc(=O)[nH]c(N)c1	
InChI=1S/C6H8N2O/c1-4-2-5(7)8-6(9)3-4/h2-3H,1H3,(H3,7,8,9)	InChI=1S/C6H8N2O/c1-4-2-5(7)8-6(9)3-4/h2-3H,1H3,(H3,7,8,9)
