20
gdb 10866	3.38724	1.5382	1.31326	1.9067	70.12	-0.2588	0.0625	0.3213	1003.3329	0.178439	-386.158969	-386.150837	-386.149893	-386.190968	31.862	
O	-0.0953984218	 1.442835183	-0.0014177917	-0.441319
C	 0.0017513757	 0.0244240319	 0.004263179	 0.152678
C	 0.7456991665	-0.4985417689	 1.2392109868	-0.236549
C	 0.7431480844	-2.034865535	 1.292167255	-0.22177
C	-0.6842224619	-2.6052625159	 1.233438299	 0.148563
O	-1.3978936985	-2.3729195452	 2.4460096246	-0.444141
C	-1.4379012786	-2.060610275	 0.0087884711	-0.229264
C	-1.423486827	-0.524773777	-0.0433004342	-0.20516
H	 0.7951936726	 1.8022647293	 0.0652266325	 0.278196
H	 0.5369865169	-0.3226840748	-0.8979905687	 0.060491
H	 1.7767695382	-0.122181643	 1.2448766584	 0.084579
H	 0.2630067972	-0.0814817749	 2.1336161909	 0.096066
H	 1.3154752586	-2.431171162	 0.44292457	 0.093407
H	 1.2339080505	-2.3889306827	 2.2040164549	 0.104207
H	-0.6281659671	-3.6968212345	 1.1622047024	 0.079601
H	-1.5383114267	-1.4255353153	 2.5393751096	 0.280525
H	-0.9678185836	-2.4609052538	-0.8990924245	 0.09461
H	-2.4671165708	-2.4324883655	 0.0269825538	 0.104777
H	-1.9810485175	-0.101482437	 0.803838594	 0.094563
H	-1.9256564969	-0.1616422635	-0.9452958329	 0.105942
113.957	201.5648	222.3349	243.5508	296.0175	334.6963	369.3231	406.9075	446.4887	494.9361	497.9798	686.9038	779.146	799.0775	826.4357	903.4198	940.7453	971.3356	991.3502	1032.182	1064.1366	1076.4034	1099.7994	1129.944	1148.0457	1167.4335	1221.0329	1271.272	1279.6428	1298.4008	1330.7825	1347.2665	1352.4556	1371.8701	1383.2659	1394.1296	1429.3293	1438.9237	1473.3019	1484.2137	1493.1424	1510.4723	2935.7285	3012.5826	3018.0734	3021.5049	3025.9826	3050.0984	3056.9053	3080.0775	3080.8825	3083.454	3813.0339	3823.6762
OC1CCC(O)CC1	O[C@H]1CC[C@@H](O)CC1	
InChI=1S/C6H12O2/c7-5-1-2-6(8)4-3-5/h5-8H,1-4H2	InChI=1S/C6H12O2/c7-5-1-2-6(8)4-3-5/h5-8H,1-4H2/t5-,6+
