23
gdb 122298	4.52818	0.7048	0.67579	1.5002	87.08	-0.2282	0.082	0.3101	1792.7292	0.204981	-388.257963	-388.248301	-388.247357	-388.29323	35.965	
C	-0.0018422957	 1.5585589701	 0.1107331544	-0.381613
C	-0.0128073669	 0.0368869996	-0.0571946338	-0.16643
C	-1.4120963145	-0.5713606605	 0.0773088343	-0.153384
C	-1.4263955361	-2.0980071571	-0.0977910379	-0.317207
C	-2.806503017	-2.6691069753	-0.0140225878	 0.501124
C	-3.5592889007	-3.0563285164	 1.223722988	-0.328422
C	-3.3878414179	-4.063614002	 0.0998307817	-0.204036
C	-4.2761081082	-3.6490536454	-1.064135258	-0.083531
O	-3.7389827881	-2.2992528833	-1.0472999603	-0.327464
H	 1.008659975	 1.9658676823	 0.0055326139	 0.109854
H	-0.6365609014	 2.0428941091	-0.6395364571	 0.115865
H	-0.3776773543	 1.8510397447	 1.0976358739	 0.113016
H	 0.4030694935	-0.2265101247	-1.038890807	 0.095
H	 0.6552303318	-0.4195777717	 0.685844695	 0.090962
H	-1.8322423525	-0.3170446365	 1.0594728036	 0.094452
H	-2.0822022416	-0.1246693275	-0.6675083447	 0.115668
H	-0.9882774924	-2.3600815998	-1.0696525435	 0.102265
H	-0.8031816645	-2.5708813949	 0.6716308558	 0.097721
H	-2.950513957	-3.2543660641	 2.1008418751	 0.111028
H	-4.5327496082	-2.6171398228	 1.4268403275	 0.110672
H	-2.906782669	-5.0238120427	 0.2300068771	 0.097408
H	-4.0304974632	-4.1485839761	-2.0084738073	 0.105834
H	-5.3620842612	-3.6665240149	-0.9095737829	 0.10122
56.551	84.7473	97.8514	133.8281	230.783	247.2944	279.0928	317.6212	390.9621	430.488	466.8072	712.3897	734.8672	748.5281	793.813	837.3826	885.3316	911.8844	929.596	954.2697	973.4856	984.228	995.4234	1013.5146	1027.3152	1065.2658	1070.432	1073.1737	1125.5237	1138.1542	1171.5184	1201.1435	1252.3572	1262.4961	1287.5579	1316.6784	1329.8637	1343.2043	1361.0423	1395.0194	1410.8618	1417.4708	1473.3315	1486.2272	1489.0257	1499.3922	1500.0311	1513.3084	1519.9702	3010.0949	3014.9252	3018.0397	3024.7747	3029.7402	3036.7356	3051.7913	3065.2143	3074.7188	3096.3028	3100.9852	3109.8384	3196.6942	3205.4507
CCCCC12CC1CO2	CCCC[C@]12C[C@H]1CO2	
InChI=1S/C8H14O/c1-2-3-4-8-5-7(8)6-9-8/h7H,2-6H2,1H3	InChI=1S/C8H14O/c1-2-3-4-8-5-7(8)6-9-8/h7H,2-6H2,1H3/t7-,8-/m0/s1
