17
gdb 71408	4.04724	1.3304	1.30618	3.2081	72.27	-0.2324	0.0804	0.3128	1032.2729	0.13482	-421.735437	-421.728087	-421.727143	-421.766922	29.295	
C	-0.0162813358	 1.3876535639	-0.07598103	-0.506465
C	 0.0422245094	-0.0990892998	-0.0007185681	 0.483265
O	-0.4490269517	-0.8708389555	-1.106265598	-0.319709
C	-0.3902366895	-2.029722924	-0.2300700616	-0.080891
C	-0.3403303925	-1.0978287184	 1.0366547544	-0.19462
C	 1.151729319	-0.9271476011	 0.681290329	-0.314499
C	 1.1156117397	-2.2479615681	-0.040650638	 0.563661
C	 1.8400795521	-3.4825084789	 0.2326004001	-0.288037
O	 2.0154932866	-2.7492362914	-0.9983464328	-0.277477
H	 0.6125988752	 1.7544570203	-0.8936062823	 0.14109
H	-1.04190135	 1.7270192933	-0.2496399878	 0.13506
H	 0.3431164188	 1.8301886109	 0.8576440457	 0.127475
H	-1.0939225069	-2.8185914136	-0.4841664471	 0.09237
H	-0.8616817086	-1.0691480472	 1.9822780784	 0.106672
H	 1.9394867585	-0.4909361546	 1.2807913599	 0.098166
H	 2.6959715699	-3.4735201717	 0.9062004059	 0.117543
H	 1.3426269056	-4.4466383142	 0.1309384322	 0.116394
137.1178	197.7215	225.3966	262.1277	321.6951	375.3555	471.0931	601.342	625.6509	651.3154	756.9607	780.0478	800.3846	868.8324	880.5668	891.7599	906.9388	926.7894	957.6622	999.7123	1041.6053	1053.0807	1099.0458	1108.3877	1115.5861	1140.8258	1151.5083	1169.0013	1207.8036	1236.2695	1280.2252	1399.4262	1449.6538	1465.782	1474.4816	1501.0032	1550.3597	3039.5176	3079.3009	3108.3059	3117.7981	3156.2327	3164.476	3208.6977	3222.4498
CC12OC3C1C2C31CO1	C[C@]12O[C@@H]3[C@H]1[C@H]2[C@]13CO1	
InChI=1S/C7H8O2/c1-6-3-4(6)7(2-8-7)5(3)9-6/h3-5H,2H2,1H3	InChI=1S/C7H8O2/c1-6-3-4(6)7(2-8-7)5(3)9-6/h3-5H,2H2,1H3/t3-,4-,5-,6+,7+/m1/s1
