21
gdb 82203	2.46532	1.80616	1.32687	1.8181	80.68	-0.2508	0.0804	0.3312	1054.1762	0.182762	-387.080477	-387.072149	-387.071205	-387.112736	33.403	
C	-0.0149776341	 1.5420119317	 0.0514824833	-0.39617
C	 0.0177114887	 0.0110894216	-0.0228238161	-0.060721
C	 0.7272227051	-0.5620942011	-1.2601456872	-0.058471
C	 2.2007930395	-0.3330819733	-1.4837346619	-0.28915
C	 1.7353596662	-1.6060953634	-0.8175893072	-0.064783
C	 1.7178210991	-1.5942380595	 0.6934595305	-0.041809
O	 2.1031318249	-0.3399622327	 1.2845323493	-0.299732
C	 0.6984117833	-0.6505873639	 1.1863997407	 0.404297
C	-0.0330812015	-0.7648904643	 2.49665027	-0.485695
H	 0.9982322343	 1.9457709425	 0.126273193	 0.132379
H	-0.4864021852	 1.9658370805	-0.8405135521	 0.112366
H	-0.5816550283	 1.887227407	 0.9229239331	 0.110187
H	-1.0166164258	-0.3588842358	-0.04182465	 0.071488
H	 0.1163926874	-0.7287018376	-2.1411599162	 0.081567
H	 2.5539957355	-0.4105156887	-2.5065399769	 0.103976
H	 2.7290416534	 0.3826901868	-0.8672100433	 0.135214
H	 1.8462619934	-2.5599836384	-1.3193430489	 0.081359
H	 2.025206916	-2.4772072595	 1.2487428784	 0.087412
H	-0.2762555533	 0.22551154	 2.8977882845	 0.127593
H	-0.9713563552	-1.3163519925	 2.3742437532	 0.11997
H	 0.5849915166	-1.2827341995	 3.2343834437	 0.128724
136.8998	191.4973	202.7918	227.5754	239.7494	279.1431	383.5435	415.0002	529.1166	561.1682	614.5379	682.6332	697.6107	773.9295	808.7066	816.4376	875.9545	897.2123	940.7868	974.5899	987.3977	1030.2021	1044.0229	1066.7325	1072.5512	1086.04	1100.4169	1114.5145	1117.063	1153.0387	1199.5145	1231.5391	1288.4009	1323.3665	1338.1293	1349.5073	1381.4601	1405.4593	1411.3268	1443.7336	1478.1308	1483.2848	1494.635	1497.9287	1502.5551	3011.5116	3033.2148	3036.9873	3094.0778	3099.3316	3120.1699	3121.403	3139.8537	3140.3656	3158.5916	3182.0708	3235.9691
CC1C2CC2C2OC12C	C[C@H]1[C@H]2C[C@H]2[C@H]2O[C@@]12C	
InChI=1S/C8H12O/c1-4-5-3-6(5)7-8(4,2)9-7/h4-7H,3H2,1-2H3	InChI=1S/C8H12O/c1-4-5-3-6(5)7-8(4,2)9-7/h4-7H,3H2,1-2H3/t4-,5+,6+,7+,8-/m0/s1
