16
gdb 81159	2.54305	1.70921	1.26018	3.9045	69.27	-0.256	0.0037	0.2597	995.9673	0.125204	-437.864799	-437.857345	-437.856401	-437.896544	29.183	
O	-0.0539439794	 1.4020987876	 0.1511365329	-0.432062
C	 0.0180955758	 0.0120452817	 0.043420828	 0.096262
C	-1.3808973625	-0.6283521571	-0.2025009491	-0.121217
C	-1.2332518263	-0.1829882736	-1.6926931536	-0.281249
C	 0.2405752466	-0.573529701	-1.4022122794	 0.326045
O	 0.1975389084	-1.9842460275	-1.1681893385	-0.320101
C	-0.974802039	-2.0992898439	-0.3110450243	-0.089121
C	 1.3612690591	-0.1742725669	-2.2228516433	 0.177192
N	 2.2525360742	 0.2256387716	-2.8406430373	-0.337053
H	 0.8366286778	 1.7619158472	 0.0718338705	 0.301553
H	 0.6541203605	-0.4468829723	 0.811037165	 0.089818
H	-2.242569222	-0.3689812624	 0.4087434234	 0.097864
H	-1.7417586175	-0.7621373795	-2.4649103657	 0.116149
H	-1.3678222489	 0.8876625903	-1.8238553755	 0.141947
H	-0.6857580034	-2.5519324474	 0.6428946335	 0.116661
H	-1.7276017733	-2.7275212067	-0.7981386868	 0.117311
118.7445	161.5892	282.8384	318.273	347.2415	350.5913	456.5786	487.5785	541.376	562.817	613.6311	653.785	828.9139	871.6161	918.5383	944.5526	961.0428	971.3788	1006.5845	1026.0993	1076.7707	1119.2371	1146.5105	1161.2525	1184.0345	1212.7873	1248.1015	1258.0709	1281.4413	1311.255	1356.979	1420.5329	1479.6455	1527.8048	2359.5061	3029.0846	3041.0822	3086.2097	3095.8839	3149.2922	3184.6158	3804.5468
OC1C2CC1(OC2)C#N	O[C@H]1[C@H]2C[C@@]1(OC2)C#N	
InChI=1S/C6H7NO2/c7-3-6-1-4(2-9-6)5(6)8/h4-5,8H,1-2H2	InChI=1S/C6H7NO2/c7-3-6-1-4(2-9-6)5(6)8/h4-5,8H,1-2H2/t4-,5-,6+/m0/s1
