21
gdb 90720	4.28609	1.12414	1.03781	1.5354	82.9	-0.2213	0.0764	0.2977	1248.9848	0.182161	-387.045969	-387.037604	-387.03666	-387.07902	32.988	
C	-0.5335570769	 1.1744801842	-0.1739054857	-0.41055
C	 0.1821210025	-0.162519225	-0.0282129409	 0.024717
C	 1.5165196012	-0.2973404814	-0.8382766989	-0.258504
C	 2.3129839478	-0.4670026494	 0.4829892667	-0.176943
C	 0.9865500366	-0.3449095928	 1.2867543521	 0.104288
O	 1.0707054554	-1.721411624	 1.7184547491	-0.323347
C	 2.3250419855	-1.8820511829	 1.0429011753	 0.472837
C	 2.7295860989	-3.17796899	 0.424459161	-0.335358
C	 3.4440754573	-2.6491590178	 1.6646333264	-0.345016
H	 0.144053797	 2.012195714	 0.0304225328	 0.112357
H	-0.9204259114	 1.3053773174	-1.1902218729	 0.117211
H	-1.3769093026	 1.2515868876	 0.5211246212	 0.11745
H	-0.5150044236	-0.9912581089	-0.1794175671	 0.081875
H	 1.5823598037	-1.1388335867	-1.5325149	 0.101341
H	 1.7730568089	 0.6187238679	-1.3777782603	 0.097406
H	 3.2008902277	 0.1437105379	 0.6436449778	 0.075902
H	 0.7968312534	 0.3397804657	 2.1182923754	 0.071126
H	 2.0583650031	-4.0193297429	 0.5594388744	 0.12386
H	 3.2543214752	-3.1631182227	-0.5257158818	 0.113774
H	 4.4561692513	-2.271203887	 1.5590265279	 0.112159
H	 3.2374033591	-3.1442228531	 2.6075136875	 0.123414
51.2757	150.7272	212.8336	249.3363	258.4616	313.3466	371.7958	393.2362	512.9288	577.686	700.0913	755.1792	807.4614	831.6616	860.1212	867.9349	882.9955	900.1619	922.4046	961.2065	968.2221	994.2677	1030.113	1044.9288	1063.2462	1065.3764	1100.4952	1114.4422	1178.2423	1185.9295	1194.2133	1201.6847	1233.3946	1257.6879	1274.555	1279.8875	1312.3702	1354.5176	1394.8368	1410.3972	1447.9	1477.9992	1495.5406	1498.1552	1499.8719	3022.2129	3053.9375	3065.9273	3066.7361	3089.9384	3096.182	3106.3476	3115.1294	3124.9775	3127.7511	3208.5092	3222.7156
CC1CC2C1OC21CC1	C[C@H]1C[C@H]2[C@@H]1OC12CC1	
InChI=1S/C8H12O/c1-5-4-6-7(5)9-8(6)2-3-8/h5-7H,2-4H2,1H3	InChI=1S/C8H12O/c1-5-4-6-7(5)9-8(6)2-3-8/h5-7H,2-4H2,1H3/t5-,6-,7+/m0/s1
