21
gdb 43169	2.07577	1.75703	1.7038	2.9663	80.37	-0.2262	-0.0052	0.221	1000.3511	0.186814	-387.142626	-387.135212	-387.134268	-387.17419	30.378	
O	-0.0001839609	 0.0573818354	-0.0361427462	-0.339749
C	-0.0155393607	 1.2600826255	 0.0185239107	 0.411575
C	-1.2309718175	 2.1832612527	 0.0568219971	-0.092854
C	-0.8115840713	 3.2332682296	 1.1101443789	-0.230608
C	 0.7574335824	 3.2542994344	 1.0882952297	-0.230608
C	 1.1753190848	 2.2155047465	 0.0233222106	-0.092854
C	 1.2257734486	 2.8212035605	-1.4062179199	-0.219065
C	-0.0712135911	 3.5799498478	-1.7475404406	-0.195934
C	-1.3374059593	 2.7868575246	-1.3705318889	-0.219065
H	-2.1438465766	 1.6416254855	 0.3106409887	 0.081139
H	-1.2378419592	 4.2173972944	 0.8953233883	 0.102292
H	-1.1743000375	 2.938708277	 2.0986101225	 0.107476
H	 1.1510186634	 4.2494144326	 0.8620411994	 0.102292
H	 1.1552932391	 2.9699509329	 2.0661735286	 0.107476
H	 2.1090877809	 1.6986138169	 0.2514300366	 0.081139
H	 2.0880089894	 3.4927745068	-1.4902406182	 0.099904
H	 1.3869834442	 2.0068362509	-2.1232085391	 0.111683
H	-0.0766587718	 4.5385975439	-1.2159483559	 0.103926
H	-0.0893974549	 3.8291741534	-2.8137839573	 0.100247
H	-1.4966358695	 1.9681967308	-2.0830617899	 0.111683
H	-2.2193269524	 3.435057998	-1.4302746549	 0.099904
127.1348	170.3316	268.8405	275.2634	354.1879	410.3338	465.9857	482.5201	647.7292	696.6734	751.8734	772.0206	787.2642	828.5576	848.5194	871.0446	876.7788	969.4019	972.068	978.4076	1011.7477	1053.5244	1083.2348	1083.3413	1098.0813	1170.1411	1188.274	1199.3878	1222.1103	1248.2045	1261.2354	1284.4532	1310.299	1315.3629	1325.1148	1345.478	1367.4885	1376.7194	1381.334	1483.1845	1488.5448	1493.4354	1497.5455	1516.2036	1851.5997	3026.0219	3026.1966	3035.8989	3049.2958	3059.3696	3063.6039	3065.655	3080.632	3081.6916	3097.0279	3098.5171	3106.9698
O=C1C2CCC1CCC2	O=C1[C@H]2CC[C@@H]1CCC2	
InChI=1S/C8H12O/c9-8-6-2-1-3-7(8)5-4-6/h6-7H,1-5H2	InChI=1S/C8H12O/c9-8-6-2-1-3-7(8)5-4-6/h6-7H,1-5H2/t6-,7+
