15
gdb 31678	6.74918	0.86156	0.76775	3.8372	72.08	-0.2138	-0.0473	0.1666	1404.3555	0.111437	-457.79011	-457.781581	-457.780637	-457.825512	29.502	
C	 0.0268491434	 1.4195505059	 0.0921510622	-0.248971
O	 0.0175186699	-0.0070484585	 0.0181960315	-0.267386
C	 0.6087973916	-0.6806517056	 1.0032161979	 0.499252
C	 0.7501915688	-2.0167591731	 1.1998355216	-0.473976
C	 1.4800447015	-2.1429785568	 2.4372830766	 0.18022
C	 1.8992310118	-3.374919053	 3.1102480265	 0.073837
O	 2.5133420401	-3.414166466	 4.1536030955	-0.274878
C	 1.7175689759	-0.8748457361	 2.8826854943	-0.090589
O	 1.1882394251	 0.029464599	 2.012234837	-0.185805
H	 1.049902893	 1.8083716506	 0.0896988695	 0.13978
H	-0.5021326304	 1.7610071255	-0.7974195333	 0.144719
H	-0.4891390904	 1.7716860707	 0.9908313278	 0.139685
H	 0.388107574	-2.8024378868	 0.5582654324	 0.126359
H	 1.6069997376	-4.3097107086	 2.5826089407	 0.070701
H	 2.2179257782	-0.4756418371	 3.7472426896	 0.167053
9.2477	104.6782	152.2406	172.3054	220.3519	262.626	344.0727	395.122	564.5004	619.5923	673.1195	683.1241	735.1706	775.6692	777.7003	943.717	1011.0481	1039.8154	1050.325	1145.2272	1175.8018	1181.1195	1196.6703	1254.8754	1320.9684	1381.5121	1454.4573	1479.4425	1486.4849	1500.8566	1583.61	1666.4123	1791.301	2886.0276	3036.7093	3106.082	3156.5395	3274.727	3301.7497
COC1=CC(C=O)=CO1	COc1cc(C=O)co1	
InChI=1S/C6H6O3/c1-8-6-2-5(3-7)4-9-6/h2-4H,1H3	InChI=1S/C6H6O3/c1-8-6-2-5(3-7)4-9-6/h2-4H,1H3
