14
gdb 16329	3.21747	2.02228	1.415	3.3241	58.04	-0.2509	-0.0362	0.2147	856.0567	0.105531	-419.64112	-419.633693	-419.632749	-419.673288	26.843	
O	 0.0162557365	 1.39111531	 0.2468977599	-0.411223
C	 0.0750030664	-0.0160727228	 0.1008084008	-0.198934
C	-1.2919463496	-0.5988179148	-0.0799515733	 0.292938
O	-2.1210840514	-0.9408973868	 1.0554615347	-0.266441
C	-1.9245559954	-1.9389770124	 0.0597799601	-0.060655
C	-2.9817603126	-1.6697206343	-1.0249704854	-0.37018
C	-2.2893703249	-0.2830980583	-1.1912540895	 0.381085
O	-2.3659988405	 0.6075430791	-1.9873559056	-0.309942
H	-0.4085964764	 1.7466507269	-0.5428085346	 0.300917
H	 0.7055268209	-0.3103853025	-0.7532634795	 0.103311
H	 0.531646917	-0.4152527189	 1.0110187723	 0.131315
H	-1.4619558757	-2.8738799442	 0.3509888187	 0.126879
H	-2.8808142072	-2.2617869142	-1.9397127222	 0.137129
H	-4.0172682371	-1.6823833368	-0.6803420165	 0.1438
65.9807	119.9205	177.8568	244.3547	386.0784	401.6874	451.8413	497.7952	573.7213	669.6412	736.1344	785.485	869.88	937.6807	950.2415	985.8892	1018.2225	1034.4558	1071.1107	1133.2728	1158.3587	1208.0903	1247.2296	1273.2458	1369.7296	1409.9418	1439.2114	1459.7684	1487.1269	1884.1906	2980.9824	3068.5837	3092.2347	3133.2754	3204.5251	3794.8121
OCC12OC1CC2=O	OC[C@]12O[C@H]1CC2=O	
InChI=1S/C5H6O3/c6-2-5-3(7)1-4(5)8-5/h4,6H,1-2H2	InChI=1S/C5H6O3/c6-2-5-3(7)1-4(5)8-5/h4,6H,1-2H2/t4-,5+/m0/s1
