12
gdb 132217	2.05229	1.89542	0.98537	4.0936	61.56	-0.2367	-0.0235	0.2132	1061.8518	0.077586	-513.942454	-513.935285	-513.93434	-513.974326	26.64	
O	 0.1004329816	 1.3024558141	 0.007534435	-0.401754
C	-0.0401240516	-0.0229467451	 0.0010066847	 0.475526
C	-1.1928501773	-0.6979600034	 0.0034134416	-0.287541
C	-1.173975026	-2.1553221011	-0.0048229821	 0.350476
N	-2.2465514695	-2.8439454662	-0.0028167969	-0.527028
N	 0.1184426654	-2.7604979544	-0.0149314357	-0.409405
C	 1.1230811008	-2.0125085889	-0.0160029589	 0.402924
F	 2.3476735432	-2.4717018486	-0.0253474467	-0.037499
O	 1.1829747387	-0.6596784888	-0.008979471	-0.249669
H	 1.0410381969	 1.5208079724	 0.0039333911	 0.3189
H	-2.1349976694	-0.1706383345	 0.0113611162	 0.140647
H	-2.0085422227	-3.8370265154	-0.0095281173	 0.224422
130.4399	184.1588	213.1641	281.8146	343.424	372.0782	498.8117	546.6143	608.6795	640.3934	647.7455	686.3356	743.6024	854.2724	911.6353	919.298	980.6464	1024.8756	1151.8662	1191.1762	1265.434	1292.8815	1366.6726	1418.387	1703.2877	1740.9675	1805.7275	3253.2268	3475.6427	3803.1025
OC1=CC(=N)N=C(F)O1	O[C@H]1C=C([NH])N=C(F)O1	
InChI=1S/C4H3FN2O2/c5-4-7-2(6)1-3(8)9-4/h1,6,8H	InChI=1S/C4H4FN2O2/c5-4-7-2(6)1-3(8)9-4/h1,3,6,8H/t3-/m1/s1
