14
gdb 124320	4.86037	0.99754	0.98824	6.7222	63.76	-0.2842	-0.0473	0.2369	1208.1816	0.099345	-466.146793	-466.138448	-466.137503	-466.182107	27.715	
C	-0.0558918686	 1.5013952831	 0.0108964492	-0.48522
C	 0.0893983478	-0.0036671118	 0.0012089581	 0.38757
O	 1.1422719516	-0.582191666	-0.0108885244	-0.25524
C	-1.2453115796	-0.7802960173	 0.0089178387	-0.270454
N	-1.0363965633	-2.2085145153	-0.0003437722	 0.192415
N	-0.8924495791	-2.9284774539	-1.1025723165	-0.113825
N	-0.6501521415	-4.1324432947	-0.6881659302	-0.080163
N	-0.6388205848	-4.1395038231	 0.6607134615	-0.080165
N	-0.874091377	-2.9399841215	 1.0917204519	-0.113834
H	 0.9312273487	 1.9635167961	 0.0045931173	 0.163599
H	-0.625665105	 1.8362247527	-0.8633356044	 0.152067
H	-0.6097618673	 1.8263741321	 0.8989635257	 0.152101
H	-1.8222083774	-0.52756507	 0.9020387175	 0.175584
H	-1.8378344145	-0.5182703304	-0.8711998223	 0.175567
29.3163	49.8865	92.2145	94.6818	287.6241	338.7122	338.8419	462.9874	569.444	719.2163	764.3275	799.1909	805.041	839.6515	969.6816	982.0002	1033.7563	1098.4397	1143.0932	1144.5226	1181.926	1258.6035	1285.6834	1354.7587	1386.6807	1420.2231	1421.3146	1441.4564	1461.9552	1473.9965	1845.9673	3037.8529	3080.4415	3098.4474	3134.5594	3161.1224
CC(=O)CN1N=NN=N1	CC(=O)Cn1nnnn1	
InChI=1S/C3H5N5O/c1-3(9)2-8-6-4-5-7-8/h2H2,1H3	InChI=1S/C3H5N5O/c1-3(9)2-8-6-4-5-7-8/h2H2,1H3
