17
gdb 127599	3.30456	1.3808	0.98048	4.0861	83.44	-0.1924	-0.033	0.1594	1171.4023	0.138096	-414.205749	-414.19748	-414.196535	-414.238236	31.913	
C	-0.0067943196	 1.4123572895	-0.024906221	-0.301887
N	-0.0107267221	-0.0433047842	 0.0089458575	-0.027573
N	-0.0585931508	-0.6606467929	-1.1685426851	-0.204566
C	-0.0676417405	-1.9582913513	-1.199178517	-0.050325
C	-0.0224334751	-2.7733732975	-0.0135942685	 0.310197
N	-0.0914279082	-4.1457679414	-0.1580865214	-0.588705
C	 0.0322119218	-2.1277795073	 1.1857431661	-0.28502
C	 0.0338203686	-0.686159853	 1.2640137051	 0.393122
N	 0.0761784902	 0.0734512748	 2.3050369915	-0.587226
H	 0.8943223739	 1.7963990842	 0.4603013703	 0.146631
H	-0.0453128234	 1.7120446435	-1.0708047477	 0.135179
H	-0.8662525715	 1.8023043772	 0.5266021342	 0.147474
H	-0.1174071338	-2.4095171262	-2.1850560868	 0.109874
H	 0.2423973383	-4.518135473	-1.033980689	 0.256551
H	 0.198815508	-4.6940225468	 0.6372836617	 0.256218
H	 0.0720124241	-2.6765248086	 2.1211318113	 0.088714
H	 0.10527568	-0.4979324471	 3.1472856488	 0.201342
117.2609	146.7043	189.1846	267.8656	317.2468	348.6558	358.8518	442.7573	470.7409	507.6486	535.4567	610.9425	686.5681	721.8132	746.9384	763.5978	787.6805	843.4883	857.0824	986.5678	1045.7614	1097.5397	1132.9882	1152.2641	1229.8264	1276.7845	1297.6378	1358.9562	1410.3639	1439.9055	1466.5866	1469.2626	1509.695	1577.1255	1631.689	1661.4506	1698.4173	3055.6297	3115.6183	3174.0299	3176.4019	3179.0702	3496.8301	3576.405	3679.7296
CN1N=CC(N)=CC1=N	CN1N=C[C@H](N)C=C1[NH]	
InChI=1S/C5H8N4/c1-9-5(7)2-4(6)3-8-9/h2-3,7H,6H2,1H3	InChI=1S/C5H9N4/c1-9-5(7)2-4(6)3-8-9/h2-4,7H,6H2,1H3/t4-/m1/s1
