21
gdb 117932	1.91543	1.13612	0.76828	2.7908	76.42	-0.2603	-0.0217	0.2386	1538.1945	0.179011	-461.373633	-461.362675	-461.36173	-461.410778	38.022	
C	 0.3997813262	 0.938761361	-0.2340696873	-0.379875
C	-0.096673319	-0.4947126694	-0.0601513179	-0.28349
C	-1.600581182	-0.6164126117	-0.0101726947	 0.357396
O	-2.3425359053	 0.3461223697	-0.0197469878	-0.330532
C	-2.2366423095	-2.0137545613	 0.0714824848	 0.014705
O	-3.6077375434	-1.8871453685	 0.3363555773	-0.435401
C	-2.0677707598	-2.8111390787	-1.236097245	-0.086141
O	-0.7279654441	-3.2243337443	-1.3836831789	-0.230891
C	-0.5191665773	-4.0057737322	-2.5391471397	-0.231048
H	 1.4927507936	 0.9674017705	-0.238214113	 0.112881
H	 0.041398608	 1.3668028362	-1.1741662685	 0.128751
H	 0.0390222224	 1.5808790274	 0.5732871837	 0.132556
H	 0.2635927054	-1.1649731292	-0.8490567982	 0.150327
H	 0.2881095758	-0.9390727728	 0.8692157644	 0.12906
H	-1.738228682	-2.5818417437	 0.8716050665	 0.095238
H	-3.7845076146	-0.9331893307	 0.2703968835	 0.293731
H	-2.7431495707	-3.6773968097	-1.1732128095	 0.112943
H	-2.3944159412	-2.19912476	-2.0936135076	 0.095972
H	-1.1314006751	-4.9200818653	-2.5226876255	 0.112951
H	-0.7583221211	-3.4475653552	-3.4573001322	 0.110295
H	 0.5366305635	-4.2855599023	-2.5579992142	 0.130571
50.0353	59.5999	88.947	120.2089	166.1073	191.3691	213.5878	233.2521	259.5435	350.0886	366.0902	416.3178	472.4047	519.2617	595.5626	663.4536	790.1286	806.4587	976.9635	992.2878	1011.8762	1038.4523	1060.3897	1113.0564	1124.7041	1157.581	1164.8822	1183.7301	1229.1007	1231.8153	1272.8918	1299.2799	1326.4617	1381.3443	1405.4397	1414.861	1448.3463	1453.2422	1480.8965	1485.8585	1493.8554	1499.2422	1502.9652	1526.0902	1783.9539	2964.6711	2980.4524	2996.2506	3016.5262	3023.3394	3027.5197	3051.4044	3074.1524	3118.8003	3121.8055	3126.9728	3653.0514
CCC(=O)C(O)COC	CCC(=O)[C@@H](O)COC	
InChI=1S/C6H12O3/c1-3-5(7)6(8)4-9-2/h6,8H,3-4H2,1-2H3	InChI=1S/C6H12O3/c1-3-5(7)6(8)4-9-2/h6,8H,3-4H2,1-2H3/t6-/m0/s1
