16
gdb 129160	5.44412	0.98989	0.89442	4.1591	73.41	-0.22	0.0044	0.2245	1282.607	0.12543	-434.051559	-434.043707	-434.042763	-434.084796	29.379	
N	-0.1814813511	 1.2786926789	-0.2175590112	-0.607888
C	-0.0246155196	 0.0325330685	-0.0740894998	 0.486076
N	-1.0231941178	-0.9277295032	-0.0664241931	-0.395065
C	-0.441875922	-2.1563171402	 0.1038429158	 0.449223
N	 0.8431453006	-2.0696992257	 0.225766413	-0.205312
O	 1.1346520805	-0.6749237081	 0.1047719171	-0.2443
C	-1.2018528502	-3.4154206993	 0.1098513969	-0.141925
C	-0.9804789449	-4.4202443323	-1.014120937	-0.250828
C	-0.4837546343	-4.717986017	 0.3677620924	-0.254328
H	 0.7126757834	 1.7617531303	-0.1855974501	 0.232607
H	-1.9942653474	-0.7208806541	-0.2182771363	 0.283814
H	-2.2162427047	-3.3193202298	 0.4830440574	 0.102496
H	-1.8515318252	-4.9484843057	-1.3849579233	 0.124737
H	-0.2488375978	-4.153012587	-1.7674141076	 0.139836
H	 0.5822335279	-4.6548816443	 0.5484915263	 0.15695
H	-1.0084386474	-5.4585644209	 0.9596528296	 0.123906
38.2394	121.1506	174.0366	218.563	347.3421	402.6316	419.5747	493.0998	626.0635	693.8459	730.3715	746.2423	766.4133	795.9276	829.8889	896.1832	911.3408	923.5432	966.2731	1028.4956	1065.4168	1072.3384	1096.3742	1121.5201	1124.9825	1204.4357	1208.7516	1235.0942	1318.8336	1383.668	1465.2597	1490.6211	1523.1983	1652.3703	1793.2538	3142.9387	3151.1854	3162.6066	3231.4684	3247.1588	3539.1658	3697.3183
N=C1NC(=NO1)C1CC1	[NH][C@H]1NC(=NO1)C1CC1	
InChI=1S/C5H7N3O/c6-5-7-4(8-9-5)3-1-2-3/h3H,1-2H2,(H2,6,7,8)	InChI=1S/C5H8N3O/c6-5-7-4(8-9-5)3-1-2-3/h3,5-6H,1-2H2,(H,7,8)/t5-/m0/s1
