21
gdb 83379	2.66607	1.69461	1.50108	1.835	81.89	-0.2372	0.083	0.3202	1008.7533	0.184665	-387.028042	-387.020626	-387.019682	-387.059308	31.111	
C	-0.0014692895	 1.6668704201	 0.045525914	-0.443866
C	 0.0419990661	 0.147831589	 0.0571372901	 0.007154
C	 1.1185708527	-0.5999835192	-0.7408192518	 0.050116
O	 2.352731867	-0.032893084	-0.1884697373	-0.293263
C	 2.1154350779	-0.0146768649	 1.257213496	-0.179992
C	 0.7455712955	-0.6578026405	 1.2359293934	 0.275093
C	-0.1714280844	-1.5477013116	 2.0869489679	-0.329952
C	-0.3427055395	-2.457678775	 0.8133694906	-0.276537
C	 0.9473950275	-1.8091240229	 0.1969682615	-0.010381
H	 1.0016253296	 2.0984710735	 0.0284506854	 0.136734
H	-0.5294287512	 2.0257556652	-0.8447559177	 0.114295
H	-0.5340501545	 2.0562977334	 0.9205844059	 0.112252
H	-0.9529446216	-0.2586701017	-0.1257224542	 0.073195
H	 1.2213609268	-0.6094536941	-1.8271500824	 0.066829
H	 2.8745903929	-0.6178820493	 1.7665239327	 0.100437
H	 2.1687941736	 1.0170873795	 1.621707736	 0.096475
H	 0.3677466347	-2.0730808389	 2.8812539795	 0.107331
H	-1.0667593296	-1.087917568	 2.5146741236	 0.099303
H	-0.2447966151	-3.5300750447	 0.9914963678	 0.103098
H	-1.2716773776	-2.2910531945	 0.2662695112	 0.11348
H	 1.8311387486	-2.4443583616	 0.2855681778	 0.078198
173.0801	212.6063	257.7339	307.8318	316.8789	381.0847	433.5257	533.8882	594.3452	670.2774	708.678	754.5163	792.6348	822.516	835.5048	862.5906	894.6779	913.3009	946.9824	996.4649	1030.2952	1034.3824	1050.6899	1076.4271	1105.8319	1111.6821	1141.0586	1168.8818	1198.764	1207.1337	1219.9014	1236.7805	1250.5147	1255.2228	1260.438	1294.8573	1337.8899	1354.7733	1401.0524	1410.6914	1479.8142	1488.5744	1494.7033	1505.0545	1531.5527	3029.0751	3033.5131	3048.4875	3070.6711	3077.1407	3086.8017	3088.7716	3097.9193	3099.8887	3107.9703	3128.6493	3133.4909
CC1C2OCC11CCC21	C[C@H]1[C@H]2OC[C@]31CC[C@@H]23	
InChI=1S/C8H12O/c1-5-7-6-2-3-8(5,6)4-9-7/h5-7H,2-4H2,1H3	InChI=1S/C8H12O/c1-5-7-6-2-3-8(5,6)4-9-7/h5-7H,2-4H2,1H3/t5-,6-,7+,8-/m0/s1
