20
gdb 58682	2.08844	1.37424	1.17105	2.8853	77.49	-0.2546	-0.0403	0.2144	1196.6993	0.168772	-440.277134	-440.26726	-440.266316	-440.311619	36.521	
C	-0.5205750369	 1.4271140116	 0.1331966651	-0.421484
C	 0.0921209157	 0.0535946963	-0.1588278998	 0.063659
O	 0.9676707249	 0.0725101265	-1.2738759414	-0.443134
C	 0.8071483075	-0.5157144471	 1.0658608796	 0.214525
N	-0.0348154311	-1.032463548	 2.167103258	-0.362974
C	 0.7931497936	-1.9800683949	 1.4373317206	-0.044421
C	 0.1187979634	-3.0350028335	 0.5946618292	-0.403996
C	 2.0678978796	 0.1588526248	 1.4719401058	 0.115864
O	 2.6432346695	 1.0146208793	 0.8382264546	-0.286625
H	 0.2524285709	 2.152329896	 0.4041390205	 0.127425
H	-1.0372023797	 1.7927899025	-0.7580271578	 0.123103
H	-1.2405551031	 1.3591264418	 0.9544862638	 0.124504
H	-0.7154109454	-0.6314975121	-0.4309414273	 0.09099
H	 1.7002053705	 0.6544363965	-1.0300019821	 0.292814
H	 0.364924125	-0.8022395332	 3.0761179827	 0.235484
H	 1.6940376992	-2.3287697246	 1.9447587328	 0.092854
H	-0.8387691298	-2.68424078	 0.207028424	 0.13948
H	 0.7566390496	-3.320881794	-0.2468022052	 0.139167
H	-0.0717478002	-3.9268533276	 1.2006060286	 0.126257
H	 2.4727805669	-0.1926056504	 2.4520924384	 0.076506
78.9135	116.1561	134.6403	205.1916	215.6226	236.5644	258.4384	290.4415	361.4933	381.6617	463.6002	486.0903	525.7939	551.9535	567.7449	765.5214	800.6245	862.4646	915.9792	969.3963	1008.3967	1032.9589	1038.613	1060.7433	1097.3026	1116.6587	1130.2246	1141.0488	1237.5137	1250.3646	1315.3389	1356.6341	1371.3485	1398.9379	1408.6437	1429.9773	1443.2388	1457.2636	1488.4569	1494.0072	1500.3552	1504.8184	1792.6505	2840.0377	3043.2461	3045.9515	3075.1194	3092.4993	3110.6077	3119.9822	3124.9142	3145.6037	3465.2681	3755.5377
CC(O)C1(NC1C)C=O	C[C@@H](O)[C@]1(N[C@H]1C)C=O	
InChI=1S/C6H11NO2/c1-4-6(3-8,7-4)5(2)9/h3-5,7,9H,1-2H3	InChI=1S/C6H11NO2/c1-4-6(3-8,7-4)5(2)9/h3-5,7,9H,1-2H3/t4-,5+,6-/m0/s1
