19
gdb 93409	2.79018	1.3507	0.94719	5.7622	82.49	-0.2118	-0.019	0.1928	1230.1318	0.160825	-419.239941	-419.231271	-419.230327	-419.27302	33.765	
C	-0.0167416934	 1.5658425726	-0.0444392857	-0.427457
C	 0.0166513264	 0.0337362637	 0.023857853	-0.028329
N	 0.6652917682	-0.4723037553	-1.1795195137	-0.312302
C	 0.7677816061	-1.9272257638	-1.2245907681	-0.286641
C	 1.5521382955	-2.4583802034	-0.0249308073	 0.39927
O	 2.1496042813	-3.51967038	-0.0911993137	-0.364024
C	 1.4806308126	-1.6475554357	 1.175669001	-0.308245
C	 0.7479252362	-0.5075584073	 1.2446873935	 0.399376
N	 0.5345509985	 0.1589070487	 2.4233727578	-0.564475
H	 0.9955191161	 1.9792127732	-0.0295509941	 0.137654
H	-0.4940943091	 1.87882206	-0.9783744642	 0.123066
H	-0.606154655	 2.0037330005	 0.7669727885	 0.116493
H	-1.030911628	-0.3232298561	 0.1184483709	 0.081836
H	 0.1607769549	-0.1355028404	-1.9924661382	 0.219877
H	-0.2161315666	-2.437998373	-1.221570251	 0.095124
H	 1.2903202437	-2.2324702782	-2.1341968203	 0.123323
H	 2.0016158931	-2.0264354436	 2.0508248143	 0.078081
H	 1.0843638384	-0.1337331989	 3.2165739137	 0.260513
H	 0.351577351	 1.1479062769	 2.3889357035	 0.25686
70.4918	161.3288	210.9924	235.2818	327.6641	346.8781	375.2665	390.2379	440.5856	474.2784	517.4128	520.8277	589.6091	641.6769	681.7166	735.4288	806.3431	866.52	886.5914	962.7036	1006.934	1040.6161	1077.9396	1111.9499	1126.0446	1180.235	1243.102	1261.5027	1288.5714	1314.3049	1344.8118	1375.0397	1403.2902	1421.8485	1474.4531	1483.2147	1498.8845	1514.992	1635.1955	1676.9387	1759.5691	2870.4667	2904.4988	3039.0515	3099.4736	3101.9542	3123.3601	3164.0174	3522.3721	3588.2797	3699.1464
CC1NCC(=O)C=C1N	C[C@H]1NCC(=O)C=C1N	
InChI=1S/C6H10N2O/c1-4-6(7)2-5(9)3-8-4/h2,4,8H,3,7H2,1H3	InChI=1S/C6H10N2O/c1-4-6(7)2-5(9)3-8-4/h2,4,8H,3,7H2,1H3/t4-/m1/s1
