19
gdb 96883	3.55039	1.0343	0.91935	1.9167	78.64	-0.2504	0.0247	0.2751	1333.1632	0.159497	-419.173954	-419.165026	-419.164082	-419.208457	32.155	
C	 0.0576201287	 1.4856175936	 0.4113488572	-0.340762
N	-0.1997061617	 0.0546339712	 0.4909069183	-0.320842
C	 0.6535248679	-0.6962349783	 1.0057105658	 0.463446
C	 0.7715552145	-2.1815573764	 1.2560373183	-0.398775
C	 2.169681398	-1.8159264366	 1.8142589838	 0.089619
O	 1.9017583388	-0.398354317	 1.5587757414	-0.283942
C	 2.454529429	-2.0944150649	 3.2652285131	-0.006461
C	 3.1690694942	-1.0982851853	 4.0967596662	-0.238753
N	 1.7359145835	-1.3742605891	 4.3227789809	-0.320714
H	 1.0464516661	 1.7853128443	 0.7777054562	 0.124395
H	-0.0447665118	 1.807956879	-0.6303183639	 0.130136
H	-0.7070608085	 2.0194190853	 0.9864866644	 0.130085
H	 0.0695587317	-2.5724674525	 1.9954224167	 0.145622
H	 0.7509574632	-2.8064973624	 0.3622863737	 0.13749
H	 3.0010772216	-2.153477672	 1.1862023439	 0.099967
H	 2.6036070142	-3.1534898282	 3.4717377707	 0.099785
H	 3.8335938455	-1.4283670337	 4.8896103592	 0.121334
H	 3.4366124812	-0.1564759976	 3.626960518	 0.128952
H	 1.197769384	-0.6192578391	 3.9009570663	 0.239417
68.705	84.6604	93.715	162.7235	216.1418	252.0419	263.4744	415.7967	531.1366	554.7054	587.6763	691.7655	772.7177	854.4958	868.5491	934.8871	946.7902	957.7798	997.3861	1020.276	1049.1956	1082.4467	1101.741	1125.1119	1134.6869	1139.4379	1154.1439	1182.0417	1195.4549	1242.5038	1266.6903	1293.85	1308.5077	1374.1098	1422.8376	1440.197	1465.7026	1494.232	1497.9973	1506.4831	1854.3056	3017.8999	3052.7719	3084.4956	3085.238	3088.995	3116.3569	3120.6502	3141.917	3207.3712	3488.2614
CN=C1CC(O1)C1CN1	CN=C1C[C@@H](O1)[C@H]1CN1	
InChI=1S/C6H10N2O/c1-7-6-2-5(9-6)4-3-8-4/h4-5,8H,2-3H2,1H3	InChI=1S/C6H10N2O/c1-7-6-2-5(9-6)4-3-8-4/h4-5,8H,2-3H2,1H3/t4-,5-/m1/s1
