15
gdb 27964	3.67956	1.13715	0.86869	4.0824	79.04	-0.2359	-0.0606	0.1753	1239.1637	0.113808	-420.709916	-420.702462	-420.701518	-420.741892	28.529	
O	 0.0799207574	 1.368365639	-0.1215542646	-0.438334
C	 0.0661551139	 0.0102224929	-0.0331867055	 0.408295
C	 0.0438252592	-0.7141011224	-1.2248889539	-0.300119
C	 0.0290136074	-2.1077792618	-1.1908778837	 0.232233
C	 0.0053635252	-2.8590780172	-2.4675258493	 0.098335
O	-0.0089189603	-4.0641981673	-2.5580093805	-0.269305
C	 0.036327425	-2.7917943224	 0.0311799473	-0.207315
C	 0.058549377	-2.0655385623	 1.2122515817	-0.079241
C	 0.0734728295	-0.6701857379	 1.1859821632	-0.256075
H	 0.0947635187	 1.7457432418	 0.7642591523	 0.300024
H	 0.0382267285	-0.1799305304	-2.1697877866	 0.11253
H	 0.0013781757	-2.2156083212	-3.3763069029	 0.071493
H	 0.0244105053	-3.8748877857	 0.0239494776	 0.125219
H	 0.0645240514	-2.5777538694	 2.168564395	 0.108288
H	 0.090869546	-0.1077412258	 2.1161161699	 0.093972
110.243	199.4349	226.9911	257.6252	370.313	379.8511	446.894	456.8858	533.1526	580.9483	670.7814	701.192	793.6129	808.2301	895.7145	904.1419	951.9929	972.0477	1009.3312	1042.9542	1103.001	1162.5332	1184.7046	1211.1361	1313.8804	1327.3477	1366.5146	1427.1627	1506.0378	1517.3012	1628.11	1652.5481	1801.3257	2876.8355	3157.2932	3183.7232	3188.2989	3214.4322	3821.346
OC1=CC(C=O)=CC=C1	Oc1cc(C=O)ccc1	
InChI=1S/C7H6O2/c8-5-6-2-1-3-7(9)4-6/h1-5,9H	InChI=1S/C7H6O2/c8-5-6-2-1-3-7(9)4-6/h1-5,9H
