18
gdb 11113	6.21875	1.05712	0.97529	1.7142	74.85	-0.2518	0.0249	0.2767	1226.3434	0.152004	-347.756606	-347.747954	-347.74701	-347.790414	31.363	
C	 0.1064160961	 1.4695295793	-0.3652748067	-0.381756
C	 0.0284593985	-0.0446820973	-0.1503391586	-0.19039
C	 0.3942984889	-0.4482895595	 1.2668097005	 0.177098
C	 0.6456937737	-1.9430554961	 1.5562680467	-0.324984
C	 2.0779519983	-1.4886788259	 1.9480195864	-0.027815
O	 1.770926968	-0.1157911829	 1.5989350808	-0.300557
C	 2.461452082	-1.6610231629	 3.3408598986	 0.334419
C	 2.7744357426	-1.817058134	 4.491029242	-0.463568
H	 1.1107002872	 1.8350526763	-0.1333459237	 0.139066
H	-0.1246090432	 1.735226004	-1.4009293903	 0.111874
H	-0.6015458723	 1.9983134811	 0.2824085353	 0.114251
H	-0.9860472749	-0.4101980439	-0.3599159385	 0.096171
H	 0.7019768584	-0.5587421807	-0.847692449	 0.096811
H	-0.2890000352	 0.0301660145	 1.982716357	 0.078513
H	 0.0634554352	-2.381953965	 2.3655970156	 0.121518
H	 0.6071105755	-2.5911003065	 0.6787210357	 0.111941
H	 2.8705792204	-1.8823600947	 1.2992414593	 0.105897
H	 3.0562004307	-1.9495970355	 5.506405359	 0.201509
37.6654	104.7179	132.6378	205.3119	228.5822	244.1192	375.6939	429.5003	514.733	555.7429	618.1994	667.4124	736.1761	779.0645	798.4515	897.4046	937.4938	976.3148	984.835	996.3527	1041.0849	1094.5678	1112.4334	1128.1442	1201.4707	1252.8382	1256.1986	1282.9334	1313.6964	1342.9727	1364.7706	1406.232	1413.1732	1473.6632	1488.6845	1497.3411	1508.448	2233.6223	3000.4434	3015.9248	3020.3436	3036.9256	3056.0536	3083.8883	3103.8354	3119.6507	3148.9257	3503.2114
CCC1CC(O1)C#C	CC[C@H]1C[C@@H](O1)C#C	
InChI=1S/C7H10O/c1-3-6-5-7(4-2)8-6/h1,6-7H,4-5H2,2H3	InChI=1S/C7H10O/c1-3-6-5-7(4-2)8-6/h1,6-7H,4-5H2,2H3/t6-,7-/m0/s1
