25
gdb 64355	1.8381	1.72858	1.44976	1.3564	87.15	-0.2381	0.0692	0.3074	1145.8434	0.227711	-389.51426	-389.504102	-389.503157	-389.548128	40.132	
C	 0.2556534319	 1.5609321508	-0.280603188	-0.435106
C	-0.0261821917	 0.0737345339	 0.0068390293	 0.284201
C	-1.5418400423	-0.1482797932	 0.0676460043	-0.450029
C	 0.6558925335	-0.7919075927	-1.082972307	-0.27782
C	 2.089066507	-1.0016589682	-0.5483819099	-0.08175
O	 2.102179921	-0.5416561948	 0.801314448	-0.296285
C	 0.7535037597	-0.412430121	 1.2783037962	 0.362353
C	 0.7917994055	 0.579082085	 2.4406441443	-0.434897
C	 0.26700725	-1.7797108129	 1.7947886865	-0.435337
H	 1.328603873	 1.772076089	-0.2857601661	 0.126383
H	-0.148183566	 1.8334122396	-1.2614822439	 0.105309
H	-0.2149118501	 2.2153778814	 0.4593276959	 0.112057
H	-2.0160018758	 0.2035177717	-0.8550940912	 0.111821
H	-1.8012745268	-1.203296151	 0.1887860536	 0.11412
H	-1.9934431325	 0.409147916	 0.8963678383	 0.112155
H	 0.1375619175	-1.7483333707	-1.1981140697	 0.098143
H	 0.6440060806	-0.3007939839	-2.0596717166	 0.098003
H	 2.3880402378	-2.0578489479	-0.5976657763	 0.091511
H	 2.8344820848	-0.4219281364	-1.1044348559	 0.101048
H	 1.2846108629	 1.5091020102	 2.153336129	 0.122418
H	-0.2198961901	 0.8088615867	 2.7904444092	 0.110607
H	 1.3481199005	 0.149310166	 3.2787595472	 0.117994
H	 0.9900828809	-2.1577834631	 2.5229377694	 0.119883
H	-0.7062522874	-1.7029601376	 2.2883043329	 0.113035
H	 0.1818119663	-2.5194581469	 0.9936726103	 0.110183
90.7815	141.5219	208.8515	216.8323	254.1598	274.6556	288.3389	307.6299	340.303	365.8673	370.3201	384.7517	463.83	499.3316	568.4136	649.4063	702.6234	794.9125	851.176	881.4858	924.3789	938.9787	951.4541	961.7128	985.5281	1002.2256	1019.0403	1050.3866	1068.5465	1167.3162	1179.4091	1185.8856	1215.7232	1230.205	1241.9573	1279.351	1293.476	1329.6176	1385.0116	1393.4958	1399.0162	1410.3502	1423.6525	1474.6753	1482.7563	1486.0677	1490.0178	1501.7201	1503.439	1509.2963	1513.364	1521.5477	1534.944	3001.9045	3027.5992	3035.0989	3040.3937	3046.558	3047.9989	3058.1079	3087.0142	3095.6735	3100.5833	3106.5421	3110.0993	3114.3624	3115.4691	3118.2926	3138.3545
CC1(C)CCOC1(C)C	CC1(C)CCOC1(C)C	
InChI=1S/C8H16O/c1-7(2)5-6-9-8(7,3)4/h5-6H2,1-4H3	InChI=1S/C8H16O/c1-7(2)5-6-9-8(7,3)4/h5-6H2,1-4H3
