19
gdb 83819	2.17819	1.66342	1.37752	2.7817	76.36	-0.2346	-0.0005	0.2341	1044.4018	0.159844	-423.015164	-423.00685	-423.005905	-423.047551	33.032	
O	-0.0464506359	 1.4223678084	 0.129741759	-0.419412
C	-0.0066809407	 0.0348479259	 0.0091377937	 0.077251
C	-1.2981326488	-0.7782976909	-0.0222940685	-0.173811
C	-2.6252721244	-0.0249100408	-0.0073208102	-0.239806
C	-3.2431909473	 0.1744618807	-1.4050942446	-0.256782
C	-2.2194095585	 0.5193077154	-2.4615472064	-0.052346
C	-0.9435279278	 0.129438809	-2.39230634	-0.186672
C	-0.4128359215	-0.6654509871	-1.254882313	 0.32493
O	 0.4102770382	-1.7475637414	-1.6071815732	-0.467804
H	-0.3607280624	 1.7850782493	-0.7077959106	 0.283857
H	 0.8376917237	-0.395110693	 0.5382564729	 0.111521
H	-1.2584042052	-1.7336639462	 0.490886929	 0.088158
H	-3.337717507	-0.5461296514	 0.6387296376	 0.099936
H	-2.4569117091	 0.9599755385	 0.4444522224	 0.118479
H	-3.7704827596	-0.7372423025	-1.7249405349	 0.112656
H	-4.0114060974	 0.954696788	-1.3623859722	 0.106136
H	-2.5656652319	 1.0746522885	-3.3301908464	 0.096431
H	-0.2388712923	 0.3593171707	-3.1882536712	 0.098581
H	-0.1434111319	-2.403156711	-2.0472406034	 0.278697
105.0789	169.7027	239.9776	273.8366	300.3384	312.5205	364.4671	410.7158	467.7778	497.977	575.9326	594.94	661.2051	740.3151	782.3846	796.1712	885.6474	894.0508	951.288	969.0155	993.1913	1009.9287	1053.1213	1072.919	1103.5146	1127.0989	1188.6705	1191.8084	1223.7787	1268.6196	1278.2609	1315.0229	1324.1059	1357.2493	1372.7621	1381.4723	1422.1579	1456.3538	1478.4159	1493.2582	1701.7675	2994.814	3033.7712	3057.5039	3082.2661	3144.7493	3158.1141	3166.7957	3169.6602	3766.097	3782.7312
OC1C2CCC=CC12O	O[C@H]1[C@H]2CCC=C[C@@]12O	
InChI=1S/C7H10O2/c8-6-5-3-1-2-4-7(5,6)9/h2,4-6,8-9H,1,3H2	InChI=1S/C7H10O2/c8-6-5-3-1-2-4-7(5,6)9/h2,4-6,8-9H,1,3H2/t5-,6+,7+/m1/s1
