19
gdb 37178	3.82369	1.66074	1.51532	0.5117	78.52	-0.2104	0.0807	0.291	928.9094	0.162739	-381.951393	-381.945179	-381.944234	-381.981416	27.759	
C	-0.0357950458	 1.4665410113	 0.1892233065	-0.192659
C	 1.4981655721	 1.4955450828	-0.1218411943	-0.341951
C	 1.2551146232	 0.1322560469	-0.7854744935	 0.360114
C	 0.4025240159	 0.1476293147	-2.1004006133	-0.281515
C	-0.4526263859	-0.7908131215	-1.2324534663	-0.031943
C	 0.5148592413	-1.9983109792	-1.0181359664	-0.012853
N	 1.6569215668	-2.0811488747	-1.9641647889	-0.346895
C	 1.7976119113	-1.3007541518	-0.7150185657	-0.136336
N	-0.0217026723	-0.0382593525	 0.026500405	-0.144323
H	-0.3350560965	 1.7473113428	 1.2012034508	 0.105438
H	-0.638275597	 2.0392024786	-0.5231548447	 0.103723
H	 1.8780771522	 2.2987737361	-0.7560434723	 0.10431
H	 2.1006783017	 1.4276112466	 0.7875737429	 0.112756
H	-0.0670294406	 1.1132938425	-2.2755226656	 0.093638
H	 0.8411708632	-0.2404019163	-3.0170519042	 0.125248
H	-1.5071492078	-1.0132149865	-1.4035333053	 0.06426
H	 0.1827270015	-2.8806961071	-0.4854334722	 0.095804
H	 2.111229874	-2.9838590685	-1.8382902152	 0.230492
H	 2.4680699628	-1.6183636841	 0.0741285226	 0.09269
279.9244	309.0316	314.2049	458.1143	504.4798	540.8487	574.0605	649.7951	718.659	754.1017	790.3177	829.9331	841.2676	859.3323	868.6401	878.5423	912.3654	921.3992	933.0204	986.9808	1009.3296	1033.1331	1050.7078	1076.1189	1113.3749	1136.2839	1147.8761	1179.4634	1200.0344	1206.7648	1220.7441	1230.5179	1250.5907	1257.5162	1282.9522	1303.3153	1342.8237	1389.0884	1476.7325	1485.3435	1527.165	3045.2745	3066.2517	3097.3213	3100.2406	3115.0301	3126.8305	3170.311	3184.8126	3194.8158	3488.2066
C1CC23CC(C4NC24)N13	C1C[C@@]23C[C@@H]([C@H]4N[C@@H]24)N13	
InChI=1S/C7H10N2/c1-2-9-4-3-7(1,9)6-5(4)8-6/h4-6,8H,1-3H2	InChI=1S/C7H10N2/c1-2-9-4-3-7(1,9)6-5(4)8-6/h4-6,8H,1-3H2/t4-,5+,6+,7+/m0/s1
