19
gdb 87004	3.36986	0.88145	0.76843	5.6009	73.38	-0.259	0.0134	0.2724	1499.5592	0.157529	-460.171348	-460.161944	-460.161	-460.207003	33.073	
C	 0.5976548881	 1.1922683783	 0.5246511017	-0.39991
C	 0.1649176192	-0.209910548	 0.1542506092	 0.178115
C	 0.4668695323	-0.7384746876	-1.2672910557	-0.331371
C	 1.1923971059	-1.8835131049	-0.5331756094	 0.152758
C	 2.6567383632	-2.1043279642	-0.8558591652	-0.110394
O	 3.2273256958	-3.1001277005	-0.0031574218	-0.184087
C	 3.731383906	-2.6861394368	 1.1815798298	 0.181663
O	 4.181372732	-3.4484587674	 1.9818246748	-0.275613
O	 1.0135556325	-1.233182161	 0.7444017605	-0.31386
H	 1.6276586183	 1.3817463464	 0.2065819896	 0.116008
H	-0.0564315958	 1.9309396825	 0.0486029421	 0.121486
H	 0.5410414536	 1.3345381846	 1.6083087347	 0.13504
H	-0.8788936463	-0.3761553267	 0.4535580202	 0.0833
H	-0.3881861938	-1.0180752562	-1.8829520883	 0.11776
H	 1.131265918	-0.0887276757	-1.8441086708	 0.10893
H	 0.6655720305	-2.846487797	-0.5600076525	 0.093803
H	 2.7698355414	-2.4775797809	-1.8782185047	 0.126494
H	 3.2072379991	-1.1593194458	-0.7649087066	 0.111659
H	 3.6856613402	-1.589971689	 1.3081701922	 0.088219
44.5955	71.531	77.0075	141.3279	211.4291	247.5266	324.4495	359.8648	371.1359	422.2388	471.4275	665.0275	696.5263	826.1244	871.0767	912.6958	921.5174	948.415	1027.9008	1043.3406	1054.2117	1068.7988	1108.1181	1126.4548	1139.6346	1184.8118	1204.7469	1251.7454	1279.4554	1306.3635	1324.0525	1366.9065	1388.6321	1406.3993	1420.0777	1433.8165	1482.5148	1487.9793	1492.6592	1496.5366	1868.1722	2986.192	3008.7689	3020.2642	3032.2134	3034.0439	3066.1593	3096.797	3107.6237	3113.1876	3134.5362
CC1CC(COC=O)O1	C[C@H]1C[C@@H](COC=O)O1	
InChI=1S/C6H10O3/c1-5-2-6(9-5)3-8-4-7/h4-6H,2-3H2,1H3	InChI=1S/C6H10O3/c1-5-2-6(9-5)3-8-4-7/h4-6H,2-3H2,1H3/t5-,6-/m0/s1
