17
gdb 74113	2.66203	1.60634	1.06734	6.2724	77.88	-0.2194	-0.018	0.2014	1098.3167	0.137957	-418.024902	-418.01706	-418.016115	-418.057537	30.409	
N	 0.0505207489	 1.3848916147	 0.0672256361	-0.559266
C	-0.0194426961	 0.013753592	 0.0379568388	 0.3646
C	-1.1682115826	-0.679325579	 0.2051583222	-0.282422
C	-1.2599827504	-2.1168031446	-0.0381112551	 0.354246
O	-2.2976554924	-2.6919964239	-0.2928586284	-0.356237
N	-0.045423721	-2.8478882823	 0.0812780234	-0.111782
C	 0.7415790737	-3.1551278849	-1.105738228	-0.246288
C	 1.2356711896	-2.1779776933	-0.0854325206	-0.02678
C	 1.2736725337	-0.675637146	-0.3367394781	-0.33946
H	 0.9421801854	 1.8051148446	 0.2762687942	 0.254552
H	-0.741765268	 1.8822548177	 0.4438647433	 0.260686
H	-2.1084436595	-0.1690504328	 0.3869184264	 0.088617
H	 1.1613193432	-4.1562143915	-1.1573709077	 0.12334
H	 0.3898747069	-2.7568506355	-2.0555691124	 0.124593
H	 1.9912090978	-2.533793668	 0.6119902219	 0.100512
H	 1.4984274782	-0.4413981169	-1.3849243537	 0.137705
H	 2.0924870426	-0.2378611503	 0.2478397679	 0.113385
50.8282	159.9495	226.287	324.7822	377.4694	384.7184	433.5032	459.0602	495.8445	513.7374	559.0331	688.7708	735.6312	756.2757	858.2522	873.2273	907.6039	915.4762	937.6671	1020.9644	1078.7498	1100.1468	1117.9445	1129.2385	1168.4956	1222.1558	1226.9107	1272.113	1339.444	1361.9278	1405.3746	1420.6276	1477.1281	1512.2842	1644.7805	1690.5566	1775.9316	3022.286	3049.9704	3098.709	3120.7026	3183.5029	3186.4618	3580.6172	3690.9329
NC1=CC(=O)N2CC2C1	NC1=CC(=O)N2C[C@H]2C1	
InChI=1S/C6H8N2O/c7-4-1-5-3-8(5)6(9)2-4/h2,5H,1,3,7H2	InChI=1S/C6H8N2O/c7-4-1-5-3-8(5)6(9)2-4/h2,5H,1,3,7H2/t5-,8?/m1/s1
