21
gdb 100556	3.39207	0.9808	0.85121	3.8386	81.78	-0.2417	0.0169	0.2586	1439.9275	0.182452	-420.41149	-420.401302	-420.400358	-420.447855	35.828	
C	-0.0411841299	 1.6330155704	-0.047222809	-0.377514
C	-0.0064339839	 0.1023999388	-0.0571353259	-0.161766
N	 0.7513848361	-0.4486027678	-1.1806741166	-0.103052
C	 2.2021283962	-0.3400221839	-1.1358743798	-0.343571
C	 0.0702249768	-0.9990875406	-2.2288522275	 0.437801
O	-1.1499025815	-1.1268728957	-2.2330620105	-0.413014
C	 0.8655068257	-1.4653563985	-3.4223272232	-0.139212
C	 0.6213405065	-2.8765101013	-3.8574191144	-0.223493
N	 0.0822091656	-1.7607284426	-4.6268808815	-0.306028
H	 0.9640254903	 2.0626518931	 0.0155895337	 0.11518
H	-0.5204972257	 2.0127925056	-0.9541746697	 0.135193
H	-0.6108399165	 1.9905520314	 0.8162421642	 0.121563
H	 0.4376294873	-0.2724009734	 0.8736753132	 0.101026
H	-1.0167276275	-0.2990375306	-0.1366869161	 0.151534
H	 2.6758310035	-1.2164407674	-1.5817313303	 0.146432
H	 2.5811640655	 0.5582947681	-1.640551531	 0.132109
H	 2.5168869564	-0.2945491149	-0.0897336737	 0.13217
H	 1.8315544186	-1.0123902856	-3.6121020909	 0.098331
H	 1.4246791567	-3.4325179883	-4.3326341057	 0.119147
H	-0.0612892033	-3.4625905086	-3.2483450308	 0.128462
H	-0.8955890067	-1.6333921982	-4.3588793745	 0.248702
37.803	76.3129	76.9956	114.5309	170.1768	215.2966	259.9174	276.2179	349.8478	389.3815	410.8015	503.3085	618.4286	753.3119	768.3788	794.3043	846.2477	877.8198	920.213	986.0045	1012.831	1028.012	1087.5465	1105.5913	1118.3252	1139.8427	1144.3104	1174.6947	1187.2085	1264.46	1293.6426	1313.2951	1337.3245	1379.2781	1396.5068	1410.5381	1445.4457	1475.3953	1484.2417	1494.1015	1496.74	1498.2044	1504.9477	1525.0525	1727.9758	3014.7305	3027.5793	3037.7939	3089.1464	3102.4127	3110.2649	3117.2588	3126.7405	3141.2888	3174.9202	3202.6169	3451.6678
CCN(C)C(=O)C1CN1	CCN(C)C(=O)[C@H]1CN1	
InChI=1S/C6H12N2O/c1-3-8(2)6(9)5-4-7-5/h5,7H,3-4H2,1-2H3	InChI=1S/C6H12N2O/c1-3-8(2)6(9)5-4-7-5/h5,7H,3-4H2,1-2H3/t5-/m1/s1
