16
gdb 67998	2.94548	1.85285	1.3546	3.7861	69.64	-0.2364	0.0044	0.2408	945.1601	0.124843	-437.849816	-437.842827	-437.841883	-437.880961	27.933	
C	 0.0290808102	 1.4515954264	 0.0214693065	-0.485559
C	-0.0383796654	-0.0432138359	-0.0230107437	 0.400712
O	 0.89969406	-0.6295980953	-0.9234689406	-0.274891
C	 0.4531549935	-1.8845955275	-1.2658592312	 0.457519
N	 0.9387243058	-2.6337414155	-2.1541553447	-0.556017
C	-0.67887954	-2.2005067409	-0.3199425261	-0.028673
O	-0.0396149278	-2.2332782858	 1.0052484021	-0.291457
C	-0.4098996524	-0.8761970991	 1.1986109693	 0.032154
C	-1.3202779357	-0.8295520311	-0.0120661739	-0.231906
H	 1.0260609511	 1.7841176751	 0.3252485124	 0.142337
H	-0.195369153	 1.8813288215	-0.9596301007	 0.137107
H	-0.6957011802	 1.8415640574	 0.7421508486	 0.129457
H	 1.7332597421	-2.1848693037	-2.6141265151	 0.227033
H	-1.2623630965	-3.0916380783	-0.5324669207	 0.113796
H	-0.4905167516	-0.5037050394	 2.2137460913	 0.115654
H	-2.3264848302	-0.4790317679	-0.1976110234	 0.112734
152.6423	209.9867	250.604	274.8447	369.7302	426.9567	546.9714	581.5588	631.6701	718.0023	748.8371	804.7179	849.2904	866.912	882.2529	896.6305	910.1937	947.5691	963.3741	1034.4837	1041.1537	1073.8502	1096.2752	1127.0572	1179.0566	1202.2703	1219.6358	1275.5201	1284.7056	1327.5612	1406.7665	1429.178	1477.6737	1503.1257	1791.6324	3041.343	3111.7285	3118.0225	3171.2543	3179.7946	3205.5665	3469.4728
CC12OC(=N)C3OC1C23	C[C@@]12O[C]([NH])[C@H]3O[C@@H]1[C@@H]23	
InChI=1S/C6H7NO2/c1-6-2-3(5(7)9-6)8-4(2)6/h2-4,7H,1H3	InChI=1S/C6H7NO2/c1-6-2-3(5(7)9-6)8-4(2)6/h2-4,7H,1H3/t2-,3-,4+,6-/m0/s1
