21
gdb 84120	2.37752	1.65885	1.13955	1.7663	84.57	-0.2325	0.0235	0.256	1154.0177	0.183142	-387.095038	-387.086439	-387.085495	-387.128034	33.04	
C	 0.0918206093	 1.5977224199	 0.0552724395	-0.389616
C	 0.0439463061	 0.0654168675	-0.017067388	-0.046171
C	 0.7784001662	-0.5325334867	-1.199213208	-0.166971
C	 1.6232139425	-1.5168295458	-0.8787785338	 0.309763
C	 2.4837183678	-2.3163798001	-1.8069422243	-0.494961
C	 1.6429694708	-1.7510658629	 0.6132221062	-0.174784
C	 2.7656790629	-1.0137847437	 1.3803667031	-0.075163
O	 1.8780458819	 0.0765360573	 1.7009285823	-0.289528
C	 0.72866712	-0.6347517036	 1.1776446874	 0.109322
H	 1.1231222444	 1.943425408	 0.1518423379	 0.133706
H	-0.3447097677	 2.0395718412	-0.8461133168	 0.106468
H	-0.4717785956	 1.9692324897	 0.9173030596	 0.113058
H	-1.0132771073	-0.2404061873	-0.0473887791	 0.072765
H	 0.612106733	-0.1788677127	-2.2129907073	 0.083168
H	 2.3657692802	-1.9942545161	-2.8449674346	 0.124837
H	 3.5454990077	-2.2278925149	-1.5431096437	 0.125417
H	 2.2390833203	-3.385135228	-1.7520971757	 0.124108
H	 1.4654651178	-2.7902313528	 0.9039698584	 0.074176
H	 3.1172755861	-1.5278691697	 2.2850446971	 0.093849
H	 3.6311000527	-0.6840629623	 0.7928267148	 0.100076
H	 0.0347883111	-0.893958437	 1.9852632951	 0.066481
106.6425	144.1093	186.8243	212.7516	217.6957	250.8424	316.3884	386.104	499.7862	543.9831	578.6421	690.7089	794.0139	827.9322	854.4233	881.4222	896.6656	926.5323	970.6677	1006.1515	1017.3815	1028.7804	1045.4272	1059.0721	1089.0128	1106.5626	1141.8076	1166.1795	1179.0196	1226.5578	1253.3444	1284.0908	1307.4828	1332.9466	1339.8051	1360.7997	1369.1069	1404.1157	1413.7609	1479.2682	1488.995	1493.0222	1501.5878	1521.4119	1714.6481	2978.1812	3003.4176	3015.4429	3037.3012	3040.1617	3052.177	3060.1829	3071.4626	3100.9008	3110.949	3132.8098	3170.5983
CC1C=C(C)C2COC12	C[C@H]1C=C(C)[C@H]2CO[C@@H]12	
InChI=1S/C8H12O/c1-5-3-6(2)8-7(5)4-9-8/h3,6-8H,4H2,1-2H3	InChI=1S/C8H12O/c1-5-3-6(2)8-7(5)4-9-8/h3,6-8H,4H2,1-2H3/t6-,7+,8-/m0/s1
