18
gdb 51951	4.58068	0.68939	0.63078	3.6649	75.74	-0.2522	-0.0219	0.2303	1725.2025	0.145227	-439.092267	-439.082669	-439.081725	-439.128729	32.726	
O	-0.2543373741	 0.0540509498	-0.3099846093	-0.239442
C	 0.0933427794	 1.1635135856	 0.0004604978	 0.158851
C	 1.4017041776	 1.8083656696	-0.387602713	-0.266232
C	 1.1937570097	 3.1797489683	-1.0408087306	-0.322839
C	 2.46903535	 4.0167253727	-1.0405102833	 0.380037
O	 3.3751243114	 3.8440180966	-0.2561147051	-0.332668
N	 2.4485388892	 5.0781145724	-1.9428696655	-0.079557
C	 2.5387613524	 4.945674281	-3.3883590473	-0.235255
C	 3.643641047	 5.5685153582	-2.5871949428	-0.217036
H	-0.5622754732	 1.8134987548	 0.6294854246	 0.069519
H	 1.9939010203	 1.9612559587	 0.5245518375	 0.150844
H	 1.9570371695	 1.1263403058	-1.0365000645	 0.123726
H	 0.801637364	 3.0877581501	-2.0584399896	 0.126558
H	 0.443296913	 3.7574531493	-0.4825731306	 0.141901
H	 2.7159511102	 3.9536370768	-3.7974219599	 0.133783
H	 1.862260799	 5.567709206	-3.9677024624	 0.132729
H	 3.7702337749	 6.6469232765	-2.5937774038	 0.132132
H	 4.5523744496	 4.9929963277	-2.4348999621	 0.142949
41.2254	55.6913	75.8498	106.5022	155.4005	208.4229	256.3216	312.8431	413.0868	521.4249	601.9315	607.2426	761.6717	797.1335	823.6718	854.1547	935.7566	972.1094	1023.3656	1046.1095	1083.5859	1091.2274	1126.703	1134.0462	1142.7525	1173.1556	1178.1687	1194.5647	1252.7083	1308.4	1356.8202	1405.0038	1431.1214	1457.2481	1471.1962	1496.5827	1523.3943	1787.9332	1838.693	2840.1076	3022.7024	3036.499	3081.558	3106.8164	3111.6103	3119.9512	3192.8651	3211.9173
O=CCCC(=O)N1CC1	O=CCCC(=O)N1CC1	
InChI=1S/C6H9NO2/c8-5-1-2-6(9)7-3-4-7/h5H,1-4H2	InChI=1S/C6H9NO2/c8-5-1-2-6(9)7-3-4-7/h5H,1-4H2
