17
gdb 80706	2.10654	1.61238	1.45181	3.0032	68.34	-0.2383	-0.0158	0.2225	1010.5671	0.133507	-458.927568	-458.918747	-458.917803	-458.961139	32.681	
O	-0.1520220765	 1.4006385885	-0.0132596287	-0.415475
C	-0.1512892082	 0.0004127745	-0.0371906258	 0.019556
C	-0.4223576253	-0.8355573738	 1.1933401083	-0.174184
C	-1.3935248141	-0.0774700498	 2.1115937974	-0.265048
C	-2.4368577693	-0.0398407007	 0.9504920755	-0.149396
C	-2.9950474929	 1.2593915142	 0.4211632524	 0.152532
O	-3.3667411269	 1.387761057	-0.7190799512	-0.266023
C	-1.4342145369	-0.7581254343	 0.0366486202	 0.3724
O	-1.7829748297	-1.736719906	-0.8683969121	-0.461566
H	 0.6383551155	 1.6961840002	 0.4519339795	 0.29044
H	 0.5585188642	-0.4509545539	-0.7303373094	 0.099893
H	 0.2304467531	-1.6456745531	 1.494615361	 0.098481
H	-1.7311925443	-0.6642286369	 2.9667871762	 0.111402
H	-1.04174655	 0.8969976933	 2.4617391637	 0.099495
H	-3.2808141156	-0.7031156657	 1.1706685925	 0.117161
H	-3.0688367514	 2.0974440267	 1.1507786531	 0.073509
H	-2.1482962315	-1.2920493503	-1.6436311226	 0.29682
74.2598	112.8371	126.6662	238.3746	267.9155	310.3843	332.6458	349.2593	394.523	478.5395	555.6106	586.3647	704.0721	723.0518	805.8836	831.8762	914.3127	936.268	983.3908	1005.9033	1031.3574	1076.0037	1095.163	1135.0074	1148.6784	1174.3004	1216.5966	1233.9435	1284.078	1287.9068	1309.4792	1328.8254	1351.2471	1412.5934	1471.8593	1503.3405	1815.2092	2872.8382	3054.8454	3063.9312	3114.2123	3123.3654	3189.3189	3778.9356	3797.7879
OC1C2CC(C=O)C12O	O[C@H]1[C@H]2C[C@@H](C=O)[C@@]12O	
InChI=1S/C6H8O3/c7-2-3-1-4-5(8)6(3,4)9/h2-5,8-9H,1H2	InChI=1S/C6H8O3/c7-2-3-1-4-5(8)6(3,4)9/h2-5,8-9H,1H2/t3-,4+,5-,6-/m0/s1
