23
gdb 119275	1.79159	1.01063	0.72402	0.5919	82.02	-0.2617	0.0776	0.3394	1630.1053	0.203991	-425.400875	-425.390023	-425.389078	-425.437638	39.222	
O	-1.9907277205	 1.3860653736	-1.2186888759	-0.420879
C	-1.8626113784	-0.0251028883	-1.3266391777	-0.075124
C	-1.6809015427	-0.5763774903	 0.0848185398	-0.261248
C	-1.6235819573	-2.096365781	 0.1571953005	 0.374104
C	-0.4745211075	-2.7842804963	-0.5675951984	-0.261256
C	 0.9077825501	-2.4205965676	-0.0327079608	-0.075119
O	 1.8576432155	-3.2054166879	-0.7407206186	-0.420879
C	-2.1026326674	-2.7400806668	 1.4394165623	-0.313958
C	-2.9476288203	-2.8268901832	 0.1916039371	-0.313964
H	-2.0809167957	 1.7476904355	-2.1049633601	 0.284661
H	-2.7571527788	-0.4749916028	-1.7865318049	 0.087812
H	-1.001552648	-0.2939651532	-1.958078699	 0.087565
H	-0.7777670747	-0.1292362138	 0.5177888532	 0.103776
H	-2.5189698009	-0.2147784132	 0.6917743037	 0.101702
H	-0.5879260845	-3.8710022801	-0.4799454924	 0.101701
H	-0.4998521509	-2.5623651461	-1.6414491318	 0.103776
H	 1.1036768309	-1.3461689318	-0.1729008479	 0.087565
H	 0.9493094801	-2.620929243	 1.0499967943	 0.087811
H	 2.7354988063	-2.9665291028	-0.4297685467	 0.284661
H	-1.6001275602	-3.6413860772	 1.7752137225	 0.109351
H	-2.4418964175	-2.0967577926	 2.2444268875	 0.109295
H	-3.8565773398	-2.235355032	 0.1525969122	 0.10935
H	-3.0215749379	-3.7851388592	-0.3116821289	 0.109295
48.2197	84.5874	86.0865	128.955	176.5599	181.3138	263.3473	267.8105	311.2807	324.9174	355.1738	405.211	442.2499	525.0783	763.3447	779.6495	795.712	816.3698	894.8739	930.0215	958.9175	960.1336	1025.4066	1031.8511	1053.599	1059.9716	1076.1814	1079.9156	1101.5351	1107.8458	1187.0305	1217.0136	1218.3561	1241.3956	1247.1521	1296.6206	1297.9651	1322.8618	1328.2309	1357.6911	1389.7726	1460.1054	1460.5539	1468.8378	1489.9545	1494.0283	1506.4331	1526.7877	1530.5774	2968.6681	2969.2366	2994.5944	2995.7607	3029.9581	3031.3053	3068.2808	3072.1537	3124.3063	3129.0767	3201.8576	3216.2361	3831.2477	3831.3449
OCCC1(CCO)CC1	OCCC1(CCO)CC1	
InChI=1S/C7H14O2/c8-5-3-7(1-2-7)4-6-9/h8-9H,1-6H2	InChI=1S/C7H14O2/c8-5-3-7(1-2-7)4-6-9/h8-9H,1-6H2
