17
gdb 44573	2.87297	1.70991	1.50035	4.0125	71.02	-0.2374	-0.0143	0.2231	930.1519	0.137072	-421.828487	-421.8216	-421.820655	-421.859817	27.59	
O	-0.4872881247	 0.5641673121	 1.0816537448	-0.301334
C	-0.282254517	 1.4701332369	 0.330020332	 0.40936
C	-1.1606338956	 2.2982305053	-0.6269854884	-0.347763
C	 0.0256162968	 3.3065117382	-0.7460403426	-0.078257
C	-0.0363224898	 4.4720828791	 0.2208465958	 0.034262
O	-0.457252377	 4.0658501159	 1.5345874333	-0.253218
C	 0.9398014525	 4.2937849067	 1.3105632127	 0.055033
C	 1.7299436589	 3.0128347244	 1.1136628892	-0.26681
C	 0.9795164147	 2.2908154628	-0.0199161753	-0.136301
H	-1.3572424609	 1.7551678087	-1.5570700735	 0.126432
H	-2.1048102578	 2.6650670626	-0.2204100432	 0.138852
H	 0.2948439301	 3.6245031809	-1.7541610264	 0.077169
H	-0.3927755148	 5.4489927687	-0.0965616168	 0.097214
H	 1.365683864	 5.127385935	 1.8643285966	 0.098567
H	 2.7600528837	 3.2526907498	 0.82706779	 0.107843
H	 1.7689741631	 2.4080841449	 2.0253793772	 0.135806
H	 1.6375392238	 1.719277668	-0.6802469454	 0.103143
93.9974	196.8321	235.2441	363.9773	415.1472	500.1344	538.8842	612.6185	672.6224	733.2069	752.3601	816.7083	846.6351	867.983	880.9853	936.7624	943.87	994.2099	1019.1074	1029.9254	1059.0482	1074.1521	1093.9903	1126.497	1158.5439	1195.193	1218.2298	1237.2533	1256.6681	1264.5127	1315.1211	1331.196	1349.4565	1422.9707	1441.2639	1476.7777	1896.7709	3044.2413	3060.7898	3079.0853	3091.6742	3104.2483	3129.0303	3138.5943	3151.29
O=C1CC2C3OC3CC12	O=C1C[C@H]2[C@H]3O[C@H]3C[C@@H]12	
InChI=1S/C7H8O2/c8-5-1-4-3(5)2-6-7(4)9-6/h3-4,6-7H,1-2H2	InChI=1S/C7H8O2/c8-5-1-4-3(5)2-6-7(4)9-6/h3-4,6-7H,1-2H2/t3-,4-,6+,7-/m1/s1
