19
gdb 7507	2.98295	1.31044	1.03212	1.3928	81.74	-0.2296	0.0521	0.2816	1227.9288	0.163065	-327.888327	-327.878571	-327.877627	-327.923519	34.379	
C	 0.0810135049	 1.4920068765	 0.0157923663	-0.502259
C	 0.0385416168	 0.0368524379	 0.0071031428	 0.095736
C	-0.0026935524	-1.1671675084	 0.0167635437	 0.079047
C	-0.0107917428	-2.610682562	-0.0253687952	 0.082757
C	 1.1798428737	-3.2227988224	-0.745906853	-0.464349
N	-0.512897281	-3.2857888854	 1.2030071025	-0.356061
C	-1.3106582727	-3.3606231183	-0.0290749245	-0.019167
C	-2.6577125498	-2.6844447918	-0.0128482582	-0.402838
H	 1.0691596487	 1.862750375	-0.2786319992	 0.146854
H	-0.6525113899	 1.9188609939	-0.6774179812	 0.146371
H	-0.1365686171	 1.88820575	 1.0138845353	 0.150718
H	 2.1139701821	-2.96670035	-0.2353199084	 0.129899
H	 1.0924435929	-4.3139699171	-0.7818349101	 0.108853
H	 1.2483596898	-2.8506438998	-1.7727856571	 0.13135
H	 0.0110029084	-4.1475758298	 1.3404541526	 0.225746
H	-1.2805707032	-4.3027105171	-0.577108631	 0.078945
H	-2.5996460262	-1.7274588685	 0.5095394717	 0.137377
H	-3.0130250201	-2.50299932	-1.03293837	 0.113968
H	-3.3953604422	-3.3126000426	 0.4979139031	 0.117056
31.6314	89.5941	116.8517	177.0016	206.0908	230.6959	253.3314	306.9347	337.6137	396.2429	464.3342	536.3316	583.2057	599.7001	759.5068	837.3784	908.108	969.1285	1025.4194	1038.2737	1052.9209	1053.5186	1078.5796	1090.37	1132.8303	1149.0043	1240.9531	1279.8114	1368.6573	1406.2969	1413.0644	1415.5179	1447.7124	1477.7094	1478.8669	1480.9667	1487.7195	1493.0736	1502.7152	2368.3586	3025.5743	3029.5951	3036.6121	3085.0347	3087.3966	3097.2625	3097.9655	3102.0406	3105.7153	3136.6571	3487.3827
CC#CC1(C)NC1C	CC#C[C@@]1(C)N[C@H]1C	
InChI=1S/C7H11N/c1-4-5-7(3)6(2)8-7/h6,8H,1-3H3	InChI=1S/C7H11N/c1-4-5-7(3)6(2)8-7/h6,8H,1-3H3/t6-,7+/m0/s1
