17
gdb 5915	3.32414	1.37748	1.2423	3.0992	68.6	-0.2695	-0.0392	0.2303	1027.796	0.139274	-363.898446	-363.889284	-363.88834	-363.932277	32.353	
C	 0.1836224956	 1.6566767466	 0.2850642211	-0.429743
C	 0.0919123802	 0.132723497	 0.0668703375	 0.136837
C	 0.7736526881	-0.6112520585	 1.2331503099	-0.42973
C	-1.3756012355	-0.3247785147	-0.1142244577	-0.356052
C	-2.2014774385	-0.049618999	 1.0577838162	 0.267142
N	-2.837729707	 0.1766945671	 1.9959244429	-0.319883
C	 0.8588428402	-0.2003081655	-1.2069643839	 0.150023
O	 0.3921123726	-0.7291125985	-2.1817952956	-0.253182
H	 1.2275496512	 1.9795388468	 0.3499102637	 0.126358
H	-0.2924758772	 2.2073145787	-0.5325420109	 0.131439
H	-0.3135332068	 1.9344039292	 1.2188496994	 0.153383
H	 0.283502964	-0.3604016109	 2.1781784175	 0.153378
H	 0.7231457797	-1.6965731656	 1.0994452573	 0.131436
H	 1.8277039959	-0.3273039945	 1.3142466495	 0.126354
H	-1.8138863335	 0.1718598252	-0.9860191052	 0.161308
H	-1.4054995041	-1.3978108141	-0.3298241124	 0.16132
H	 1.9327787752	 0.0950310007	-1.1696514591	 0.08961
64.12	100.7669	135.8241	221.3406	231.0707	257.0644	314.8381	340.734	375.2115	388.7217	394.1434	534.7997	632.1401	753.46	894.1235	897.2713	948.3595	965.9333	969.2983	995.4496	1058.877	1145.5662	1219.3581	1252.7537	1280.4301	1345.1737	1399.3693	1408.1744	1428.5687	1453.6247	1484.5167	1487.555	1505.5498	1510.2784	1830.4185	2359.1554	2870.3723	3034.9712	3038.1285	3059.5416	3096.876	3106.4418	3108.858	3116.4878	3118.5294
CC(C)(CC#N)C=O	CC(C)(CC#N)C=O	
InChI=1S/C6H9NO/c1-6(2,5-8)3-4-7/h5H,3H2,1-2H3	InChI=1S/C6H9NO/c1-6(2,5-8)3-4-7/h5H,3H2,1-2H3
