17
gdb 106867	2.6745	1.24347	1.01386	1.6727	76.66	-0.2329	0.0097	0.2426	1199.0012	0.133738	-421.738239	-421.729401	-421.728457	-421.772	33.051	
O	 0.1705295611	 1.3838635926	 0.2012217103	-0.409362
C	 0.0733307564	 0.0019402302	-0.121132256	-0.169993
C	-1.3393436394	-0.4955077377	-0.0967656518	 0.156786
C	-2.0426415877	-0.9726221299	 1.158549846	-0.391472
C	-1.9043440345	-1.9162271267	-0.0082297536	 0.266307
O	-2.9236931984	-1.6384279995	-0.9783847323	-0.321629
C	-2.3873222742	-0.302387715	-1.1876078769	-0.129507
C	-1.2881162925	-3.1953770541	 0.0264200557	 0.245858
C	-0.766076298	-4.2788802699	 0.0590168006	-0.426829
H	-0.196859277	 1.5019527305	 1.0837360792	 0.284478
H	 0.4919811401	-0.0920779349	-1.1287210892	 0.11919
H	 0.6914837338	-0.6168234349	 0.5480247937	 0.098315
H	-1.3885482158	-1.1804606109	 1.9998418734	 0.127935
H	-3.0373861064	-0.6165492868	 1.4122780799	 0.124418
H	-3.1429001968	 0.4762900757	-1.0382560765	 0.111172
H	-1.9540392097	-0.2154845171	-2.1905121293	 0.116791
H	-0.3084607312	-5.2368637715	 0.084769907	 0.197543
69.0185	92.5349	157.9764	202.2104	287.9396	311.3159	365.4406	370.1908	435.2785	527.7131	538.7353	574.0927	626.901	692.6891	769.7604	783.9545	853.9273	931.2369	938.3912	970.6223	989.5252	1034.6523	1057.0302	1073.2155	1111.7596	1149.5947	1165.9674	1256.1973	1295.3439	1337.5209	1369.759	1399.9619	1427.4461	1479.0094	1498.1161	1518.3936	2233.7783	2984.1983	3029.8566	3072.8802	3082.4628	3115.2004	3212.1142	3501.2115	3808.8706
OCC12CC1(OC2)C#C	OC[C@]12C[C@]1(OC2)C#C	
InChI=1S/C7H8O2/c1-2-7-3-6(7,4-8)5-9-7/h1,8H,3-5H2	InChI=1S/C7H8O2/c1-2-7-3-6(7,4-8)5-9-7/h1,8H,3-5H2/t6-,7+/m0/s1
