14
gdb 16259	3.29243	1.99255	1.42331	3.2638	70.57	-0.2435	-0.0168	0.2267	863.9622	0.10583	-345.362057	-345.35492	-345.353976	-345.393316	27.206	
O	-0.0372816874	 0.0324562716	-0.0685455441	-0.293245
C	-0.0187082942	 1.220518591	 0.0535049084	 0.345389
C	-1.1345288785	 2.292037778	 0.1752302924	-0.353508
C	-0.0507679371	 3.3584234191	-0.0236916881	-0.102596
C	 0.9470049551	 3.2586149588	 1.0646820269	-0.31025
C	 1.0721170084	 2.2612696764	-0.0999677118	 0.089684
C	 2.2418685379	 2.1650740103	-0.8982724028	 0.180281
C	 3.2245016963	 2.0625538755	-1.5851404651	-0.411587
H	-1.8283613075	 2.1917053643	-0.6640778863	 0.140389
H	-1.7026926299	 2.3349585238	 1.1090050375	 0.126077
H	-0.1237550507	 4.2121749382	-0.683086926	 0.123072
H	 1.7444993358	 3.9932625476	 1.073266626	 0.143665
H	 0.6561241884	 2.895267611	 2.0466798764	 0.129636
H	 4.0901016532	 1.9670718445	-2.1925333734	 0.192994
115.6416	141.4422	190.8185	371.686	398.0102	469.6483	502.173	579.8964	587.2566	641.4077	651.8739	662.3442	782.1918	832.5672	871.9267	943.3484	977.8934	1011.728	1023.7481	1062.1813	1092.3092	1140.482	1206.4059	1246.0862	1283.8587	1360.3778	1456.9709	1494.439	1889.05	2234.7639	3058.5011	3113.7879	3120.9394	3213.2106	3222.6074	3502.5405
O=C1CC2CC12C#C	O=C1C[C@H]2C[C@@]12C#C	
InChI=1S/C7H6O/c1-2-7-4-5(7)3-6(7)8/h1,5H,3-4H2	InChI=1S/C7H6O/c1-2-7-4-5(7)3-6(7)8/h1,5H,3-4H2/t5-,7+/m0/s1
