17
gdb 39148	3.05567	2.00604	1.40521	0.2381	73.42	-0.2286	-0.0321	0.1965	904.8127	0.138271	-421.766486	-421.759962	-421.759018	-421.797289	26.327	
C	-0.0793207581	 1.5755021715	 0.0643953786	-0.28115
C	 1.5098655419	 1.7016578357	 0.0276486576	 0.081243
O	 2.2166469836	 2.2243426895	 1.1448916667	-0.279407
C	 2.4141813632	 1.1642537603	 2.1134874633	-0.14098
C	 1.7403707692	-0.0439981995	 1.5014056155	 0.075409
C	 1.4701484406	 0.2197832744	 0.2179514458	 0.012305
C	 0.0117596912	-0.014777857	-0.00970578	 0.081243
O	-0.4343376329	-0.8129918579	 1.0787902383	-0.279407
C	 0.6216065822	-0.8895609232	 2.068792367	-0.14098
H	-0.4844583628	 1.9082794702	 1.0214380033	 0.124181
H	-0.6041678635	 2.0517018474	-0.7679166216	 0.108038
H	 1.8957617489	 2.1731768608	-0.8779040858	 0.093611
H	 3.4910093781	 1.0582555523	 2.2977774441	 0.117565
H	 1.9386131438	 1.4340105778	 3.0678045429	 0.108577
H	-0.383514007	-0.4382739739	-0.9347363571	 0.093611
H	 0.868482093	-1.9464636803	 2.2323954995	 0.117565
H	 0.2694115187	-0.4784436581	 3.0261829118	 0.108576
158.0562	163.1143	319.9706	361.7788	389.0383	536.1252	626.7264	686.1053	691.7004	757.229	808.6227	836.3587	889.7482	906.1158	936.1671	955.2644	985.4746	995.2124	1023.1899	1088.8394	1104.8667	1104.8823	1120.0141	1129.3902	1176.6066	1204.1947	1224.3489	1234.4918	1266.4054	1328.6848	1347.5893	1371.2882	1383.3498	1445.8608	1512.0081	1522.7503	1646.2546	2994.217	3001.1157	3029.2182	3031.447	3060.9648	3095.2318	3098.1726	3145.9545
C1C2OCC3=C2C1OC3	C1[C@H]2OC[C]3[C]2[C@H]1OC3	
InChI=1S/C7H8O2/c1-5-7-4(2-8-5)3-9-6(1)7/h5-6H,1-3H2	InChI=1S/C7H8O2/c1-5-7-4(2-8-5)3-9-6(1)7/h5-6H,1-3H2/t5-,6+
