21
gdb 38946	2.96444	1.82624	1.55398	1.4758	80.65	-0.2314	0.0839	0.3154	955.6591	0.187462	-387.092294	-387.085752	-387.084808	-387.122746	28.521	
C	-0.1054592627	 1.5870540842	 0.0640102685	-0.243954
C	 1.432442161	 1.4285857091	-0.0080574313	 0.087887
O	 1.7336578824	 0.8008499276	 1.2496937013	-0.292827
C	 0.7737399811	-0.2933460189	 1.2657232522	 0.116302
C	 1.5188949741	-1.6298544825	 1.1876980269	-0.224073
C	 2.6487066213	-1.5393444969	 0.1496610244	-0.188046
C	 2.1720431004	-0.912123781	-1.1742306369	-0.245473
C	 1.1876044368	 0.2405930869	-0.9912084824	 0.016349
C	-0.0182162284	 0.036390332	-0.0139162142	-0.072904
H	-0.5033516681	 2.0416982402	 0.9744193739	 0.096645
H	-0.551606083	 2.0306906868	-0.8278824962	 0.097031
H	 2.1313646285	 2.2445208198	-0.1896260342	 0.072939
H	 0.1648597009	-0.2186477057	 2.1737486257	 0.067356
H	 1.9331191872	-1.8911753712	 2.1673382894	 0.098625
H	 0.7991029075	-2.4179507368	 0.9277494876	 0.090413
H	 3.4462485661	-0.9238080936	 0.5730654066	 0.116016
H	 3.0736976134	-2.5311017945	-0.0380776853	 0.084602
H	 3.03614215	-0.5828882872	-1.7642054265	 0.095456
H	 1.6661221525	-1.6759362952	-1.7813854007	 0.094212
H	 0.8423292309	 0.6185500042	-1.9574982075	 0.06903
H	-0.8700973418	-0.6016837472	-0.2499879315	 0.064415
212.2318	243.2583	334.6878	355.7999	445.1776	483.0613	586.8277	652.9095	692.3719	768.8586	810.1389	835.9735	851.7496	864.736	880.6231	893.3694	929.4095	960.8416	990.9005	1003.5345	1014.6163	1051.2636	1068.3743	1076.6582	1086.3834	1118.7246	1125.3028	1159.3942	1206.1067	1211.8747	1234.782	1250.0571	1275.6453	1279.8319	1304.047	1344.7663	1353.6874	1360.6033	1369.6081	1394.5868	1406.7156	1479.3973	1481.5694	1492.5416	1497.365	3007.7281	3018.906	3038.9074	3044.5399	3051.8302	3064.5011	3068.6197	3073.0788	3101.2598	3114.9278	3128.0593	3133.5775
C1C2OC3CCCC2C13	C1[C@H]2O[C@@H]3CCC[C@H]2[C@H]13	
InChI=1S/C8H12O/c1-2-5-6-4-8(5)9-7(6)3-1/h5-8H,1-4H2	InChI=1S/C8H12O/c1-2-5-6-4-8(5)9-7(6)3-1/h5-8H,1-4H2/t5-,6-,7+,8+/m0/s1
