22
gdb 99736	1.96952	1.34084	0.87963	5.9524	78.51	-0.2475	0.0269	0.2744	1381.3976	0.193941	-441.527698	-441.51752	-441.516576	-441.562747	37.986	
C	 0.1379046661	 1.4926198972	-0.2785139724	-0.413888
C	 0.0576538284	-0.0165527979	 0.0007235704	 0.052761
C	 0.7185754717	-0.3238250828	 1.3549256759	-0.39701
C	-1.3840449259	-0.5858476659	-0.0330197377	-0.138737
C	-2.3005464261	 0.0146409494	-1.1249319814	-0.205915
N	-3.7037869083	-0.3964479611	-0.8965509149	-0.52316
H	-3.2420163291	-2.0064347799	-0.4266640326	 0.311162
H	-4.1127331938	 0.1501609037	-0.1442991888	 0.245721
H	-4.2683700698	-0.2350491025	-1.7237694476	 0.24941
C	-1.363087264	-2.1318397397	-0.1387128504	 0.420508
O	-2.5603746464	-2.713565645	-0.269951675	-0.38209
O	-0.3510513027	-2.7855443803	-0.1026920793	-0.332789
H	 1.165182202	 1.8402626954	-0.1307934987	 0.115853
H	-0.1461629256	 1.7540541231	-1.3019790966	 0.111425
H	-0.4995728441	 2.0648197249	 0.4072513945	 0.106317
H	 0.6276747823	-0.543390852	-0.7729104554	 0.095147
H	 0.206957092	 0.2105906892	 2.1658203096	 0.098274
H	 0.6973400398	-1.3924405619	 1.5695983625	 0.147781
H	 1.7632675954	 0.0035770352	 1.3541853242	 0.107521
H	-1.8624706446	-0.3504071189	 0.9317547195	 0.090528
H	-2.1980363851	 1.1037240117	-1.1421661797	 0.112783
H	-2.0014997421	-0.3555705618	-2.1119163361	 0.1284
64.86	92.0948	136.0412	212.4503	227.9332	266.0402	279.2583	299.6335	328.9998	356.6357	388.8455	421.8828	449.1176	525.3778	615.8667	733.2767	800.2583	868.2358	895.1558	927.6425	940.1744	965.3387	985.893	1009.2914	1046.951	1067.3193	1115.4024	1142.2054	1188.3739	1196.1536	1230.609	1287.434	1326.8494	1337.4246	1350.9686	1384.1761	1395.8799	1413.3321	1419.2886	1486.7459	1496.8406	1501.1691	1503.0741	1515.2231	1521.3514	1647.9867	1839.8843	2977.4738	3021.9595	3025.4641	3042.6046	3047.7194	3085.4357	3086.1392	3095.0488	3103.8405	3151.4075	3204.5751	3500.5141	3582.983
CC(C)C(C[NH3+])C([O-])=O	CC(C)[C@@H](CN)C(=O)O	
InChI=1S/C6H13NO2/c1-4(2)5(3-7)6(8)9/h4-5H,3,7H2,1-2H3,(H,8,9)	InChI=1S/C6H13NO2/c1-4(2)5(3-7)6(8)9/h4-5H,3,7H2,1-2H3,(H,8,9)/t5-/m1/s1
