20
gdb 112037	2.45396	1.35306	1.10515	2.5118	74.72	-0.2471	0.0157	0.2628	1185.4256	0.170513	-440.306789	-440.297528	-440.296584	-440.341319	34.709	
C	-0.2592732874	 1.5940817516	-0.0703649649	-0.427518
C	-0.0307513506	 0.0879351499	 0.0332935708	 0.341159
C	-1.2991909986	-0.6975040567	-0.2867659676	-0.423092
O	 0.9704012748	-0.2604018437	-0.9909529549	-0.250188
C	 1.9945181342	-0.836683561	-0.3370252727	 0.109879
N	 1.9459106864	-0.9878225064	 0.9209134927	-0.297144
C	 0.652437119	-0.417908821	 1.3506879097	-0.044955
C	 0.9246355254	 0.5961783945	 2.4685774515	-0.06284
O	 1.5684994133	-0.0401863476	 3.5511431898	-0.425433
H	 0.6685627615	 2.1509234097	 0.0779725924	 0.130669
H	-0.6503313239	 1.8428333339	-1.060923178	 0.12675
H	-0.9870313744	 1.9275101389	 0.6754636324	 0.125954
H	-1.6899873873	-0.4251766146	-1.2713833308	 0.125498
H	-1.0986295859	-1.7725551948	-0.2772857556	 0.129655
H	-2.0700650513	-0.4866374977	 0.4617268903	 0.124478
H	 2.8208075327	-1.140199591	-0.9716863394	 0.140891
H	 0.0561186149	-1.2239327267	 1.7959349081	 0.092237
H	 1.5280841583	 1.4301849974	 2.077807088	 0.085793
H	-0.0134052852	 1.0112690095	 2.8531599741	 0.103195
H	 2.2875154541	-0.5535193041	 3.1596902244	 0.295011
27.73	122.4473	194.1886	229.1025	254.2243	285.0734	310.6811	328.599	341.3359	470.8548	484.411	507.9715	585.8023	625.3009	783.2576	839.8543	866.9543	933.5491	940.1888	970.5934	989.0907	1013.6541	1056.5473	1083.8589	1096.7233	1141.8102	1203.7694	1216.6905	1226.6172	1262.8632	1321.3535	1334.7446	1339.8669	1392.871	1404.4914	1421.	1443.3884	1476.9203	1486.169	1495.4928	1505.6555	1509.5561	1704.3544	2980.184	3028.4029	3038.699	3048.3526	3068.8047	3111.3923	3117.8739	3121.0082	3130.19	3205.5851	3766.6245
CC1(C)OC=NC1CO	CC1(C)OC=N[C@H]1CO	
InChI=1S/C6H11NO2/c1-6(2)5(3-8)7-4-9-6/h4-5,8H,3H2,1-2H3	InChI=1S/C6H11NO2/c1-6(2)5(3-8)7-4-9-6/h4-5,8H,3H2,1-2H3/t5-/m0/s1
