20
gdb 88534	3.41598	1.18739	1.07791	2.1249	79.18	-0.2298	0.0808	0.3106	1198.4729	0.17134	-403.045367	-403.037179	-403.036234	-403.078798	31.436	
C	 0.2490964678	 1.3614354747	-0.5320169996	-0.43441
C	-0.0968484652	 0.0227640582	 0.0671921907	 0.086506
O	 0.956477933	-0.937535885	 0.1898429325	-0.262541
C	 0.3327745652	-0.4619308311	 1.3927310363	-0.131002
C	 1.1926749553	 0.2651010406	 2.3748637092	 0.337987
C	 0.7649171388	 0.9766978534	 3.683471619	-0.210288
N	 2.2959083373	 1.12650765	 3.7314173697	-0.152049
C	 2.3118833133	-0.339003117	 3.2629229472	-0.200526
C	 2.1719712438	 1.457598872	 2.2357648376	-0.221578
H	 1.2161797448	 1.7221113642	-0.1802411337	 0.139419
H	 0.2952023129	 1.2796730475	-1.6230886222	 0.130324
H	-0.5177411727	 2.1040164345	-0.2860553536	 0.122551
H	-1.0278411708	-0.4068859077	-0.3112732303	 0.087992
H	-0.3121108545	-1.2072284485	 1.8677010772	 0.084335
H	 0.234973121	 1.930061196	 3.6018192774	 0.100852
H	 0.3615561135	 0.365055918	 4.4955440219	 0.101565
H	 2.0240617425	-1.0493932701	 4.043193311	 0.100157
H	 3.2446377107	-0.6346592295	 2.776273352	 0.109317
H	 3.0959034726	 1.2990080756	 1.6737602676	 0.10989
H	 1.7541967409	 2.4506504842	 2.0495179803	 0.101501
41.7451	124.9873	167.1604	204.2498	267.553	382.8885	402.5897	505.2345	582.0039	601.074	679.2083	775.6035	797.3335	805.909	846.6415	909.6648	941.2981	970.3031	976.5908	983.0414	997.9903	1026.9254	1044.1223	1086.573	1147.4917	1157.1179	1164.7066	1168.6358	1172.1237	1174.3437	1198.4763	1202.7961	1266.5809	1294.7774	1335.7893	1398.408	1420.7784	1467.3147	1491.027	1505.8337	1510.9078	1512.7382	1566.5364	3040.7628	3044.7404	3048.9353	3056.4166	3060.4788	3078.3242	3098.976	3111.817	3119.4963	3122.4874	3150.2073
CC1OC1C12CN(C1)C2	C[C@H]1O[C@H]1[C@@]12CN(C1)C2	
InChI=1S/C7H11NO/c1-5-6(9-5)7-2-8(3-7)4-7/h5-6H,2-4H2,1H3	InChI=1S/C7H11NO/c1-5-6(9-5)7-2-8(3-7)4-7/h5-6H,2-4H2,1H3/t5-,6-/m1/s1
