18
gdb 67718	3.77404	1.79504	1.56821	1.9091	80.77	-0.2051	-0.0292	0.1759	900.4995	0.148857	-364.702998	-364.6964	-364.695455	-364.733406	28.056	
C	-0.0731765085	 1.4685941313	 0.0694899273	-0.492257
C	-0.0521101602	-0.035522257	 0.0150777967	 0.318583
C	-1.2046327543	-0.8844899167	-0.3514748584	-0.166191
C	-0.7443548558	-2.1391217434	-0.5553224285	 0.000252
C	-0.8011640458	-3.0578690405	 0.6741469866	-0.275951
C	 0.6099688875	-2.3745201882	 0.9415566419	-0.047198
C	 0.7596748833	-0.823108818	 1.0621736105	-0.110326
N	 1.236024826	-0.67159653	-0.3570195414	-0.183028
C	 0.7913982796	-2.0942512092	-0.563607628	-0.009735
H	 0.8494977368	 1.8582338371	 0.5068259074	 0.129375
H	-0.1696176507	 1.8836069762	-0.9387466182	 0.131978
H	-0.9175825072	 1.8247679256	 0.6686953917	 0.119171
H	-2.1881211317	-0.6651780053	 0.0538812287	 0.098234
H	-1.6227186551	-2.8953596603	 1.3742149538	 0.108908
H	-0.6506704778	-4.1305116066	 0.5090360684	 0.10775
H	 1.3520927497	-2.9327695561	 1.5162328698	 0.09171
H	 1.2573932983	-0.3082326017	 1.8772440712	 0.098349
H	 1.3750286558	-2.7023759573	-1.2516407995	 0.080375
186.795	229.1311	293.7653	377.6646	462.4087	523.1067	571.5788	656.6338	697.8719	725.7147	729.816	811.8291	819.3161	839.7971	863.0372	903.9956	921.5649	929.1673	975.7315	984.0393	1006.7433	1030.1099	1038.8216	1067.5932	1098.8984	1129.2321	1187.0814	1193.665	1208.8284	1229.3588	1264.8981	1272.5351	1301.6523	1359.4902	1418.7166	1484.7836	1492.6233	1493.0576	1577.2295	3038.7595	3039.8158	3092.2433	3104.1988	3117.5676	3121.5245	3130.1421	3168.1442	3169.94
CC12C=C3CC4C1N2C34	C[C@]12[CH][C]3C[C@@H]4[C@H]1N2[C@H]34	
InChI=1S/C8H9N/c1-8-3-4-2-5-6(4)9(8)7(5)8/h3,5-7H,2H2,1H3	InChI=1S/C8H9N/c1-8-3-4-2-5-6(4)9(8)7(5)8/h3,5-7H,2H2,1H3/t5-,6+,7+,8-,9?/m0/s1
