20
gdb 90324	2.52489	1.67618	1.21615	3.8307	78.83	-0.2441	0.0249	0.269	1086.5068	0.171897	-403.134245	-403.125986	-403.125042	-403.166827	32.236	
C	-1.0866822531	 0.9610825318	-0.0154553816	-0.395675
C	-0.2980392949	-0.3276355631	-0.0203736899	 0.081434
O	 0.9790751344	-0.1661699325	-0.7904363137	-0.290545
C	 1.6648233616	-0.3653446193	 0.3705609349	 0.445718
N	 2.7646326714	 0.0161911006	 0.8564000719	-0.317818
C	 2.5628230127	-0.226597713	 2.3171851935	-0.167411
C	 0.9960931425	-0.2342015976	 2.5797705069	-0.040242
C	 0.4927258411	 1.1652077488	 2.9408490266	-0.399553
C	 0.539929683	-0.8249116517	 1.2193481433	-0.176357
H	-0.4974052258	 1.7950220214	 0.3685988291	 0.139013
H	-1.4016804973	 1.2047869945	-1.0344142177	 0.134951
H	-1.9838213343	 0.8494032448	 0.6019652991	 0.126465
H	-0.8721179875	-1.1397456893	-0.4737455378	 0.100336
H	 3.0234846321	-1.1765524797	 2.6185142518	 0.10367
H	 3.0584437912	 0.5697847523	 2.8808801467	 0.109733
H	 0.7464362514	-0.9184973495	 3.3962383363	 0.075072
H	 0.8152381627	 1.9107794786	 2.2077195075	 0.133903
H	-0.5984730083	 1.2009094968	 3.0115901162	 0.113983
H	 0.8995666004	 1.4661478293	 3.9116993356	 0.11852
H	 0.4604776968	-1.9137398331	 1.2854020512	 0.104805
82.0789	181.1731	229.9311	235.6455	272.4223	297.6404	349.7356	421.6317	463.1142	544.3236	668.4248	692.9003	726.6655	766.1154	809.9338	815.0743	925.6469	932.5642	952.1374	1004.1919	1034.0495	1048.2128	1069.2818	1093.4724	1134.0991	1154.0938	1179.5337	1215.3591	1232.4977	1257.0032	1304.1029	1321.1954	1348.7267	1371.9827	1385.3595	1409.6979	1414.1063	1477.1868	1488.9763	1494.9067	1501.2154	1511.0918	1777.1803	3019.362	3036.637	3047.3644	3053.6222	3066.4848	3079.4737	3081.1813	3102.6357	3112.1942	3114.0271	3146.5099
CC1OC2=NCC(C)C12	C[C@H]1O[C]2[N]C[C@@H](C)[C@@H]12	
InChI=1S/C7H11NO/c1-4-3-8-7-6(4)5(2)9-7/h4-6H,3H2,1-2H3	InChI=1S/C7H11NO/c1-4-3-8-7-6(4)5(2)9-7/h4-6H,3H2,1-2H3/t4-,5-,6+/m1/s1
