22
gdb 72902	2.60905	1.74084	1.38208	1.5451	83.78	-0.2221	0.0804	0.3025	1043.1148	0.196605	-367.185995	-367.178241	-367.177297	-367.217654	32.236	
C	-0.3238692393	 1.4220211494	 0.1048864747	-0.47136
C	 0.0732083844	-0.0430154255	-0.0405873566	 0.361556
C	-1.1019349415	-1.0320385743	 0.2647242908	-0.285403
C	-0.393102934	-1.4696974147	 1.5776255338	-0.22844
C	 0.8710331542	-0.6598760935	 1.1619593438	-0.059591
C	 2.0305852399	-1.4073255986	 0.5270349999	-0.031868
C	 1.7507269878	-2.4868237183	-0.4562443179	-0.254703
N	 2.1048259345	-1.1448597571	-0.9316508718	-0.096517
C	 0.9453214383	-0.3037535136	-1.2947407415	-0.242717
H	 0.5582010378	 2.0720809698	 0.1202528984	 0.116017
H	-0.961265479	 1.7413847971	-0.7283839755	 0.115867
H	-0.8843659293	 1.5922338806	 1.0307490946	 0.111945
H	-2.0771740875	-0.5546959792	 0.3948014757	 0.09388
H	-1.2187660985	-1.8293708979	-0.474164007	 0.098225
H	-0.8759835894	-1.0721539709	 2.4735903438	 0.100084
H	-0.2431594743	-2.5422298698	 1.7191249456	 0.100708
H	 1.2377306363	 0.048538256	 1.9095335789	 0.062749
H	 2.9811706709	-1.4128866485	 1.0537271883	 0.08608
H	 2.5008517267	-3.2493192328	-0.6501870365	 0.111545
H	 0.7279135487	-2.8341832542	-0.5754135564	 0.109942
H	 0.3796781368	-0.7711024622	-2.1091060827	 0.101161
H	 1.3434417963	 0.6430093881	-1.6771783425	 0.100839
127.2246	224.7085	244.3497	257.4745	339.4771	350.3315	395.5721	456.8961	594.8013	630.8026	684.4486	733.9029	762.8282	808.7963	859.0984	864.777	884.0666	940.501	953.1735	958.5485	974.782	984.307	1015.4639	1056.8034	1105.2486	1109.2363	1122.2336	1145.4912	1169.6716	1178.4184	1210.7081	1222.0749	1253.1439	1260.4349	1272.7612	1281.471	1285.7028	1335.6708	1353.2774	1389.1754	1410.9175	1480.3045	1491.1605	1493.5652	1495.6832	1499.5154	1516.1409	3018.3429	3028.4041	3052.2165	3060.6434	3066.7084	3069.6822	3084.6075	3091.1763	3095.5973	3105.0704	3117.6924	3138.9475	3185.5173
CC12CCC1C1CN1C2	C[C@]12CC[C@H]1[C@H]1CN1C2	
InChI=1S/C8H13N/c1-8-3-2-6(8)7-4-9(7)5-8/h6-7H,2-5H2,1H3	InChI=1S/C8H13N/c1-8-3-2-6(8)7-4-9(7)5-8/h6-7H,2-5H2,1H3/t6-,7+,8+,9?/m0/s1
