22
gdb 117557	2.06172	1.12585	0.76265	1.184	89.37	-0.236	0.0469	0.2829	1549.0965	0.191776	-367.147501	-367.137147	-367.136203	-367.18323	37.977	
C	-0.0126315272	 1.5371763719	-0.0389009196	-0.385484
C	-0.015646156	 0.0061887264	 0.0057714597	-0.177301
C	 0.6971438578	-0.5399491252	 1.246820195	-0.16187
C	 0.7864427714	-2.0789949806	 1.3092831874	-0.194209
C	 1.5824472052	-2.4969414649	 2.4656972875	 0.355572
C	 2.2458156181	-2.825610493	 3.4122295076	-0.439491
N	-0.5593898318	-2.6702322547	 1.3951258601	-0.06365
C	-1.1391265967	-3.155414108	 0.1426670784	-0.219877
C	-0.6400974609	-4.1097805163	 1.1668863596	-0.216551
H	 1.009079617	 1.9327486144	-0.0551349801	 0.113892
H	-0.5288446967	 1.9103612417	-0.9288710927	 0.111119
H	-0.5151133658	 1.9582607063	 0.8388206042	 0.117776
H	-1.0487736292	-0.3565335114	-0.0133448587	 0.113794
H	 0.4692629408	-0.386594231	-0.8984147399	 0.088685
H	 1.7190857858	-0.1444184776	 1.2883466506	 0.101708
H	 0.1867399443	-0.1969815362	 2.1536000396	 0.114617
H	 1.3076315046	-2.4334734102	 0.3985172709	 0.081751
H	 2.8305483002	-3.1205095551	 4.2481201062	 0.193643
H	-2.2035691431	-2.9782694714	 0.018112501	 0.118148
H	-0.551400215	-3.0501599075	-0.7677360759	 0.112176
H	 0.2827771066	-4.6426105034	 0.9459236682	 0.116824
H	-1.3312006393	-4.6474993741	 1.809100531	 0.118729
79.5245	86.4046	101.0157	117.4721	152.3658	243.7799	256.6468	276.3935	327.0247	363.7267	455.7786	524.7072	562.4765	622.8596	654.9009	725.039	766.0008	824.299	899.9637	905.5836	908.7819	950.3602	1003.8574	1033.5638	1055.7738	1072.5237	1113.8047	1120.6775	1126.531	1134.046	1175.5576	1195.3832	1261.5727	1288.092	1310.0345	1328.1377	1348.9581	1356.327	1396.5952	1413.9557	1474.9124	1491.5334	1493.8253	1499.7765	1509.0267	1520.338	2238.1191	2902.4518	3014.4574	3029.3217	3036.1307	3063.7272	3083.7432	3096.4478	3100.8716	3102.5574	3104.3513	3179.1004	3194.6208	3504.2947
CCCC(C#C)N1CC1	CCC[C@@H](C#C)N1CC1	
InChI=1S/C8H13N/c1-3-5-8(4-2)9-6-7-9/h2,8H,3,5-7H2,1H3	InChI=1S/C8H13N/c1-3-5-8(4-2)9-6-7-9/h2,8H,3,5-7H2,1H3/t8-/m1/s1
