19
gdb 53712	5.44951	0.44403	0.42163	4.122	83.09	-0.2526	0.0074	0.2599	2506.6459	0.156091	-423.028324	-423.017344	-423.0164	-423.068306	35.793	
C	-0.2128389947	 1.3844605766	 0.1929274992	-0.497292
C	-0.0959948005	-0.0647023805	 0.1125200654	 0.12067
C	 0.0099833601	-1.2620466866	 0.0466397424	 0.018164
C	 0.1048550013	-2.7147197919	-0.0374976352	-0.359134
C	-1.2588614225	-3.3881660151	-0.2913375505	-0.179248
C	-1.13306532	-4.9049780193	-0.3719080528	-0.090876
O	-2.3942997925	-5.4988496716	-0.7038222278	-0.175466
C	-3.0712661419	-6.1344675926	 0.2699604968	 0.170716
O	-4.1451520208	-6.6263530465	 0.0981944462	-0.272687
H	 0.4021770391	 1.8767500198	-0.5684701081	 0.148507
H	-1.2483394111	 1.7086845319	 0.0414793942	 0.149325
H	 0.110360055	 1.7569917628	 1.1712438749	 0.148107
H	 0.8023501458	-2.9940134161	-0.8391956458	 0.129691
H	 0.5411929326	-3.110201383	 0.8903149301	 0.127163
H	-1.9561300265	-3.1201204991	 0.5098156523	 0.118779
H	-1.6887681286	-3.013454899	-1.2252755806	 0.130999
H	-0.4372174433	-5.2015903074	-1.1631169309	 0.127065
H	-0.7613947162	-5.3208262566	 0.5746946817	 0.110728
H	-2.5198610351	-6.154601646	 1.2315942485	 0.074789
11.6631	30.3772	72.3741	76.1801	94.6817	151.1385	217.3866	238.295	285.4781	371.0827	381.8163	384.387	519.8831	666.8416	749.8902	776.239	854.9329	1016.9201	1041.8569	1050.0463	1052.4047	1053.629	1065.0731	1107.5987	1157.1747	1171.8758	1255.6426	1275.1433	1311.769	1332.482	1375.149	1409.6717	1415.5907	1434.4594	1476.8461	1478.6634	1478.937	1493.7708	1511.887	1868.2423	2376.6363	2934.7263	3004.4557	3015.0371	3026.8403	3031.3898	3051.878	3077.1084	3087.4564	3087.7303	3105.2076
CC#CCCCOC=O	CC#CCCCOC=O	
InChI=1S/C7H10O2/c1-2-3-4-5-6-9-7-8/h7H,4-6H2,1H3	InChI=1S/C7H10O2/c1-2-3-4-5-6-9-7-8/h7H,4-6H2,1H3
