18
gdb 124794	4.11805	0.99644	0.84146	5.1195	75.36	-0.2145	0.0299	0.2444	1360.9419	0.148297	-435.286319	-435.27693	-435.275986	-435.320776	34.516	
C	 0.079296713	 1.3643279573	-0.4685696299	-0.381384
C	-0.0179635108	 0.0359551472	 0.2897270821	 0.057716
O	 0.2988227461	 0.2532360718	 1.651699518	-0.447135
C	-1.3783737728	-0.5998851026	 0.145101323	 0.351458
N	-2.0863443198	-0.8480066008	 1.2376353115	-0.327241
N	-3.2288059646	-1.4291151309	 0.7828023676	-0.25946
C	-3.2499793305	-1.5487892815	-0.5684066852	 0.415904
N	-4.3670959472	-2.0530522271	-1.2340024844	-0.605479
C	-2.0559813288	-1.0219326798	-1.0249528053	-0.393221
H	 1.0727858279	 1.7967312099	-0.3210960418	 0.120922
H	-0.0825950813	 1.2209107437	-1.5418261681	 0.103826
H	-0.6669666133	 2.0691673302	-0.090873816	 0.120558
H	 0.7259267749	-0.6562345862	-0.1409504422	 0.075287
H	-0.4274650513	-0.1227225485	 2.1673573996	 0.292884
H	-3.9718055516	-1.6329574344	 1.4287031577	 0.269329
H	-4.7051503835	-2.9293128634	-0.8540155402	 0.252119
H	-4.1972561318	-2.1620102722	-2.2245372057	 0.258753
H	-1.7201745548	-0.9715828925	-2.0479863607	 0.095166
39.6577	124.3765	183.2522	185.9229	242.9962	250.179	297.4006	344.1378	360.775	430.8529	478.8066	496.758	650.8967	667.5974	721.9905	733.3772	766.5853	784.3045	910.9949	993.723	1040.5634	1050.5946	1100.9321	1104.3856	1135.3259	1171.1426	1197.5749	1283.1231	1337.7988	1367.7219	1395.7952	1428.051	1446.2439	1475.0379	1492.4056	1511.4324	1543.0679	1619.7476	1661.522	2947.7634	3038.267	3113.0424	3122.8105	3261.2337	3534.7759	3632.5289	3677.9423	3739.3375
CC(O)C1=NNC(N)=C1	C[C@@H](O)c1n[nH]c(N)c1	
InChI=1S/C5H9N3O/c1-3(9)4-2-5(6)8-7-4/h2-3,9H,1H3,(H3,6,7,8)	InChI=1S/C5H9N3O/c1-3(9)4-2-5(6)8-7-4/h2-3,9H,1H3,(H3,6,7,8)/t3-/m1/s1
