19
gdb 113475	3.97082	0.95623	0.93036	1.6545	76.13	-0.25	0.075	0.325	1317.3089	0.15813	-422.956776	-422.948214	-422.94727	-422.990319	32.42	
O	-0.0594102552	 1.3106201196	-0.474135107	-0.418163
C	-0.0331781691	 0.054153607	 0.1916890649	-0.098735
C	-1.4128243896	-0.5429314653	 0.1321718872	-0.05277
C	-1.8639581299	-1.2734665379	-1.1143526248	-0.352126
C	-1.5944847724	-2.0318565231	 0.1518036939	 0.342245
C	-0.5589866797	-3.1758323812	 0.3449211121	-0.347502
C	-1.6473735302	-3.9249699044	 1.1368173722	 0.03659
O	-2.0284575435	-3.0924871037	 2.2364576071	-0.247091
C	-2.6100887479	-2.8276003163	 0.9487615384	-0.067884
H	 0.7950945526	 1.7330519218	-0.3450951715	 0.284669
H	 0.6866386857	-0.6324501052	-0.2835402529	 0.081013
H	 0.2738211704	 0.1706313153	 1.2431416398	 0.092886
H	-2.1683918409	 0.0424601452	 0.6496724726	 0.092427
H	-2.8931866201	-1.1532134625	-1.4374094883	 0.112814
H	-1.1506168335	-1.3704637805	-1.9272873485	 0.114354
H	-0.2911984473	-3.6652868412	-0.5952920654	 0.109405
H	 0.3449818083	-2.9483132452	 0.9157509021	 0.110526
H	-1.8011997731	-4.9925099197	 1.2407025115	 0.104836
H	-3.6922418245	-2.8257584724	 0.8805457867	 0.102505
69.3279	115.4736	147.2851	193.6807	264.3514	327.348	346.4592	422.0795	448.4657	511.7838	627.993	785.2878	842.9527	847.7425	863.3344	877.159	893.3523	907.7123	953.6655	969.2024	1011.6145	1047.4105	1054.9211	1064.7639	1076.2156	1098.8279	1157.1832	1169.4373	1189.3021	1221.5848	1230.0791	1253.268	1263.6457	1279.8996	1324.8208	1379.8589	1421.7544	1466.2586	1471.7025	1500.5639	1518.5607	2961.7488	2991.8947	3058.5049	3114.7216	3121.6561	3144.116	3177.6557	3194.1893	3205.6892	3824.5958
OCC1CC11CC2OC12	OC[C@H]1C[C@]21C[C@H]1O[C@@H]21	
InChI=1S/C7H10O2/c8-3-4-1-7(4)2-5-6(7)9-5/h4-6,8H,1-3H2	InChI=1S/C7H10O2/c8-3-4-1-7(4)2-5-6(7)9-5/h4-6,8H,1-3H2/t4-,5-,6-,7-/m1/s1
