19
gdb 114706	3.83193	1.07727	0.98979	2.8322	70.79	-0.2367	0.0692	0.3059	1230.2288	0.158853	-460.138456	-460.129836	-460.128892	-460.171897	33.222	
O	 0.1525693891	 1.1571669572	 0.5855075957	-0.422899
C	 0.0060018253	-0.2073985109	 0.2632905451	-0.060097
C	-1.4040328968	-0.5098729421	-0.2406171614	 0.099108
C	-1.7065825968	-2.0138153108	-0.4382952808	-0.347976
C	-2.7824168517	-2.3368501631	 0.5962907343	 0.373513
O	-3.7927421918	-3.2294133779	 0.2442156243	-0.466806
C	-2.4338382666	-2.1292820397	 2.0576081831	-0.385503
C	-3.1219425092	-1.041562944	 1.2508588652	 0.06408
O	-2.3443463036	 0.0014037035	 0.7348928959	-0.287505
H	-0.6148134795	 1.3774464893	 1.1285940054	 0.290775
H	 0.7347506789	-0.4384285719	-0.5222925367	 0.106422
H	 0.2352634975	-0.8555453422	 1.1268204536	 0.080459
H	-1.5704882465	 0.0614492336	-1.1610053406	 0.095023
H	-2.1236823608	-2.2101770447	-1.4290047949	 0.121712
H	-0.8026708136	-2.6234976711	-0.3250030927	 0.103722
H	-3.4729322834	-4.1232652307	 0.4089658929	 0.284694
H	-3.0585076071	-2.6545073672	 2.7730922017	 0.11848
H	-1.3988176394	-1.9960661977	 2.3541716556	 0.118497
H	-4.1389043541	-0.7506013396	 1.4868019441	 0.114302
52.9908	135.7282	165.2071	260.8001	298.8431	332.6328	374.074	403.5331	443.2485	477.673	503.2212	613.2999	690.1527	730.3167	798.2959	877.7619	904.8918	918.3536	946.409	999.0698	1015.9903	1033.044	1042.8434	1071.9329	1095.4033	1101.322	1153.7062	1185.0615	1236.0656	1253.6876	1268.4207	1296.1266	1315.7042	1336.1633	1362.7518	1395.5299	1410.9457	1440.8711	1476.8555	1497.2241	1502.8536	2956.3265	3038.6117	3039.6127	3065.3122	3101.8206	3126.2284	3185.721	3221.0035	3779.4436	3795.4484
OCC1CC2(O)CC2O1	OC[C@H]1C[C@@]2(O)C[C@H]2O1	
InChI=1S/C6H10O3/c7-3-4-1-6(8)2-5(6)9-4/h4-5,7-8H,1-3H2	InChI=1S/C6H10O3/c7-3-4-1-6(8)2-5(6)9-4/h4-5,7-8H,1-3H2/t4-,5-,6-/m1/s1
