22
gdb 78219	2.16771	1.53868	1.4295	1.7299	82.11	-0.2235	0.0606	0.2841	1108.1784	0.192728	-404.303918	-404.294275	-404.293331	-404.337286	37.597	
C	 0.0479038231	 1.7153387355	-0.3623663584	-0.437919
C	 0.0524425762	 0.2002753694	-0.4131297035	 0.026879
C	 0.5751985258	-0.6665541362	-1.4901792851	-0.073477
C	 1.9093764158	-0.2161543815	-2.0618788211	 0.04662
O	 1.8690500523	 1.0196278428	-2.7484534195	-0.424974
C	 2.4848366802	-0.302448496	-0.6034440446	 0.29013
C	 3.4105188822	-1.5096104738	-0.4529860957	-0.41638
C	 3.1197065796	 0.928341682	 0.0329588234	-0.449424
N	 1.1343371524	-0.7442316248	-0.0622771516	-0.184209
H	 0.7695520129	 2.1641067886	-1.0403428056	 0.155374
H	-0.946443007	 2.0644564752	-0.6620536265	 0.115285
H	 0.2261276535	 2.0723269893	 0.6576414988	 0.117138
H	-0.8634318497	-0.2103756381	 0.0134300613	 0.095093
H	-0.0123962553	-1.4759993411	-1.9129679279	 0.088133
H	 2.3556803509	-0.9900216596	-2.6997500443	 0.07161
H	 2.7386187494	 1.1785871717	-3.1295215325	 0.284418
H	 4.3547588553	-1.3431233426	-0.983824149	 0.101082
H	 3.6337213896	-1.6899737565	 0.6031506657	 0.121119
H	 2.9407780545	-2.4135940114	-0.8515795786	 0.117621
H	 2.6339235588	 1.8601344662	-0.2507893444	 0.124384
H	 3.0794700005	 0.8368615725	 1.1238945188	 0.125345
H	 4.1751736187	 1.0008093584	-0.2526319498	 0.106152
128.058	171.5382	186.4445	226.5613	244.4353	262.5712	285.431	290.7853	332.619	365.6555	375.7195	474.2349	569.8444	604.0404	661.8048	720.4207	767.1779	808.3745	886.6567	926.1629	952.1977	963.727	980.7642	1011.3405	1028.3994	1080.4762	1113.7834	1124.8063	1159.5528	1179.9537	1213.2257	1234.0065	1263.2722	1279.383	1318.5987	1370.794	1397.5088	1413.1466	1415.2714	1438.4133	1452.098	1477.4229	1481.5187	1496.0833	1497.679	1510.4455	1525.1944	3014.476	3028.9603	3037.8982	3039.5945	3089.9452	3092.5416	3099.1263	3102.3783	3111.1299	3152.0403	3162.28	3185.1321	3814.631
CC1C2C(O)C(C)(C)N12	C[C@H]1[C@H]2[C@@H](O)C(C)(C)N12	
InChI=1S/C7H13NO/c1-4-5-6(9)7(2,3)8(4)5/h4-6,9H,1-3H3	InChI=1S/C7H13NO/c1-4-5-6(9)7(2,3)8(4)5/h4-6,9H,1-3H3/t4-,5-,6+,8?/m0/s1
