20
gdb 71395	3.27545	1.3834	1.31272	1.4082	78.68	-0.2409	0.0691	0.3099	1084.8454	0.17004	-403.103742	-403.095198	-403.094254	-403.136036	33.992	
C	-0.016089783	 1.449300451	 0.0591267413	-0.49827
C	 0.0646443309	-0.0384803624	-0.0899318381	 0.329304
C	-0.5892807861	-0.9016407152	-1.1627853169	-0.293163
C	-0.4196233582	-2.0300359863	-0.1372839066	-0.077743
N	-0.3407953632	-0.9808696504	 1.0160119444	-0.205829
C	 1.1075728769	-0.8644721798	 0.5929006038	-0.126554
C	 1.1124129517	-2.2571668883	-0.0019960822	 0.432884
C	 1.4617173148	-3.3415695952	 1.0105683311	-0.468284
O	 1.8760507369	-2.3812831645	-1.1863670035	-0.483197
H	 0.5952402114	 1.9497959349	-0.7002285418	 0.124922
H	-1.0483215199	 1.7980831385	-0.0498147136	 0.123647
H	 0.3431711798	 1.7608495359	 1.0447474921	 0.12803
H	-1.6402666914	-0.6260342544	-1.2886480712	 0.09971
H	-0.0998148808	-1.0142017664	-2.1333241244	 0.108531
H	-1.1228792065	-2.8585800308	-0.0579617469	 0.071314
H	 1.8516105108	-0.4272462112	 1.2510195703	 0.084605
H	 0.8831476998	-3.2183552826	 1.9293785062	 0.145216
H	 1.2376352087	-4.3351135688	 0.6014538772	 0.105743
H	 2.5274372808	-3.306123626	 1.258059156	 0.122905
H	 1.9698233265	-3.3174218181	-1.3919261472	 0.276228
155.4981	185.1977	228.4917	246.764	265.9894	270.3439	328.25	359.6383	413.6385	488.0968	560.6691	594.2187	660.3372	763.1921	798.0674	798.8239	877.3586	920.0611	935.2714	973.8981	985.065	998.348	1007.5817	1052.8963	1063.5807	1109.0944	1140.1328	1164.4707	1184.1183	1211.5518	1227.5352	1252.2589	1274.8757	1318.357	1377.2058	1403.1938	1413.946	1435.9807	1481.963	1489.4814	1491.8012	1495.3328	1498.7226	3022.3895	3030.5465	3055.8889	3090.0915	3095.5631	3107.8706	3112.6092	3120.383	3126.0846	3167.7022	3808.5766
CC12CC3N1C2C3(C)O	C[C@]12C[C@@H]3N1[C@H]2[C@]3(C)O	
InChI=1S/C7H11NO/c1-6-3-4-7(2,9)5(6)8(4)6/h4-5,9H,3H2,1-2H3	InChI=1S/C7H11NO/c1-6-3-4-7(2,9)5(6)8(4)6/h4-5,9H,3H2,1-2H3/t4-,5+,6+,7+,8?/m0/s1
