18
gdb 108133	3.04531	1.54581	1.399	2.3789	70.42	-0.236	0.0623	0.2983	986.1565	0.149768	-439.023367	-439.01619	-439.015245	-439.055144	28.83	
O	-0.026848923	 1.4182922822	 0.0094728412	-0.41721
C	 0.029061385	 0.0004440157	 0.055468814	-0.202142
C	-1.3468902948	-0.5901686625	 0.0132352712	 0.472092
O	-2.17409719	-0.3084756774	 1.1501561085	-0.341584
C	-3.0622734435	-1.3318897838	 0.607854191	 0.046359
C	-3.6361120399	-0.6026285475	-0.6180810341	-0.220381
C	-2.256877798	-0.5232819001	-1.3116597053	-0.093504
N	-1.8793406988	-1.9475260995	-1.5433045154	-0.312584
C	-1.8064943439	-2.0544267995	-0.0851839032	-0.122894
H	-0.5835732761	 1.6980268303	 0.7448837712	 0.294363
H	 0.5936199761	-0.3279599196	-0.821861706	 0.129975
H	 0.5553025468	-0.3539669237	 0.9549890323	 0.095829
H	-3.7121267134	-1.7895804447	 1.3511106636	 0.082269
H	-4.360755929	-1.1733749237	-1.2070157957	 0.092933
H	-4.0656066667	 0.3584734194	-0.3283290599	 0.112972
H	-2.0879062525	 0.1863730448	-2.1190346243	 0.086368
H	-2.6089939889	-2.5039172834	-1.9882538212	 0.21151
H	-1.3407154395	-2.9173598668	 0.3890911222	 0.085629
80.5235	141.0025	272.4093	335.2614	405.6645	460.0284	519.1861	548.8011	642.611	710.9027	743.7125	796.9961	828.2604	879.8754	915.0764	931.3811	950.864	962.4234	994.8588	998.7684	1028.3607	1037.0524	1062.2101	1100.6048	1104.4478	1127.2814	1165.8364	1214.5776	1231.204	1242.0988	1255.0903	1299.5059	1318.3304	1336.4106	1356.2428	1387.9493	1438.8559	1477.8317	1494.3116	2991.1688	3058.9581	3095.5689	3122.84	3128.2174	3142.9287	3146.2011	3453.0004	3804.8967
OCC12OC3CC1NC23	OC[C@@]12O[C@H]3C[C@@H]1N[C@@H]23	
InChI=1S/C6H9NO2/c8-2-6-4-1-3(9-6)5(6)7-4/h3-5,7-8H,1-2H2	InChI=1S/C6H9NO2/c8-2-6-4-1-3(9-6)5(6)7-4/h3-5,7-8H,1-2H2/t3-,4-,5+,6+/m0/s1
