20
gdb 63496	2.9834	1.09698	0.93864	4.6818	78.68	-0.2468	0.0273	0.2741	1326.1778	0.167065	-440.263995	-440.253698	-440.252754	-440.298921	37.903	
C	-0.0804412093	 1.5295079889	-0.0130644743	-0.454944
C	 0.0332329162	 0.0212604415	 0.0304754169	 0.347543
O	-1.116311607	-0.6383303848	-0.4166565996	-0.446647
C	 1.3610988733	-0.673146389	-0.2347554239	-0.419565
C	 0.7429765925	-0.6918212687	 1.154699848	 0.369431
C	 1.3810160381	 0.0490309472	 2.3079330544	-0.447024
O	 0.1105452017	-1.8818207814	 1.5765583832	-0.207719
C	 0.8946801826	-2.9689988803	 1.7278384119	 0.117345
N	 0.423477728	-4.0186643098	 2.247366891	-0.445101
H	 0.8268912372	 2.0302890095	 0.3317435237	 0.119131
H	-0.2599589708	 1.8572921412	-1.044365397	 0.112581
H	-0.9224645847	 1.8683514106	 0.5983575108	 0.135295
H	-1.2088803138	-0.4579910805	-1.3587963628	 0.283179
H	 1.3038449307	-1.5904499398	-0.8099371907	 0.125087
H	 2.256625522	-0.0804461179	-0.3922295703	 0.112786
H	 1.8544325779	 0.9782347189	 1.9851563963	 0.120915
H	 0.6319640703	 0.2844640789	 3.0701017986	 0.139793
H	 2.1529974109	-0.5724672435	 2.7747657278	 0.123205
H	 1.9157536557	-2.8265138403	 1.3506715651	 0.089022
H	 1.1383033485	-4.7433368308	 2.2642405708	 0.225688
70.1954	120.3041	143.3177	185.2254	196.3641	216.9332	262.2451	269.9923	315.6005	373.3198	392.5988	423.7696	472.3947	553.5282	577.7326	725.0097	764.8425	821.2139	884.5536	906.7311	938.5185	971.5314	1003.432	1037.4849	1053.6795	1079.8033	1093.2058	1128.2065	1179.0915	1220.3402	1286.3933	1295.3359	1302.8226	1400.0336	1413.2159	1414.77	1424.9242	1470.2277	1478.4528	1487.7034	1496.6569	1517.9496	1741.71	3030.0054	3033.1473	3040.7895	3093.2496	3103.1002	3123.967	3127.371	3136.5079	3223.5834	3514.028	3795.8345
CC1(O)CC1(C)OC=N	C[C@@]1(O)C[C@]1(C)O[CH][NH]	
InChI=1S/C6H11NO2/c1-5(8)3-6(5,2)9-4-7/h4,7-8H,3H2,1-2H3	InChI=1S/C6H11NO2/c1-5(8)3-6(5,2)9-4-7/h4,7-8H,3H2,1-2H3/t5-,6+/m1/s1
