18
gdb 13109	4.02317	1.18915	0.98333	3.8759	67.95	-0.2703	0.0101	0.2804	1206.5022	0.153663	-384.975125	-384.966759	-384.965815	-385.008645	29.693	
C	-0.0610914942	 1.5456528578	 0.1138651044	-0.384178
C	 0.0304353487	 0.020002952	 0.03296735	-0.169277
C	 0.6199521055	-0.4678014848	-1.2969678852	-0.198576
C	 0.744649755	-1.9896230684	-1.3660912089	-0.188582
C	 1.5357386956	-2.6263522761	-2.5261795545	-0.107027
O	 2.4975718216	-3.1914576356	-1.5769005435	-0.238761
C	 1.8457522964	-2.6267904319	-0.5085316337	 0.461097
O	 2.154658354	-2.677129755	 0.6390414832	-0.324175
H	 0.9285745028	 2.0069048284	 0.0240069488	 0.118178
H	-0.6890547333	 1.9503290212	-0.6879147742	 0.112506
H	-0.4909825685	 1.8660866354	 1.0674997275	 0.117921
H	 0.6423455551	-0.3648227917	 0.8561560193	 0.132508
H	-0.9684709155	-0.4167600442	 0.1638105164	 0.096316
H	-0.0074731079	-0.1258309959	-2.1305918158	 0.102651
H	 1.6092459533	-0.016076672	-1.4495845821	 0.106064
H	-0.2246898298	-2.4662517579	-1.1893181034	 0.113085
H	 1.0372288374	-3.4176722928	-3.0891941212	 0.125389
H	 2.0317743437	-1.9261379583	-3.2025927071	 0.124861
82.3817	92.5915	110.9024	187.5861	240.9748	253.2428	360.9063	383.2786	508.8204	706.5474	751.7772	763.1627	817.1713	875.3356	911.8863	931.1896	959.6233	1031.3381	1052.4337	1095.898	1116.6513	1130.8139	1154.4353	1174.1622	1224.2779	1263.2436	1300.9678	1334.4668	1341.4602	1371.471	1398.9667	1415.2154	1487.6959	1495.6968	1501.1937	1512.3181	1517.3904	1928.7889	3012.1168	3023.8873	3030.8129	3045.1299	3068.5072	3070.5845	3075.9473	3099.9122	3106.571	3130.6246
CCCC1COC1=O	CCC[C@H]1COC1=O	
InChI=1S/C6H10O2/c1-2-3-5-4-8-6(5)7/h5H,2-4H2,1H3	InChI=1S/C6H10O2/c1-2-3-5-4-8-6(5)7/h5H,2-4H2,1H3/t5-/m0/s1
