18
gdb 38068	3.55018	1.44588	1.27797	1.0273	77.	-0.2362	-0.0008	0.2354	1029.9574	0.149416	-401.905906	-401.898656	-401.897712	-401.937808	28.71	
C	-0.0207885459	 1.3764543209	-0.3295534608	-0.077929
C	 1.4357561827	 1.54548587	 0.1380847596	-0.334533
C	 1.2666385288	 0.1292857363	 0.7453498662	 0.471152
O	-0.082262746	 0.0354328009	 0.2027773273	-0.332046
C	 2.1883144478	-0.9759671898	 0.2941650076	-0.151126
C	 2.6768495022	-1.6792267238	 1.3193585163	-0.060535
C	 2.1820603216	-1.132805827	 2.6168281638	-0.088794
N	 2.6246863195	 0.2794057191	 2.8447463126	-0.337384
C	 1.2942759649	 0.0013774291	 2.2670008948	-0.141786
H	-0.7539452867	 2.0393852523	 0.1470792378	 0.099145
H	-0.1853845749	 1.3921082151	-1.4132788191	 0.102977
H	 2.1738827618	 1.6070647696	-0.6630213728	 0.112038
H	 1.6317611289	 2.3334073637	 0.8659203891	 0.11824
H	 2.425904366	-1.1227279032	-0.7533385803	 0.099181
H	 3.37385258	-2.5057029133	 1.2478975344	 0.104735
H	 2.0204331646	-1.7708119237	 3.4785065537	 0.093645
H	 2.503378991	 0.5022119321	 3.832703772	 0.228298
H	 0.3942743036	 0.2438063917	 2.8215660778	 0.094722
79.1279	135.2381	208.775	363.4845	387.2192	412.6449	478.0538	598.9895	742.9035	773.5743	784.7969	802.5605	839.4984	861.4285	874.414	918.6057	941.6899	956.2715	970.7512	983.6443	1010.8412	1022.7058	1068.8475	1098.3177	1142.0447	1150.6034	1160.0002	1187.3491	1204.0521	1239.3085	1260.234	1261.1453	1334.1032	1347.0461	1392.6449	1402.4541	1488.825	1531.6129	1656.4644	3015.2005	3055.1249	3084.8064	3140.641	3170.1603	3179.5594	3190.7759	3215.2216	3462.1503
C1CC2(O1)C=CC1NC21	C1C[C@@]2(O1)C=C[C@H]1N[C@@H]21	
InChI=1S/C7H9NO/c1-2-7(3-4-9-7)6-5(1)8-6/h1-2,5-6,8H,3-4H2	InChI=1S/C7H9NO/c1-2-7(3-4-9-7)6-5(1)8-6/h1-2,5-6,8H,3-4H2/t5-,6-,7+/m1/s1
