16
gdb 32517	2.61013	1.25049	0.84992	3.7419	74.82	-0.2213	-0.0301	0.1913	1276.4987	0.12479	-437.927743	-437.919133	-437.918189	-437.961739	30.824	
O	-0.0484786178	 1.4094996627	 0.0070545696	-0.419105
C	 0.0073510529	-0.0086947635	 0.001891595	-0.199362
C	-1.3946186297	-0.5362352267	 0.0122269649	 0.173968
C	-2.5305809691	 0.2287556384	 0.0233707007	-0.142075
N	-3.6172837856	-0.6247502499	 0.0302080746	-0.250574
C	-3.2021986222	-1.9143972434	 0.0236787948	-0.126894
C	-1.8143889929	-1.9120817326	 0.0124048631	 0.073869
C	-0.9834131339	-3.1062933268	 0.0028497602	 0.065419
O	-1.3992534022	-4.2475884295	 0.0014656598	-0.293616
H	 0.8526639137	 1.7435936017	 0.0008930654	 0.291258
H	 0.543084005	-0.3799367787	-0.8875868752	 0.102987
H	 0.5583503625	-0.3858386259	 0.8794662252	 0.102961
H	-2.6510787733	 1.2980452673	 0.0270296313	 0.146043
H	-4.5782979456	-0.3283577365	 0.0388586491	 0.269859
H	-3.8886266377	-2.7448798031	 0.0273131315	 0.154686
H	 0.1134471961	-2.9090299635	-0.007474	 0.050574
49.4023	144.3649	144.6185	207.8268	229.5871	234.4575	296.8075	383.418	543.1552	549.6212	640.8296	662.8413	688.281	750.9634	809.6745	813.9374	918.3464	1033.4297	1052.9315	1058.1133	1089.2214	1111.8411	1180.3011	1220.3742	1249.3235	1266.3064	1342.0671	1378.5837	1447.6194	1472.8605	1479.2138	1517.9675	1547.2967	1608.0362	1778.2995	2858.2053	2956.732	2971.8571	3279.6276	3292.9414	3674.2993	3840.9893
OCC1=CNC=C1C=O	OCc1c[nH]cc1C=O	
InChI=1S/C6H7NO2/c8-3-5-1-7-2-6(5)4-9/h1-3,7,9H,4H2	InChI=1S/C6H7NO2/c8-3-5-1-7-2-6(5)4-9/h1-3,7,9H,4H2
