17
gdb 133866	2.90067	2.05927	1.45675	2.3806	84.17	-0.1575	-0.0752	0.0823	892.5613	0.135006	-421.679014	-421.672181	-421.671237	-421.709861	28.307	
C	-1.0414594484	 1.2572475638	-0.6611614831	-0.339051
C	-1.2718767053	-0.0606346084	 0.2756232852	 0.075816
O	-1.4208555191	-1.2755833079	-0.4895373697	-0.307672
C	-0.1352289657	-1.7226060855	 0.0172458679	 0.103255
C	 1.1216563873	-1.1929375461	-0.7290532406	-0.283154
C	 1.2669098435	-0.0590110736	 0.341321341	 0.077383
O	 1.2964849553	 1.3291057859	-0.0896072703	-0.163246
C	 0.1624146864	 1.9519183281	-0.2743689845	 0.067853
C	-0.0374024581	-0.5225917061	 0.9676620846	-0.169535
H	-1.9012519559	 1.9298244541	-0.6687767352	 0.118112
H	-0.9670634054	 0.7845342124	-1.6456785221	 0.160287
H	-2.180731327	 0.1602010797	 0.8437582198	 0.10211
H	-0.1613433737	-2.7798430499	 0.289213304	 0.07604
H	 0.9159431591	-0.8288907964	-1.7361571601	 0.124217
H	 1.9766139466	-1.8737847531	-0.7654174926	 0.113618
H	 2.1736381115	-0.1164453942	 0.9433618131	 0.109958
H	 0.2144837789	 3.0194031472	-0.0846738174	 0.13401
136.9967	223.9834	305.272	387.4039	443.9932	464.9472	484.1872	585.4495	608.6099	667.921	733.1253	755.6933	794.9111	840.9072	906.2794	914.4555	958.5043	981.5464	990.4095	1009.9844	1019.2971	1068.51	1070.5828	1129.6618	1143.2802	1175.489	1179.4932	1224.5725	1254.532	1259.3214	1290.8157	1315.5982	1334.6642	1389.1127	1447.0524	1486.094	1502.6418	3045.8632	3046.6012	3059.9152	3083.1068	3104.1475	3113.9409	3137.0538	3184.8151	136.9971	223.9837	305.2719	387.4039	443.9932	464.9473	484.1871	585.4497	608.6097	667.9208	733.1253	755.693	794.9108	840.9072	906.2794	914.4555	958.5041	981.5464	990.4096	1009.9844	1019.297	1068.51	1070.5826	1129.6621	1143.2803	1175.4888	1179.493	1224.5726	1254.532	1259.3216	1290.8157	1315.5976	1334.6643	1389.1124	1447.0527	1486.0934	1502.6416	3045.8633	3046.6012	3059.9152	3083.1068	3104.1474	3113.9409	3137.0538	3184.815
C1C2OC3CC4OC1C234	C1[C@H]2O[C@H]3C[C@@H](O[CH]1)[C]23	
InChI=1S/C7H8O2/c1-3-7-4(1)9-6(7)2-5(7)8-3/h3-6H,1-2H2	InChI=1S/C7H8O2/c1-2-8-5-3-6-7(5)4(1)9-6/h2,4-6H,1,3H2/t4-,5-,6+/m1/s1
