20
gdb 93105	2.43703	1.67118	1.35837	2.1114	78.9	-0.2393	0.0278	0.2671	1049.0258	0.171919	-403.153444	-403.145185	-403.144241	-403.185955	32.321	
C	-0.0596912565	 1.5587281024	 0.0206555686	-0.396574
C	 0.0127230962	 0.0248790909	-0.0027456682	-0.092607
C	 0.8047835751	-0.5045909204	-1.2141986262	-0.164692
N	 2.2520065613	-0.3573671353	-1.0733258151	-0.265075
C	 2.7251196064	-0.2288680727	 0.090296617	 0.111337
O	 2.0789815636	-0.2198688701	 1.2863572158	-0.268759
C	 0.690308459	-0.5303477697	 1.2342695827	 0.482294
C	 0.0391140624	-0.5786417025	 2.5758204658	-0.341429
C	 0.3134472048	-1.8648135038	 1.8146919139	-0.330368
H	 0.938760304	 2.0050012904	 0.0309183638	 0.134381
H	-0.5832892535	 1.9317011826	-0.8649927512	 0.114048
H	-0.5945021197	 1.9133377957	 0.9069375775	 0.115411
H	-1.0069304329	-0.3760883354	-0.039415322	 0.075575
H	 0.5806547724	-1.5669562422	-1.3764750576	 0.110714
H	 0.5003079153	 0.0174328172	-2.1286159709	 0.105722
H	 3.791935403	-0.0844691178	 0.2508322649	 0.121721
H	 0.6665254902	-0.3653199646	 3.433593912	 0.128413
H	-0.984941471	-0.2309412226	 2.65964993	 0.118216
H	-0.5227693597	-2.3992128678	 1.3759161501	 0.116165
H	 1.1200402496	-2.4921876944	 2.1756238389	 0.125505
107.1664	151.348	195.8908	213.8798	276.6554	318.8323	378.03	447.5796	483.7857	547.7421	602.6462	695.3771	765.6326	827.6356	868.9956	898.4808	908.7509	935.2243	953.7503	963.3566	967.0739	1012.4279	1045.8041	1063.9127	1079.5503	1109.5541	1135.2078	1172.8413	1188.0414	1238.7615	1275.9842	1280.1639	1329.5952	1365.7567	1401.6018	1410.3201	1414.9569	1453.1707	1483.7065	1494.8867	1499.1167	1505.2456	1735.4091	3017.7159	3038.5077	3041.4559	3054.6081	3107.996	3117.6996	3132.8623	3137.2902	3159.1989	3219.4689	3232.8731
CC1CN=COC11CC1	C[C@H]1CN=COC21CC2	
InChI=1S/C7H11NO/c1-6-4-8-5-9-7(6)2-3-7/h5-6H,2-4H2,1H3	InChI=1S/C7H11NO/c1-6-4-8-5-9-7(6)2-3-7/h5-6H,2-4H2,1H3/t6-/m0/s1
