19
gdb 109223	4.68412	1.01814	0.91462	1.4928	77.68	-0.2086	0.0616	0.2701	1321.7985	0.160178	-419.205723	-419.197131	-419.196187	-419.239148	32.254	
C	 0.0098078039	 1.3191992909	-0.1354395157	-0.232713
O	-0.0565857147	-0.0947788766	 0.0693127786	-0.263268
C	-1.2904470099	-0.5978361987	 0.1431238531	 0.476544
N	-2.3844932292	 0.0548651316	 0.0526015279	-0.37145
C	-3.4511255804	-0.9454436238	 0.1852028275	-0.230226
C	-2.7465550891	-2.3169347969	 0.1366389894	 0.363801
C	-3.3430793698	-3.5799281767	 0.6699822449	-0.321604
C	-3.1264658283	-3.4088306083	-0.8253731323	-0.322909
N	-1.3539988005	-1.9676926487	 0.3765657432	-0.418063
H	 1.0719138219	 1.5615191994	-0.1845196157	 0.127712
H	-0.4929205574	 1.5978412378	-1.0654331455	 0.139568
H	-0.468263913	 1.8495625774	 0.6922438096	 0.141761
H	-3.9764764779	-0.8069692813	 1.1404731811	 0.106374
H	-4.1950169689	-0.8340847876	-0.6120340348	 0.105009
H	-2.6912603704	-4.2677482833	 1.1984733995	 0.115884
H	-4.3585098218	-3.5440887134	 1.0527963564	 0.117266
H	-3.9920810382	-3.251484823	-1.4616071503	 0.117601
H	-2.333917667	-3.9899078934	-1.2882904888	 0.10801
H	-0.6378796994	-2.5271379255	-0.0671793381	 0.240703
67.6127	132.7106	148.3075	203.5444	248.1331	295.27	328.6332	431.7322	456.1215	544.5108	597.4453	707.8863	741.1505	766.8464	825.3106	878.0331	918.3834	932.3185	981.591	990.5595	1048.177	1053.9968	1063.8722	1076.0466	1105.2978	1183.4479	1185.4194	1209.7213	1224.2964	1261.2368	1278.0797	1307.007	1398.2973	1443.8376	1459.5248	1476.8189	1493.8459	1501.2241	1506.8345	1508.1042	1720.0434	3003.662	3047.8386	3048.422	3115.4256	3122.4087	3124.0685	3153.2032	3196.9781	3214.5031	3582.1405
COC1=NCC2(CC2)N1	CO[C]1[N]CC2(CC2)N1	
InChI=1S/C6H10N2O/c1-9-5-7-4-6(8-5)2-3-6/h2-4H2,1H3,(H,7,8)	InChI=1S/C6H10N2O/c1-9-5-7-4-6(8-5)2-3-6/h2-4H2,1H3,(H,7,8)
