21
gdb 100960	3.16042	0.91347	0.88657	2.4754	74.74	-0.2509	0.0624	0.3133	1412.6104	0.179925	-461.335265	-461.324786	-461.323842	-461.370629	38.918	
C	-0.0582659051	 1.582222664	 0.2925367619	-0.485182
C	-0.0316840782	 0.0806893354	 0.0657388571	 0.312429
C	 1.2979329256	-0.5523001663	-0.3204916884	-0.373505
C	 0.7193440315	-0.7713257527	 1.0556589361	 0.067752
O	 1.2884676383	-0.1272501351	 2.1582948953	-0.425451
C	-1.2777725002	-0.5508274183	-0.5352695793	 0.027315
O	-2.4168127016	-0.467285533	 0.3318068309	-0.44764
C	-1.667970467	-0.0046174126	-1.9131040439	-0.068872
O	-2.8234830195	-0.6591698927	-2.3932786734	-0.425725
H	 0.803100311	 1.8878896421	 0.8881421189	 0.141186
H	-0.0450821269	 2.1362652316	-0.6509927509	 0.122959
H	-0.9493789492	 1.8937004741	 0.8522269393	 0.104498
H	 1.3066708601	-1.3774672731	-1.0256153938	 0.113913
H	 2.1521092811	 0.1132467569	-0.3914302517	 0.112815
H	 0.2939559446	-1.7503776823	 1.2755305436	 0.093896
H	 2.1389905398	-0.540966422	 2.3374584824	 0.289904
H	-1.111694757	-1.6287456541	-0.6477555799	 0.088243
H	-2.5297422718	 0.4563427662	 0.5833656644	 0.283306
H	-1.8257988943	 1.0860290726	-1.8492240191	 0.076722
H	-0.8618016688	-0.1778667312	-2.6341695741	 0.107602
H	-3.4065424423	-0.7327772897	-1.6260248656	 0.283837
47.4928	121.3699	133.459	182.6316	234.0456	256.2147	275.233	285.2095	298.5483	312.4065	336.5203	467.7853	496.2097	516.1487	523.4664	580.7072	762.2467	822.5872	859.967	912.9193	932.2159	975.2767	1029.2361	1039.5524	1066.2921	1073.0552	1099.5679	1108.2494	1127.0845	1180.3249	1196.871	1250.7227	1277.0529	1294.6088	1317.0735	1356.133	1388.087	1413.4285	1420.9316	1435.8532	1443.9567	1483.0855	1498.6941	1503.3551	1509.8096	2954.479	3025.3565	3043.1638	3070.382	3087.0232	3103.2911	3125.068	3138.5526	3213.2261	3760.6027	3801.497	3809.7363
CC1(CC1O)C(O)CO	C[C@]1(C[C@H]1O)[C@@H](O)CO	
InChI=1S/C6H12O3/c1-6(2-4(6)8)5(9)3-7/h4-5,7-9H,2-3H2,1H3	InChI=1S/C6H12O3/c1-6(2-4(6)8)5(9)3-7/h4-5,7-9H,2-3H2,1H3/t4-,5+,6-/m1/s1
