20
gdb 122847	7.00482	0.51524	0.48576	1.0697	74.29	-0.2488	0.0669	0.3156	2224.7646	0.168901	-477.458702	-477.447432	-477.446487	-477.497291	37.239	
C	 0.1622331737	 1.3288823082	-0.0690487873	-0.328677
N	-0.079319783	-0.0963569183	-0.1087914363	-0.358245
C	-1.3245847312	-0.6276924423	 0.0152990493	 0.518867
O	-2.3529447111	-0.004997209	 0.1689902582	-0.414224
O	-1.2508407136	-1.9830349325	-0.0589364229	-0.279724
C	-2.5068202901	-2.6655658498	 0.0590922944	-0.056996
C	-2.2257882911	-4.1552716425	-0.0505662104	-0.190542
C	-3.4966209099	-4.9884438175	 0.0613222754	-0.07272
O	-3.1254014828	-6.3530300969	-0.0521024163	-0.419976
H	 0.8223751389	 1.6025763218	 0.7621635262	 0.124476
H	 0.6102801009	 1.6877455792	-1.0029017508	 0.124475
H	-0.8017502489	 1.8194944745	 0.0704494277	 0.169698
H	 0.6850096009	-0.738529633	-0.2318415546	 0.252298
H	-2.9698610702	-2.4082069876	 1.0180937966	 0.117704
H	-3.1824974905	-2.3194162776	-0.7307688877	 0.117865
H	-1.7409895151	-4.371039762	-1.0087091134	 0.115603
H	-1.5292128045	-4.4597652314	 0.7379098822	 0.115618
H	-3.9919020349	-4.7880163056	 1.0256173641	 0.088859
H	-4.204632365	-4.699710344	-0.7328231378	 0.088885
H	-3.9216589123	-6.8875974838	 0.0167038834	 0.286757
31.5311	60.3768	74.014	88.2147	112.9216	124.7652	165.3978	224.081	269.5722	282.2984	338.0921	462.5987	463.6583	549.9974	720.4769	771.569	781.9848	882.7334	941.9013	1013.9458	1037.6726	1075.5801	1097.8405	1159.7921	1173.6911	1176.0419	1180.4042	1232.7223	1243.4134	1254.2565	1297.4293	1308.7106	1320.9333	1416.7864	1447.4019	1467.9526	1497.9548	1498.6864	1501.3082	1520.4231	1533.4458	1571.0837	1816.0845	2960.4416	2985.4254	3023.3829	3037.9897	3050.7021	3072.1312	3072.5941	3101.3176	3152.7058	3661.0874	3831.2953
CNC(=O)OCCCO	CNC(=O)OCCCO	
InChI=1S/C5H11NO3/c1-6-5(8)9-4-2-3-7/h7H,2-4H2,1H3,(H,6,8)	InChI=1S/C5H11NO3/c1-6-5(8)9-4-2-3-7/h7H,2-4H2,1H3,(H,6,8)
