20
gdb 99610	2.23947	1.2866	1.03477	3.3631	79.76	-0.2346	0.0349	0.2694	1266.2906	0.170647	-399.309539	-399.299489	-399.298545	-399.344441	36.778	
C	 0.2049548466	 1.5126059866	 0.0041243414	-0.329152
N	-0.2085032768	 0.1712415539	-0.3893761351	-0.272718
C	 0.6977697049	-0.52515161	-1.2832855723	-0.141874
C	 2.0946525917	-0.6052865783	-0.7665489449	 0.267051
N	 3.1597933977	-0.6635039944	-0.3194082504	-0.342173
C	 0.1881516866	-1.9422017131	-1.5442903749	 0.342182
N	 0.0972362826	-2.6998442495	-0.3159377764	-0.579515
C	-0.8811755417	-2.1079311811	-2.5794995045	-0.312672
C	 0.5268526568	-2.5858116918	-2.8710170073	-0.310223
H	 1.192575906	 1.5595704092	 0.4905191526	 0.122793
H	 0.2347590916	 2.1616988154	-0.8788722841	 0.120462
H	-0.5387716842	 1.9236680428	 0.6918498682	 0.124987
H	-0.3613847132	-0.4253459225	 0.4180733433	 0.23803
H	 0.7436254793	 0.019024727	-2.2349304011	 0.115699
H	-0.5645475286	-3.4618993424	-0.398924661	 0.235362
H	 0.9987917695	-3.0969739521	-0.0670026165	 0.246262
H	-1.6475749838	-2.8544840302	-2.3969105448	 0.115459
H	-1.2465797146	-1.2201499536	-3.08296806	 0.12761
H	 1.1218086321	-2.0318653091	-3.589919563	 0.119195
H	 0.7104135575	-3.6548261967	-2.8688184492	 0.113235
69.407	114.6244	124.2704	167.0212	187.4449	227.4062	260.0759	308.1932	327.5024	359.2194	400.6086	491.239	537.3648	610.6031	766.5959	785.3076	803.8596	858.5522	895.7974	913.9829	943.2192	976.7244	988.8792	1010.9621	1052.533	1077.6201	1146.547	1162.0284	1180.9204	1197.5295	1207.5956	1268.7782	1331.3707	1342.4642	1392.2773	1460.1415	1467.4106	1485.838	1496.4911	1504.0733	1519.6084	1649.5372	2336.8175	2978.4429	3035.3323	3058.5044	3110.1791	3129.1296	3133.8253	3209.6089	3223.508	3499.4707	3524.9015	3594.0743
CNC(C#N)C1(N)CC1	CN[C@@H](C#N)C1(N)CC1	
InChI=1S/C6H11N3/c1-9-5(4-7)6(8)2-3-6/h5,9H,2-3,8H2,1H3	InChI=1S/C6H11N3/c1-9-5(4-7)6(8)2-3-6/h5,9H,2-3,8H2,1H3/t5-/m0/s1
