18
gdb 54332	2.44766	1.27357	0.97679	4.7084	72.45	-0.2382	-0.0148	0.2234	1227.5951	0.145678	-439.116061	-439.106357	-439.105413	-439.151801	34.662	
N	 1.1427337932	-0.4431421293	 0.337417357	-0.542798
C	-0.1114355722	 0.0656304123	 0.5312232885	 0.369538
O	-0.2780875277	 1.1866976287	 0.9817999958	-0.372578
C	-1.2836265296	-0.8215598509	 0.1922609627	 0.22499
C	-2.6366914745	-0.177543894	 0.4864574729	-0.347874
C	-2.9821951545	 0.8888007138	-0.5371133311	 0.15377
O	-3.8836076578	 0.7835067697	-1.3316685052	-0.249609
C	-1.1960615244	-1.7582683613	-1.004872245	-0.305093
C	-1.1533647439	-2.3257476755	 0.3799900917	-0.315687
H	 1.91382657	 0.1881182194	 0.4799716373	 0.265745
H	 1.3199913212	-1.3014931885	-0.1523014596	 0.258743
H	-3.4272344105	-0.9320833961	 0.4620139884	 0.107885
H	-2.5997989975	 0.2841932155	 1.4788477627	 0.135015
H	-2.3234749288	 1.7805050248	-0.5179383333	 0.105298
H	-2.1045303528	-1.8802175305	-1.5846138414	 0.144583
H	-0.2926815001	-1.7467461072	-1.6048203431	 0.11578
H	-0.215162232	-2.7066549941	 0.7677214603	 0.121266
H	-2.0276859281	-2.8498278368	 0.7493622915	 0.131027
37.2432	60.6063	81.4594	180.9258	196.452	260.6096	301.5569	324.2253	387.1584	465.9057	492.0072	535.4567	556.8585	690.1422	757.1793	780.211	831.0601	885.3565	916.4175	953.9744	963.4688	1047.5564	1059.8232	1071.1443	1090.0821	1099.4708	1192.8819	1198.5045	1250.2006	1303.7646	1332.6997	1399.3113	1412.5038	1450.6007	1480.2055	1506.9883	1621.8457	1768.8008	1822.9091	2937.9284	3050.8853	3114.1068	3135.7032	3140.2919	3213.9749	3228.6877	3612.0693	3743.862
NC(=O)C1(CC=O)CC1	NC(=O)C1(CC=O)CC1	
InChI=1S/C6H9NO2/c7-5(9)6(1-2-6)3-4-8/h4H,1-3H2,(H2,7,9)	InChI=1S/C6H9NO2/c7-5(9)6(1-2-6)3-4-8/h4H,1-3H2,(H2,7,9)
