21
gdb 69982	2.88472	1.69761	1.57304	1.6622	80.43	-0.2407	0.0878	0.3286	976.6996	0.18551	-387.082382	-387.075226	-387.074282	-387.113343	30.544	
C	-0.0126318964	 1.4972777957	-0.0099869825	-0.487799
C	-0.0194040019	-0.0124880034	 0.0327317272	 0.356926
C	-0.8426374936	-0.7359045587	 1.078123133	-0.35247
C	 0.6596146329	-0.8238104341	 1.1287760296	-0.070857
C	 1.3340515853	-1.9632692374	 0.3365689047	 0.088137
C	 1.8379012359	-1.2040266648	-0.9035023199	-0.224309
C	 0.3926206543	-0.7646347052	-1.266066744	-0.104466
C	-0.2555838355	-2.1512135638	-1.3254623333	-0.09653
O	 0.344392126	-2.8513066913	-0.215136693	-0.279706
H	 0.9177513438	 1.8823599996	-0.4446365064	 0.113403
H	-0.8429689222	 1.8871111818	-0.611217972	 0.116046
H	-0.1072880158	 1.9197740558	 0.9956426436	 0.114428
H	-1.3152922057	-0.1027825341	 1.8232747493	 0.100838
H	-1.4017121202	-1.632390716	 0.8430321896	 0.129081
H	 1.2079744494	-0.3592648123	 1.942733588	 0.076381
H	 2.0489945034	-2.5636204783	 0.8995772297	 0.072862
H	 2.4919218262	-0.3646900404	-0.6561291878	 0.097564
H	 2.3165862429	-1.846064103	-1.6496655446	 0.094321
H	 0.2672108292	-0.1756259609	-2.1756225125	 0.063132
H	-1.3440207148	-2.1326858343	-1.2065054372	 0.099797
H	-0.0173412431	-2.6718473751	-2.2627724816	 0.093222
185.3977	214.0867	281.1768	322.4333	382.0166	425.6895	484.565	515.5172	595.488	674.1594	758.2606	782.2	818.5878	863.4627	889.2469	899.016	930.7043	949.997	957.6776	965.3046	971.9154	996.3485	1032.1912	1051.5612	1069.9507	1085.7167	1105.2637	1128.0776	1142.2146	1173.7523	1213.029	1243.4519	1256.7831	1277.7405	1287.4783	1310.2656	1329.3183	1380.7104	1391.0626	1418.3472	1485.4985	1489.18	1491.9584	1500.7092	1535.0073	3009.3077	3016.934	3055.0991	3063.0742	3073.1307	3094.2671	3108.2057	3116.4568	3117.8004	3133.3687	3153.0536	3226.3241
CC12CC1C1CC2CO1	C[C@]12C[C@H]1[C@@H]1C[C@H]2CO1	
InChI=1S/C8H12O/c1-8-3-6(8)7-2-5(8)4-9-7/h5-7H,2-4H2,1H3	InChI=1S/C8H12O/c1-8-3-6(8)7-2-5(8)4-9-7/h5-7H,2-4H2,1H3/t5-,6-,7-,8+/m0/s1
