16
gdb 100457	4.11451	0.63071	0.58396	21.512	80.62	-0.161	-0.0492	0.1118	1833.9558	0.122793	-474.923172	-474.913235	-474.912291	-474.960489	33.799	
N	 0.0899624124	 0.703642012	 0.382990277	-0.419063
H	-0.4409269024	-0.191818396	 0.5471230145	 0.335499
H	 1.0485751474	 0.6484604153	 0.7254439259	 0.328018
H	 0.106727647	 0.8991305416	-0.6187700335	 0.32575
C	-0.7788491855	 1.6845849735	 1.1562262642	-0.216248
C	-2.2350681921	 1.1674691077	 1.0421504072	-0.033074
O	-2.1251960578	-0.2963463196	 0.9971450632	-0.463691
C	-2.9895146276	 1.6589480913	 2.1492826787	-0.096771
C	-3.4992831833	 2.0295651597	 3.1919656436	 0.066898
C	-4.0892956827	 2.4736587813	 4.5314406183	 0.263317
O	-4.4467473059	 1.5131712626	 5.223172746	-0.450843
O	-4.0737385803	 3.7002606885	 4.6765788991	-0.448006
H	-0.4543755925	 1.6378719668	 2.195560201	 0.190318
H	-0.644207515	 2.6907843368	 0.7620920422	 0.180288
H	-2.6489844041	 1.4513512763	 0.0648818184	 0.120697
H	-2.4951714276	-0.6122112177	 1.8331379443	 0.31691
24.5174	47.1309	57.2854	130.4989	165.5039	234.6421	312.9304	332.9847	362.868	449.0037	468.0054	544.6511	566.8263	594.178	761.4853	781.4198	797.5047	874.8173	908.8499	940.6882	1074.9935	1093.153	1124.1063	1222.8399	1298.6467	1302.3102	1330.4541	1357.93	1396.4817	1428.6106	1482.9947	1628.0931	1675.6085	1797.3729	2248.8569	2994.5331	3011.8436	3113.772	3186.4351	3469.3549	3540.9266	3764.9511
[NH3+]CC(O)C#CC([O-])=O	[NH3]C[C@@H](O)C#CC(=O)[O]	
InChI=1S/C5H7NO3/c6-3-4(7)1-2-5(8)9/h4,7H,3,6H2,(H,8,9)	InChI=1S/C5H7NO3/c6-3-4(7)1-2-5(8)9/h4,7H,3H2,6H3/t4-/m0/s1
