22
gdb 103940	3.00494	1.08365	0.95671	1.3425	82.55	-0.2387	0.0655	0.3042	1330.0694	0.193341	-404.308963	-404.299433	-404.298488	-404.343169	36.683	
C	-0.61099628	 1.6683941228	-0.0085382728	-0.482127
C	 0.0445006495	 0.2924652149	 0.0423907363	 0.333824
C	-0.9753698633	-0.8290440715	-0.1863130399	-0.113805
O	-1.55788594	-0.8143523069	-1.4804750944	-0.423965
C	 1.3107928863	 0.097562702	-0.8563612256	-0.356981
C	 2.0247178348	-0.5019371855	 0.3594018954	 0.383797
C	 2.7784574598	-1.774246837	 0.4064678409	-0.305259
N	 3.4490088896	-0.4814061105	 0.6683832678	-0.371233
C	 0.9217491109	-0.0136238792	 1.3022376274	-0.344808
H	 0.1198927073	 2.4613108579	 0.1781968973	 0.118986
H	-1.0535626287	 1.8651146297	-0.992824138	 0.108073
H	-1.4025377118	 1.7615636787	 0.7453535042	 0.113413
H	-0.4776259741	-1.8009605372	-0.1009503446	 0.109763
H	-1.7465412472	-0.7869486833	 0.6007144335	 0.084362
H	-2.1196088387	-0.0363467084	-1.544982068	 0.284554
H	 1.179320152	-0.5341458544	-1.7386371222	 0.113251
H	 1.7489077543	 1.0526014532	-1.1672756657	 0.093394
H	 2.699335477	-2.4270694111	 1.2723861199	 0.116052
H	 2.9776623669	-2.2876633324	-0.5314799949	 0.110945
H	 3.9783416387	-0.1945731717	-0.1524161678	 0.227406
H	 1.2132235184	 0.8902950207	 1.8452513093	 0.103504
H	 0.5179781082	-0.7379048207	 2.017003452	 0.096854
54.0833	113.7629	196.0517	223.2718	263.0319	289.2679	306.7414	325.2767	339.7493	372.1818	419.6686	473.8736	570.7256	707.0203	798.4095	848.1876	872.5696	890.1839	898.7284	911.0457	958.7249	965.4659	978.9095	992.2095	1031.5049	1073.2617	1090.7309	1117.2902	1132.8096	1155.3172	1163.0729	1228.4148	1235.8063	1266.1911	1288.9523	1295.7784	1326.4401	1378.3227	1406.2965	1412.5631	1423.3877	1470.2783	1489.347	1491.9847	1500.8382	1507.2253	1512.6315	2967.7298	3015.9112	3037.054	3044.977	3070.4484	3077.015	3094.4409	3097.5015	3097.9908	3100.2711	3182.027	3485.4069	3828.4982
CC1(CO)CC2(CN2)C1	C[C@@]1(CO)C[C@]2(CN2)C1	
InChI=1S/C7H13NO/c1-6(5-9)2-7(3-6)4-8-7/h8-9H,2-5H2,1H3	InChI=1S/C7H13NO/c1-6(5-9)2-7(3-6)4-8-7/h8-9H,2-5H2,1H3/t6-,7-
