23
gdb 93020	2.16533	1.79687	1.18429	0.3559	90.42	-0.219	0.0252	0.2443	1152.5622	0.206945	-351.170229	-351.161447	-351.160503	-351.20289	35.545	
C	 0.1105289625	 1.5807825427	-0.0432862327	-0.399966
C	 0.0422574131	 0.0479226113	 0.0263554778	-0.033943
C	 0.5193575115	-0.5616064759	-1.3126377267	-0.278705
C	 0.7351484698	-2.0501524397	-1.2583047833	-0.098069
C	 1.0823276888	-2.6694086518	-0.1291907029	-0.039682
C	 1.2786227477	-1.9420463903	 1.1454923507	-0.1215
C	 2.2524506078	-0.7669673612	 1.2024579072	-0.330394
C	 0.7688059269	-0.5142633382	 1.2505900739	 0.360406
C	 0.1829439456	-0.1017430581	 2.5888025523	-0.471223
H	 1.1516811514	 1.9198699162	-0.0921761097	 0.114027
H	-0.4040231763	 1.9519151884	-0.9361056582	 0.108721
H	-0.355487335	 2.0546040821	 0.8252013964	 0.11283
H	-1.0128258045	-0.2397552395	 0.1456610261	 0.071817
H	-0.2153771517	-0.3132844014	-2.0879374679	 0.099252
H	 1.4465948135	-0.0604778274	-1.629880185	 0.105869
H	 0.6197399639	-2.6135875665	-2.1799221378	 0.08261
H	 1.2389280524	-3.7448253916	-0.1182227596	 0.082277
H	 1.2160392759	-2.54583343	 2.0461196403	 0.076066
H	 2.8232970529	-0.6248891939	 2.1145716175	 0.104536
H	 2.8033381649	-0.5438720054	 0.2953816705	 0.113383
H	 0.28897177	 0.9738231752	 2.7672431856	 0.116979
H	-0.8848984431	-0.3453427665	 2.6433826355	 0.113764
H	 0.6844686419	-0.6195589485	 3.4124176101	 0.110945
105.5698	182.1873	221.8707	233.8074	277.4948	298.0733	345.8127	384.7819	419.1783	463.2743	523.5245	556.2298	649.0682	721.2569	772.5256	803.9967	864.6833	881.9672	919.7389	922.6919	950.1496	983.4359	1001.1935	1018.7061	1036.9481	1055.3093	1095.9832	1097.6754	1113.6143	1124.8443	1148.8653	1196.4646	1220.0959	1262.181	1310.666	1329.0334	1358.0383	1375.1969	1403.7894	1407.6394	1417.087	1431.5185	1474.9046	1489.0248	1492.3087	1496.45	1503.2839	1509.6464	1714.4937	2984.0643	2996.0611	3022.8033	3030.217	3045.1807	3083.6598	3094.1236	3096.7541	3109.4586	3126.7543	3141.764	3153.3982	3174.7305	3213.114
CC1CC=CC2CC12C	C[C@H]1CC=C[C@H]2C[C@@]12C	
InChI=1S/C9H14/c1-7-4-3-5-8-6-9(7,8)2/h3,5,7-8H,4,6H2,1-2H3	InChI=1S/C9H14/c1-7-4-3-5-8-6-9(7,8)2/h3,5,7-8H,4,6H2,1-2H3/t7-,8-,9-/m0/s1
