20
gdb 19469	4.41905	1.48295	1.42266	0.2914	79.02	-0.2208	0.0198	0.2407	989.897	0.178716	-311.837151	-311.82989	-311.828946	-311.868524	29.216	
C	-0.0380248297	 1.5705729405	 0.0934315016	-0.376761
C	 0.0068313388	 0.0414928284	 0.2105028824	-0.224137
C	-1.3734233731	-0.5935125263	 0.0635610362	 0.078981
C	-2.0312307321	-0.6989817265	-1.3731204821	-0.078332
C	-1.1527374571	-1.9797821811	-1.5788946797	-0.214929
C	-1.4849638371	-2.1654231672	-0.0587361289	-0.09102
C	-3.0103515159	-2.3107309043	-0.1356251653	-0.087719
C	-3.3674854297	-1.3512508079	-0.9957330221	-0.085796
H	 0.9541371008	 2.0093457655	 0.2378243635	 0.110814
H	-0.4001382417	 1.8829203419	-0.8917037103	 0.117101
H	-0.7077796005	 2.0048731901	 0.8438349413	 0.11474
H	 0.7142059805	-0.358316682	-0.5236602287	 0.096607
H	 0.4063579717	-0.2333195681	 1.1961882257	 0.095252
H	-2.0451342904	-0.1664573585	 0.8163873588	 0.061279
H	-2.0347097465	 0.1299122835	-2.0810989173	 0.055497
H	-1.5362142642	-2.7375353395	-2.2657144004	 0.090812
H	-0.0998772697	-1.7752192746	-1.7878978744	 0.093279
H	-0.9231426494	-2.8408822321	 0.5871668741	 0.053753
H	-3.6157354204	-3.0253135759	 0.4035107394	 0.095456
H	-4.3458073542	-1.0642629759	-1.3540185438	 0.095123
90.1109	167.012	208.0226	308.5302	371.0268	478.4916	521.6483	546.9563	681.6525	720.4381	761.8345	828.7383	839.3827	867.4819	898.8848	908.4382	914.185	928.5523	958.3725	988.7849	1026.4666	1070.3918	1081.0154	1097.1105	1113.9105	1120.8135	1153.4767	1209.2353	1230.7915	1240.4889	1246.2929	1253.6875	1292.3768	1317.928	1345.487	1399.1798	1412.8677	1482.2511	1499.5428	1501.3238	1511.3438	1620.407	3017.9307	3031.4462	3039.9625	3058.2708	3069.9673	3100.3562	3102.8909	3109.6624	3113.947	3123.9295	3218.2525	3245.5429
CCC1C2CC1C=C2	CC[C@H]1[C@H]2C[C@@H]1C=C2	
InChI=1S/C8H12/c1-2-8-6-3-4-7(8)5-6/h3-4,6-8H,2,5H2,1H3	InChI=1S/C8H12/c1-2-8-6-3-4-7(8)5-6/h3-4,6-8H,2,5H2,1H3/t6-,7+,8+
