16
gdb 12648	3.191	1.94974	1.27281	4.4675	64.97	-0.2299	-0.0869	0.143	936.7191	0.129787	-383.785778	-383.778048	-383.777103	-383.818036	28.278	
C	-0.3574350921	 1.5053109343	-0.0024466743	-0.403371
C	 0.1022969034	 0.0509143087	-0.0141880412	-0.093907
C	 0.9338266188	-0.4061947575	-1.2367218074	-0.241536
C	 1.6692881044	-1.6840871353	-0.7789155262	-0.334827
C	 1.9422310744	-1.4613850394	 0.701283157	 0.321726
O	 2.7411051729	-2.0138913673	 1.4069458527	-0.276407
C	 0.9761028361	-0.3296237498	 1.1745473209	 0.308797
O	 0.9688195772	 0.1438765939	 2.2788651835	-0.287706
H	 0.4958852706	 2.1830543612	-0.1087398116	 0.12563
H	-1.0543585851	 1.7054905979	-0.8213560029	 0.118332
H	-0.8518361786	 1.7399964182	 0.9436197982	 0.141711
H	-0.7789943579	-0.6082953537	 0.0580804139	 0.112449
H	 0.3159506114	-0.5679565616	-2.1226184087	 0.114757
H	 1.6634489894	 0.3726261978	-1.4886581967	 0.117172
H	 1.0154789686	-2.5626317861	-0.8687266804	 0.13875
H	 2.5872454866	-1.9085555912	-1.3261329768	 0.13843
68.6857	153.7469	185.6054	230.8499	307.8787	319.2027	427.9517	502.5323	560.3577	564.045	681.5708	710.9694	832.1951	887.4048	941.2455	970.7364	1000.3828	1011.3394	1066.2066	1125.8384	1170.6811	1179.532	1219.8942	1291.5384	1304.8916	1308.9936	1354.0841	1408.9081	1448.3946	1492.3985	1496.6603	1504.6722	1840.6459	1859.8943	2975.8377	3027.1004	3041.0322	3044.2492	3102.9154	3110.2783	3113.7288	3124.9752
CC1CCC(=O)C1=O	C[C@H]1CCC(=O)C1=O	
InChI=1S/C6H8O2/c1-4-2-3-5(7)6(4)8/h4H,2-3H2,1H3	InChI=1S/C6H8O2/c1-4-2-3-5(7)6(4)8/h4H,2-3H2,1H3/t4-/m0/s1
