18
gdb 72105	2.86307	1.74448	1.57721	0.8232	69.61	-0.1932	0.0744	0.2675	919.9759	0.150552	-439.06079	-439.053763	-439.052819	-439.091816	29.065	
O	-0.0981903032	 1.4098181372	 0.0154199528	-0.473129
C	 0.0221980926	 0.0250890103	-0.0310034685	 0.337687
C	 1.1817120502	-0.6862340389	 0.6510406694	-0.296834
C	 0.9933948881	-2.1116968409	 0.0976636964	 0.046272
C	-0.1551303808	-2.8138385474	 0.8241051826	-0.149316
N	-1.3466101105	-1.9383384416	 0.8229687659	-0.313435
C	-1.2332038262	-0.8031949149	-0.0678349816	-0.076882
C	-0.2757584115	-0.8261480389	-1.2537337738	-0.006545
O	 0.6006211271	-1.9309456266	-1.2772387083	-0.268261
H	 0.6283296211	 1.7895891545	-0.4932593482	 0.279207
H	 2.1358529192	-0.2522206377	 0.3299424029	 0.09391
H	 1.127486259	-0.6573726853	 1.7424496909	 0.118227
H	 1.8991882748	-2.720015862	 0.1080566812	 0.085632
H	-0.3470795039	-3.7654223689	 0.3128868345	 0.100826
H	 0.1410623497	-3.0455867602	 1.8575454999	 0.096368
H	-2.1709477379	-2.4742523392	 0.5833190233	 0.224853
H	-2.1543500195	-0.2437720594	-0.1903921831	 0.102355
H	-0.5236658486	-0.43895428	-2.2351643263	 0.099065
137.8775	247.1104	309.5757	350.4919	369.5722	398.218	515.4645	517.5696	597.0222	670.2727	691.6181	735.5989	816.3938	842.8212	878.4909	912.6198	931.7796	953.0147	977.7845	1014.0439	1045.9234	1063.67	1079.1223	1113.7306	1140.3682	1182.25	1212.1187	1235.2202	1251.4081	1276.9401	1288.9182	1325.3188	1346.0561	1362.0202	1396.7232	1448.0949	1476.1969	1506.1528	1510.6827	2992.5537	3035.0801	3038.0196	3101.9249	3104.478	3173.3635	3184.3337	3551.4265	3775.0885
OC12CC3CNC1C2O3	O[C@@]12C[C@H]3CN[C@@H]1[C@@H]2O3	
InChI=1S/C6H9NO2/c8-6-1-3-2-7-4(6)5(6)9-3/h3-5,7-8H,1-2H2	InChI=1S/C6H9NO2/c8-6-1-3-2-7-4(6)5(6)9-3/h3-5,7-8H,1-2H2/t3-,4+,5-,6-/m0/s1
