23
gdb 104178	2.87719	1.12212	1.0692	0.6336	81.71	-0.2549	0.0856	0.3405	1315.4204	0.204569	-425.444221	-425.434235	-425.433291	-425.479154	37.503	
C	 0.0287843303	 1.3858042377	 0.0555625819	-0.253402
O	-0.0390688443	-0.029165914	 0.0439920379	-0.283377
C	-1.3445892414	-0.5894223463	-0.0163678377	 0.490953
C	-2.1058799267	-0.1650688601	-1.2679706386	-0.453714
C	-1.1389552715	-2.1169917276	 0.1445031723	-0.306609
C	-1.7711856058	-2.4603973543	 1.5125327535	 0.037655
C	-1.0247954716	-3.5205200548	 2.3192206964	-0.410707
C	-1.8304227146	-1.0766040273	 2.1748689459	-0.103952
O	-2.1142586424	-0.1801673707	 1.1064802492	-0.275481
H	 1.0506166948	 1.6463169991	 0.3428023238	 0.120441
H	-0.1738422056	 1.8198360731	-0.9333317576	 0.104903
H	-0.6695950857	 1.8142139636	 0.7831546719	 0.124461
H	-1.5095270439	-0.3720850378	-2.1607540169	 0.122504
H	-3.0467820806	-0.717024809	-1.332373808	 0.120755
H	-2.344555343	 0.9007266052	-1.2391630394	 0.125816
H	-1.5965735899	-2.6743507058	-0.6759733362	 0.101548
H	-0.0660722686	-2.3225410643	 0.1370047626	 0.116026
H	-2.803139437	-2.794361808	 1.3504695775	 0.075343
H	 0.0117900787	-3.2154305973	 2.5015771631	 0.119877
H	-1.5011870208	-3.6916748931	 3.2907990284	 0.113847
H	-1.0018055202	-4.4786208479	 1.790234652	 0.117985
H	-2.6231154205	-0.9717145732	 2.9202928148	 0.101981
H	-0.8674781194	-0.8294836872	 2.6476608732	 0.093146
39.4769	122.4241	157.5708	196.31	229.7194	236.8649	272.826	284.0771	351.407	368.6083	416.3053	447.1113	541.4438	603.327	652.913	792.5986	842.1105	853.759	906.6917	919.2542	936.9209	967.8945	1038.4169	1065.7351	1095.4468	1104.2777	1135.2651	1171.8116	1178.9293	1183.724	1203.5589	1228.3841	1270.9834	1274.6327	1319.6672	1341.0222	1353.1055	1399.3632	1405.0457	1414.7572	1465.4277	1481.7236	1484.2907	1488.233	1497.836	1500.9085	1504.0867	1513.9913	1514.7345	2988.621	3002.8137	3027.7644	3029.287	3050.9574	3069.5403	3071.2993	3091.7104	3095.9065	3100.6708	3114.3799	3118.1499	3128.1088	3131.0268
COC1(C)CC(C)CO1	CO[C@@]1(C)C[C@@H](C)CO1	
InChI=1S/C7H14O2/c1-6-4-7(2,8-3)9-5-6/h6H,4-5H2,1-3H3	InChI=1S/C7H14O2/c1-6-4-7(2,8-3)9-5-6/h6H,4-5H2,1-3H3/t6-,7-/m1/s1
