15
gdb 80272	2.83102	1.62781	1.43116	4.128	67.52	-0.2584	-0.0486	0.2097	938.0103	0.113091	-457.779442	-457.772021	-457.771077	-457.811454	28.263	
O	 0.1482283004	 1.2198324829	-0.4022086036	-0.410113
C	 0.0134479697	-0.1325893881	-0.1461349444	 0.078691
C	-0.4465622756	-0.5687487785	 1.2098160143	 0.043392
O	-0.6816267272	 0.4277514833	 2.1691661975	-0.253441
C	-1.6956298338	 1.3554257646	 2.0421892344	 0.401095
O	-1.7388943147	 2.2520870776	 2.84163961	-0.332083
C	-2.6785500336	 1.1479688156	 0.9694780161	-0.1999
C	-2.5694263952	 0.1672449945	 0.0664671591	-0.030768
C	-1.4025161664	-0.7182999561	 0.0402128386	-0.1931
H	 0.5788831185	 1.630965787	 0.3573104485	 0.307662
H	 0.7121766697	-0.7764929483	-0.676918255	 0.109586
H	-0.017605495	-1.4465353292	 1.6797056191	 0.122963
H	-3.5181526688	 1.8310515787	 0.994331612	 0.125916
H	-3.3472965823	 0.0117285231	-0.6754870046	 0.120304
H	-1.5492631358	-1.712945717	-0.366480682	 0.109796
85.4909	150.2377	213.2412	270.5482	329.9604	435.208	495.6518	531.6222	571.5071	659.0839	738.1167	751.5778	773.6643	802.3602	849.5497	893.4665	937.6332	997.1418	1002.5623	1050.3144	1089.6776	1116.7396	1158.0268	1172.236	1221.4128	1259.1246	1339.3035	1364.5211	1373.6962	1418.9046	1429.8619	1688.2038	1830.3334	3122.3065	3163.9363	3173.005	3178.8019	3220.9629	3781.0726
OC1C2OC(=O)C=CC12	O[C@H]1[C@H]2OC(=O)C=C[C@@H]12	
InChI=1S/C6H6O3/c7-4-2-1-3-5(8)6(3)9-4/h1-3,5-6,8H	InChI=1S/C6H6O3/c7-4-2-1-3-5(8)6(3)9-4/h1-3,5-6,8H/t3-,5+,6-/m0/s1
