15
gdb 28393	3.19511	1.4251	0.98739	3.499	76.5	-0.1835	-0.0247	0.1588	1120.3137	0.115463	-450.169806	-450.162041	-450.161097	-450.20177	30.466	
N	 0.1120292989	 1.3837417594	-0.2073583351	-0.589004
C	-0.029481847	 0.0101313834	 0.0046909881	 0.385982
C	-1.178459809	-0.707021247	-0.1218251334	-0.154463
N	-1.1840670546	-2.0793598022	 0.0160736338	-0.339852
C	-0.0896742034	-2.6865121368	 0.3063397291	 0.344914
O	-0.062358854	-4.0304461752	 0.4550949945	-0.417031
C	 1.2172629446	-2.0379664463	 0.4951218988	 0.308679
N	 2.3465593608	-2.5701724242	 0.7785639639	-0.564202
N	 1.1299640621	-0.6624077146	 0.3030727644	-0.377177
H	 0.5987596692	 1.8615288987	 0.5434355983	 0.252601
H	-0.777080209	 1.8348655938	-0.3765295941	 0.258587
H	-2.1244935367	-0.2266604756	-0.3342615936	 0.097067
H	-0.9664341264	-4.3365367413	 0.2997762628	 0.299982
H	 2.2326032736	-3.5766078067	 0.8738850202	 0.232607
H	 2.0109306208	-0.1681425956	 0.3182402822	 0.261311
120.5873	167.2084	263.5007	322.21	334.2526	395.7104	418.5039	490.0103	527.7718	534.2172	577.8973	618.4472	647.8792	708.9855	742.1351	768.2352	787.7836	809.6153	823.9694	1038.9881	1086.541	1157.5407	1162.4295	1267.6361	1288.9265	1355.9108	1377.6154	1442.8624	1522.1388	1623.8958	1644.8649	1679.5507	1706.2826	3207.9879	3519.3543	3527.7352	3610.8155	3626.8634	3775.331
NC1=CN=C(O)C(=N)N1	Nc1cnc(O)c([NH])[nH]1	
InChI=1S/C4H6N4O/c5-2-1-7-4(9)3(6)8-2/h1H,(H,7,9)(H4,5,6,8)	InChI=1S/C4H11N4O/c5-2-1-7-4(9)3(6)8-2/h2-4,6-9H,1,5H2
