14
gdb 5098	3.3806	2.0319	1.27816	0.8452	60.15	-0.1755	0.0497	0.2252	887.195	0.107748	-415.867613	-415.859558	-415.858614	-415.899554	29.736	
N	-0.0042244319	 1.4162397187	 0.0764186664	-0.613652
C	-0.0322226167	 0.0225171947	 0.0302588731	 0.236022
C	-1.0786875819	-0.8453306716	 0.0368362416	-0.141726
O	-0.591753033	-2.1532301761	 0.0329449651	-0.201752
C	 0.7486033167	-2.0636690041	 0.0363174911	 0.37951
O	 1.4512503345	-3.2125784309	 0.0158063749	-0.436145
C	 1.1754874165	-0.772708877	 0.0276420558	 0.003959
N	 2.4835094469	-0.2270804902	-0.0536655851	-0.628638
H	 0.8596273147	 1.7666851893	-0.3222813258	 0.250491
H	-0.8025143463	 1.8582498673	-0.3583119815	 0.241744
H	-2.1487438808	-0.747458513	 0.0531554756	 0.117388
H	 0.8303290226	-3.9377496149	-0.1199683689	 0.306337
H	 3.1138408231	-0.8618344009	-0.5311332738	 0.243636
H	 2.8778668656	-0.0485767312	 0.8658554015	 0.242824
134.0732	170.2694	197.8014	238.3386	290.4088	301.8568	328.845	377.1397	550.0019	558.0845	579.7055	625.5238	691.6346	740.6943	759.4713	784.5791	846.2475	1026.2338	1074.9234	1130.83	1167.0646	1240.0304	1275.2575	1327.8226	1383.0483	1485.646	1628.9534	1650.0739	1662.768	1740.0838	3299.58	3485.7398	3524.9347	3572.6393	3628.4551	3817.349
NC1=COC(O)=C1N	Nc1coc(O)c1N	
InChI=1S/C4H6N2O2/c5-2-1-8-4(7)3(2)6/h1,7H,5-6H2	InChI=1S/C4H6N2O2/c5-2-1-8-4(7)3(2)6/h1,7H,5-6H2
