20
gdb 96620	2.72149	1.16871	0.84524	1.1371	81.74	-0.2323	-0.0189	0.2134	1398.3387	0.16941	-436.497965	-436.487148	-436.486204	-436.534521	37.77	
C	 0.5838638838	 1.5901413276	 0.1282217054	-0.344954
N	 0.4970745564	 0.1446504726	 0.2272755188	-0.301488
C	 0.5689994726	-0.5211350519	-0.8635533994	 0.267539
N	 0.6932103115	-0.0150644221	-2.1308671268	-0.531372
C	 0.5624786427	-2.0549628604	-0.9139785209	 0.405136
O	 1.0177853392	-2.5693152006	-1.9351737896	-0.412741
N	 0.0981215117	-2.8005486024	 0.1222407997	-0.107657
C	 0.1988463014	-4.250278544	 0.0156380152	-0.341778
C	-0.6033368745	-2.3344792924	 1.3104395306	-0.339213
H	 1.5471326845	 1.9229252084	-0.2935085141	 0.108779
H	-0.2122895584	 2.013240765	-0.5042002778	 0.117757
H	 0.494565182	 2.0310011223	 1.1239227929	 0.124515
H	 1.0298767937	 0.9265322872	-2.240146706	 0.254069
H	 1.0004707002	-0.7004196576	-2.808276206	 0.27332
H	 0.6552960218	-4.6545893002	 0.9263848095	 0.123384
H	-0.7965039296	-4.6995278412	-0.0953203937	 0.123708
H	 0.8056185197	-4.5045635033	-0.8500819436	 0.16788
H	-0.6816122984	-1.2528108045	 1.3020652771	 0.179608
H	-1.5988146279	-2.7960608477	 1.3500367663	 0.112718
H	-0.0548233823	-2.640080155	 2.2103513723	 0.120792
42.9225	76.1618	95.5086	130.3449	172.6955	181.7025	221.7605	269.1831	320.8142	355.0434	382.5784	418.9859	452.0986	521.235	606.4735	627.5895	671.2928	749.9236	807.2578	955.4311	1010.3034	1080.2263	1101.4999	1110.8222	1132.8802	1172.6098	1183.3256	1201.9586	1271.7986	1338.7461	1428.8235	1432.623	1439.9271	1465.9416	1489.3797	1492.5818	1495.5054	1503.5338	1509.7041	1546.1922	1588.5269	1709.3094	1729.5613	2959.6736	3008.336	3008.7003	3020.5487	3055.7807	3069.8031	3102.3979	3181.6636	3201.9181	3558.4472	3700.4188
CN=C(N)C(=O)N(C)C	CN=C(N)C(=O)N(C)C	
InChI=1S/C5H11N3O/c1-7-4(6)5(9)8(2)3/h1-3H3,(H2,6,7)	InChI=1S/C5H11N3O/c1-7-4(6)5(9)8(2)3/h1-3H3,(H2,6,7)
