20
gdb 85285	2.44143	1.58955	1.17602	3.486	80.94	-0.249	0.0293	0.2783	1126.7402	0.171267	-403.173249	-403.164611	-403.163667	-403.206094	33.529	
C	 0.1060484875	 1.5378901816	-0.1043332395	-0.40323
C	-0.0128449904	 0.0331296686	 0.0748253833	 0.065737
O	 0.5125626405	-0.6268270474	-1.0987563977	-0.265482
C	 1.155418743	-1.7929714101	-0.760309295	 0.415715
N	 1.4366643149	-2.7191936757	-1.5719119034	-0.554388
C	 1.4619860601	-1.7723748565	 0.6912175553	-0.165825
C	 2.2291958072	-0.5429101043	 1.1510213961	-0.337181
C	 0.7329795735	-0.5743231336	 1.2632176087	 0.321468
C	 0.0466772458	-0.576873603	 2.6065084486	-0.491259
H	 1.1530343046	 1.843855764	-0.17728624	 0.126596
H	-0.411811845	 1.8556646618	-1.0131880978	 0.131455
H	-0.3489601745	 2.0547845373	 0.7464742107	 0.121207
H	-1.0754162298	-0.2401188431	 0.1565326745	 0.083363
H	 1.0785078195	-2.4942373287	-2.5018367648	 0.219264
H	 1.5813197786	-2.7144049001	 1.2086139251	 0.111529
H	 2.794675168	-0.6492654533	 2.070259884	 0.119031
H	 2.7061383674	 0.0744415008	 0.3969145763	 0.127256
H	-0.0915722912	 0.4426050113	 2.9847803069	 0.125184
H	-0.9404168445	-1.0491210258	 2.5481284844	 0.124474
H	 0.6367602147	-1.1239296538	 3.3474898843	 0.125087
122.5871	140.2253	194.6909	219.3368	238.2766	286.2363	322.3607	376.3258	477.8848	503.969	563.6538	653.729	690.1458	731.1664	803.0276	863.3836	886.1288	900.6684	925.682	960.2042	988.8672	1023.8369	1057.0314	1069.2473	1075.9846	1091.4125	1119.5386	1133.3778	1146.3797	1241.5738	1275.2149	1326.326	1364.9206	1381.7873	1406.1967	1412.1411	1425.6759	1485.7299	1487.9491	1489.8818	1497.041	1501.8986	1777.6398	2991.9414	3027.2087	3045.3497	3086.4269	3107.3405	3117.3201	3126.5109	3131.7794	3212.4246	3220.9835	3471.0291
CC1OC(=N)C2CC12C	C[C@H]1O[C]([NH])[C@H]2C[C@@]12C	
InChI=1S/C7H11NO/c1-4-7(2)3-5(7)6(8)9-4/h4-5,8H,3H2,1-2H3	InChI=1S/C7H11NO/c1-4-7(2)3-5(7)6(8)9-4/h4-5,8H,3H2,1-2H3/t4-,5-,7+/m1/s1
