19
gdb 69347	2.74253	1.34249	1.09678	2.9968	80.41	-0.2634	0.0296	0.293	1168.3958	0.159352	-382.056753	-382.047852	-382.046908	-382.089876	34.24	
C	-0.0087145382	 1.5583000208	 0.0495995956	-0.500198
C	 0.038923256	 0.0587288326	 0.0076878384	 0.376528
C	-0.8706224065	-0.8312960256	 0.8051220588	-0.340841
C	 0.6157665319	-0.9356889289	 1.0216460161	-0.112724
C	 1.2453803982	-1.7709551298	-0.1112946418	 0.138348
N	 0.7500791544	-3.1387504641	-0.235039421	-0.541126
C	 0.6413163637	-0.7524575738	-1.1497803302	-0.326312
C	 2.715173166	-1.7018371582	-0.0736335098	 0.227223
N	 3.8718438162	-1.6945502006	-0.04365212	-0.347259
H	 0.9642187154	 1.9964098502	-0.1997267069	 0.12495
H	-0.7431979981	 1.9503506797	-0.6642711835	 0.124153
H	-0.2934673217	 1.9156573229	 1.0444250251	 0.121705
H	-1.4048310364	-0.3396472215	 1.6122551991	 0.113506
H	-1.4043266027	-1.6540615128	 0.3396466593	 0.127769
H	 1.0901547907	-0.7558246706	 1.9785863459	 0.09977
H	 1.1523109948	-3.5813718199	-1.0574456113	 0.240541
H	 1.0481021243	-3.6901861647	 0.56572851	 0.240001
H	-0.0652879081	-1.2001190317	-1.8545746684	 0.108147
H	 1.4170341301	-0.215666364	-1.6986326553	 0.125819
94.9005	156.0291	205.1021	212.9852	226.5238	283.426	322.0925	377.6879	421.2005	467.136	500.8214	571.3934	625.5759	683.1691	785.6395	818.2673	876.8555	893.5538	906.0404	952.4507	975.7356	982.1183	1034.3466	1043.6158	1075.1687	1091.9546	1137.561	1169.8483	1215.622	1245.8981	1267.9552	1296.4398	1306.401	1395.0032	1426.5295	1474.0106	1485.9641	1496.3842	1503.2667	1651.9787	2337.874	3022.9052	3058.4358	3082.3788	3099.7266	3123.2155	3124.9311	3188.2531	3211.1759	3480.5922	3561.2094
CC12CC1C(N)(C2)C#N	C[C@]12C[C@H]1[C@@](N)(C2)C#N	
InChI=1S/C7H10N2/c1-6-2-5(6)7(9,3-6)4-8/h5H,2-3,9H2,1H3	InChI=1S/C7H10N2/c1-6-2-5(6)7(9,3-6)4-8/h5H,2-3,9H2,1H3/t5-,6-,7-/m1/s1
