17
gdb 77133	2.71546	1.24318	0.93018	6.2049	70.29	-0.2399	0.0088	0.2487	1241.1759	0.135687	-455.178765	-455.169678	-455.168734	-455.213018	33.074	
C	-0.3001546494	 1.4549210641	 0.0176339207	-0.415159
C	 0.0446909231	-0.0271349838	 0.0979676417	-0.112295
C	 0.9991550224	-0.6320682515	-0.9884599559	-0.108773
N	 1.9781706899	-0.990596816	 0.0856878525	-0.347219
C	 1.1926896288	-0.4660210115	 0.9788941398	 0.400189
N	 1.4035773564	-0.3064560237	 2.304946645	-0.577684
H	 2.192856221	-0.7827238456	 2.7154184428	 0.269064
H	 0.61627129	-0.1431717074	 2.9092649433	 0.268226
C	 0.4795425395	-1.8315311206	-1.7684248956	 0.416728
O	-0.4235233202	-1.7706563847	-2.5592505624	-0.343566
O	 1.124127986	-2.9776576063	-1.4862109882	-0.372044
H	 0.5981690452	 2.0622495688	-0.1306985777	 0.130285
H	-0.9808013275	 1.639224358	-0.8185881297	 0.144304
H	-0.7931502906	 1.7985052797	 0.9332062439	 0.117131
H	-0.8600548145	-0.6274117599	 0.2406703933	 0.111351
H	 1.3792285565	 0.1113845423	-1.6970303232	 0.110342
H	 1.7923821934	-2.760858582	-0.8075435703	 0.309121
55.4032	98.0546	152.2654	213.7845	231.7983	266.93	323.8823	339.4954	392.6408	473.3838	510.7804	614.7296	677.8641	707.957	740.1654	743.106	813.6691	886.6397	954.1916	1001.8472	1066.5626	1091.162	1105.0999	1128.0009	1196.4316	1218.1581	1228.0181	1298.2785	1338.0276	1400.4831	1407.9518	1454.8789	1496.5533	1497.1777	1615.3275	1694.8644	1866.521	3035.7664	3055.3307	3060.3435	3103.9982	3117.0825	3584.8002	3588.6446	3711.8477
CC1C(NC1=[NH2+])C([O-])=O	C[C@H]1[C@@H]([N][C]1N)C(=O)O	
InChI=1S/C5H8N2O2/c1-2-3(5(8)9)7-4(2)6/h2-3H,1H3,(H2,6,7)(H,8,9)	InChI=1S/C5H8N2O2/c1-2-3(5(8)9)7-4(2)6/h2-3H,1H3,(H2,6,7)(H,8,9)/t2-,3+/m0/s1
