19
gdb 108610	2.9697	1.22859	0.88597	5.8902	82.82	-0.2001	0.0059	0.206	1306.1434	0.159431	-419.264553	-419.254796	-419.253852	-419.299375	34.776	
C	 0.0730496476	 1.4864362834	 0.0246322031	-0.330173
N	-0.1146141166	 0.0559696041	-0.1251363722	-0.372853
C	 0.5419136991	-0.6890234933	-1.0660779917	 0.299479
C	 0.6718871279	-2.0343362623	-1.1265072769	 0.060148
C	 0.166414372	-3.0775778704	-0.1827201985	-0.535917
C	 1.4086553051	-2.3793371945	-2.3558128586	 0.372925
O	 1.6518729185	-3.4823197493	-2.8068204014	-0.402158
N	 1.8051508145	-1.1727477997	-2.9323250398	-0.357566
C	 1.209181533	-0.0401518341	-2.2615886074	-0.255678
H	 1.0764064589	 1.7649070509	 0.381014203	 0.124299
H	-0.1032748157	 1.9949880591	-0.9280370364	 0.141628
H	-0.660594941	 1.8669576794	 0.7389513346	 0.134839
H	-0.3606753541	-0.4410998162	 0.7167547015	 0.248805
H	-0.9264838936	-3.0576140878	-0.0837786655	 0.118177
H	 0.4516245833	-4.0618004044	-0.5637586652	 0.156703
H	 0.5870073027	-2.9718975957	 0.8264382647	 0.112091
H	 2.0364221055	-1.1501750796	-3.9117352217	 0.243945
H	 0.4720548609	 0.4854075642	-2.8875275518	 0.122089
H	 1.9600712719	 0.7013273562	-1.9531884298	 0.119219
69.4317	102.5718	129.7666	168.5863	184.7993	218.6627	253.2039	267.9019	366.4548	413.5264	464.0047	549.3721	591.17	621.5538	694.6729	755.0265	770.0652	898.534	1009.9199	1053.6853	1059.7532	1070.7254	1101.7512	1143.5633	1151.0102	1200.8014	1207.0877	1278.6601	1338.1526	1383.8133	1408.2641	1435.9052	1472.4415	1479.5923	1491.6598	1493.5013	1498.0695	1507.5061	1523.0448	1711.3694	1805.1161	2986.8187	2989.7535	3006.4682	3013.9812	3050.2264	3077.1858	3116.208	3122.6803	3618.9054	3655.043
CNC1=C(C)C(=O)NC1	CNC1=C(C)C(=O)NC1	
InChI=1S/C6H10N2O/c1-4-5(7-2)3-8-6(4)9/h7H,3H2,1-2H3,(H,8,9)	InChI=1S/C6H10N2O/c1-4-5(7-2)3-8-6(4)9/h7H,3H2,1-2H3,(H,8,9)
