14
gdb 46832	2.72977	1.66353	1.19321	5.0419	68.83	-0.2521	-0.0129	0.2392	1001.4284	0.101039	-436.659041	-436.651573	-436.650629	-436.691016	28.287	
O	-0.0451678186	 0.0177718057	 0.2509189611	-0.327349
C	-0.0133512433	 1.187110131	 0.0189589278	 0.431303
O	-1.131521995	 1.9376593622	-0.1811667516	-0.233397
C	-0.8301397497	 3.2670497701	-0.638527805	-0.077244
C	 0.66923144	 3.4298090357	-0.4993060869	-0.132361
N	 1.1042167472	 3.2082564689	 0.8786025542	-0.357188
C	 1.2004933553	 2.0887727829	-0.1209635262	 0.044797
C	 2.464418928	 1.5594888901	-0.5128502616	 0.185212
C	 3.5339604656	 1.1129047297	-0.830355976	-0.377637
H	-1.1514539804	 3.3588933545	-1.6812373565	 0.127203
H	-1.3872424897	 3.9737289667	-0.0178525976	 0.138228
H	 1.2162401228	 4.0950058489	-1.1567378833	 0.124651
H	 2.045013557	 3.5801210602	 1.0014806389	 0.251007
H	 4.4744577307	 0.7074724534	-1.1123077974	 0.202774
121.3938	135.9439	192.4714	249.7561	383.4315	402.149	494.707	539.1119	582.5865	616.4221	665.0471	677.7147	720.7968	786.0845	842.5978	875.7961	922.6564	1009.3731	1029.0196	1067.9024	1083.048	1107.961	1180.8279	1234.7479	1281.1439	1337.5141	1398.0741	1425.447	1504.2824	1894.3745	2247.1774	3051.7569	3106.404	3192.669	3490.2779	3500.4863
O=C1OCC2NC12C#C	O=C1OC[C@H]2N[C@@]12C#C	
InChI=1S/C6H5NO2/c1-2-6-4(7-6)3-9-5(6)8/h1,4,7H,3H2	InChI=1S/C6H5NO2/c1-2-6-4(7-6)3-9-5(6)8/h1,4,7H,3H2/t4-,6-/m1/s1
