16
gdb 53623	3.64087	0.77205	0.69911	5.5422	81.76	-0.2588	-0.0408	0.218	1607.1448	0.122527	-396.914527	-396.904383	-396.903439	-396.951089	34.621	
C	-0.3660545986	 1.339967829	-0.4249032244	-0.499099
C	-0.2826862131	-0.0791645962	-0.1069293372	 0.043116
C	-0.209615912	-1.2458498502	 0.188396026	 0.06808
C	-0.1436377586	-2.6701020247	 0.5350237027	-0.315719
N	-1.3622723585	-3.4405891041	 0.2732047885	-0.267951
C	-1.8037147468	-3.4784195993	-0.9242670428	 0.269861
N	-1.2882821889	-2.8839660578	-2.0554204278	-0.552853
C	-2.978847167	-4.2983120536	-1.1712984026	 0.278324
N	-3.9137102965	-4.9355063814	-1.4068142888	-0.318159
H	 0.4125304767	 1.6384338181	-1.1350930771	 0.151537
H	-1.3361243744	 1.5902943595	-0.8677896362	 0.153883
H	-0.2467974405	 1.9510497401	 0.4761428797	 0.15846
H	 0.7015097699	-3.1315454776	-0.0012819236	 0.140111
H	 0.0775893962	-2.7676543366	 1.6025537788	 0.147651
H	-0.7461550159	-2.0429928677	-1.9031591176	 0.271894
H	-1.8785439421	-2.8688161676	-2.8726921376	 0.270864
35.7395	55.166	74.2028	163.4448	172.6788	209.2627	250.924	314.1825	375.2939	388.4088	441.4497	475.3818	536.493	594.5836	617.4317	721.2843	770.9868	838.5467	978.5049	999.7826	1052.6516	1055.4623	1143.5835	1159.9943	1259.732	1334.9681	1367.1361	1415.0211	1474.2853	1476.715	1478.3852	1642.9439	1716.2515	2358.6796	2359.8192	2978.3047	3030.8946	3066.4621	3092.9491	3094.5207	3539.4313	3671.0417
CC#CCN=C(N)C#N	CC#CCN=C(N)C#N	
InChI=1S/C6H7N3/c1-2-3-4-9-6(8)5-7/h4H2,1H3,(H2,8,9)	InChI=1S/C6H7N3/c1-2-3-4-9-6(8)5-7/h4H2,1H3,(H2,8,9)
