21
gdb 121980	2.24274	0.7404	0.5794	3.1539	77.09	-0.2687	0.0068	0.2756	1892.0444	0.179503	-461.388039	-461.377051	-461.376106	-461.425898	37.708	
C	 0.0005897721	 1.6069813294	-0.0645094164	-0.39481
C	-0.0004756094	 0.0836974714	 0.0013517472	 0.104809
C	-1.4051555928	-0.5172147621	 0.0173404469	-0.187469
C	-1.426664976	-2.0430249175	 0.147033687	-0.213644
C	-2.8453697108	-2.6149247578	 0.1474983672	-0.058482
O	-2.8719793448	-4.0213540509	 0.3206314917	-0.417089
O	 0.6811297263	-0.4322998092	-1.1656567452	-0.188768
C	 1.9561598384	-0.8366618592	-1.0375868291	 0.170661
O	 2.6063315261	-1.2355079221	-1.95719592	-0.278582
H	 1.022574686	 1.9966663333	-0.0768721894	 0.125744
H	-0.5069197638	 1.9497988306	-0.9710385563	 0.136621
H	-0.5162835032	 2.0267992139	 0.803725842	 0.124171
H	 0.5472045668	-0.2504505937	 0.8943034619	 0.088404
H	-1.9535818314	-0.0637486891	 0.8525837696	 0.104548
H	-1.9217403583	-0.2092808119	-0.9006389029	 0.113384
H	-0.8618146882	-2.483730032	-0.6840943503	 0.110026
H	-0.9258551952	-2.3542463667	 1.0725713621	 0.103583
H	-3.4168609498	-2.2045902212	 0.9880623687	 0.109843
H	-3.369811382	-2.3131484323	-0.7741255135	 0.088812
H	-2.4245675137	-4.4190758728	-0.4332303578	 0.282691
H	 2.3275795037	-0.7669816502	 0.0043192969	 0.075549
33.5189	71.0893	72.5962	124.1185	144.13	164.9563	221.9168	262.8917	276.4459	302.1753	325.0888	427.8858	499.6264	530.8224	610.7817	758.442	853.3355	890.6459	948.4984	1005.4425	1018.0167	1045.8201	1047.5786	1080.328	1104.6682	1134.0271	1155.1384	1173.5489	1225.6575	1268.3091	1304.0507	1326.2262	1343.5176	1378.0193	1393.3386	1406.4796	1412.4816	1425.3114	1440.5403	1474.0659	1488.3242	1493.991	1497.1964	1516.1446	1862.503	2937.9447	2969.7456	3004.1697	3020.9367	3028.8987	3042.604	3050.4167	3062.3108	3082.2454	3117.1318	3121.4223	3815.1383
CC(CCCO)OC=O	C[C@@H](CCCO)OC=O	
InChI=1S/C6H12O3/c1-6(9-5-8)3-2-4-7/h5-7H,2-4H2,1H3	InChI=1S/C6H12O3/c1-6(9-5-8)3-2-4-7/h5-7H,2-4H2,1H3/t6-/m0/s1
