21
gdb 53693	3.47682	0.58747	0.56432	2.3263	85.23	-0.25	0.0327	0.2827	2078.1996	0.178793	-424.191805	-424.180363	-424.179418	-424.230865	38.943	
C	-0.0290301679	 1.4704598512	-0.0925791623	-0.498784
C	-0.0365572631	 0.0153815019	-0.0756764251	 0.138156
C	-0.0462238854	-1.1876397952	-0.0596263181	-0.004497
C	-0.0342870901	-2.6432302717	-0.0443437508	-0.200811
O	-1.3579845129	-3.1410740551	 0.0579031256	-0.261624
C	-1.4262161488	-4.5570105383	 0.0418316171	-0.067299
C	-2.9092461263	-4.9276624106	-0.0043673932	 0.131091
C	-3.6503173649	-4.5361081419	 1.2775485921	-0.392811
O	-3.5078638239	-4.3463498067	-1.1533422724	-0.439394
H	 0.9881183169	 1.8592812876	 0.0273362892	 0.151549
H	-0.425126041	 1.8619887536	-1.0357861191	 0.151113
H	-0.6375266482	 1.8796136655	 0.7211681364	 0.152475
H	 0.4435807042	-3.0282724453	-0.9613680937	 0.117545
H	 0.5714730289	-3.0081109796	 0.8024395094	 0.116609
H	-0.9183012759	-4.9502520107	-0.8529247768	 0.094302
H	-0.9358868792	-4.983883382	 0.9319377222	 0.087769
H	-2.9785910284	-6.013002609	-0.1468481342	 0.082785
H	-4.7145216783	-4.7612146695	 1.1724147003	 0.121601
H	-3.2618075827	-5.0855418762	 2.1421981382	 0.105389
H	-3.5357814523	-3.4660576203	 1.4733113021	 0.128266
H	-3.2269902704	-3.4225939578	-1.153593287	 0.28657
22.8073	41.2042	62.4598	78.9381	150.8256	174.5075	210.6574	240.1499	297.502	333.0723	375.8798	380.9723	411.8073	447.516	488.0935	657.5332	777.9507	839.6803	933.7307	958.818	991.7339	1029.9317	1052.216	1054.248	1072.2662	1104.5974	1148.5214	1158.9724	1180.8489	1250.2691	1266.4744	1304.5402	1367.5833	1376.7642	1400.8759	1414.5622	1433.3316	1440.151	1475.9364	1479.2442	1488.568	1496.873	1500.2377	1518.9177	2380.4754	2953.141	2969.0054	2972.8299	3005.9585	3029.5202	3037.3128	3041.3489	3091.3554	3091.9795	3109.0892	3127.8759	3779.2784
CC#CCOCC(C)O	CC#CCOC[C@@H](C)O	
InChI=1S/C7H12O2/c1-3-4-5-9-6-7(2)8/h7-8H,5-6H2,1-2H3	InChI=1S/C7H12O2/c1-3-4-5-9-6-7(2)8/h7-8H,5-6H2,1-2H3/t7-/m1/s1
