15
gdb 57242	2.7829	1.25047	1.0634	3.3793	70.62	-0.3145	-0.1074	0.2071	1138.1297	0.109587	-416.839425	-416.829737	-416.828793	-416.874265	33.575	
C	-0.017910601	 1.5359561025	-0.0270857923	-0.428206
C	-0.0106491838	-0.0146119362	-0.0076479186	-0.073174
C	 0.7600032672	-0.5429195208	 1.2298939369	-0.428237
C	-1.3915584594	-0.5139821975	 0.0210401861	 0.296883
N	-2.484304028	-0.8794203906	 0.0929808806	-0.319486
C	 0.6698427178	-0.5326025114	-1.2860518666	 0.327089
O	 0.1562217475	-1.2271200263	-2.1185713188	-0.251505
C	 2.0768721784	-0.1009762749	-1.4419440776	 0.247748
N	 3.1764961273	 0.2332820522	-1.5689302228	-0.305213
H	 1.0059064086	 1.9166678945	-0.0654137455	 0.155739
H	-0.5724016384	 1.9173572896	-0.8876442711	 0.156194
H	-0.4931370206	 1.906999584	 0.8837007025	 0.155127
H	 0.2837655544	-0.1695432634	 2.1391960068	 0.155122
H	 0.7570017309	-1.6349659171	 1.2602298001	 0.156177
H	 1.794114379	-0.1897105446	 1.2083423002	 0.155742
39.8493	125.2419	173.3214	182.1734	191.4741	230.234	252.4227	312.9206	319.4406	328.6156	437.7725	491.5816	568.7973	599.8061	686.0301	757.5296	824.8268	954.4844	961.0528	1035.9051	1039.9703	1134.5249	1212.8161	1276.9464	1398.5806	1422.2313	1479.6319	1484.7861	1498.2498	1507.1293	1809.002	2337.5518	2369.5794	3052.8676	3054.5858	3135.2146	3138.0278	3138.4344	3139.3089
CC(C)(C#N)C(=O)C#N	CC(C)(C#N)C(=O)C#N	
InChI=1S/C6H6N2O/c1-6(2,4-8)5(9)3-7/h1-2H3	InChI=1S/C6H6N2O/c1-6(2,4-8)5(9)3-7/h1-2H3
