14
gdb 64758	2.80925	1.29916	1.11678	4.7307	61.48	-0.28	-0.0202	0.2598	1082.0265	0.099645	-473.849378	-473.840906	-473.839962	-473.883062	29.866	
O	-0.1021930047	 1.3976527525	 0.0807695344	-0.45826
C	 0.0109661146	 0.0050884183	 0.0509516582	 0.203032
C	 0.9370680089	-0.5363824752	 1.1589974961	-0.39647
C	 2.2528338884	 0.0958760409	 1.0981115624	 0.259482
N	 3.2693501432	 0.6414129163	 1.0357190197	-0.292721
C	-1.3558640472	-0.6931851793	-0.0679904442	-0.114985
O	-0.9718478086	-1.2567593238	-1.3634892623	-0.235343
C	 0.2415377851	-0.6192755319	-1.3525537472	 0.414254
O	 1.0816616898	-0.6098001706	-2.1896457907	-0.309495
H	 0.7632244512	 1.7814890942	-0.11386388	 0.313101
H	 0.4864247297	-0.3115302177	 2.132112379	 0.170119
H	 1.0452420877	-1.6232732329	 1.079802697	 0.168138
H	-1.5754346964	-1.4843458543	 0.6512828406	 0.130289
H	-2.1920234017	-0.0009885766	-0.1703978931	 0.148859
67.2617	100.7823	140.788	185.9346	263.1901	331.406	355.268	390.932	394.9153	510.9244	564.3197	730.2163	766.7785	779.0633	897.2019	918.5288	955.5823	967.8832	1030.5923	1117.6366	1140.4987	1155.2892	1212.1607	1276.2838	1302.2986	1351.2334	1405.6314	1452.9278	1507.9929	1946.6096	2364.4209	3048.7526	3081.9757	3096.1693	3152.8244	3774.8861
OC1(CC#N)COC1=O	O[C@@]1(CC#N)COC1=O	
InChI=1S/C5H5NO3/c6-2-1-5(8)3-9-4(5)7/h8H,1,3H2	InChI=1S/C5H5NO3/c6-2-1-5(8)3-9-4(5)7/h8H,1,3H2/t5-/m0/s1
