16
gdb 46857	2.57941	1.90074	1.26844	4.4066	72.08	-0.2531	-0.0493	0.2038	975.8404	0.126566	-434.044604	-434.037342	-434.036398	-434.076681	28.019	
N	-0.1128079974	 1.2630328622	-0.3167377805	-0.507014
C	-0.0402497546	 0.0812077824	 0.1294339535	 0.329286
O	 1.049961285	-0.3653637875	 0.814906445	-0.250299
C	 1.2701895158	-1.7779320355	 0.8566683011	-0.126324
C	 0.0314796344	-2.5350292336	 1.2575675646	-0.021332
C	-0.9523690585	-1.941013946	 2.1873444943	-0.25923
N	-1.258111466	-2.0605858052	 0.7391086297	-0.123049
C	-1.2305912141	-0.8501000218	-0.0116457144	 0.266148
N	-2.2175971371	-0.5752271615	-0.7537012501	-0.445189
H	 0.756216646	 1.769868208	-0.1406449674	 0.231836
H	 1.6183335686	-2.1205109217	-0.1273481278	 0.127298
H	 2.0808857834	-1.9298279872	 1.5742608542	 0.136566
H	 0.1441866472	-3.6171735538	 1.2214831997	 0.11262
H	-1.562716363	-2.5753829872	 2.8215594806	 0.137596
H	-0.7433786033	-0.9516532515	 2.5845479628	 0.140932
H	-2.0429802863	 0.3321559299	-1.1964113253	 0.250154
56.5754	162.0038	271.0758	317.6484	370.8974	443.4276	495.4997	504.5975	552.5075	671.5915	720.1065	757.7417	817.409	870.4726	898.1624	944.7613	973.4498	982.5049	990.314	1053.7024	1082.2544	1110.7871	1129.7886	1166.1884	1167.9612	1270.1468	1279.4357	1309.6917	1387.1061	1409.2463	1428.9442	1505.869	1508.0551	1714.0683	1737.1221	3017.9472	3095.7968	3121.222	3126.2257	3212.369	3442.2551	3479.0974
N=C1OCC2CN2C1=N	[NH]C1=C(N2[C@@H](CO1)C2)[NH]	
InChI=1S/C5H7N3O/c6-4-5(7)9-2-3-1-8(3)4/h3,6-7H,1-2H2	InChI=1S/C5H7N3O/c6-4-5(7)9-2-3-1-8(3)4/h3,6-7H,1-2H2/t3-,8?/m1/s1
