18
gdb 65222	3.20278	1.34803	1.13433	0.6842	70.97	-0.25	0.0176	0.2676	1099.4937	0.148029	-439.078377	-439.070154	-439.06921	-439.111601	31.127	
O	-0.2967465699	 1.3208820183	-0.2124078779	-0.46711
C	-0.0433267982	-0.0477039417	-0.0255418229	 0.37951
C	-0.3200891085	-0.652130243	 1.3252547511	-0.326747
C	-1.2568628187	-0.9002504717	 0.1549638237	-0.302597
C	 1.1243278648	-0.5147007375	-0.875012355	 0.037757
C	 2.5127996509	 0.0317812402	-0.4324537485	-0.203372
N	 3.3206238231	-1.1627700154	-0.1285049006	-0.259547
C	 2.5620258143	-2.1513519701	-0.3466895676	 0.120131
O	 1.2901820376	-1.954526489	-0.7752204475	-0.230902
H	 0.3510469186	 1.81991842	 0.2975374591	 0.286829
H	 0.2964881545	-1.4762917455	 1.6648377033	 0.123903
H	-0.6586624582	 0.0235602955	 2.1027476504	 0.115095
H	-2.209268366	-0.3834676135	 0.1564468237	 0.124605
H	-1.2575358242	-1.8879713152	-0.2897521916	 0.12965
H	 0.9058695478	-0.2821272043	-1.9220447352	 0.10278
H	 3.0019711775	 0.6227496558	-1.212091014	 0.123504
H	 2.4445218087	 0.6614747365	 0.4632142129	 0.103545
H	 2.8333814058	-3.1939991594	-0.2228576435	 0.142965
68.2298	80.7734	189.7516	245.2244	298.2183	333.7891	391.4007	443.5718	502.6035	516.5177	695.0277	753.9397	775.9704	874.4637	895.9913	911.3456	937.3611	961.9323	971.3077	983.5391	1000.0521	1040.2518	1051.2195	1067.4658	1086.2949	1124.2493	1191.0612	1214.6719	1249.0807	1305.8893	1312.0414	1323.1806	1342.0889	1367.0259	1388.5687	1444.1382	1491.7473	1498.371	1713.2526	3028.6053	3055.6917	3082.0647	3139.146	3147.5967	3216.5123	3227.0239	3243.6592	3795.255
OC1(CC1)C1CN=CO1	OC1(CC1)[C@H]1CN=CO1	
InChI=1S/C6H9NO2/c8-6(1-2-6)5-3-7-4-9-5/h4-5,8H,1-3H2	InChI=1S/C6H9NO2/c8-6(1-2-6)5-3-7-4-9-5/h4-5,8H,1-3H2/t5-/m1/s1
