15
gdb 34442	3.07733	1.75088	1.28728	4.0894	69.24	-0.2604	0.0141	0.2745	937.9566	0.115042	-416.74582	-416.739277	-416.738333	-416.77675	25.897	
N	-0.0195951997	-1.1285947093	 0.0489018672	-0.330318
C	 0.0012392724	 0.0267922507	 0.0264814349	 0.201176
C	-0.0114596891	 1.4687470214	 0.042641809	 0.190015
C	-0.9006970126	 2.1911147286	 1.0579918043	-0.149658
O	-0.6226103973	 3.5665743565	 0.7423287778	-0.27112
C	 0.2992641314	 3.4594144468	-0.3095430737	 0.108358
C	 1.3171560529	 2.3000656547	-0.0732706493	-0.113653
N	 1.3764279467	 1.9753546082	-1.5401809979	-0.320046
C	-0.0696917314	 2.3014782847	-1.2888669372	-0.113653
H	-1.9653382692	 1.9758808955	 0.918499744	 0.130344
H	-0.623148248	 1.974513369	 2.0949562116	 0.130344
H	 0.6230128583	 4.4319283082	-0.6777714132	 0.106857
H	 2.1814816104	 2.2444344545	 0.5877243941	 0.105368
H	 1.8197223857	 2.7488422913	-2.0450276179	 0.220619
H	-0.8383113804	 2.2475116191	-2.0591780537	 0.105368
149.7836	164.3019	295.5329	411.8013	416.504	514.2466	539.5748	594.5581	687.3579	729.5856	763.4601	835.3905	888.3105	901.4858	947.5238	977.166	1038.6014	1062.0622	1067.9054	1107.5234	1138.5477	1139.917	1151.1587	1186.7812	1205.8584	1227.4938	1243.1245	1295.3467	1295.507	1316.2975	1393.4922	1520.5451	2360.9197	3042.3998	3087.9126	3127.2839	3128.0412	3148.4052	3395.99
N#CC12COC3C1NC23	N#C[C@@]12CO[C@H]3[C@@H]1N[C@@H]23	
InChI=1S/C6H6N2O/c7-1-6-2-9-3-4(6)8-5(3)6/h3-5,8H,2H2	InChI=1S/C6H6N2O/c7-1-6-2-9-3-4(6)8-5(3)6/h3-5,8H,2H2/t3-,4-,5+,6+
