13
gdb 50807	4.16021	0.96598	0.78395	2.136	71.12	-0.2517	-0.1031	0.1486	1346.5105	0.087182	-452.739434	-452.730448	-452.729504	-452.774092	30.74	
N	 0.3398924894	 1.2377944618	 0.004357519	-0.393095
C	 0.0539082081	 0.0046131567	 0.0012413517	 0.085202
N	-1.2488550257	-0.4879661848	 0.011151918	-0.343132
C	-2.4375647218	 0.2023008657	 0.0261373228	 0.36195
O	-2.6121282112	 1.3944558719	 0.0339853108	-0.306899
C	-3.6252249558	-0.7937264435	 0.0323801718	 0.121596
O	-3.4408427662	-1.9940816565	 0.0243885497	-0.303423
C	-4.9313546583	-0.1903122167	 0.0480403025	 0.307846
C	-6.0368637497	 0.2845862979	 0.0611108659	-0.369548
H	 1.3517942461	 1.3566817145	-0.0044959051	 0.234917
H	 0.7748589134	-0.8219607205	-0.0093641606	 0.104794
H	-1.371611405	-1.4929119092	 0.0072216135	 0.274468
H	-7.0101564533	 0.7130234127	 0.07274932	 0.225324
54.2146	84.7877	113.7154	176.6317	197.2589	241.5857	275.6348	374.4428	494.3213	500.1266	576.7438	655.759	692.2375	708.2637	727.5807	822.6241	838.216	926.4824	979.3908	1068.209	1139.3899	1235.4646	1262.135	1428.5914	1553.317	1728.0373	1753.4984	1827.2018	2219.8223	3043.1742	3491.7332	3500.4802	3577.2076
N=CNC(=O)C(=O)C#C	N=CNC(=O)C(=O)C#C	
InChI=1S/C5H4N2O2/c1-2-4(8)5(9)7-3-6/h1,3H,(H2,6,7,9)	InChI=1S/C5H4N2O2/c1-2-4(8)5(9)7-3-6/h1,3H,(H2,6,7,9)
