19
gdb 55958	4.21996	0.91575	0.86966	3.904	77.49	-0.2162	0.0135	0.2297	1367.5572	0.159905	-419.236114	-419.22721	-419.226266	-419.270564	32.837	
N	 0.287239857	-0.0576389831	 0.9937703366	-0.503122
C	-0.0933174053	 0.3421019613	-0.2476204304	 0.37474
O	 0.289188415	 1.3599888196	-0.7900258339	-0.365596
C	-1.1107220136	-0.5979243063	-0.9139636611	-0.259567
N	-1.106189101	-1.9474195061	-0.3857107576	-0.089403
C	-0.0084736882	-2.8119072885	-0.8504175487	-0.202532
C	-0.5993543688	-4.1921677481	-0.7589781298	-0.066941
C	-1.9113164667	-4.1285123206	-0.5552986838	-0.072042
C	-2.3685823473	-2.6970582967	-0.4863659364	-0.19993
H	 0.9057474136	 0.5233456465	 1.5332888099	 0.257979
H	-0.0999486342	-0.9075210157	 1.3709636479	 0.261887
H	-2.0967010095	-0.1524246999	-0.7363497333	 0.129096
H	-0.9296280764	-0.5463726304	-2.0000363366	 0.112432
H	 0.2934301077	-2.5807378226	-1.8907614371	 0.100583
H	 0.8898160856	-2.6782578537	-0.2326360196	 0.109005
H	-0.0074576414	-5.0909417833	-0.8778394965	 0.103913
H	-2.5939721625	-4.9650383056	-0.4755496946	 0.103754
H	-3.017872724	-2.4888088904	 0.3756651184	 0.108281
H	-2.95110512	-2.4335243863	-1.3896860432	 0.097463
56.124	75.5049	92.8571	184.1899	287.6945	333.7089	352.7865	396.7085	406.0866	530.4987	563.3641	684.4187	702.0443	723.3033	794.6766	866.4654	870.0373	939.4856	963.1333	994.5014	996.9858	1036.7936	1049.9675	1091.0936	1130.6452	1152.4472	1190.3401	1204.0291	1209.8404	1277.7338	1324.9463	1345.4307	1353.074	1387.398	1396.258	1469.2287	1510.9098	1523.089	1576.2322	1694.0872	1809.7061	2909.8997	2918.1983	2976.8401	3006.4311	3016.3994	3061.5272	3204.499	3228.8074	3585.8018	3734.1115
NC(=O)CN1CC=CC1	NC(=O)CN1CC=CC1	
InChI=1S/C6H10N2O/c7-6(9)5-8-3-1-2-4-8/h1-2H,3-5H2,(H2,7,9)	InChI=1S/C6H10N2O/c7-6(9)5-8-3-1-2-4-8/h1-2H,3-5H2,(H2,7,9)
