16
gdb 125824	2.49268	1.73764	1.03701	2.6121	76.92	-0.2564	-0.0701	0.1863	1113.8258	0.123029	-434.015757	-434.007459	-434.006515	-434.048563	31.093	
C	 0.2024494206	 1.4553317224	-0.0215771075	-0.493099
C	 0.0116631417	-0.0323055515	 0.0297652946	 0.343062
N	-0.0659052148	-0.6394527095	-1.1052628083	-0.12621
O	-0.2407046886	-2.0026088129	-1.1240869062	-0.231065
N	-0.3389934751	-2.7666480796	 0.0256708828	-0.139003
C	-0.2640088048	-2.1794737476	 1.1704697427	 0.374623
C	-0.3750215392	-3.0423152173	 2.3894866381	-0.457304
C	-0.0786462132	-0.7338511339	 1.3136772583	 0.111517
N	-0.0124864192	-0.2155843648	 2.4866585674	-0.506792
H	 1.1305221658	 1.7456270215	 0.4839161682	 0.14656
H	 0.245148293	 1.7860364427	-1.0596391606	 0.158541
H	-0.6226195264	 1.9704483092	 0.4834278584	 0.146561
H	-0.5081707697	-4.0853035407	 2.1007226431	 0.143101
H	 0.5217993278	-2.9342244987	 3.0069388153	 0.152805
H	-1.2166224251	-2.7120932379	 3.0058503059	 0.15279
H	 0.1173186172	 0.7963571386	 2.4358753276	 0.22391
74.1136	172.797	205.6647	269.7855	279.8546	301.0744	321.6631	469.777	475.7222	486.2699	502.2646	569.3186	671.8107	782.4866	824.3339	873.1609	893.6774	907.6748	970.6277	1037.6161	1059.5869	1060.1117	1090.2042	1229.7134	1305.0765	1402.1803	1409.8521	1461.7615	1464.1482	1466.3749	1475.3579	1477.6791	1625.838	1643.9801	1681.7215	3034.3212	3051.8975	3089.7079	3111.0045	3152.3688	3156.85	3463.9481
CC1=NON=C(C)C1=N	CC1=NON=C(C)[C]1[NH]	
InChI=1S/C5H7N3O/c1-3-5(6)4(2)8-9-7-3/h6H,1-2H3	InChI=1S/C5H7N3O/c1-3-5(6)4(2)8-9-7-3/h6H,1-2H3
