16
gdb 9509	2.82971	1.7544	1.6151	2.5295	61.05	-0.2579	-0.0403	0.2176	890.5905	0.127346	-420.861807	-420.853205	-420.85226	-420.8955	30.228	
C	 0.015201784	 1.4501583427	-0.0765419643	-0.403808
C	 0.0362427809	-0.0493902322	 0.1162405421	 0.101272
O	 0.898998687	-0.7323497166	-0.8234214906	-0.288655
C	 1.5722829102	-1.4433553884	 0.2273144478	-0.121438
C	 0.836107621	-0.6377987832	 1.3312572304	 0.2216
O	 1.6052992897	 0.2446812166	 2.1071539859	-0.477484
C	 0.0140247894	-1.4550418017	 2.3057580088	 0.131123
O	-0.7667858743	-2.3046414465	 1.9631918528	-0.252061
H	 1.0170679236	 1.8853483447	-0.0101741961	 0.104645
H	-0.3843966116	 1.6844321888	-1.0677842509	 0.138802
H	-0.6218538021	 1.9264056024	 0.6750799147	 0.131147
H	-0.9776339608	-0.4666454888	 0.074393414	 0.097414
H	 1.3424856583	-2.51487846	 0.2206241657	 0.122898
H	 2.6595233358	-1.2943040544	 0.2116207193	 0.102827
H	 2.1893582813	 0.7460305061	 1.5296378096	 0.292576
H	 0.1942330876	-1.2003424697	 3.3721312707	 0.099141
51.2851	67.4738	191.5175	204.5641	249.3109	267.1382	288.6738	384.4437	425.0202	505.9713	601.8096	691.5343	761.2526	870.0117	884.8019	942.6446	1016.888	1031.9105	1075.0336	1099.8711	1113.131	1149.4997	1162.579	1231.9113	1285.5853	1330.3503	1364.4656	1382.7101	1401.2834	1421.0219	1476.1484	1493.6585	1509.0971	1833.9922	2912.1941	3013.9122	3032.5147	3040.636	3072.477	3112.4843	3118.9436	3828.746
CC1OCC1(O)C=O	C[C@H]1OC[C@]1(O)C=O	
InChI=1S/C5H8O3/c1-4-5(7,2-6)3-8-4/h2,4,7H,3H2,1H3	InChI=1S/C5H8O3/c1-4-5(7,2-6)3-8-4/h2,4,7H,3H2,1H3/t4-,5-/m1/s1
