19
gdb 63106	2.21153	1.68484	1.20307	1.8761	83.91	-0.2266	0.0164	0.243	1108.5096	0.156512	-385.818997	-385.809856	-385.808912	-385.85215	35.18	
C	 0.0077737366	 1.5373684241	-0.0200391511	-0.465544
C	 0.0166754546	 0.0224816185	-0.0544621509	 0.249013
C	-1.2276228638	-0.6312181871	 0.5197762912	-0.464578
C	 0.6406220117	-0.763608264	-1.1942450396	-0.226974
C	 1.9243625687	-0.1075134857	-1.6766277989	-0.11671
O	 2.4387795113	-0.0050683011	-0.3218362164	-0.323436
C	 1.3099034387	-0.738541386	 0.1859576846	 0.25151
C	 1.5317347775	-1.7255293583	 1.1831410512	 0.258794
C	 1.7193706674	-2.5466665045	 2.0428708406	-0.42765
H	 0.9866107172	 1.9522038428	-0.2657624491	 0.139807
H	-0.7321730749	 1.9387573531	-0.7217261845	 0.11397
H	-0.2590663267	 1.8901755463	 0.9820500661	 0.120335
H	-2.1148671439	-0.3233033402	-0.0448037938	 0.118376
H	-1.1674810962	-1.7224910628	 0.4874844525	 0.126164
H	-1.3731978684	-0.3372552933	 1.5644634796	 0.125585
H	 0.1267124715	-1.5807960971	-1.6835385685	 0.105737
H	 2.5558853593	-0.7748478758	-2.2733128135	 0.116246
H	 1.8488006387	 0.8687033283	-2.1685281972	 0.107029
H	 1.8900862008	-3.2738170473	 2.7977532677	 0.192325
120.6373	139.8352	180.9298	212.6678	246.7079	266.1632	307.794	351.1766	401.6836	482.2235	499.547	553.3954	567.6551	608.3389	687.7891	694.1893	791.1906	898.2908	927.0351	969.0052	972.186	981.7006	998.5179	1014.5191	1071.2859	1086.7704	1154.3064	1160.7368	1212.2036	1228.4408	1303.677	1335.0999	1399.907	1414.5439	1425.2701	1480.5138	1488.6668	1499.7178	1512.0592	1521.4331	2229.42	3028.7421	3030.566	3034.9604	3076.317	3089.9267	3094.665	3114.1903	3135.4747	3198.0616	3500.653
CC1(C)C2COC12C#C	CC1(C)[C@H]2CO[C@@]12C#C	
InChI=1S/C8H10O/c1-4-8-6(5-9-8)7(8,2)3/h1,6H,5H2,2-3H3	InChI=1S/C8H10O/c1-4-8-6(5-9-8)7(8,2)3/h1,6H,5H2,2-3H3/t6-,8-/m1/s1
