24
gdb 102323	1.90895	1.12528	0.83263	3.7335	87.25	-0.2373	0.0321	0.2694	1537.8106	0.215466	-405.588223	-405.576973	-405.576029	-405.625562	40.137	
C	 0.1479490542	 1.3953461989	 0.2138403315	-0.373578
C	-0.0724684729	-0.073631855	-0.1646905881	-0.169369
N	 0.6395927999	-0.4886003042	-1.3657393606	-0.032527
C	 2.0775094408	-0.7366132369	-1.3032659542	-0.172606
C	 2.4653917274	-2.108273826	-0.7157967868	 0.029264
C	 1.9118412708	-3.2681928934	-1.5514642003	-0.374208
C	 3.9923140373	-2.1908804806	-0.5874102659	-0.386547
C	-0.0062799471	-0.5668598675	-2.5638876356	 0.149481
O	 0.5038426948	-0.8537527972	-3.6278111997	-0.350628
H	 1.2033190525	 1.6101196675	 0.4060056032	 0.127557
H	-0.1916644887	 2.0568774153	-0.5887221988	 0.12832
H	-0.4121670637	 1.6392888675	 1.1221656682	 0.120545
H	 0.2241704957	-0.7241870218	 0.6661021702	 0.115315
H	-1.1398719921	-0.2529278774	-0.331967887	 0.118549
H	 2.4503408992	-0.6571432976	-2.3280933324	 0.140944
H	 2.5465314658	 0.0593453045	-0.7123250902	 0.097419
H	 2.040641013	-2.1800359738	 0.2959703844	 0.069301
H	 2.3007816997	-3.233161733	-2.5744952426	 0.129773
H	 2.1926393772	-4.230793755	-1.1117028672	 0.105025
H	 0.8209253526	-3.233049288	-1.6145151068	 0.117267
H	 4.3894773076	-1.3855280218	 0.0401768359	 0.108175
H	 4.2971276865	-3.1433384296	-0.1430325024	 0.114286
H	 4.4722222774	-2.1153361885	-1.5703275268	 0.120218
H	-1.0862918278	-0.3373187664	-2.461913068	 0.068023
38.5885	57.3117	76.6421	126.1341	211.9763	215.3826	224.83	245.5479	285.3171	309.6423	352.7766	386.1527	411.5114	434.4112	526.6088	649.9153	788.4318	819.5512	837.587	923.01	936.6901	944.9697	968.8839	978.3478	1029.4136	1089.6586	1117.7324	1139.5984	1145.0965	1193.2537	1232.6766	1281.5309	1322.088	1331.8892	1370.191	1390.2387	1400.0841	1402.1513	1408.2575	1426.1309	1436.1752	1457.1029	1471.9503	1485.0473	1488.0626	1491.6186	1493.3445	1504.328	1505.4901	1510.4937	1788.9212	2923.5646	2996.6922	3025.2671	3030.8799	3037.0394	3037.9732	3041.3185	3074.4581	3090.5987	3100.5967	3103.6747	3107.0146	3112.3353	3115.1279	3119.2768
CCN(CC(C)C)C=O	CCN(CC(C)C)C=O	
InChI=1S/C7H15NO/c1-4-8(6-9)5-7(2)3/h6-7H,4-5H2,1-3H3	InChI=1S/C7H15NO/c1-4-8(6-9)5-7(2)3/h6-7H,4-5H2,1-3H3
