20
gdb 116744	5.50886	0.62162	0.56449	2.4923	84.92	-0.2236	0.0151	0.2387	1984.4605	0.16969	-436.480417	-436.46992	-436.468976	-436.516842	36.792	
C	 0.0839174171	 1.2729406374	 0.395121023	-0.394609
C	 0.3739038914	-0.1970198942	 0.7126271804	-0.106262
N	 0.8543657203	-1.0629833669	-0.3524235274	-0.267725
C	 1.0283310739	-0.5996587202	-1.518045245	 0.122483
N	 1.4861566379	-1.4262674184	-2.5297052658	-0.369066
C	 1.708379552	-1.0255239101	-3.8291785117	 0.502252
N	 1.5082203701	 0.1663890719	-4.2210995963	-0.580526
O	 2.1522652399	-2.1075277356	-4.5280924954	-0.249196
C	 2.4444237482	-1.9117332069	-5.9024740649	-0.262066
H	 0.9782908663	 1.7990796904	 0.0447970673	 0.123293
H	-0.6927264459	 1.379715703	-0.3696557396	 0.123288
H	-0.2674768923	 1.7804659682	 1.2986255264	 0.111006
H	 1.1101583124	-0.2521291963	 1.5265755226	 0.107828
H	-0.5334962028	-0.6641744133	 1.1200182657	 0.107815
H	 0.8586778762	 0.4213010636	-1.8611465303	 0.135751
H	 1.6682866185	-2.3900877401	-2.2961034837	 0.259918
H	 1.7189506347	 0.2994182252	-5.2035895643	 0.221125
H	 1.5547960402	-1.5945518237	-6.4591570241	 0.135013
H	 3.2421656484	-1.1724810763	-6.0403584294	 0.135014
H	 2.7796372435	-2.8788317178	-6.2785897675	 0.144665
50.3295	66.8051	98.932	130.3262	188.8016	196.4526	228.7836	251.1978	329.8367	341.0627	379.6031	460.6603	564.1272	612.5173	680.1041	721.1349	749.8527	779.8481	878.5687	956.4888	1015.2768	1056.617	1094.1346	1101.7436	1127.9218	1148.8947	1178.5801	1217.3828	1273.9422	1279.7563	1311.1588	1362.3806	1386.4794	1410.1095	1465.2155	1483.9052	1489.4167	1495.3724	1504.6858	1506.2893	1540.0497	1737.2374	1763.9364	3007.9774	3019.3519	3025.3467	3033.1227	3084.087	3101.7885	3106.4918	3135.9865	3146.1131	3568.2411	3640.8188
CCN=CNC(=N)OC	CCN=CNC(=N)OC	
InChI=1S/C5H11N3O/c1-3-7-4-8-5(6)9-2/h4H,3H2,1-2H3,(H2,6,7,8)	InChI=1S/C5H11N3O/c1-3-7-4-8-5(6)9-2/h4H,3H2,1-2H3,(H2,6,7,8)
