18
gdb 75746	2.91783	1.58894	1.12832	4.3656	80.95	-0.2238	-0.0261	0.1977	1081.344	0.148169	-401.982921	-401.974713	-401.973769	-402.015623	31.32	
C	 0.0032833745	 1.407789509	 0.0251990983	-0.361604
N	 0.0152924966	-0.03220151	 0.0368566906	-0.153097
C	-0.0075814438	-0.7870822768	-1.1278910381	 0.374462
O	-0.0397758779	-0.3401523349	-2.2588029712	-0.404182
C	 0.0156447017	-2.205730272	-0.6796706113	-0.22217
C	 0.049603497	-2.2448586149	 0.6561486654	-0.126876
C	 0.0516900384	-0.8694092572	 1.1977076506	 0.351837
C	 0.833231581	-0.5038731262	 2.4468598749	-0.317182
C	-0.6711561097	-0.5164301722	 2.4851281951	-0.31719
H	 0.9027013164	 1.8308348478	 0.4897001653	 0.122552
H	-0.025756393	 1.7101692309	-1.0236076361	 0.171187
H	-0.8781995322	 1.8162912861	 0.5348738395	 0.122555
H	 0.0050579341	-3.0297319604	-1.3777331204	 0.123461
H	 0.0730779973	-3.1166357709	 1.2971362443	 0.119643
H	 1.3798426581	-1.2953606059	 2.9470693285	 0.127837
H	 1.3314921231	 0.4588820011	 2.4537642799	 0.130466
H	-1.1844952798	 0.4378339801	 2.5178831614	 0.130468
H	-1.1782488818	-1.3167431637	 3.0122142633	 0.127833
98.3065	122.3208	176.085	240.7716	257.701	323.8303	362.1319	496.3255	519.1139	541.1667	701.2868	717.3824	718.6449	770.3938	814.7117	883.5731	892.9921	924.0709	951.1245	958.3105	1001.0073	1056.0115	1072.5892	1079.543	1142.1227	1155.3143	1192.8043	1204.3019	1263.1173	1338.3545	1389.0921	1413.2209	1451.1597	1460.2317	1493.4361	1497.1288	1516.015	1637.1538	1795.8575	3010.8062	3058.4207	3135.7695	3138.9103	3141.261	3215.7035	3220.2824	3234.7656	3254.0319
CN1C(=O)C=CC11CC1	CN1C(=O)C=CC21CC2	
InChI=1S/C7H9NO/c1-8-6(9)2-3-7(8)4-5-7/h2-3H,4-5H2,1H3	InChI=1S/C7H9NO/c1-8-6(9)2-3-7(8)4-5-7/h2-3H,4-5H2,1H3
