18
gdb 30698	4.05146	0.92222	0.84287	4.1705	74.46	-0.21	0.0381	0.2481	1373.7294	0.148697	-439.111765	-439.102928	-439.101984	-439.145889	33.072	
O	 0.0946598665	 1.446896336	-0.0035255592	-0.427645
C	 0.0854527627	 0.0398856181	 0.1146477707	-0.038359
C	-1.3342033268	-0.5241110235	-0.0061242754	-0.025935
O	-1.786707478	-0.068371365	-1.2875705668	-0.446038
C	-1.3837027914	-2.0179974885	 0.1127289118	 0.244247
C	-1.2341192624	-2.9163689585	-0.9238248858	-0.172521
N	-1.3095637097	-4.1807569178	-0.3996147664	-0.238548
C	-1.5039646078	-4.1131130171	 0.9563941656	-0.068356
C	-1.556495448	-2.7844463479	 1.3040815429	-0.268694
H	-0.4331622146	 1.6419147202	-0.7873010947	 0.28917
H	 0.7128767624	-0.4422898574	-0.6525883548	 0.085366
H	 0.4992727942	-0.2115072158	 1.0958055194	 0.107493
H	-1.9414310564	-0.0658978108	 0.7902095135	 0.07076
H	-2.690233625	-0.3776855252	-1.4057643324	 0.283608
H	-1.0861628509	-2.749322806	-1.9778652055	 0.126697
H	-1.2486971137	-5.0301307325	-0.9328241596	 0.262462
H	-1.5959721905	-5.0075963977	 1.5510706568	 0.121377
H	-1.7037926605	-2.3955073706	 2.3005344501	 0.094916
44.6352	116.5384	121.8907	219.6361	265.7354	313.3546	360.0602	416.8179	464.9388	489.1592	530.1271	641.0731	675.0326	696.4282	773.7699	790.5572	831.0294	885.4029	905.9069	983.8663	1034.4288	1064.3775	1082.4414	1094.1514	1095.7823	1162.0848	1191.0609	1242.2107	1286.4654	1295.7685	1342.4074	1368.5879	1404.5086	1425.9025	1438.4885	1465.1814	1497.1768	1520.3585	1602.6157	2971.3144	2986.4137	3088.128	3241.4029	3269.2171	3274.1933	3685.4076	3791.6101	3822.8468
OCC(O)C1=CNC=C1	OC[C@@H](O)c1c[nH]cc1	
InChI=1S/C6H9NO2/c8-4-6(9)5-1-2-7-3-5/h1-3,6-9H,4H2	InChI=1S/C6H9NO2/c8-4-6(9)5-1-2-7-3-5/h1-3,6-9H,4H2/t6-/m1/s1
