18
gdb 82036	2.73461	1.39545	1.23551	0.7646	72.82	-0.2489	-0.0437	0.2052	1081.2595	0.146124	-439.048255	-439.039651	-439.038707	-439.081332	32.566	
C	-0.2071551541	 1.5350030454	 0.0021519037	-0.402077
C	 0.061491026	 0.0430395647	-0.0135817966	-0.022203
N	 0.9833316126	-0.508565188	-1.0698057089	-0.135287
C	 2.3237186347	 0.0350441934	-0.7975691046	-0.251253
C	 1.8550331044	-1.0840510849	 0.0384341301	-0.081337
C	 0.9408949226	-0.5719724372	 1.1552463721	 0.296332
O	 1.5034359794	 0.3008280042	 2.0812962102	-0.476533
C	 0.1954094616	-1.6749439373	 1.8630031069	 0.104896
O	 0.1018197652	-1.7094007746	 3.0671508666	-0.281489
H	 0.6827150826	 2.1190814617	 0.2427933468	 0.136838
H	-0.5874161329	 1.8513825536	-0.974555811	 0.129537
H	-0.9640330695	 1.7694577054	 0.7568960143	 0.12706
H	-0.8842543834	-0.4983868782	-0.1155556016	 0.088415
H	 3.0343908395	-0.2083376176	-1.5810364528	 0.127848
H	 2.444131623	 1.0226586947	-0.3651525442	 0.135445
H	 2.27817728	-2.0817172681	-0.0216015428	 0.100683
H	 1.2215499347	-0.0203167738	 2.9540227612	 0.292761
H	-0.2727034664	-2.4436212134	 1.2160587304	 0.110367
97.3227	131.1504	158.6763	209.1943	276.8351	312.2796	334.8401	415.1181	429.5184	509.4981	547.5739	575.0734	730.1278	776.4956	788.2905	830.9712	893.9296	906.8598	991.4697	1016.6762	1053.1148	1069.0872	1100.1092	1105.5309	1112.9787	1118.4863	1175.5783	1222.7615	1261.9019	1295.3879	1339.3257	1365.7234	1394.4343	1407.6795	1440.0581	1481.0724	1489.5052	1509.1186	1804.9989	2939.3707	3044.3651	3051.9397	3111.3865	3129.2939	3138.0545	3161.622	3217.5921	3668.5723
CC1N2CC2C1(O)C=O	C[C@H]1N2C[C@H]2[C@]1(O)C=O	
InChI=1S/C6H9NO2/c1-4-6(9,3-8)5-2-7(4)5/h3-5,9H,2H2,1H3	InChI=1S/C6H9NO2/c1-4-6(9,3-8)5-2-7(4)5/h3-5,9H,2H2,1H3/t4-,5+,6+,7?/m1/s1
