18
gdb 53731	3.35872	0.71787	0.67874	3.4168	79.68	-0.2534	-0.017	0.2363	1714.4163	0.143506	-439.0908	-439.079611	-439.078667	-439.128578	38.743	
C	-0.3368987193	 1.449010431	-0.1557762812	-0.405256
C	 0.0098895441	-0.0389928356	 0.0461425666	 0.138992
C	 0.9058816673	-0.2379728863	 1.2841919361	-0.405294
O	-1.1893147693	-0.8126324689	 0.1747453072	-0.454596
C	 0.7005513749	-0.5466702552	-1.1446521669	 0.156668
C	 1.3044335631	-0.9295771611	-2.114321367	-0.006788
C	 2.0676157613	-1.3596675747	-3.2773932422	 0.258735
N	 1.4836370593	-2.3821590073	-3.96655307	-0.520332
O	 3.1251596903	-0.8512772226	-3.5970864878	-0.336504
H	 0.5641146008	 2.0467451482	-0.3160527666	 0.135214
H	-0.996895219	 1.5658257066	-1.0178840953	 0.136814
H	-0.8492138846	 1.8311853034	 0.7347483689	 0.107228
H	 0.3931460877	 0.144585705	 2.1743153445	 0.107226
H	 1.1145782546	-1.3000997518	 1.4284030095	 0.136864
H	 1.8527361601	 0.2975799943	 1.1771730261	 0.135223
H	-1.6512292285	-0.4870367424	 0.9556241965	 0.280191
H	 0.6046198069	-2.7767535442	-3.681370011	 0.269968
H	 1.9480251103	-2.7323074285	-4.7881237273	 0.265648
22.8097	75.0024	77.5873	90.9223	194.0477	230.1009	239.9621	246.0673	272.6845	301.0371	348.4245	405.4449	481.7278	553.312	555.0627	584.6042	599.2911	666.7347	773.5307	824.8832	920.2474	956.0388	993.8926	1017.8903	1089.3309	1158.8786	1179.6935	1193.9966	1341.5471	1389.3071	1391.0999	1412.059	1475.7413	1479.0896	1492.9085	1507.8506	1607.394	1773.3478	2350.4928	3032.6386	3037.5855	3107.4404	3113.4798	3136.724	3139.0257	3603.4955	3746.2456	3800.9727
CC(C)(O)C#CC(N)=O	CC(C)(O)C#CC(=O)N	
InChI=1S/C6H9NO2/c1-6(2,9)4-3-5(7)8/h9H,1-2H3,(H2,7,8)	InChI=1S/C6H9NO2/c1-6(2,9)4-3-5(7)8/h9H,1-2H3,(H2,7,8)
