19
gdb 82948	2.15109	1.78512	1.49911	1.0076	73.86	-0.234	0.0682	0.3023	997.5952	0.159839	-422.989143	-422.981166	-422.980222	-423.020959	32.465	
O	 0.0227927837	 1.4307780303	-0.1575395614	-0.410609
C	-0.0248059711	 0.0435541946	 0.0167527069	 0.002362
C	-0.4431429664	-0.6230356863	 1.3153692652	-0.146824
C	-1.2237271691	 0.1746299024	 2.3681756163	-0.254312
C	-2.631637435	 0.4220896416	 1.8028088229	-0.028546
C	-2.8220855902	 1.3738068489	 0.6491519811	-0.307928
C	-2.665108925	-0.1068451425	 0.3847747892	-0.105615
C	-1.3145912187	-0.7358379204	 0.0766690866	 0.360345
O	-1.3525093515	-1.954190659	-0.6105390423	-0.468182
H	 0.7486525104	 1.7677636208	 0.3793655797	 0.28938
H	 0.7602435489	-0.4956193397	-0.5168562132	 0.088815
H	 0.1591680686	-1.4632146996	 1.6450410667	 0.092008
H	-1.2933570744	-0.4219388932	 3.282625864	 0.10647
H	-0.7195420478	 1.1097470045	 2.642081958	 0.093664
H	-3.4698970233	 0.2681228816	 2.473885317	 0.081746
H	-3.8208887668	 1.7797094219	 0.5208486327	 0.099179
H	-2.0192896439	 2.0392833701	 0.3690291331	 0.141841
H	-3.5096475038	-0.6725811388	 0.0082533123	 0.083557
H	-1.4773002545	-1.761037107	-1.5465280648	 0.282647
153.6023	223.6854	245.5374	267.7648	285.7114	328.2201	367.2718	394.3134	541.3056	560.1133	628.1425	668.6991	692.1994	798.1889	809.7005	814.2425	867.8528	910.1664	932.5962	991.9073	1016.2615	1029.8847	1061.5544	1083.2269	1091.2394	1103.8834	1109.7124	1158.4428	1196.599	1205.0964	1231.8519	1251.8335	1289.9711	1308.0745	1326.8932	1345.8572	1366.0463	1384.9179	1467.4097	1482.8624	1497.2462	3030.4544	3078.0896	3082.1311	3138.4676	3159.5462	3163.4425	3175.7811	3258.6412	3791.6125	3792.9147
OC1C2CC3CC3C12O	O[C@H]1[C@H]2C[C@H]3C[C@H]3[C@@]12O	
InChI=1S/C7H10O2/c8-6-5-2-3-1-4(3)7(5,6)9/h3-6,8-9H,1-2H2	InChI=1S/C7H10O2/c8-6-5-2-3-1-4(3)7(5,6)9/h3-6,8-9H,1-2H2/t3-,4-,5-,6+,7+/m1/s1
