19
gdb 118372	3.13693	0.78856	0.66476	6.0085	80.69	-0.3266	0.0137	0.3403	1687.7637	0.158253	-382.109458	-382.099245	-382.098301	-382.145626	35.343	
C	-0.0140033346	 1.5883736561	 0.0503304428	-0.384705
C	 0.0133645049	 0.0589517571	-0.0131001674	-0.191473
C	-1.3914031983	-0.5517915907	 0.0093510526	-0.181376
C	-1.4018316061	-2.0966572444	-0.0321699983	-0.153584
C	-2.8501441921	-2.6433603875	 0.0917048797	-0.354787
C	-2.910588902	-4.0951752315	 0.240644862	 0.269643
N	-2.9497197984	-5.2414790817	 0.3765151755	-0.290269
C	-0.7689042302	-2.593734518	-1.2585230985	 0.297678
N	-0.2777030299	-2.9582739512	-2.2388274833	-0.318405
H	 0.9992782863	 1.9994823303	 0.0341588682	 0.124484
H	-0.5581050256	 2.0102482408	-0.8015394112	 0.122297
H	-0.5027351748	 1.9414051159	 0.9651258144	 0.11727
H	 0.5349574953	-0.2644553741	-0.9210826019	 0.131758
H	 0.5917510351	-0.3354124745	 0.8324864123	 0.104228
H	-1.9141452246	-0.2427069228	 0.9231257504	 0.108069
H	-1.9786958457	-0.1700913011	-0.8350538412	 0.118906
H	-0.8193146739	-2.4777532312	 0.8152876841	 0.147743
H	-3.3215909979	-2.1836437087	 0.9667436679	 0.161324
H	-3.4355346078	-2.3471148527	-0.784903558	 0.171197
56.0989	85.2182	93.8853	109.1142	161.4576	220.7153	247.9582	250.2225	343.2346	372.0309	390.3719	495.8924	557.9806	639.6252	747.6936	794.5905	879.3332	891.8979	956.3944	973.6404	1029.5331	1048.9394	1073.0143	1125.8264	1141.5014	1218.5579	1253.2103	1282.412	1331.9929	1337.251	1350.4495	1373.5485	1400.7505	1416.3666	1464.1188	1484.2145	1493.5862	1501.0814	1510.5808	2360.0608	2368.6557	3021.4481	3028.4332	3034.3674	3042.9586	3054.5954	3059.8725	3077.7936	3098.3114	3102.6227	3111.7993
CCCC(CC#N)C#N	CCC[C@@H](CC#N)C#N	
InChI=1S/C7H10N2/c1-2-3-7(6-9)4-5-8/h7H,2-4H2,1H3	InChI=1S/C7H10N2/c1-2-3-7(6-9)4-5-8/h7H,2-4H2,1H3/t7-/m0/s1
