16
gdb 26829	3.5196	1.07678	0.82879	3.6867	81.85	-0.2043	-0.0401	0.1642	1319.7754	0.123481	-437.942195	-437.93318	-437.932236	-437.976462	32.184	
C	-0.015142193	 1.5110616099	 0.1160614021	-0.513544
C	 0.0171942715	 0.0271544407	-0.0158258431	 0.239362
C	 0.0502562	-0.7632691766	-1.1638646911	 0.278757
O	 0.0576821844	-0.2228177089	-2.4157182602	-0.449426
C	 0.0721650852	-2.1143761493	-0.7799480094	-0.362168
C	 0.0520782631	-2.1416756009	 0.6123773484	 0.245266
N	 0.0190615005	-0.8329369885	 1.0445905384	-0.369937
C	 0.0609967162	-3.249060962	 1.5375830917	 0.067832
O	 0.0894666761	-4.4239661906	 1.2293850653	-0.292645
H	 0.8524323636	 1.8956282763	 0.666168386	 0.133957
H	-0.0066336741	 1.9603186051	-0.8788156421	 0.159657
H	-0.9164571046	 1.8599866272	 0.6348268837	 0.134063
H	 0.0824278717	-0.9359481011	-3.0601365108	 0.302315
H	 0.0993719605	-2.9882911226	-1.4127015881	 0.121092
H	-0.0008810264	-0.5530390426	 2.0113495245	 0.264235
H	 0.0387251952	-2.937646786	 2.6110331447	 0.041185
47.1685	115.8188	161.4642	205.8653	231.5967	249.0077	261.2455	379.5823	420.9463	473.995	500.0988	636.1694	650.6575	677.2986	725.089	815.5914	815.7641	1003.4455	1014.4779	1020.5239	1059.0827	1112.4193	1188.2355	1230.5539	1292.8909	1348.146	1411.5351	1419.2195	1472.6505	1484.3999	1489.2221	1514.5857	1546.358	1649.5259	1772.3809	2822.1371	3020.5526	3066.3947	3135.7851	3253.6043	3660.2938	3845.9959
CC1=C(O)C=C(N1)C=O	Cc1c(O)cc([nH]1)C=O	
InChI=1S/C6H7NO2/c1-4-6(9)2-5(3-8)7-4/h2-3,7,9H,1H3	InChI=1S/C6H7NO2/c1-4-6(9)2-5(3-8)7-4/h2-3,7,9H,1H3
