16
gdb 24983	4.55214	1.24854	0.99968	5.0247	71.41	-0.2029	0.0374	0.2402	1135.9979	0.127209	-437.949906	-437.942597	-437.941653	-437.981878	27.674	
O	 0.0412811065	 0.0123298466	 0.2020260589	-0.392185
C	-0.0253483322	 1.2055307975	 0.111014168	 0.451876
N	-1.1419564334	 2.0266501569	 0.0566468701	-0.491286
C	-0.7264199594	 3.355774326	 0.0018040711	 0.282485
C	 0.6043582776	 3.3367818571	-0.0132312683	 0.309844
C	 1.2540130542	 4.6590773303	-0.210013482	-0.342043
C	-0.0009090892	 5.5939918383	-0.0620369486	-0.196347
C	-1.3031445555	 4.7180019067	-0.1833013646	-0.345175
O	 1.0846386014	 2.0511789767	 0.0440830931	-0.256888
H	-2.0689739766	 1.6554550126	 0.1654103832	 0.273553
H	 2.0263016386	 4.8963429284	 0.5294334517	 0.120703
H	 1.7220667394	 4.7489175375	-1.1991347972	 0.119569
H	 0.0194777283	 6.0632304872	 0.9243384204	 0.121164
H	 0.0080543623	 6.3969745694	-0.8016485059	 0.112614
H	-1.7844720444	 4.8317528584	-1.1638071751	 0.117693
H	-2.0480004476	 5.0009551904	 0.5689305852	 0.114424
107.3459	130.2487	222.4279	248.2321	320.8001	421.6389	522.586	573.0748	632.2502	701.4872	720.5088	761.1346	794.3237	860.9824	895.8228	902.6896	923.4041	987.4829	1041.5946	1064.1117	1158.7007	1183.3295	1205.2714	1229.6739	1269.2647	1278.3382	1315.869	1330.6835	1377.9838	1461.7863	1486.3239	1503.9696	1517.3306	1756.6578	1897.9985	3014.6176	3018.0055	3050.4663	3058.4029	3076.2084	3120.1362	3695.1391
O=C1NC2=C(CCC2)O1	O=c1[nH]c2c(CCC2)o1	
InChI=1S/C6H7NO2/c8-6-7-4-2-1-3-5(4)9-6/h1-3H2,(H,7,8)	InChI=1S/C6H7NO2/c8-6-7-4-2-1-3-5(4)9-6/h1-3H2,(H,7,8)
