18
gdb 79903	3.92437	1.43583	1.22937	1.1143	71.49	-0.2143	0.0672	0.2815	1023.3482	0.14961	-439.002451	-438.995437	-438.994493	-439.033496	28.719	
O	 0.0254464257	 1.4699486554	-0.0941267637	-0.435132
C	 0.0380971952	 0.0730643168	-0.0020878413	 0.140333
C	-0.0839801673	-0.6298364966	 1.3806939908	-0.122411
C	-1.53365371	-0.0737501292	 1.4811250968	 0.150482
O	-2.4352413018	-0.7264944771	 2.3290518255	-0.276095
C	-2.7044749936	-2.0573743208	 1.9081755346	-0.07971
C	-1.4309297386	-2.7327646709	 1.3979106417	-0.172674
N	-0.5975289978	-1.8243668827	 0.5898607303	-0.143841
C	-1.3391591873	-0.6112959635	 0.0184379857	-0.117
H	 0.9245690583	 1.7875255329	 0.0321121715	 0.290729
H	 0.7541669617	-0.4106260207	-0.6737161974	 0.087618
H	 0.665357468	-0.7544663567	 2.1657219591	 0.075112
H	-1.6561683822	 0.9999721211	 1.6229195891	 0.100441
H	-3.1395031002	-2.5854058838	 2.76145239	 0.107542
H	-3.4574832552	-2.0368131117	 1.1051791198	 0.095644
H	-0.8116651471	-3.089622512	 2.2294178446	 0.108475
H	-1.6927220347	-3.6060876141	 0.789099063	 0.10505
H	-2.0530543632	-0.6959396863	-0.8021382301	 0.085438
201.6187	229.9959	249.2959	275.7062	352.0224	458.2445	481.2882	514.1535	597.5913	711.0579	761.6255	784.1269	813.9142	849.6278	904.7463	921.763	927.2634	986.1311	1046.8474	1062.2422	1089.6955	1111.7458	1113.2628	1147.2204	1161.5986	1188.0884	1195.2278	1198.9078	1249.5586	1254.8463	1274.3588	1286.1666	1301.5662	1365.1846	1379.9921	1419.7045	1430.3143	1488.9698	1509.7873	2983.5539	3027.7169	3064.3269	3067.1218	3086.5151	3091.8672	3106.4716	3119.4597	3828.789
OC1C2C3OCCN2C13	O[C@H]1[C@H]2[C@@H]3OCCN2[C@H]13	
InChI=1S/C6H9NO2/c8-5-3-6-4(5)7(3)1-2-9-6/h3-6,8H,1-2H2	InChI=1S/C6H9NO2/c8-5-3-6-4(5)7(3)1-2-9-6/h3-6,8H,1-2H2/t3-,4+,5-,6-
