18
gdb 61437	3.1337	0.95739	0.78244	5.5568	69.81	-0.2419	0.0122	0.2541	1419.3407	0.148523	-472.447926	-472.438384	-472.43744	-472.483372	34.815	
N	-0.2917247022	 1.6107654	-0.102253265	-0.543578
C	-0.0847291652	 0.1679475173	 0.0738895567	-0.113035
C	-1.4279998997	-0.5683575795	 0.2738340846	-0.251802
C	-2.105232362	-0.1862521202	 1.5751277603	 0.342468
N	-2.5792099018	 1.0000983844	 1.6908185927	-0.510999
N	-2.0780973719	-1.1525879654	 2.5508921227	-0.528988
H	-1.914366246	-2.1108811761	 2.2910263397	 0.26298
H	-2.6310177616	-1.015164977	 3.3822227824	 0.252041
C	 0.5882754316	-0.4213239685	-1.1864923834	 0.419997
O	 0.6252404936	 0.4338083956	-2.2098297976	-0.363624
O	 1.0055006287	-1.5494467703	-1.235594155	-0.356197
H	 0.4709038813	 2.1346299843	 0.3138663047	 0.241137
H	 0.2051093221	 1.2535081143	-1.8482619939	 0.306322
H	 0.5704592286	-0.0744303503	 0.9202542965	 0.104504
H	-2.0977614402	-0.3039843386	-0.5503581805	 0.140507
H	-1.2274213172	-1.6405423241	 0.2188050214	 0.129267
H	-1.150298878	 1.8883575581	 0.3767544072	 0.267676
H	-2.9831103099	 1.166384526	 2.6139030565	 0.201324
35.0523	80.2555	91.4608	167.6681	238.3116	329.7033	342.202	372.3846	388.8803	447.6713	470.7423	534.5527	542.2763	624.1387	700.167	734.9655	849.2951	863.5169	884.0386	926.1751	931.9656	986.9604	1011.8697	1084.8892	1119.5211	1146.8748	1189.2026	1226.4247	1271.7081	1316.2955	1348.4564	1372.09	1430.0081	1452.0088	1485.2622	1641.8282	1677.2333	1711.073	1862.8386	3025.1343	3062.8391	3120.1559	3356.5415	3426.0849	3454.8964	3559.7072	3590.1954	3708.4854
NC(CC(N)=[NH2+])C([O-])=O	N[C@@H](CC(=N)N)C(=O)O	
InChI=1S/C4H9N3O2/c5-2(4(8)9)1-3(6)7/h2H,1,5H2,(H3,6,7)(H,8,9)	InChI=1S/C4H9N3O2/c5-2(4(8)9)1-3(6)7/h2H,1,5H2,(H3,6,7)(H,8,9)/t2-/m0/s1
