13
gdb 5776	6.48308	1.46554	1.29687	1.952	60.77	-0.2448	-0.0138	0.231	894.6878	0.096989	-398.600314	-398.594014	-398.59307	-398.631367	22.715	
C	 0.4427917941	 1.5126194196	 0.2187458446	-0.178423
O	 1.1751264635	 0.3798290331	-0.2414123138	-0.227839
C	-0.2097820323	 0.1988869295	 0.0955930581	-0.052296
C	-0.5225309732	-0.6452657916	 1.2510014493	 0.360888
C	-1.3882209321	-1.6698054977	 1.4610930974	-0.195636
N	-1.2784867425	-2.1099767952	 2.7736413191	-0.255884
C	-0.366956538	-1.3474384963	 3.2811454777	 0.076928
O	 0.1426443117	-0.4278144596	 2.4300092825	-0.175847
H	 0.7164799085	 1.8754929867	 1.207297739	 0.130139
H	 0.2377582977	 2.279999681	-0.5266788876	 0.121674
H	-0.8613051868	 0.0195635551	-0.7584762597	 0.109833
H	-2.0788884909	-2.1211238369	 0.7665901197	 0.13134
H	 0.0344052602	-1.3543283177	 4.2821823837	 0.155124
75.6704	162.5991	186.7773	419.7858	433.3796	661.221	665.821	715.251	830.0816	842.746	866.4334	899.7779	940.9133	981.605	998.0344	1094.0548	1125.1019	1140.356	1159.2425	1165.6156	1244.3064	1254.876	1289.8197	1361.3189	1405.299	1516.2893	1550.8727	1641.8241	3088.5039	3127.809	3182.1452	3265.4345	3280.3538
C1OC1C1=CN=CO1	C1O[C@H]1c1cnco1	
InChI=1S/C5H5NO2/c1-4(5-2-7-5)8-3-6-1/h1,3,5H,2H2	InChI=1S/C5H5NO2/c1-4(5-2-7-5)8-3-6-1/h1,3,5H,2H2/t5-/m1/s1
