19
gdb 102184	2.40949	1.06832	0.82363	5.1159	75.99	-0.2351	0.0385	0.2736	1405.7548	0.158316	-419.179495	-419.169609	-419.168665	-419.215606	34.54	
C	-0.2282280866	 1.668676261	 0.0928763655	-0.331994
N	-0.1176714152	 0.2133402103	 0.0598223899	-0.268665
C	 0.6939239344	-0.3932280189	-0.9880104509	-0.019729
C	 0.0845486648	-0.1586010869	-2.3900199613	-0.352812
C	-1.2854426662	-0.6499045766	-2.5084133851	 0.275076
N	-2.3652301466	-1.0453387939	-2.6192117808	-0.310036
C	 2.1558823393	 0.0347320174	-1.0076265432	 0.067671
C	 3.1907706929	-0.7515816126	-0.3261060044	-0.187043
O	 3.0410279352	-0.811789623	-1.74671476	-0.234265
H	 0.7239044744	 2.2158519398	 0.1882997869	 0.101665
H	-0.7356829698	 2.0291862918	-0.8072728084	 0.134279
H	-0.8576305733	 1.9458229909	 0.9427822307	 0.133385
H	 0.1829037273	-0.1342929622	 0.96224248	 0.226119
H	 0.6800790775	-1.4747584905	-0.810470623	 0.106276
H	 0.1003378226	 0.9068500355	-2.6456333093	 0.146539
H	 0.7128861337	-0.668534713	-3.1272694596	 0.172207
H	 2.3402437144	 1.0994776405	-1.1568613146	 0.100326
H	 4.0984693314	-0.2653279675	 0.0273578463	 0.1228
H	 2.9098510198	-1.6576163521	 0.2101084211	 0.118202
41.7948	60.9094	97.0675	129.8912	174.9206	232.5102	267.844	314.7675	361.5032	401.2211	456.7254	513.2308	585.939	704.0134	840.0011	861.7635	873.302	934.7984	969.4808	982.07	1037.9529	1091.5115	1120.7376	1148.9475	1152.5472	1161.8176	1177.5072	1199.4484	1243.6404	1289.0655	1298.0269	1350.9622	1374.9617	1445.252	1455.4393	1475.3158	1493.7975	1496.5391	1523.8534	1528.5153	2366.1454	2967.6445	3043.1053	3053.9701	3073.7216	3083.3709	3095.5762	3105.5616	3113.2527	3171.66	3548.955
CNC(CC#N)C1CO1	CN[C@@H](CC#N)[C@H]1CO1	
InChI=1S/C6H10N2O/c1-8-5(2-3-7)6-4-9-6/h5-6,8H,2,4H2,1H3	InChI=1S/C6H10N2O/c1-8-5(2-3-7)6-4-9-6/h5-6,8H,2,4H2,1H3/t5-,6+/m0/s1
