20
gdb 93274	2.26219	1.6563	1.22004	2.4754	75.55	-0.2663	0.0221	0.2884	1102.3709	0.170458	-440.316082	-440.306875	-440.305931	-440.349396	35.349	
C	-0.5627626327	 1.3733160847	 0.005069273	-0.43507
C	 0.1000558745	 0.0002915517	-0.0070389602	-0.011754
C	 1.2121635904	-0.1654511304	-1.0511671455	-0.1103
O	 2.021182499	-1.2725705606	-0.591218187	-0.240534
C	 1.7679762502	-1.5067907896	 0.7185884967	 0.382465
N	 2.2111323409	-2.4625407523	 1.4140599425	-0.570031
C	 0.8196651734	-0.4557075068	 1.2833972534	 0.291258
C	 1.6278731181	 0.6501679074	 1.9828359219	-0.428542
O	-0.0852382754	-1.040411674	 2.1955009803	-0.487305
H	 0.1644683066	 2.1764039912	 0.1591008288	 0.121009
H	-1.075074534	 1.5659298893	-0.9433380609	 0.118228
H	-1.3084441485	 1.4309874054	 0.8031365116	 0.140149
H	-0.6630935322	-0.7638460435	-0.1958370613	 0.098781
H	 0.8464671437	-0.4167396486	-2.0493231198	 0.124032
H	 1.8460608579	 0.7271071645	-1.1255825588	 0.113265
H	 2.8129507317	-3.0873942232	 0.8780351807	 0.227768
H	 2.3092039509	 1.1688844035	 1.2996720383	 0.112439
H	 0.9462393887	 1.3826596357	 2.4222964762	 0.128278
H	 2.222989395	 0.2042580368	 2.7838196298	 0.134454
H	 0.3801875718	-1.8019603411	 2.5720705205	 0.29141
89.2055	175.9695	210.4258	223.0447	250.1517	273.6793	280.0693	307.1236	378.7268	406.9477	469.8167	545.7179	575.6255	656.5941	706.4629	711.9733	862.794	877.5711	911.3392	954.3722	963.4178	987.1978	1032.0035	1082.5222	1096.5889	1141.8478	1162.038	1182.8779	1212.928	1239.7511	1293.8023	1336.6113	1362.9651	1396.8484	1403.1392	1415.6871	1426.7219	1485.0188	1491.3279	1501.6126	1505.1721	1521.3777	1779.4579	3026.8318	3037.0025	3040.5135	3044.4408	3101.2559	3105.6851	3112.3973	3116.4617	3130.1902	3493.499	3725.7511
CC1COC(=N)C1(C)O	C[C@H]1CO[C]([NH])[C@]1(C)O	
InChI=1S/C6H11NO2/c1-4-3-9-5(7)6(4,2)8/h4,7-8H,3H2,1-2H3	InChI=1S/C6H11NO2/c1-4-3-9-5(7)6(4,2)8/h4,7-8H,3H2,1-2H3/t4-,6+/m0/s1
