18
gdb 114983	2.90477	1.22185	1.02219	4.5712	75.84	-0.214	-0.0259	0.1881	1189.4415	0.149149	-439.117599	-439.109116	-439.108172	-439.150869	31.983	
O	-0.1541928227	 1.4923480019	-0.0640280073	-0.431453
C	 0.0149057211	 0.0810847729	-0.1164769805	-0.079067
C	-1.3818938658	-0.5329625506	 0.0308006552	-0.008613
C	-1.3680909846	-2.0641001039	-0.0383528992	-0.335669
C	-0.8629240099	-2.7471119015	 1.2426103433	 0.363368
O	-0.3167790474	-3.8360887037	 1.1950527379	-0.360744
C	-1.1649143922	-2.0297839505	 2.469181683	-0.221506
C	-1.7119655048	-0.7874581777	 2.4302460529	 0.019627
N	-1.9986428134	-0.1014541694	 1.2872248128	-0.27303
H	 0.7132601874	 1.9041385849	-0.0233562996	 0.294533
H	 0.4489388742	-0.2376410631	-1.0761067707	 0.097592
H	 0.6701543682	-0.2761741143	 0.6906938978	 0.110112
H	-1.9930405593	-0.1334397767	-0.7862355545	 0.099984
H	-2.3929097881	-2.4224556939	-0.1992012491	 0.130499
H	-0.7698999614	-2.4119984551	-0.8841501613	 0.122098
H	-0.9741918752	-2.5176835521	 3.4161601211	 0.095664
H	-1.9748589918	-0.2655915496	 3.3466426733	 0.120146
H	-2.0787336143	 0.9004069723	 1.376695835	 0.25646
86.4035	110.6454	155.1695	239.118	250.5575	330.8093	391.024	435.5512	466.8915	532.5798	581.2699	591.8342	641.3971	764.3833	800.5264	837.9383	875.1588	951.0379	983.4519	1034.4783	1043.935	1068.6678	1081.1438	1134.4134	1191.395	1220.7555	1252.1203	1257.0775	1263.9015	1312.2661	1355.6236	1386.1558	1428.0529	1445.617	1458.2249	1514.1259	1525.2398	1659.841	1759.8422	2986.7408	3024.269	3033.8349	3052.5136	3106.4842	3168.5025	3219.1283	3617.5174	3841.0414
OCC1CC(=O)C=CN1	OC[C@H]1CC(=O)C=CN1	
InChI=1S/C6H9NO2/c8-4-5-3-6(9)1-2-7-5/h1-2,5,7-8H,3-4H2	InChI=1S/C6H9NO2/c8-4-5-3-6(9)1-2-7-5/h1-2,5,7-8H,3-4H2/t5-/m1/s1
