22
gdb 7825	3.18267	1.61044	1.1539	1.1982	78.74	-0.2424	0.0885	0.331	1112.1257	0.20127	-350.232307	-350.223909	-350.222964	-350.264552	32.798	
C	-0.0336917164	 1.574684664	-0.0111984241	-0.402752
C	 0.0243016448	 0.0454254314	-0.0086298943	 0.027432
C	 0.7193322373	-0.5139367789	-1.2597330111	-0.19357
C	 0.8415046615	-2.0363332107	-1.1727982036	-0.079492
O	 1.5162621314	-2.4460872294	 0.002852089	-0.257504
C	 0.8529597119	-2.0335392679	 1.1936375214	 0.136918
C	 1.6396807755	-2.6085032401	 2.3622910926	-0.401238
C	 0.7280955384	-0.505110936	 1.2428311953	-0.185919
H	 0.9746048736	 2.0051967914	-0.0159787237	 0.113327
H	-0.5597061444	 1.9510304218	-0.895311663	 0.10913
H	-0.5525106516	 1.9545910392	 0.8756477171	 0.109176
H	-1.0083437252	-0.3364195629	-0.0045822128	 0.066776
H	 0.168184793	-0.2373219951	-2.1669731378	 0.088534
H	 1.7245486649	-0.0803918366	-1.3451906964	 0.098019
H	-0.1639651493	-2.4928132286	-1.2092828057	 0.079509
H	 1.4188402865	-2.43755928	-2.0114045666	 0.101624
H	-0.1659624114	-2.4645274135	 1.1955947983	 0.056041
H	 2.6555986381	-2.2012809527	 2.3744113317	 0.121141
H	 1.1550890512	-2.3620288559	 3.3119069906	 0.110585
H	 1.708806789	-3.6963048835	 2.2771466219	 0.120885
H	 1.7366587687	-0.0749502354	 1.3159931807	 0.093724
H	 0.1844289527	-0.2093235304	 2.1485808105	 0.087655
144.717	153.8749	223.5559	237.3288	247.8064	300.6683	346.9925	416.1396	436.1122	452.2564	494.7466	589.459	798.9358	833.4253	858.027	882.5338	943.1016	954.8189	979.0231	1001.7089	1025.6513	1057.1479	1119.4461	1121.7002	1146.6617	1189.3522	1200.5262	1209.7871	1282.6777	1291.8683	1297.4742	1337.0576	1371.4908	1377.4994	1384.1925	1399.5496	1408.6677	1412.6046	1417.5595	1468.1488	1480.2609	1484.9289	1496.3182	1496.6993	1500.1141	1503.4837	2924.0965	2947.3272	2984.4161	3012.4186	3018.1795	3024.7988	3040.8841	3059.2347	3063.7028	3077.0766	3091.062	3094.307	3113.969	3119.8706
CC1CCOC(C)C1	C[C@H]1CCO[C@@H](C)C1	
InChI=1S/C7H14O/c1-6-3-4-8-7(2)5-6/h6-7H,3-5H2,1-2H3	InChI=1S/C7H14O/c1-6-3-4-8-7(2)5-6/h6-7H,3-5H2,1-2H3/t6-,7-/m0/s1
