17
gdb 73162	2.81894	1.60292	1.34237	1.7915	67.86	-0.2483	0.0515	0.2997	986.9691	0.135118	-458.899672	-458.89203	-458.891086	-458.931759	29.89	
O	-0.2098270861	 1.2319181503	-0.42490696	-0.46577
C	-0.031794458	-0.0818457799	-0.0460951824	 0.292365
C	-1.299093011	-0.8911676804	 0.2615654573	-0.125597
O	-0.7069422451	-1.4683477605	 1.4480860273	-0.288378
C	 0.4959909852	-0.6892070011	 1.316840901	 0.02755
C	 1.6092825652	-1.457932226	 0.5535863522	-0.328699
C	 1.0935025807	-0.847176394	-0.7552174827	 0.337536
C	 1.2377744271	-1.1795462628	-2.1707126943	-0.263587
O	 1.9498810086	-0.0678643676	-1.5908479596	-0.282414
H	 0.5696432438	 1.4726132986	-0.9476746491	 0.295436
H	-2.1502200871	-0.2449850822	 0.5081501071	 0.115758
H	-1.6100486709	-1.6474832567	-0.4694369258	 0.101345
H	 0.754285189	-0.1359817842	 2.2214718466	 0.088198
H	 2.624682579	-1.1220211647	 0.7814113383	 0.123201
H	 1.5465648587	-2.5436926128	 0.6480334042	 0.121018
H	 1.8660612773	-2.0160966664	-2.4710791832	 0.127629
H	 0.4507796338	-0.9094480195	-2.873255147	 0.124408
78.1889	198.0547	230.5494	269.6456	348.887	367.2955	447.3119	460.3888	515.5423	571.3851	673.8779	737.0314	801.6554	853.8807	874.4478	907.5501	944.6511	971.7187	1006.3116	1050.5301	1074.4919	1081.5048	1118.8314	1126.8034	1150.6801	1159.1461	1170.0032	1197.5018	1242.5911	1282.5368	1318.6406	1362.9054	1415.9615	1431.1569	1456.9433	1513.9924	1528.6801	3017.1363	3065.2516	3068.0851	3088.6656	3100.2659	3129.5053	3178.01	3721.6486
OC12COC1CC21CO1	O[C@]12CO[C@H]1C[C@]12CO1	
InChI=1S/C6H8O3/c7-6-3-8-4(6)1-5(6)2-9-5/h4,7H,1-3H2	InChI=1S/C6H8O3/c7-6-3-8-4(6)1-5(6)2-9-5/h4,7H,1-3H2/t4-,5+,6+/m0/s1
