17
gdb 123924	3.49094	1.57194	1.1248	3.0654	73.55	-0.206	0.0405	0.2465	1044.6523	0.140658	-418.037736	-418.030844	-418.0299	-418.06895	27.402	
C	-0.00802445	 1.5333915391	-0.0081990201	-0.222532
C	 1.4250619963	 2.0702458215	 0.0513757933	-0.079457
O	 2.127211919	 1.6501660763	 1.2402040617	-0.275179
C	 1.9037226927	 0.3516813037	 1.5104585548	 0.446258
C	 0.953361061	-0.498112259	 0.9853577144	 0.091118
C	-0.0363773797	-0.0104689771	-0.0303296917	-0.343208
C	 1.1967372795	-1.7151790123	 1.6650257105	-0.113567
N	 2.2019635536	-1.627602908	 2.5297229039	-0.238133
N	 2.6291247769	-0.3390004057	 2.4154864997	-0.319504
H	-0.5545322038	 1.9019478373	 0.8673402528	 0.118622
H	-0.4961755869	 1.9489530171	-0.8957143262	 0.105312
H	 1.9975652875	 1.7332525409	-0.8237798891	 0.112254
H	 1.4439757399	 3.1613810993	 0.0806425547	 0.119876
H	-1.0496199498	-0.3667678429	 0.1862395357	 0.112127
H	 0.2070739519	-0.3739876146	-1.0381028011	 0.108797
H	 0.6720525505	-2.654633875	 1.5596438878	 0.105357
H	 3.3941750016	-0.0083067206	 2.9774336388	 0.271859
118.2622	217.3574	310.286	329.8663	391.3743	449.7816	456.3324	525.1047	673.7668	684.0342	708.9555	718.5715	868.7785	872.4803	893.4164	925.097	957.302	1003.3272	1060.6886	1093.7143	1099.6942	1204.0491	1214.3897	1216.5631	1245.0268	1295.4473	1320.369	1329.8483	1370.4595	1396.253	1410.0332	1452.1366	1475.3689	1489.8248	1502.1705	1571.4742	1645.8513	3007.6818	3015.881	3041.5823	3059.204	3090.653	3113.7924	3232.3856	3682.9392
C1COC2=C(C1)C=NN2	C1COc2c(C1)cn[nH]2	
InChI=1S/C6H8N2O/c1-2-5-4-7-8-6(5)9-3-1/h4H,1-3H2,(H,7,8)	InChI=1S/C6H8N2O/c1-2-5-4-7-8-6(5)9-3-1/h4H,1-3H2,(H,7,8)
