17
gdb 44146	3.56894	1.10641	1.04396	2.4924	74.06	-0.2473	-0.0291	0.2182	1187.4173	0.136578	-417.938775	-417.931085	-417.930141	-417.971765	29.15	
O	 0.4894021322	-0.0132917192	 0.1003482895	-0.303468
C	 0.2137934712	 1.1506995651	 0.1062651644	 0.408446
C	-1.0722044405	 1.962740563	-0.1452768727	-0.297213
N	-0.2439592446	 3.2139919867	-0.2978203243	-0.143059
C	 0.4336437453	 3.4410226305	 0.9839890626	-0.018703
C	-0.1495454736	 3.1465648624	 2.3298413838	-0.004681
C	 0.3272219169	 3.9331730511	 3.4969282641	-0.251349
N	-1.0240879908	 4.1519763393	 2.9626690954	-0.316602
C	 1.0217195727	 2.4182796234	 0.062125821	-0.191667
H	-1.5201317453	 1.6919328273	-1.1050689041	 0.145844
H	-1.8476500396	 2.0048192799	 0.6223040615	 0.145012
H	 0.9668186866	 4.3917982044	 0.9552448395	 0.107075
H	-0.4687498309	 2.124970147	 2.5121123053	 0.112949
H	 0.3646920994	 3.469542775	 4.4780617911	 0.129428
H	 1.0902969928	 4.6881639489	 3.3237721076	 0.117157
H	-1.0431313057	 4.9971437234	 2.3952717301	 0.238262
H	 1.9810635241	 2.5564949217	-0.4245415945	 0.122568
53.6583	94.6312	196.615	256.6385	335.1813	423.4648	453.4684	543.1662	576.9243	660.5542	744.9475	793.8574	827.6746	858.8624	895.0378	925.6426	963.4422	967.8086	992.7555	1019.9962	1056.7761	1070.1282	1102.8657	1127.0478	1150.3365	1164.6414	1213.8959	1241.0273	1255.4177	1260.6108	1296.3752	1307.4878	1347.7992	1462.1423	1468.5568	1511.3526	1892.792	3071.4008	3103.5548	3109.5236	3129.4035	3154.4968	3181.8051	3196.8886	3490.3568
O=C1CN2C(C3CN3)C12	O=C1CN2[C@@H]([C@H]3CN3)[C@@H]12	
InChI=1S/C6H8N2O/c9-4-2-8-5(6(4)8)3-1-7-3/h3,5-7H,1-2H2	InChI=1S/C6H8N2O/c9-4-2-8-5(6(4)8)3-1-7-3/h3,5-7H,1-2H2/t3-,5+,6-,8?/m1/s1
