18
gdb 71208	2.41243	2.02922	1.61638	2.1021	74.85	-0.2193	-0.0142	0.2052	919.8032	0.148885	-401.915259	-401.907977	-401.907033	-401.946697	29.044	
C	-0.0615527261	 1.5350502758	 0.0859490026	-0.510162
C	 0.0524947803	 0.0346846919	 0.0514352023	 0.166519
C	 0.8876109344	-0.7879051025	-0.9674162096	-0.212557
N	 0.8435782768	-1.9284435645	 0.0211794039	-0.149482
C	-0.6396881714	-2.1441432886	 0.3729026969	-0.122016
C	-0.2993500771	-1.7796649491	 1.8433254884	-0.253637
C	 0.7421278143	-0.8992283306	 1.1399177583	-0.037747
C	-1.225214785	-0.8015791901	-0.0718766697	 0.430762
O	-2.3331626933	-0.4857479522	-0.4065055235	-0.345271
H	 0.9221766036	 2.0146929843	 0.1051059117	 0.116884
H	-0.6025384235	 1.8952113741	-0.7951470549	 0.137954
H	-0.61977046	 1.866919438	 0.9677740815	 0.127336
H	 0.46617371	-0.9846841627	-1.9592178559	 0.115123
H	 1.923731409	-0.4507604244	-1.0657241542	 0.114798
H	-1.1212012883	-3.0709948411	 0.0700538212	 0.095363
H	-1.0807374579	-1.3239599015	 2.4557911049	 0.116359
H	 0.1778115294	-2.6074175787	 2.3716800308	 0.12537
H	 1.6629835548	-0.5443651081	 1.6059193452	 0.084401
135.3306	167.5662	224.9255	253.1473	389.5056	404.2122	474.5079	588.7984	634.8414	713.8178	744.0384	777.1122	793.6023	851.1851	863.1274	909.4173	922.0459	963.8046	999.6506	1002.774	1026.2492	1051.3864	1114.5553	1133.1474	1150.7965	1171.4491	1197.6671	1213.8286	1226.5178	1251.6354	1265.3741	1277.5642	1366.4833	1413.8045	1483.1657	1487.1014	1488.9515	1509.4687	1879.1773	3033.1178	3039.6803	3068.8128	3098.772	3100.4805	3100.8082	3105.3392	3132.8969	3151.5377
CC12CN3C(CC13)C2=O	C[C@@]12CN3[C@@H](C[C@H]13)C2=O	
InChI=1S/C7H9NO/c1-7-3-8-4(6(7)9)2-5(7)8/h4-5H,2-3H2,1H3	InChI=1S/C7H9NO/c1-7-3-8-4(6(7)9)2-5(7)8/h4-5H,2-3H2,1H3/t4-,5+,7+/m0/s1
