19
gdb 32405	3.07841	1.15792	0.85482	2.12	79.48	-0.2015	0.0335	0.2351	1350.4618	0.157584	-423.061617	-423.05171	-423.050766	-423.096947	34.955	
C	 0.1218244121	 1.4858508695	-0.0080891639	-0.490643
C	-0.0551523758	 0.0093499398	-0.0327243432	 0.284104
C	-1.1431597328	-0.8114282035	 0.0316688359	 0.043623
C	-2.585529623	-0.4274076869	 0.1559868201	-0.512402
C	-0.6273879371	-2.1583699145	-0.0444207926	 0.197196
C	-1.4196536784	-3.4240604442	-0.0152757519	-0.191041
O	-0.5267054161	-4.5226191093	-0.1070191471	-0.41757
C	 0.7191854771	-2.0429411223	-0.1477869181	-0.123105
O	 1.0867007674	-0.7315955076	-0.1423565561	-0.192276
H	 0.7450640588	 1.8016621013	 0.8366458424	 0.13626
H	 0.6058712904	 1.8476063485	-0.9227308387	 0.136249
H	-0.8459990858	 1.9836336204	 0.0814841378	 0.130645
H	-3.1776516932	-0.7959836712	-0.6908192392	 0.125775
H	-3.038576618	-0.8426171642	 1.064775506	 0.125857
H	-2.7125136816	 0.657651807	 0.1948912425	 0.123732
H	-2.0148741402	-3.4719432656	 0.9133657594	 0.095433
H	-2.1451694085	-3.4310103434	-0.8474359584	 0.095533
H	-1.0458159991	-5.3312872817	-0.0937851211	 0.289443
H	 1.5131906839	-2.7641864023	-0.2290240936	 0.143188
50.8177	98.544	129.1757	145.9713	160.7214	231.9031	263.7939	283.6261	310.5021	333.5714	486.3251	600.1337	618.8879	660.2996	731.1696	745.7268	754.7102	932.7742	970.7295	1041.8809	1059.4683	1062.2652	1068.6716	1126.9877	1165.3749	1177.5824	1216.1595	1245.3581	1262.0761	1299.4675	1398.1606	1422.9526	1425.2632	1472.1399	1476.6225	1483.7503	1490.6009	1496.3544	1515.9041	1612.4848	1682.4786	2942.4105	2954.2934	3019.5733	3028.3305	3063.1757	3075.9131	3109.5193	3129.0794	3296.9119	3840.9273
CC1=C(C)C(CO)=CO1	Cc1c(C)c(CO)co1	
InChI=1S/C7H10O2/c1-5-6(2)9-4-7(5)3-8/h4,8H,3H2,1-2H3	InChI=1S/C7H10O2/c1-5-6(2)9-4-7(5)3-8/h4,8H,3H2,1-2H3
