17
gdb 63339	2.4864	1.48706	1.17538	2.0939	68.51	-0.2572	-0.0474	0.2098	1090.3959	0.133361	-459.039509	-459.030594	-459.029649	-459.073567	32.648	
C	-0.0045883578	 1.5403042935	-0.0167640605	-0.408608
C	-0.0202343638	 0.0116323621	 0.0036851005	 0.223231
C	-1.4372544612	-0.5610198526	-0.0373703173	-0.408608
O	 0.718263218	-0.4806698197	-1.1406506763	-0.243093
C	 1.8083399094	-1.2274001976	-0.8110962346	 0.410197
O	 2.5234061384	-1.707709689	-1.639262969	-0.32398
C	 1.9269372674	-1.3231747522	 0.7011223686	-0.494321
C	 0.7490843276	-0.524964945	 1.2240044904	 0.383038
O	 0.4381820032	-0.3238632634	 2.3671985729	-0.313059
H	 1.0204768317	 1.9212870558	-0.0321586271	 0.128192
H	-0.5223356097	 1.9083346403	-0.9063910536	 0.136665
H	-0.5054697435	 1.9237910649	 0.8754550185	 0.145587
H	-1.9606575811	-0.2019798679	-0.9273613852	 0.136677
H	-1.4172300786	-1.6541276811	-0.0667399189	 0.128193
H	-1.9855605638	-0.2464149606	 0.8539113709	 0.145585
H	 1.8907178445	-2.3652709544	 1.0322436782	 0.177157
H	 2.8807945992	-0.9134017832	 1.0463441625	 0.177147
45.5168	90.3865	200.8892	207.6925	231.9162	289.5251	316.0855	403.2396	424.0309	490.4161	564.9812	582.6481	611.5465	626.33	720.0769	837.7617	923.5889	924.8144	952.0893	994.0281	1021.5076	1071.2006	1125.9258	1175.2304	1212.3618	1238.3475	1258.8596	1279.7698	1392.9081	1407.3784	1413.4462	1474.9722	1480.4404	1495.6702	1505.2299	1852.2632	1894.9311	3046.6606	3049.4438	3072.3342	3112.6237	3122.0521	3123.9951	3134.2936	3139.3836
CC1(C)OC(=O)CC1=O	CC1(C)OC(=O)CC1=O	
InChI=1S/C6H8O3/c1-6(2)4(7)3-5(8)9-6/h3H2,1-2H3	InChI=1S/C6H8O3/c1-6(2)4(7)3-5(8)9-6/h3H2,1-2H3
