20
gdb 6884	2.49761	1.56078	1.29091	3.5135	77.47	-0.2395	-0.0151	0.2243	1078.8653	0.174334	-349.014666	-349.005205	-349.004261	-349.048302	34.571	
C	-0.2161484293	 1.0208477959	-1.8294247592	-0.421021
C	-0.0416992985	-0.165724013	-0.9037088096	-0.054782
C	 1.32907501	-0.632557905	-0.3872320255	-0.156379
C	 2.5755404293	 0.0959324365	-0.6973806013	 0.155832
O	 3.6457809206	-0.4450024499	-0.8552976549	-0.276864
C	 0.2538056302	-0.0692841816	 0.5623572393	 0.29875
C	 0.4571830179	 1.2767452841	 1.2369729769	-0.457555
C	-0.3968854008	-1.0945031719	 1.4750479938	-0.44365
H	 0.3992982121	 1.8793020553	-1.5536187056	 0.122497
H	 0.0408485506	 0.7500103277	-2.8588235121	 0.129124
H	-1.2602245611	 1.3524637731	-1.8250676889	 0.123746
H	-0.6800337223	-1.0033291342	-1.176802635	 0.093372
H	 1.487962018	-1.7055787708	-0.3407497356	 0.098062
H	 2.489645677	 1.200823674	-0.7841458048	 0.062289
H	 0.8905894604	 2.0341912959	 0.5821860823	 0.120441
H	-0.5041354892	 1.6630486416	 1.5949009208	 0.120247
H	 1.1155971885	 1.1758901005	 2.106684234	 0.126434
H	 0.2115885389	-1.2691601579	 2.3694997527	 0.122779
H	-1.3824903342	-0.7456649249	 1.805780115	 0.118377
H	-0.5333529081	-2.0546975956	 0.9688220677	 0.118301
88.1198	155.5006	170.6657	196.184	206.5104	223.1248	260.2629	277.1994	356.8147	419.1279	454.3196	473.5192	523.8132	662.8482	752.4487	901.6298	940.3205	969.567	983.0812	994.0082	1040.1545	1051.4683	1073.6581	1129.3718	1145.6574	1155.6167	1186.1807	1248.7632	1321.8723	1345.6907	1409.3138	1415.5756	1420.0674	1438.9338	1451.0865	1480.1883	1488.8327	1491.3892	1498.6887	1505.651	1521.5546	1800.8835	2886.3973	3022.9696	3033.3302	3038.4506	3084.3866	3089.1829	3094.4926	3103.7738	3114.5368	3128.8243	3135.8843	3161.7405
CC1C(C=O)C1(C)C	C[C@H]1[C@@H](C=O)C1(C)C	
InChI=1S/C7H12O/c1-5-6(4-8)7(5,2)3/h4-6H,1-3H3	InChI=1S/C7H12O/c1-5-6(4-8)7(5,2)3/h4-6H,1-3H3/t5-,6+/m0/s1
