18
gdb 37933	2.53119	2.35813	1.79364	0.7423	72.78	-0.2239	0.0738	0.2977	840.2607	0.151791	-401.910308	-401.903973	-401.903028	-401.941631	26.033	
C	-0.0555091865	 1.426953717	-0.0996352811	-0.193434
C	 1.360471467	 1.9656312552	 0.0956774379	-0.120574
C	 2.0833424657	 1.6905667766	 1.3853441164	 0.124668
O	 1.4792217904	 1.3231361166	 2.584899633	-0.271947
C	 0.4787103663	 0.3102036608	 2.5764092367	-0.091465
C	 0.3894408697	-0.5610963461	 1.344180763	-0.058458
C	 1.3718712542	-0.458473859	 0.2313467056	-0.057011
C	 2.279232161	 0.7450641216	 0.2325184119	-0.123982
N	-0.0345319792	-0.0444580755	 0.0306778397	-0.117226
H	-0.7806814098	 1.85939077	 0.599300538	 0.11309
H	-0.4012613261	 1.6636387948	-1.1108788877	 0.112646
H	 1.6579801938	 2.8363409809	-0.4801125886	 0.08858
H	 2.9077650823	 2.3564926411	 1.6188761151	 0.104437
H	 0.6898360048	-0.3390918047	 3.4346669179	 0.111857
H	-0.5000494046	 0.7797129428	 2.7646352762	 0.104722
H	-0.048757536	-1.5328698453	 1.5651144168	 0.095414
H	 1.7086221939	-1.3468232669	-0.2942819009	 0.090764
H	 3.2398024231	 0.6662188399	-0.2623165099	 0.087917
36.987	252.1932	422.5254	425.443	530.6039	580.5698	682.8069	695.9141	736.7183	759.4289	773.9623	795.6926	833.7982	898.7987	918.4235	949.9351	982.7023	1012.1981	1044.2886	1055.1385	1071.4644	1091.7863	1093.4356	1110.1262	1126.883	1147.1651	1224.0161	1243.2076	1279.46	1290.9564	1319.3742	1324.8406	1349.5933	1362.7247	1387.5213	1441.734	1452.4671	1503.9699	1517.5857	2974.0968	3040.5786	3041.6862	3075.7467	3117.5515	3150.8367	3154.6304	3164.8332	3182.3564
C1C2C3OCC4C(C23)N14	C1[C@H]2[C@H]3OC[C@@H]4[C@H]([C@@H]23)N14	
InChI=1S/C7H9NO/c1-3-5-6-4(8(1)6)2-9-7(3)5/h3-7H,1-2H2	InChI=1S/C7H9NO/c1-3-5-6-4(8(1)6)2-9-7(3)5/h3-7H,1-2H2/t3-,4-,5-,6-,7-,8?/m1/s1
