14
gdb 49783	2.21794	1.61196	1.00665	3.1011	69.45	-0.2709	-0.0437	0.2273	1109.1298	0.102133	-432.906872	-432.898959	-432.898015	-432.940393	27.483	
O	-0.0414618568	-0.0417249184	 0.0328288323	-0.296203
C	-0.0140652858	 1.1636892802	-0.002854245	 0.157811
N	 1.1516102662	 1.9032241613	-0.0212082653	-0.084903
C	 2.4477092157	 1.371473021	 0.0006728453	 0.096758
N	 3.4040866271	 2.2053230147	 0.014285927	-0.243962
C	 2.8280307796	 3.5516064695	-0.0040950251	-0.186884
C	 1.2597559445	 3.3694696227	-0.0204009964	-0.162695
C	 0.6145238135	 3.9813981495	-1.1849345985	 0.28705
N	 0.1082634883	 4.4798818744	-2.0960435066	-0.306186
H	-0.9151020809	 1.8026909453	-0.027271778	 0.108687
H	 2.5492255981	 0.293863687	 0.0058295749	 0.181549
H	 3.1462994371	 4.1097196931	 0.8803075643	 0.142613
H	 3.1745866819	 4.0968737739	-0.8856461139	 0.154216
H	 0.8033665014	 3.7896457058	 0.8815880649	 0.15215
53.9626	90.9104	167.2801	233.6438	243.0328	266.5856	459.3531	488.8557	522.7823	593.7682	754.0048	802.7225	863.0229	930.9549	959.6257	975.9035	1019.1412	1029.1887	1059.6003	1199.8808	1218.7311	1264.8592	1294.3033	1327.7023	1361.9602	1383.363	1440.896	1493.707	1709.2403	1808.6066	2360.7743	2977.0871	3055.0918	3068.4558	3110.2826	3241.7184
O=CN1C=NCC1C#N	O=CN1C=NC[C@H]1C#N	
InChI=1S/C5H5N3O/c6-1-5-2-7-3-8(5)4-9/h3-5H,2H2	InChI=1S/C5H5N3O/c6-1-5-2-7-3-8(5)4-9/h3-5H,2H2/t5-/m1/s1
