17
gdb 39409	2.52319	2.20705	1.77246	1.3881	66.24	-0.2495	0.0552	0.3046	841.4176	0.138466	-458.906805	-458.900498	-458.899554	-458.93724	25.947	
C	 0.1156443415	 1.4654308851	 0.345230664	-0.068523
O	 1.2322498287	 2.1874787922	-0.137581014	-0.241883
C	 1.5743683183	 2.0546247315	-1.5017854943	-0.097685
C	 1.9693836255	 0.6110594957	-1.8712537294	 0.042646
O	 2.3976634623	-0.1215331038	-0.686725829	-0.281497
C	 1.141394805	-0.7958885419	-0.6436637069	 0.062872
C	-0.1057621498	 0.0821741998	-0.2502587396	 0.026157
O	-0.4940478169	 0.1880891248	-1.65768463	-0.300485
C	 0.7578650078	-0.3661532229	-2.0559982137	 0.056464
H	 0.2604466271	 1.383973164	 1.4287216016	 0.115177
H	-0.8150232581	 2.0304009222	 0.1707822989	 0.103095
H	 0.7648723372	 2.3863494852	-2.1697372601	 0.106265
H	 2.4317486023	 2.7195630494	-1.6372412424	 0.113828
H	 2.7363572699	 0.5900303863	-2.6518194774	 0.086421
H	 1.1991795823	-1.8065084384	-0.2385803824	 0.094806
H	-0.8810400406	-0.4434128394	 0.3190219683	 0.090279
H	 0.7092884675	-0.9822507498	-2.9540350235	 0.092063
186.9398	255.8448	305.8899	367.6972	389.6915	517.2031	648.4717	686.6576	748.1938	768.4408	829.5526	833.3358	868.6699	894.2108	942.1325	954.9821	1007.3985	1033.8194	1046.3655	1053.1709	1074.8673	1098.8896	1178.0353	1187.3463	1197.0938	1250.4644	1256.4884	1279.2498	1310.3371	1318.604	1339.7462	1351.8724	1359.8209	1392.7456	1421.9635	1479.0911	1489.3926	2971.7592	2996.7319	3044.1229	3059.1877	3064.4224	3091.5389	3107.0528	3120.263
C1OCC2OC3C1OC23	C1OC[C@H]2O[C@H]3[C@@H]1O[C@@H]23	
InChI=1S/C6H8O3/c1-3-5-6(8-3)4(9-5)2-7-1/h3-6H,1-2H2	InChI=1S/C6H8O3/c1-3-5-6(8-3)4(9-5)2-7-1/h3-6H,1-2H2/t3-,4-,5+,6+/m1/s1
