22
gdb 70329	2.18379	1.9902	1.3499	1.4221	84.58	-0.2146	0.0807	0.2953	1061.3341	0.195037	-367.185414	-367.177032	-367.176088	-367.217543	34.342	
C	-0.0720319397	 1.5187245779	 0.0554050808	-0.489441
C	 0.0104985247	 0.0079621294	 0.0024813347	 0.305214
C	-0.5846492081	-0.7827197667	 1.1480088958	-0.347478
C	 0.9092001061	-0.7796203974	 0.9387587539	-0.076387
C	 1.5588573282	-1.8963939402	 0.1239431729	-0.189438
N	 1.1086288333	-1.787118819	-1.282567224	-0.131666
C	-0.3119538715	-2.088125725	-1.5164876828	-0.296993
C	 0.1307702155	-0.6736150222	-1.3675342606	 0.272968
C	 0.2150925243	 0.2043144756	-2.5969038228	-0.478244
H	 0.7658157797	 1.9965327304	-0.4621757617	 0.120356
H	-0.998780185	 1.8899430604	-0.3969069036	 0.119162
H	-0.0554750414	 1.8624133866	 1.0939567537	 0.113534
H	-0.9595639516	-0.2017319456	 1.9856573097	 0.105539
H	-1.1566272195	-1.6841168579	 0.9660148039	 0.11094
H	 1.5241742443	-0.2686991556	 1.6735740627	 0.082807
H	 2.6469367691	-1.7701608928	 0.1341886796	 0.107485
H	 1.3472259748	-2.8996490253	 0.5125582923	 0.103164
H	-0.5296983105	-2.4767666304	-2.5096001543	 0.103979
H	-0.8871088626	-2.5671638615	-0.7308727475	 0.105839
H	-0.7145301365	 0.7629819877	-2.7515733224	 0.11479
H	 1.0358223506	 0.925095144	-2.526239001	 0.119466
H	 0.392630146	-0.4130488124	-3.4806680293	 0.124404
123.4898	202.1407	232.7432	251.6195	314.2648	322.8358	365.0323	392.7025	457.4137	476.5866	588.6194	591.5478	688.7926	759.8892	797.5078	810.3744	849.4017	874.6321	926.4961	956.1863	971.9616	978.3404	1035.9588	1046.6325	1058.7364	1093.1665	1101.079	1118.7863	1124.5059	1134.9484	1165.3276	1191.513	1238.6233	1266.0583	1327.9653	1336.2981	1349.3265	1393.8783	1417.0162	1423.533	1480.4506	1486.4788	1494.3296	1499.9295	1502.1552	1508.239	1530.4544	3028.8258	3031.0043	3036.7226	3065.7022	3089.2953	3099.1028	3099.4519	3104.7538	3121.1093	3128.4775	3149.9205	3184.6099	3214.2493
CC12CC1CN1CC21C	C[C@]12C[C@H]1CN1C[C@@]21C	
InChI=1S/C8H13N/c1-7-3-6(7)4-9-5-8(7,9)2/h6H,3-5H2,1-2H3	InChI=1S/C8H13N/c1-7-3-6(7)4-9-5-8(7,9)2/h6H,3-5H2,1-2H3/t6-,7-,8-,9?/m0/s1
