21
gdb 82831	2.28823	1.67493	1.49057	1.8353	81.59	-0.2462	0.0649	0.3111	1038.4299	0.183127	-387.053707	-387.045534	-387.04459	-387.085792	32.955	
C	-0.10715475	 1.5383425562	 0.0310027763	-0.533061
C	-0.0375226679	 0.038639548	 0.0197996228	 0.373132
C	 0.6457670374	-0.8507810368	-1.0936165347	-0.084825
C	 1.5359042506	-1.4963785994	-0.0040834529	-0.238272
C	 0.643217446	-0.8891938223	 1.1055428231	-0.126258
C	-0.703382277	-1.6346852599	 1.2891527405	 0.149652
O	-1.4004451945	-1.2642389813	 2.4639772446	-0.4423
C	-1.257003532	-0.9691869048	 0.0033009164	-0.126259
C	-0.6983020561	-1.5904317139	-1.3000567692	-0.238271
H	 0.8947646494	 1.9841140501	 0.0358763765	 0.120053
H	-0.6348147967	 1.9197226311	-0.8514386473	 0.120053
H	-0.6363786991	 1.9134422593	 0.9160733503	 0.107903
H	 1.1422547721	-0.4497160735	-1.9786482913	 0.060793
H	 1.6567698177	-2.5852102627	-0.0218588336	 0.090598
H	 2.5296790892	-1.0388425816	 0.0077363738	 0.100263
H	 1.1189565184	-0.5369201887	 2.0234955301	 0.061547
H	-0.6667841499	-2.7290547789	 1.3054815369	 0.076468
H	-1.4555951112	-0.3024413266	 2.4891985131	 0.276377
H	-2.3101908466	-0.6812765681	 0.0343834437	 0.061546
H	-1.2287543613	-1.197060375	-2.1723793957	 0.100263
H	-0.6741584186	-2.6833350312	-1.3739371733	 0.090598
134.1413	210.6744	220.9546	242.8589	276.5598	337.1307	350.2464	365.5875	432.8573	586.8831	617.7796	706.1834	806.032	846.6913	849.2972	864.2194	896.0271	937.6527	937.7293	981.2153	997.8392	1029.4213	1034.4027	1086.5859	1109.0975	1116.8799	1123.2325	1151.1918	1168.2858	1171.8273	1191.9716	1229.1831	1250.1594	1255.9308	1286.1961	1294.6045	1316.2697	1324.1642	1343.2524	1411.7855	1425.9172	1478.3004	1486.778	1489.4769	1493.0476	3010.9377	3034.679	3036.4668	3054.2977	3070.5366	3078.9476	3080.2015	3081.9913	3085.2709	3088.775	3097.1893	3797.6482
CC12C3CC1C(O)C2C3	C[C@@]12[C@H]3C[C@@H]1[C@@H](O)[C@@H]2C3	
InChI=1S/C8H12O/c1-8-4-2-5(8)7(9)6(8)3-4/h4-7,9H,2-3H2,1H3	InChI=1S/C8H12O/c1-8-4-2-5(8)7(9)6(8)3-4/h4-7,9H,2-3H2,1H3/t4-,5+,6-,7+,8+
