17
gdb 129776	3.23854	1.53454	1.06426	3.3774	76.1	-0.1844	0.0436	0.228	1091.119	0.140345	-414.199131	-414.1913	-414.190355	-414.231164	30.157	
N	 0.1518085838	 1.4073491715	 0.0226024995	-0.609121
C	-0.0450548551	 0.0245612286	 0.0144393646	 0.171974
C	-1.1649985981	-0.7656241061	 0.1016220054	 0.191925
C	-2.6626117895	-0.8159719216	 0.165952911	-0.3769
C	-2.9155764467	-2.3328002106	-0.1348230988	-0.157059
N	-1.6652593045	-3.0303326475	 0.2532830485	-0.393046
C	-0.6518553535	-2.0796786194	 0.1390268894	 0.393891
N	 0.657575363	-2.1708467235	 0.0681252098	-0.376206
N	 1.0219470774	-0.8327215654	-0.0434265546	-0.265301
H	 0.8167237227	 1.7190571063	-0.6755656648	 0.248983
H	-0.7162339886	 1.9123074775	-0.0941783261	 0.25317
H	-3.0447291945	-0.5543346949	 1.16152164	 0.113731
H	-3.1877554123	-0.183067766	-0.5569520775	 0.10195
H	-3.7673235007	-2.7294256989	 0.4246452754	 0.106555
H	-3.1241998242	-2.4606086199	-1.2073625107	 0.098235
H	-1.5024905584	-3.9122692525	-0.2129197093	 0.23758
H	 1.9774682091	-0.5892277775	 0.1532606983	 0.25964
148.9762	191.464	196.9092	231.3982	267.1562	287.4161	411.6558	537.9414	559.1739	599.3191	635.3842	693.227	722.0548	752.4777	783.7091	833.5743	872.163	935.7319	1035.5908	1064.6651	1077.2142	1083.0833	1139.3255	1195.1467	1234.5869	1238.9838	1305.8621	1322.3911	1336.9412	1403.3071	1463.8273	1491.4493	1511.6722	1524.2771	1605.9998	1645.2211	1699.8694	2988.189	3012.416	3061.6269	3081.9449	3531.402	3585.8163	3629.1871	3674.4221
NC1=C2CCNC2=NN1	Nc1c2CCNc2n[nH]1	
InChI=1S/C5H8N4/c6-4-3-1-2-7-5(3)9-8-4/h1-2H2,(H4,6,7,8,9)	InChI=1S/C5H8N4/c6-4-3-1-2-7-5(3)9-8-4/h1-2H2,(H4,6,7,8,9)
