19
gdb 121196	2.18102	1.36935	0.96293	4.0595	75.61	-0.245	0.0226	0.2675	1255.2949	0.159321	-419.178732	-419.169316	-419.168371	-419.21388	33.182	
C	-0.201403284	 0.7830025012	 1.2624404173	-0.239693
O	 0.0194300577	 0.1529504698	 0.0172773783	-0.232172
C	 1.1408320471	-0.7019265765	-0.022369129	-0.09549
C	 0.8831918067	-2.0842345674	 0.5743299773	 0.020975
N	 1.9238448036	-3.0797357487	 0.2414672835	-0.307502
C	 1.841675369	-3.6917471814	 1.5820921766	-0.168779
C	 1.1278788697	-2.4044005741	 2.0964798996	-0.194794
C	 1.9951635608	-1.4764933895	 2.8019370699	 0.298684
N	 2.6783842076	-0.7331459502	 3.3661026836	-0.336865
H	 0.6972108178	 1.3055203008	 1.619155568	 0.12721
H	-1.0025731906	 1.5109670975	 1.1125048884	 0.127734
H	-0.5189370643	 0.0767700725	 2.0443905556	 0.101557
H	 1.3758316056	-0.8508484672	-1.0829262805	 0.109944
H	 2.0205492923	-0.2397086162	 0.4493697459	 0.118124
H	-0.1403599194	-2.3891014098	 0.3093202635	 0.082815
H	 1.7141328971	-3.6915073726	-0.539471917	 0.226069
H	 1.1763571979	-4.5623242234	 1.6568605035	 0.104591
H	 2.8066976073	-3.9362166785	 2.0337700616	 0.129316
H	 0.2246510779	-2.5695503863	 2.685490124	 0.128277
55.1325	84.2996	104.7725	143.9939	177.0725	228.4939	258.926	351.7289	402.6887	460.5694	529.4115	598.6535	660.3981	801.2379	822.8895	930.8492	942.8979	973.9043	1002.1924	1040.5162	1067.8471	1113.1817	1120.0128	1145.228	1164.3302	1177.4684	1188.6234	1220.7262	1263.1358	1290.8572	1336.5501	1343.3933	1365.9787	1386.9945	1413.9419	1473.5886	1486.1666	1495.0908	1505.2105	1519.8967	2352.4698	2982.8807	2988.7665	3005.3715	3010.8358	3038.4063	3065.3035	3088.3673	3105.9125	3113.8987	3532.742
COCC1NCC1C#N	COC[C@H]1NC[C@H]1C#N	
InChI=1S/C6H10N2O/c1-9-4-6-5(2-7)3-8-6/h5-6,8H,3-4H2,1H3	InChI=1S/C6H10N2O/c1-9-4-6-5(2-7)3-8-6/h5-6,8H,3-4H2,1H3/t5-,6-/m1/s1
