15
gdb 98947	3.48511	0.88788	0.78043	3.8045	70.97	-0.2707	-0.084	0.1867	1419.6073	0.108293	-457.748234	-457.738539	-457.737595	-457.78532	33.236	
O	-0.7970416806	 1.5328415234	 0.1464533092	-0.418656
C	-0.779787668	 0.1950674469	 0.5435596275	-0.139882
C	-1.3203109998	-0.7175743493	-0.5400656922	 0.355534
O	-1.6399714336	-0.2675638125	-1.6171323971	-0.306304
C	-1.4428941939	-2.2071307498	-0.21917315	-0.398489
C	-2.676393137	-2.4687221668	 0.6555907386	 0.229375
O	-2.7777569805	-2.0156602076	 1.7743087132	-0.273301
C	-3.7093194152	-3.2828371065	 0.0553655444	 0.283276
C	-4.5586691939	-3.965420879	-0.4562572582	-0.419194
H	-1.0890165642	 1.5247664773	-0.7780743972	 0.294242
H	 0.2445190105	-0.1481343105	 0.7771364475	 0.113435
H	-1.3707601785	 0.031574873	 1.4574018554	 0.15334
H	-1.4964830362	-2.7648575063	-1.1540927442	 0.146751
H	-0.5717911715	-2.5285943811	 0.361993857	 0.152141
H	-5.3193044776	-4.5638022513	-0.897102264	 0.227732
10.7842	49.5127	100.409	164.0682	178.1005	247.3715	264.1284	369.7346	381.7055	441.3551	502.2127	573.4905	632.7021	651.6356	710.1091	724.4665	802.685	815.1247	947.162	1016.513	1056.852	1120.9226	1157.4183	1216.7425	1255.7335	1287.0408	1317.6013	1446.5635	1456.6877	1490.1761	1758.7013	1802.8992	2212.7327	2952.3197	3019.1075	3058.4899	3145.6424	3492.0912	3704.0283
OCC(=O)CC(=O)C#C	OCC(=O)CC(=O)C#C	
InChI=1S/C6H6O3/c1-2-5(8)3-6(9)4-7/h1,7H,3-4H2	InChI=1S/C6H6O3/c1-2-5(8)3-6(9)4-7/h1,7H,3-4H2
