19
gdb 110251	2.58523	1.36244	1.0421	2.885	77.03	-0.237	0.0044	0.2415	1196.9272	0.157928	-422.973912	-422.965083	-422.964138	-423.007399	32.952	
C	-0.3173218338	 1.4836486767	 0.3421010601	-0.252463
O	 0.2906476835	 0.2500455918	 0.0111800818	-0.24975
C	 0.7102458485	-0.4655381878	 1.132265142	 0.183268
C	-0.3002606005	-1.378060677	 1.9435679071	-0.256259
C	-0.226926327	-2.4308789338	 0.7633590641	 0.044959
C	-1.0394240141	-2.2824487532	-0.517469251	-0.445512
C	 1.2609660643	-1.9034620958	 0.8884774111	-0.251765
C	 0.9897148874	-2.0730480571	 2.3935995153	 0.444657
O	 1.4923156116	-2.5367396543	 3.3697797448	-0.322037
H	 0.354612439	 2.1107747976	 0.947033003	 0.115094
H	-0.5331528132	 1.9972113888	-0.5970023979	 0.133961
H	-1.2550048899	 1.3413840756	 0.8978188931	 0.114864
H	 1.3409499257	 0.1784605292	 1.7629591541	 0.0836
H	-1.1652172244	-1.0849005109	 2.5346997545	 0.088455
H	-0.3319653781	-3.4605607764	 1.1223403015	 0.091507
H	-0.9636050223	-1.2911469509	-0.9551114804	 0.149485
H	-0.6952517852	-3.0172805422	-1.2537169221	 0.118701
H	-2.0929187632	-2.5019508207	-0.3106980376	 0.115526
H	 2.1317865918	-2.1913792896	 0.3039048963	 0.093708
88.9557	143.8001	173.0172	190.5025	206.9351	250.4219	301.6929	389.1739	407.4755	524.906	555.2517	666.6557	716.6241	722.2627	775.4208	822.9153	914.9958	994.5489	1031.0071	1034.2001	1047.6923	1070.0488	1096.2953	1111.193	1125.4277	1150.8535	1182.4933	1185.9056	1203.8115	1229.2081	1256.3617	1266.8449	1401.9596	1420.8979	1454.0904	1485.9446	1488.5173	1495.4569	1509.6188	1512.1107	1920.0043	2984.1349	2992.6149	3034.2634	3039.2506	3044.5196	3088.4774	3125.7135	3144.736	3150.7231	3192.2935
COC1C2C(C)C1C2=O	CO[C@H]1[C@H]2[C@@H](C)[C@@H]1C2=O	
InChI=1S/C7H10O2/c1-3-4-6(8)5(3)7(4)9-2/h3-5,7H,1-2H3	InChI=1S/C7H10O2/c1-3-4-6(8)5(3)7(4)9-2/h3-5,7H,1-2H3/t3-,4+,5-,7+
