14
gdb 128437	4.69706	1.16394	0.93832	1.5185	66.32	-0.2878	-0.0621	0.2257	1175.7378	0.102085	-466.165171	-466.157394	-466.15645	-466.198372	26.969	
C	-0.0449166249	 1.3100860138	 0.0627445577	-0.231856
O	 0.0460112097	-0.1155905416	-0.0672059061	-0.216713
C	 0.6625719747	-0.5457694936	-1.1579835105	 0.570755
N	 1.1605138115	 0.1733500426	-2.0627642165	-0.562096
N	 0.6813535407	-1.9830860152	-1.1593761499	 0.008804
N	 1.248051725	-2.6663612405	-2.1543466175	-0.236498
C	 1.0446115464	-3.9101872066	-1.7643378388	 0.088894
N	 0.3812995545	-3.9878374484	-0.5799538342	-0.198789
N	 0.1558483015	-2.7615745829	-0.2056708302	-0.089134
H	 0.9532379397	 1.7534391765	 0.0908478844	 0.150723
H	-0.5982967268	 1.7337400703	-0.7786536016	 0.150723
H	-0.5726069119	 1.4789438001	 1.0005332946	 0.146124
H	 1.5781391546	-0.3961443433	-2.795373672	 0.259154
H	 1.3709229753	-4.7696066112	-2.3268490892	 0.159909
61.6642	108.6773	170.923	182.7316	216.2683	330.6592	421.1979	496.5332	676.3614	720.4873	735.144	800.8204	863.1515	910.9253	974.0414	1016.9825	1036.7453	1114.898	1140.9472	1182.1066	1187.9279	1220.7573	1276.3988	1309.7904	1325.7208	1405.4246	1478.3592	1479.543	1496.762	1505.4017	1772.4652	3056.6511	3134.5701	3170.8008	3291.0619	3537.1128
COC(=N)N1N=CN=N1	CO[C]([NH])n1ncnn1	
InChI=1S/C3H5N5O/c1-9-3(4)8-6-2-5-7-8/h2,4H,1H3	InChI=1S/C3H5N5O/c1-9-3(4)8-6-2-5-7-8/h2,4H,1H3
