18
gdb 56333	7.65252	0.48866	0.46329	4.4689	70.47	-0.2553	-0.0273	0.228	2214.3283	0.143251	-476.251671	-476.240486	-476.239541	-476.293329	35.743	
N	-0.1206383949	 1.3372633267	 0.1168223214	-0.52629
C	 0.0589983258	-0.0128921774	 0.0444211616	 0.418019
O	 1.1624261488	-0.5240638837	 0.0105091093	-0.356953
C	-1.2307244006	-0.8268241059	 0.0095891329	-0.33652
C	-0.9481075427	-2.3193382523	-0.0703570982	-0.046963
O	-2.1938273021	-2.9921042664	-0.0981637201	-0.256123
C	-2.0708455428	-4.387576313	-0.1720843129	-0.145411
C	-3.4662684623	-4.9861522056	-0.1951153246	 0.139592
O	-3.6866427766	-6.1660719232	-0.2556624184	-0.237307
H	 0.6940058927	 1.9278502806	 0.1425872426	 0.262775
H	-1.0306580661	 1.7617180138	 0.1446439256	 0.260029
H	-1.8281514449	-0.6110375913	 0.9034903009	 0.130439
H	-1.8387269353	-0.5191679508	-0.8496140628	 0.130457
H	-0.3597911393	-2.5494234462	-0.9702626763	 0.111625
H	-0.3492266573	-2.6419100974	 0.7934617067	 0.111604
H	-1.5314974094	-4.7102140702	-1.0791593266	 0.123819
H	-1.5208980121	-4.8029837005	 0.6897573324	 0.123817
H	-4.2760984108	-4.2244247272	-0.1503284936	 0.093391
3.1619	38.3223	57.5191	70.1185	81.9421	113.6282	125.4258	197.9104	287.7176	381.057	485.6546	506.4903	557.423	622.8944	640.53	739.4213	818.4536	861.9599	1010.0006	1059.1982	1073.6043	1080.4095	1116.2096	1123.7994	1174.9639	1214.3617	1239.8378	1258.1101	1303.959	1343.5014	1384.6767	1404.6385	1436.4057	1472.4327	1484.2483	1520.6151	1618.1065	1793.9775	1845.6731	2894.7238	2959.5251	2987.3452	2998.1347	3028.952	3037.4099	3077.5063	3605.4936	3742.5307
NC(=O)CCOCC=O	NC(=O)CCOCC=O	
InChI=1S/C5H9NO3/c6-5(8)1-3-9-4-2-7/h2H,1,3-4H2,(H2,6,8)	InChI=1S/C5H9NO3/c6-5(8)1-3-9-4-2-7/h2H,1,3-4H2,(H2,6,8)
