19
gdb 88258	3.07379	1.05988	0.93974	1.2517	80.22	-0.2444	-0.0496	0.1949	1329.0013	0.15892	-419.229927	-419.220463	-419.219519	-419.264459	35.325	
C	-0.3213567456	 1.4947123868	 0.0957514914	-0.419194
C	-0.0207590516	 0.013688252	 0.0904130296	 0.015435
C	 1.3256407386	-0.5165598299	-0.2573741636	-0.290402
C	 0.8365607237	-0.6690497891	 1.1761142857	-0.127078
C	 1.4818421304	 0.1385011426	 2.2263502301	 0.374846
O	 2.0810681655	 1.1824361678	 2.0240404125	-0.36279
C	 1.3941238498	-0.3851963867	 3.6599686485	 0.262451
N	 1.9106156702	 0.5040948624	 4.5560766337	-0.534637
N	 0.8606035632	-1.531530288	 3.8686436047	-0.506951
H	 0.5347536299	 2.0741037272	 0.4455201008	 0.151109
H	-0.5707417376	 1.8277635765	-0.9178602524	 0.116402
H	-1.1767638096	 1.7226611352	 0.7407267753	 0.116999
H	-0.8606602736	-0.6098164112	-0.2054965334	 0.0976
H	 1.4119611407	-1.423172012	-0.8457431393	 0.117486
H	 2.1213799472	 0.2080937617	-0.3965089736	 0.133025
H	 0.4972606507	-1.6393908177	 1.5089918253	 0.129058
H	 2.4319115955	 1.2720879665	 4.1595004614	 0.270407
H	 2.1334001037	 0.205034047	 5.4897779819	 0.251371
H	 0.8697232089	-1.776176231	 4.8615262115	 0.204862
57.6813	72.4674	178.9025	182.9134	233.0375	281.7286	323.9735	373.0876	386.9067	405.5934	495.7674	520.5588	559.2517	621.3844	733.578	769.1186	832.5871	857.3484	874.361	900.2365	959.2361	988.1559	1066.6173	1079.3609	1092.7369	1116.669	1130.5224	1144.7541	1153.6596	1208.4209	1232.7148	1386.4857	1399.846	1424.1848	1446.3674	1476.2081	1501.5599	1503.9532	1595.4802	1713.5203	1755.8594	3035.253	3090.846	3130.1659	3132.6654	3147.8603	3220.6049	3229.6126	3440.4618	3578.5263	3714.9877
CC1CC1C(=O)C(N)=N	C[C@H]1C[C@H]1C(=O)C(=N)N	
InChI=1S/C6H10N2O/c1-3-2-4(3)5(9)6(7)8/h3-4H,2H2,1H3,(H3,7,8)	InChI=1S/C6H10N2O/c1-3-2-4(3)5(9)6(7)8/h3-4H,2H2,1H3,(H3,7,8)/t3-,4+/m0/s1
