16
gdb 5760	6.00521	1.44502	1.28232	3.2875	71.89	-0.2058	0.0375	0.2433	958.1749	0.1334	-342.814524	-342.807684	-342.806739	-342.846302	25.939	
C	 0.8883789211	 1.4742332115	 0.3140070303	-0.253742
C	 0.9409209775	 0.2823334848	-0.5936534368	-0.253757
C	-0.2671908854	 0.492138409	 0.2987636428	-0.115545
C	-0.4689348324	-0.3976108316	 1.4554106339	 0.385581
N	 0.4760487574	-0.9269601754	 2.205679154	-0.318175
C	-0.1766922894	-1.6789228938	 3.1556584887	-0.084365
C	-1.531226289	-1.6070564602	 2.9827775841	-0.120326
N	-1.706159815	-0.7821488648	 1.8887883844	-0.298181
H	 1.5124837899	 1.4559134598	 1.1996694259	 0.139393
H	 0.7233116853	 2.4543751814	-0.1196162071	 0.109785
H	 0.8128297851	 0.4313750487	-1.6601148394	 0.109788
H	 1.6000102151	-0.5307568711	-0.3130581957	 0.139388
H	-1.1817602358	 0.8206225907	-0.1853598574	 0.073519
H	 0.36807877	-2.2281061619	 3.9086130931	 0.103207
H	-2.3637813568	-2.0438772029	 3.5079824197	 0.12323
H	-2.5867643277	-0.5126853543	 1.4838132196	 0.2602
37.9358	169.944	185.8206	398.1997	406.9116	526.3228	641.229	654.6044	707.2559	749.9601	793.1062	819.9729	854.1768	903.9871	911.5812	937.9405	988.1036	1065.4033	1086.4116	1088.8481	1104.5378	1120.0739	1136.4032	1203.2157	1207.0731	1213.9481	1236.6379	1368.1959	1405.4608	1457.4201	1468.5802	1503.5328	1520.8563	1593.6595	3136.7409	3139.1332	3153.1865	3225.7552	3240.0446	3246.4433	3282.3989	3664.6339
C1CC1C1=NC=CN1	C1CC1c1ncc[nH]1	
InChI=1S/C6H8N2/c1-2-5(1)6-7-3-4-8-6/h3-5H,1-2H2,(H,7,8)	InChI=1S/C6H8N2/c1-2-5(1)6-7-3-4-8-6/h3-5H,1-2H2,(H,7,8)
