14
gdb 130210	3.38411	1.15039	0.89915	3.4972	65.35	-0.2188	-0.0027	0.2161	1207.4155	0.101852	-470.03325	-470.025018	-470.024073	-470.067145	29.381	
N	 0.3756933152	 1.2552936185	 0.3111524182	-0.59495
C	 0.1697853355	-0.0986823078	 0.0830953113	 0.31397
N	-1.0022732008	-0.6912648514	 0.2843264931	-0.300231
N	-0.7689005048	-2.0043642901	 0.0254499527	-0.191212
C	 0.5037422822	-2.2630380574	-0.3410374977	-0.10657
C	 1.1488077822	-1.0448987789	-0.3107445023	 0.172331
O	 2.4537437003	-0.7617861164	-0.6615698424	-0.231346
C	 3.3885699862	-0.8328599957	 0.3313971606	 0.153621
O	 4.5369102462	-0.5912178688	 0.1346876361	-0.257166
H	 1.0271657999	 1.6748266684	-0.3387456707	 0.258605
H	-0.4914949921	 1.7744645369	 0.3487115856	 0.257776
H	-1.5271096751	-2.6562544124	 0.1196047593	 0.281206
H	 0.8540321934	-3.2497733727	-0.5968456429	 0.148521
H	 2.9425897218	-1.1393810922	 1.2945745894	 0.095443
31.3852	137.409	142.5952	245.6859	284.4073	303.0163	390.8443	446.374	477.3869	514.5268	648.0934	679.8683	716.6074	771.1864	799.357	862.3018	934.8387	1047.7215	1055.6776	1100.072	1124.8656	1216.4085	1243.5581	1334.3128	1404.7656	1439.5986	1494.8205	1570.1475	1616.9741	1650.8484	1877.8898	2985.3662	3270.2994	3547.9703	3646.658	3693.8631
NC1=NNC=C1OC=O	Nc1n[nH]cc1OC=O	
InChI=1S/C4H5N3O2/c5-4-3(9-2-8)1-6-7-4/h1-2H,(H3,5,6,7)	InChI=1S/C4H5N3O2/c5-4-3(9-2-8)1-6-7-4/h1-2H,(H3,5,6,7)
