21
gdb 113265	3.86208	0.78524	0.72927	4.2399	80.83	-0.2665	0.0077	0.2742	1626.2684	0.179481	-424.244604	-424.234311	-424.233367	-424.280179	37.013	
C	 0.2051812965	 1.5174270139	 0.0974804066	-0.37163
C	-0.18356752	 0.0498542942	-0.1179309422	-0.214978
C	 0.5660204089	-0.5763147988	-1.2759992358	-0.028902
C	 1.9400190412	-1.1971726184	-1.1002365681	-0.350496
C	 0.7480695599	-2.0560491802	-1.4517540003	 0.381431
C	 0.1786536464	-3.0797321694	-0.4996000324	-0.448318
O	 0.6316185743	-2.467689726	-2.815819091	-0.226321
C	 1.5663153333	-3.3204921021	-3.2826222503	 0.159544
O	 1.5315674193	-3.7695043076	-4.3894396056	-0.277601
H	 1.2750903616	 1.6142409505	 0.3091661762	 0.120106
H	-0.0119079194	 2.1177321239	-0.7925044703	 0.119777
H	-0.3462760655	 1.9523983818	 0.9363893426	 0.114439
H	 0.0093450338	-0.5126982292	 0.8027612397	 0.09646
H	-1.2634786469	-0.0211127997	-0.3007298754	 0.107051
H	 0.4327680136	-0.0584555328	-2.2229346577	 0.104282
H	 2.6883837385	-1.0135459875	-1.8627227573	 0.124775
H	 2.3358902157	-1.2863241946	-0.0929887983	 0.118137
H	 0.2204032319	-2.7276435034	 0.5331932187	 0.12728
H	-0.865088848	-3.2935805225	-0.7503508583	 0.13791
H	 0.7387215279	-4.0195966279	-0.5540899069	 0.123961
H	 2.3567230869	-3.5409690842	-2.5416131838	 0.083093
70.8009	78.8909	132.2169	162.8431	169.2741	211.2537	229.6062	271.7742	316.8948	337.7157	414.9302	429.6934	533.2764	619.8514	747.3618	788.4758	820.8962	904.3296	927.0945	942.4054	982.9537	1006.6282	1051.8904	1052.5764	1062.7586	1106.5838	1128.6295	1137.2358	1182.8667	1195.432	1234.1592	1294.8321	1326.3177	1353.4319	1409.2804	1417.5508	1421.1803	1428.6536	1477.6808	1484.7119	1489.8105	1497.2392	1503.6751	1508.3355	1862.2712	2968.8107	3023.6732	3034.312	3038.7626	3058.7751	3100.7793	3103.1455	3108.3379	3128.2963	3131.7153	3141.9482	3218.302
CCC1CC1(C)OC=O	CC[C@H]1C[C@]1(C)OC=O	
InChI=1S/C7H12O2/c1-3-6-4-7(6,2)9-5-8/h5-6H,3-4H2,1-2H3	InChI=1S/C7H12O2/c1-3-6-4-7(6,2)9-5-8/h5-6H,3-4H2,1-2H3/t6-,7-/m0/s1
