22
gdb 56248	5.25315	0.59095	0.55624	2.4698	84.77	-0.2621	0.0371	0.2992	2039.3262	0.193049	-404.348539	-404.338294	-404.33735	-404.385138	36.642	
C	-0.1932322243	 1.4067014514	-0.0336359839	-0.440737
C	 0.072123192	-0.0680379946	 0.0774563281	 0.408719
N	 1.2365424959	-0.5252073105	 0.2893652404	-0.521544
O	-1.0901620883	-0.7602315744	-0.0820588061	-0.241243
C	-1.0445795212	-2.1830608866	-0.0114182971	-0.078179
C	-2.4597792631	-2.7071418943	-0.2246792078	-0.232583
C	-2.521013318	-4.2185639816	-0.1827667225	 0.028479
C	-2.6313524442	-4.9435857557	 1.1376595092	-0.256238
C	-3.8025270683	-4.9191812265	 0.1870144961	-0.275914
H	 0.7384099748	 1.9563626927	 0.0916235538	 0.14589
H	-0.6328060482	 1.6391226097	-1.0086047297	 0.136659
H	-0.9135610864	 1.7197323584	 0.7286253277	 0.136517
H	 1.2575194748	-1.5427191165	 0.3398322759	 0.214536
H	-0.3655769955	-2.5727262472	-0.7832464881	 0.107235
H	-0.6577008987	-2.4994977017	 0.9668001342	 0.112718
H	-3.111814989	-2.2847178041	 0.5490550871	 0.106234
H	-2.8315053342	-2.3343749731	-1.186763071	 0.11128
H	-1.9182799579	-4.7129201633	-0.9413195433	 0.084264
H	-2.0898613562	-5.8740239587	 1.2669598804	 0.113724
H	-2.7018508316	-4.3436216684	 2.0395037023	 0.112508
H	-4.6563217725	-4.30386421	 0.4513861405	 0.113596
H	-4.0604371999	-5.8323813951	-0.3374833362	 0.114078
49.5364	53.204	97.7233	121.5592	140.9706	179.9752	236.4752	279.0797	377.9484	419.396	475.4389	559.9787	612.0686	775.561	787.2123	828.0454	836.3209	875.9088	891.0731	925.0336	968.5907	988.7708	1041.0706	1065.7071	1075.4654	1075.8836	1080.5463	1100.481	1137.2072	1141.1138	1192.0637	1199.2139	1228.6645	1251.0678	1301.8158	1318.3151	1332.3305	1400.2404	1414.1241	1434.2407	1469.6522	1474.8478	1478.5064	1489.4096	1508.4063	1523.9586	1733.599	2997.7049	3031.4253	3036.8309	3050.7672	3074.7806	3108.4603	3129.0568	3130.7174	3135.4749	3169.6159	3207.7635	3222.9796	3495.5096
CC(=N)OCCC1CC1	C[C]([NH])OCCC1CC1	
InChI=1S/C7H13NO/c1-6(8)9-5-4-7-2-3-7/h7-8H,2-5H2,1H3	InChI=1S/C7H13NO/c1-6(8)9-5-4-7-2-3-7/h7-8H,2-5H2,1H3
