19
gdb 92844	3.594	1.31821	1.02864	2.6176	76.38	-0.2182	0.0221	0.2403	1168.3924	0.162031	-419.188188	-419.180408	-419.179463	-419.220339	30.398	
C	-0.0166859206	 1.5711176127	-0.0341324929	-0.41403
C	 0.0103830931	 0.0487387635	 0.0517498924	 0.049235
C	 0.5462446647	-0.572531589	-1.2864466545	-0.172745
N	 1.2402968735	-1.8719517844	-1.2096119	-0.310248
C	 1.2037103219	-2.3670170427	-0.0598351302	 0.430892
O	 1.9510102286	-3.3893697147	 0.4853166041	-0.271568
C	 1.7836461125	-2.7858166019	 1.8190511085	-0.134945
C	 0.7037601474	-1.8353474509	 1.2483465751	-0.11481
N	 0.7443758709	-0.3788270488	 1.2736397415	-0.319404
H	 0.9982174373	 1.9732559822	-0.1385434441	 0.115692
H	-0.5934953549	 1.9012125149	-0.9038643574	 0.121423
H	-0.4635932643	 2.0012223673	 0.8656645452	 0.127784
H	-1.0173397594	-0.3078825144	 0.2024460611	 0.087346
H	-0.2867848036	-0.6478024751	-1.9956339525	 0.11474
H	 1.2652743512	 0.1213608857	-1.7430899083	 0.107635
H	 1.4627333652	-3.5239538805	 2.5557759248	 0.128703
H	 2.7125835339	-2.3009967567	 2.134039877	 0.1246
H	-0.3028389116	-2.1732665192	 1.5149816693	 0.114104
H	 1.7147726243	-0.0783094981	 1.1836009309	 0.215596
101.6423	180.4908	245.7165	259.1945	284.8336	355.7068	418.2964	439.5322	460.5969	588.1114	711.6788	737.806	800.3002	857.6039	898.2022	917.4409	930.2416	938.7075	969.5495	1042.7146	1056.7523	1106.4961	1138.8255	1145.9648	1147.5252	1186.5642	1212.7859	1236.2221	1264.9636	1307.4648	1325.8687	1355.4461	1377.9155	1403.3708	1412.3861	1462.7088	1485.0016	1496.9529	1497.2922	1510.455	1825.1515	3008.2047	3013.847	3031.7172	3051.9959	3057.0514	3058.6038	3097.7651	3122.2581	3131.061	3456.5216
CC1CN=C2OCC2N1	C[C@H]1C[N][C]2OC[C@H]2N1	
InChI=1S/C6H10N2O/c1-4-2-7-6-5(8-4)3-9-6/h4-5,8H,2-3H2,1H3	InChI=1S/C6H10N2O/c1-4-2-7-6-5(8-4)3-9-6/h4-5,8H,2-3H2,1H3/t4-,5+/m0/s1
