17
gdb 18324	3.25841	2.33196	1.51518	3.8499	68.29	-0.237	0.0207	0.2577	841.8728	0.145125	-363.890747	-363.884078	-363.883134	-363.921742	25.626	
O	-0.1458635605	 0.0195840708	 0.5196043404	-0.360301
C	-0.116080596	 1.1500751786	 0.0909376608	 0.361046
C	-1.2715883543	 1.9590883866	-0.5283554501	-0.320259
C	-0.9746614633	 3.4042517806	-0.0684614693	-0.24933
C	 0.5679521822	 3.4215499899	 0.02394514	 0.045879
C	 1.3196021425	 3.7030108737	 1.3604273476	-0.255575
C	 1.8247774926	 2.2293874584	 1.3095752707	-0.177624
N	 0.970176658	 2.0029768368	 0.1217175359	-0.08152
H	-1.239997289	 1.870122676	-1.6202325029	 0.128173
H	-2.2276680489	 1.561041092	-0.1872179997	 0.130534
H	-1.369031507	 4.1653387087	-0.74513597	 0.108585
H	-1.4136782485	 3.5794768227	 0.9199326595	 0.110801
H	 1.0193430447	 3.9239760029	-0.8393777483	 0.08332
H	 2.0895511112	 4.4752522601	 1.3241161556	 0.112164
H	 0.648292556	 3.9052688498	 2.1986337765	 0.1136
H	 2.8905322349	 2.1189502435	 1.0913454119	 0.118345
H	 1.5623405955	 1.5789213989	 2.1480519515	 0.132161
103.098	157.0404	206.7897	338.248	451.7839	546.2821	620.9341	654.4823	690.9159	753.301	808.0468	820.4459	928.305	936.1696	965.3793	977.3516	1010.6576	1058.5256	1094.0189	1116.8356	1168.9436	1191.2378	1206.669	1222.4286	1255.2513	1271.4595	1294.2554	1297.9444	1309.7179	1342.2549	1376.6503	1471.176	1482.4985	1499.158	1516.0748	1821.9286	3029.6708	3046.8467	3053.0864	3057.0113	3070.9784	3105.0529	3107.4728	3132.5564	3133.3625
O=C1CCC2CCN12	O=C1CC[C@H]2CCN12	
InChI=1S/C6H9NO/c8-6-2-1-5-3-4-7(5)6/h5H,1-4H2	InChI=1S/C6H9NO/c8-6-2-1-5-3-4-7(5)6/h5H,1-4H2/t5-/m0/s1
