18
gdb 85538	2.39445	1.74924	1.17672	3.6031	71.9	-0.237	0.007	0.2439	1065.7643	0.148397	-439.099082	-439.091145	-439.0902	-439.131563	30.453	
C	-0.3312443015	 1.4215133323	-0.0049087423	-0.395784
C	 0.0293238524	-0.0484256671	 0.1533436671	 0.097204
O	 0.5940897986	-0.4726777916	-1.1042556122	-0.23299
C	 1.2229668465	-1.6725962895	-1.1935364748	 0.385097
O	 1.5488813324	-2.0962318353	-2.2672515355	-0.321065
C	 1.4986906517	-2.3973098439	 0.1226131373	-0.294011
N	 1.7231451967	-1.5645855503	 1.3033046507	-0.10542
C	 2.4460064308	-0.3018377041	 1.0984253636	-0.261887
C	 0.9738679555	-0.3118021793	 1.3083938452	-0.016174
H	 0.5690137361	 2.018461309	-0.1742514208	 0.134536
H	-1.004212273	 1.5560730967	-0.8551440975	 0.13738
H	-0.8306077675	 1.7881834555	 0.8966322238	 0.12409
H	-0.8893419334	-0.6309349282	 0.3183684389	 0.097749
H	 0.6450385907	-3.055500864	 0.3310091743	 0.139881
H	 2.3644275838	-3.0418492565	-0.0450193779	 0.14824
H	 3.1084165968	-0.0184039056	 1.910412191	 0.124943
H	 2.8159070563	-0.065189012	 0.1038852878	 0.137183
H	 0.5683331671	-0.0246496762	 2.277153001	 0.10103
96.4087	128.6815	219.8882	245.4505	290.7315	351.0937	430.5032	459.6916	525.2868	548.8026	615.5384	691.3657	742.2591	824.5215	851.2384	901.2227	970.0623	985.2448	1026.8416	1044.2926	1075.1134	1095.2338	1116.1336	1151.5199	1165.5275	1174.8089	1232.4326	1278.1526	1305.9745	1339.511	1364.6568	1374.2434	1410.3762	1416.7453	1465.0354	1485.8862	1497.4002	1510.4962	1851.6467	2994.4331	3032.442	3048.8564	3111.7577	3113.3402	3119.5309	3126.1253	3132.1818	3200.2352
CC1OC(=O)CN2CC12	C[C@H]1OC(=O)CN2C[C@@H]12	
InChI=1S/C6H9NO2/c1-4-5-2-7(5)3-6(8)9-4/h4-5H,2-3H2,1H3	InChI=1S/C6H9NO2/c1-4-5-2-7(5)3-6(8)9-4/h4-5H,2-3H2,1H3/t4-,5+,7?/m1/s1
