18
gdb 13311	5.35793	1.19186	1.0384	2.1939	73.78	-0.2409	0.0571	0.298	1141.7706	0.15355	-347.779207	-347.770983	-347.770039	-347.812993	29.924	
C	-0.0177900187	-1.2410075369	-0.0389000358	-0.441617
C	-0.0055639841	-0.0400056805	-0.0039196869	 0.308445
C	 0.0154689948	 1.4169489831	 0.0168196002	-0.367337
C	 1.4320372728	 2.0132782681	 0.0058454545	 0.158951
C	 1.4610131713	 3.5467246453	-0.0700325558	-0.244212
C	 2.7617384136	 3.8787374199	 0.6728388699	-0.232242
C	 2.7749863046	 2.8011408853	 1.7637269314	-0.056949
O	 2.106968027	 1.6654387439	 1.2153370035	-0.271091
H	-0.0274783293	-2.3022922112	-0.0585586303	 0.192415
H	-0.5300986682	 1.8029027408	-0.8546395991	 0.125174
H	-0.505559793	 1.7875060891	 0.9084412988	 0.12958
H	 1.9844049294	 1.5819674242	-0.8429633801	 0.078934
H	 1.4354743336	 3.9158130387	-1.0980869319	 0.105723
H	 0.598023845	 3.9659551852	 0.4616845854	 0.102768
H	 3.6223503005	 3.7591830516	 0.0062002727	 0.109759
H	 2.7869119543	 4.8930909576	 1.0781245238	 0.104374
H	 3.7859326806	 2.5051700865	 2.0644995787	 0.104482
H	 2.2424501459	 3.1431935194	 2.663910661	 0.092843
32.2322	73.3636	125.3151	218.0123	303.7065	346.7023	403.0614	487.6393	592.0565	612.8274	635.358	672.4892	821.8367	873.7013	888.8011	917.0388	938.8164	964.8865	985.3085	1030.6496	1084.3377	1110.2469	1136.7713	1192.8717	1205.5678	1235.9332	1265.4564	1294.2486	1324.4779	1341.56	1363.6392	1395.2874	1400.8753	1454.9922	1486.3367	1498.2703	1532.8521	2241.658	2980.8876	2988.8291	3017.1621	3035.7485	3047.2084	3057.6818	3062.4686	3102.3864	3110.5308	3508.6391
C#CCC1CCCO1	C#CC[C@H]1CCCO1	
InChI=1S/C7H10O/c1-2-4-7-5-3-6-8-7/h1,7H,3-6H2	InChI=1S/C7H10O/c1-2-4-7-5-3-6-8-7/h1,7H,3-6H2/t7-/m0/s1
