14
gdb 48108	2.92324	1.23131	1.02038	2.079	70.82	-0.2526	-0.0847	0.1679	1149.8733	0.097793	-436.641253	-436.632467	-436.631523	-436.675407	30.761	
O	-0.7525471081	 1.4823182963	-0.2406496427	-0.229443
C	 0.345666708	 1.1230821343	 0.0892366215	 0.097522
C	 1.6015434915	 2.0051403144	 0.0722504589	 0.295037
O	 2.6301259348	 1.5832173419	 0.551403379	-0.318864
N	 1.4610212246	 3.2022018725	-0.5879092061	-0.077367
C	 0.4733923357	 4.2321150125	-0.4042422976	-0.230188
C	 1.9480414426	 4.5129118357	-0.1831519041	-0.211425
C	 2.4471218433	 4.724050052	 1.1470444041	 0.351078
C	 2.8698742304	 4.9237983448	 2.253722119	-0.436706
H	 0.5704500947	 0.108623287	 0.4771733107	 0.117391
H	-0.0055528422	 4.600474618	-1.3067044908	 0.141737
H	-0.1584800112	 4.1827029084	 0.4766587274	 0.152314
H	 2.478731845	 5.0443178792	-0.9695917486	 0.137483
H	 3.2495344708	 5.0877055329	 3.2322161293	 0.211429
60.8217	92.6477	136.3829	168.6655	220.1862	240.1822	291.4866	470.1738	510.4847	524.3519	614.5027	625.6811	656.3173	676.6854	744.54	812.9517	943.7656	1004.146	1025.1873	1055.2379	1109.3304	1130.7561	1159.2246	1199.3259	1362.2856	1371.9055	1433.1937	1507.7522	1782.8806	1827.7827	2245.3265	2941.0392	3122.3752	3138.4491	3218.9276	3501.43
O=CC(=O)N1CC1C#C	O=CC(=O)N1C[C@H]1C#C	
InChI=1S/C6H5NO2/c1-2-5-3-7(5)6(9)4-8/h1,4-5H,3H2	InChI=1S/C6H5NO2/c1-2-5-3-7(5)6(9)4-8/h1,4-5H,3H2/t5-,7?/m1/s1
