19
gdb 80370	2.30947	1.70508	1.1966	4.8477	79.46	-0.2338	0.0231	0.2568	1092.117	0.158922	-382.040101	-382.031309	-382.030365	-382.073086	33.736	
C	-0.0345586015	 1.5327031641	-0.1508661286	-0.422843
C	 0.0661874909	 0.0353703081	 0.0407793775	-0.008523
C	 1.3218176325	-0.7640771711	-0.1208233392	-0.035534
N	 2.4747646749	 0.0358683357	 0.3543740002	-0.347163
C	 1.9540493441	-0.0656891849	 1.760552403	 0.14126
C	 2.7458947599	-1.0446515016	 2.6321677803	-0.442815
C	 1.858112818	 1.2332464419	 2.4501852723	 0.282877
N	 1.7834581993	 2.2330722537	 3.0252646018	-0.349508
C	 0.6423225249	-0.6905314814	 1.2424799166	-0.136015
H	 0.9172375449	 2.0260099025	 0.0512890469	 0.154168
H	-0.3144354941	 1.7574637488	-1.1855727573	 0.113124
H	-0.7944141568	 1.9667144414	 0.5060623871	 0.125518
H	-0.7994057968	-0.51655194	-0.3238763946	 0.093744
H	 1.4488905304	-1.5889821034	-0.8116415605	 0.099218
H	 3.35364901	-0.4646504395	 0.2709460122	 0.226891
H	 3.764226387	-0.6789878281	 2.7961774681	 0.138543
H	 2.2686842584	-1.1677987425	 3.6091760923	 0.14163
H	 2.7882528556	-2.0207401159	 2.1401904386	 0.126363
H	 0.0836688686	-1.4249489378	 1.8094555733	 0.099063
112.6805	141.8707	184.1306	211.9307	247.3832	266.0371	293.3907	366.4273	466.1639	533.9389	558.0077	592.8224	648.2577	718.4459	778.493	820.1609	853.715	874.8904	941.6566	957.7297	1001.0166	1019.7286	1037.9597	1057.278	1067.4879	1115.7905	1157.6268	1162.3275	1204.4314	1224.6702	1280.844	1328.7955	1361.0232	1405.7144	1415.5459	1452.6879	1485.1946	1491.063	1492.8714	1503.9879	2352.0237	3037.1707	3042.0215	3101.1065	3113.6819	3118.7115	3119.6801	3145.0293	3177.4414	3189.8731	3527.7975
CC1C2NC(C)(C#N)C12	C[C@H]1[C@H]2N[C@@](C)(C#N)[C@@H]12	
InChI=1S/C7H10N2/c1-4-5-6(4)9-7(5,2)3-8/h4-6,9H,1-2H3	InChI=1S/C7H10N2/c1-4-5-6(4)9-7(5,2)3-8/h4-6,9H,1-2H3/t4-,5+,6-,7+/m1/s1
