16
gdb 44313	3.37994	1.8584	1.40868	1.5087	72.47	-0.2198	-0.0186	0.2012	896.7525	0.126028	-400.649679	-400.643528	-400.642584	-400.680077	25.495	
O	-0.0664756621	 0.0292401497	-0.193312949	-0.310321
C	-0.0114353396	 1.2145948872	-0.0196145128	 0.303841
C	-1.2083033799	 2.2308251642	 0.0328403181	-0.350103
C	-0.4837878566	 3.5765127625	 0.2813863933	-0.089795
C	 0.7986202891	 3.4998431056	-0.5564731668	-0.005437
N	 1.7960202329	 4.0003638153	 0.5187154764	-0.186551
C	 2.5675219032	 2.6778776302	 0.3894576742	-0.274397
C	 1.1243267549	 2.1773933977	 0.2060285197	 0.147227
C	 0.658703374	 3.2418204398	 1.2484200965	-0.005436
H	-1.7637445714	 2.2001459713	-0.9100008679	 0.133218
H	-1.8990299127	 1.9507562467	 0.8346271758	 0.133217
H	-1.0810932893	 4.4854960377	 0.3650278807	 0.083416
H	 0.9676103029	 3.6905303068	-1.6179889776	 0.092979
H	 3.2334947956	 2.6427533998	-0.4769435528	 0.117581
H	 3.0955872404	 2.3884294197	 1.3020203133	 0.117582
H	 0.6612585284	 3.125569006	 2.3338758987	 0.092979
134.5586	299.5292	309.8618	431.3336	531.6781	591.8468	613.2801	665.2488	737.8773	797.419	842.0486	855.5585	874.2838	878.7266	906.4856	954.1228	971.7011	973.4086	999.7924	1041.8853	1084.2073	1110.9731	1128.0844	1130.8511	1176.0598	1187.2421	1226.5772	1233.3559	1261.1043	1270.699	1284.3505	1340.3413	1462.0657	1513.6856	1863.0393	3055.1336	3055.5572	3095.6726	3098.0057	3100.2933	3110.6697	3121.11
O=C1CC2C3N4CC13C24	O=C1C[C@@H]2[C@H]3N4C[C@]13[C@H]24	
InChI=1S/C7H7NO/c9-4-1-3-5-7(4)2-8(5)6(3)7/h3,5-6H,1-2H2	InChI=1S/C7H7NO/c9-4-1-3-5-7(4)2-8(5)6(3)7/h3,5-6H,1-2H2/t3-,5-,6+,7+
