17
gdb 69385	3.48096	1.25977	1.06021	3.6432	75.1	-0.2527	-0.0738	0.179	1149.7265	0.135689	-418.002938	-417.994836	-417.993891	-418.035667	30.227	
C	-0.2237536715	 1.446845177	 0.1909102405	-0.478828
C	-0.0132508518	-0.0332111645	 0.0020674413	 0.315045
C	-0.7622661166	-1.0286870549	 0.8084821938	-0.291458
N	 0.6817359936	-0.7858305115	 1.084742611	-0.170705
C	 1.4852005829	-1.7046724365	 0.3529118979	 0.22759
C	 2.2944194984	-2.7391713135	 1.0603089517	 0.112535
O	 2.2704381441	-2.9186539341	 2.2503916333	-0.239163
N	 1.5140017236	-1.6282377159	-0.9237128694	-0.238846
C	 0.6038954581	-0.5399575614	-1.3092972458	-0.244788
H	 0.6958709124	 2.0013079187	-0.0239426454	 0.128982
H	-1.0057303976	 1.8137506722	-0.4830286859	 0.126255
H	-0.524742619	 1.6707280035	 1.2173167052	 0.13645
H	-1.4281352595	-0.6913989606	 1.5967466744	 0.130014
H	-1.0264607744	-1.982359568	 0.3581066146	 0.128182
H	 2.9153912996	-3.3415267504	 0.3675590751	 0.10315
H	-0.1237162963	-0.908790907	-2.0408623229	 0.128579
H	 1.1809772539	 0.250033927	-1.8071252595	 0.127006
90.118	165.8381	168.4978	192.6143	288.6121	330.291	376.8209	398.9341	489.8258	610.3284	636.9382	720.9443	762.2228	833.8253	845.391	925.9849	961.1351	985.2166	999.6093	1032.9417	1047.9642	1101.4781	1124.2468	1130.257	1200.4112	1252.2124	1292.9158	1345.7562	1382.347	1394.3202	1420.519	1476.5579	1486.7424	1493.1352	1506.3206	1663.8305	1819.1455	2942.7985	3027.8869	3035.4768	3065.6163	3098.6249	3110.1997	3122.7532	3202.9729
CC12CN1C(C=O)=NC2	C[C@]12CN1C(=NC2)C=O	
InChI=1S/C6H8N2O/c1-6-3-7-5(2-9)8(6)4-6/h2H,3-4H2,1H3	InChI=1S/C6H8N2O/c1-6-3-7-5(2-9)8(6)4-6/h2H,3-4H2,1H3/t6-,8?/m0/s1
