23
gdb 119418	3.2829	0.89735	0.81929	1.8035	86.68	-0.2232	0.0796	0.3028	1549.1528	0.204101	-388.263906	-388.253946	-388.253002	-388.299052	37.137	
C	 0.0180713753	 1.5959882764	 0.1362073558	-0.382746
C	-0.0129622401	 0.0660410132	 0.1608203964	-0.152328
C	-1.4024371503	-0.5117387226	-0.1549573147	-0.308602
C	-1.4433200854	-2.0134688992	-0.1302830506	 0.237184
C	-1.5893775216	-2.8467644489	 1.1366361429	-0.380448
C	-2.5706698262	-3.0199288658	 0.0138865551	 0.407534
C	-4.0597277325	-2.9369403821	 0.0932080501	-0.486141
O	-2.0079078427	-3.8959681895	-0.9772897883	-0.325896
C	-0.9425109718	-2.9434960607	-1.2325995809	-0.128731
H	 1.0178298397	 1.9792939761	 0.3626457263	 0.112323
H	-0.2721104615	 1.9832064185	-0.8470054685	 0.114033
H	-0.6748914342	 2.017595272	 0.873138813	 0.113387
H	 0.7145301189	-0.3280412309	-0.5607455022	 0.097414
H	 0.3085608005	-0.2977736357	 1.1446085608	 0.101272
H	-2.1285731646	-0.1169623066	 0.5682587775	 0.094259
H	-1.7285970715	-0.1504174417	-1.1406505551	 0.094693
H	-0.8899728429	-3.6467441569	 1.3676146249	 0.107069
H	-1.9522410021	-2.2912843906	 1.9971681056	 0.107128
H	-4.3645662278	-2.1786756897	 0.8202894431	 0.121516
H	-4.4926798189	-2.685031868	-0.8799796251	 0.125894
H	-4.4799819376	-3.8974610127	 0.4130459218	 0.13236
H	-1.0407151322	-2.5165010073	-2.2389332627	 0.099886
H	 0.0525931796	-3.3913636874	-1.1195446651	 0.09894
66.7111	87.2713	98.0507	188.8722	215.8764	244.5779	249.7096	311.9204	336.6593	373.9688	444.1895	493.1768	621.1437	741.8297	760.2878	773.8442	846.0264	867.9074	903.1803	918.9716	947.2746	977.3992	987.9351	1044.0139	1045.7826	1049.8157	1070.4472	1109.9048	1121.3623	1156.4865	1197.037	1221.9131	1271.2978	1290.6269	1313.4149	1333.2528	1354.4066	1385.2492	1403.9436	1411.6259	1429.7699	1473.2315	1479.1623	1491.0836	1492.3083	1499.2987	1506.9823	1510.2711	1524.0718	3001.0725	3009.6662	3020.9063	3028.3885	3031.46	3033.9876	3056.2682	3058.6984	3094.4019	3094.9863	3101.9097	3104.2878	3114.6448	3195.6068
CCCC12CC1(C)OC2	CCC[C@@]12C[C@]1(C)OC2	
InChI=1S/C8H14O/c1-3-4-8-5-7(8,2)9-6-8/h3-6H2,1-2H3	InChI=1S/C8H14O/c1-3-4-8-5-7(8,2)9-6-8/h3-6H2,1-2H3/t7-,8-/m0/s1
