20
gdb 79029	4.6637	1.34596	1.28463	1.2018	82.38	-0.2074	0.097	0.3044	1056.2327	0.173047	-365.921402	-365.914497	-365.913553	-365.952212	29.38	
C	 0.0361711923	 1.5046213521	-0.2188381936	-0.326741
N	 0.0272036717	 0.0625816876	 0.0052455711	-0.11393
C	-1.0446372954	-0.5000026049	 0.8921919403	-0.03301
C	-0.1234194701	-1.749464684	 1.1384259126	-0.012617
C	-0.3840190624	-2.2894683278	 2.5323071389	-0.066669
C	 0.6003541032	-1.926209399	 3.6197579169	-0.296449
C	-0.5566892111	-1.0024385442	 3.312728323	-0.067307
C	-0.3607084076	 0.0309590672	 2.2157955541	-0.04544
C	 0.7479161267	-0.459900988	 1.2199987701	-0.050881
H	 1.0044534891	 1.7872982041	-0.6459528052	 0.11769
H	-0.7331472388	 1.7469506932	-0.9599637548	 0.118057
H	-0.1397184647	 2.1335993579	 0.6678587512	 0.094426
H	-2.1015919383	-0.4811522156	 0.6136864415	 0.072074
H	 0.0527265837	-2.4253943899	 0.3032311942	 0.07457
H	-1.0413464562	-3.140693833	 2.664433586	 0.085556
H	 0.5334064026	-2.4936438545	 4.5426383931	 0.108089
H	 1.6116524995	-1.6332689584	 3.3581546951	 0.111967
H	-1.3448473843	-0.8696925839	 4.0449319058	 0.084467
H	-0.423124751	 1.0841957959	 2.4818207789	 0.071076
H	 1.8332174312	-0.3840802449	 1.316611121	 0.07507
183.6195	216.2403	253.3999	321.4118	381.9397	501.9527	545.1943	644.7041	672.6837	767.9997	780.5846	794.7262	815.598	844.1724	886.0907	897.7769	911.505	936.2204	986.305	994.5399	1021.61	1060.4406	1069.4675	1075.6572	1095.6962	1098.695	1126.7804	1142.4328	1158.6443	1172.4935	1175.8827	1199.0566	1208.4528	1224.4325	1264.4345	1289.3506	1330.7569	1340.6817	1378.4303	1447.4922	1489.9012	1492.9757	1500.2864	2978.7446	3059.4721	3077.8087	3084.5142	3092.6027	3128.2139	3135.5882	3138.2974	3171.2742	3180.9674	3210.8025
CN1C2C3C4CC4C2C13	CN1[C@H]2[C@@H]3[C@H]4C[C@H]4[C@H]2[C@H]13	
InChI=1S/C8H11N/c1-9-7-5-3-2-4(3)6(7)8(5)9/h3-8H,2H2,1H3	InChI=1S/C8H11N/c1-9-7-5-3-2-4(3)6(7)8(5)9/h3-8H,2H2,1H3/t3-,4+,5-,6+,7-,8+
