14
gdb 48012	5.6203	0.6985	0.66345	2.2226	74.87	-0.2702	-0.0721	0.1981	1603.0161	0.100496	-436.666423	-436.658074	-436.65713	-436.701423	27.95	
O	-0.0151311131	-0.1854606017	 0.2769910281	-0.224199
C	-0.0225137149	 1.0149344268	 0.1334344378	 0.024042
C	 1.1637230464	 1.8299643056	 0.0524576099	-0.002727
C	 2.1352637468	 2.5444980339	-0.0152736961	 0.153264
C	 3.3374770081	 3.3495158595	-0.1130013825	-0.087438
C	 4.1314600182	 3.1634233743	-1.4561755029	-0.197728
N	 4.1684469974	 4.5021222078	-2.0531693886	-0.2485
C	 3.5414919832	 5.2629794655	-1.2619392716	 0.128324
O	 3.0090487145	 4.7678772843	-0.1144751987	-0.218243
H	-0.9683560583	 1.5871695532	 0.0519259245	 0.107871
H	 3.9717569988	 3.1675410924	 0.760451671	 0.137522
H	 5.1455401979	 2.7977622795	-1.2737409827	 0.134169
H	 3.6346353333	 2.4598162185	-2.1291071296	 0.140362
H	 3.3734637216	 6.3244306104	-1.4043532785	 0.153281
45.5421	56.2535	89.0166	136.6734	215.6447	276.6593	445.7829	479.6776	533.7425	635.0184	724.9238	805.4323	868.573	938.8436	958.0833	966.2361	988.8366	1019.6432	1041.7523	1108.2943	1171.367	1205.4966	1284.7743	1312.9177	1333.0464	1365.0184	1419.9578	1497.9902	1716.704	1768.9675	2324.8929	2927.4369	3055.9017	3064.5289	3106.1523	3222.6709
O=CC#CC1CN=CO1	O=CC#C[C@H]1CN=CO1	
InChI=1S/C6H5NO2/c8-3-1-2-6-4-7-5-9-6/h3,5-6H,4H2	InChI=1S/C6H5NO2/c8-3-1-2-6-4-7-5-9-6/h3,5-6H,4H2/t6-/m0/s1
