12
gdb 12585	3.55158	2.09466	1.32886	3.1857	58.01	-0.2318	-0.1135	0.1182	836.1417	0.084029	-414.695268	-414.688138	-414.687194	-414.726669	25.763	
N	 0.0005752124	 1.3367300488	 0.0891173864	-0.564976
C	-0.0357171243	-0.0137334954	 0.0262956652	 0.302597
N	-1.0969050655	-0.7464561026	 0.0044881425	-0.290174
C	-0.737412527	-2.1712949833	-0.0090420249	-0.284966
C	 0.7827879128	-2.252843524	-0.0198430521	 0.315181
O	 1.4995318538	-3.2153590843	-0.0400886484	-0.270331
C	 1.2493252204	-0.777765732	-0.0030111803	 0.245391
O	 2.3717102921	-0.3422580839	-0.0289934129	-0.291294
H	 0.8836028011	 1.7860836035	-0.0895110031	 0.276356
H	-0.8457574951	 1.859756645	-0.0639361853	 0.269617
H	-1.1496832863	-2.6862820608	 0.8676466825	 0.146573
H	-1.1588305344	-2.671516131	-0.8897690296	 0.146026
85.4606	205.5763	262.49	290.7325	313.4993	340.9758	471.43	555.6743	557.0874	592.9857	675.955	719.9665	759.0386	960.8977	980.503	1036.6069	1095.1746	1175.1083	1185.8148	1299.4889	1439.433	1462.2299	1607.2966	1701.04	1833.0879	1862.7794	3030.7971	3059.1552	3599.17	3724.9264
NC1=NCC(=O)C1=O	NC1=NCC(=O)C1=O	
InChI=1S/C4H4N2O2/c5-4-3(8)2(7)1-6-4/h1H2,(H2,5,6)	InChI=1S/C4H4N2O2/c5-4-3(8)2(7)1-6-4/h1H2,(H2,5,6)
