12
gdb 129135	2.61654	1.78203	1.15792	2.6672	66.6	-0.2772	-0.1048	0.1724	972.5272	0.077044	-468.757847	-468.75053	-468.749586	-468.79063	26.054	
N	 0.0032360641	 1.2882933749	-0.1194339325	-0.450291
C	-0.0137420913	 0.0297269437	 0.0333979938	 0.252293
N	 1.1164029115	-0.7547823147	 0.2571778877	-0.289787
C	 1.339306008	-1.9335059343	-0.1321683694	 0.154717
O	 0.6588127641	-2.8274990812	-0.9077252775	-0.229915
N	-0.6793365038	-2.7724293044	-1.2990709788	-0.025895
C	-1.4835706802	-1.8865686525	-0.8510583561	-0.028972
C	-1.3542555461	-0.672102033	 0.0220264987	 0.316746
O	-2.3222498232	-0.2656782266	 0.6131575903	-0.271438
H	 0.9687954667	 1.6272288216	-0.0870175207	 0.238963
H	 2.2825316116	-2.4175092078	 0.1171127863	 0.161248
H	-2.5021821914	-2.0445888456	-1.2032200918	 0.172331
54.4858	74.1537	261.183	314.7534	320.024	418.4821	450.4744	505.3248	607.2893	658.3061	786.4767	798.6539	828.6944	868.054	930.6481	950.7998	969.9034	993.0116	1090.829	1184.625	1314.4074	1343.8948	1428.334	1658.9437	1710.9612	1732.2751	1799.155	3156.0119	3160.434	3447.9497
N=C1N=CON=CC1=O	[NH][C]1N=CON=CC1=O	
InChI=1S/C4H3N3O2/c5-4-3(8)1-7-9-2-6-4/h1-2,5H	InChI=1S/C4H3N3O2/c5-4-3(8)1-7-9-2-6-4/h1-2,5H
