22
gdb 115151	2.70579	1.2025	0.92964	3.79	83.18	-0.2319	0.0391	0.2709	1340.9121	0.194905	-404.409911	-404.400214	-404.39927	-404.444634	35.545	
C	 0.6906731121	-0.32102451	-1.3810095973	-0.384044
C	-0.01168397	-0.1939253873	-0.0260871629	-0.186102
C	-1.546013239	-0.2895422887	-0.1241154829	 0.028061
C	-2.0708215122	-1.7272692661	-0.3794199676	-0.236215
C	-2.4728033619	-2.2447045984	 1.0096892509	-0.334789
C	-2.7453855783	-0.9791224929	 1.8211055727	 0.40523
O	-3.3142195967	-0.9024547443	 2.891485578	-0.397067
N	-2.2112065933	 0.0737248223	 1.1231577702	-0.061439
C	-2.2782363377	 1.4293588207	 1.6169299466	-0.352358
H	 1.7754370715	-0.236257115	-1.2689079578	 0.11973
H	 0.4841675056	-1.2832430052	-1.8609536663	 0.120514
H	 0.3652084657	 0.4673745381	-2.0689470265	 0.117785
H	 0.3505365706	-0.965937938	 0.6648823035	 0.100892
H	 0.2544280457	 0.7695215331	 0.4240958029	 0.10183
H	-1.8803535777	 0.3919148816	-0.9193943909	 0.073518
H	-2.9469186322	-1.6873698019	-1.0327521829	 0.111893
H	-1.3231202334	-2.3513219895	-0.8732019806	 0.107492
H	-3.3533709642	-2.8894318385	 1.0098797928	 0.12897
H	-1.6667004255	-2.800248545	 1.5018730528	 0.128292
H	-2.8797932369	 1.413332148	 2.5275506979	 0.165341
H	-1.2862860399	 1.8314879488	 1.8561074715	 0.123239
H	-2.7487473723	 2.0915447384	 0.8794734857	 0.119228
75.6645	111.3114	128.2391	152.5692	175.5135	217.1859	265.6835	301.1738	381.1233	403.8903	495.6084	573.3318	644.1453	669.7929	760.844	781.8244	833.9261	894.4522	944.074	990.1092	1011.6553	1016.2712	1063.0672	1106.7141	1118.8212	1128.1917	1160.7989	1196.9643	1230.606	1265.6807	1279.3603	1301.4938	1310.5564	1341.7069	1349.119	1394.0136	1415.0584	1429.2454	1450.7345	1473.7171	1484.5098	1495.1302	1498.4979	1502.9663	1507.1044	1521.8366	1804.5779	2993.9146	3014.752	3026.8696	3034.6542	3054.6949	3060.3296	3063.7452	3065.2407	3100.222	3107.7179	3110.3188	3121.4135	3140.5255
CCC1CCC(=O)N1C	CC[C@H]1CCC(=O)N1C	
InChI=1S/C7H13NO/c1-3-6-4-5-7(9)8(6)2/h6H,3-5H2,1-2H3	InChI=1S/C7H13NO/c1-3-6-4-5-7(9)8(6)2/h6H,3-5H2,1-2H3/t6-/m0/s1
