22
gdb 105903	2.20919	1.76771	1.22544	1.0058	86.48	-0.2075	0.0882	0.2958	1134.0912	0.193697	-367.122544	-367.113855	-367.112911	-367.155591	34.074	
C	 0.5834068277	-0.4695887526	-1.8700534139	-0.375266
C	 0.0806003897	 0.0848351136	-0.5313358777	-0.334522
C	-1.3250933535	-0.3453059913	-0.2155577337	 0.408334
N	-2.5019099585	-0.0332176801	-1.1013047906	-0.151277
C	-2.8891278717	 1.3718414108	-1.1793797324	-0.332927
C	-3.0827687534	-0.8017711779	 0.0373216959	-0.004607
C	-1.8775542162	-1.7851769287	 0.0667444951	-0.10019
C	-1.6974407741	-1.641561841	 1.5896345937	-0.283043
C	-2.1260606266	-0.2291831714	 1.1464499879	-0.13221
H	 1.5846883359	-0.0937788914	-2.1005514735	 0.108599
H	 0.6294757583	-1.5630558005	-1.8489180633	 0.118304
H	-0.0888545938	-0.1849925333	-2.6843587262	 0.134528
H	 0.737638939	-0.2378327824	 0.2863648131	 0.104846
H	 0.1227302653	 1.1820573782	-0.5404192836	 0.102366
H	-2.2142717521	 1.8988902201	-1.8621636523	 0.116544
H	-3.8996374018	 1.4425927136	-1.596055787	 0.116536
H	-2.8817817363	 1.9046783026	-0.2130455544	 0.092245
H	-4.1453725416	-1.0390962487	 0.1183685557	 0.074461
H	-1.7531654368	-2.6532959344	-0.5804705007	 0.076505
H	-2.4041764314	-2.1908540307	 2.2189949451	 0.093244
H	-0.6809050536	-1.749566044	 1.9801107781	 0.094026
H	-2.2689863046	 0.6565182895	 1.7658246546	 0.073506
80.8044	167.0789	183.817	220.529	244.0059	252.4885	288.3557	399.0111	486.3911	556.1205	632.9926	728.2565	737.2983	772.2858	828.7281	864.0422	879.9904	894.1248	915.6033	929.3583	981.4103	1004.8991	1031.7435	1057.2456	1087.4481	1112.7549	1117.3968	1144.831	1152.7723	1165.2105	1173.4634	1180.5318	1201.0892	1240.5904	1250.7167	1273.0886	1307.7955	1337.2142	1388.6913	1410.0831	1446.3941	1475.7263	1493.4838	1495.8352	1498.4536	1507.2854	1513.0412	2959.9447	3018.1842	3040.2733	3042.6117	3051.0379	3058.6594	3093.1465	3093.551	3096.3772	3107.8037	3111.6361	3118.2391	3121.0259
CCC12N(C)C3C1CC23	CC[C@@]12N(C)[C@H]3[C@@H]1C[C@@H]23	
InChI=1S/C8H13N/c1-3-8-5-4-6(8)7(5)9(8)2/h5-7H,3-4H2,1-2H3	InChI=1S/C8H13N/c1-3-8-5-4-6(8)7(5)9(8)2/h5-7H,3-4H2,1-2H3/t5-,6+,7-,8+
