20
gdb 88783	3.08679	1.06655	0.87506	3.568	80.58	-0.2381	0.0389	0.2771	1363.7051	0.170925	-403.159629	-403.150408	-403.149464	-403.194448	33.75	
C	 0.2588984904	 1.5547785318	-0.4888111181	-0.407881
C	 0.0555180998	 0.0947791355	-0.1465007431	-0.008971
C	 1.2241783708	-0.8510048955	-0.028135799	-0.295168
C	 0.4184662987	-0.5006262328	 1.2014039425	 0.0081
C	 1.0328811883	 0.3002058008	 2.3161369886	-0.162805
C	 0.0861124294	 0.8560322818	 3.4296112595	-0.182624
N	 0.835673955	 0.0375542524	 4.3845499448	-0.321599
C	 1.6920440149	-0.5211766923	 3.4665765621	 0.414225
O	 2.5775986268	-1.3274360727	 3.5586532797	-0.361
H	 1.1910701178	 1.9490843177	-0.0737312895	 0.116607
H	 0.3074635767	 1.6916442485	-1.5746618069	 0.120282
H	-0.5626766648	 2.1756444297	-0.1133442262	 0.114915
H	-0.8417016035	-0.3315592559	-0.5886147685	 0.0843
H	 1.1431583177	-1.8533876183	-0.4329491657	 0.114293
H	 2.219881427	-0.4246849272	-0.1029998307	 0.115946
H	-0.2541658323	-1.279008396	 1.555241192	 0.083838
H	 1.7213553991	 1.0590312454	 1.9367106601	 0.096976
H	 0.1497771466	 1.9338342031	 3.6104388286	 0.110035
H	-0.9635026934	 0.5646960929	 3.3164999287	 0.111201
H	 0.7401548749	-0.1009212785	 5.379459811	 0.249329
47.061	88.4628	114.7286	180.0583	188.6159	228.9526	331.3126	396.7104	426.2599	460.3617	558.5313	669.5207	750.9172	768.9874	828.3933	853.9604	896.4926	917.591	935.6212	988.8057	1020.5756	1029.0294	1067.9236	1077.6694	1112.7684	1147.2933	1156.3034	1165.4479	1179.7488	1197.2392	1205.2464	1255.3099	1283.3839	1294.5492	1392.9747	1394.3765	1421.4025	1435.6826	1493.1326	1493.721	1506.4748	1527.201	1893.4123	3028.868	3036.0361	3078.0601	3086.6234	3089.6169	3103.7378	3124.3993	3131.0348	3138.1024	3215.4442	3613.1511
CC1CC1C1CNC1=O	C[C@H]1C[C@H]1[C@H]1CNC1=O	
InChI=1S/C7H11NO/c1-4-2-5(4)6-3-8-7(6)9/h4-6H,2-3H2,1H3,(H,8,9)	InChI=1S/C7H11NO/c1-4-2-5(4)6-3-8-7(6)9/h4-6H,2-3H2,1H3,(H,8,9)/t4-,5+,6+/m0/s1
