18
gdb 58392	2.08366	1.19153	0.79728	4.4571	74.43	-0.2983	-0.0195	0.2788	1412.6738	0.144499	-439.122239	-439.11205	-439.111106	-439.158366	35.135	
C	-0.0075375152	 1.5444698547	-0.041703965	-0.41057
C	 5.7328*^-6	 0.0119652719	 0.001241887	 0.013558
C	-1.4203637073	-0.5601434604	 0.0917783058	-0.413504
C	 0.7356871179	-0.5480374607	-1.2336023467	-0.040241
O	 2.075427139	-0.037706937	-1.2439426954	-0.184419
C	 2.6480140644	 0.2100976701	-2.4494306342	 0.176889
O	 3.758202367	 0.6265700142	-2.5489856638	-0.253562
C	 0.78448612	-2.0207649756	-1.2377739753	 0.29611
N	 0.8164586826	-3.175347979	-1.2454161335	-0.312341
H	 1.0047196352	 1.9507258626	-0.0892172184	 0.145013
H	-0.5686373552	 1.9104006045	-0.9101800412	 0.116319
H	-0.4923967929	 1.9401948025	 0.855017316	 0.127846
H	 0.5720607326	-0.3155636974	 0.8773771488	 0.113714
H	-2.0207165868	-0.268482232	-0.7779626345	 0.12119
H	-1.4196814711	-1.6515699439	 0.1544563035	 0.1485
H	-1.9208263302	-0.1717189885	 0.9828180617	 0.130461
H	 0.2099598883	-0.224840899	-2.1435975175	 0.130772
H	 1.9728119689	-0.005083227	-3.2993894773	 0.094266
42.193	68.6334	131.6641	144.8484	170.4334	216.5579	245.0989	277.2878	325.379	351.3787	419.0857	423.8326	523.6726	549.549	711.9086	858.3113	911.5689	936.8581	965.9442	998.247	1036.7408	1046.9729	1129.06	1141.2695	1185.5048	1196.667	1285.3878	1341.5609	1355.4454	1374.6037	1402.1968	1425.66	1434.4041	1487.5913	1492.8521	1503.6821	1515.0083	1879.9495	2361.6466	2959.8312	3009.9415	3032.9443	3035.9853	3049.5963	3102.8816	3109.0126	3124.0727	3134.892
CC(C)C(OC=O)C#N	CC(C)[C@@H](OC=O)C#N	
InChI=1S/C6H9NO2/c1-5(2)6(3-7)9-4-8/h4-6H,1-2H3	InChI=1S/C6H9NO2/c1-5(2)6(3-7)9-4-8/h4-6H,1-2H3/t6-/m0/s1
