15
gdb 125130	3.23654	1.18052	0.87324	1.32	72.85	-0.239	-0.0204	0.2185	1263.9555	0.111814	-453.93569	-453.927146	-453.926202	-453.97033	29.417	
C	-0.052687995	 1.5234952569	 0.0089277297	-0.516509
C	 0.0455615075	 0.0317006086	-0.0055413693	-0.013622
C	 0.144406396	-0.801769272	-1.0782923801	 0.502757
O	 0.2154097139	-0.4836257449	-2.3801946064	-0.222972
C	-0.051993061	-1.4367621142	-3.3340792875	 0.105742
N	 0.1048536806	-1.1165014162	-4.5376770523	-0.417651
O	 0.2132290849	-2.088200341	-0.7153485561	-0.231333
N	 0.1475185205	-2.1489510266	 0.6924843	-0.155972
C	 0.0557254551	-0.8982326422	 1.0717662823	-0.005089
H	 0.7988436211	 1.9796822667	 0.5252187173	 0.139139
H	-0.0714065547	 1.9127856884	-1.011700785	 0.148448
H	-0.9627185329	 1.8624086265	 0.5152555748	 0.137199
H	-0.3854698931	-2.3869702627	-2.915400373	 0.146751
H	-0.13823708	-1.8991978391	-5.141848323	 0.245327
H	-0.0068066629	-0.6869617184	 2.1312317185	 0.137787
44.7943	85.7887	88.371	153.7891	246.5675	267.5405	325.0163	467.3787	509.6809	634.409	660.7497	707.2251	806.558	831.8352	900.5699	919.2042	949.545	1007.223	1029.5142	1047.5722	1071.1943	1198.2718	1211.1302	1264.8171	1313.5455	1396.9626	1413.9494	1430.7161	1488.4996	1497.2361	1527.0271	1694.2013	1756.44	3035.8838	3087.9479	3125.2476	3129.0211	3231.897	3523.5029
CC1=C(OC=N)ON=C1	Cc1c(O[CH][NH])onc1	
InChI=1S/C5H6N2O2/c1-4-2-7-9-5(4)8-3-6/h2-3,6H,1H3	InChI=1S/C5H6N2O2/c1-4-2-7-9-5(4)8-3-6/h2-3,6H,1H3
