18
gdb 36049	2.14003	1.42637	1.04102	4.1162	81.72	-0.2695	0.0244	0.2939	1199.5863	0.14654	-364.784694	-364.775656	-364.774712	-364.818656	33.647	
C	-0.0486922556	-1.3887993498	-0.359501333	-0.423617
C	-0.0066504299	-0.2021581755	-0.1699916096	 0.26513
C	 0.0618356237	 1.2287214777	 0.0616287348	 0.121116
C	-0.8215881529	 1.9952859385	-0.9560640354	-0.398754
C	-2.2469656687	 1.703381408	-0.8156550897	 0.276778
N	-3.3744701167	 1.4856004949	-0.6882234191	-0.308877
C	-0.1634442049	 1.7260155507	 1.5332308786	-0.251266
C	 1.0594980902	 2.6687292584	 1.3844863559	-0.223756
C	 1.4962426257	 1.8640002941	 0.1325174379	-0.260497
H	-0.0976144584	-2.4369115431	-0.5241047526	 0.199302
H	-0.6781797343	 3.0737757878	-0.8253929181	 0.149526
H	-0.506339677	 1.7473981984	-1.9750124606	 0.158709
H	-1.1384875036	 2.1705767479	 1.7448237143	 0.123791
H	 0.0162525577	 0.9197745051	 2.2461295285	 0.12315
H	 0.7741957933	 3.6971068477	 1.1480578015	 0.109481
H	 1.7626764684	 2.6953564217	 2.2183094705	 0.111476
H	 2.2438098492	 1.1039366863	 0.3650559176	 0.122333
H	 1.8226308736	 2.4195030711	-0.7507241116	 0.105976
69.48	113.0358	132.0362	172.8139	200.3983	317.8092	334.8478	397.118	472.6383	521.6404	525.9765	634.8382	639.8851	648.7123	716.8115	794.0215	856.2795	895.8541	898.2172	945.4418	963.7561	976.1634	1029.6596	1073.8763	1124.3614	1190.3466	1209.4533	1253.1125	1259.0873	1270.6536	1275.2326	1318.5171	1331.228	1459.9679	1478.6997	1487.7665	1507.7925	2234.0941	2363.5575	3046.0288	3063.9695	3069.3738	3076.7528	3089.682	3113.4187	3129.5022	3138.8062	3501.0578
C#CC1(CC#N)CCC1	C#CC1(CC#N)CCC1	
InChI=1S/C8H9N/c1-2-8(6-7-9)4-3-5-8/h1H,3-6H2	InChI=1S/C8H9N/c1-2-8(6-7-9)4-3-5-8/h1H,3-6H2
