18
gdb 88318	3.79703	0.98656	0.84814	4.6529	76.32	-0.2402	-0.0132	0.2271	1363.7712	0.147556	-435.274716	-435.265571	-435.264627	-435.309134	33.054	
C	 0.1812201834	 1.4156766014	 0.0636181925	-0.393251
C	-0.2124103382	-0.0245112256	 0.2937175045	 0.03304
C	 0.010514114	-1.0571999907	-0.7692163556	-0.269861
N	 0.7551627435	-1.0917201233	 0.4900405901	-0.125337
C	 2.1370394889	-0.8943547191	 0.5691228577	 0.409309
N	 2.6666753019	 0.0683092444	 1.1995277419	-0.527088
N	 2.8123200225	-1.9719700664	-0.0608045476	-0.343367
C	 4.1679548212	-2.1529793359	-0.1419543739	 0.169315
O	 5.0144509918	-1.3991604589	 0.2828607685	-0.300158
H	 1.017211906	 1.5027937961	-0.6331166538	 0.127126
H	-0.6763810524	 1.9575118016	-0.349816377	 0.113977
H	 0.4831350382	 1.8914971306	 0.9986496411	 0.152851
H	-1.0921781765	-0.153830022	 0.9222479322	 0.101434
H	-0.6967466609	-1.8680511748	-0.9238444547	 0.121008
H	 0.5395743728	-0.7289812197	-1.6620688278	 0.125688
H	 3.680080582	-0.0333809109	 1.2110423336	 0.251518
H	 2.2284053282	-2.7126984994	-0.4193498448	 0.261669
H	 4.4148333735	-3.0981796974	-0.6630760871	 0.092126
61.3935	81.094	147.7503	202.8733	225.1974	254.7529	268.7253	368.6338	377.8124	434.9062	587.6232	599.1239	674.7524	736.6975	815.5162	897.5664	902.2541	922.3875	934.2713	1011.5745	1025.2044	1051.17	1079.4813	1120.4788	1150.0023	1164.7494	1185.9856	1196.0675	1300.9686	1388.3507	1411.8028	1429.3961	1441.7641	1481.6893	1489.2793	1503.0208	1513.8538	1727.7706	1815.102	2947.1889	3046.1618	3095.9512	3112.9274	3124.1541	3143.7468	3185.1102	3513.0042	3620.179
CC1CN1C(=N)NC=O	C[C@H]1CN1C(=N)NC=O	
InChI=1S/C5H9N3O/c1-4-2-8(4)5(6)7-3-9/h3-4H,2H2,1H3,(H2,6,7,9)	InChI=1S/C5H9N3O/c1-4-2-8(4)5(6)7-3-9/h3-4H,2H2,1H3,(H2,6,7,9)/t4-,8?/m0/s1
