22
gdb 101915	1.92555	1.32354	0.99318	3.2685	82.29	-0.2383	0.0345	0.2728	1332.8093	0.193118	-404.37679	-404.366145	-404.365201	-404.413355	38.194	
C	 0.8222026741	-1.1871481265	-1.4188554728	-0.376387
C	 0.2298969532	-0.3977838688	-0.2470649461	-0.186151
C	-1.3159611704	-0.4649955431	-0.1156079468	-0.12966
C	-2.0424983623	 0.0075855563	-1.3612995003	 0.060423
C	-3.3560718074	 0.7377952515	-1.2469505802	-0.277369
C	-2.1143622903	 1.4771336233	-1.6854246915	-0.286999
C	-1.746228641	-1.8959390213	 0.2250009506	 0.425229
N	-1.9527754052	-2.1419078524	 1.5524662804	-0.528164
O	-1.8582502491	-2.7688315185	-0.616854532	-0.37451
H	 1.9151421577	-1.1324574827	-1.3985019686	 0.104221
H	 0.5258828348	-2.2380322405	-1.3830462568	 0.144878
H	 0.4887123376	-0.7809069121	-2.3784191225	 0.118085
H	 0.6722440381	-0.7490036177	 0.693926577	 0.092731
H	 0.5055268175	 0.659190713	-0.3422633388	 0.097743
H	-1.5951232803	 0.1960841888	 0.7163874818	 0.056067
H	-1.9556166916	-0.6775162821	-2.1969216801	 0.109815
H	-4.1247330018	 0.5329288276	-1.9835839554	 0.114749
H	-3.7403822777	 0.944775206	-0.2528330438	 0.103042
H	-1.6709081974	 2.1763421391	-0.9830712777	 0.105911
H	-2.0322904225	 1.7838288155	-2.7223546138	 0.112186
H	-1.9232835207	-1.417939433	 2.2476129795	 0.256403
H	-2.2281758653	-3.0704960625	 1.8283741978	 0.257759
41.3359	72.4741	103.3573	110.611	156.8952	192.4268	206.0379	276.3935	309.4842	357.3945	412.1501	503.0181	585.5952	632.9015	750.4303	769.4178	778.5879	829.0255	841.9279	882.2138	900.013	953.089	973.8638	1042.4489	1056.1563	1071.3191	1076.0662	1088.9079	1131.0887	1148.2695	1197.6543	1198.786	1228.0108	1261.4578	1283.8383	1303.5453	1354.6863	1396.002	1419.0314	1434.0317	1470.2515	1484.9898	1498.1917	1506.4018	1511.8202	1614.2507	1784.0352	3003.428	3023.8854	3044.7823	3056.5539	3107.3494	3125.3266	3130.3939	3131.4053	3180.2283	3203.6309	3219.7069	3601.3134	3741.2943
CCC(C1CC1)C(N)=O	CC[C@@H](C1CC1)C(=O)N	
InChI=1S/C7H13NO/c1-2-6(7(8)9)5-3-4-5/h5-6H,2-4H2,1H3,(H2,8,9)	InChI=1S/C7H13NO/c1-2-6(7(8)9)5-3-4-5/h5-6H,2-4H2,1H3,(H2,8,9)/t6-/m0/s1
