12
gdb 130027	6.01427	1.07442	0.91157	6.2767	74.57	-0.2529	-0.0871	0.1658	1158.0102	0.079132	-427.880066	-427.872571	-427.871627	-427.912368	26.861	
N	-0.0145544108	 1.3234814061	 0.0080051872	-0.541602
C	-0.0172687899	-0.0205147395	 0.0006211459	 0.506433
N	-1.2093142584	-0.6496980827	 0.0044994329	-0.294493
C	-1.1364525015	-1.9653547699	-0.0029106387	-0.039845
C	 0.1017338744	-2.6250325439	-0.0138764359	 0.189304
N	 1.2514478725	-1.9264689272	-0.0170723447	-0.222705
N	 1.2031622888	-0.6199894842	-0.0098461095	-0.244404
C	 0.1857064525	-4.0513957128	-0.0219934364	 0.2509
N	 0.202538638	-5.2085307974	-0.0282596618	-0.322046
H	 0.8634343332	 1.812553457	 0.0054202398	 0.284632
H	-0.8851146693	 1.8241496988	 0.0159811684	 0.281729
H	-2.0683917295	-2.5250824043	-0.0003049272	 0.152096
82.1387	144.723	156.1915	241.6813	392.7858	403.1323	463.5221	516.6225	564.4245	565.7621	604.0375	671.9331	758.599	844.4682	887.3693	994.8023	1025.9536	1052.0248	1169.4774	1256.4327	1370.9655	1383.5347	1484.1167	1542.3127	1602.8262	1645.9044	2348.7945	3168.9618	3626.3959	3764.8811
NC1=NC=C(N=N1)C#N	Nc1ncc(nn1)C#N	
InChI=1S/C4H3N5/c5-1-3-2-7-4(6)9-8-3/h2H,(H2,6,7,9)	InChI=1S/C4H3N5/c5-1-3-2-7-4(6)9-8-3/h2H,(H2,6,7,9)
