21
gdb 116046	3.08779	1.21316	0.91833	0.9175	88.23	-0.2169	-0.0267	0.1902	1320.6503	0.183024	-387.097494	-387.088651	-387.087707	-387.131292	33.774	
C	-0.0866733349	 1.6030854411	-0.1486520708	-0.392539
C	-0.0460761389	 0.0764932142	-0.081680935	-0.184001
C	 0.7812551894	-0.559887311	-1.2015794197	 0.064883
O	 2.1271441846	-0.0915734307	-1.0544210703	-0.249938
C	 2.8733142781	 0.007741191	-2.2409199947	-0.134132
C	 3.0927529746	-1.2599209392	-3.0155826676	-0.079047
C	 2.5495653766	-2.4714888401	-2.8256649967	-0.078108
C	 1.5201954891	-2.8731861453	-1.8720095741	-0.081965
C	 0.7192351029	-2.0672702591	-1.1636103509	-0.070405
H	 0.9243191694	 2.0150038854	-0.1013201936	 0.132315
H	-0.5481611455	 1.9465568888	-1.0818368953	 0.10817
H	-0.6660906787	 2.0189216107	 0.6810556925	 0.109824
H	 0.3756585615	-0.2486751475	 0.8775133127	 0.109668
H	-1.0615632697	-0.3347082373	-0.134840157	 0.095753
H	 0.3933363974	-0.2081552595	-2.1737177858	 0.078838
H	 2.4481725074	 0.7720680431	-2.9188223997	 0.096254
H	 3.8516615562	 0.3975055298	-1.9272487758	 0.119729
H	 3.8220136702	-1.1493790187	-3.8172429729	 0.091882
H	 2.8999635613	-3.2701664638	-3.4762533066	 0.086727
H	 1.3803506386	-3.9469514373	-1.7692315137	 0.088574
H	-0.0201726295	-2.5090666743	-0.5001509051	 0.087517
52.4436	111.0897	169.2681	215.9435	274.2773	297.336	346.3142	389.6821	428.6881	454.5332	559.252	664.0777	719.2114	750.4737	791.5826	847.2203	885.7887	906.1134	939.1476	965.9779	989.0863	1009.1157	1030.4472	1034.9955	1061.1611	1126.6279	1146.1584	1167.7838	1248.0147	1259.134	1272.5129	1285.2506	1313.2004	1364.3024	1386.6968	1402.4027	1408.9872	1419.5879	1455.4196	1473.502	1477.6926	1495.8073	1509.8357	1680.1442	1714.4333	2921.3588	2946.4202	3027.3453	3028.0686	3034.4128	3065.6558	3099.495	3125.1761	3127.6261	3140.7963	3153.2809	3167.8473
CCC1OCC=CC=C1	CC[C@H]1OCC=CC=C1	
InChI=1S/C8H12O/c1-2-8-6-4-3-5-7-9-8/h3-6,8H,2,7H2,1H3	InChI=1S/C8H12O/c1-2-8-6-4-3-5-7-9-8/h3-6,8H,2,7H2,1H3/t8-/m1/s1
