13
gdb 24796	3.63041	1.30246	0.95856	3.4634	78.97	-0.2415	-0.0654	0.1761	1132.264	0.089838	-415.596934	-415.589592	-415.588647	-415.628982	27.513	
N	-0.1083223504	 1.3332388239	 0.0079865847	-0.528125
C	-0.0439032918	 0.0579183612	 0.00141023	 0.322278
C	-1.2448820775	-0.7723736769	 0.0032666115	-0.141457
C	-1.1270872502	-2.1012750411	-0.0038153407	 0.029968
O	 0.0860005548	-2.7328921616	-0.0129516775	-0.216133
C	 1.1870413716	-1.9190418774	-0.0145438088	 0.243936
N	 1.1873996738	-0.6433616528	-0.0081671042	-0.353286
C	 2.3961653451	-2.6768490238	-0.0239354553	 0.237965
C	 3.4142138778	-3.3146403465	-0.0318509562	-0.31449
H	 0.8410820013	 1.7124638075	 0.0051413855	 0.222708
H	-2.217552832	-0.2994348894	 0.0104111195	 0.134795
H	-1.9388916453	-2.8162313089	-0.0032721558	 0.147413
H	 4.3206499829	-3.8695253943	-0.0388775527	 0.214428
114.3065	135.6679	148.6013	348.5078	399.0867	411.7471	505.536	525.6346	561.1996	666.4464	678.7612	696.1476	746.0987	762.9819	846.0943	921.8077	922.7854	932.1365	968.6919	1033.1487	1140.6359	1218.0424	1245.1511	1356.052	1423.6313	1630.5189	1692.6227	1725.6473	2248.1208	3224.7292	3243.5009	3461.9339	3498.207
N=C1C=COC(=N1)C#C	[NH]C1=CCOC(=N1)C#C	
InChI=1S/C6H4N2O/c1-2-6-8-5(7)3-4-9-6/h1,3-4,7H	InChI=1S/C6H5N2O/c1-2-6-8-5(7)3-4-9-6/h1,3,7H,4H2
