18
gdb 26308	3.98337	1.06021	0.88078	4.5399	75.96	-0.1766	0.0544	0.231	1311.1401	0.148148	-435.310411	-435.301222	-435.300277	-435.344301	33.807	
C	 0.0011322731	 1.3775627656	-0.3472073272	-0.3284
N	 0.0560161854	-0.0743713918	-0.3224015795	-0.160217
C	 1.1931865409	-0.588250641	 0.4410944149	-0.336813
C	-1.1688132767	-0.6859174407	-0.0618431747	 0.380111
C	-2.3661881683	-0.1874259316	 0.3263008893	-0.196487
N	-3.2653591884	-1.2661587536	 0.3732257299	-0.345702
C	-2.6586885186	-2.4457811258	-0.0146755185	 0.445462
O	-3.1479908815	-3.5504434087	-0.1443374909	-0.434199
N	-1.3319354102	-2.0638548859	-0.2315897789	-0.413779
H	 0.9571821176	 1.766279109	-0.7086291441	 0.125119
H	-0.7898966653	 1.7002013633	-1.0289186305	 0.133932
H	-0.1922785145	 1.8184112094	 0.6467778043	 0.105897
H	 1.1671754403	-0.2747797761	 1.4983369792	 0.11252
H	 1.2060172236	-1.6795054536	 0.4138155333	 0.128268
H	 2.1217459529	-0.2235695864	-0.0075441195	 0.12599
H	-2.6487401194	 0.8083055742	 0.6146909639	 0.128879
H	-4.2566833764	-1.2099814429	 0.5216677704	 0.264695
H	-0.6909370747	-2.6695505333	-0.7137544314	 0.264725
67.2463	128.3146	180.3511	191.4126	219.1228	258.9677	325.0062	358.4163	395.486	433.4511	472.5218	549.6716	599.1847	638.3888	687.4949	752.437	761.3298	924.6966	986.9713	1019.6908	1073.1934	1090.2338	1122.5828	1178.6607	1190.7938	1198.5605	1240.604	1330.2641	1372.117	1386.6648	1434.9034	1442.5568	1472.5871	1479.9349	1493.8791	1503.0007	1519.3381	1692.9997	1844.5819	2951.2673	2967.2355	3073.8549	3079.7459	3122.1955	3129.4969	3301.2139	3686.2183	3700.4265
CN(C)C1=CNC(=O)N1	CN(C)c1c[nH]c(=O)[nH]1	
InChI=1S/C5H9N3O/c1-8(2)4-3-6-5(9)7-4/h3H,1-2H3,(H2,6,7,9)	InChI=1S/C5H9N3O/c1-8(2)4-3-6-5(9)7-4/h3H,1-2H3,(H2,6,7,9)
