15
gdb 20840	5.11612	1.35911	1.14582	3.4017	63.15	-0.2196	0.0209	0.2405	1025.9339	0.120493	-396.03629	-396.028644	-396.0277	-396.06867	27.597	
C	 0.2210855507	 1.024745716	-0.7591233468	-0.37975
C	-0.221428343	 0.3285319736	 0.5393084017	-0.2929
C	-1.5387423991	-0.3610506907	 0.4242583734	 0.399224
N	-2.6064135795	-0.0294461888	 1.0860454124	-0.264361
N	-3.5678017324	-0.9194117873	 0.6565139806	-0.295366
C	-3.1224587974	-1.827132429	-0.2794494065	 0.454395
O	-3.7077945248	-2.7258480614	-0.8422814361	-0.421446
N	-1.7841149476	-1.4287905997	-0.4114315014	-0.39575
H	 1.1868946369	 1.5172177043	-0.6169405462	 0.126989
H	 0.3295194871	 0.3130463435	-1.5840100212	 0.116754
H	-0.5082854438	 1.7808138511	-1.0630112578	 0.137453
H	 0.5429823395	-0.3966427859	 0.8473270882	 0.118527
H	-0.3163553044	 1.0568870922	 1.34870849	 0.140937
H	-4.4983718975	-0.8784611511	 1.0320069851	 0.280423
H	-1.1380412248	-1.8899748668	-1.0277229953	 0.274871
61.8831	124.1219	199.4443	221.5482	318.9644	369.907	455.1819	505.2369	510.8608	619.6998	716.2783	759.1141	773.6615	794.5202	963.4232	1002.5172	1022.5402	1055.249	1084.6192	1116.8003	1239.1703	1265.4404	1294.1388	1354.8988	1388.4695	1412.5236	1472.1019	1477.052	1498.9247	1507.1408	1647.6287	1858.401	3028.6684	3041.7733	3097.1235	3116.7721	3123.8182	3689.7652	3700.7502
CCC1=NNC(=O)N1	CCc1n[nH]c(=O)[nH]1	
InChI=1S/C4H7N3O/c1-2-3-5-4(8)7-6-3/h2H2,1H3,(H2,5,6,7,8)	InChI=1S/C4H7N3O/c1-2-3-5-4(8)7-6-3/h2H2,1H3,(H2,5,6,7,8)
