17
gdb 15896	2.55835	2.0917	1.27922	2.8118	65.86	-0.2308	0.026	0.2567	970.1469	0.140995	-401.010242	-401.001596	-401.000652	-401.043614	30.505	
C	-0.2529841591	 1.385684493	-0.1551791161	-0.247094
O	 0.3021223548	 0.1058960721	 0.1087824954	-0.240792
C	 0.7803700053	-0.5252958292	-1.0391904088	-0.032937
C	 1.2647227812	-1.993555682	-0.8053051242	 0.018281
C	 1.059200201	-2.5619211387	 0.5899385454	-0.386372
N	 0.2642934862	-2.3919386323	-1.8107438602	-0.335321
C	-0.2799289926	-1.1483414183	-2.0026510077	 0.412876
O	-1.2089358666	-0.7440929953	-2.6525138396	-0.369593
H	 0.5036788375	 2.0662510336	-0.5749466222	 0.106911
H	-1.0949508785	 1.3210995125	-0.8537621943	 0.147023
H	-0.5981157894	 1.7834135496	 0.8014528231	 0.128025
H	 1.5114920952	 0.10169182	-1.5723521248	 0.086731
H	 2.2914300138	-2.1672511668	-1.1474347831	 0.086048
H	 0.0498323701	-2.353694972	 0.9503001603	 0.135645
H	 1.2209937062	-3.6449135135	 0.5908170582	 0.111933
H	 1.7709588594	-2.1121175584	 1.2884495554	 0.130185
H	 0.0019276954	-3.2974696041	-2.1729429769	 0.248452
77.7252	101.3852	160.8739	183.513	213.2253	240.0441	325.3682	391.5226	427.5063	500.804	537.0086	708.5616	750.0058	846.1841	906.1768	914.5121	1016.0962	1066.4395	1079.2466	1129.8105	1176.7446	1183.749	1191.2601	1213.6669	1243.1884	1294.1687	1367.448	1382.9706	1396.7314	1413.3456	1480.1309	1485.7746	1490.0564	1491.0847	1514.1981	1883.0745	2985.7514	2991.3832	3037.3378	3044.2389	3069.2692	3110.2886	3128.4543	3138.5205	3600.9872
COC1C(C)NC1=O	CO[C@H]1[C@@H](C)NC1=O	
InChI=1S/C5H9NO2/c1-3-4(8-2)5(7)6-3/h3-4H,1-2H3,(H,6,7)	InChI=1S/C5H9NO2/c1-3-4(8-2)5(7)6-3/h3-4H,1-2H3,(H,6,7)/t3-,4+/m1/s1
