21
gdb 103307	2.54161	1.39503	1.34173	1.5139	79.04	-0.2289	0.0826	0.3115	1125.0476	0.179431	-424.158654	-424.149071	-424.148127	-424.192675	36.194	
C	-0.2007575403	 1.3924202954	 0.0495971439	-0.252589
O	 0.2139075032	 0.0467254839	-0.0747557208	-0.297162
C	 0.7780878258	-0.525302264	 1.0817284047	 0.413997
C	 2.1238282839	 0.0825187878	 1.4447031466	-0.480252
C	-0.1851474482	-0.9428941352	 2.2483391068	-0.021096
C	-0.8907771785	-1.9414020647	 1.3069353916	-0.272015
C	 0.644614413	-2.0846198353	 1.1175292235	 0.35267
C	 1.4316364059	-3.1190427217	 0.3777211475	-0.522586
O	 0.7847631797	-2.0020862064	 2.5987208454	-0.346288
H	 0.6431914148	 2.0814639545	 0.1883597517	 0.114011
H	-0.7112638173	 1.6530097022	-0.8806424946	 0.12862
H	-0.9020395515	 1.5285689219	 0.8860169307	 0.107473
H	 2.0198304613	 1.1277476719	 1.7523302393	 0.114183
H	 2.5758497145	-0.4704347562	 2.2673751153	 0.145149
H	 2.7902850954	 0.0556282217	 0.5765448397	 0.119651
H	-0.5907224181	-0.3545137798	 3.0721072502	 0.08498
H	-1.3567161357	-2.7838336145	 1.8196103184	 0.099714
H	-1.4761704481	-1.5537453899	 0.4745870072	 0.110459
H	 1.2298489412	-3.0398913332	-0.6949510355	 0.136477
H	 2.5048956359	-2.9794416077	 0.5398266707	 0.13187
H	 1.1576709531	-4.1245254106	 0.7107864277	 0.132736
67.8483	143.9668	174.914	188.3428	191.4996	231.7256	296.5194	332.845	345.2397	406.3649	483.7958	540.1363	596.7711	661.1985	685.3499	736.6252	826.7084	871.6127	901.8032	916.6572	963.7856	1017.6195	1024.0403	1082.4401	1106.3039	1138.3966	1155.2797	1173.7169	1180.2039	1189.8763	1204.1187	1232.2612	1240.4369	1284.3202	1350.7656	1392.2019	1411.7386	1475.0968	1478.0018	1479.6065	1486.6427	1487.8804	1494.0565	1507.988	1512.2738	2990.0557	3039.9059	3041.1956	3048.4288	3086.5838	3102.2341	3112.4055	3113.7288	3114.967	3117.0531	3157.7462	3167.9108
COC1(C)C2CC1(C)O2	CO[C@@]1(C)[C@H]2C[C@]1(C)O2	
InChI=1S/C7H12O2/c1-6-4-5(9-6)7(6,2)8-3/h5H,4H2,1-3H3	InChI=1S/C7H12O2/c1-6-4-5(9-6)7(6,2)8-3/h5H,4H2,1-3H3/t5-,6+,7+/m1/s1
