13
gdb 21300	7.33551	1.36753	1.16185	1.8972	56.71	-0.2358	0.0183	0.2541	970.9285	0.096406	-431.921005	-431.913749	-431.912805	-431.952454	26.103	
C	-0.0251664	 1.3637189028	 0.0047144977	-0.242277
O	 0.0269138482	-0.066202265	-0.0279041689	-0.24494
C	 0.6415521001	-0.5914982977	-1.0782481065	 0.462815
N	 1.1754141344	 0.1207832682	-2.0439476397	-0.258126
O	 1.6931720984	-0.8981082636	-2.9022518999	-0.221254
C	 1.38738091	-2.0588569439	-2.3149969686	 0.514797
N	 1.8179384115	-3.1968205784	-2.9131335221	-0.591658
N	 0.7368939542	-1.9522543638	-1.1892443084	-0.404458
H	 0.9840840114	 1.7858646576	 0.0162313406	 0.144796
H	-0.5608134285	 1.7500073594	-0.8675548454	 0.14391
H	-0.5557029993	 1.6194195131	 0.9217151066	 0.137255
H	 2.0331680455	-3.1405480739	-3.895538267	 0.276883
H	 1.3700754742	-4.0441038648	-2.6036886582	 0.282257
106.4368	166.4048	222.0786	249.7421	355.2725	386.517	394.9571	457.6082	534.54	687.6326	723.0003	779.7983	792.3256	922.2048	1020.8235	1026.053	1076.7585	1151.0431	1181.8926	1225.962	1380.5914	1439.1043	1480.4879	1495.3687	1507.4002	1599.4895	1619.366	1698.5144	3042.0362	3113.5048	3157.5174	3603.1619	3719.6768
COC1=NOC(N)=N1	COc1noc(N)n1	
InChI=1S/C3H5N3O2/c1-7-3-5-2(4)8-6-3/h1H3,(H2,4,5,6)	InChI=1S/C3H5N3O2/c1-7-3-5-2(4)8-6-3/h1H3,(H2,4,5,6)
