18
gdb 41369	2.50687	1.91852	1.83055	2.6597	74.82	-0.2217	0.0056	0.2273	888.2635	0.149903	-401.894055	-401.887187	-401.886242	-401.924983	28.273	
C	 0.0742795501	 1.5613056951	-0.239035345	-0.236094
N	 1.4358063937	 1.5804786689	 0.401999599	-0.377015
C	 1.4209067743	 0.0974242708	 0.5399713412	 0.235313
C	 0.7971945048	-0.3859292325	 1.8697873082	-0.120196
O	-0.5435491411	-0.3632193408	 1.2872263788	-0.343523
C	 0.0028892222	 0.027627607	 0.0041422629	 0.384106
C	 0.0255677802	-0.9753092923	-1.101858157	-0.179906
C	 1.2751264767	-1.4279551927	-1.272297611	-0.049396
C	 2.3005329227	-0.8187847572	-0.3179716706	-0.375487
H	-0.6655557105	 2.1522775188	 0.3081898786	 0.113487
H	 0.0599227095	 1.8471258217	-1.2967492836	 0.100391
H	 2.1653611805	 1.9156467234	-0.2171102169	 0.216958
H	 1.0752095786	-1.3996557363	 2.1843634552	 0.097538
H	 0.8906467525	 0.311624146	 2.7076486597	 0.109846
H	-0.8361692007	-1.2843760925	-1.6826578301	 0.102978
H	 1.5645067431	-2.1605298237	-2.0203485237	 0.100701
H	 3.0759375714	-0.261858839	-0.8609572453	 0.107834
H	 2.826332532	-1.5895201448	 0.2599121297	 0.112465
129.4709	218.7091	313.9293	328.8455	364.3832	469.8227	540.4646	626.9778	665.0872	693.0141	752.4424	778.885	828.3074	881.0306	911.2358	921.1394	939.006	960.7083	973.1514	978.9111	999.3385	1086.0999	1100.1462	1121.1964	1138.9667	1153.8906	1179.8737	1200.8588	1242.8276	1265.9197	1302.0249	1312.9715	1345.2849	1363.5991	1396.9685	1479.2137	1492.9545	1500.3468	1645.1613	3014.2391	3017.744	3031.3946	3043.968	3087.0869	3091.5649	3172.7345	3203.442	3534.4865
C1NC23COC12C=CC3	C1N[C@@]23CO[C@@]12C=CC3	
InChI=1S/C7H9NO/c1-2-6-5-9-7(6,3-1)4-8-6/h1,3,8H,2,4-5H2	InChI=1S/C7H9NO/c1-2-6-5-9-7(6,3-1)4-8-6/h1,3,8H,2,4-5H2/t6-,7-/m0/s1
