14
gdb 83069	2.96843	1.51455	1.28827	1.0735	68.31	-0.2425	0.0046	0.2471	981.7848	0.099908	-436.629891	-436.622197	-436.621253	-436.661877	29.28	
O	-0.0134660815	 1.3869269091	 0.2241898144	-0.407728
C	-0.0462256529	 0.0077938733	 0.1307031279	 0.019891
C	-0.4385527648	-0.7713521907	 1.3439808624	-0.015674
O	-1.1466119424	-0.0605651641	 2.3334623231	-0.200195
C	-2.2802840038	 0.3800884561	 1.7306151015	 0.107925
N	-2.525898864	 0.0218455425	 0.5351316998	-0.309585
C	-1.3826401028	-0.7580664812	 0.1083315538	 0.073755
C	-1.5774056899	-1.8426815532	-0.801047225	 0.200323
C	-1.702652714	-2.7589887062	-1.5695184517	-0.361183
H	-0.4606895478	 1.7561914442	-0.5459590474	 0.302587
H	 0.7264131549	-0.4588202991	-0.4789483348	 0.112726
H	 0.123448808	-1.6122203003	 1.7276479999	 0.132707
H	-2.9084819196	 1.0081705233	 2.3489236322	 0.152614
H	-1.8293674194	-3.5675691538	-2.246065216	 0.191838
136.0468	155.6992	200.1076	219.2042	290.8186	429.5526	467.1933	490.81	556.1367	588.9906	610.3808	678.2874	718.3155	754.1583	772.6393	899.932	912.4109	947.7828	985.761	1027.1196	1077.4575	1117.6253	1149.4431	1222.0502	1254.326	1301.6676	1313.6301	1355.0674	1448.7091	1662.2341	2241.0472	3118.3929	3209.5973	3240.8475	3502.4142	3798.5419
OC1C2OC=NC12C#C	O[C@H]1[C@H]2OC=N[C@@]12C#C	
InChI=1S/C6H5NO2/c1-2-6-4(8)5(6)9-3-7-6/h1,3-5,8H	InChI=1S/C6H5NO2/c1-2-6-4(8)5(6)9-3-7-6/h1,3-5,8H/t4-,5+,6-/m0/s1
