27
gdb 118145	3.11897	0.76003	0.64468	0.0252	96.88	-0.2789	0.0867	0.3656	1878.7766	0.251713	-353.561257	-353.550391	-353.549447	-353.597643	40.449	
C	-0.049422609	 1.5905222833	-0.1536993236	-0.378567
C	 0.0197444118	 0.0705683848	 0.0220721994	-0.17499
C	-1.3647843255	-0.5891082002	 0.0375764431	-0.160889
C	-1.3601108427	-2.1265518677	 0.1291876791	 0.001702
C	-0.7766826391	-2.6350095321	 1.456054429	-0.398617
C	-2.7672159789	-2.6844700614	-0.0866375489	 0.076218
C	-3.4623551559	-2.4950630697	-1.4672246953	-0.232757
C	-4.0373414282	-3.9303414658	-1.3346584257	-0.219829
C	-2.9613265646	-4.2204044289	-0.2547296809	-0.236913
H	 0.9492622513	 2.0385826629	-0.164999921	 0.108937
H	-0.5458541228	 1.8587549211	-1.0931133536	 0.112259
H	-0.6140822435	 2.0576751575	 0.6610800313	 0.112467
H	 0.6173856825	-0.3646903138	-0.7903098483	 0.091765
H	 0.5561620656	-0.1592078822	 0.9503738944	 0.097345
H	-1.9505270343	-0.18290291	 0.8754947338	 0.08578
H	-1.9000962864	-0.2929775269	-0.8744987196	 0.092669
H	-0.7287217428	-2.5089054218	-0.6886516639	 0.059086
H	-0.8076628966	-3.7280910234	 1.5064194935	 0.114205
H	 0.2650334174	-2.3300611257	 1.5901979042	 0.112492
H	-1.3499657188	-2.2470112632	 2.3070681833	 0.108484
H	-3.4277763375	-2.3173176435	 0.7103474146	 0.061128
H	-4.1691925073	-1.6692753103	-1.579975024	 0.092683
H	-2.7236014916	-2.4308783813	-2.2737995288	 0.094772
H	-5.0454758237	-3.9248530865	-0.9099831534	 0.099656
H	-4.043652136	-4.559665839	-2.227833842	 0.093361
H	-2.0691630356	-4.6844166782	-0.6898773907	 0.09505
H	-3.2598454378	-4.8012091182	 0.621564734	 0.092502
68.8873	74.5535	106.2676	119.2948	146.6597	216.5379	240.3474	248.7947	311.0114	319.9074	364.1247	439.3349	506.7537	640.8743	744.5537	767.4398	785.172	853.719	875.5637	892.2508	923.9219	935.9642	951.9425	962.8831	995.0578	1011.3192	1029.1591	1053.0093	1080.8425	1101.0278	1147.9125	1187.3704	1197.2679	1203.3169	1234.7925	1254.1456	1262.3452	1264.2936	1278.3079	1292.974	1299.2923	1331.1681	1334.4629	1364.8206	1390.1247	1397.6869	1409.8356	1414.3637	1477.4785	1480.9371	1486.5035	1493.6794	1499.1587	1499.8151	1503.6171	1509.5544	1511.9931	2976.3645	2998.6976	3015.421	3018.2074	3027.7213	3028.4399	3033.289	3039.5073	3044.3525	3055.8998	3059.1839	3092.2121	3092.9062	3094.6079	3096.9	3099.3778	3108.044	3113.606
CCCC(C)C1CCC1	CCC[C@@H](C)C1CCC1	
InChI=1S/C9H18/c1-3-5-8(2)9-6-4-7-9/h8-9H,3-7H2,1-2H3	InChI=1S/C9H18/c1-3-5-8(2)9-6-4-7-9/h8-9H,3-7H2,1-2H3/t8-/m1/s1
