20
gdb 8937	3.66694	1.16518	0.96406	2.264	72.34	-0.2691	-0.0381	0.231	1247.8276	0.174275	-386.156619	-386.146886	-386.145942	-386.191478	34.796	
C	-0.1120966955	 1.5902498014	 0.00163203	-0.39612
C	 0.0231166212	 0.0646808869	-0.026400518	-0.170273
C	 0.7904813066	-0.4827280363	-1.2458797173	 0.016892
C	 2.2813078941	-0.1149192183	-1.201043725	-0.414881
C	 0.5731985969	-2.0203826771	-1.333602849	 0.042083
O	-0.7912745175	-2.3456552283	-1.3264534668	-0.435392
C	 1.2237141954	-2.6257638976	-2.5626908219	 0.132056
O	 0.5731519342	-3.213915283	-3.3950326813	-0.266206
H	 0.8555271166	 2.0970577301	 0.0720440561	 0.114642
H	-0.6150536995	 1.9576440893	-0.8999841059	 0.116627
H	-0.7075177618	 1.9072187959	 0.8634356866	 0.11641
H	 0.5231739625	-0.2810750323	 0.8895050393	 0.087931
H	-0.9734885986	-0.3840459157	-0.0253778976	 0.128934
H	 0.3402826503	-0.0507583183	-2.1508197347	 0.081014
H	 2.8082787697	-0.3703859741	-2.1248093313	 0.115346
H	 2.4103645026	 0.9596254512	-1.0496013158	 0.12714
H	 2.7871752112	-0.6255953674	-0.3725611363	 0.117491
H	 1.0757517748	-2.4757230526	-0.4587068327	 0.088734
H	-0.9472599231	-2.8279533249	-2.1542663761	 0.293437
H	 2.3198560797	-2.517057479	-2.6637963723	 0.104135
56.619	74.5595	107.0337	187.9939	215.8037	237.3713	300.3315	331.0025	347.9378	391.9375	423.4682	450.4254	518.6513	753.2484	779.6058	813.8503	853.8073	928.1998	972.5045	990.1189	999.8654	1047.7068	1121.9858	1145.496	1171.289	1182.6239	1255.2631	1289.0017	1300.5084	1348.9222	1361.8316	1381.6846	1397.7323	1410.1249	1417.9657	1443.0246	1487.0907	1495.6535	1501.3708	1508.6027	1514.1337	1804.3565	2926.49	2961.46	3005.3501	3018.9043	3032.9253	3034.707	3087.8299	3099.2472	3101.2128	3109.7386	3117.2981	3681.9017
CCC(C)C(O)C=O	CC[C@@H](C)[C@@H](O)C=O	
InChI=1S/C6H12O2/c1-3-5(2)6(8)4-7/h4-6,8H,3H2,1-2H3	InChI=1S/C6H12O2/c1-3-5(2)6(8)4-7/h4-6,8H,3H2,1-2H3/t5-,6+/m1/s1
