17
gdb 20252	3.55279	3.01872	2.36014	1.6889	69.02	-0.2235	0.0786	0.3021	668.8321	0.146502	-326.677584	-326.672396	-326.671451	-326.70644	22.727	
C	-0.0366274309	 1.5728082259	 0.0103602263	-0.243268
C	 1.5221258976	 1.5428330485	-0.0146174506	-0.051166
C	 2.042054557	 1.5067705036	-1.456153181	-0.229108
C	 1.7174396528	 0.0918890514	-1.885174707	-0.025617
C	 0.5137276733	-0.5927692335	-1.3422517351	-0.056331
C	-0.0090516332	 0.0319015569	-0.0333665491	-0.038466
C	 1.4748021094	 0.0182437377	 0.3977532733	 0.01231
N	 1.8968018931	-0.8633614508	-0.7684470578	-0.159116
H	-0.4252779124	 1.9335143815	 0.967129398	 0.098614
H	-0.5372948668	 2.1076570567	-0.8030575241	 0.091669
H	 2.0488228187	 2.2459799654	 0.6309518621	 0.069243
H	 1.5736086235	 2.268866632	-2.087604045	 0.103021
H	 3.1274200442	 1.6555910048	-1.497480629	 0.104565
H	 2.0961156601	-0.2708975867	-2.836885012	 0.089793
H	-0.0104532375	-1.3522519839	-1.9151351982	 0.08879
H	-0.7780643818	-0.5561340086	 0.4671592221	 0.07151
H	 1.843916173	-0.3011441209	 1.3698068571	 0.073558
285.7018	393.5356	473.4859	612.5783	675.03	701.4045	740.6271	769.1576	823.2439	848.3334	853.5359	895.1888	917.5529	940.8593	957.7046	986.6196	997.2105	1030.2658	1057.7433	1077.7113	1086.5457	1116.5787	1127.2597	1182.7059	1199.3703	1222.6276	1242.6361	1250.5123	1256.9519	1285.6712	1317.6905	1334.4833	1350.9888	1411.7983	1482.8492	1495.7523	3035.379	3042.4676	3080.3025	3094.349	3104.4085	3109.1047	3138.0342	3144.3726	3156.6587
C1C2CC3C4C1C2N34	C1[C@@H]2C[C@@H]3[C@@H]4[C@H]1[C@H]2N34	
InChI=1S/C7H9N/c1-3-2-5-7-4(1)6(3)8(5)7/h3-7H,1-2H2	InChI=1S/C7H9N/c1-3-2-5-7-4(1)6(3)8(5)7/h3-7H,1-2H2/t3-,4-,5-,6+,7+,8?/m1/s1
