22
gdb 96161	2.57414	1.42364	1.004	1.3689	81.8	-0.2438	0.0733	0.317	1236.8172	0.196673	-404.328649	-404.320284	-404.31934	-404.361222	33.385	
C	 0.0453702669	 1.5779579263	-0.0402936645	-0.400396
C	-0.0228299687	 0.0451092638	 0.0136912511	 0.016769
C	 0.6912370104	-0.5258894278	-1.2281061894	-0.064109
O	 0.5727257417	-1.9188382118	-1.4495485303	-0.248084
C	 1.3076864971	-2.7340939855	-0.5511952536	-0.095419
C	 0.5289612642	-3.0272710234	 0.7166015292	-0.025907
N	 1.242992392	-2.8701866118	 1.9989957801	-0.344323
C	 0.1750451839	-1.9194774897	 1.6377057899	-0.020818
C	 0.5703168053	-0.4855561235	 1.3357978524	-0.215517
H	 1.0826753197	 1.9289031817	 0.0195745134	 0.11635
H	-0.3840517195	 1.9669085458	-0.9694664796	 0.112896
H	-0.5021825796	 2.0249273606	 0.7950626405	 0.114288
H	-1.0766063853	-0.2601895362	-0.0445172076	 0.076772
H	 0.2692572036	-0.0592422723	-2.1251036472	 0.100397
H	 1.7587552031	-0.2448526128	-1.1816351876	 0.082232
H	 1.5234955958	-3.6636486345	-1.0892730575	 0.10038
H	 2.2682504544	-2.2679776195	-0.290067556	 0.101319
H	-0.1900799743	-3.8401823927	 0.6364742373	 0.083134
H	 0.9028123499	-3.5487641931	 2.6751226585	 0.230405
H	-0.7764830665	-2.028227131	 2.1560970712	 0.081463
H	 1.6637537527	-0.4160886605	 1.3043878282	 0.107641
H	 0.2481013629	 0.1563618276	 2.1649173615	 0.090527
124.6513	150.7186	220.3523	262.0413	294.2958	335.4799	359.378	389.3511	433.239	465.7742	535.9684	602.7409	793.0713	833.9412	845.8962	888.4542	924.8904	931.5979	956.9132	965.9496	992.8591	1006.6886	1045.049	1083.0475	1096.6499	1134.0284	1149.3695	1162.0423	1195.0379	1242.1474	1254.7285	1266.2422	1287.5448	1303.6434	1333.2342	1345.5539	1378.1454	1387.8747	1404.6536	1417.0436	1427.9182	1474.1023	1481.744	1487.1793	1498.6841	1502.0399	1503.5985	2946.172	3006.7917	3014.7322	3023.5538	3028.9454	3061.352	3064.253	3069.047	3092.7196	3103.685	3111.5658	3127.2816	3503.9769
CC1COCC2NC2C1	C[C@H]1COC[C@H]2N[C@H]2C1	
InChI=1S/C7H13NO/c1-5-2-6-7(8-6)4-9-3-5/h5-8H,2-4H2,1H3	InChI=1S/C7H13NO/c1-5-2-6-7(8-6)4-9-3-5/h5-8H,2-4H2,1H3/t5-,6+,7-/m1/s1
