20
gdb 93924	3.09737	1.13814	0.91618	5.4521	74.59	-0.2444	0.0223	0.2667	1303.1724	0.172816	-440.338394	-440.329682	-440.328738	-440.37273	32.647	
C	-0.2130332571	 1.4836231312	-0.0231826134	-0.416602
C	 0.0851196343	-0.0083057506	-0.0249599977	 0.060327
C	 0.8743970043	-0.5322513119	-1.2377107401	-0.207367
C	 1.4465920621	-1.8726690643	-0.743166591	-0.232468
C	 1.5540660817	-1.6906675925	 0.8005690969	-0.138119
N	 0.8990676813	-0.4088121585	 1.1479561499	-0.332862
H	 1.5989432985	 0.3051416835	 1.323676041	 0.226402
H	 0.0858636631	-1.4571036576	 2.4743031442	 0.301869
C	 0.8935808913	-2.8498159111	 1.5706374263	 0.429274
O	 1.1044710823	-4.006986242	 1.3211673977	-0.34546
O	 0.0768336866	-2.4400485799	 2.5486467405	-0.369549
H	 0.7132154816	 2.0669259066	-0.0946277314	 0.114456
H	-0.8411224961	 1.7518904567	-0.8773268599	 0.129471
H	-0.736118002	 1.7811540637	 0.8903833179	 0.129295
H	-0.8620648895	-0.562334004	 0.0403943095	 0.0918
H	 0.2562082368	-0.6375928067	-2.1335986672	 0.107169
H	 1.6822906653	 0.1723923276	-1.4733980416	 0.094501
H	 0.7779042404	-2.7059827745	-0.9720997921	 0.131169
H	 2.4128467875	-2.1094188484	-1.1918285995	 0.114062
H	 2.5981440475	-1.6717706973	 1.1277684399	 0.112633
35.392	93.5397	143.3981	228.8652	239.4803	304.1199	334.2882	430.8784	506.8725	542.9574	609.4311	679.9367	748.0647	790.4693	816.225	870.0235	879.9932	899.3173	934.8591	961.259	987.4825	1028.623	1053.372	1100.4978	1128.699	1159.1347	1191.6622	1214.0588	1224.0542	1287.7406	1308.7145	1316.4294	1330.3575	1353.6797	1380.7054	1413.8688	1436.0523	1455.0437	1488.3507	1496.6041	1498.5389	1510.198	1867.1909	3003.5442	3026.6933	3032.6188	3064.3927	3077.0709	3093.882	3100.6257	3118.4184	3122.7922	3420.4771	3516.6053
CC1CCC([NH2+]1)C([O-])=O	C[C@H]1CC[C@@H](N1)C(=O)O	
InChI=1S/C6H11NO2/c1-4-2-3-5(7-4)6(8)9/h4-5,7H,2-3H2,1H3,(H,8,9)	InChI=1S/C6H11NO2/c1-4-2-3-5(7-4)6(8)9/h4-5,7H,2-3H2,1H3,(H,8,9)/t4-,5+/m0/s1
