18
gdb 83978	2.5579	1.69017	1.24151	3.7875	72.89	-0.2432	0.0316	0.2747	1043.0415	0.149179	-439.112226	-439.10416	-439.103216	-439.145208	29.585	
C	-0.0242051385	 1.4443534665	-0.0583135868	-0.351252
N	-0.0056191721	 0.0071320997	 0.0291366429	-0.059817
C	-1.0687813564	-1.0010528374	-0.0421161667	-0.014157
C	-1.71949142	-1.1773718254	-1.4172842145	-0.101803
O	-0.7367256888	-1.8036049475	-2.2290625337	-0.246235
C	-0.063663844	-2.7524565786	-1.4064182588	-0.09589
C	 0.0572448806	-2.0869273658	-0.0322342741	-0.214073
C	 1.0362189062	-0.8870858889	 0.0094812234	 0.414971
O	 2.2303391621	-0.7391280699	 0.0031896188	-0.380335
H	 1.0127905842	 1.7879074567	-0.0389480303	 0.164634
H	-0.4892760188	 1.7901423359	-0.9897874389	 0.13122
H	-0.5613153161	 1.8916777696	 0.7865567785	 0.128025
H	-1.7779216363	-0.9696719562	 0.78982828	 0.084506
H	-2.6170359191	-1.8106733956	-1.3167635014	 0.093879
H	-2.0085172757	-0.2401759587	-1.9011467198	 0.114603
H	-0.6438569299	-3.6862291183	-1.3313324472	 0.094118
H	 0.9014358852	-2.9724886727	-1.8688734521	 0.134509
H	 0.1106654774	-2.7740434434	 0.8114130508	 0.103097
97.45	113.9817	132.9186	223.5162	237.1701	271.3489	379.307	494.3997	617.8871	647.3135	718.8715	767.1881	845.5121	862.1112	896.1251	935.4758	968.5908	1005.7348	1037.1119	1065.3029	1088.9145	1108.5957	1148.3765	1166.7878	1196.4505	1231.3082	1267.4841	1281.603	1295.0304	1330.4399	1347.3407	1398.54	1415.8368	1449.6618	1482.0164	1497.0855	1511.0349	1515.8351	1879.5988	2966.489	2977.0237	3015.1301	3066.9657	3071.7994	3090.1363	3105.056	3130.0461	3130.0683
CN1C2COCC2C1=O	CN1[C@H]2COC[C@H]2C1=O	
InChI=1S/C6H9NO2/c1-7-5-3-9-2-4(5)6(7)8/h4-5H,2-3H2,1H3	InChI=1S/C6H9NO2/c1-7-5-3-9-2-4(5)6(7)8/h4-5H,2-3H2,1H3/t4-,5+/m1/s1
