19
gdb 114600	3.36693	1.05998	0.92803	2.0298	77.73	-0.2493	-0.0308	0.2185	1314.8701	0.157284	-423.001009	-422.992041	-422.991097	-423.034963	32.974	
C	 0.2773801672	 1.6275245695	 0.0869255383	-0.383454
C	-0.1425203384	 0.1577280319	-0.0184643533	-0.20055
C	 0.5142148102	-0.5470770491	-1.1896842932	 0.078557
O	 1.9776045232	-0.5636711269	-1.1254560043	-0.293868
C	 2.0019915557	-1.9596648739	-1.3590033452	 0.085763
C	 1.3496985268	-2.7346760036	-0.2837104822	-0.35421
C	 0.4575582213	-2.0723574612	-1.3238992671	 0.142976
C	-0.3872758148	-2.8418730692	-2.2424173237	 0.061267
O	-0.3567480295	-4.0457914133	-2.3651523603	-0.278442
H	 1.3610011349	 1.7086250634	 0.2089966982	 0.139958
H	-0.0019148706	 2.1860502996	-0.8131810203	 0.116735
H	-0.201011947	 2.1114020236	 0.9430298119	 0.116717
H	 0.102575117	-0.3701644349	 0.9094335272	 0.104277
H	-1.2298991496	 0.0793416665	-0.1495855269	 0.104672
H	 0.2212974798	-0.0712975643	-2.1368711783	 0.08676
H	 2.6991303866	-2.3494276419	-2.0920504507	 0.126642
H	 1.3762305708	-3.8132639763	-0.4000009529	 0.151863
H	 1.3653173937	-2.3610171442	 0.7350918678	 0.126591
H	-1.0724472374	-2.2195110557	-2.8629088051	 0.067746
80.735	101.0802	166.159	182.3638	209.6747	232.6658	289.4396	347.983	441.8338	500.0806	583.7624	697.9629	748.0733	767.3208	784.2659	895.2413	918.0077	936.69	964.0399	987.4539	1043.9441	1047.3886	1060.7882	1096.1216	1106.546	1135.3325	1149.9563	1219.8168	1259.1603	1279.2366	1304.3663	1340.6299	1383.3262	1409.3026	1415.3238	1436.1898	1466.5246	1476.2616	1498.4834	1508.874	1793.1044	2864.1413	3001.8327	3027.6045	3038.7952	3072.6098	3107.3762	3122.1914	3127.3996	3185.8228	3226.3209
CCC1OC2CC12C=O	CC[C@H]1O[C@H]2C[C@@]12C=O	
InChI=1S/C7H10O2/c1-2-5-7(4-8)3-6(7)9-5/h4-6H,2-3H2,1H3	InChI=1S/C7H10O2/c1-2-5-7(4-8)3-6(7)9-5/h4-6H,2-3H2,1H3/t5-,6+,7-/m1/s1
