18
gdb 92526	2.97521	1.53799	1.13232	3.8434	72.02	-0.2496	0.0078	0.2575	1075.5326	0.149871	-439.10791	-439.100257	-439.099313	-439.140197	29.579	
O	 0.2423403162	 1.2395249331	 0.5879790296	-0.440922
C	 0.0830478233	-0.0871845574	 0.1718963978	 0.050083
C	-1.3804461238	-0.5820121117	 0.1178530324	-0.272682
C	-1.3204186973	-1.672291103	-0.9741252616	 0.025179
C	-2.1918916011	-1.6033490007	-2.2651528615	-0.252775
C	-0.8748250468	-1.3972152784	-3.0739182166	-0.18298
N	-0.1280598942	-1.3386143166	-1.7959013885	-0.084164
C	 0.5119892846	-0.2387444935	-1.302336106	 0.338488
O	 1.2087030149	 0.5619204838	-1.8926436774	-0.385404
H	 0.8065741942	 1.6495754483	-0.0875789783	 0.292672
H	 0.6853531604	-0.7664353602	 0.7975555428	 0.093681
H	-1.7529339622	-0.9469707634	 1.0767633544	 0.113711
H	-2.0092716295	 0.2567446064	-0.199996613	 0.117476
H	-1.2598935479	-2.6782770595	-0.5458471381	 0.090112
H	-2.7610652258	-2.5027200312	-2.5040883254	 0.11654
H	-2.8588564588	-0.7388569745	-2.2905594812	 0.120205
H	-0.5800454276	-2.2475241104	-3.6941343562	 0.123747
H	-0.7839944986	-0.4774491612	-3.6572602031	 0.137033
99.23	121.4989	192.4967	288.0394	331.655	411.3455	436.8956	519.0119	529.899	615.235	672.7891	744.0286	789.6932	811.9259	889.5864	936.6568	964.9927	978.7403	997.5859	1049.9121	1094.0981	1102.4777	1159.4295	1180.2707	1188.577	1220.7261	1247.352	1257.3585	1267.0034	1289.1548	1304.6739	1339.6386	1363.0608	1395.8914	1432.8693	1482.1859	1495.8325	1515.4074	1809.9972	2966.5317	3044.6586	3054.8334	3062.0877	3077.3015	3111.1448	3119.53	3138.5835	3684.069
OC1CC2CCN2C1=O	O[C@H]1C[C@H]2CCN2C1=O	
InChI=1S/C6H9NO2/c8-5-3-4-1-2-7(4)6(5)9/h4-5,8H,1-3H2	InChI=1S/C6H9NO2/c8-5-3-4-1-2-7(4)6(5)9/h4-5,8H,1-3H2/t4-,5+/m1/s1
