18
gdb 15841	4.02225	1.15585	1.00183	1.138	64.83	-0.2602	0.0799	0.3401	1202.2153	0.152106	-422.035392	-422.026542	-422.025598	-422.069377	31.239	
C	-0.1754255258	 1.2794367284	 0.7036308923	-0.225688
O	-0.1622893003	-0.1271542499	 0.7726920468	-0.237814
C	 1.0451393982	-0.693226476	 0.3133231073	-0.079643
C	 0.9505357639	-2.2158848386	 0.4639317971	 0.061332
O	 2.0814571912	-2.8353629211	-0.11320368	-0.438149
C	 0.8060401162	-2.6103866001	 1.9251467979	 0.068897
C	 1.1922597041	-3.941688327	 2.3959116003	-0.187165
O	 2.0622132864	-2.8135379306	 2.5958162218	-0.255492
H	-0.0455659968	 1.6365485512	-0.3298053738	 0.107489
H	-1.1460217271	 1.6170999862	 1.0749777197	 0.12781
H	 0.6184206073	 1.7253266824	 1.3230508702	 0.10791
H	 1.2244853436	-0.4489764396	-0.7450658354	 0.098558
H	 1.904588293	-0.3154342647	 0.8940310253	 0.090776
H	 0.0673872604	-2.5589315505	-0.0885933034	 0.103476
H	 2.7639306761	-2.8137621987	 0.5736189259	 0.292075
H	 0.0775960718	-2.0338057856	 2.4909516715	 0.115153
H	 0.7470352682	-4.3432959614	 3.3038620107	 0.121337
H	 1.5517791197	-4.6735978644	 1.6766671859	 0.129137
69.0917	97.945	115.0467	172.4458	231.4534	260.5242	278.4586	355.2447	431.5299	514.2328	549.4375	653.3727	755.3329	852.1642	928.7258	982.0249	997.1761	1048.1295	1089.0812	1106.9607	1141.7919	1161.1575	1166.0469	1177.1121	1187.1493	1224.971	1239.7561	1262.3188	1298.3098	1341.6622	1406.3779	1417.4012	1449.4024	1481.0997	1485.8659	1503.3356	1515.7946	1526.5733	2956.6677	2975.6789	3005.0535	3020.3125	3048.2151	3099.5159	3114.6347	3147.6096	3193.2289	3731.2081
COCC(O)C1CO1	COC[C@@H](O)[C@H]1CO1	
InChI=1S/C5H10O3/c1-7-2-4(6)5-3-8-5/h4-6H,2-3H2,1H3	InChI=1S/C5H10O3/c1-7-2-4(6)5-3-8-5/h4-6H,2-3H2,1H3/t4-,5-/m1/s1
