17
gdb 66963	2.56362	1.71762	1.28064	5.5272	75.99	-0.2303	0.025	0.2553	1012.3719	0.137119	-380.814086	-380.806503	-380.805559	-380.846021	29.503	
C	 0.0193574798	 1.4945779029	 0.0931169542	-0.512074
C	 0.0211411834	-0.0006846122	 0.0042118123	 0.334702
C	-0.9203340012	-0.901827637	 0.8110079213	-0.068596
N	-1.0955188659	-2.1483425895	 0.0328411992	-0.313509
C	 0.3821186002	-2.0577977183	-0.2129440071	-0.057793
C	 0.568694988	-1.035932839	 0.9813117578	-0.176344
C	 0.4706892181	-0.8524668224	-1.1950767104	-0.190083
C	-0.3206912936	-0.8766711159	-2.420877933	 0.285682
N	-0.9232798811	-0.8658680039	-3.4072079343	-0.336956
H	 1.002854282	 1.9104885836	-0.1515195829	 0.125565
H	-0.7118720403	 1.9269679427	-0.598436637	 0.144198
H	-0.2403113486	 1.8262733036	 1.1037863188	 0.126231
H	-1.6802747953	-0.49427374	 1.4652243283	 0.103989
H	-1.2433917858	-2.9040471176	 0.7012548287	 0.222275
H	 0.9237271458	-2.9799337527	-0.407397418	 0.092627
H	 1.2573461116	-0.9463206886	 1.8110094456	 0.101187
H	 1.5135843329	-0.6284887558	-1.4374701334	 0.118899
124.3076	140.053	209.8529	257.1138	290.5075	393.2403	462.8007	537.4472	558.9001	656.6067	742.9739	768.8568	801.0422	833.9581	885.5032	912.6897	931.5971	948.5454	981.5801	1006.8753	1032.8915	1047.7301	1083.4255	1114.7157	1146.8997	1153.5423	1169.0628	1218.8212	1265.8518	1294.5886	1336.5328	1368.7376	1415.0909	1433.397	1486.4325	1499.0715	2355.4636	3029.3921	3075.6797	3094.0356	3100.756	3155.6934	3195.6968	3209.0016	3461.4251
CC12C3NC(C13)C2C#N	C[C@]12[C@H]3N[C@H]([C@@H]13)[C@H]2C#N	
InChI=1S/C7H8N2/c1-7-3(2-8)5-4(7)6(7)9-5/h3-6,9H,1H3	InChI=1S/C7H8N2/c1-7-3(2-8)5-4(7)6(7)9-5/h3-6,9H,1H3/t3-,4-,5+,6+,7-/m1/s1
