21
gdb 78476	3.1318	1.39273	1.3745	1.585	80.24	-0.236	0.0748	0.3108	1056.3411	0.186101	-387.078956	-387.071716	-387.070772	-387.110104	30.826	
O	 0.0132630617	 1.4995517877	 0.0331251633	-0.450552
C	 0.0428504969	 0.1009015798	-0.0032614468	 0.133511
C	-0.3358350963	-0.6877700493	 1.2243521368	-0.104488
C	-1.2495574276	-0.675025437	-0.0093312376	-0.104513
C	-1.299909849	-2.1576457556	-0.4399522747	-0.02166
C	 0.0594340523	-2.6211213738	-1.018421036	-0.219225
C	 0.9917999206	-2.6341036427	 0.2404068879	-0.219226
C	 0.0467334863	-2.1764241822	 1.3782268472	-0.021656
C	-1.2773368363	-2.8575112018	 0.9439868001	-0.201973
H	-0.726393764	 1.7772307841	 0.5832708129	 0.281147
H	 0.8751649817	-0.2078662025	-0.6228999667	 0.103577
H	-0.5853204912	-0.1262991857	 2.1206323263	 0.073553
H	-2.1740550733	-0.1041541624	-0.0244153659	 0.073544
H	-2.1506872274	-2.3849452919	-1.0844526306	 0.057302
H	-0.0389716541	-3.6245626097	-1.4429218442	 0.093249
H	 0.4219407215	-1.9690018747	-1.8169012024	 0.102484
H	 1.3592713309	-3.6440256749	 0.4448571368	 0.093248
H	 1.8676573788	-1.9891100969	 0.1350526018	 0.102487
H	 0.4128965574	-2.4206974277	 2.3767874008	 0.057303
H	-2.1266619552	-2.5822342217	 1.5758874461	 0.088064
H	-1.2099299336	-3.9499694011	 0.8827779847	 0.083824
190.7422	211.5077	266.0484	324.753	361.2792	381.369	469.6984	505.8952	607.2554	743.2181	749.3238	812.7122	826.661	844.6826	865.7549	891.8901	923.3151	929.0655	948.3986	954.422	991.2735	994.0081	1025.249	1063.1307	1087.6496	1097.3498	1101.8118	1140.2749	1150.606	1168.7939	1172.4161	1220.4449	1248.4582	1270.8915	1278.6991	1290.3275	1302.9272	1317.1533	1340.0543	1346.6295	1370.9227	1460.4248	1494.8667	1495.9389	1519.6601	3038.998	3050.4834	3060.9934	3088.6101	3095.9862	3096.0805	3101.1443	3107.7605	3136.1295	3146.9109	3192.5764	3815.4092
OC1C2C1C1CCC2C1	O[C@H]1[C@H]2[C@@H]1[C@H]1CC[C@@H]2C1	
InChI=1S/C8H12O/c9-8-6-4-1-2-5(3-4)7(6)8/h4-9H,1-3H2	InChI=1S/C8H12O/c9-8-6-4-1-2-5(3-4)7(6)8/h4-9H,1-3H2/t4-,5+,6-,7+,8+
