17
gdb 105744	2.36998	1.50266	1.17377	4.2475	70.4	-0.2375	-0.036	0.2014	1090.7757	0.134155	-458.964171	-458.955395	-458.954451	-458.998086	31.715	
O	 0.1927969734	 1.1970166064	-0.1845946343	-0.424468
C	-0.0648993852	-0.1359116993	 0.1996678382	-0.079893
C	-1.5665188316	-0.4507852872	 0.0825290144	 0.221441
O	-2.0135040775	-0.0843875065	-1.230508219	-0.320309
C	-2.5202288554	-1.2266893686	-1.927992849	-0.135397
C	-2.442404083	-2.3491794809	-0.9329023373	-0.094349
C	-1.9072834159	-1.915468082	 0.2024742305	-0.133289
C	-2.3631636967	 0.362320626	 1.1141968161	 0.134563
O	-2.0978024424	 0.3847037964	 2.2856598308	-0.253481
H	-0.2098186077	 1.3042169344	-1.0552472593	 0.290974
H	 0.4968150094	-0.8584056157	-0.412162651	 0.087067
H	 0.2436358092	-0.2421702322	 1.2434444684	 0.130126
H	-3.5474984265	-1.0238002093	-2.263031992	 0.119348
H	-1.9159014125	-1.4195130171	-2.8274608602	 0.115413
H	-2.7737089262	-3.3565135584	-1.1505175796	 0.120344
H	-1.7250764299	-2.4766344035	 1.1088283856	 0.129667
H	-3.2323089317	 0.9023513674	 0.6786911279	 0.092241
80.3611	94.5402	117.3579	181.5646	221.9957	255.1799	350.801	420.0167	470.1418	483.9773	543.7604	717.1844	755.1667	784.8029	831.3664	885.7286	941.4663	963.2699	970.9105	1033.6631	1045.5772	1075.8491	1108.1982	1128.507	1152.7718	1170.9804	1202.0557	1246.5371	1336.7845	1361.7535	1379.8302	1387.0558	1427.2536	1494.6682	1520.0298	1682.6668	1833.6702	2897.8197	2985.6555	2988.7627	3014.8435	3100.0836	3215.0765	3242.3889	3785.0219
OCC1(OCC=C1)C=O	OC[C@]1(OCC=C1)C=O	
InChI=1S/C6H8O3/c7-4-6(5-8)2-1-3-9-6/h1-2,4,8H,3,5H2	InChI=1S/C6H8O3/c7-4-6(5-8)2-1-3-9-6/h1-2,4,8H,3,5H2/t6-/m1/s1
