14
gdb 21082	3.47328	2.40624	1.43413	2.6668	67.54	-0.2334	-0.0598	0.1736	818.2538	0.109103	-378.76287	-378.756135	-378.755191	-378.793846	24.907	
C	-0.0294044533	 1.4450408144	-0.0023413729	-0.312772
N	-0.0063642153	-0.0142742005	-0.0000880463	-0.044121
N	-0.0444259878	-0.6093962032	-1.1962576793	-0.196037
C	-0.0252091157	-1.9144948754	-1.2253239083	-0.005841
C	 0.0334945547	-2.7134335648	-0.0497031897	-0.100979
C	 0.0717950233	-2.1017014588	 1.1603327823	-0.189888
C	 0.0536794428	-0.6548012312	 1.2561842854	 0.417948
O	 0.0829051331	 0.0092284762	 2.2805761416	-0.399151
H	 0.8675780622	 1.8322933051	 0.4872651818	 0.153318
H	-0.0763169479	 1.769350813	-1.0399095792	 0.146405
H	-0.8957823041	 1.8045239885	 0.5583711971	 0.153378
H	-0.0574023588	-2.35785614	-2.2138095394	 0.127658
H	 0.0466784465	-3.7951691235	-0.137007656	 0.119113
H	 0.1169441103	-2.6441856899	 2.0969036729	 0.130969
113.9205	148.6234	232.5152	329.9792	397.442	478.5256	564.4907	571.0324	603.7334	742.5204	750.7515	843.3476	899.5707	915.2044	1002.982	1013.7407	1063.4925	1139.4963	1148.8872	1184.5556	1274.6557	1296.1868	1402.5204	1422.9781	1441.8865	1471.2169	1501.9786	1561.6455	1642.4514	1766.1295	3059.92	3122.933	3180.122	3182.1076	3202.6009	3216.497
CN1N=CC=CC1=O	Cn1ncccc1=O	
InChI=1S/C5H6N2O/c1-7-5(8)3-2-4-6-7/h2-4H,1H3	InChI=1S/C5H6N2O/c1-7-5(8)3-2-4-6-7/h2-4H,1H3
