15
gdb 28109	5.22865	1.28364	1.03727	0.6168	76.24	-0.1937	0.0024	0.1961	1101.0509	0.114198	-420.661819	-420.654792	-420.653847	-420.693258	27.074	
C	 0.0642105734	 1.4579705594	 0.0421343659	-0.489415
C	-0.0751240553	-0.0196918645	-0.0076049298	 0.365529
C	-1.1578084167	-0.8372641943	-0.2046128249	-0.466893
C	-0.6156320387	-2.1510401619	-0.1366260755	 0.322914
C	 0.7257919858	-2.0462324593	 0.0913080398	 0.276292
O	 1.0910732545	-0.7424334532	 0.1760685573	-0.236173
C	 1.2694035472	-3.3582539408	 0.1595840537	-0.3623
C	 0.1817239135	-4.1646699023	-0.0380660774	-0.008867
O	-0.9832672506	-3.4519614389	-0.221723416	-0.202707
H	 0.7491185265	 1.8238692605	-0.7316335195	 0.140363
H	-0.909809948	 1.9268702543	-0.1136077206	 0.136568
H	 0.4557957077	 1.7929483097	 1.0096855218	 0.140362
H	-2.1723075992	-0.5136723929	-0.3698242046	 0.122891
H	 2.2833333805	-3.6833740813	 0.3246711093	 0.12445
H	 0.0714865095	-5.2353370344	-0.0756864494	 0.136986
126.231	143.74	259.9201	277.1885	357.598	497.4663	556.7641	595.1689	620.7061	699.7781	742.1822	755.2995	781.0681	802.1276	805.8504	915.5285	948.9175	1010.4455	1034.1384	1061.6008	1127.4272	1162.852	1166.3297	1260.6599	1310.8359	1410.6002	1444.4154	1469.3909	1483.217	1498.5812	1538.9333	1578.3882	1626.4212	3027.4362	3076.6133	3129.3163	3266.2252	3267.2886	3290.5541
CC1=CC2=C(O1)C=CO2	Cc1cc2c(o1)cco2	
InChI=1S/C7H6O2/c1-5-4-7-6(9-5)2-3-8-7/h2-4H,1H3	InChI=1S/C7H6O2/c1-5-4-7-6(9-5)2-3-8-7/h2-4H,1H3
