17
gdb 12242	3.45428	1.49528	1.17605	2.7776	65.29	-0.2491	0.0213	0.2705	1040.4283	0.141133	-401.019741	-401.010987	-401.010043	-401.053378	30.987	
C	 0.0126551428	 1.5035654368	-0.1748429503	-0.393287
C	-0.0058741345	 0.0053875425	 0.1422760763	-0.163968
C	-1.4108542596	-0.582220091	 0.1514141283	 0.02749
N	-2.0863281377	-0.6523941888	-1.1618879714	-0.334876
C	-2.0738748709	-2.0166277285	-1.262062642	 0.390469
O	-2.3416581019	-2.7970182675	-2.1390815704	-0.371511
C	-1.5132892872	-2.1462388469	 0.1764660689	-0.033678
O	-0.3039544293	-2.8469317474	 0.301391167	-0.427778
H	 1.0331772862	 1.8964803716	-0.1511279207	 0.123093
H	-0.3919969926	 1.7071548621	-1.1727553991	 0.110092
H	-0.5812246144	 2.0741843716	 0.547942119	 0.11694
H	 0.6057147387	-0.5472978572	-0.5773893324	 0.10909
H	 0.4397275782	-0.1749606795	 1.1277010383	 0.112611
H	-2.0308247644	-0.0899472811	 0.9102335923	 0.082595
H	-2.3247132586	 0.0598890965	-1.8371001943	 0.251995
H	-2.2638092447	-2.5062748272	 0.8927689437	 0.097655
H	-0.3122563001	-3.5478138959	-0.3608066431	 0.303068
69.8285	94.8156	158.7647	168.47	220.4416	234.4203	299.5112	393.1158	453.2363	512.4882	557.6376	716.1969	756.9391	795.1737	829.7303	920.5806	928.9772	973.7945	1058.8726	1099.4984	1122.3195	1170.8293	1189.5289	1206.4667	1264.7929	1287.8138	1334.5997	1354.6453	1374.9569	1388.934	1409.7696	1415.5558	1476.416	1502.2238	1505.53	1888.1166	3015.6134	3029.4244	3036.745	3044.4191	3080.312	3102.2637	3108.6284	3600.0336	3797.8973
CCC1NC(=O)C1O	CC[C@H]1NC(=O)[C@H]1O	
InChI=1S/C5H9NO2/c1-2-3-4(7)5(8)6-3/h3-4,7H,2H2,1H3,(H,6,8)	InChI=1S/C5H9NO2/c1-2-3-4(7)5(8)6-3/h3-4,7H,2H2,1H3,(H,6,8)/t3-,4+/m1/s1
