13
gdb 24975	4.95166	1.35949	1.0865	2.3354	61.73	-0.1891	-0.0015	0.1877	1015.2056	0.090914	-489.847997	-489.841273	-489.840329	-489.87908	25.828	
N	-0.0587330881	 1.2321089665	-0.084338176	-0.561751
C	-0.0209041884	-0.0211819283	 0.0059558568	 0.441408
N	-1.1351957021	-0.8773506243	 0.0882018253	-0.404379
C	-0.6576056065	-2.166684257	-0.1342456403	 0.19218
C	 0.6725933049	-2.0997076871	-0.1360576195	 0.275495
O	 1.2585789421	-3.2185040602	 0.3663129733	-0.246397
C	 0.1445030113	-4.140676324	 0.2763444287	 0.010225
O	-1.0667422401	-3.3747593885	 0.3976804784	-0.254424
O	 1.1381130067	-0.8263669702	-0.0257212987	-0.239769
H	 0.8718957203	 1.6328949022	-0.157592501	 0.240529
H	-1.9979666624	-0.5131008317	-0.2887894357	 0.278966
H	 0.1704701969	-4.6085833485	-0.7184836485	 0.118875
H	 0.2080683853	-4.8695449088	 1.0829271071	 0.149044
130.2754	239.9298	268.0643	326.7077	356.1683	476.3325	536.3467	545.5879	629.5137	707.9403	747.5335	755.6377	768.2061	861.6459	897.9404	910.7323	1015.9547	1053.9562	1117.3258	1132.367	1226.5573	1265.0674	1313.9777	1378.292	1409.222	1464.6829	1514.3052	1727.9642	1807.2285	3000.9309	3152.0044	3553.6612	3614.426
N=C1NC2=C(OCO2)O1	[NH][C@H]1N[C@H]2[C@H](OCO2)O1	
InChI=1S/C4H4N2O3/c5-4-6-2-3(9-4)8-1-7-2/h1H2,(H2,5,6)	InChI=1S/C4H7N2O3/c5-4-6-2-3(9-4)8-1-7-2/h2-6H,1H2/t2-,3-,4+/m1/s1
