18
gdb 121452	5.55505	0.77749	0.72343	4.2606	77.12	-0.246	0.0101	0.2561	1559.5197	0.147329	-439.042765	-439.034278	-439.033334	-439.07698	31.358	
O	-0.1550065449	 1.4697204483	 0.0300820329	-0.423416
C	 0.0357780714	 0.0740829989	 0.1177290912	-0.044328
C	-1.2730553094	-0.6804256202	-0.1248958396	-0.173531
N	-1.8109950407	-0.2479133222	-1.4132067465	-0.384107
C	-2.4124312779	-1.0611539732	-2.1458248438	 0.506467
O	-2.6790688751	-2.4224449356	-1.9428726595	-0.283294
C	-3.1986538598	-2.5152751375	-3.2949421506	 0.099275
C	-4.4143581784	-1.6740732636	-3.4172606749	-0.289321
C	-3.0244870075	-1.0284256031	-3.5054767502	-0.232005
H	-0.687204677	 1.6007969207	-0.7660009543	 0.29006
H	 0.7922734378	-0.2759277506	-0.6047333103	 0.081394
H	 0.4118937886	-0.1429438636	 1.1234304861	 0.100792
H	-1.1172068602	-1.7655548794	-0.0711768665	 0.109487
H	-1.9900962494	-0.3997225861	 0.6571115344	 0.117296
H	-2.9065178114	-3.3736553578	-3.883142471	 0.129121
H	-4.935412289	-1.7227231182	-4.3685921935	 0.131653
H	-5.0428706477	-1.5083254677	-2.5482057506	 0.137888
H	-2.6896148893	-0.4525943192	-4.3550088734	 0.126569
40.0998	102.2313	119.6635	190.9759	217.9545	355.3435	446.7719	467.0766	489.5415	529.5082	678.0745	740.6043	783.8377	828.8559	861.6426	895.8664	914.9165	957.5438	972.5732	1018.7474	1036.9599	1046.5238	1060.9189	1083.3152	1094.678	1109.1825	1128.3346	1191.59	1224.7515	1264.7389	1294.1641	1332.493	1373.568	1384.3343	1442.5384	1475.2467	1476.9148	1510.189	1852.276	2963.3793	3014.4587	3061.227	3070.1909	3127.3462	3218.3924	3223.0171	3238.1707	3759.0511
OCCN=C1OC2CC12	OCCN=C1O[C@H]2C[C@@H]12	
InChI=1S/C6H9NO2/c8-2-1-7-6-4-3-5(4)9-6/h4-5,8H,1-3H2	InChI=1S/C6H9NO2/c8-2-1-7-6-4-3-5(4)9-6/h4-5,8H,1-3H2/t4-,5+/m1/s1
