18
gdb 67508	2.33479	1.72959	1.31098	4.4323	77.02	-0.2147	0.0116	0.2263	1032.6449	0.146412	-401.868691	-401.86066	-401.859716	-401.901094	31.252	
C	 0.0664119647	 1.5325420892	 0.0088785056	-0.502345
C	 0.0401345113	 0.0331616046	 0.0371563859	 0.342887
C	-1.2910050989	-0.7757839153	 0.0036979047	-0.110334
N	-0.9801947201	-2.1798109244	-0.3499441976	-0.325479
C	-0.7865600239	-1.7030964033	 1.0368844336	-0.050753
C	 0.5712479456	-0.9515942362	 1.0897663842	-0.14668
C	 1.2189545191	-0.8563534238	-0.269215834	-0.171553
C	 1.2847451529	-1.932761066	-1.3279022389	 0.164428
O	 1.3204986041	-1.6821911316	-2.5077961668	-0.287703
H	 1.0510473468	 1.9123087364	 0.2982720123	 0.123368
H	-0.155441879	 1.9121370999	-0.9955574218	 0.133878
H	-0.6720989557	 1.9586473586	 0.6982730446	 0.118104
H	-2.2768351067	-0.360131758	-0.1594441555	 0.100071
H	-1.8497051226	-2.7075379281	-0.4060358358	 0.238348
H	-1.2888894244	-2.1726925339	 1.8719721195	 0.101526
H	 1.0950933134	-0.7322594492	 2.0115121098	 0.090994
H	 2.1515083632	-0.2929702025	-0.2366834462	 0.11132
H	 1.4225644302	-2.9630478165	-0.9414259235	 0.069921
105.2495	137.5023	209.9633	223.0483	290.0701	313.9798	403.0482	472.8994	563.4953	593.0536	693.779	743.9172	766.0262	817.8735	839.4813	862.7945	895.4164	919.599	939.8712	962.6004	997.1579	1014.628	1045.1349	1078.7205	1097.539	1106.912	1138.7116	1210.6003	1218.3871	1256.2856	1309.1312	1315.7571	1348.3996	1410.7087	1415.8032	1450.4902	1484.3596	1497.97	1799.1306	2910.6056	3021.7214	3079.4549	3102.1911	3120.0007	3189.819	3196.8192	3209.5564	3487.7689
CC12C3NC3C1C2C=O	C[C@]12[C@H]3N[C@H]3[C@H]1[C@H]2C=O	
InChI=1S/C7H9NO/c1-7-3(2-9)4(7)5-6(7)8-5/h2-6,8H,1H3	InChI=1S/C7H9NO/c1-7-3(2-9)4(7)5-6(7)8-5/h2-6,8H,1H3/t3-,4-,5+,6+,7-/m1/s1
