18
gdb 32686	3.41014	1.27376	0.9907	1.9755	79.77	-0.2038	0.0421	0.2459	1185.8443	0.149682	-401.942789	-401.934803	-401.933858	-401.976061	30.065	
O	 0.0180600447	 1.4454267719	 0.214169788	-0.416022
C	-0.0133333852	 0.1109429071	-0.2537417273	-0.068028
C	-1.3952210256	-0.5163261974	-0.0722592171	-0.182312
C	-1.4526976305	-2.0941237451	-0.1587198498	-0.205384
N	-1.8080678736	-2.0744445367	 1.2693873728	 0.021019
C	-2.2429533293	-2.6700049359	 2.4194120603	-0.158047
C	-2.5267193488	-1.6252375022	 3.2871836621	-0.12558
C	-2.2838429941	-0.3747527998	 2.6305506027	-0.349228
C	-1.8366979404	-0.7177510009	 1.3733002266	 0.338015
H	-0.1636540011	 1.4152403187	 1.1606415538	 0.288284
H	 0.2513504972	 0.1529303069	-1.3160558979	 0.108625
H	 0.7394397122	-0.5131033615	 0.2543851164	 0.089011
H	-2.1235751443	-0.0104797525	-0.7127643291	 0.098579
H	-2.2400658768	-2.493868586	-0.8035014156	 0.128511
H	-0.5042836939	-2.5948224557	-0.3775626549	 0.122299
H	-2.3011324268	-3.738038885	 2.5501187549	 0.119281
H	-2.86905144	-1.7446166554	 4.3046781172	 0.094435
H	-2.4413064835	 0.6087047694	 3.0448696967	 0.096542
64.5868	83.3991	135.8848	212.5815	361.5931	407.4353	416.5279	520.0692	604.4699	671.8737	700.8153	713.4973	761.6921	789.8612	825.2983	861.5949	916.3192	960.0511	995.239	1044.3408	1057.1844	1082.4608	1105.0872	1135.0027	1157.8499	1184.4766	1228.7908	1238.814	1262.4965	1302.6552	1337.5116	1391.9955	1410.3817	1423.0343	1450.1471	1469.5755	1503.8824	1518.7773	1572.8467	2975.4382	3047.2128	3061.6145	3076.201	3102.8192	3237.6089	3255.3056	3272.7751	3793.749
OCC1CN2C=CC=C12	OC[C@H]1Cn2cccc12	
InChI=1S/C7H9NO/c9-5-6-4-8-3-1-2-7(6)8/h1-3,6,9H,4-5H2	InChI=1S/C7H9NO/c9-5-6-4-8-3-1-2-7(6)8/h1-3,6,9H,4-5H2/t6-/m1/s1
