16
gdb 15147	7.36393	0.75465	0.74198	3.9076	62.95	-0.2784	0.007	0.2855	1474.9179	0.128833	-420.871272	-420.862829	-420.861885	-420.906044	28.366	
O	 0.2547436848	 0.1370525281	-0.3680062995	-0.272534
C	 0.3731366247	 1.3218173726	-0.4500315809	 0.168486
O	 0.7434277986	 2.0913276716	 0.5913297994	-0.176378
C	 0.8955326814	 3.4980074316	 0.371070023	-0.082648
C	 2.372151458	 3.8864719782	 0.417088092	-0.22964
C	 2.5506889483	 5.3786887392	 0.2800630062	 0.089941
C	 3.6444526924	 5.9694594387	-0.499066106	-0.177338
O	 2.3163586246	 5.9234564841	-1.0236721194	-0.235632
H	 0.1888790296	 1.9087755488	-1.3717874127	 0.080634
H	 0.4570281018	 3.7839405278	-0.5926693096	 0.131341
H	 0.3319114557	 4.0009767071	 1.1631519128	 0.125699
H	 2.8042984656	 3.5456642479	 1.3651282176	 0.124261
H	 2.9065524315	 3.3767096978	-0.3917266214	 0.114971
H	 2.1252646237	 5.9790071664	 1.0869797248	 0.098201
H	 4.0141111877	 6.9621456777	-0.2471577708	 0.121334
H	 4.3644128915	 5.3164333523	-0.9905728554	 0.119303
40.5232	61.6859	90.9191	142.6667	195.9711	318.84	367.338	429.1512	463.9931	675.8672	776.4818	812.7665	879.5011	947.9826	1002.3445	1044.2096	1051.6545	1058.1093	1105.8106	1136.6702	1160.8467	1166.932	1189.0229	1278.3527	1291.2485	1305.326	1333.3564	1406.6274	1433.1243	1449.3472	1476.0377	1510.4234	1531.0067	1868.4296	2942.1139	3033.736	3044.1088	3076.4882	3085.1318	3088.9696	3104.6335	3173.3965
O=COCCC1CO1	O=COCC[C@H]1CO1	
InChI=1S/C5H8O3/c6-4-7-2-1-5-3-8-5/h4-5H,1-3H2	InChI=1S/C5H8O3/c6-4-7-2-1-5-3-8-5/h4-5H,1-3H2/t5-/m0/s1
