20
gdb 69971	2.46854	1.8698	1.379	2.9715	78.54	-0.2217	0.0707	0.2924	1018.8535	0.170434	-403.081382	-403.07312	-403.072176	-403.113491	32.959	
C	-0.0871801831	 1.5437134529	 0.0837589747	-0.525262
C	 0.1153231023	 0.0597684391	 0.0283360554	 0.299338
N	-0.8013417923	-0.863286871	 0.7355582962	-0.366543
C	 0.6499430672	-0.9224957433	 1.0256197961	-0.125194
C	 1.2960539649	-1.7832964077	-0.0801038281	-0.146764
C	 0.3852398191	-2.787259403	-0.8213394748	-0.091735
O	-0.0569658226	-1.766558215	-1.7536268609	-0.330145
C	 0.7790542278	-0.7688200982	-1.1306503367	 0.426765
C	 1.6431079246	-0.0132910077	-2.1066327655	-0.485299
H	 0.7954593987	 2.0864961177	-0.2688969154	 0.125295
H	-0.9375995083	 1.8502606566	-0.5367726293	 0.13457
H	-0.2890934409	 1.8698429244	 1.1105032423	 0.116237
H	-1.2363680421	-0.3245612356	 1.4845336112	 0.22397
H	 1.0207703575	-0.7643894151	 2.0317254293	 0.089172
H	 2.3552814981	-2.0100043704	 0.0324163765	 0.076757
H	 0.9251885201	-3.5866408485	-1.3429297976	 0.090742
H	-0.4457201264	-3.2012663783	-0.2448716868	 0.116799
H	 1.0234979476	 0.5940047469	-2.7762169581	 0.12903
H	 2.3370976816	 0.6539596056	-1.5850658921	 0.117325
H	 2.2229584762	-0.7093822093	-2.7189303163	 0.124942
150.041	193.9146	216.1564	243.2863	266.7228	282.2585	349.1568	385.5205	489.2954	538.6495	597.532	645.792	772.547	809.9234	815.1418	849.4463	884.1038	900.5087	950.5059	973.1452	987.3893	1019.4811	1032.0305	1056.0569	1079.7211	1100.9448	1144.9676	1158.1066	1164.4203	1176.2684	1259.053	1281.8168	1315.6585	1332.738	1356.7236	1400.5311	1407.2385	1428.3311	1477.3528	1484.8817	1489.5666	1499.3161	1501.8457	3022.7726	3024.7049	3032.6718	3084.0961	3096.9063	3098.4889	3100.4613	3115.3836	3123.9578	3178.4188	3465.7253
CC12NC1C1COC21C	C[C@]12N[C@H]1[C@H]1CO[C@@]21C	
InChI=1S/C7H11NO/c1-6-5(8-6)4-3-9-7(4,6)2/h4-5,8H,3H2,1-2H3	InChI=1S/C7H11NO/c1-6-5(8-6)4-3-9-7(4,6)2/h4-5,8H,3H2,1-2H3/t4-,5+,6+,7-/m1/s1
