15
gdb 25005	4.98984	1.3197	1.05058	1.4442	73.75	-0.1927	-0.0011	0.1916	1061.7729	0.115775	-416.879028	-416.872134	-416.871189	-416.910377	26.978	
O	-0.0257439292	-0.0015282747	 0.0045962907	-0.359628
C	-0.0306014813	 1.2042131026	 0.01074267	 0.410356
C	-1.2738484405	 2.1318608185	 0.0323918907	-0.325984
N	-0.6772037444	 3.4474514706	 0.0306253891	-0.021427
C	-1.0733380098	 4.7698499534	 0.0424207564	-0.134501
C	 0.0714000335	 5.5298375487	 0.0302548934	-0.13043
C	 1.2106630854	 4.6549893287	 0.010229359	-0.316232
C	 0.6888634689	 3.3888212552	 0.0114095571	 0.428478
N	 1.0642858712	 2.0436337668	-0.0003794637	-0.451267
H	-1.8941919263	 1.9378279243	-0.8486684641	 0.155012
H	-1.8696726007	 1.9290914449	 0.9282860938	 0.155
H	-2.114586644	 5.045223387	 0.0581667634	 0.120592
H	 0.1060654795	 6.6084012582	 0.0349936919	 0.099529
H	 2.2508363633	 4.9359462401	-0.0028392363	 0.09756
H	 2.0093005144	 1.6997655355	-0.0151710413	 0.272943
101.2341	159.8444	284.6162	346.7918	431.3156	542.9619	561.7774	579.545	601.8538	659.7759	693.0806	734.7672	746.944	815.9271	829.6263	861.6107	933.2411	1006.2464	1037.0846	1081.8397	1155.6802	1191.0347	1224.4633	1263.1883	1285.1912	1316.6623	1344.1648	1419.361	1471.1975	1490.5871	1535.1426	1647.6898	1852.3249	3049.5272	3089.8348	3248.8086	3266.6149	3279.5337	3678.1464
O=C1CN2C=CC=C2N1	O=C1Cn2cccc2N1	
InChI=1S/C6H6N2O/c9-6-4-8-3-1-2-5(8)7-6/h1-3H,4H2,(H,7,9)	InChI=1S/C6H6N2O/c9-6-4-8-3-1-2-5(8)7-6/h1-3H,4H2,(H,7,9)
