21
gdb 92610	3.8712	1.14813	0.96676	1.5742	84.95	-0.2338	0.0152	0.249	1273.701	0.184588	-387.106129	-387.09802	-387.097076	-387.138796	31.719	
C	-0.0824113093	 1.5861599999	 0.0243239786	-0.396877
C	 0.0314108823	 0.0588057651	 0.0338360589	 0.003133
C	 0.7571902377	-0.5282447218	-1.2173014643	-0.258741
C	 1.4368001268	-1.8100532124	-0.7043578104	-0.069954
C	 2.8774936841	-2.1865883577	-1.0665309658	-0.095048
O	 3.370058234	-2.8817206166	 0.085480031	-0.269871
C	 2.7502898664	-2.3563815718	 1.2699868434	-0.17659
C	 1.6138480124	-1.5195206903	 0.7689279116	 0.323397
C	 0.8677449232	-0.4991608444	 1.1782854417	-0.255928
H	 0.9087079243	 2.0522726541	-0.0095488685	 0.114484
H	-0.6473638478	 1.931723354	-0.8480340555	 0.113694
H	-0.5961936557	 1.9534725806	 0.9191442985	 0.112453
H	-0.9888610428	-0.3531379854	 0.0884930862	 0.07799
H	 0.0799789837	-0.6951835154	-2.0595108015	 0.095
H	 1.523195144	 0.186599925	-1.5446994131	 0.097755
H	 0.7936911036	-2.6903044028	-0.8496748937	 0.082084
H	 2.9805030141	-2.8645743928	-1.9180587509	 0.105443
H	 3.473782232	-1.2802759206	-1.2639538194	 0.085572
H	 2.4339966478	-3.2067828281	 1.8881195144	 0.113959
H	 3.4705113456	-1.7667241195	 1.8556141194	 0.108488
H	 0.8407275637	-0.0791946091	 2.1785471595	 0.089559
84.8073	157.905	181.1902	232.9805	283.5379	321.3479	403.2868	443.7126	542.4533	601.8247	640.7806	720.3659	829.3249	835.3288	854.5936	911.145	918.8308	928.4955	987.6339	1007.639	1022.878	1048.3398	1059.9608	1096.998	1114.4364	1150.9763	1170.0477	1204.5687	1207.8949	1222.6674	1259.6861	1285.3691	1302.8808	1317.2655	1329.667	1353.5882	1366.7758	1395.8201	1408.024	1486.9455	1497.1324	1498.7416	1504.7019	1517.9993	1743.7837	2965.5898	2971.681	2996.1364	2997.3949	3025.251	3028.4936	3029.4215	3087.3257	3091.7059	3096.8423	3097.2279	3183.1596
CC1CC2COCC2=C1	C[C@H]1C[C@H]2COCC2=C1	
InChI=1S/C8H12O/c1-6-2-7-4-9-5-8(7)3-6/h2,6,8H,3-5H2,1H3	InChI=1S/C8H12O/c1-6-2-7-4-9-5-8(7)3-6/h2,6,8H,3-5H2,1H3/t6-,8+/m1/s1
