23
gdb 113188	2.1619	1.20417	0.9948	2.7369	81.95	-0.2551	0.0641	0.3193	1344.0335	0.202914	-425.411216	-425.400347	-425.399403	-425.446701	40.65	
C	-1.4689422543	 0.982337002	-0.9407944651	-0.413785
C	-1.1382755272	-0.4793001253	-1.286181809	-0.00991
C	-2.0079290896	-0.9799321039	-2.4491285645	-0.404351
C	 0.3505754629	-0.6305639797	-1.5883116256	 0.41346
O	 0.7930346457	 0.1260264661	-2.6921471411	-0.477184
C	 1.3294591043	-0.8145003193	-0.4535429721	-0.379201
C	 1.0959982839	-1.9355392471	-1.4510905581	-0.089145
C	 0.4551540458	-3.2408797051	-1.0482695309	-0.07294
O	 0.0271750898	-4.0070391238	-2.1664963379	-0.425709
H	-0.843054727	 1.3514936828	-0.1213273029	 0.114431
H	-1.3209602788	 1.6361585917	-1.8079687395	 0.112733
H	-2.5151346299	 1.0829847433	-0.6368703821	 0.117124
H	-1.3592079381	-1.0842899057	-0.3988365334	 0.075631
H	-1.7041423415	-0.5023517931	-3.3853219089	 0.130926
H	-1.924890211	-2.0643760012	-2.5735595613	 0.106338
H	-3.0650705301	-0.7551416772	-2.2755660036	 0.110696
H	 0.8204611559	 1.0514084843	-2.4256741095	 0.28344
H	 2.27720394	-0.2902670681	-0.5059859279	 0.112597
H	 0.9285161219	-0.9339886534	 0.5488310014	 0.109807
H	 1.8848645177	-2.0533715623	-2.1892945665	 0.104539
H	 1.1860359233	-3.8659371132	-0.5222454535	 0.109874
H	-0.3748017415	-3.0643151108	-0.3462435714	 0.083474
H	-0.3760911424	-3.4008179509	-2.7957023267	 0.287154
67.3977	96.5288	137.8095	173.2741	218.2456	233.0401	257.2172	273.0463	302.0057	321.982	333.8743	403.9339	430.177	475.0426	518.2181	550.1662	685.8308	805.3967	868.5797	907.8451	925.7643	929.0041	966.7158	986.9884	1002.7027	1031.2729	1060.7408	1065.8681	1114.4928	1134.0647	1172.2046	1187.4312	1216.1366	1235.7495	1292.2023	1315.4908	1334.3864	1341.7705	1370.2393	1391.0632	1412.5041	1413.6342	1438.8526	1486.7705	1489.5449	1495.267	1508.1217	1514.3012	1515.6791	2978.6035	3027.4698	3035.0077	3038.1048	3055.1684	3094.1784	3100.4043	3105.238	3117.4537	3123.2112	3150.2853	3214.2949	3799.9638	3821.1591
CC(C)C1(O)CC1CO	CC(C)[C@@]1(O)C[C@H]1CO	
InChI=1S/C7H14O2/c1-5(2)7(9)3-6(7)4-8/h5-6,8-9H,3-4H2,1-2H3	InChI=1S/C7H14O2/c1-5(2)7(9)3-6(7)4-8/h5-6,8-9H,3-4H2,1-2H3/t6-,7-/m0/s1
