16
gdb 38045	3.7603	1.84003	1.59565	1.4882	71.41	-0.2329	-0.0025	0.2304	846.3265	0.127364	-400.702552	-400.69672	-400.695776	-400.732323	25.232	
C	-0.0712910895	 1.5860791894	 0.15867203	-0.24863
C	 1.4590178336	 1.3575996137	-0.0214590058	-0.149974
C	 1.7244558126	 0.4444247382	 1.2028606638	-0.087539
C	 0.6998637311	-0.4247223065	 1.2143811175	-0.18174
C	-0.0723430445	 0.0096871678	-0.0205675257	 0.342712
N	-1.1629374145	-0.5740951317	-0.7778650002	-0.359672
C	-0.850502467	-0.2694500586	-1.9765690453	 0.079529
O	 0.3388772404	 0.3707762874	-2.2447063908	-0.263051
C	 1.0911137825	 0.2058459237	-1.0171285243	 0.12267
H	-0.4059392994	 1.9742123776	 1.1208872364	 0.103231
H	-0.5478940024	 2.1086987664	-0.6730950694	 0.113156
H	 2.1700370852	 2.1541257526	-0.2343495683	 0.07366
H	 2.5629910338	 0.5257941769	 1.8796464724	 0.108079
H	 0.4756978896	-1.2383926044	 1.8878307756	 0.118914
H	-1.4556708036	-0.4602093488	-2.8556406212	 0.141228
H	 1.8336709821	-0.5828814738	-1.1656089348	 0.087427
282.6252	306.9519	408.2446	456.2688	538.3219	573.055	579.8871	689.7257	695.7504	739.9509	855.2026	867.6256	881.3634	905.4143	913.7116	947.6712	950.6603	976.2254	997.4812	1022.4843	1047.5614	1057.7724	1078.9553	1137.0025	1178.3124	1206.028	1234.7007	1239.6939	1258.7979	1324.3868	1341.088	1358.5749	1490.4612	1590.495	1636.3631	3076.4181	3078.6099	3130.7643	3150.3105	3219.4828	3227.1626	3254.7661
C1C2C=CC11N=COC21	C1[C@H]2C=C[C@]31[N][CH]O[C@@H]23	
InChI=1S/C7H7NO/c1-2-7-3-5(1)6(7)9-4-8-7/h1-2,4-6H,3H2	InChI=1S/C7H7NO/c1-2-7-3-5(1)6(7)9-4-8-7/h1-2,4-6H,3H2/t5-,6+,7-/m1/s1
