17
gdb 109293	3.42814	1.12922	0.87539	0.6779	71.57	-0.2646	-0.0257	0.2389	1271.446	0.137362	-455.199184	-455.1909	-455.189956	-455.232417	30.762	
O	 0.1322673138	 1.3869756575	 0.1413092993	-0.417082
C	 0.034677978	-0.0033027221	 0.0906395317	-0.119977
C	-1.4103638849	-0.4549260183	 0.0299437829	 0.366123
N	-2.3249325066	 0.4263231123	-0.0210915557	-0.309584
C	-3.7057473527	-0.0463046557	-0.009192147	-0.179055
C	-3.8901518521	-1.3929234983	-0.7233212991	-0.335901
C	-2.8536879093	-2.4122555039	-0.2877966648	 0.408708
O	-3.0090263358	-3.6100087133	-0.2645063458	-0.342809
N	-1.6346558795	-1.8281530034	 0.0439223055	-0.374419
H	-0.7865739478	 1.7029481367	 0.0887056029	 0.293549
H	 0.5622608886	-0.4089241956	-0.789613368	 0.112973
H	 0.5066988231	-0.4632832116	 0.975977017	 0.108942
H	-4.0285363185	-0.129985955	 1.0390015002	 0.123892
H	-4.3424491109	 0.7139997017	-0.469527649	 0.122411
H	-4.8832454347	-1.8162155905	-0.5614024517	 0.13984
H	-3.7640328384	-1.2596106945	-1.80619623	 0.141397
H	-0.8708430525	-2.4674080461	 0.2179579115	 0.260993
76.4368	137.9102	147.0509	215.1354	248.812	374.026	418.162	453.4951	486.2757	540.8027	575.2668	617.0335	652.86	724.0251	795.8309	901.6688	935.2329	1008.4317	1033.632	1066.1777	1116.9361	1137.0698	1191.6181	1198.8662	1246.5968	1253.1956	1283.2604	1327.6713	1338.5431	1387.9122	1455.9086	1460.2782	1491.2508	1495.5796	1511.0115	1751.0056	1829.4188	2959.6283	2973.2233	3005.8702	3033.5171	3083.9261	3121.3139	3597.0555	3636.1892
OCC1=NCCC(=O)N1	OCC1=NCCC(=O)N1	
InChI=1S/C5H8N2O2/c8-3-4-6-2-1-5(9)7-4/h8H,1-3H2,(H,6,7,9)	InChI=1S/C5H8N2O2/c8-3-4-6-2-1-5(9)7-4/h8H,1-3H2,(H,6,7,9)
