18
gdb 76387	2.558	1.20952	1.15294	2.6122	69.17	-0.2366	0.0324	0.2689	1175.248	0.145411	-476.242733	-476.232736	-476.231792	-476.27729	36.695	
C	-0.0177340119	 1.545441541	 0.112665992	-0.429131
C	 0.0396519484	 0.0365769234	 0.070414156	-0.100537
C	 1.3325471643	-0.7053554323	-0.1471933695	 0.004001
O	 2.556347948	-0.0190345541	-0.1391763911	-0.432314
C	 0.6722858669	-0.742493181	 1.2203353614	 0.271753
O	 1.3219349224	-0.0385796577	 2.2378228074	-0.49058
C	 0.0133267354	-2.0281261199	 1.6324699768	 0.366618
N	 0.1755101809	-2.3409098896	 2.9415958131	-0.539706
O	-0.6023242779	-2.7120215677	 0.8302605746	-0.390814
H	 0.8054028587	 1.9631865205	 0.6965073734	 0.122259
H	 0.0168749238	 1.9725646566	-0.8963029771	 0.114578
H	-0.9496432819	 1.8792922985	 0.5783551041	 0.133391
H	-0.8199731686	-0.4682127408	-0.3597357568	 0.120792
H	 1.3185371505	-1.6171170914	-0.7380725781	 0.120437
H	 2.5154396517	 0.7023719139	-0.7754059389	 0.302253
H	 2.2014934984	 0.1755190274	 1.8911092151	 0.295833
H	 0.7023722317	-1.7281400932	 3.5398936798	 0.271194
H	-0.2312849505	-3.1895430436	 3.295462238	 0.259971
77.3079	123.8913	150.2092	184.5438	214.1098	225.579	256.2721	263.7218	328.939	372.7034	481.5399	509.5623	519.4315	607.3661	614.1775	640.0362	711.9011	738.1655	824.4089	885.9943	995.8166	1018.3129	1052.5937	1064.1013	1091.4651	1138.4886	1157.8543	1208.4414	1272.3005	1302.3263	1342.2847	1357.0775	1401.4377	1419.7578	1449.4515	1494.5148	1503.5941	1593.388	1782.2317	3035.1465	3096.8418	3125.2415	3148.5752	3168.1127	3606.925	3709.0694	3749.5874	3813.091
CC1C(O)C1(O)C(N)=O	C[C@H]1[C@@H](O)[C@]1(O)C(=O)N	
InChI=1S/C5H9NO3/c1-2-3(7)5(2,9)4(6)8/h2-3,7,9H,1H3,(H2,6,8)	InChI=1S/C5H9NO3/c1-2-3(7)5(2,9)4(6)8/h2-3,7,9H,1H3,(H2,6,8)/t2-,3+,5-/m0/s1
