18
gdb 36436	4.00633	1.01507	0.94374	4.129	75.48	-0.2601	0.0374	0.2976	1260.3305	0.148657	-401.929126	-401.921108	-401.920164	-401.9626	29.756	
N	-0.140213684	-0.9797328713	-0.4379145205	-0.312299
C	-0.0783073033	 0.1462650491	-0.1842934508	 0.257899
C	 0.0305485377	 1.5685391891	 0.1302694443	-0.355173
C	 1.4844881052	 2.0517910881	 0.1442947591	 0.004974
C	 2.3102378396	 1.9920602538	-1.1817839483	-0.25671
C	 2.6333328191	 3.5084034245	-1.0532069911	-0.076998
C	 1.5972966805	 4.423102117	-1.7200738684	-0.077282
O	 0.7019390656	 4.3092126348	-0.5826501881	-0.293751
C	 1.6899563754	 3.5868241149	 0.1815243084	 0.089128
H	-0.5346171513	 2.1485823298	-0.6066699189	 0.164088
H	-0.442015259	 1.75075265	 1.1027319929	 0.150471
H	 2.0285140731	 1.5723807602	 0.9636124962	 0.094042
H	 3.178052218	 1.332852333	-1.1321871172	 0.118572
H	 1.7345685236	 1.7301393441	-2.0743548717	 0.113174
H	 3.6778234157	 3.8138221074	-1.0564145056	 0.085192
H	 1.9227581832	 5.4619674186	-1.8566029122	 0.107812
H	 1.1399316926	 4.0626408417	-2.649449873	 0.107441
H	 1.9056974783	 4.0686923051	 1.139225335	 0.079421
54.5212	94.34	123.2326	228.7443	327.4523	367.788	397.6959	490.2559	521.9355	689.9629	768.0586	808.3246	844.6553	861.0786	908.7135	927.0254	945.6591	975.2822	998.0358	1021.7368	1068.1428	1078.8561	1110.6417	1147.2249	1160.5974	1186.1989	1219.7959	1231.9981	1257.5181	1274.9871	1300.0942	1307.1396	1336.8117	1358.5216	1368.0782	1467.011	1484.6054	1520.7886	2359.7473	3013.4365	3044.833	3058.5637	3060.2404	3063.8152	3072.2486	3091.336	3120.8973	3134.192
N#CCC1CC2COC12	N#CC[C@H]1C[C@H]2CO[C@@H]12	
InChI=1S/C7H9NO/c8-2-1-5-3-6-4-9-7(5)6/h5-7H,1,3-4H2	InChI=1S/C7H9NO/c8-2-1-5-3-6-4-9-7(5)6/h5-7H,1,3-4H2/t5-,6-,7-/m0/s1
