23
gdb 73680	2.03659	1.89701	1.43253	1.4968	83.63	-0.238	0.0753	0.3134	1070.4351	0.20856	-388.322459	-388.314193	-388.313248	-388.355063	33.251	
C	-0.3047298387	 1.5340280218	 0.1396364694	-0.469891
C	 0.0413910302	 0.0515105304	-0.0234408649	 0.317766
C	-1.2506824933	-0.8298153376	-0.1080812614	-0.259261
C	-1.1176186585	-1.9337918937	 0.9651595528	-0.210283
C	-0.2025082751	-1.3028233326	 2.026037106	-0.218143
C	 0.8226271938	-0.5319999527	 1.1923874217	 0.110308
O	 1.8128491147	-1.4248665364	 0.6646191056	-0.283729
C	 1.7327188081	-1.4837609774	-0.7557535288	-0.083595
C	 1.0243515088	-0.1998177179	-1.1847070416	-0.271631
H	 0.5977333209	 2.1478892926	 0.2317747851	 0.112902
H	-0.8727283501	 1.9007663714	-0.7226716525	 0.114805
H	-0.9195495771	 1.7027189579	 1.0308039451	 0.113295
H	-2.1266701706	-0.2076641315	 0.1054062677	 0.095445
H	-1.3991375279	-1.2427110496	-1.1106928209	 0.093119
H	-2.0848273897	-2.2530290778	 1.3631264908	 0.091004
H	-0.6323684741	-2.8219352447	 0.5470113536	 0.110064
H	-0.7656889502	-0.5971167341	 2.6506821656	 0.090085
H	 0.2768367824	-2.0274143973	 2.6890212336	 0.103482
H	 1.3429062551	 0.239844784	 1.7735042558	 0.059475
H	 2.7481666444	-1.5762463121	-1.1552271173	 0.101735
H	 1.1658629014	-2.3737468411	-1.0724061538	 0.087239
H	 0.5283501805	-0.2861702529	-2.1556070541	 0.097774
H	 1.7454690654	 0.6229289012	-1.2469688175	 0.098033
72.5944	182.4597	193.8662	250.9873	274.3283	348.8689	383.4498	408.1851	547.3079	569.0573	617.4818	660.4204	793.7261	829.9815	849.3468	871.2661	904.227	915.1669	929.866	944.5989	992.3534	1000.3217	1027.7224	1037.7833	1047.2012	1089.3056	1131.7793	1150.1065	1178.0719	1210.9893	1223.8004	1245.4967	1253.3884	1280.4373	1302.4282	1319.5078	1335.2355	1338.8816	1366.6385	1372.0244	1397.309	1414.2299	1477.6962	1485.2315	1493.598	1497.6942	1501.6825	1506.6568	1528.812	2974.4074	3015.5147	3023.0611	3032.4269	3037.3577	3041.7735	3048.2635	3065.104	3076.1419	3089.9346	3092.2913	3096.1912	3097.6014	3103.7467
CC12CCCC1OCC2	C[C@]12CCC[C@H]1OCC2	
InChI=1S/C8H14O/c1-8-4-2-3-7(8)9-6-5-8/h7H,2-6H2,1H3	InChI=1S/C8H14O/c1-8-4-2-3-7(8)9-6-5-8/h7H,2-6H2,1H3/t7-,8-/m1/s1
