14
gdb 5665	5.1402	2.15679	1.5337	3.8345	68.96	-0.1928	0.0023	0.1951	773.6059	0.111088	-341.623467	-341.617731	-341.616787	-341.653046	22.977	
C	-0.0772327644	 1.5209224811	 0.0110165508	-0.412675
C	 1.4124064661	 1.8770089278	-0.0013813553	-0.089177
C	 2.1876192094	 0.7734787205	-0.0147652327	-0.178052
C	 1.3120548265	-0.3975338109	-0.012695316	 0.277021
C	 0.0093368934	 0.0301806815	 0.0021164837	 0.294049
N	-0.7496517484	-1.108193039	 0.003350513	-0.378261
C	 0.1419100906	-2.1615740477	-0.0110104125	-0.018879
N	 1.3986615095	-1.7666585004	-0.0208690521	-0.345948
H	-0.5780986904	 1.9302902411	 0.8983052009	 0.130102
H	-0.5950382484	 1.9398379635	-0.8619758561	 0.130099
H	 1.7543200992	 2.9031594069	 0.0008618176	 0.09716
H	 3.2693517356	 0.7509502072	-0.0252674151	 0.10403
H	-1.7528019637	-1.1864025296	 0.0125828606	 0.264815
H	-0.199396145	-3.186156362	-0.0132926867	 0.125717
182.3925	271.9054	430.3561	442.313	509.4797	643.8325	653.5219	686.8926	719.9552	763.7572	779.9313	860.7644	917.3956	927.4398	949.781	970.8557	1060.9985	1094.9024	1132.3195	1156.762	1216.8445	1266.6582	1306.7501	1372.2226	1418.4706	1441.9559	1456.7655	1508.7911	1555.743	1618.5747	3025.1008	3052.8737	3214.4009	3236.5781	3250.759	3663.7876
C1C=CC2=C1NC=N2	C1C=Cc2c1[nH]cn2	
InChI=1S/C6H6N2/c1-2-5-6(3-1)8-4-7-5/h1-2,4H,3H2,(H,7,8)	InChI=1S/C6H6N2/c1-2-5-6(3-1)8-4-7-5/h1-2,4H,3H2,(H,7,8)
