18
gdb 117867	3.50451	0.62848	0.55015	5.7487	88.39	-0.2734	-0.0452	0.2282	1968.4998	0.144874	-401.93082	-401.920407	-401.919463	-401.967779	35.605	
C	-0.1064114181	 1.5186646147	-0.0558507642	-0.386312
C	-0.0288708002	 0.0061668412	 0.0541306516	-0.038579
O	-1.3534660662	-0.5057022996	-0.0074199413	-0.252536
C	-1.4372525533	-1.9206370754	 0.0242775124	-0.065163
C	-1.4073767947	-2.4770209768	 1.4583087033	-0.396694
C	-2.6727175351	-2.3063649011	-0.660593845	 0.100903
C	-3.6888131888	-2.6529155024	-1.2132601144	 0.07128
C	-4.838549179	-3.04034452	-1.8397624736	 0.204561
N	-5.8157615757	-3.3733989087	-2.3722646243	-0.334743
H	 0.8973048194	 1.9519954477	-0.0176421576	 0.120086
H	-0.5780812957	 1.8105924829	-0.9979290348	 0.134377
H	-0.6956856552	 1.9332523574	 0.7665585162	 0.132669
H	 0.5716355354	-0.4144972865	-0.7687724208	 0.095863
H	 0.4591806376	-0.2842497481	 0.997056176	 0.094663
H	-0.5972867267	-2.3550807269	-0.5444471445	 0.110189
H	-1.496405233	-3.5666906093	 1.4497580852	 0.135524
H	-0.4640939254	-2.2122227676	 1.9425855332	 0.129392
H	-2.2335425455	-2.0575288614	 2.0367432127	 0.144521
39.9956	55.7505	86.2249	119.3778	192.5722	224.4217	237.9124	247.4212	306.4183	365.446	389.2642	520.993	526.9485	580.0367	594.7164	731.9852	822.0014	849.7788	943.6334	1010.9564	1066.9826	1094.144	1129.4868	1147.8646	1184.6968	1185.7442	1297.2965	1333.8487	1352.3135	1400.0982	1403.829	1437.059	1482.7314	1487.5219	1490.7593	1499.6411	1527.426	2267.2302	2404.6428	2959.2856	2970.801	3002.9159	3048.3832	3052.1905	3123.3338	3127.5972	3128.3569	3140.1937
CCOC(C)C#CC#N	CCO[C@@H](C)C#CC#N	
InChI=1S/C7H9NO/c1-3-9-7(2)5-4-6-8/h7H,3H2,1-2H3	InChI=1S/C7H9NO/c1-3-9-7(2)5-4-6-8/h7H,3H2,1-2H3/t7-/m0/s1
