21
gdb 105634	1.98154	1.38271	1.19608	1.8775	84.65	-0.2486	0.0264	0.275	1229.1518	0.17962	-387.045463	-387.03529	-387.034346	-387.080558	37.522	
C	 0.3852649243	 1.5794902777	 0.1218397463	-0.392804
C	 0.1429063636	 0.0754227909	-0.0318232118	-0.219934
C	 0.6898549742	-0.4792835805	-1.3542341136	 0.214719
O	 2.1407363152	-0.3187307702	-1.4101665381	-0.314534
C	 2.3584522614	-1.7403451591	-1.3105590812	-0.085355
C	 0.8551614522	-2.0393340299	-1.4627713166	-0.077886
C	 0.1735507135	-2.9651373826	-0.4685394878	-0.419942
C	 0.0325293583	 0.1327852212	-2.5049721673	 0.321799
C	-0.5295831636	 0.6084344129	-3.4558308417	-0.462963
H	 1.4520584993	 1.8013145812	 0.0312432707	 0.136751
H	-0.1466265419	 2.1467597233	-0.6471370984	 0.128623
H	 0.0430983814	 1.927262377	 1.1008567915	 0.108396
H	 0.6345828876	-0.4585071725	 0.788260005	 0.098094
H	-0.9281188495	-0.151683118	 0.0297707941	 0.102656
H	 3.0187263338	-2.1101608245	-2.102621795	 0.106589
H	 2.7816158318	-2.0201140733	-0.3355412203	 0.095003
H	 0.620278307	-2.3557957213	-2.4812835478	 0.095052
H	 0.4045979605	-2.7041967566	 0.5681030928	 0.121595
H	-0.9145503462	-2.9478859949	-0.589226177	 0.126188
H	 0.5044699915	-3.9968690685	-0.6299226008	 0.121
H	-1.0159756544	 1.0363910077	-4.297479693	 0.196951
54.2702	104.5072	147.4304	164.271	179.8777	214.4918	232.38	282.9069	343.8043	406.7985	453.3561	531.2846	551.2231	618.391	627.4749	661.9413	732.9724	790.4453	895.8684	920.7502	941.9461	952.1531	1005.1695	1021.2516	1042.9634	1108.2323	1136.8589	1150.553	1161.4928	1177.4944	1215.8376	1280.6423	1312.1691	1340.9543	1360.8001	1389.3339	1405.6049	1414.4907	1470.107	1494.9611	1495.7626	1499.8409	1509.7427	1526.3685	2227.6395	3001.2127	3032.2076	3037.3784	3045.5312	3057.8751	3075.4857	3083.2886	3097.5749	3114.5811	3115.9542	3125.8488	3500.3204
CCC1(OCC1C)C#C	CC[C@]1(OC[C@H]1C)C#C	
InChI=1S/C8H12O/c1-4-8(5-2)7(3)6-9-8/h1,7H,5-6H2,2-3H3	InChI=1S/C8H12O/c1-4-8(5-2)7(3)6-9-8/h1,7H,5-6H2,2-3H3/t7-,8-/m1/s1
