21
gdb 74651	3.65107	1.49743	1.37872	0.2852	87.24	-0.2176	0.0267	0.2443	1037.2486	0.186068	-349.956214	-349.949221	-349.948277	-349.987157	29.848	
C	-0.0366668989	 1.4904184106	 0.0659434239	-0.507914
C	 0.0699179777	 0.0055064009	-0.0494973147	 0.333047
C	 0.0220443693	-0.7654213067	-1.1462064892	-0.209041
C	 0.1150462928	-2.1977218378	-0.716100705	-0.037623
C	-1.0353306148	-2.7858676253	 0.2463799121	-0.036677
C	 0.1138744239	-3.4396068671	 1.0569471564	-0.239151
C	 0.880937581	-2.1669778495	 0.6393075921	-0.016135
C	 0.0711614724	-0.9312119214	 1.1519296578	-0.116287
C	-1.3654296637	-1.5894284935	 1.1490006365	-0.212123
H	 0.8223790761	 1.9105432806	 0.6047481604	 0.12359
H	-0.0891623846	 1.9687048643	-0.9162305857	 0.122176
H	-0.9299621445	 1.7840016991	 0.6331863354	 0.124748
H	-0.1017617418	-0.4240314783	-2.1674543228	 0.084655
H	 0.4554927651	-2.9315169136	-1.4474163488	 0.060226
H	-1.8644063512	-3.3659045763	-0.1581294476	 0.058381
H	-0.0584299843	-3.6368616939	 2.1194902889	 0.083465
H	 0.5243986917	-4.3311601922	 0.5751277586	 0.092288
H	 1.9688694307	-2.0844034129	 0.671063954	 0.057569
H	 0.3762363136	-0.4924907712	 2.1033489503	 0.052804
H	-2.1248425731	-0.9129067293	 0.7502912928	 0.091285
H	-1.6797220175	-1.9200211765	 2.1438560546	 0.090717
159.7924	185.7797	262.8385	381.9309	423.9618	466.9119	513.0351	568.9085	714.4214	723.5287	768.0597	814.9623	839.9919	845.9753	859.2738	886.4315	901.1381	936.7854	962.1809	975.9438	989.3642	1016.8789	1034.8139	1053.6341	1069.4309	1084.3972	1092.8092	1133.7821	1170.3113	1192.1619	1199.9434	1228.123	1245.0188	1264.4662	1269.4949	1300.2136	1314.6959	1323.8958	1341.7436	1412.0904	1478.2764	1487.3825	1488.6703	1511.9325	1687.4717	3012.0586	3045.8981	3051.4777	3056.1236	3091.3556	3099.6616	3101.4707	3104.3065	3105.6609	3108.8663	3120.469	3194.1944
CC1=CC2C3CC2C1C3	CC1=C[C@@H]2[C@H]3C[C@@H]2[C@@H]1C3	
InChI=1S/C9H12/c1-5-2-8-6-3-7(5)9(8)4-6/h2,6-9H,3-4H2,1H3	InChI=1S/C9H12/c1-5-2-8-6-3-7(5)9(8)4-6/h2,6-9H,3-4H2,1H3/t6-,7-,8-,9-/m1/s1
