16
gdb 45095	2.50194	2.11437	1.44278	4.169	68.21	-0.2487	0.0043	0.253	904.4395	0.126052	-437.876806	-437.869998	-437.869054	-437.907939	26.934	
O	-0.2401245372	 0.5361558323	 1.1295624678	-0.325226
C	-0.1276998745	 1.3079911547	 0.2113035523	 0.368351
C	-1.2906920802	 1.7527540705	-0.6756446274	-0.345129
C	-1.3502533197	 3.2686730566	-0.7005255962	 0.045364
O	-0.9287264222	 3.9077745499	 0.5166413216	-0.246244
C	-0.0886953385	 4.0261156198	-0.6314878552	 0.028589
C	 1.1902741365	 3.2428686384	-0.6101931417	-0.054203
C	 1.8251299074	 2.7966508048	 0.6752973621	-0.247431
N	 1.1030430978	 1.8610816519	-0.1712834957	-0.094274
H	-1.1603629341	 1.373335215	-1.6967974968	 0.132591
H	-2.2077953143	 1.3250781087	-0.264894739	 0.140995
H	-2.2232289939	 3.7231993661	-1.1668119041	 0.105342
H	-0.0331992828	 5.0255520403	-1.0608737353	 0.104609
H	 1.828712075	 3.4101674096	-1.476268363	 0.105245
H	 2.9013504904	 2.6620717753	 0.7252906352	 0.129638
H	 1.3370504803	 3.0940334361	 1.5986178255	 0.151782
119.6066	203.6251	258.1194	337.6234	414.9978	461.5433	529.9589	579.5739	655.2634	691.9361	740.3819	806.5031	870.4925	886.435	945.3731	953.6814	996.8678	999.9271	1043.894	1099.4555	1104.2287	1120.5805	1132.4869	1155.9321	1168.1672	1219.3717	1271.3508	1309.7213	1352.7531	1372.1541	1412.9393	1452.9766	1468.5063	1501.3132	1825.4758	3043.1529	3114.1123	3116.878	3120.0421	3124.1622	3132.5724	3216.3533
O=C1CC2OC2C2CN12	O=C1C[C@H]2O[C@H]2[C@H]2CN12	
InChI=1S/C6H7NO2/c8-5-1-4-6(9-4)3-2-7(3)5/h3-4,6H,1-2H2	InChI=1S/C6H7NO2/c8-5-1-4-6(9-4)3-2-7(3)5/h3-4,6H,1-2H2/t3-,4-,6+,7?/m1/s1
