19
gdb 102396	1.80353	1.4221	1.14129	3.1209	73.21	-0.247	0.0354	0.2823	1194.5706	0.156869	-460.107374	-460.097079	-460.096135	-460.142268	38.163	
O	 0.7193074862	 0.0942139284	 0.8243965219	-0.429537
C	-0.1314869338	 0.3367879486	-0.2748314035	-0.082087
C	-1.504044152	-0.3961945585	-0.1784770778	-0.013369
C	-1.2585045521	-1.9285984052	 0.0073090939	-0.091048
O	-2.3667861988	-2.6149634606	 0.5567492993	-0.426968
C	-2.3360497455	 0.1555718719	 0.9984885648	-0.130912
O	-1.687249735	-0.2135420364	 2.2255266729	-0.440914
C	-2.2565746255	-0.1247471324	-1.4013427895	 0.309984
C	-2.8578972068	 0.1248088598	-2.4121215462	-0.449341
H	 0.1851275537	 0.184857034	 1.6249064386	 0.28904
H	-0.3278838064	 1.4120987506	-0.4121610694	 0.0928
H	 0.3970796326	-0.0121397278	-1.1679801925	 0.116607
H	-1.0626125957	-2.3728861497	-0.9720289951	 0.118482
H	-0.3631899442	-2.0491207229	 0.6252533522	 0.116704
H	-2.3597556763	-2.4264745963	 1.5014846544	 0.288056
H	-2.4144021136	 1.2469831141	 0.9109888357	 0.110476
H	-3.3421598993	-0.2742692555	 0.9556432624	 0.12587
H	-2.1617638381	 0.195983248	 2.9555225262	 0.30059
H	-3.3913657795	 0.32692866	-3.3079196786	 0.195566
74.0951	122.1911	140.4229	147.6602	190.5977	243.8758	274.2106	327.3839	348.4023	367.1955	464.1214	472.0113	493.6841	527.9723	548.2096	590.8959	631.6135	648.2018	751.3372	868.8344	943.3259	964.6402	1033.8534	1068.2571	1086.1348	1122.4019	1137.4048	1148.1229	1220.3596	1271.0057	1279.4513	1300.0521	1375.3628	1399.384	1420.7671	1447.0739	1457.9436	1503.4265	1505.9586	1517.3107	2232.1291	2975.9461	3018.7468	3050.8985	3073.1851	3076.0367	3107.1453	3501.1954	3749.35	3808.7277	3828.9665
OCC(CO)(CO)C#C	OCC(CO)(CO)C#C	
InChI=1S/C6H10O3/c1-2-6(3-7,4-8)5-9/h1,7-9H,3-5H2	InChI=1S/C6H10O3/c1-2-6(3-7,4-8)5-9/h1,7-9H,3-5H2
