15
gdb 48646	2.59889	1.59626	1.29976	4.1476	66.79	-0.2561	-0.0441	0.212	993.8633	0.111646	-457.753111	-457.745524	-457.744579	-457.785548	28.019	
O	-0.0047823429	-0.0980970151	-0.0333347958	-0.235725
C	 0.0175039461	 1.1045597238	-0.0324555724	 0.059506
C	 1.2567216375	 1.9323943075	-0.0323416767	 0.206044
C	 1.4894286794	 2.984734899	 1.0853395092	-0.281499
C	 2.9498660688	 3.4029073432	 0.6989572505	-0.231325
C	 3.124320459	 2.4986289276	-0.5349637303	-0.035391
O	 2.5310375128	 1.2346025761	-0.0950002984	-0.306393
C	 1.7971041776	 2.7081128375	-1.2915040615	 0.397561
O	 1.4033580816	 3.0705617724	-2.3493363093	-0.290322
H	-0.9134868105	 1.7148363347	-0.0407448903	 0.089404
H	 0.7734064299	 3.8093449878	 1.0447127289	 0.125231
H	 1.4357118129	 2.5179837	 2.070634344	 0.133588
H	 3.0524083584	 4.4652679755	 0.4635874902	 0.123813
H	 3.6707843298	 3.1418912401	 1.475513908	 0.129612
H	 4.0924844097	 2.3994271197	-1.020827736	 0.115896
82.8769	149.9783	180.2654	224.8791	251.8895	392.5398	474.663	533.9245	602.7613	717.6539	735.9269	770.0475	845.6571	854.1275	898.5419	908.5268	949.0206	974.8367	1012.6478	1064.1823	1081.8895	1145.7814	1169.6754	1233.788	1258.494	1262.0668	1306.1895	1327.0297	1425.665	1478.3291	1495.8796	1825.6347	1930.5556	2882.0702	3069.5332	3077.6297	3118.0923	3134.4846	3159.2939
O=CC12CCC(O1)C2=O	O=C[C@@]12CC[C@@H](O1)C2=O	
InChI=1S/C6H6O3/c7-3-6-2-1-4(9-6)5(6)8/h3-4H,1-2H2	InChI=1S/C6H6O3/c7-3-6-2-1-4(9-6)5(6)8/h3-4H,1-2H2/t4-,6-/m1/s1
