15
gdb 43779	3.83113	1.32016	1.15632	2.9175	72.05	-0.2796	-0.0032	0.2763	1039.8696	0.114469	-416.808171	-416.801233	-416.800289	-416.839534	27.29	
N	-0.0240701877	 1.205317168	-0.0237245083	-0.567412
C	-0.0535832631	-0.0491705175	-0.0072625559	 0.466236
O	 1.0408728147	-0.907943162	-0.0236521559	-0.295887
C	 0.3842068076	-2.2083525885	 0.0089586305	 0.325713
C	-0.748693263	-2.0376596633	-1.038686138	-0.269495
C	-1.2261513005	-0.9960966615	 0.0337622607	-0.159352
C	-0.6953751685	-2.0107448286	 1.1069526791	-0.269484
C	 1.3488750923	-3.2867837992	-0.0014633938	 0.205798
N	 2.0761598523	-4.1838305881	-0.008054932	-0.328407
H	 0.9366802231	 1.551789009	-0.0519281267	 0.234767
H	-0.4506295958	-1.6755419956	-2.023415638	 0.137092
H	-1.4013104872	-2.90791071	-1.1080477	 0.133358
H	-2.2201789149	-0.5622182091	 0.0530274038	 0.116623
H	-1.3431937089	-2.8785811167	 1.2304342736	 0.133357
H	-0.3490089603	-1.6242378369	 2.0662797808	 0.137094
140.3813	149.3491	212.2345	407.2701	442.8333	499.4313	517.2228	555.1876	555.5957	652.4693	710.9199	806.2295	836.3772	882.4479	894.5691	930.2909	940.2629	971.7907	1000.5466	1025.2517	1076.9169	1085.1916	1149.0048	1157.2898	1213.0959	1224.4862	1256.5108	1286.6008	1315.5007	1476.7541	1511.91	1822.3205	2370.6878	3087.8086	3092.4525	3160.8033	3165.1448	3188.2027	3474.7911
N=C1OC2(CC1C2)C#N	[NH][C]1O[C@@]2(C[C@H]1C2)C#N	
InChI=1S/C6H6N2O/c7-3-6-1-4(2-6)5(8)9-6/h4,8H,1-2H2	InChI=1S/C6H6N2O/c7-3-6-1-4(2-6)5(8)9-6/h4,8H,1-2H2/t4-,6+
