16
gdb 73389	3.07366	1.68052	1.40334	3.6732	68.2	-0.2422	0.0015	0.2436	930.6574	0.125577	-437.870675	-437.863657	-437.862713	-437.901841	28.117	
O	-0.0297093075	 1.3092143917	 0.0206221257	-0.466491
C	-0.0043529415	-0.0710315365	-0.024806513	 0.417778
C	 1.0105279093	-0.8001314379	-0.9140329812	-0.324362
C	 0.257263922	-2.113926912	-1.2696903049	-0.179006
N	-0.8512712311	-2.195942946	-0.2783009517	-0.171995
C	-1.2873957799	-0.7986259254	-0.0215708814	-0.084355
C	-0.510618323	-0.7999825882	 1.2914629189	-0.303431
C	-0.2699968044	-2.2482188994	 1.065146059	 0.427176
O	 0.2268644224	-3.1688188364	 1.6425857343	-0.335789
H	 0.8005136194	 1.6206671966	 0.397942528	 0.295863
H	 1.2164000315	-0.1865487753	-1.7956626539	 0.117794
H	 1.9584495431	-0.9876812158	-0.400107988	 0.117844
H	-0.1685606863	-2.0691328203	-2.2751353259	 0.118277
H	 0.8723886324	-3.0115604138	-1.1896644436	 0.136093
H	-2.2818819949	-0.4375500138	-0.2420329556	 0.120295
H	-0.6600950914	-0.2271743875	 2.1978031335	 0.114308
139.5438	219.3449	252.8992	308.9906	377.4285	421.0211	511.2567	579.1581	609.4114	633.3199	754.0234	802.9602	821.3096	867.9095	872.3201	895.6432	925.9138	949.9341	983.8716	994.6702	1084.4295	1090.4625	1116.1021	1134.9269	1208.8099	1214.9473	1248.8431	1256.0675	1275.3919	1297.658	1349.3397	1446.6641	1489.4655	1502.6113	1899.8056	3052.4954	3071.187	3099.1425	3134.4122	3202.401	3224.3884	3801.449
OC12CCN3C1C2C3=O	O[C@]12CCN3[C@H]1[C@H]2C3=O	
InChI=1S/C6H7NO2/c8-5-3-4-6(3,9)1-2-7(4)5/h3-4,9H,1-2H2	InChI=1S/C6H7NO2/c8-5-3-4-6(3,9)1-2-7(4)5/h3-4,9H,1-2H2/t3-,4-,6-/m0/s1
