18
gdb 17681	3.34545	1.56747	1.37902	2.9467	67.73	-0.252	0.0806	0.3326	988.0932	0.151174	-384.903762	-384.895111	-384.894167	-384.9369	31.335	
C	-0.3314681438	 1.4581358221	 0.3873250843	-0.427615
C	-0.1596774093	-0.0315306955	 0.5393784708	 0.037432
O	 0.8873237364	-0.661555449	-0.2184403313	-0.304714
C	 0.9735989268	-0.6897804088	 1.2152476958	 0.341593
C	 2.1370145414	 0.0604250911	 1.8264994083	-0.469409
C	 0.7635043839	-2.0551969413	 1.8136895125	 0.017427
C	-0.1451904498	-2.2742175017	 2.9478193926	-0.177047
O	-0.499362451	-2.6847122138	 1.6262614857	-0.223183
H	 0.6199091924	 1.9918724382	 0.4225685233	 0.124398
H	-0.8074433112	 1.680672739	-0.5733990809	 0.133353
H	-0.9819901952	 1.8483266959	 1.1778408007	 0.120625
H	-1.0883634988	-0.6017496613	 0.5259256906	 0.107879
H	 2.3352902496	 0.9894351437	 1.2910404533	 0.13452
H	 1.9432154332	 0.2921834609	 2.8791909478	 0.122979
H	 3.0461449235	-0.5497382621	 1.7807324015	 0.127526
H	 1.6155863081	-2.7288905047	 1.7028958274	 0.101395
H	 0.0497576505	-3.0800942912	 3.6533806088	 0.119403
H	-0.7173853165	-1.4354144416	 3.3422404388	 0.11344
80.089	150.6679	152.1188	158.6617	205.4293	278.2758	292.7929	398.8144	471.285	508.2938	552.0816	668.147	776.5946	850.2107	886.4543	919.7638	946.5717	989.6656	1027.8185	1053.5521	1098.3571	1121.7161	1136.9298	1156.4321	1167.4053	1187.5974	1248.6124	1287.9061	1345.3164	1404.8104	1415.8061	1429.0637	1459.2241	1476.8316	1486.4134	1500.0836	1520.7923	1525.9498	3037.2195	3040.6664	3084.1992	3091.8132	3096.4191	3099.3123	3114.5967	3136.5924	3147.1376	3173.0644
CC1OC1(C)C1CO1	C[C@H]1O[C@]1(C)[C@H]1CO1	
InChI=1S/C6H10O2/c1-4-6(2,8-4)5-3-7-5/h4-5H,3H2,1-2H3	InChI=1S/C6H10O2/c1-4-6(2,8-4)5-3-7-5/h4-5H,3H2,1-2H3/t4-,5-,6+/m1/s1
