14
gdb 125774	5.89574	0.98265	0.8467	4.2061	68.05	-0.2627	-0.0371	0.2256	1290.5715	0.101082	-470.039103	-470.03102	-470.030075	-470.072542	28.181	
C	-0.0100993941	 1.5075536684	 0.0840378404	-0.488081
C	-0.0032392034	 0.0215221285	-0.0092227573	 0.370929
N	-0.0678883665	-0.601128883	-1.1567693366	-0.170257
O	-0.0337964413	-1.9715447173	-0.7900503053	-0.181939
C	 0.0471913235	-1.9780383739	 0.5346697424	 0.563416
N	 0.0996186704	-3.1629983717	 1.2271599699	-0.42121
C	 0.0796821515	-4.4558935103	 0.7217881176	 0.154013
O	 0.0112475663	-4.7537154314	-0.4387150622	-0.259022
N	 0.0712148282	-0.8019954693	 1.0934780007	-0.405258
H	 0.9032159897	 1.859989146	 0.5724635938	 0.150076
H	-0.0792037583	 1.9478860522	-0.9114555494	 0.153841
H	-0.8575555183	 1.8445068365	 0.688265417	 0.15004
H	 0.1597519277	-3.0430292632	 2.2281503752	 0.282682
H	 0.1364608348	-5.1872510015	 1.5497924338	 0.10077
52.5689	135.4413	150.3173	168.7932	267.7066	273.176	394.66	424.3035	595.6886	603.9296	676.0946	733.3187	770.7749	853.623	915.3848	1002.5329	1023.0903	1033.4367	1051.5245	1071.2036	1130.4465	1358.1507	1396.5363	1428.1016	1445.675	1472.2621	1474.9435	1477.3063	1589.8851	1651.201	1843.3385	2962.8625	3052.92	3113.6131	3153.5808	3621.3799
CC1=NOC(NC=O)=N1	Cc1noc(NC=O)n1	
InChI=1S/C4H5N3O2/c1-3-6-4(5-2-8)9-7-3/h2H,1H3,(H,5,6,7,8)	InChI=1S/C4H5N3O2/c1-3-6-4(5-2-8)9-7-3/h2H,1H3,(H,5,6,7,8)
