19
gdb 115965	3.12499	1.29023	1.05321	1.1758	70.4	-0.249	0.0736	0.3226	1159.998	0.160429	-460.138751	-460.130554	-460.12961	-460.171894	30.723	
O	-0.069565387	 1.3957514117	-0.1827408707	-0.42636
C	 0.0215663584	-0.0020720422	 0.0677931312	-0.098651
C	-1.3875844104	-0.5670742926	 0.000750937	-0.007621
C	-2.093549426	-0.3448736616	-1.3502923526	-0.099086
O	-3.1142765055	-1.3444915867	-1.4174559043	-0.264287
C	-2.6363984785	-2.5032507783	-0.7761773416	 0.063823
C	-1.5571119609	-3.317044364	-1.5259621292	-0.105546
O	-0.514816527	-2.8101155921	-0.6605524206	-0.298412
C	-1.4698603138	-2.0865282271	 0.1546954211	 0.058612
H	 0.8227249566	 1.7515635832	-0.2249604553	 0.288554
H	 0.6467922092	-0.5084925898	-0.6801770881	 0.107757
H	 0.460012267	-0.201923901	 1.0583316863	 0.088092
H	-1.9951229499	-0.1154067685	 0.7946399393	 0.088348
H	-2.5738597792	 0.6298609536	-1.4404487964	 0.124958
H	-1.3788871669	-0.4576624828	-2.1791751171	 0.098944
H	-3.4877060804	-3.0582994297	-0.380299337	 0.091253
H	-1.6540386634	-4.4067636005	-1.445726723	 0.102286
H	-1.4092272648	-3.0377794313	-2.5753469906	 0.11044
H	-1.4580064175	-2.4366534901	 1.1914138316	 0.076895
85.7294	113.5542	165.1896	196.7449	267.3862	292.7834	396.1113	425.0231	498.8742	649.8338	674.6868	806.5112	852.7968	873.9895	898.8634	932.9758	960.0425	999.4176	1019.5354	1039.8612	1058.2906	1075.0375	1097.4481	1139.2837	1150.148	1173.426	1220.6498	1229.057	1240.821	1252.9646	1266.8573	1313.7922	1319.8628	1332.5173	1354.0659	1375.0735	1401.8953	1455.365	1508.0133	1516.7377	1527.4781	2975.4954	2996.2677	3019.1068	3025.0457	3044.1357	3064.0337	3071.4651	3108.7366	3126.1397	3831.2026
OCC1COC2COC12	OC[C@H]1CO[C@H]2CO[C@@H]12	
InChI=1S/C6H10O3/c7-1-4-2-8-5-3-9-6(4)5/h4-7H,1-3H2	InChI=1S/C6H10O3/c7-1-4-2-8-5-3-9-6(4)5/h4-7H,1-3H2/t4-,5-,6-/m0/s1
