21
gdb 107700	3.3597	1.25408	1.08499	1.7951	82.92	-0.2269	0.0817	0.3086	1219.8729	0.180996	-387.012734	-387.003949	-387.003005	-387.045922	34.043	
C	 0.0040827562	 1.541168024	-0.0678857553	-0.379556
C	-0.0202178134	 0.0169538221	 0.1010342989	-0.320022
C	 0.6805500174	-0.4569468552	 1.3447585301	 0.326117
C	 0.3957452059	-0.1646501025	 2.8392848833	-0.368867
C	 1.6218938383	-1.1051168612	 2.9117888251	 0.303493
C	 2.3795641949	-1.6310221881	 4.0962136224	-0.523624
C	 1.1413903215	-1.9168176344	 1.6633688061	-0.007839
O	 2.409988417	-1.805587419	 0.9479899793	-0.334192
C	 2.2260074027	-0.5101570578	 1.5962340549	 0.009033
H	 1.0317744973	 1.915674015	-0.1224232969	 0.117498
H	-0.5098997301	 1.8431573161	-0.9852794943	 0.114705
H	-0.4887825377	 2.0427469852	 0.7715524997	 0.11831
H	-1.0598650586	-0.33586138	 0.1158654102	 0.098137
H	 0.4603167042	-0.4640892581	-0.7601432459	 0.113886
H	 0.5506925043	 0.8644611248	 3.1787136205	 0.094765
H	-0.5443441269	-0.5561125514	 3.2419806063	 0.092629
H	 1.7297545492	-2.2139597719	 4.7579557609	 0.119982
H	 3.1956074993	-2.2790277735	 3.7596649946	 0.134689
H	 2.8111595002	-0.8156244886	 4.6868863095	 0.119874
H	 0.5879606652	-2.8553932822	 1.6055480535	 0.085186
H	 2.9906682733	 0.2560449467	 1.4604178071	 0.085795
86.12	136.7746	180.2112	226.7329	240.1964	267.2873	290.5261	390.0499	430.8757	555.1255	589.9933	714.8405	721.2373	764.9164	788.8646	837.1264	860.1734	896.5098	902.617	962.1169	964.626	1010.4214	1035.6385	1062.3124	1070.9471	1091.0556	1135.0254	1154.5534	1160.1119	1164.1241	1177.6956	1223.1644	1279.6342	1308.8451	1319.0209	1357.6516	1395.161	1408.9434	1416.3907	1479.1257	1489.4786	1491.2111	1499.9405	1506.5166	1520.0615	3018.1385	3028.2973	3033.9985	3038.0173	3054.1119	3090.8602	3093.2286	3102.1168	3102.6995	3104.1322	3107.1396	3111.5749
CCC12CC3(C)C1OC23	CC[C@@]12C[C@@]3(C)[C@@H]1O[C@@H]23	
InChI=1S/C8H12O/c1-3-8-4-7(2)5(8)9-6(7)8/h5-6H,3-4H2,1-2H3	InChI=1S/C8H12O/c1-3-8-4-7(2)5(8)9-6(7)8/h5-6H,3-4H2,1-2H3/t5-,6+,7-,8+
