16
gdb 30044	2.51095	1.86717	1.07842	1.672	77.49	-0.1956	-0.0284	0.1673	1064.2929	0.126021	-434.140293	-434.131878	-434.130934	-434.174717	30.897	
C	-0.0160156444	 1.4367906331	 0.021783574	-0.359411
N	 0.0199487826	-0.0227110898	 0.0051195463	-0.125589
C	 0.0443492662	-0.696615565	-1.2041284039	-0.032542
C	 0.0638325091	-2.0489162705	-1.221617428	-0.080194
N	 0.0671520832	-2.8113511167	-0.0843736946	-0.349256
C	 0.0585792599	-2.1761835285	 1.0555422048	 0.289371
N	 0.0995175559	-2.8336185484	 2.2395436609	-0.539674
C	 0.0208076401	-0.6991577708	 1.2063791976	 0.399264
O	-0.0149624812	-0.1505238651	 2.3051895409	-0.430235
H	 0.8718023535	 1.8424515089	-0.4723745793	 0.140879
H	-0.9095003903	 1.7989983703	-0.4953826737	 0.140421
H	-0.037365829	 1.7559938509	 1.0621580415	 0.179163
H	 0.0433028733	-0.080615687	-2.0930456244	 0.119757
H	 0.0781665217	-2.5837493244	-2.1639401624	 0.109293
H	-0.0407063318	-3.8287362852	 2.24842396	 0.262876
H	-0.0620011989	-2.2837680119	 3.0676531905	 0.275877
13.2723	116.4194	189.5827	262.8939	296.6561	313.1587	367.76	486.2632	511.0853	548.217	556.9164	577.2689	594.8517	716.7471	761.4071	812.6136	883.8746	902.7766	1007.1073	1023.6409	1112.7116	1153.848	1172.0811	1270.3185	1309.3312	1369.983	1405.8876	1426.3035	1471.1513	1502.1409	1502.477	1553.5119	1638.0617	1658.8122	1733.6206	3044.7661	3106.2948	3176.8984	3195.6265	3226.5056	3601.5656	3742.3307
CN1C=CN=C(N)C1=O	Cn1ccnc(N)c1=O	
InChI=1S/C5H7N3O/c1-8-3-2-7-4(6)5(8)9/h2-3H,1H3,(H2,6,7)	InChI=1S/C5H7N3O/c1-8-3-2-7-4(6)5(8)9/h2-3H,1H3,(H2,6,7)
