14
gdb 15327	3.25123	1.30277	0.98956	2.1408	72.96	-0.2459	0.0094	0.2552	1162.1806	0.103668	-345.316772	-345.308049	-345.307105	-345.352048	29.841	
C	 0.1553274047	 1.5203765479	 0.0213123108	-0.502907
C	 0.0803706593	 0.0682788809	 0.0105136892	 0.153281
C	 0.005890077	-1.133509656	 0.0108829469	 0.072491
C	-0.0401779748	-2.5667891868	-0.013509084	-0.17335
O	-0.498858891	-3.2531341263	 1.1594822467	-0.229136
C	-1.3201010803	-3.3316029745	-0.0098533101	-0.158115
C	-2.6021831842	-2.6851823412	 0.0204665621	 0.347021
C	-3.6923547508	-2.1798578664	 0.0184504825	-0.411352
H	 1.1919778435	 1.866123236	-0.0532316392	 0.15295
H	-0.4031199282	 1.9518935316	-0.8165179569	 0.154054
H	-0.2668193299	 1.9261743825	 0.9469858479	 0.157877
H	 0.8054682082	-3.054750724	-0.4992370271	 0.115916
H	-1.3071954019	-4.3081234717	-0.4946918959	 0.119025
H	-4.6514015116	-1.7236285121	 0.0255488571	 0.202244
14.	68.0275	122.6412	177.497	214.038	307.5448	331.7862	432.8885	501.3486	554.6489	603.6264	629.9371	669.1243	735.3572	834.6764	878.669	973.3948	1050.0655	1053.0569	1072.2123	1120.1597	1182.8995	1275.837	1376.1249	1412.203	1419.4969	1474.7377	1475.9549	2243.1835	2373.2389	3029.562	3091.7364	3093.9211	3098.6607	3109.1309	3503.5472
CC#CC1OC1C#C	CC#C[C@H]1O[C@H]1C#C	
InChI=1S/C7H6O/c1-3-5-7-6(4-2)8-7/h2,6-7H,1H3	InChI=1S/C7H6O/c1-3-5-7-6(4-2)8-7/h2,6-7H,1H3/t6-,7+/m0/s1
