16
gdb 127584	3.33293	1.42676	1.01162	3.9859	76.42	-0.2477	-0.0729	0.1748	1144.4639	0.124337	-434.110021	-434.101573	-434.100628	-434.143586	30.148	
C	-0.0167556856	 1.4489100843	-0.0160111427	-0.312801
N	 0.0031271646	-0.0096898122	-0.012011422	-0.047311
N	 0.002815631	-0.6184862288	-1.1898569066	-0.163662
C	 0.0206860219	-1.9218603033	-1.1778476965	-0.051685
C	 0.0396548969	-2.6596677896	 0.0508881402	 0.312411
C	 0.0598582437	-4.161709591	 0.0148668166	-0.48233
N	 0.0398929904	-2.0570224119	 1.2059208527	-0.368721
C	 0.0214892349	-0.6697970534	 1.2447141565	 0.455804
O	 0.0201767954	-0.0079752703	 2.2594807613	-0.37751
H	 0.8656584942	 1.8331249818	 0.5012222138	 0.157646
H	-0.030032927	 1.7738046398	-1.0549621248	 0.147097
H	-0.9003380398	 1.8089626716	 0.5163495817	 0.157703
H	 0.0202916745	-2.4117690513	-2.1445189587	 0.126649
H	 0.942694985	-4.5220969817	-0.5251931648	 0.144602
H	 0.0708195658	-4.5571657151	 1.030413844	 0.157597
H	-0.8184959459	-4.5461744287	-0.5157760206	 0.144513
81.2249	90.8461	118.8107	188.4673	276.5594	297.4978	336.0763	439.635	489.5217	552.626	610.5558	660.0251	731.5221	784.0709	807.4325	874.2875	951.2907	1030.6048	1053.4632	1062.0318	1107.4963	1149.5763	1249.2467	1280.7319	1319.3437	1398.9069	1422.4198	1448.7007	1464.9067	1469.0548	1478.7381	1503.6545	1551.0835	1647.552	1796.4161	3037.8189	3060.752	3093.0338	3126.4842	3158.2053	3177.6796	3199.4761
CN1N=CC(C)=NC1=O	Cn1ncc(C)nc1=O	
InChI=1S/C5H7N3O/c1-4-3-6-8(2)5(9)7-4/h3H,1-2H3	InChI=1S/C5H7N3O/c1-4-3-6-8(2)5(9)7-4/h3H,1-2H3
