18
gdb 120119	3.12603	1.10877	0.99012	3.3607	74.43	-0.2517	0.0187	0.2704	1273.583	0.146319	-439.041175	-439.032536	-439.031592	-439.075408	31.618	
C	-0.3051851169	 1.4204452246	-0.0932300297	-0.386498
C	-0.4458817559	-0.0249556378	 0.3471380413	-0.03946
O	-1.2509667599	-0.7040584481	-0.6144826528	-0.24054
C	-1.4429181088	-2.0386277875	-0.3285558871	 0.112443
C	-2.3602454033	-2.5127030198	 0.7521092166	 0.019059
O	-3.4324476154	-1.560925638	 0.9403859408	-0.268589
C	-3.8686593564	-1.7845710857	-0.3686627243	 0.472106
N	-4.8940096471	-1.3816131954	-0.9594083105	-0.552088
C	-2.7459222125	-2.7124145372	-0.7137617257	-0.276135
H	 0.3028019739	 1.977719351	 0.6255112793	 0.117103
H	 0.1738393264	 1.4798867338	-1.0744566045	 0.129254
H	-1.2877839624	 1.8950619705	-0.161095282	 0.135385
H	 0.5407822287	-0.5100572797	 0.4180912579	 0.088462
H	-0.9219225121	-0.0921557652	 1.3356978765	 0.106872
H	-0.5696453204	-2.680934319	-0.475086771	 0.100416
H	-2.1639602203	-3.2082150404	 1.5571532806	 0.123541
H	-5.4521693783	-0.7715399874	-0.36023914	 0.232059
H	-2.8083763193	-3.5858201087	-1.3459313955	 0.12661
57.7782	77.738	108.956	195.3002	236.2717	281.8621	391.5519	421.7068	444.0177	682.8074	701.7269	713.4548	780.0591	822.4045	837.1656	868.0197	897.0413	914.7541	965.3597	993.0349	1014.5193	1045.7693	1052.9078	1070.0227	1105.6906	1149.1433	1183.9228	1193.5388	1223.6613	1285.562	1299.0186	1325.4979	1387.7856	1409.178	1453.2253	1483.1484	1499.0771	1524.3169	1840.1969	2977.0119	3022.553	3047.3231	3069.5629	3121.6691	3126.5402	3208.7773	3232.3705	3483.5202
CCOC1C2OC(=N)C12	CCO[C@H]1[C@H]2O[C]([NH])[C@@H]12	
InChI=1S/C6H9NO2/c1-2-8-4-3-5(4)9-6(3)7/h3-5,7H,2H2,1H3	InChI=1S/C6H9NO2/c1-2-8-4-3-5(4)9-6(3)7/h3-5,7H,2H2,1H3/t3-,4+,5-/m0/s1
