19
gdb 107825	3.35726	1.47924	1.29013	2.1922	73.46	-0.2146	0.0741	0.2887	1044.4924	0.159535	-422.981694	-422.974036	-422.973092	-423.013749	30.361	
C	-0.2162473237	 1.505361038	 0.120474	-0.390919
C	 0.1063443948	 0.0123842806	-0.0158442082	-0.285947
C	 0.8867531043	-0.5380119309	 1.1538285384	 0.403761
C	 2.2759639338	 0.0206923919	 1.4593814163	-0.098653
O	 2.7869047897	-0.8302927633	 2.4933284037	-0.268205
C	 1.9854312019	-1.9861477872	 2.5151045863	 0.080249
C	 0.4899637369	-1.7992193983	 2.7066534281	 0.055168
O	 0.1433242067	-0.4464358877	 2.4268926157	-0.334786
C	 1.0632226198	-2.0701240661	 1.3367624706	-0.272095
H	 0.6900193387	 2.1191982132	 0.1093786192	 0.119369
H	-0.8527724016	 1.8388566913	-0.7038303945	 0.115669
H	-0.7436097429	 1.6975217226	 1.0588885468	 0.143692
H	-0.8237993557	-0.5603089993	-0.0990908028	 0.112482
H	 0.6778419451	-0.1760385811	-0.9340225643	 0.102087
H	 2.9320372459	-0.0105292309	 0.5752186501	 0.089794
H	 2.2308101047	 1.0434439786	 1.8430742246	 0.118483
H	 2.4820045259	-2.8580118322	 2.92358125	 0.108626
H	-0.1544221712	-2.371800261	 3.3644909134	 0.103465
H	 0.946666167	-2.8549519281	 0.6013683967	 0.09776
90.7836	169.1515	207.89	251.5768	324.8711	373.7506	421.9634	550.6754	618.8889	693.8829	738.4988	772.7807	786.0539	803.0513	862.4053	865.0509	942.1615	969.4838	981.0667	987.5519	1035.5519	1037.1706	1045.454	1082.3598	1085.4437	1116.9839	1144.2053	1183.734	1207.8026	1232.1371	1259.2535	1285.5223	1326.6633	1370.9891	1376.4243	1409.4014	1414.5987	1476.6206	1498.6877	1501.9687	1509.0314	2981.4767	3028.2594	3043.3446	3069.473	3092.0102	3111.4186	3123.0854	3173.9747	3191.0293	3202.2501
CCC12COC3C(O1)C23	CC[C@@]12CO[C@H]3[C@@H](O1)[C@@H]23	
InChI=1S/C7H10O2/c1-2-7-3-8-5-4(7)6(5)9-7/h4-6H,2-3H2,1H3	InChI=1S/C7H10O2/c1-2-7-3-8-5-4(7)6(5)9-7/h4-6H,2-3H2,1H3/t4-,5+,6-,7-/m0/s1
