24
gdb 118668	1.93912	0.89152	0.65754	3.8051	88.08	-0.2358	0.034	0.2698	1822.8276	0.215962	-405.587677	-405.576358	-405.575414	-405.625621	39.547	
C	-0.0072167031	 1.545874728	 0.1101920479	-0.379364
C	 0.0007259883	 0.0151308782	 0.1062319199	-0.16798
C	-1.404406497	-0.5716554943	-0.0894480409	-0.174256
N	-1.4478912821	-2.0257764348	-0.0723777819	-0.026449
C	-1.4126711133	-2.7390281823	 1.2022035034	-0.164079
C	-2.8076264029	-2.9958229397	 1.7876934887	-0.171309
C	-2.7427849372	-3.7278148909	 3.1300716733	-0.379747
C	-1.5584267106	-2.7431859279	-1.2237581139	 0.14337
O	-1.6093499819	-3.9550840883	-1.2929312109	-0.352033
H	 1.0016173521	 1.9459833426	 0.2452753448	 0.12098
H	-0.3992176076	 1.9443002249	-0.8322216162	 0.118718
H	-0.6316915527	 1.9391393992	 0.9201393639	 0.117962
H	 0.6502488905	-0.3592868559	-0.6939242603	 0.107605
H	 0.4253898936	-0.3556586588	 1.0467558719	 0.10622
H	-2.0809021698	-0.1850589822	 0.6841599603	 0.109657
H	-1.8091195318	-0.2326359543	-1.0501704075	 0.115536
H	-0.9086439728	-3.693404951	 1.0273936368	 0.137429
H	-0.8047531681	-2.1608148162	 1.9068551981	 0.099618
H	-3.3368364384	-2.0418923399	 1.9078800732	 0.093114
H	-3.377591738	-3.5862849519	 1.0626459609	 0.125472
H	-3.7444154627	-3.9080777592	 3.5310565656	 0.117035
H	-2.2462463372	-4.6987403442	 3.0267209111	 0.124036
H	-2.1855471094	-3.1485312433	 3.8753203684	 0.111597
H	-1.5969461483	-2.0879701679	-2.1175876166	 0.066867
43.9756	64.0913	79.7999	89.9736	107.3068	221.8445	238.2929	240.6725	280.204	297.5386	317.3366	355.9513	415.8684	518.89	696.7687	745.721	751.9576	859.2417	878.766	892.3775	901.0232	934.337	1029.8172	1040.8143	1045.1639	1116.7573	1121.6538	1128.4233	1137.0842	1239.5345	1255.3444	1300.2766	1322.1109	1328.1682	1336.128	1346.0769	1402.6644	1409.1023	1415.7493	1417.7907	1432.7204	1454.8077	1470.5617	1488.4106	1489.9439	1493.3301	1501.7284	1502.5273	1507.3272	1510.0583	1787.1027	2924.6743	3015.9728	3026.8701	3030.6848	3031.1653	3034.8103	3043.9335	3054.278	3072.3877	3075.1163	3096.1265	3099.6449	3107.5132	3109.9886	3110.0367
CCCN(CCC)C=O	CCCN(CCC)C=O	
InChI=1S/C7H15NO/c1-3-5-8(7-9)6-4-2/h7H,3-6H2,1-2H3	InChI=1S/C7H15NO/c1-3-5-8(7-9)6-4-2/h7H,3-6H2,1-2H3
