13
gdb 5456	3.54161	1.97503	1.27798	0.9606	70.55	-0.2286	-0.028	0.2006	891.6342	0.095105	-361.471524	-361.464296	-361.463352	-361.50305	26.219	
C	-0.0006261683	 1.5199572669	 0.1435570538	-0.501965
C	 0.0194321521	 0.0366000336	 0.0224029509	 0.160296
C	-0.0007499042	-0.7348147488	-1.1076133369	 0.137004
O	 0.0316022626	-2.0576382338	-0.7085214867	-0.176398
C	 0.0692281416	-1.9950413936	 0.6342592739	 0.061678
N	 0.0644124481	-0.7998152453	 1.1295098871	-0.293901
C	-0.0447393136	-0.4393331178	-2.4775787611	 0.262211
C	-0.0826562892	-0.1605532663	-3.6490847408	-0.429009
H	 0.8903279977	 1.8772910296	 0.6704194633	 0.144741
H	-0.0360969372	 1.9887966034	-0.8421801794	 0.138082
H	-0.8710868117	 1.8493739504	 0.7205007146	 0.144741
H	 0.0992680185	-2.9357822655	 1.1621371103	 0.153492
H	-0.1158379263	 0.0818064675	-4.682522729	 0.199029
120.2226	141.1305	165.6319	267.6044	320.5357	457.3257	526.7785	535.4364	598.748	656.8405	694.2963	701.1512	718.8314	852.3494	957.5053	984.4031	1065.0892	1091.4933	1165.2018	1232.6048	1300.5851	1362.4396	1418.6589	1476.796	1483.4301	1543.9306	1631.8844	2230.9618	3040.6572	3096.4549	3133.106	3272.8398	3501.4203
CC1=C(OC=N1)C#C	Cc1c(ocn1)C#C	
InChI=1S/C6H5NO/c1-3-6-5(2)7-4-8-6/h1,4H,2H3	InChI=1S/C6H5NO/c1-3-6-5(2)7-4-8-6/h1,4H,2H3
