16
gdb 125715	2.99597	1.46788	0.99735	4.7099	77.44	-0.2479	-0.0853	0.1627	1153.082	0.122986	-434.056516	-434.048059	-434.047115	-434.090499	31.046	
C	-0.0373107122	 1.4640094737	-0.0403842629	-0.484134
C	-0.0104143394	-0.0361194827	 0.0171253481	 0.311855
N	-0.0356934083	-0.6512060348	-1.1130273732	-0.108741
O	-0.0116858486	-2.0320661306	-1.0852305027	-0.273637
C	 0.0383113358	-2.7559485002	 0.114448782	 0.444148
N	 0.0581807658	-4.0194904079	 0.0795386583	-0.50605
N	 0.0642979868	-2.0605928201	 1.3141229134	-0.299273
C	 0.0419503169	-0.7754946366	 1.2886508371	 0.272872
C	 0.0702975558	-0.0262170079	 2.5882723798	-0.488151
H	 0.8529334245	 1.8939395272	 0.4311366107	 0.143183
H	-0.0754338303	 1.787328755	-1.0815262965	 0.158508
H	-0.9100737688	 1.8644497756	 0.4865302397	 0.143184
H	 0.0331985086	-4.3465308133	-0.886759985	 0.232489
H	 0.1080896239	-0.7365530104	 3.4139419892	 0.162157
H	 0.941318184	 0.6370082341	 2.6390486406	 0.145798
H	-0.8174125145	 0.6076941891	 2.6943133614	 0.145791
22.2778	153.4821	199.2402	222.4375	291.8515	307.7786	338.7233	377.6736	482.3826	514.2263	572.3226	643.2307	689.8131	768.4556	769.8818	857.2021	866.22	961.3096	997.9152	1034.107	1036.5151	1073.3428	1103.1437	1214.2094	1291.0314	1350.2245	1403.8946	1417.1856	1461.9594	1473.0731	1478.1208	1488.2225	1616.4889	1703.0566	1736.2849	3036.2546	3041.0393	3090.4118	3096.5316	3147.56	3159.369	3496.155
CC1=NOC(=N)N=C1C	CC1=NOC(=N[C]1C)[NH]	
InChI=1S/C5H7N3O/c1-3-4(2)8-9-5(6)7-3/h6H,1-2H3	InChI=1S/C5H7N3O/c1-3-4(2)8-9-5(6)7-3/h6H,1-2H3
