16
gdb 62785	3.03107	1.33543	1.13825	3.8559	68.81	-0.2506	-0.0066	0.2441	1080.21	0.122454	-437.839858	-437.831468	-437.830524	-437.872608	31.621	
C	-0.0821951436	 1.576270892	-0.095076609	-0.468457
C	 0.0157661862	 0.0773235625	 0.0345321269	 0.366349
O	-1.1283596469	-0.6332202758	-0.3697955007	-0.460988
C	 1.2791437385	-0.7067886415	-0.1880946386	 0.013892
O	 2.4343689675	 0.0125772	 0.2758390463	-0.285061
C	 1.9525319388	-0.0760619078	 1.6417191799	-0.030968
C	 1.9623853136	 1.1986343665	 2.3675564508	 0.289047
N	 1.9757988638	 2.1846216121	 2.9698286814	-0.322198
C	 0.6327700718	-0.6918492508	 1.1887243756	-0.182242
H	 0.8643269138	 2.0660408432	 0.1363150927	 0.155264
H	-0.3454531274	 1.8370477351	-1.1276611481	 0.1097
H	-0.8580274864	 1.9735916379	 0.5651632298	 0.138619
H	-1.2720252848	-0.4503747989	-1.3054373817	 0.289498
H	 1.4236249329	-1.4918249883	-0.9206953795	 0.119761
H	 2.5624870967	-0.7950392626	 2.2022410474	 0.14077
H	 0.0779141957	-1.4505226738	 1.721451207	 0.127014
108.2762	133.0076	200.507	255.4344	261.4602	301.4173	355.7389	397.5459	435.874	500.8017	546.4793	601.6906	671.3078	755.05	837.3851	906.1919	929.864	969.1157	989.3856	1011.9656	1016.1099	1040.9646	1093.2794	1103.7695	1176.5865	1224.9328	1258.5301	1277.4003	1308.0302	1358.3311	1415.2438	1436.7986	1489.0714	1496.4832	2357.8475	3032.2926	3036.1147	3102.0983	3150.9184	3190.0416	3224.2711	3793.5373
CC1(O)C2OC(C#N)C12	C[C@@]1(O)[C@H]2O[C@@H](C#N)[C@@H]12	
InChI=1S/C6H7NO2/c1-6(8)4-3(2-7)9-5(4)6/h3-5,8H,1H3	InChI=1S/C6H7NO2/c1-6(8)4-3(2-7)9-5(4)6/h3-5,8H,1H3/t3-,4+,5-,6-/m0/s1
