18
gdb 53310	2.91941	0.75135	0.63424	3.3118	84.08	-0.2367	-0.0195	0.2172	1749.9044	0.144996	-401.905756	-401.895639	-401.894694	-401.943214	34.287	
C	 0.1306772058	 1.5115375388	 0.1946591264	-0.500345
C	 0.0634642217	 0.0613135237	 0.0932705219	 0.092583
C	 0.0116713909	-1.1401660416	 0.019746924	 0.131418
C	-0.0362202283	-2.5705751642	-0.1032643806	-0.26137
N	-0.5819618668	-3.3481705719	 1.0371269879	-0.321402
C	-1.3235944118	-3.3304948763	-0.2290428021	-0.023706
C	-2.6720214813	-2.6415441291	-0.2075331048	-0.288923
C	-3.7017114746	-3.4620418324	 0.5406928147	 0.158362
O	-4.788589282	-3.7568178662	 0.1130788647	-0.242904
H	 1.168537686	 1.8616933202	 0.1757483974	 0.152115
H	-0.398790335	 1.9952070503	-0.6335673347	 0.151093
H	-0.3208239467	 1.8627624082	 1.1288688069	 0.154241
H	 0.8104590659	-3.0083728135	-0.628558965	 0.110678
H	-0.060979474	-4.2153149876	 1.1377367125	 0.238789
H	-1.2766012362	-4.2243096044	-0.8493628853	 0.100622
H	-2.5605726441	-1.6827292364	 0.3147227506	 0.138322
H	-3.0363596049	-2.4459135356	-1.2200482296	 0.1207
H	-3.3703263646	-3.7847176219	 1.5526245652	 0.089727
31.242	48.2049	70.5382	91.6591	131.3451	197.8635	246.9472	325.2714	369.0386	433.0106	492.4048	526.9933	580.3834	726.0698	805.8643	822.3656	878.3844	924.3404	984.4964	1018.9462	1052.1737	1052.6854	1073.7785	1103.4076	1153.317	1182.4285	1213.1745	1254.8806	1271.1568	1294.2875	1404.6353	1414.1096	1422.2027	1451.0086	1451.278	1476.4585	1477.5601	1831.4116	2369.9485	2891.8082	3028.5637	3036.8484	3089.7047	3091.7327	3102.5246	3116.9976	3126.0841	3506.4463
CC#CC1NC1CC=O	CC#C[C@H]1N[C@H]1CC=O	
InChI=1S/C7H9NO/c1-2-3-6-7(8-6)4-5-9/h5-8H,4H2,1H3	InChI=1S/C7H9NO/c1-2-3-6-7(8-6)4-5-9/h5-8H,4H2,1H3/t6-,7+/m1/s1
