16
gdb 56429	3.04182	1.08618	0.91048	1.5341	71.86	-0.2439	-0.0702	0.1737	1282.5517	0.121226	-437.900991	-437.891084	-437.89014	-437.936257	35.3	
C	-0.0712919356	 1.4843193603	-0.0889534993	-0.404406
C	-0.0225280323	-0.0629034593	 0.0547194673	-0.284282
C	 0.718435258	-0.4763071764	 1.2375105071	 0.334341
C	 1.3427699683	-0.7978930504	 2.2117375057	-0.434484
C	-1.4554603951	-0.5915726558	 0.0614684132	 0.298288
O	-2.0739271628	-0.9065202292	 1.0482479994	-0.29914
C	-2.1218071385	-0.6817021968	-1.3369770039	 0.341401
N	-3.4020371294	-1.0991414281	-1.2598086388	-0.521337
O	-1.5180634481	-0.4001007172	-2.3557117257	-0.352737
H	 0.9476320163	 1.8752326308	-0.1257484895	 0.140018
H	-0.5872128576	 1.7581843556	-1.0113952136	 0.147576
H	-0.5834631134	 1.931873291	 0.7665482494	 0.137684
H	 0.4512712777	-0.4551324674	-0.8520143117	 0.145753
H	 1.8934346591	-1.0919344385	 3.0707147719	 0.197523
H	-3.7864529608	-1.3212975539	-0.3554994719	 0.282298
H	-3.9442967158	-1.2188516547	-2.0983728296	 0.271503
49.3268	68.5284	130.8893	181.0978	212.2574	225.6571	269.2378	336.9504	366.0597	410.0243	460.9389	523.3311	536.3122	620.739	633.2572	648.0694	664.5894	772.9871	819.548	867.6464	1029.1565	1033.0937	1059.8857	1097.1286	1132.4637	1287.2129	1333.0301	1375.5492	1398.0167	1495.3259	1498.9623	1587.3505	1797.6753	1814.1362	2245.2066	3053.6706	3059.3094	3135.6351	3145.1906	3504.8031	3595.3004	3736.5797
CC(C#C)C(=O)C(N)=O	C[C@@H](C#C)C(=O)C(=O)N	
InChI=1S/C6H7NO2/c1-3-4(2)5(8)6(7)9/h1,4H,2H3,(H2,7,9)	InChI=1S/C6H7NO2/c1-3-4(2)5(8)6(7)9/h1,4H,2H3,(H2,7,9)/t4-/m0/s1
