19
gdb 106173	2.7666	1.51163	1.35282	2.4457	73.7	-0.2142	0.0694	0.2836	1048.81	0.15969	-422.978705	-422.970911	-422.969967	-423.011266	30.18	
C	 0.0661926699	 1.5226354348	 0.2096671676	-0.37718
C	-0.0832694659	 0.0156107045	-0.0428009254	-0.322324
C	 0.674921027	-0.458674156	-1.248580037	 0.241278
C	 1.1091173474	-1.8010612594	-1.7934009298	-0.012139
O	 0.6393842892	-1.5499648464	-3.1178397943	-0.302501
C	 0.4271619024	-0.1498470431	-2.7529384064	 0.009603
C	 1.6660218464	 0.6098930109	-3.197991605	-0.077433
O	 2.7324413067	-0.0102554562	-2.4653306393	-0.267746
C	 2.1411427066	-0.7447982852	-1.4195131613	 0.031511
H	 1.1161058944	 1.7940824586	 0.3587872818	 0.125906
H	-0.3113841428	 2.1070996076	-0.6364721518	 0.11759
H	-0.4934498051	 1.8287001834	 1.0985061252	 0.116194
H	 0.2703983516	-0.5400322637	 0.8345447403	 0.104556
H	-1.1458145866	-0.2378833757	-0.1530889222	 0.105533
H	 1.0467519932	-2.8131083464	-1.4077494245	 0.103012
H	-0.539516813	 0.2310589497	-3.0869186206	 0.086039
H	 1.8596275848	 0.4889895887	-4.2678493054	 0.120188
H	 1.5986910044	 1.6827257883	-2.9566474843	 0.092392
H	 2.7945231494	-0.9027556744	-0.5690452875	 0.105522
70.4467	125.5486	199.8564	254.8696	304.3801	355.4529	407.4544	547.6952	596.9708	703.4471	759.3968	774.3117	801.4376	859.7621	895.1398	911.4626	930.5781	976.6386	994.1147	1000.7209	1025.7802	1032.2454	1042.423	1078.3701	1112.2845	1127.3039	1183.4282	1194.6244	1236.7566	1249.7331	1278.0786	1308.5068	1315.9045	1358.5438	1374.6626	1410.0541	1464.9478	1483.2376	1498.3208	1500.1356	1507.3141	2980.2354	3017.9314	3034.0022	3050.5116	3087.1086	3100.7872	3104.9865	3110.8193	3169.5736	3187.4792
CCC12C3OC1COC23	CC[C@@]12[C@H]3O[C@@H]1CO[C@@H]23	
InChI=1S/C7H10O2/c1-2-7-4-3-8-5(7)6(7)9-4/h4-6H,2-3H2,1H3	InChI=1S/C7H10O2/c1-2-7-4-3-8-5(7)6(7)9-4/h4-6H,2-3H2,1H3/t4-,5-,6+,7-/m1/s1
