21
gdb 108331	2.70492	1.4879	1.24155	1.7872	81.07	-0.2502	0.0718	0.3219	1117.3305	0.182275	-387.035095	-387.026794	-387.02585	-387.067777	32.796	
C	 0.0302151063	 1.5673780104	 0.0101829509	-0.383092
C	 0.0008583342	 0.0333153913	-0.0048984586	-0.287715
C	-1.403377872	-0.5367568297	 0.014242601	 0.352549
C	-2.277446395	-0.4025633501	 1.3025830682	-0.279312
C	-2.5272520791	-1.9433572132	 1.2993756196	-0.223543
C	-1.6755869813	-2.0824174054	 0.0048962143	-0.133573
C	-2.418025694	-1.9038191665	-1.3398855958	 0.016648
O	-3.4971536449	-0.9816124406	-1.1383545504	-0.240589
C	-2.182566664	-0.4496073151	-1.3308751687	-0.033134
H	 1.0584763062	 1.9413928351	 0.003457342	 0.113887
H	-0.4816427866	 1.9872111383	-0.8623344256	 0.116937
H	-0.4636170565	 1.9630475366	 0.9037351907	 0.122528
H	 0.5290349871	-0.33672711	-0.8946165427	 0.093648
H	 0.5543703483	-0.3525908526	 0.8608350377	 0.095819
H	-1.7064105345	-0.0509146839	 2.1666080228	 0.092611
H	-3.1726016705	 0.2119431452	 1.1950649371	 0.107995
H	-2.0898921536	-2.4610337823	 2.1561324707	 0.095253
H	-3.5710258764	-2.2444130131	 1.1976698149	 0.11037
H	-0.8495843076	-2.7952496453	-0.0144113128	 0.067717
H	-2.528227731	-2.6061468367	-2.1593973861	 0.099531
H	-2.059152875	 0.2631346478	-2.1407111993	 0.095464
97.456	155.7134	163.2176	214.263	281.9604	325.5082	332.9587	445.1278	552.7072	636.773	698.794	738.5021	781.2433	805.2323	822.5834	846.7584	879.6716	906.8051	943.577	958.7632	981.6462	995.5914	1010.5254	1032.1125	1053.3606	1101.4805	1117.5227	1126.1782	1195.0926	1214.7113	1227.1791	1239.1214	1247.5322	1264.6209	1296.5902	1306.3676	1333.362	1363.8418	1378.3498	1409.439	1459.9669	1477.7872	1486.0653	1499.3052	1505.4115	3008.7736	3034.0194	3042.5353	3057.225	3069.9291	3099.8399	3100.8052	3105.902	3115.7667	3132.8314	3156.0848	3174.8574
CCC12CCC1C1OC21	CC[C@]12CC[C@H]1[C@H]1O[C@@H]21	
InChI=1S/C8H12O/c1-2-8-4-3-5(8)6-7(8)9-6/h5-7H,2-4H2,1H3	InChI=1S/C8H12O/c1-2-8-4-3-5(8)6-7(8)9-6/h5-7H,2-4H2,1H3/t5-,6+,7+,8-/m0/s1
