15
gdb 52209	4.08772	0.78348	0.73509	2.5341	68.29	-0.267	-0.0134	0.2535	1488.2911	0.111811	-453.951657	-453.942738	-453.941793	-453.987492	30.4	
O	-0.2381876143	 1.0395481645	-0.9347450641	-0.318618
C	 0.0288419632	 1.4938875109	 0.1566837217	 0.157065
N	 1.241207463	 1.3830020996	 0.76902026	-0.271919
C	 2.3682978832	 0.7203832903	 0.1385744715	-0.212558
C	 3.3247223352	 1.7167634671	-0.4754625841	 0.070525
O	 4.1614449948	 2.4438597992	 0.4277801034	-0.234545
C	 4.7917188649	 1.5294504132	-0.4703686002	-0.100431
C	 5.4007178319	 0.3563974629	 0.1213053597	 0.304145
N	 5.899438432	-0.5815805525	 0.5765738493	-0.322111
H	-0.6996796611	 2.0450114367	 0.7818182841	 0.086495
H	 1.387932741	 1.8532372097	 1.6481414864	 0.262337
H	 2.8918591509	 0.0992988225	 0.8707066533	 0.139444
H	 1.9611213421	 0.0763273243	-0.6452226796	 0.162646
H	 2.9130870762	 2.321723088	-1.2834198157	 0.12964
H	 5.3832305272	 1.9870156037	-1.2609437457	 0.147885
23.7386	50.2065	102.7006	162.8352	232.9612	262.5397	309.7951	393.6448	475.942	537.483	581.5763	613.9443	742.0906	810.3374	834.7064	958.0018	977.2242	1010.5903	1034.8338	1062.337	1136.0079	1148.7335	1210.9366	1275.8089	1292.5535	1356.2125	1392.9971	1427.5175	1458.9209	1461.1673	1527.9408	1805.5249	2361.2528	2953.3113	3067.1803	3117.1676	3129.8088	3140.1299	3638.8431
O=CNCC1OC1C#N	O=CNC[C@H]1O[C@H]1C#N	
InChI=1S/C5H6N2O2/c6-1-4-5(9-4)2-7-3-8/h3-5H,2H2,(H,7,8)	InChI=1S/C5H6N2O2/c6-1-4-5(9-4)2-7-3-8/h3-5H,2H2,(H,7,8)/t4-,5+/m0/s1
