19
gdb 20059	5.24192	1.38809	1.16299	1.0414	77.83	-0.228	0.0259	0.254	1055.939	0.166992	-327.904195	-327.896821	-327.895876	-327.936145	28.287	
C	-0.1565494565	 1.34673544	-0.1827765401	-0.220298
C	 1.271786874	 0.9818739422	 0.0182574993	-0.225075
N	 0.2313084702	-0.0415795363	 0.0516678242	-0.066976
C	-0.097531535	-0.5867008229	 1.3707660235	 0.02865
C	-1.517781265	-1.2060746015	 1.3933402236	-0.225148
C	-1.4023467386	-2.498298014	 2.2405503286	-0.257086
C	 0.080971073	-2.7818159546	 2.2225470094	-0.064941
C	 0.783863624	-1.7554433811	 1.7502938199	-0.066324
H	-0.649003408	 1.8833308004	 0.6272531627	 0.107045
H	-0.5373419876	 1.5715720684	-1.1747508012	 0.114667
H	 1.9559983515	 0.9342625435	-0.8240136217	 0.115009
H	 1.7300164414	 1.2787345534	 0.9609109114	 0.107362
H	-0.0068413903	 0.2078410765	 2.1395796002	 0.052936
H	-2.276425057	-0.5146977602	 1.7682911409	 0.091902
H	-1.7770440516	-1.4597118369	 0.3612739195	 0.117394
H	-1.755369878	-2.3450480779	 3.2700850519	 0.104488
H	-1.9991149797	-3.3231269208	 1.8346468864	 0.103881
H	 0.5027247058	-3.7112605531	 2.5902888194	 0.091284
H	 1.8638954772	-1.710122915	 1.6654747923	 0.091228
88.7895	93.5414	192.2451	270.416	338.6117	442.8761	480.9997	595.9795	743.9155	773.3378	793.4498	845.1526	873.7136	899.3599	909.7994	929.3278	974.5805	989.5665	1020.5674	1048.2427	1056.0541	1092.3648	1109.5227	1117.6431	1131.927	1165.7588	1176.7921	1199.7429	1231.0705	1295.8838	1304.9525	1317.4291	1330.0951	1351.909	1392.5104	1483.0032	1489.1571	1499.8633	1515.8347	1690.4493	2877.1136	3009.4175	3050.25	3063.3995	3090.2694	3094.7326	3108.9067	3174.6477	3180.1421	3188.8525	3206.7402
C1CN1C1CCC=C1	C1CN1[C@H]1CCC=C1	
InChI=1S/C7H11N/c1-2-4-7(3-1)8-5-6-8/h1,3,7H,2,4-6H2	InChI=1S/C7H11N/c1-2-4-7(3-1)8-5-6-8/h1,3,7H,2,4-6H2/t7-/m1/s1
