21
gdb 104511	2.53051	1.14575	0.92209	4.1852	83.28	-0.2563	0.0242	0.2805	1352.8397	0.1814	-383.270463	-383.260242	-383.259298	-383.306262	36.986	
C	 1.6921003198	 0.1536648923	-1.1841666837	-0.387683
C	 1.8573449039	-1.1333702651	-0.3655435334	-0.240872
C	 1.6840564166	-0.9491458687	 1.1353990012	 0.319177
C	 2.8096645979	-0.1769909392	 1.8401070748	-0.425825
C	 2.7279830992	 1.2785259344	 1.6911249274	 0.275128
N	 2.6538514281	 2.4287821231	 1.6058989928	-0.314729
N	 0.3084643391	-0.7054584073	 1.5957502659	-0.35724
C	 0.9747879385	-1.9590930303	 1.984576087	-0.046034
C	 0.371997205	-3.2528861627	 1.4917712597	-0.40673
H	 2.4651605845	 0.8935843399	-0.9610319814	 0.133308
H	 1.7446032049	-0.0684791358	-2.2542254075	 0.111457
H	 0.7207902167	 0.6119607799	-0.9775169603	 0.138657
H	 1.1214082638	-1.863428051	-0.7109152229	 0.108431
H	 2.8442030584	-1.5774388213	-0.5530706465	 0.093247
H	 2.7946083741	-0.3913920676	 2.9146626603	 0.150358
H	 3.7860617105	-0.5103468878	 1.4697069261	 0.154861
H	 0.2825110763	-0.0352036278	 2.360216347	 0.235684
H	 1.337809302	-2.0181571426	 3.01152189	 0.079401
H	-0.0730524029	-3.1380909789	 0.5020077322	 0.135167
H	 1.1242963768	-4.0480239015	 1.4509968873	 0.118453
H	-0.4218453533	-3.5766834519	 2.173284694	 0.125785
35.6221	79.1759	124.7699	150.0476	211.7477	236.5423	247.5409	272.1861	368.7922	384.1159	401.4606	460.4603	507.1554	564.4566	726.6147	783.4583	820.5793	860.5294	906.3822	924.6724	965.4447	998.1199	1028.4757	1043.6399	1091.7902	1098.5874	1105.6965	1149.5043	1214.9015	1236.5949	1255.5684	1316.317	1337.8005	1345.9307	1398.5635	1409.5119	1414.6972	1455.1779	1461.6312	1479.1374	1491.3206	1501.1551	1503.1777	1509.2752	2357.9134	3022.6392	3038.8186	3040.8125	3046.3067	3079.4901	3090.3551	3092.8573	3098.0531	3114.7522	3127.5038	3138.6619	3498.8794
CCC1(CC#N)NC1C	CC[C@@]1(CC#N)N[C@H]1C	
InChI=1S/C7H12N2/c1-3-7(4-5-8)6(2)9-7/h6,9H,3-4H2,1-2H3	InChI=1S/C7H12N2/c1-3-7(4-5-8)6(2)9-7/h6,9H,3-4H2,1-2H3/t6-,7-/m0/s1
