20
gdb 103409	2.49517	1.37069	1.24835	3.0002	74.01	-0.24	0.0683	0.3083	1116.8539	0.170325	-440.231248	-440.222094	-440.22115	-440.264711	35.195	
C	-0.0598145514	 1.5798227715	-0.0381875434	-0.471618
C	-0.0120845216	 0.0571333148	-0.0216210541	 0.254218
C	-1.3905112874	-0.5689374388	 0.2060547221	-0.117131
O	-1.9207209485	-0.309717652	 1.4952508774	-0.419559
C	 0.7112813614	-0.6370115184	-1.1886708184	-0.098356
N	 2.1304171329	-0.2071385487	-1.1365759148	-0.368268
C	 1.660345813	-1.3233985327	-0.2730940104	-0.084566
C	 1.0667213944	-0.6110188213	 0.9490174178	 0.10363
O	 1.9368038058	 0.2276094212	 1.6539790015	-0.4372
H	 0.9071810249	 1.995568078	-0.3286870391	 0.132212
H	-0.8114835313	 1.9427539502	-0.7496871255	 0.106408
H	-0.2990341856	 1.9796051293	 0.953338309	 0.118611
H	-2.0825779698	-0.2354277884	-0.5855033949	 0.082865
H	-1.3194818342	-1.6604743833	 0.1330000356	 0.103253
H	-2.0259671851	 0.6421531215	 1.5880512487	 0.286931
H	 0.2791289095	-0.9916376541	-2.1177211524	 0.090329
H	 2.6117672301	-0.6155390296	-1.935836583	 0.234561
H	 2.1213041154	-2.3015816119	-0.3374621883	 0.094247
H	 0.5872634938	-1.2697399168	 1.6747452155	 0.09879
H	 2.4922622837	 0.6447200694	 0.9809486866	 0.290643
101.3191	126.65	177.4332	202.724	243.8836	265.807	304.2425	339.8166	391.9851	454.8648	532.0269	560.9439	621.7755	669.8266	767.6407	825.8161	843.2045	878.9674	921.6012	946.5975	959.2642	963.6078	1023.4416	1073.7272	1085.4116	1103.9616	1130.1176	1147.4592	1151.1974	1200.1488	1217.0167	1258.5551	1311.7537	1314.0917	1323.1995	1373.2862	1377.2893	1408.0342	1425.241	1451.8923	1486.2231	1499.1124	1510.7983	2961.2837	3026.1191	3056.8943	3088.3178	3106.4093	3123.6154	3173.2387	3190.5476	3490.1163	3750.8826	3824.7976
CC1(CO)C2NC2C1O	C[C@@]1(CO)[C@H]2N[C@H]2[C@H]1O	
InChI=1S/C6H11NO2/c1-6(2-8)4-3(7-4)5(6)9/h3-5,7-9H,2H2,1H3	InChI=1S/C6H11NO2/c1-6(2-8)4-3(7-4)5(6)9/h3-5,7-9H,2H2,1H3/t3-,4+,5-,6-/m1/s1
