17
gdb 33022	5.15311	0.92588	0.79268	2.6974	77.24	-0.2492	-0.0355	0.2137	1410.2499	0.137417	-418.048872	-418.040631	-418.039687	-418.082761	29.165	
C	 0.005839837	 1.4215149184	-0.0289588739	-0.227905
O	-0.0061411116	 0.0133584715	 0.0153182356	-0.234738
C	 0.6273837811	-0.5744355547	-1.0915745261	-0.133964
C	 0.5796642582	-2.0768980377	-0.9806010483	 0.282972
N	 1.1570075086	-2.7506203939	-1.9829946935	-0.302314
C	 1.122455555	-4.0788898512	-1.8987803199	 0.065891
N	 0.577367543	-4.8145290422	-0.9279321137	-0.25106
C	 0.0071717733	-4.1218699242	 0.0615773051	 0.018746
C	-0.0223972671	-2.7331290324	 0.0888280099	-0.16668
H	 1.032533317	 1.8190844621	-0.037836268	 0.110909
H	-0.5191575748	 1.8046689019	-0.9176776703	 0.110898
H	-0.5056352169	 1.7795522016	 0.8671611094	 0.132279
H	 0.1455077337	-0.2738922151	-2.0374801394	 0.116634
H	 1.6817204902	-0.2583255743	-1.1666503266	 0.116651
H	 1.5918787828	-4.6257376963	-2.7136193417	 0.117624
H	-0.4431147087	-4.7038463848	 0.8630629964	 0.117973
H	-0.4854857208	-2.1778111588	 0.892670325	 0.126084
55.2117	73.4529	150.3466	196.2218	224.8506	340.8195	378.0443	409.4129	504.4319	622.5111	691.6345	771.434	850.3032	865.4247	992.5835	1004.9963	1014.9022	1024.9347	1042.0431	1094.0485	1165.1354	1185.5662	1191.9194	1227.9155	1239.8231	1246.4386	1286.2429	1327.9246	1405.542	1422.1415	1476.106	1485.1733	1492.3725	1504.4286	1518.3711	1600.3758	1622.248	2958.9127	2977.5017	2983.4354	3022.6752	3121.5058	3153.2299	3161.3825	3235.3275
COCC1=NC=NC=C1	COCc1ncncc1	
InChI=1S/C6H8N2O/c1-9-4-6-2-3-7-5-8-6/h2-3,5H,4H2,1H3	InChI=1S/C6H8N2O/c1-9-4-6-2-3-7-5-8-6/h2-3,5H,4H2,1H3
