16
gdb 18989	3.89531	2.20836	2.08781	3.154	62.65	-0.2364	0.0451	0.2814	725.1354	0.132203	-383.661123	-383.655083	-383.654139	-383.691825	23.552	
C	 0.2269153329	 1.5867685195	-0.0477929058	-0.088534
O	 1.51405555	 1.4036828564	 0.5917440288	-0.276998
C	 1.30926515	-0.0104624099	 0.7029575165	 0.10151
C	-0.0385822853	 0.0694507816	-0.0659370422	-0.100872
C	 0.5660689729	-0.7907103752	-1.2229506891	-0.100869
C	 1.4082499397	-0.0937834742	-2.3083476865	-0.088535
O	 2.5985086757	-0.13900231	-1.4834259317	-0.276998
C	 1.9168434689	-0.8747568774	-0.459649392	 0.101505
H	-0.4594385932	 2.1449806043	 0.6015119181	 0.103395
H	 0.3066560212	 2.1089771496	-1.0072403466	 0.107285
H	 1.4379002675	-0.3845649967	 1.72344302	 0.072674
H	-0.9884028327	-0.278149705	 0.3376812039	 0.081542
H	-0.0164727132	-1.6607931618	-1.5221058982	 0.081542
H	 1.536522471	-0.6944022853	-3.2177884339	 0.103395
H	 1.1370964072	 0.9275296143	-2.5964380122	 0.107284
H	 2.4320026872	-1.7986589102	-0.178746839	 0.072675
47.8995	254.7355	312.3178	432.2411	550.9616	671.9474	717.2634	781.222	800.9187	858.0346	886.0774	926.0067	937.041	956.9099	999.9534	1016.4501	1038.1384	1045.6544	1099.5733	1105.7236	1141.0807	1153.3383	1166.7415	1186.5508	1220.3347	1228.2315	1285.5176	1296.6811	1299.3057	1326.9398	1359.107	1363.2688	1507.9768	1534.9953	3014.7958	3018.794	3050.6603	3061.1331	3064.693	3070.9978	3113.615	3126.5926
C1OC2C1C1COC21	C1O[C@H]2[C@@H]1[C@H]1CO[C@@H]21	
InChI=1S/C6H8O2/c1-3-4-2-8-6(4)5(3)7-1/h3-6H,1-2H2	InChI=1S/C6H8O2/c1-3-4-2-8-6(4)5(3)7-1/h3-6H,1-2H2/t3-,4+,5-,6+
