23
gdb 101946	2.27121	1.25563	0.90375	1.1898	86.39	-0.2463	0.0901	0.3364	1386.7051	0.204894	-388.251601	-388.241776	-388.240832	-388.286651	36.622	
C	 0.8798151279	 1.1333831547	 0.6367735769	-0.234076
O	 0.0102981302	 0.5796590132	-0.3228225575	-0.248589
C	 0.5986954117	-0.3595996751	-1.211241598	 0.075964
C	 0.9550830576	-1.6665068614	-0.5244855425	 0.023562
C	 1.9474308842	-2.5996744236	-1.1732053873	-0.272107
C	 2.3117852621	-1.8851472283	 0.1011655358	-0.279878
C	-0.3846356145	-0.5849805463	-2.3473443138	 0.012589
C	-1.8718798818	-0.5788364473	-2.0996966634	-0.256637
C	-1.2282145579	 0.5385365058	-2.8860879962	-0.279481
H	 1.2029536666	 0.3973909779	 1.3843863713	 0.115801
H	 1.7774617212	 1.5673136496	 0.1682380962	 0.099175
H	 0.3294385248	 1.9309294269	 1.1430981147	 0.122631
H	 1.5282540387	 0.0741467641	-1.6270993503	 0.055686
H	 0.1089173151	-2.1335420893	-0.0279963037	 0.089753
H	 1.7519871635	-3.6652921171	-1.1360256037	 0.113173
H	 2.4275806406	-2.2702689621	-2.0896372866	 0.111147
H	 3.0386764053	-1.0819050596	 0.0348008209	 0.110277
H	 2.3684535757	-2.4590300938	 1.0196623201	 0.112086
H	-0.0209779098	-1.3083642576	-3.0707947018	 0.082758
H	-2.4831245924	-1.3020726616	-2.6282490329	 0.101591
H	-2.2078430827	-0.3421502055	-1.0974703294	 0.123601
H	-1.1443477691	 1.4991121184	-2.3922507471	 0.119311
H	-1.3966538769	 0.5853176879	-3.9565173816	 0.101662
81.517	88.3572	97.6983	160.0851	188.4286	204.4551	270.0903	302.9671	351.346	423.4982	481.4341	584.1319	768.5135	788.9107	804.4154	821.4495	845.8585	870.5604	922.5715	940.5705	955.6487	981.2287	1037.9883	1058.551	1062.9824	1082.8888	1084.0791	1130.9351	1136.9513	1141.4867	1157.3665	1175.1498	1185.1499	1199.2838	1203.9897	1220.59	1227.6047	1235.2674	1310.433	1360.0909	1398.0968	1420.496	1457.3627	1469.8347	1477.1321	1486.8544	1500.233	1504.899	1514.1193	2916.1439	2978.2056	3043.041	3107.0854	3126.6239	3130.7528	3136.5847	3139.8399	3148.7177	3154.9245	3204.6246	3219.7934	3222.2497	3235.8898
COC(C1CC1)C1CC1	COC(C1CC1)C1CC1	
InChI=1S/C8H14O/c1-9-8(6-2-3-6)7-4-5-7/h6-8H,2-5H2,1H3	InChI=1S/C8H14O/c1-9-8(6-2-3-6)7-4-5-7/h6-8H,2-5H2,1H3
