17
gdb 124610	2.72379	1.35857	1.13067	2.79	69.74	-0.2406	-0.0022	0.2385	1134.8226	0.135873	-455.192749	-455.184157	-455.183213	-455.226684	31.058	
C	-0.1088996872	 1.5443216764	-0.0450349048	-0.386699
C	-0.0289543063	 0.0149642532	-0.0513985771	 0.030514
C	-1.4077513732	-0.6472735527	 0.024465339	-0.386704
N	 0.7031725673	-0.4562412396	-1.2258712689	-0.09751
N	 0.249772616	-0.2285411166	-2.510376518	-0.229325
C	 1.1426220547	-0.7814944183	-3.2460740468	 0.099821
O	 2.1598409616	-1.3630262443	-2.5715099716	-0.203058
C	 1.879856678	-1.1535049835	-1.2112672724	 0.493692
O	 2.5674537749	-1.5326751722	-0.3056149227	-0.402444
H	 0.8899200004	 1.9886555997	-0.0686349072	 0.12765
H	-0.6687942427	 1.9036101499	-0.9131350189	 0.139416
H	-0.6175492266	 1.8883259265	 0.8599714985	 0.12355
H	 0.5869817378	-0.3234704455	 0.7873019551	 0.129966
H	-2.0157132837	-0.3695768485	-0.8412558107	 0.139424
H	-1.3178615597	-1.7367235708	 0.049801862	 0.127657
H	-1.9287032974	-0.3234545152	 0.9299151426	 0.123547
H	 1.1514091759	-0.8211803685	-4.3231791382	 0.170504
44.3217	99.1999	184.6003	216.1404	251.9926	253.6857	299.0001	429.1294	429.4446	587.3444	630.429	650.1587	746.322	776.7761	837.9846	874.998	937.1223	948.3932	951.8696	977.5059	1057.4522	1149.0522	1150.8242	1198.9742	1243.7302	1298.8996	1353.3174	1361.8787	1399.6381	1414.4936	1421.0378	1483.0946	1489.6345	1497.6092	1512.0415	1638.3953	1895.5686	3043.8189	3047.7386	3077.456	3118.7819	3123.1283	3123.3691	3129.2706	3285.8937
CC(C)N1N=COC1=O	CC(C)n1ncoc1=O	
InChI=1S/C5H8N2O2/c1-4(2)7-5(8)9-3-6-7/h3-4H,1-2H3	InChI=1S/C5H8N2O2/c1-4(2)7-5(8)9-3-6-7/h3-4H,1-2H3
