25
gdb 102652	2.75869	0.87126	0.74203	0.9186	89.73	-0.2405	0.0843	0.3247	1676.6089	0.227019	-389.473986	-389.462885	-389.461941	-389.51123	39.945	
C	-0.4664009371	 1.1187366573	 0.3936582963	-0.391211
C	-0.2741861174	-0.3477882198	 0.0021052215	-0.167641
C	 0.572901068	-0.5405258507	-1.2605210624	 0.129677
C	 0.7760819333	-2.0252563237	-1.5918989334	-0.215331
C	 1.6117865451	-2.2652939029	-2.8306461982	 0.03262
C	 3.1197452083	-2.2725870208	-2.7495267931	-0.26101
C	 2.3673133946	-3.5565229002	-3.0055113384	-0.279271
O	-0.0826976866	 0.0980767466	-2.3610738527	-0.254857
C	 0.6658279622	 1.103876368	-3.005283826	-0.236821
H	 0.4920783849	 1.602768672	 0.613963101	 0.107119
H	-0.9470995179	 1.6721255422	-0.4176670232	 0.12891
H	-1.09579592	 1.2107599909	 1.2841012816	 0.109644
H	 0.1969782475	-0.8990466936	 0.8256215444	 0.089332
H	-1.2519545392	-0.8152542685	-0.1696905276	 0.101779
H	 1.5578391728	-0.0731232935	-1.1068055065	 0.065303
H	 1.2454408382	-2.5176699154	-0.7301162956	 0.085774
H	-0.2125048672	-2.4861417139	-1.7184069854	 0.101081
H	 1.1858554913	-1.8402529284	-3.7342581174	 0.092423
H	 3.6890018329	-1.8376875973	-3.5638526691	 0.107822
H	 3.5759558327	-2.1418738817	-1.7730391725	 0.105793
H	 2.3209366371	-4.2836420992	-2.2008457662	 0.107472
H	 2.4205633272	-3.9962722699	-3.995463696	 0.109195
H	 0.9146091014	 1.9342153589	-2.327484372	 0.103638
H	 1.6022224692	 0.7157462599	-3.4321599737	 0.107157
H	 0.0469185989	 1.4938794034	-3.8186065656	 0.121402
42.3583	68.3199	82.3756	123.0856	128.306	177.5561	238.1837	245.4882	308.226	323.5952	348.1331	398.9151	488.43	543.588	762.5254	776.1863	799.8602	830.934	849.2218	894.2773	942.567	951.5259	988.5316	1023.2252	1047.1418	1060.019	1077.3694	1119.8975	1130.4198	1148.4409	1161.6215	1168.7519	1182.8458	1200.7084	1221.6012	1227.633	1262.5984	1284.038	1311.2711	1353.0549	1386.4961	1400.2501	1407.4822	1416.3166	1464.9403	1471.7256	1479.0606	1484.1169	1489.0126	1499.3329	1507.5841	1508.32	1515.1564	2974.8992	2987.9652	3012.7195	3025.0646	3027.824	3033.2454	3051.8111	3064.3927	3097.8192	3101.8288	3118.183	3124.9051	3130.0994	3156.3376	3202.1545	3217.989
CCC(CC1CC1)OC	CC[C@@H](CC1CC1)OC	
InChI=1S/C8H16O/c1-3-8(9-2)6-7-4-5-7/h7-8H,3-6H2,1-2H3	InChI=1S/C8H16O/c1-3-8(9-2)6-7-4-5-7/h7-8H,3-6H2,1-2H3/t8-/m0/s1
