21
gdb 115515	2.6622	1.08497	1.01215	3.6042	75.11	-0.2402	0.0752	0.3155	1314.9697	0.182322	-461.352466	-461.34295	-461.342006	-461.387455	34.606	
C	 0.1005715399	 0.6946319097	 0.5804423291	-0.239651
O	-0.0460943705	-0.5209583715	-0.1177434307	-0.241858
C	 0.7107658408	-0.6037122042	-1.3136978138	 0.115543
C	 2.1890751322	-0.9334808313	-1.067559786	-0.08956
O	 2.2664987191	-2.3441018328	-0.9148463061	-0.28867
C	 1.1087517696	-2.9797440698	-1.4947792238	 0.114376
C	 0.4287664562	-3.7821107526	-0.3856585819	-0.065609
O	 1.3438088145	-4.6658125556	 0.2308156486	-0.427976
C	 0.2467322101	-1.848197088	-2.0804818535	-0.289131
H	 1.1268757487	 0.8548628838	 0.9421242319	 0.108268
H	-0.1809549118	 1.555229217	-0.0465590443	 0.106596
H	-0.5676580644	 0.6519587346	 1.4435386486	 0.133279
H	 0.5907391605	 0.3220522908	-1.8953897852	 0.066797
H	 2.7976252738	-0.6031138986	-1.9243471557	 0.091502
H	 2.5891520492	-0.4609891964	-0.1650524402	 0.109561
H	 1.4627897144	-3.6717503521	-2.2690315894	 0.078803
H	-0.0140918869	-3.0804102012	 0.3367525353	 0.101646
H	-0.3766346252	-4.3943788701	-0.8074853408	 0.097656
H	 2.1120895678	-4.1241860611	 0.4498531528	 0.288081
H	-0.8247022862	-2.0109759667	-1.944911867	 0.121667
H	 0.4444770383	-1.720391734	-3.1480143579	 0.108679
58.9997	87.6341	121.9179	136.2803	210.7287	225.3946	293.2967	370.6875	384.2089	457.3199	464.8171	487.2202	727.7176	776.9063	809.4334	849.796	859.4688	953.1986	979.1897	1004.732	1021.1016	1074.6004	1083.2687	1112.449	1123.2296	1151.4931	1182.9799	1196.4452	1211.7824	1231.8289	1258.1293	1273.485	1324.1256	1330.2278	1349.7042	1380.7041	1396.1738	1407.1975	1440.5488	1475.8277	1479.7106	1490.6009	1504.2425	1507.871	1513.9701	2976.0305	2976.9377	2999.5752	3002.1311	3026.1235	3026.201	3067.0201	3072.8796	3077.7311	3118.6306	3121.3231	3784.8048
COC1COC(CO)C1	CO[C@H]1CO[C@@H](CO)C1	
InChI=1S/C6H12O3/c1-8-6-2-5(3-7)9-4-6/h5-7H,2-4H2,1H3	InChI=1S/C6H12O3/c1-8-6-2-5(3-7)9-4-6/h5-7H,2-4H2,1H3/t5-,6-/m1/s1
