19
gdb 35722	2.20188	1.47199	0.96456	4.4461	79.79	-0.2494	0.0171	0.2666	1233.5896	0.160551	-382.042799	-382.034214	-382.03327	-382.076692	31.854	
N	-0.366379098	-0.7759536403	-1.0409364112	-0.334622
C	-0.18160965	 0.2338798762	-0.5099138246	 0.310803
C	 0.0453971667	 1.5232419427	 0.1450003754	-0.147948
N	 0.2133856074	 1.4691107104	 1.6108725412	-0.299218
C	 1.2817474931	 2.4938355108	 1.5569904143	-0.183861
C	 1.4665343394	 2.1877476541	 0.0434031522	-0.031118
C	 2.5993855322	 1.2568186452	-0.2884426788	 0.043652
C	 3.0673396203	 1.1043226468	-1.7134049244	-0.266868
C	 3.9351712829	 1.8205851814	-0.7096627328	-0.288814
H	-0.7342956694	 2.2181277992	-0.1994577073	 0.107301
H	-0.6126691923	 1.6978656945	 2.1522365246	 0.228301
H	 0.9395351372	 3.5217423184	 1.7395122451	 0.094993
H	 2.1365588943	 2.2824157403	 2.2067040457	 0.114596
H	 1.489548894	 3.0629877937	-0.6094489907	 0.080614
H	 2.6283759305	 0.3596321014	 0.3235346568	 0.106264
H	 3.3644457486	 0.1178401461	-2.0490708238	 0.125664
H	 2.5766669124	 1.7012637033	-2.4752486152	 0.112716
H	 4.0280144964	 2.8985216655	-0.797063972	 0.110368
H	 4.8331332942	 1.3271557	-0.3554777946	 0.117176
71.0839	88.1126	120.9298	196.5574	224.8398	304.0501	340.5507	422.1205	558.5046	568.3027	666.4467	751.7777	800.2084	822.4717	837.9456	915.2044	927.5245	951.9118	992.9611	1011.2549	1027.8568	1047.903	1061.8102	1080.9346	1093.7568	1140.7785	1141.8725	1170.4449	1197.2695	1222.7471	1241.3385	1256.438	1305.7146	1320.2904	1360.4355	1393.0702	1434.3025	1471.0165	1507.0616	1520.2984	2355.3542	2992.8428	3004.3956	3073.8757	3085.5086	3130.4121	3138.0637	3151.1692	3210.6109	3227.0424	3536.3654
N#CC1NCC1C1CC1	N#C[C@H]1NC[C@H]1C1CC1	
InChI=1S/C7H10N2/c8-3-7-6(4-9-7)5-1-2-5/h5-7,9H,1-2,4H2	InChI=1S/C7H10N2/c8-3-7-6(4-9-7)5-1-2-5/h5-7,9H,1-2,4H2/t6-,7+/m0/s1
