18
gdb 70666	2.47027	1.62209	1.18582	3.778	71.97	-0.2379	-0.0237	0.2142	1071.0498	0.146884	-439.072546	-439.064061	-439.063117	-439.105913	31.385	
C	 0.0760095291	 1.4550431036	-0.2546926477	-0.499415
C	 0.0995941859	-0.0351263416	-0.0599584855	 0.292336
N	-0.8609042826	-0.7194058027	 0.8388966172	-0.368066
C	 0.5869847557	-0.7593640822	 1.1363849763	-0.113993
C	 1.2301653241	-2.0416263879	 0.6595498311	-0.079212
O	 0.8215924482	-2.193173216	-0.7009693768	-0.279433
C	 0.4429093415	-0.9404722937	-1.2454030448	 0.014527
C	-0.7573270969	-1.1403037459	-2.1587088676	 0.147882
O	-1.1383206084	-0.2987219871	-2.9310552929	-0.256108
H	 1.0354338857	 1.8171738644	-0.6391650305	 0.130265
H	-0.6971178801	 1.7353560474	-0.9771082017	 0.154318
H	-0.1278771454	 1.969983457	 0.6895766775	 0.115742
H	-1.3050690035	-0.0210651423	 1.4317173277	 0.231652
H	 0.9809254421	-0.2381992995	 2.0026981841	 0.098716
H	 2.3256936892	-1.9672308365	 0.7381641412	 0.097011
H	 0.8958757876	-2.9302165097	 1.2038996487	 0.119654
H	 1.2567553398	-0.4802666748	-1.8278762208	 0.092491
H	-1.2672139019	-2.1172784725	-2.0285412154	 0.101633
70.3256	108.9332	183.8401	205.0888	233.1952	290.6142	344.5933	424.6118	466.4793	510.126	612.0426	685.4165	769.1762	839.5767	870.4504	916.0899	945.6868	980.0337	1004.2417	1045.0814	1066.8888	1090.4661	1098.8181	1105.4333	1126.2413	1168.199	1232.0202	1270.0768	1301.0688	1310.4113	1345.4248	1384.3445	1392.297	1418.3127	1449.0758	1482.5055	1502.304	1510.1403	1828.9393	2927.0144	2983.2557	2991.7403	3032.9743	3079.0027	3101.1123	3109.0009	3170.3152	3491.8242
CC12NC1COC2C=O	C[C@]12N[C@H]1CO[C@H]2C=O	
InChI=1S/C6H9NO2/c1-6-4(7-6)3-9-5(6)2-8/h2,4-5,7H,3H2,1H3	InChI=1S/C6H9NO2/c1-6-4(7-6)3-9-5(6)2-8/h2,4-5,7H,3H2,1H3/t4-,5-,6-/m0/s1
