17
gdb 99822	2.08782	1.32988	1.20378	4.4696	69.14	-0.2652	-0.0072	0.258	1157.9839	0.133379	-455.190767	-455.180495	-455.179551	-455.226249	36.541	
C	 0.0231864885	 1.5081870063	-0.1376539842	-0.428635
C	 0.0668946707	-0.0161760549	-0.0271422515	-0.184884
C	 0.7451717861	-0.5296754203	 1.2604020591	 0.121934
O	 2.1148581616	-0.1463245486	 1.3395531267	-0.464789
C	 0.0297384492	-0.0396119255	 2.4589206557	 0.269553
N	-0.4950730543	 0.3906404398	 3.3944945107	-0.337311
C	 0.6735916268	-2.089259305	 1.2810779825	 0.393968
N	 1.8284606891	-2.6894148918	 1.6386768945	-0.52364
O	-0.3590498652	-2.6586500755	 1.0006006072	-0.361394
H	 1.0293253955	 1.9422462412	-0.1494781594	 0.111386
H	-0.4645240589	 1.8044005356	-1.0700067914	 0.132825
H	-0.5362409078	 1.9556606394	 0.6898091997	 0.146323
H	-0.9366423186	-0.4465640227	-0.059065466	 0.149047
H	 0.6294702263	-0.4437050829	-0.8641071239	 0.117935
H	 2.1645102917	 0.7972928558	 1.5257265662	 0.303149
H	 2.6523492273	-2.1424104029	 1.8199708859	 0.283269
H	 1.860252122	-3.6948370279	 1.6667803783	 0.271265
38.8516	102.7394	140.0426	155.5718	197.1175	239.428	248.8966	318.4418	320.2625	354.6021	396.86	448.6943	473.7225	596.1988	607.0355	638.9816	679.1228	762.0937	789.11	942.5169	970.0933	999.7015	1092.0514	1099.1033	1145.1633	1176.9646	1290.96	1302.0974	1362.0101	1390.1175	1415.8854	1475.479	1500.6956	1508.8948	1597.7525	1816.3401	2349.8331	3035.7781	3056.3369	3096.6003	3119.4291	3124.4015	3605.3966	3744.8089	3820.2631
CCC(O)(C#N)C(N)=O	CC[C@@](O)(C#N)C(=O)N	
InChI=1S/C5H8N2O2/c1-2-5(9,3-6)4(7)8/h9H,2H2,1H3,(H2,7,8)	InChI=1S/C5H8N2O2/c1-2-5(9,3-6)4(7)8/h9H,2H2,1H3,(H2,7,8)/t5-/m1/s1
