25
gdb 122004	5.53889	0.49637	0.47208	0.3607	87.57	-0.2482	0.0705	0.3187	2424.396	0.225973	-426.623089	-426.61114	-426.610196	-426.661397	41.666	
C	-0.0166752717	 1.5975999958	 0.1002833265	-0.38191
C	-0.0023015815	 0.0679946406	 0.0462601063	-0.163807
C	-1.404985502	-0.5439258572	-0.0258750002	-0.182881
C	-1.4072006686	-2.0772847547	-0.0180283028	 0.114832
O	-0.7549033965	-2.5967605991	 1.144010371	-0.429743
C	-2.8181589731	-2.6552149203	-0.1710263533	-0.221279
C	-2.8364719461	-4.1769379499	-0.2313706897	-0.052436
O	-4.1784732073	-4.6027838533	-0.3436574548	-0.232618
C	-4.3040202984	-6.0021481493	-0.3942029366	-0.226522
H	 0.9983390016	 2.0040994881	 0.1498200266	 0.111946
H	-0.5026368104	 2.0238292527	-0.7847362999	 0.111834
H	-0.5620173698	 1.9588300357	 0.9796887725	 0.111053
H	 0.5778811064	-0.2636517619	-0.8251284043	 0.09327
H	 0.5137912757	-0.336102606	 0.9236267843	 0.107895
H	-2.0095635753	-0.1875971878	 0.8227195652	 0.081732
H	-1.9197643472	-0.1933971546	-0.9302923514	 0.094598
H	-0.7841380309	-2.4333422854	-0.8500142019	 0.085423
H	-1.2588669913	-2.3037860705	 1.9122811302	 0.276083
H	-3.4438189312	-2.3263605505	 0.6703042201	 0.094017
H	-3.2836197391	-2.2559380025	-1.0796540348	 0.105249
H	-2.2472954491	-4.5320171578	-1.0957017572	 0.08081
H	-2.3664645746	-4.5981005379	 0.6705821888	 0.095892
H	-5.3690412486	-6.2345741111	-0.4743225121	 0.123713
H	-3.7814118613	-6.4302035602	-1.2650460492	 0.101238
H	-3.9026691796	-6.483584893	 0.5122321169	 0.10161
50.1929	72.1745	77.8726	96.7718	112.2822	151.2101	195.0881	236.138	247.8929	281.1975	300.9337	325.9375	351.6124	449.6689	513.3463	572.1731	746.3188	799.5063	850.1399	899.2959	914.8404	987.4727	1004.4327	1042.7939	1050.5722	1080.3173	1104.2946	1125.957	1147.4445	1167.419	1180.8573	1222.8555	1228.3512	1245.5248	1276.7995	1294.8967	1311.5296	1323.5332	1360.9679	1375.2082	1399.1781	1413.1805	1417.4482	1427.208	1474.6129	1482.1837	1485.3044	1486.9567	1494.2171	1500.0505	1506.3608	1511.6247	1534.4377	2946.3269	2966.6968	2990.6691	3000.7728	3007.6733	3013.7795	3021.8982	3026.3513	3028.3325	3040.9096	3069.4879	3074.3521	3096.0161	3100.8791	3109.5953	3788.5539
CCCC(O)CCOC	CCC[C@@H](O)CCOC	
InChI=1S/C7H16O2/c1-3-4-7(8)5-6-9-2/h7-8H,3-6H2,1-2H3	InChI=1S/C7H16O2/c1-3-4-7(8)5-6-9-2/h7-8H,3-6H2,1-2H3/t7-/m1/s1
