22
gdb 100872	2.29792	1.11205	0.79342	4.3295	83.35	-0.2646	0.041	0.3056	1507.8014	0.191556	-404.363897	-404.352749	-404.351805	-404.40071	39.09	
C	-0.0232194394	 1.6608404083	-0.0345995693	-0.398094
C	-0.0027196089	 0.1348867102	 0.0862567216	-0.195809
C	-1.4031972252	-0.5111451393	-0.0163545688	-0.147312
C	-2.0515112332	-0.1309413628	-1.2778362747	 0.293533
N	-2.5190852305	 0.1833048199	-2.2870537056	-0.342258
C	-1.4029960766	-2.055077247	 0.1006151216	 0.129476
C	-0.7364704379	-2.5613714755	 1.3809673991	-0.413812
O	-2.7688020569	-2.4344339349	 0.0567552703	-0.243385
C	-3.0117785455	-3.7234149105	-0.4623297766	-0.241132
H	 0.9878615947	 2.0665616376	 0.0617387357	 0.118988
H	-0.4253810942	 1.9782450083	-1.0006688082	 0.149035
H	-0.6402774593	 2.1113128144	 0.7504851434	 0.11973
H	 0.642918065	-0.2929632276	-0.6901238936	 0.114072
H	 0.4294557524	-0.1484029775	 1.0503499073	 0.111629
H	-2.0331277223	-0.1320917126	 0.7994211702	 0.128982
H	-0.8767084941	-2.4659738643	-0.7758599547	 0.081563
H	 0.3410634493	-2.3779016915	 1.379510546	 0.124632
H	-1.176338884	-2.0805526236	 2.260744595	 0.126375
H	-0.884806764	-3.6404736124	 1.4763200351	 0.125574
H	-2.6284232717	-3.8230248677	-1.4884893338	 0.117064
H	-2.5673782395	-4.5176973972	 0.1554584987	 0.105483
H	-4.0952218184	-3.8612501644	-0.4761826089	 0.135668
54.969	69.6248	93.3084	141.2582	165.1649	194.3832	203.357	246.3283	266.4306	321.3443	333.6305	367.0451	437.4116	486.0913	558.3986	600.3758	770.3276	853.8001	863.8018	940.9279	951.1134	1028.0671	1052.0309	1106.8936	1122.065	1132.488	1143.2739	1165.232	1184.4448	1222.1652	1268.7969	1292.5316	1341.7304	1367.1233	1375.591	1386.9273	1408.3728	1418.0945	1479.5493	1486.1582	1486.8158	1493.9187	1499.546	1501.0124	1508.3133	1509.1772	2356.3826	2975.5515	2985.4355	3029.4911	3033.4718	3038.5105	3042.1906	3044.5591	3086.163	3108.2448	3116.4681	3121.0784	3121.8585	3124.3454
CCC(C#N)C(C)OC	CC[C@@H](C#N)[C@@H](C)OC	
InChI=1S/C7H13NO/c1-4-7(5-8)6(2)9-3/h6-7H,4H2,1-3H3	InChI=1S/C7H13NO/c1-4-7(5-8)6(2)9-3/h6-7H,4H2,1-3H3/t6-,7+/m1/s1
