17
gdb 74990	2.89071	1.61098	1.18075	0.6299	75.19	-0.2325	-0.0517	0.1807	1044.6301	0.137952	-418.039744	-418.031961	-418.031017	-418.072215	29.983	
N	-0.0341816492	 1.3442526014	 0.1049443111	-0.56754
C	-0.0918570631	-0.0089823158	 0.072753081	 0.277395
N	-1.1456859802	-0.7433055058	 0.1263587501	-0.280866
C	-0.7572260766	-2.1486956729	 0.0142438304	-0.001742
C	-1.0067640621	-2.7596865995	-1.3986290949	-0.214183
C	 0.5173806191	-2.7031394617	-1.685463012	-0.233687
C	 0.7819002297	-2.2112424879	-0.2145587884	-0.156378
C	 1.2052279327	-0.77035861	-0.0938743493	 0.352493
O	 2.3023622939	-0.2647186222	-0.1278284209	-0.337259
H	 0.879041909	 1.748543917	 0.2390565026	 0.269855
H	-0.8378127357	 1.8645974899	 0.4135487218	 0.26443
H	-1.1725141005	-2.7173486608	 0.8501135631	 0.081117
H	-1.4066296196	-3.7758895264	-1.3696215439	 0.104153
H	-1.6441037277	-2.1464357952	-2.0379746785	 0.112663
H	 0.9835439692	-3.6649802153	-1.903873177	 0.116844
H	 0.8256593609	-1.9929841568	-2.4559987941	 0.11545
H	 1.3908218803	-2.8801317479	 0.3931558189	 0.097255
64.507	148.1566	200.5094	274.0711	329.8882	387.239	438.3812	516.1723	542.5614	610.1399	656.8419	718.2587	748.9926	790.2508	811.2648	865.0396	901.7359	946.8216	967.029	1007.2688	1038.455	1099.9296	1123.0592	1164.8505	1202.1695	1217.8372	1235.6439	1260.0443	1265.1295	1288.4665	1314.5475	1411.1928	1474.1777	1490.9995	1602.6719	1714.5523	1821.2276	3065.9414	3071.4898	3076.202	3113.4882	3121.8783	3136.5041	3595.794	3722.4686
NC1=NC2CCC2C1=O	NC1=N[C@H]2CC[C@H]2C1=O	
InChI=1S/C6H8N2O/c7-6-5(9)3-1-2-4(3)8-6/h3-4H,1-2H2,(H2,7,8)	InChI=1S/C6H8N2O/c7-6-5(9)3-1-2-4(3)8-6/h3-4H,1-2H2,(H2,7,8)/t3-,4+/m1/s1
