19
gdb 55757	3.40912	1.12291	0.96358	2.8581	76.46	-0.2326	-0.0098	0.2228	1260.4192	0.157179	-423.003903	-422.994881	-422.993937	-423.038894	32.955	
C	 0.4744499926	 0.5424811635	 0.7098439363	-0.481857
C	-0.367340998	 0.1383719864	-0.4828114621	 0.381932
O	-0.1466393235	 0.5304860196	-1.6042276727	-0.297901
C	-1.5250196346	-0.8299280677	-0.2000403545	-0.397852
C	-1.0198108467	-2.2261324788	 0.029925288	 0.472128
C	-0.5589383829	-3.1967854448	-1.0127982913	-0.321264
C	-1.6393276861	-3.6073779814	-0.027777395	-0.196968
C	-1.0010993045	-3.8106223696	 1.3395458923	-0.087248
O	-0.3637444828	-2.5034946081	 1.2801920105	-0.322532
H	 0.8008110077	-0.3463837878	 1.2595159001	 0.169604
H	 1.3302508423	 1.133308131	 0.3813832424	 0.135987
H	-0.1336094046	 1.1346074319	 1.4046840393	 0.136551
H	-2.0894766241	-0.5038723193	 0.6815308655	 0.114409
H	-2.1822939802	-0.8221872289	-1.0729111398	 0.125965
H	-0.913750506	-3.00326174	-2.0200068235	 0.126933
H	 0.4381922231	-3.6241764097	-0.9480874651	 0.116666
H	-2.6283722457	-3.9267488676	-0.3268056862	 0.10494
H	-1.7199359397	-3.8472669353	 2.1654791376	 0.111856
H	-0.2716894962	-4.6221923836	 1.4456306085	 0.108651
32.6401	65.5541	125.0358	150.5687	233.7353	282.8772	388.2315	402.2267	435.6439	509.6393	554.2937	718.0561	745.4096	781.6305	848.3769	876.5411	891.7038	951.2485	955.8651	974.335	995.8122	1008.5135	1036.0911	1065.8571	1074.6997	1114.0815	1134.6098	1170.5886	1219.7322	1252.9125	1267.7492	1309.6639	1340.4105	1387.3089	1398.1673	1452.1123	1467.045	1475.5067	1485.0437	1518.4543	1817.4694	3026.0964	3034.1182	3039.9693	3075.7872	3100.3577	3113.5592	3116.8454	3154.7773	3203.3462	3213.4195
CC(=O)CC12CC1CO2	CC(=O)C[C@]12C[C@H]1CO2	
InChI=1S/C7H10O2/c1-5(8)2-7-3-6(7)4-9-7/h6H,2-4H2,1H3	InChI=1S/C7H10O2/c1-5(8)2-7-3-6(7)4-9-7/h6H,2-4H2,1H3/t6-,7-/m0/s1
