21
gdb 117571	2.27956	1.0275	0.74826	1.472	85.7	-0.252	0.0565	0.3085	1567.0077	0.179838	-387.027829	-387.017488	-387.016544	-387.063846	37.179	
C	 0.108029557	 1.3249905621	 0.0688643065	-0.226937
O	 0.0418502436	-0.0799481551	 0.0379859956	-0.229571
C	 0.6457992192	-0.6326774931	-1.1059310625	-0.051571
C	 0.4560393214	-2.1578301241	-1.0779361488	-0.225334
C	-0.9582226737	-2.5214295948	-1.1710176142	 0.355842
C	-2.1144925679	-2.8282720907	-1.2868157494	-0.471986
C	 1.2697743471	-2.8233527809	-2.1823239877	 0.032784
C	 2.7360576681	-3.1081732841	-1.9734694726	-0.278424
C	 1.7417841323	-4.2425743231	-2.0262526555	-0.26827
H	 1.1489463415	 1.6869004934	 0.0729551003	 0.101331
H	-0.4076452513	 1.7772325578	-0.7930857511	 0.105528
H	-0.3834115887	 1.6551406526	 0.9871862384	 0.12837
H	 0.1994387262	-0.2177193948	-2.0250065437	 0.090399
H	 1.7247891264	-0.4064949548	-1.127314346	 0.088565
H	 0.840971175	-2.5034519404	-0.108505659	 0.108251
H	-3.1379889218	-3.0975420766	-1.3706437398	 0.191723
H	 0.970901966	-2.5261914387	-3.183795432	 0.091334
H	 3.412079085	-2.9709446316	-2.810037252	 0.112608
H	 3.1695495924	-2.8607031664	-1.009502207	 0.113331
H	 1.5051811325	-4.7530511385	-1.0985286029	 0.11773
H	 1.7347486496	-4.885282298	-2.8992235569	 0.114296
65.034	81.1948	95.9304	132.7954	139.6534	204.8307	243.53	302.9888	312.3373	403.6789	422.4623	507.0815	591.4706	626.7123	632.3965	771.9713	828.6668	849.3253	881.002	938.633	965.74	995.1478	1060.3636	1080.6817	1089.4703	1096.057	1139.1473	1156.0134	1173.8497	1186.0851	1197.5778	1224.2661	1233.7745	1253.2083	1275.347	1341.1688	1409.3688	1411.4628	1472.6055	1479.7597	1486.6001	1501.7377	1507.6419	1525.898	2236.6501	2954.9613	2970.6507	2989.6105	3011.736	3017.5789	3114.9683	3129.8422	3135.5467	3145.7024	3208.228	3223.7579	3505.875
COCC(C#C)C1CC1	COC[C@@H](C#C)C1CC1	
InChI=1S/C8H12O/c1-3-7(6-9-2)8-4-5-8/h1,7-8H,4-6H2,2H3	InChI=1S/C8H12O/c1-3-7(6-9-2)8-4-5-8/h1,7-8H,4-6H2,2H3/t7-/m1/s1
