12
gdb 132710	5.45983	1.02748	0.86474	1.8546	65.21	-0.2772	-0.0868	0.1904	1180.4292	0.078353	-476.837798	-476.830969	-476.830025	-476.869595	24.536	
F	-0.0153843451	 0.0740468634	 0.0036246317	-0.039212
C	-0.0254098523	 1.3868693188	 0.0104508867	 0.374659
N	-1.2243043777	 1.9462976465	 0.0297904571	-0.306625
C	-1.2169726376	 3.2787939618	 0.0370938808	-0.034447
C	-0.040209906	 4.0259626663	 0.0254241399	 0.105472
C	-0.0473375403	 5.5028428138	 0.0336833757	 0.093599
O	 0.9495092569	 6.1849391363	 0.0239871767	-0.258912
C	 1.151807139	 3.2916430002	 0.0054158674	-0.020174
N	 1.1698369506	 1.962877016	-0.0022042997	-0.301111
H	-2.1890305773	 3.7690988764	 0.0528597064	 0.139446
H	-1.0615537845	 5.9592463475	 0.0496893704	 0.08626
H	 2.1076912543	 3.8078465731	-0.0045185132	 0.161046
94.7486	172.209	188.8436	325.4547	413.7734	426.927	487.8075	543.247	641.8108	664.3772	811.4947	832.1355	902.5398	975.6915	1021.6177	1050.6624	1053.1304	1238.7573	1278.5428	1298.0607	1376.1483	1397.7938	1446.5556	1489.7188	1594.8132	1634.1303	1803.4793	2892.1934	3151.2039	3184.9782
FC1=NC=C(C=O)C=N1	Fc1ncc(C=O)cn1	
InChI=1S/C5H3FN2O/c6-5-7-1-4(3-9)2-8-5/h1-3H	InChI=1S/C5H3FN2O/c6-5-7-1-4(3-9)2-8-5/h1-3H
