18
gdb 17744	3.76934	2.51794	2.06943	0.1229	74.03	-0.2347	0.0942	0.3289	741.366	0.155268	-310.600649	-310.594535	-310.59359	-310.630282	26.06	
C	-0.0345124425	 1.48904607	 0.0089731985	-0.509886
C	-0.0266336922	-0.0163929892	-0.0481135738	 0.350336
C	 0.2515217891	-0.8230204019	-1.3459509861	-0.285681
C	-0.4743157208	-1.977226439	-0.6157577282	-0.057036
C	 0.303613991	-2.2464742567	 0.6947152616	-0.069472
C	-0.6536500481	-1.4596794498	 1.5635877493	-0.104333
C	 0.6363618774	-0.8131916023	 1.1082215698	-0.107735
C	-1.2858894307	-0.9332644473	 0.2414642433	-0.097321
H	 0.9737937033	 1.8955410752	-0.1382117256	 0.114386
H	-0.6805065686	 1.9154142096	-0.7663440513	 0.111617
H	-0.3948006579	 1.8450424742	 0.9810602544	 0.11684
H	-0.3393691997	-0.4409500075	-2.1862146177	 0.090061
H	 1.2904361303	-0.9701378574	-1.6598941827	 0.086422
H	-0.9307442687	-2.8165612665	-1.1387936022	 0.060553
H	 0.9260498211	-3.091614036	 0.9581536931	 0.080888
H	-1.0428005581	-1.6554596403	 2.5537652199	 0.081946
H	 1.5140638364	-0.5549768873	 1.6875938507	 0.076633
H	-2.3156194615	-0.6381384878	 0.052360297	 0.061782
229.6771	256.6256	273.4209	411.3141	546.2797	576.2278	732.3874	751.6022	783.1847	789.9059	827.9895	840.5065	855.2448	863.4359	895.5083	914.6537	961.0666	994.8902	998.4071	1006.5587	1036.2794	1039.8101	1077.2234	1084.911	1145.3517	1173.3735	1180.9207	1201.5693	1214.8902	1241.4319	1248.9729	1280.2344	1322.3898	1365.0364	1412.4426	1486.0674	1492.0113	1492.1372	3017.7782	3032.1376	3079.0935	3086.896	3090.0404	3120.1094	3139.5896	3185.6113	3192.1212	3207.264
CC12CC3C4C(C14)C23	C[C@@]12C[C@H]3[C@@H]4[C@@H]([C@H]14)[C@@H]23	
InChI=1S/C8H10/c1-8-2-3-4-5(6(3)8)7(4)8/h3-7H,2H2,1H3	InChI=1S/C8H10/c1-8-2-3-4-5(6(3)8)7(4)8/h3-7H,2H2,1H3/t3-,4+,5+,6-,7+,8-/m0/s1
