20
gdb 105793	2.50229	1.47029	1.13935	1.9579	78.65	-0.2174	0.065	0.2824	1148.2267	0.170512	-403.04481	-403.036032	-403.035088	-403.078155	33.781	
C	 0.0145990426	 1.7274792462	 0.4782837186	-0.445267
C	 0.0788815364	 0.2004733787	 0.4575083417	-0.066154
C	 1.0721114815	-0.7222726204	-0.2107490566	-0.15461
C	 2.543319987	-0.4554777456	 0.1455907681	-0.034018
C	 2.8136376485	 0.6413344484	 1.101256403	-0.256937
N	 2.2960879705	-0.6394099436	 1.6213915276	-0.185887
C	 0.8249180749	-0.8244006298	 1.2834758658	 0.289408
C	 0.1667979084	-1.8832513237	 2.1343648074	-0.159397
O	-1.1822399923	-2.1479892921	 1.7886474461	-0.409191
H	 0.7700305859	 2.1852796144	-0.1647283692	 0.134043
H	-0.961133351	 2.055205675	 0.1061831885	 0.113681
H	 0.1288545722	 2.1403100995	 1.486238165	 0.126032
H	-0.9062565598	-0.2345336392	 0.2908857533	 0.100763
H	 0.7884622161	-1.4131213588	-0.9949703127	 0.095669
H	 3.3491062405	-0.9987001533	-0.3382979588	 0.099648
H	 3.8560439661	 0.7830384674	 1.3773120396	 0.120638
H	 2.2203556426	 1.5408357193	 1.1501114883	 0.124111
H	 0.7055631896	-2.8294556688	 2.0165943131	 0.123179
H	 0.2713648821	-1.5907209097	 3.1918230068	 0.09814
H	-1.715329612	-1.4100624839	 2.1000925344	 0.286151
72.3723	130.3049	196.1252	212.5262	233.9548	291.7958	333.3704	392.9175	403.6819	510.9114	625.0371	669.2636	683.9308	716.8002	756.1341	841.2005	910.5384	923.292	947.6754	976.1694	1013.8446	1036.2998	1059.5511	1077.0824	1086.3412	1102.9519	1106.0158	1114.6069	1147.2954	1193.74	1217.2829	1229.9645	1272.7113	1350.8481	1354.6727	1383.8591	1404.9464	1414.9075	1472.2787	1494.537	1499.3213	1504.2559	1515.7315	2976.2663	3034.4932	3069.4746	3090.5405	3109.6992	3122.3664	3128.9601	3156.4505	3188.1207	3265.8001	3822.9234
CC1C2C3CN3C12CO	C[C@H]1[C@H]2[C@H]3CN3[C@@]12CO	
InChI=1S/C7H11NO/c1-4-6-5-2-8(5)7(4,6)3-9/h4-6,9H,2-3H2,1H3	InChI=1S/C7H11NO/c1-4-6-5-2-8(5)7(4,6)3-9/h4-6,9H,2-3H2,1H3/t4-,5+,6-,7-,8?/m0/s1
