17
gdb 54697	3.41624	1.44172	1.28708	3.0781	70.43	-0.2347	-0.0081	0.2266	1017.8035	0.134624	-421.770302	-421.762528	-421.761584	-421.803354	29.345	
C	 0.1088730651	 1.1579106379	 0.666492841	-0.48907
C	 0.1251913912	-0.1097831164	-0.1648118754	 0.382451
O	 1.099256288	-0.4718128055	-0.783060624	-0.304667
C	-1.1579865073	-0.9268585343	-0.191025513	-0.111364
C	-1.0654147788	-2.4362863607	-0.4001743475	-0.115643
C	-0.8498367446	-2.9929816041	 1.016908058	 0.099205
O	-0.7541985749	-1.8887514864	 1.9224864399	-0.290784
C	-1.8416833988	-1.2896332583	 1.1616690504	 0.038131
C	-2.2318146628	-2.6865058526	 0.5556012538	-0.155192
H	 1.012754977	 1.7388741047	 0.4791805814	 0.140783
H	-0.7793024044	 1.7628008392	 0.4521298992	 0.127109
H	 0.0685762366	 0.8831293692	 1.7267818951	 0.159424
H	-1.8830166536	-0.4716576613	-0.8759197399	 0.101939
H	-0.7894262431	-2.980178034	-1.2924294725	 0.105703
H	-0.3364567644	-3.9147221492	 1.2527151932	 0.116985
H	-2.4524483642	-0.5982986097	 1.7378141637	 0.089847
H	-3.150577591	-3.2494558886	 0.4761091466	 0.105142
43.5872	131.6499	150.7468	166.6362	358.808	432.711	473.1917	604.4501	628.4622	761.1509	770.6463	784.5637	791.4589	825.021	850.5618	907.936	944.1595	957.6198	981.2479	1008.5431	1023.7466	1031.7853	1043.7196	1065.2437	1088.9529	1156.6543	1165.932	1202.1907	1219.382	1223.3085	1306.2768	1344.8553	1368.861	1378.7482	1465.5917	1476.6072	1811.9807	3034.6746	3051.3694	3098.1345	3148.7174	3150.7479	3212.7683	3218.323	3231.5555
CC(=O)C1C2C3OC1C23	CC(=O)[C@H]1[C@H]2[C@H]3O[C@@H]1[C@@H]23	
InChI=1S/C7H8O2/c1-2(8)3-4-5-6(3)9-7(4)5/h3-7H,1H3	InChI=1S/C7H8O2/c1-2(8)3-4-5-6(3)9-7(4)5/h3-7H,1H3/t3-,4+,5+,6-,7+/m0/s1
