19
gdb 79532	2.965	1.74011	1.64101	2.4598	72.62	-0.2331	0.0673	0.3005	911.0503	0.162974	-423.026283	-423.019713	-423.018769	-423.056781	28.131	
O	-0.006953641	 1.4340699342	 0.0290151509	-0.448921
C	 0.0497879076	 0.0213201719	-0.0315032739	 0.137487
C	-1.3478655543	-0.5545306799	-0.2201796218	-0.073275
C	-1.7143383435	-0.3734314329	-1.7254116936	 0.110538
C	-0.3641240199	-0.0349485899	-2.3882020917	-0.220071
C	 0.6332936637	-0.5825349114	-1.3381234083	-0.091695
C	 0.3279513625	-2.0814438383	-1.1026860354	-0.235631
C	-1.1610188689	-2.0255567197	-0.6878651977	 0.095865
O	-1.9753157503	-1.7957826221	-1.8620956071	-0.305972
H	 0.8948891321	 1.7690345921	 0.0572599126	 0.283246
H	 0.5478171827	-0.3899499813	 0.8597872139	 0.061696
H	-2.1102436092	-0.3373537889	 0.523706279	 0.077191
H	-2.5654444604	 0.2347421709	-2.035052122	 0.076852
H	-0.2786597488	-0.5106596504	-3.3681566922	 0.101049
H	-0.244555066	 1.0459140676	-2.49892705	 0.103431
H	 1.6836338173	-0.3551544093	-1.5364056492	 0.052611
H	 0.4621112573	-2.7076679831	-1.9883295322	 0.108409
H	 0.9504516708	-2.4855186163	-0.2955154099	 0.093151
H	-1.5197126917	-2.8669964332	-0.0915019812	 0.074038
206.9339	285.2121	308.6956	356.8006	397.6606	475.3423	517.7298	609.924	672.5949	791.7279	823.5024	843.8394	863.6163	887.7192	896.9603	908.4044	934.0113	941.2255	983.546	1006.3618	1026.7745	1035.4834	1082.6445	1100.428	1134.3139	1143.5546	1149.5903	1190.0527	1234.4825	1259.7591	1272.2645	1275.7335	1295.5043	1306.3441	1318.46	1348.3406	1357.0277	1368.1093	1430.57	1465.3676	1482.477	2984.7371	3037.313	3064.0592	3081.0101	3088.7155	3101.2065	3103.0919	3118.8281	3152.6131	3816.6416
OC1C2C3CC1CC2O3	O[C@H]1[C@H]2[C@H]3C[C@@H]1C[C@@H]2O3	
InChI=1S/C7H10O2/c8-7-3-1-4-6(7)5(2-3)9-4/h3-8H,1-2H2	InChI=1S/C7H10O2/c8-7-3-1-4-6(7)5(2-3)9-4/h3-8H,1-2H2/t3-,4-,5+,6+,7-/m1/s1
