18
gdb 45614	4.26441	0.97382	0.8503	3.5055	80.95	-0.1998	0.0016	0.2015	1351.3841	0.148507	-401.985033	-401.976818	-401.975873	-402.018355	31.258	
O	 0.0458742727	-0.0197978889	 0.1055968018	-0.372423
C	 0.0042303731	 1.188074277	 0.0651519329	 0.426369
C	-1.2081550935	 2.1153939306	 0.2709511167	-0.472031
C	-0.6453496769	 3.5108471372	 0.1029883559	 0.289379
C	 0.6647167991	 3.3860015729	-0.1548650455	-0.137007
N	 1.0637492284	 2.0375455858	-0.181784118	-0.323703
C	-1.4035731077	 4.767889145	 0.2052864962	-0.081989
C	-2.8380961465	 4.8820818528	-0.27891127	-0.272818
C	-2.543428173	 4.9401847119	 1.1933380427	-0.272824
H	-1.9827670334	 1.8611457397	-0.461483418	 0.145386
H	-1.6386290965	 1.9293134188	 1.2614568664	 0.145362
H	 1.3967995335	 4.1610650157	-0.3324556066	 0.12253
H	 1.9972029106	 1.7042814523	-0.3539851352	 0.259163
H	-0.7933503819	 5.6530426564	 0.0483510879	 0.08018
H	-3.1270646858	 5.7941007955	-0.7891602786	 0.116105
H	-3.3144068728	 3.9879950467	-0.6658294096	 0.116109
H	-2.8210888167	 4.0856487793	 1.8004780284	 0.116118
H	-2.627738003	 5.8927505214	 1.7044001028	 0.116095
65.1949	100.8721	157.2623	183.4333	354.6826	382.5402	465.5421	471.9538	491.6626	567.6567	588.8395	720.6649	784.7041	817.8213	834.717	842.4111	888.9957	903.7589	937.4069	959.8355	1038.5732	1057.1974	1074.7829	1086.5708	1130.7955	1156.5338	1185.2445	1200.6376	1210.3645	1235.3839	1299.294	1347.9636	1402.3635	1415.9933	1434.4491	1466.8907	1499.7482	1701.2008	1837.0374	3046.1306	3080.1364	3133.9343	3137.4523	3143.8144	3212.5222	3228.1646	3234.6314	3669.3835
O=C1CC(=CN1)C1CC1	O=C1CC(=CN1)C1CC1	
InChI=1S/C7H9NO/c9-7-3-6(4-8-7)5-1-2-5/h4-5H,1-3H2,(H,8,9)	InChI=1S/C7H9NO/c9-7-3-6(4-8-7)5-1-2-5/h4-5H,1-3H2,(H,8,9)
