20
gdb 69374	3.3657	1.26269	1.10286	1.8145	78.99	-0.2394	0.0709	0.3104	1175.9275	0.170852	-403.083655	-403.075188	-403.074244	-403.116863	32.564	
C	 0.1091054539	 1.4164271048	-0.2813016457	-0.493549
C	 0.1210896842	-0.050541688	-0.0042028036	 0.471823
C	-0.8254477094	-0.8066110316	 0.8779162733	-0.343612
C	 0.671914598	-0.9327104255	 1.092894415	-0.181836
C	 1.2420836232	-1.7847722117	-0.0411937277	 0.083353
O	 0.6220103754	-0.9210812458	-1.0403479503	-0.339756
C	 2.7445520742	-1.8176466159	-0.1762987258	-0.011988
C	 3.3674788682	-1.8154315512	-1.5198775883	-0.242971
N	 3.487133603	-0.6387403753	-0.6353324021	-0.321588
H	 1.106355915	 1.7871036083	-0.5401461937	 0.128945
H	-0.5650549122	 1.6415645892	-1.1154414175	 0.135478
H	-0.2446405287	 1.9652836006	 0.5959681636	 0.128578
H	-1.3455498342	-0.2129135799	 1.6236031114	 0.114847
H	-1.393221649	-1.6416708633	 0.4754931539	 0.113527
H	 1.1742054761	-0.6867502178	 2.0190673773	 0.105494
H	 0.843523939	-2.8070908394	-0.102228257	 0.084015
H	 3.2333327119	-2.3680312837	 0.626924527	 0.091452
H	 4.2907011923	-2.3601605427	-1.6939853637	 0.115193
H	 2.7023178519	-1.7388061231	-2.3751198777	 0.125568
H	 2.8101625272	 0.0515700921	-0.9558529084	 0.237027
73.2457	111.2379	175.0757	204.7558	266.6458	312.2654	382.2423	399.0189	464.0614	574.3447	668.1517	772.8276	815.2019	840.6481	859.9157	878.3688	921.776	933.8296	960.2889	971.6815	984.9965	1002.5709	1038.5146	1049.6545	1067.4923	1104.2994	1120.6838	1131.2423	1145.8366	1182.5466	1204.3862	1253.2201	1267.7825	1292.1804	1307.9976	1375.5822	1384.4836	1415.2256	1428.0668	1475.427	1486.3903	1499.5541	1504.0152	3008.7281	3032.1106	3094.4774	3110.1727	3112.6818	3116.4696	3117.2532	3198.1249	3204.4352	3206.2276	3487.0361
CC12CC1C(O2)C1CN1	C[C@]12C[C@H]1[C@@H](O2)[C@H]1CN1	
InChI=1S/C7H11NO/c1-7-2-4(7)6(9-7)5-3-8-5/h4-6,8H,2-3H2,1H3	InChI=1S/C7H11NO/c1-7-2-4(7)6(9-7)5-3-8-5/h4-6,8H,2-3H2,1H3/t4-,5+,6+,7-/m0/s1
