22
gdb 57957	3.69882	0.81245	0.80107	3.2407	83.88	-0.2362	0.0342	0.2703	1596.6219	0.192851	-404.375381	-404.364899	-404.363955	-404.412383	37.763	
C	 0.1029984036	 1.6593781385	-0.2623089052	-0.37797
C	 0.0082883874	 0.1741019384	 0.1186861438	-0.083093
C	 0.5123875941	-0.727636116	-1.019460218	-0.377331
C	 0.8565578039	-0.0788358344	 1.3696881255	 0.418158
O	 2.051088924	 0.1555291959	 1.399032895	-0.385708
N	 0.1774837608	-0.5749353786	 2.4510919936	-0.336235
C	 0.8426093359	-0.9634161636	 3.6588977392	 0.065847
C	 1.2820117424	 0.1020512267	 4.6249973912	-0.2357
C	 0.1042150807	-0.7800381974	 4.9576397334	-0.297659
H	 1.1502337271	 1.9371419301	-0.4083311997	 0.14269
H	-0.4456360219	 1.8563034391	-1.188605042	 0.108453
H	-0.3111089442	 2.3014114596	 0.5217599149	 0.112142
H	-1.0406439354	-0.0720506153	 0.330063128	 0.060093
H	 1.5729639998	-0.5346853829	-1.202390535	 0.142305
H	 0.3993279086	-1.788364291	-0.7725887096	 0.110529
H	-0.0436068832	-0.5325786276	-1.9417156249	 0.109806
H	-0.777268252	-0.8695596408	 2.3225624757	 0.243386
H	 1.4889324503	-1.8328227667	 3.5658208241	 0.103425
H	 2.2160272454	-0.0514482903	 5.1522906953	 0.120929
H	 1.0804347168	 1.1290276448	 4.346455699	 0.124397
H	-0.8839306515	-0.3343297055	 4.9117478355	 0.112655
H	 0.2167371576	-1.5439884231	 5.7183279902	 0.11888
23.3308	47.3137	88.5306	139.0547	218.2113	242.3008	246.1325	287.4115	296.4171	370.3707	408.5772	464.962	501.4638	662.4959	763.1034	771.9704	826.449	834.9823	871.5658	916.4881	931.2134	974.6972	1001.3417	1013.6796	1061.9771	1077.3005	1105.4247	1118.3709	1125.6103	1170.7413	1192.9525	1204.5362	1217.5011	1268.032	1334.6663	1377.5534	1390.8849	1399.907	1412.5035	1462.6807	1484.6762	1492.2753	1498.161	1500.2451	1508.2267	1518.958	1778.3212	3013.4095	3035.2618	3038.5845	3101.9103	3104.5945	3121.2799	3126.0572	3129.4593	3135.4877	3151.3701	3218.8985	3241.8472	3630.1045
CC(C)C(=O)NC1CC1	CC(C)C(=O)NC1CC1	
InChI=1S/C7H13NO/c1-5(2)7(9)8-6-3-4-6/h5-6H,3-4H2,1-2H3,(H,8,9)	InChI=1S/C7H13NO/c1-5(2)7(9)8-6-3-4-6/h5-6H,3-4H2,1-2H3,(H,8,9)
