16
gdb 75225	3.79447	1.21927	1.09605	3.8162	75.25	-0.2641	-0.0155	0.2485	1122.1537	0.125048	-396.934138	-396.926259	-396.925314	-396.966488	29.533	
C	-0.0016626149	 1.4617512038	 0.0418286838	-0.474384
C	 0.0016400108	-0.026390953	-0.0387013373	 0.33845
N	 0.0288597785	-0.706724969	-1.1137676632	-0.245759
C	-0.0050011205	-2.12918144	-0.7695124922	-0.241652
C	 0.0404595799	-2.1624067485	 0.7692363024	 0.15308
C	 1.196846546	-1.5007096334	 1.4372193228	-0.277488
N	-0.0548525247	-0.7450247299	 1.2171354221	-0.167525
C	-0.7372149041	-3.1481233459	 1.4725572762	 0.229158
N	-1.345990002	-3.9750979189	 2.0036154452	-0.331539
H	 0.8475972902	 1.814480841	 0.6373378681	 0.142656
H	 0.0479366875	 1.8926895619	-0.9579299112	 0.152854
H	-0.9090984559	 1.8047155446	 0.5491025847	 0.155945
H	-0.9303095638	-2.5835444854	-1.1390832742	 0.143185
H	 0.8306805331	-2.6585817755	-1.2381715065	 0.133645
H	 1.413622486	-1.7295142198	 2.4751186316	 0.149012
H	 2.0533809839	-1.2530798819	 0.8149916378	 0.140364
111.6599	151.6804	170.2235	230.4125	301.7699	342.8566	364.652	496.3426	558.8779	586.2068	628.3036	666.3854	763.2513	827.0239	846.2881	931.2531	961.2321	981.4641	1013.5746	1068.4485	1080.0405	1128.4598	1132.8864	1200.3208	1229.3955	1243.5313	1306.4249	1365.4393	1410.2828	1470.813	1474.0692	1486.4342	1500.8419	1723.5115	2359.732	3045.202	3050.5024	3086.9133	3101.6305	3114.4023	3161.235	3215.9586
CC1=NCC2(CN12)C#N	CC1=NC[C@]2(CN12)C#N	
InChI=1S/C6H7N3/c1-5-8-3-6(2-7)4-9(5)6/h3-4H2,1H3	InChI=1S/C6H7N3/c1-5-8-3-6(2-7)4-9(5)6/h3-4H2,1H3/t6-,9?/m0/s1
