19
gdb 88809	2.87293	1.26544	1.06025	2.5406	76.46	-0.2232	-0.0324	0.1908	1193.7228	0.158641	-419.15699	-419.148198	-419.147254	-419.190885	32.612	
C	 0.3116577741	 1.485905516	-0.3333077353	-0.336445
N	-0.0495034777	 0.1265273722	 0.0587178259	-0.091073
C	 1.0215230107	-0.8685420541	 0.0726177847	-0.257803
C	 0.4133734291	-0.3822563373	 1.3443542058	 0.009612
C	 1.1721606699	 0.4610728897	 2.3581824368	-0.133899
N	 1.5145576713	-0.2829737026	 3.608892038	-0.327116
C	 2.9313229954	 0.1685313321	 3.5900991317	-0.27465
C	 2.6783852384	 0.7500258755	 2.1950748042	 0.394243
O	 3.359841709	 1.2227742799	 1.3341486874	-0.2901
H	 1.3317191449	 1.7856646058	-0.0502691329	 0.133118
H	 0.2234047278	 1.565785847	-1.4211992399	 0.123651
H	-0.4003250624	 2.1907504408	 0.109899566	 0.115214
H	 0.7654350967	-1.8496462003	-0.3187375834	 0.112331
H	 2.0289591572	-0.5302205107	-0.1596824841	 0.12761
H	-0.30752976	-1.025870278	 1.8474654182	 0.100171
H	 0.6313636877	 1.4040023122	 2.5404396577	 0.102054
H	 0.9985905074	 0.0311090377	 4.4220641398	 0.227491
H	 3.1992671393	 0.9492569636	 4.315349895	 0.126835
H	 3.668917881	-0.6386110193	 3.6565771543	 0.138755
60.6067	102.5155	145.7122	179.5369	240.6094	283.1258	351.0927	423.2686	441.4781	488.8851	585.2259	660.1526	716.8961	749.1509	842.7956	891.8639	934.3979	970.3565	1010.4819	1018.5435	1029.2245	1058.3629	1089.8732	1101.6194	1122.0395	1137.0914	1165.4335	1181.034	1211.2208	1228.8476	1278.8437	1321.3649	1334.3605	1365.6306	1398.7258	1454.3303	1472.8877	1494.6599	1508.7292	1514.7855	1901.4584	2973.136	2994.6298	3014.183	3070.649	3071.3893	3097.5699	3101.1811	3109.3817	3187.2114	3548.7658
CN1CC1C1NCC1=O	CN1C[C@H]1[C@H]1NCC1=O	
InChI=1S/C6H10N2O/c1-8-3-4(8)6-5(9)2-7-6/h4,6-7H,2-3H2,1H3	InChI=1S/C6H10N2O/c1-8-3-4(8)6-5(9)2-7-6/h4,6-7H,2-3H2,1H3/t4-,6+,8?/m0/s1
