20
gdb 41212	2.99477	1.80343	1.43363	1.5711	85.22	-0.204	-0.0207	0.1833	975.411	0.174878	-365.992852	-365.986008	-365.985064	-366.023458	29.528	
C	 0.2129492598	 1.0398315293	-0.6227867653	-0.265446
C	 1.3780041114	 1.3742750569	 0.4171370446	-0.261664
C	 1.3836587489	 0.2139342831	 1.3876593639	 0.257516
C	 1.2155986998	-1.0956630064	 0.6377933702	-0.351661
C	-0.2950342307	-0.9436847843	 0.7298211487	 0.23588
C	-0.7508366911	-1.4333791476	 2.077104459	-0.289768
C	 0.3721867676	-0.9212582042	 3.1041572159	-0.173816
N	 1.0057671027	 0.3079465865	 2.6078885035	-0.213412
C	-0.7878847668	 0.0958670465	 0.0343155678	-0.125391
H	-0.2762944513	 1.9685513772	-0.9258792096	 0.111057
H	 0.6493212156	 0.6152504795	-1.5347976582	 0.117226
H	 2.3285018975	 1.4875610284	-0.1143634266	 0.103464
H	 1.1596554873	 2.2995843395	 0.9521168543	 0.1227
H	 1.6157337109	-1.0724612095	-0.3753144665	 0.104233
H	 1.5914570868	-1.9736288938	 1.1630950041	 0.107281
H	-1.7239587623	-1.0157105959	 2.3459245985	 0.111056
H	-0.8141188517	-2.5250066718	 2.1484224085	 0.104194
H	-0.0906383793	-0.7107166241	 4.0713964181	 0.108964
H	 1.0989249787	-1.727850478	 3.2704117892	 0.107607
H	-1.8127660938	 0.4282533689	 0.1724107598	 0.089981
194.5009	283.7422	316.2278	360.4423	423.5127	468.0315	494.8644	544.351	567.5904	669.5769	731.4834	771.4423	792.8757	815.8198	849.5177	868.2422	876.7768	904.895	959.0024	984.9321	996.8457	1029.4941	1073.4986	1101.7282	1116.3943	1172.6651	1182.1882	1203.1805	1215.5404	1231.7829	1253.9262	1267.7935	1276.1703	1322.0293	1334.4662	1347.6439	1472.6935	1486.0173	1487.6992	1495.6178	1530.7997	1664.5887	1671.1582	3008.998	3030.1899	3041.3135	3053.8601	3086.6692	3089.9063	3095.6866	3106.453	3128.056	3144.5445	3165.1747
C1CC23CC4(CCN24)C13	C1C[C]2C[C](CC[N]2)[CH]1	
InChI=1S/C8H11N/c1-2-7-5-8(6(1)7)3-4-9(7)8/h6H,1-5H2	InChI=1S/C8H11N/c1-2-7-4-5-9-8(3-1)6-7/h2H,1,3-6H2
