17
gdb 37078	3.42008	1.64031	1.37373	1.9074	66.73	-0.2559	0.0713	0.3272	946.2149	0.137703	-458.937126	-458.93021	-458.929265	-458.968273	27.199	
C	-0.0329135772	 1.5537865981	 0.0341204649	-0.160009
O	 0.982876629	 1.9829139337	-0.8765824428	-0.259739
C	 2.0471115217	 1.0282907381	-0.9148343588	-0.160009
C	 1.4241085617	-0.2712581313	-0.4698803145	 0.28744
C	 1.9906624226	-1.4246813324	 0.3197881347	-0.160009
O	 0.892996622	-1.9229766104	 1.0893280649	-0.259739
C	-0.0893605924	-0.899186019	 1.2687472707	-0.160009
C	 0.1266302531	 0.0565367455	 0.1220630381	 0.287438
O	 0.205917289	-0.5884124245	-1.1557067614	-0.31027
H	 0.0986926591	 2.000980465	 1.0326187281	 0.099207
H	-0.9938803951	 1.8822117391	-0.3727532486	 0.12452
H	 2.4357317693	 1.0157606179	-1.9374208463	 0.12452
H	 2.8657020518	 1.3019247485	-0.2297538528	 0.099207
H	 2.3605189974	-2.2524546766	-0.2924732418	 0.12452
H	 2.8111784927	-1.067561124	 0.9628434802	 0.099207
H	-1.0690860551	-1.3860040671	 1.2721957051	 0.12452
H	 0.0441631405	-0.3685065107	 2.2252262602	 0.099207
179.1749	201.1148	212.1153	295.0793	331.2876	459.0068	491.1211	553.7577	650.1053	706.1414	806.7905	833.6854	900.5405	917.1476	938.7441	969.5673	985.9434	1029.5501	1050.3631	1087.783	1112.2785	1117.3677	1196.0651	1204.1809	1230.9817	1235.1371	1252.8774	1260.3852	1341.117	1373.2927	1387.2069	1406.2265	1452.4332	1498.4444	1504.5774	1506.8794	1515.2203	2972.7311	2978.1818	2981.7531	2989.3737	3079.6761	3081.8316	3082.2718	3084.9274
C1OCC23COCC12O3	C1OC[C@@]23COC[C@@]12O3	
InChI=1S/C6H8O3/c1-5-2-8-4-6(5,9-5)3-7-1/h1-4H2	InChI=1S/C6H8O3/c1-5-2-8-4-6(5,9-5)3-7-1/h1-4H2/t5-,6+
