12
gdb 130650	5.1893	1.41404	1.11912	2.4022	59.67	-0.2681	-0.0467	0.2214	965.3617	0.080694	-468.850347	-468.844219	-468.843275	-468.881227	22.729	
O	 0.0051000189	 0.0727891255	 0.0032950202	-0.272279
C	-0.0500119143	 1.2546990557	 0.0107849314	 0.403199
C	-1.299824151	 2.1679528422	 0.0332966457	-0.313092
N	-0.6589499583	 3.451889724	 0.0309488986	-0.000175
N	-1.0202106208	 4.7662756899	 0.0438767143	-0.263874
C	 0.1721584442	 5.3460895586	 0.0292149468	 0.035958
N	 1.2700007084	 4.5106557558	 0.01035176	-0.376551
C	 0.6742185832	 3.3521088321	 0.0118844096	 0.514183
O	 1.097872363	 2.0613124578	-0.0009666528	-0.234489
H	-1.9175890047	 1.9825398658	-0.8503985276	 0.18223
H	-1.8922680493	 1.9732203998	 0.9321951609	 0.182234
H	 0.2712499406	 6.4207516528	 0.0337626329	 0.142656
109.017	171.5629	330.2544	367.946	565.0492	567.0978	579.2378	663.5368	745.6448	755.8786	820.9156	879.6738	897.8488	979.0655	1014.3284	1031.1365	1172.5079	1183.2141	1207.9573	1267.933	1285.1699	1362.6956	1439.0855	1478.4151	1537.9198	1617.2642	1947.8882	3062.9849	3108.4119	3270.9055
O=C1CN2N=CN=C2O1	O=C1Cn2ncnc2O1	
InChI=1S/C4H3N3O2/c8-3-1-7-4(9-3)5-2-6-7/h2H,1H2	InChI=1S/C4H3N3O2/c8-3-1-7-4(9-3)5-2-6-7/h2H,1H2
