19
gdb 121437	2.30298	0.9392	0.69963	3.345	81.6	-0.2758	-0.0474	0.2284	1638.6443	0.157329	-419.221238	-419.210799	-419.209855	-419.257838	35.732	
C	-0.0511280356	 1.5337309771	 0.091199896	-0.382037
C	-0.090148003	 0.010443909	-0.0462579311	-0.157948
C	 0.7386102569	-0.4871838308	-1.2378829321	-0.165574
N	 0.7512174441	-1.9388184476	-1.2799486624	-0.313129
C	 0.2881715364	-2.5780603024	-2.2653495965	 0.34064
O	 0.2612043085	-3.9185204659	-2.3451769602	-0.239489
C	 0.7977438252	-4.6187216197	-1.217515669	-0.236507
C	-0.2859591323	-1.989957159	-3.4671961878	 0.254974
N	-0.7331763351	-1.4680089788	-4.3963707168	-0.333254
H	 0.9724389095	 1.8934097892	 0.2441892669	 0.117431
H	-0.4450012155	 2.0258073523	-0.8046913838	 0.122921
H	-0.6508723179	 1.8661778307	 0.9434007664	 0.118473
H	 0.2868836638	-0.4662227187	 0.8654874775	 0.109239
H	-1.1252738784	-0.3299228977	-0.1704513327	 0.103453
H	 0.3640500181	-0.035481392	-2.1682332348	 0.118165
H	 1.7774728226	-0.1562031444	-1.1111580894	 0.11593
H	 0.686856514	-5.6763780883	-1.4554370769	 0.140367
H	 1.8504032321	-4.3626332339	-1.0705013567	 0.143382
H	 0.2458583665	-4.3654412391	-0.3084419466	 0.142964
42.6963	84.3634	95.9864	137.9962	158.3141	186.4041	228.5886	241.7832	298.0384	355.8387	376.868	444.3893	545.8167	628.5276	724.9375	759.2754	798.2969	899.8484	901.5669	1026.3824	1043.682	1086.6125	1126.7415	1177.366	1178.8293	1220.4521	1270.0209	1295.719	1317.6901	1336.7918	1396.7365	1415.9432	1473.5951	1477.4968	1488.7366	1495.7706	1499.3599	1500.4503	1514.6865	1728.827	2352.6181	2996.6637	3032.0866	3034.2243	3043.3263	3049.4558	3073.1423	3101.9396	3108.8109	3123.0523	3162.7481
CCCN=C(OC)C#N	CCCN=C(OC)C#N	
InChI=1S/C6H10N2O/c1-3-4-8-6(5-7)9-2/h3-4H2,1-2H3	InChI=1S/C6H10N2O/c1-3-4-8-6(5-7)9-2/h3-4H2,1-2H3
