18
gdb 8296	5.81821	0.95832	0.89625	4.1133	68.83	-0.273	0.0131	0.2861	1316.7595	0.153195	-384.980684	-384.972338	-384.971394	-385.014209	29.93	
C	-0.0066670628	 1.5610600503	-0.2163655235	-0.383413
C	-0.0881997729	 0.0524495974	 0.0286111707	-0.168626
C	 0.9149760979	-0.4342087987	 1.0811502877	-0.188541
C	 0.8215792994	-1.9213764291	 1.3517440134	 0.135599
C	 1.5358438375	-2.4888575539	 2.5928625	-0.441834
C	 0.1168498865	-2.8073302749	 3.065425809	 0.449721
O	-0.4105484086	-3.3060335561	 4.0061252508	-0.315808
O	-0.4810608201	-2.2942468103	 1.9430313612	-0.250676
H	 0.9893239067	 1.8547453231	-0.566429384	 0.113805
H	-0.7320791159	 1.8792998369	-0.9709555328	 0.117947
H	-0.2134706519	 2.1225914582	 0.701308663	 0.118881
H	-1.0984060839	-0.2196064133	 0.3544424942	 0.123626
H	 0.0870369396	-0.4845965353	-0.9128765871	 0.097098
H	 1.9409140465	-0.212861956	 0.7558715162	 0.104414
H	 0.7602131614	 0.1072536207	 2.0238075347	 0.104705
H	 0.9695680373	-2.5073774794	 0.4394973917	 0.097577
H	 2.1647700154	-3.3671880844	 2.4399228157	 0.143736
H	 2.0635237579	-1.7619276051	 3.2135543392	 0.14179
65.9336	93.5992	122.2074	170.0146	246.2119	318.2302	365.0581	464.3865	521.8851	530.7171	718.8133	756.8395	836.3621	858.458	895.6195	916.5333	961.0596	1011.7527	1052.0584	1079.4345	1095.2766	1119.7128	1139.2158	1196.5107	1224.9061	1261.3993	1282.1242	1324.7262	1338.4355	1381.9275	1411.0096	1416.7028	1457.2799	1472.9492	1493.2898	1500.0241	1509.66	1939.37	3012.8441	3023.9993	3031.0924	3046.2378	3066.7447	3075.5437	3087.3699	3099.413	3106.6969	3145.1307
CCCC1CC(=O)O1	CCC[C@H]1CC(=O)O1	
InChI=1S/C6H10O2/c1-2-3-5-4-6(7)8-5/h5H,2-4H2,1H3	InChI=1S/C6H10O2/c1-2-3-5-4-6(7)8-5/h5H,2-4H2,1H3/t5-/m0/s1
