19
gdb 13436	3.33573	1.4885	1.26694	3.5846	72.49	-0.2432	0.0281	0.2713	1037.1152	0.164575	-365.079216	-365.070061	-365.069117	-365.113206	32.635	
C	 0.0676013871	 1.4340717016	 0.2848060096	-0.409234
C	 0.120013453	-0.0472149209	-0.014607525	-0.003791
C	 0.6782409332	-0.618683712	-1.3016342821	-0.059516
C	 1.2362336323	 0.2441464952	-2.4137444984	-0.419349
C	 1.4187983993	-0.8265342227	 0.0038454709	 0.010747
N	 2.6618850379	-0.1415570748	 0.2092350824	-0.280581
C	 3.0798014277	 0.2757392693	 1.4377593234	 0.152514
O	 2.4220225925	 0.2288439376	 2.4536393746	-0.318785
H	 0.9313833747	 1.9697491981	-0.114711551	 0.11558
H	-0.8333146333	 1.8857535835	-0.144301901	 0.110808
H	 0.0545176627	 1.5971819441	 1.3660018963	 0.143293
H	-0.7187988502	-0.5997596614	 0.4003014972	 0.0892
H	 0.1728048798	-1.5092341223	-1.6663835808	 0.088856
H	 1.7770466803	 1.1147188521	-2.0357448327	 0.121419
H	 1.9248973467	-0.3278599378	-3.0468114242	 0.115005
H	 0.4312882763	 0.6125716575	-3.0583744933	 0.126415
H	 1.3840261907	-1.8187284121	 0.4476055982	 0.101143
H	 3.3453868595	-0.1502086305	-0.5326312295	 0.246586
H	 4.1114958497	 0.6828185555	 1.4002128054	 0.06969
52.1457	126.6109	151.9872	168.4211	199.895	223.4881	237.7852	315.9936	436.5503	508.9445	529.551	580.2847	752.2761	761.1333	811.8292	884.7171	959.7675	972.4701	1017.1025	1033.7695	1052.851	1101.2955	1127.8395	1152.0921	1158.0306	1186.5378	1219.6247	1287.3175	1374.3223	1378.4062	1415.0852	1422.4376	1431.5594	1448.7088	1487.6993	1491.5358	1502.7439	1509.5895	1513.2128	1811.5152	2919.501	3031.4028	3042.0444	3087.3599	3106.0362	3114.8049	3119.9889	3125.9995	3135.4789	3149.6313	3610.7702
CC1C(C)C1NC=O	C[C@H]1[C@@H](C)[C@H]1NC=O	
InChI=1S/C6H11NO/c1-4-5(2)6(4)7-3-8/h3-6H,1-2H3,(H,7,8)	InChI=1S/C6H11NO/c1-4-5(2)6(4)7-3-8/h3-6H,1-2H3,(H,7,8)/t4-,5+,6-
