18
gdb 19474	4.54586	1.50779	1.44467	1.4313	71.99	-0.2223	0.018	0.2402	931.6166	0.155267	-347.756819	-347.749765	-347.74882	-347.788123	27.905	
O	-0.1383830285	 1.4699217541	-0.1778903344	-0.422011
C	 0.0190612597	 0.0812061264	 0.0929167286	-0.130905
C	-1.3592113555	-0.549126606	-0.0011857004	 0.076903
C	-2.0157549017	-0.7172336871	-1.426033988	-0.06572
C	-1.1455260271	-2.0130853154	-1.575255603	-0.219619
C	-1.46913358	-2.1213555426	-0.0444118697	-0.095619
C	-2.9973862592	-2.264785499	-0.1092357369	-0.087714
C	-3.3533380376	-1.3474049211	-1.0140247269	-0.08621
H	 0.7212226275	 1.8917640207	-0.0892761445	 0.28596
H	 0.7326518564	-0.3763249242	-0.6066554646	 0.085377
H	 0.4130458122	-0.0821282654	 1.1100935997	 0.084169
H	-2.009300329	-0.0667277988	 0.7340838109	 0.074014
H	-2.0108006063	 0.085669209	-2.1613720066	 0.06747
H	-1.5403686635	-2.8018784358	-2.2192090801	 0.092273
H	-0.0932360725	-1.8276245072	-1.8045676229	 0.09252
H	-0.9094313122	-2.7677121188	 0.6327268321	 0.05503
H	-3.600787073	-2.9547206311	 0.4632500709	 0.096735
H	-4.3312267597	-1.0764868476	-1.3859224141	 0.097346
80.6135	168.2763	244.882	306.8524	390.9599	493.1969	529.7756	556.8756	690.3323	725.4832	813.1745	833.9142	842.7577	899.9276	909.7989	927.6156	940.9814	982.498	1021.7827	1056.4302	1078.5099	1080.6855	1094.3652	1110.0155	1145.2639	1192.0491	1218.6519	1233.919	1240.7281	1248.2936	1263.2289	1271.8129	1322.4192	1375.8982	1459.5548	1499.4237	1525.2434	1621.6651	2961.1895	3008.4078	3062.6394	3071.9264	3107.0869	3122.2151	3131.5234	3218.0054	3245.2494	3828.0432
OCC1C2CC1C=C2	OC[C@H]1[C@H]2C[C@@H]1C=C2	
InChI=1S/C7H10O/c8-4-7-5-1-2-6(7)3-5/h1-2,5-8H,3-4H2	InChI=1S/C7H10O/c8-4-7-5-1-2-6(7)3-5/h1-2,5-8H,3-4H2/t5-,6+,7+
