14
gdb 129050	2.65504	1.69532	1.08806	2.0664	76.88	-0.2512	-0.0774	0.1737	1038.4318	0.101787	-432.804987	-432.797585	-432.796641	-432.837713	27.416	
N	-0.1290180468	 1.2929811883	 0.5829201951	-0.468
C	-0.004026186	 0.1180515413	 0.0945893081	 0.244927
C	 1.2531960159	-0.4924902602	-0.3157126408	-0.199847
C	 1.5034448353	-1.6314636657	-0.9779864419	 0.081409
O	 0.7208133435	-2.5503294332	-1.5907641402	-0.239718
N	-0.6418719147	-2.4392202545	-1.8385227065	-0.053868
C	-1.3987798744	-1.6468513229	-1.1792088497	-0.014574
C	-1.2463852945	-0.7124504403	-0.0335772641	 0.217513
N	-2.1827142647	-0.5773549959	 0.8205083888	-0.425543
H	 0.7805148978	 1.7614486928	 0.6161125455	 0.221722
H	 2.1466183894	 0.0412640578	-0.0033015206	 0.112807
H	 2.5305285735	-1.9495504516	-1.1293765067	 0.143766
H	-2.4315129113	-1.7483981556	-1.5169251044	 0.149093
H	-2.978691233	-1.1799939302	 0.5907104475	 0.230314
49.5953	86.8814	284.7383	331.5939	351.2734	413.2816	440.377	486.8663	587.9596	661.5743	734.5032	808.5981	820.0653	836.6293	897.9402	902.231	930.6033	958.6716	973.8788	991.5402	1098.0811	1149.6675	1319.8029	1325.5612	1352.5569	1408.1479	1439.123	1655.8027	1661.0979	1685.3026	1698.2019	3124.8198	3164.3648	3192.1874	3423.351	3432.2926
N=C1C=CON=CC1=N	[NH]C1=C[CH]ON=C[C]1[NH]	
InChI=1S/C5H5N3O/c6-4-1-2-9-8-3-5(4)7/h1-3,6-7H	InChI=1S/C5H5N3O/c6-4-1-2-9-8-3-5(4)7/h1-3,6-7H
