15
gdb 31934	4.35678	0.99716	0.8176	7.2335	79.44	-0.2124	-0.0571	0.1553	1334.5766	0.112438	-453.977178	-453.968704	-453.96776	-454.010898	29.633	
C	 0.0238774704	 1.4945724479	-0.1926893492	-0.334809
N	 0.1850718449	 0.0634027231	 0.0236923024	-0.397344
C	 0.6188499478	-0.7585903119	-0.9695279751	 0.412098
C	 0.6054646514	-2.1278247579	-1.1540263934	-0.202918
N	 1.2481515372	-2.4183202261	-2.3232796293	-0.255597
C	 1.6268234724	-1.2762238421	-2.8181766162	 0.272356
O	 1.2569130515	-0.2020516176	-2.0131409691	-0.19578
C	 2.3454542577	-0.9424853411	-4.0387449796	 0.077318
O	 2.7401168429	-1.7458513218	-4.8529116616	-0.266438
H	 0.9656435525	 1.920887023	-0.5439939886	 0.159002
H	-0.7579736482	 1.7324928474	-0.9267121856	 0.133995
H	-0.230936541	 1.961785391	 0.7601271562	 0.138878
H	-0.4655460081	-0.366828051	 0.6614379718	 0.261553
H	 0.1785891479	-2.8872024808	-0.5188035555	 0.121185
H	 2.5028949905	 0.1514596277	-4.1565994072	 0.076501
80.6558	108.505	146.5754	153.0162	242.2226	254.0449	326.0624	412.1079	484.8111	517.9798	684.0713	715.9793	739.5633	790.7591	801.873	968.6879	1004.6976	1017.0004	1083.3708	1113.6724	1149.7697	1167.9927	1255.1728	1317.074	1378.4938	1432.6321	1450.1754	1487.292	1494.3012	1515.9112	1562.2166	1647.4113	1790.7117	2898.8039	3012.9285	3103.9062	3144.5606	3262.9811	3636.7911
CNC1=CN=C(O1)C=O	CNc1cnc(o1)C=O	
InChI=1S/C5H6N2O2/c1-6-4-2-7-5(3-8)9-4/h2-3,6H,1H3	InChI=1S/C5H6N2O2/c1-6-4-2-7-5(3-8)9-4/h2-3,6H,1H3
