19
gdb 38165	2.60612	1.92138	1.28336	1.6168	80.05	-0.2226	0.0171	0.2397	1006.8216	0.161282	-385.866789	-385.859501	-385.858557	-385.898731	29.332	
C	-0.0405915964	 1.4791673698	 0.1023851098	-0.365213
C	 1.2987294136	 0.7292735276	-0.0321589017	-0.173066
C	 2.177879996	 0.5569820122	 1.1540147348	-0.052408
C	 2.0124258289	-0.4407328222	 2.0255968209	-0.069524
C	 0.9563722877	-1.518123698	 1.885658413	-0.283872
C	-0.2851960829	-1.0366216759	 1.1149921729	-0.133493
C	-0.8164032978	-1.8730980975	-0.0757988566	-0.101008
O	-0.5601371571	-0.7933437181	-1.0098772212	-0.318106
C	 0.0041421118	-0.0060503316	 0.0322055955	 0.473885
H	-0.2824371555	 1.9539342722	 1.0485886268	 0.112872
H	-0.3858451919	 2.004672268	-0.782173167	 0.121347
H	 1.7828069866	 0.8311361386	-0.9996778871	 0.101251
H	 2.9700286997	 1.2864595457	 1.3079953749	 0.087202
H	 2.6815122412	-0.5240857958	 2.8780524319	 0.08802
H	 1.4031219697	-2.3783725336	 1.3658779396	 0.115168
H	 0.6729338463	-1.8911977773	 2.8756377679	 0.105915
H	-1.074105118	-0.7265851501	 1.8050202012	 0.083965
H	-0.2230868197	-2.7642887062	-0.3157675208	 0.10159
H	-1.8784059123	-2.1399193378	-0.0512332948	 0.105473
57.1414	169.2428	279.0867	348.1394	373.3361	455.1942	482.8953	524.955	567.7257	715.265	752.1629	798.3178	825.9944	874.4488	892.9643	924.4883	950.1766	978.69	993.3651	997.2986	1006.4376	1032.9325	1073.1763	1078.5456	1092.8816	1123.4187	1158.1654	1187.5925	1222.2408	1231.1361	1237.1606	1300.537	1330.7546	1351.5916	1382.5036	1404.328	1419.6775	1480.4308	1482.9542	1525.5579	1704.2836	3001.3197	3017.4675	3053.1359	3064.2701	3080.268	3120.204	3139.9427	3148.2917	3168.3681	3214.2728
C1C2C=CCC3COC123	C1[C@H]2C=CC[C@@H]3CO[C@]123	
InChI=1S/C8H10O/c1-2-6-4-8(6)7(3-1)5-9-8/h1-2,6-7H,3-5H2	InChI=1S/C8H10O/c1-2-6-4-8(6)7(3-1)5-9-8/h1-2,6-7H,3-5H2/t6-,7-,8-/m1/s1
