21
gdb 90410	2.23313	1.58175	1.30008	1.7998	78.59	-0.2251	0.0732	0.2983	1120.5972	0.179934	-424.19342	-424.183803	-424.182859	-424.226892	37.019	
C	-0.0780674142	 1.5930395041	 0.0666208291	-0.427487
C	 0.1869866419	 0.1006151108	 0.0624040825	 0.103313
O	 1.3327786298	-0.3246628051	-0.7524292663	-0.33271
C	 1.7779723556	-1.1827798849	 0.308367471	-0.046834
C	 2.2318993012	-0.3280883232	 1.4454117829	 0.365879
C	 2.9613734186	-0.9931616576	 2.5877969469	-0.449666
O	 2.7761318597	 0.9334337028	 1.1693406283	-0.476723
C	 0.7355710431	-0.6355827359	 1.2899594656	 0.16867
C	-0.1569432964	-1.2668910101	 2.3207497217	-0.505621
H	 0.7469070117	 2.1491555333	 0.5130852525	 0.140278
H	-0.2478331016	 1.9498754895	-0.9547214672	 0.125103
H	-0.9858290348	 1.7980460877	 0.6448461322	 0.120424
H	-0.6965865964	-0.4331698507	-0.315844744	 0.082224
H	 2.121199494	-2.178962881	 0.0457248155	 0.097507
H	 4.0354589603	-0.9810656264	 2.3820538978	 0.129259
H	 2.7899089543	-0.4585615958	 3.5277003831	 0.12851
H	 2.6487451263	-2.031855991	 2.7222158061	 0.117352
H	 2.6769586594	 1.0526962966	 0.2138430566	 0.289599
H	-0.6369202552	-0.5003805998	 2.9415381347	 0.126667
H	-0.9523078193	-1.8554372608	 1.8481763086	 0.118885
H	 0.3907258119	-1.9302350524	 2.9944077124	 0.125372
148.9303	155.6795	187.4519	196.6188	215.0639	224.234	268.5097	303.0001	357.7809	405.0963	425.5016	507.9414	570.2643	589.8647	655.1737	670.5226	753.9047	841.5396	881.3621	906.8229	974.5682	984.2986	1024.9072	1029.8373	1088.387	1101.3223	1126.2512	1134.3901	1150.9873	1216.3738	1231.6761	1264.8761	1288.1904	1378.0221	1395.7526	1407.4537	1418.9436	1428.2172	1444.2437	1481.1302	1486.9474	1489.1934	1496.3177	1505.4314	1511.8883	2997.4956	3022.2173	3040.1028	3041.5442	3074.8423	3100.8438	3107.9371	3113.4064	3124.1164	3147.8252	3155.5586	3731.2901
CC1OC2C(C)(O)C12C	C[C@H]1O[C@H]2[C@@](C)(O)[C@@]12C	
InChI=1S/C7H12O2/c1-4-6(2)5(9-4)7(6,3)8/h4-5,8H,1-3H3	InChI=1S/C7H12O2/c1-4-6(2)5(9-4)7(6,3)8/h4-5,8H,1-3H3/t4-,5-,6+,7-/m1/s1
