19
gdb 50347	2.87028	1.55091	1.49211	3.4598	74.33	-0.2415	-0.0237	0.2179	983.2672	0.161267	-423.046106	-423.03875	-423.037806	-423.078122	28.985	
O	-0.2080506235	 0.0368172213	-0.0807419502	-0.241725
C	-0.0297346177	 1.2038270313	 0.1471804549	 0.142289
C	 1.284156489	 1.9427653993	-0.0137774335	 0.039721
O	 2.3960655522	 1.0623483804	-0.1315070634	-0.272913
C	 3.0589486217	 1.3996044377	-1.3653724841	 0.111731
C	 2.1860533493	 0.8918424349	-2.5285103825	-0.214022
C	 1.009680679	 1.9222248143	-2.5238208585	-0.222889
C	 1.3483238671	 2.8145273087	-1.3040774347	-0.069984
C	 2.8835887191	 2.9226891848	-1.4302214588	-0.228439
H	-0.8593552521	 1.8623363208	 0.5006481723	 0.068341
H	 1.4024317815	 2.580648109	 0.8788469572	 0.086744
H	 4.0723687209	 1.0012686692	-1.3190071651	 0.078258
H	 2.7328784305	 0.8928559508	-3.4762012531	 0.094899
H	 1.8478651085	-0.1251914943	-2.3228056187	 0.129634
H	 1.0043141355	 2.5298170276	-3.433376872	 0.099307
H	 0.0330673714	 1.4407275008	-2.4465324951	 0.118664
H	 0.7855372798	 3.7457751044	-1.235030438	 0.072972
H	 3.3659008612	 3.442176793	-0.5986729504	 0.105414
H	 3.2009236065	 3.3628644958	-2.3793175862	 0.101999
87.3617	115.3012	241.2592	277.1679	374.0074	426.7521	465.8262	566.5215	724.7007	751.615	789.1218	816.4328	823.6817	862.3571	891.2867	938.6224	949.4417	954.9272	964.4651	982.7023	996.6653	1044.1298	1076.2833	1093.4734	1149.6191	1175.8533	1189.5569	1225.3554	1253.85	1273.2293	1290.4977	1310.5385	1332.7737	1336.7915	1345.6132	1369.2222	1422.2794	1476.193	1487.0772	1511.4832	1837.9659	2843.1138	2959.8325	3055.6247	3062.6048	3067.1394	3109.4986	3114.7112	3120.1957	3124.8348	3128.2878
O=CC1OC2CCC1C2	O=C[C@H]1O[C@H]2CC[C@@H]1C2	
InChI=1S/C7H10O2/c8-4-7-5-1-2-6(3-5)9-7/h4-7H,1-3H2	InChI=1S/C7H10O2/c8-4-7-5-1-2-6(3-5)9-7/h4-7H,1-3H2/t5-,6+,7-/m1/s1
