19
gdb 63781	3.4407	1.25805	1.16871	4.2052	74.9	-0.2706	0.0092	0.2798	1127.9115	0.158633	-423.048331	-423.039933	-423.038988	-423.081099	32.351	
C	 0.3490899248	 1.43092751	 0.0860089948	-0.447268
C	 0.0621196138	-0.0635476108	 0.0015328315	 0.302624
C	-1.4231524081	-0.3430105805	-0.2389943889	-0.443131
C	 0.9731787716	-0.8977391458	-0.9703426182	-0.296944
C	 1.3825902923	-1.8365488747	 0.210645	-0.227697
C	 0.5846738312	-0.9338420138	 1.18068161	 0.080551
O	 1.8389970224	-0.4533985912	 1.7631216684	-0.257871
C	 2.5893322762	-1.2974358769	 0.9675725521	 0.450735
O	 3.7692619795	-1.4355939549	 0.9753626004	-0.324406
H	 1.3990139738	 1.6229083033	 0.319006816	 0.135231
H	 0.1133182529	 1.9184393914	-0.8664385876	 0.115996
H	-0.2592144593	 1.9055127204	 0.8640498746	 0.118061
H	-1.7454055002	 0.0813170799	-1.1956264818	 0.122717
H	-1.6339901358	-1.4182068748	-0.2644378129	 0.115651
H	-2.0375747564	 0.1006403416	 0.552263136	 0.12062
H	 0.4182887808	-1.4110516518	-1.757914528	 0.113925
H	 1.8046208346	-0.3569261533	-1.4271973402	 0.121638
H	 1.2830059181	-2.9134507876	 0.0995126648	 0.108439
H	-0.1006190422	-1.2704983505	 1.9585452391	 0.09113
82.2065	172.4093	210.5879	225.9407	258.8927	310.1207	358.3219	365.328	450.8411	495.872	604.1988	707.9848	773.0926	800.4003	853.8074	877.8675	899.4192	934.1818	943.8611	963.2886	989.7523	994.794	1035.6345	1078.5759	1110.4306	1167.8591	1212.7098	1219.3569	1234.1266	1242.37	1279.2514	1303.0899	1325.9321	1400.9643	1421.1484	1481.8032	1486.3282	1486.6136	1501.019	1507.8779	1935.6433	3023.4327	3031.9865	3071.5144	3090.7786	3092.8718	3100.195	3117.3035	3123.0823	3125.4259	3151.2609
CC1(C)CC2C1OC2=O	CC1(C)C[C@@H]2[C@H]1OC2=O	
InChI=1S/C7H10O2/c1-7(2)3-4-5(7)9-6(4)8/h4-5H,3H2,1-2H3	InChI=1S/C7H10O2/c1-7(2)3-4-5(7)9-6(4)8/h4-5H,3H2,1-2H3/t4-,5-/m1/s1
