19
gdb 43627	5.38117	0.80688	0.73256	1.1317	75.89	-0.2469	-0.0241	0.2228	1497.9967	0.158316	-423.008232	-422.999555	-422.998611	-423.043612	31.22	
O	-0.000292402	-0.0090527111	-0.1555427875	-0.284857
C	-0.0133179499	 1.1686999724	 0.0493102216	 0.407167
C	-1.1311898617	 2.1955344992	 0.2940594107	-0.369881
C	-0.0306942897	 3.2024697642	 0.7674371237	 0.009692
C	 1.0828567676	 2.2254348053	 0.2629465755	-0.369868
C	-0.0578293687	 4.5935016658	 0.1698855977	-0.038708
C	-1.1000182829	 5.5932937562	 0.7274238683	-0.086325
O	-0.0695341756	 6.508555131	 1.1480032046	-0.269522
C	 0.9726840894	 5.6210039345	 0.6979694151	-0.086315
H	-1.6141057807	 2.4925693608	-0.6445127702	 0.129887
H	-1.9082026489	 1.9027567958	 1.0044615472	 0.132315
H	-0.0162566828	 3.2699757833	 1.8601232926	 0.085787
H	 1.8871744416	 1.9540308764	 0.9510958297	 0.132315
H	 1.5309717539	 2.5350460971	-0.6887325968	 0.129887
H	-0.0724972745	 4.5284889578	-0.9229899137	 0.075929
H	-1.7784681369	 6.0462582958	-0.0055153052	 0.102926
H	-1.6923112254	 5.2221831818	 1.5752106044	 0.098322
H	 1.5985242106	 5.2661769236	 1.5284500811	 0.098323
H	 1.6176929566	 6.0916649501	-0.0537699587	 0.102927
32.8489	47.873	71.0939	158.9158	302.701	313.4892	388.1201	415.5758	499.8158	654.1053	661.7469	723.4915	829.3084	890.116	891.4106	928.0662	947.8343	980.1567	989.0973	1018.4759	1041.0383	1055.8157	1096.395	1113.2133	1151.339	1159.4149	1165.1305	1193.2673	1234.7791	1247.2757	1262.0133	1267.3472	1305.1678	1313.297	1379.3596	1412.9773	1425.6725	1447.1412	1513.188	1538.7448	1896.8098	2998.4605	3009.3367	3038.5378	3043.8174	3047.5522	3049.149	3051.2294	3067.416	3111.5513	3112.1458
O=C1CC(C1)C1COC1	O=C1CC(C1)C1COC1	
InChI=1S/C7H10O2/c8-7-1-5(2-7)6-3-9-4-6/h5-6H,1-4H2	InChI=1S/C7H10O2/c8-7-1-5(2-7)6-3-9-4-6/h5-6H,1-4H2
