14
gdb 52646	1.98244	1.17703	0.82687	2.5322	73.07	-0.2739	-0.101	0.1729	1374.9572	0.097094	-436.668811	-436.658707	-436.657763	-436.706399	33.146	
C	 0.120770072	 1.4522642575	-0.0114653166	-0.499456
C	 0.0386372031	 0.0008143346	 0.0064817271	 0.051144
C	-0.0314495072	-1.2012280673	 0.0376688237	 0.081126
C	-0.1082256987	-2.6671996494	 0.0292468839	-0.123363
O	-1.4087480406	-3.1832146953	 0.0499344716	-0.399694
C	 0.6167678472	-3.1344653764	-1.2445747121	 0.277515
O	 0.0273608547	-3.6663445182	-2.1505711069	-0.281401
C	 2.059264149	-2.8702335077	-1.307071034	 0.257694
N	 3.2018427715	-2.6951080872	-1.3294887746	-0.292185
H	 1.164839921	 1.7825555429	-0.0025332869	 0.163738
H	-0.3548651443	 1.8651844653	-0.9070622604	 0.159609
H	-0.37506439	 1.8844506966	 0.8640646844	 0.161403
H	 0.4373875183	-3.067257822	 0.8965284941	 0.14319
H	-1.644803316	-3.3774860535	-0.8694999434	 0.300681
16.2001	45.8088	70.1505	140.6393	156.7478	234.2305	276.1769	300.0721	335.4029	349.9168	432.0764	460.0181	559.5202	591.155	681.9725	835.7965	862.0512	1049.8214	1052.1232	1061.4124	1121.2846	1167.7638	1250.3675	1317.5109	1412.1151	1423.7433	1472.6196	1474.7669	1794.8248	2341.6572	2361.526	3006.5146	3034.5044	3099.6004	3100.3289	3728.7969
CC#CC(O)C(=O)C#N	CC#C[C@@H](O)C(=O)C#N	
InChI=1S/C6H5NO2/c1-2-3-5(8)6(9)4-7/h5,8H,1H3	InChI=1S/C6H5NO2/c1-2-3-5(8)6(9)4-7/h5,8H,1H3/t5-/m1/s1
