20
gdb 121488	6.07211	0.52576	0.50495	0.4733	83.	-0.2601	-0.0179	0.2422	2234.5379	0.167519	-440.330159	-440.319363	-440.318419	-440.367819	36.564	
C	 0.0955931095	 1.5154968228	 0.1307983081	-0.381164
C	 0.0776953303	-0.0116901864	 0.0364126476	-0.154156
C	 0.647690719	-0.5239555305	-1.2913128728	-0.139671
N	 0.6960231245	-1.9770878247	-1.3051710387	-0.197945
C	 0.0474840674	-2.5647488497	-2.2025426765	 0.103991
O	 0.0678682613	-3.9400468393	-2.2313602472	-0.220639
C	-0.6486482053	-4.5757658949	-3.2168608179	 0.440724
C	-0.4921697878	-6.0653999195	-3.0734208947	-0.482707
O	-1.2928304279	-4.0038543542	-4.0523779068	-0.32926
H	 1.116000856	 1.9066933957	 0.0512784656	 0.116298
H	-0.4969526044	 1.9731042237	-0.6692959292	 0.115347
H	-0.3170483975	 1.8562527215	 1.0849469814	 0.116417
H	 0.6566051955	-0.4524035917	 0.8555507436	 0.112497
H	-0.947995565	-0.3841564477	 0.1471997763	 0.098972
H	 0.0640877061	-0.1130145146	-2.1331255343	 0.085987
H	 1.6763445029	-0.1564962315	-1.4021071089	 0.109846
H	-0.5527970705	-2.1175963673	-2.9976446557	 0.133453
H	-0.8420177187	-6.3822703649	-2.0868111508	 0.159787
H	-1.0616098252	-6.5676275991	-3.8541106487	 0.152323
H	 0.5652235799	-6.3361060675	-3.1432000404	 0.159901
42.6944	56.6102	78.1123	90.782	122.6233	159.1351	224.1467	244.3054	295.6214	353.4825	365.9177	471.7788	582.8322	595.8994	645.8533	759.2082	890.3277	895.9963	931.9728	999.6365	1003.1876	1041.6932	1063.9885	1075.7621	1130.2642	1148.6542	1188.1418	1232.0958	1268.1796	1317.5302	1327.4968	1367.432	1396.6826	1401.9807	1413.5543	1466.441	1473.0159	1487.3731	1497.3734	1500.0029	1513.3555	1771.182	1845.9468	2954.3881	3028.2239	3030.0659	3038.659	3058.1065	3071.0758	3098.8586	3105.8723	3113.1409	3123.1537	3172.6988
CCCN=COC(C)=O	CCCN=COC(=O)C	
InChI=1S/C6H11NO2/c1-3-4-7-5-9-6(2)8/h5H,3-4H2,1-2H3	InChI=1S/C6H11NO2/c1-3-4-7-5-9-6(2)8/h5H,3-4H2,1-2H3
