13
gdb 9945	3.5696	1.55505	1.47566	3.5559	55.3	-0.2757	-0.0069	0.2688	870.1806	0.094123	-435.712226	-435.704575	-435.703631	-435.743902	28.399	
O	-0.1575786494	 1.3799571588	-0.1196942502	-0.427301
C	 0.011827819	 0.0043288836	-0.0861878148	 0.009021
C	-0.3257701682	-0.6910137092	 1.2054570516	 0.007482
O	-0.728301651	 0.1462592361	 2.2398124744	-0.432266
C	-1.3003570059	-0.794535564	 0.0259596076	 0.183473
O	-2.4586482255	-0.0345703531	 0.172708161	-0.461753
C	-1.4453379751	-2.0396740484	-0.676945008	 0.266465
N	-1.5183201278	-3.0500874972	-1.2357542853	-0.334946
H	-0.1831574029	 1.6682242755	 0.8072909656	 0.303726
H	 0.7941980665	-0.3762416639	-0.7341041569	 0.137407
H	 0.2282999872	-1.5714729371	 1.5146350432	 0.135404
H	-1.6898568419	 0.2461209409	 2.1565224746	 0.307044
H	-2.277635375	 0.816847648	-0.2566664628	 0.306245
137.3903	160.8335	222.1924	231.5269	303.0215	397.7032	414.7596	465.9414	481.3988	567.1688	612.9571	671.3332	684.3051	734.864	846.4958	875.4995	1029.0919	1070.0557	1117.5279	1153.5139	1202.2581	1257.7081	1328.8722	1363.8792	1378.7653	1384.8518	1434.6432	2348.9215	3166.9596	3177.1131	3686.2629	3701.1809	3706.1902
OC1C(O)C1(O)C#N	O[C@H]1[C@@H](O)[C@]1(O)C#N	
InChI=1S/C4H5NO3/c5-1-4(8)2(6)3(4)7/h2-3,6-8H	InChI=1S/C4H5NO3/c5-1-4(8)2(6)3(4)7/h2-3,6-8H/t2-,3+,4-
