18
gdb 79105	2.47429	1.97061	1.51693	2.7987	74.99	-0.2104	-0.0176	0.1928	934.0478	0.148685	-401.923214	-401.915863	-401.914919	-401.954846	29.227	
C	-0.2796964938	 1.4828508453	 0.1308943948	-0.339902
N	 0.0944619181	 0.0815230196	-0.0003471463	-0.075853
C	 0.5929310896	-0.4605648262	-1.2573000513	-0.01968
C	 2.0959163886	-0.2718845283	-1.4490453385	-0.065203
C	 2.8342410513	 0.7739232545	-0.6352503141	-0.358399
C	 2.3662890617	 0.5241392164	 0.8102688646	 0.415556
O	 2.7616913404	 1.0881285831	 1.7973751404	-0.325182
C	 1.254286009	-0.5255769919	 0.7333936553	-0.116325
C	 1.564422636	-1.3582266639	-0.5329942281	-0.125163
H	 0.477935173	 2.2120479793	-0.1946700316	 0.107476
H	-1.1832016783	 1.6516169575	-0.4646848343	 0.124339
H	-0.5246040835	 1.6897434597	 1.1770694943	 0.13598
H	-0.0791073146	-0.6669163578	-2.0842859715	 0.097155
H	 2.4914387385	-0.5781487111	-2.4115496989	 0.092432
H	 3.9177951666	 0.6145416846	-0.6850610456	 0.132727
H	 2.651269797	 1.8150944123	-0.9196180504	 0.130507
H	 1.0002835433	-0.9961931335	 1.6833739187	 0.086559
H	 1.7423877771	-2.4209832495	-0.6020240277	 0.102973
107.5918	162.2256	220.3958	275.8835	365.8215	433.2045	503.31	564.7816	616.0886	662.1433	730.2408	766.5629	798.6621	812.2241	839.4065	909.8399	946.2202	977.5662	993.9393	1015.6869	1050.503	1068.0767	1100.4837	1148.8958	1155.1022	1169.7924	1199.1406	1221.3606	1236.9573	1242.088	1267.4577	1279.3835	1334.6195	1391.1986	1447.3486	1453.7249	1488.5998	1508.6964	1839.3821	2985.6983	3044.4367	3066.0932	3084.9056	3107.9681	3113.1333	3158.1603	3173.6836	3226.2821
CN1C2C3CC(=O)C1C23	CN1[C@H]2[C@H]3CC(=O)[C@@H]1[C@@H]23	
InChI=1S/C7H9NO/c1-8-6-3-2-4(9)7(8)5(3)6/h3,5-7H,2H2,1H3	InChI=1S/C7H9NO/c1-8-6-3-2-4(9)7(8)5(3)6/h3,5-7H,2H2,1H3/t3-,5+,6-,7+/m0/s1
