16
gdb 56067	6.08007	0.55178	0.53109	3.2818	72.64	-0.2534	-0.0345	0.219	2005.0451	0.119781	-475.061813	-475.051788	-475.050844	-475.098939	32.933	
C	-0.1470848166	 1.4483305421	-0.0441441787	-0.48358
C	 0.1101596049	-0.025006249	 0.1044840475	 0.443039
O	 0.4780370349	-0.594270715	 1.0928960393	-0.322193
O	-0.1429592051	-0.6608169204	-1.0946948221	-0.219713
C	 0.0332335316	-2.0173410111	-1.1493425964	 0.119381
N	-0.1903939726	-2.6039987075	-2.23670091	-0.212376
C	-0.0076078091	-4.0390550105	-2.2681211338	-0.238936
C	-1.2462815626	-4.7225888098	-2.8375658847	 0.15652
O	-1.5424768508	-5.8640727421	-2.6061575421	-0.232393
H	 0.0580627111	 1.9498955631	 0.9003751847	 0.156324
H	 0.4863315601	 1.8578108438	-0.8361357375	 0.162772
H	-1.1859903765	 1.6147690195	-0.3429432792	 0.163149
H	 0.3630578842	-2.4598042195	-0.2072221499	 0.142261
H	 0.8109714659	-4.2714239603	-2.9669751914	 0.145236
H	 0.2436349585	-4.5013089313	-1.3022044435	 0.122936
H	-1.849581898	-4.073605522	-3.5086874622	 0.097571
40.722	51.0548	86.7148	95.5706	135.9029	143.1877	238.6405	316.438	349.7064	425.5181	480.8848	592.4962	606.1682	644.8466	740.8528	927.3732	998.5052	1002.1425	1041.4861	1064.3943	1084.6957	1113.2083	1172.067	1222.3268	1235.4353	1321.5846	1377.0303	1397.3668	1407.5922	1456.5518	1465.8297	1472.2258	1772.0573	1841.5493	1854.0711	2905.9589	2987.1205	3031.555	3059.1425	3118.5653	3124.2731	3174.9812
CC(=O)OC=NCC=O	CC(=O)OC=NCC=O	
InChI=1S/C5H7NO3/c1-5(8)9-4-6-2-3-7/h3-4H,2H2,1H3	InChI=1S/C5H7NO3/c1-5(8)9-4-6-2-3-7/h3-4H,2H2,1H3
