14
gdb 33317	7.04941	0.7127	0.69539	3.385	81.8	-0.2655	-0.0516	0.2139	1531.5133	0.10103	-399.458967	-399.451549	-399.450605	-399.491613	27.445	
N	-0.045044017	-3.8119892519	-0.1117410175	-0.333481
C	-0.0333117084	-2.650500477	-0.0800161428	 0.201296
C	-0.0177310784	-1.286624104	-0.0410463653	 0.085124
C	-0.0034156266	-0.0774899969	-0.0060283955	 0.067001
C	 0.0096516086	 1.362312809	 0.031773926	-0.209163
C	 0.1236407361	 2.1444086753	 1.388088998	 0.054734
C	 1.5928599043	 1.6896582586	 1.5423512066	-0.236488
C	 1.3560307083	 2.1672694998	 0.0914896422	 0.054733
O	 0.5899425282	 3.3128268367	 0.6177181251	-0.298116
H	-0.7165840766	 1.8084145174	-0.6506333481	 0.130756
H	-0.6531898269	 2.2997447107	 2.1356414308	 0.117197
H	 2.2124014334	 2.3547951286	 2.1429394224	 0.124322
H	 1.7949188174	 0.6315049532	 1.715747671	 0.124889
H	 2.0602219474	 2.3500782107	-0.719143033	 0.117197
80.3836	84.8614	218.3411	229.9386	417.3348	435.0517	485.1015	573.3773	585.9944	591.7075	719.9265	815.1972	832.8461	878.685	885.8096	911.8276	933.6312	1003.4908	1058.7325	1082.3107	1130.7587	1169.6339	1183.4928	1195.9513	1210.3312	1249.8898	1269.0065	1345.8357	1490.3602	2260.2171	2392.7268	3085.5844	3101.5864	3131.8486	3137.0481	3168.1302
N#CC#CC1C2CC1O2	N#CC#C[C@H]1[C@H]2C[C@@H]1O2	
InChI=1S/C7H5NO/c8-3-1-2-5-6-4-7(5)9-6/h5-7H,4H2	InChI=1S/C7H5NO/c8-3-1-2-5-6-4-7(5)9-6/h5-7H,4H2/t5-,6+,7-
