22
gdb 61400	2.34814	1.14454	0.94635	3.8594	83.01	-0.2755	0.0258	0.3012	1374.7407	0.1901	-404.36973	-404.358699	-404.357754	-404.405691	40.428	
C	 0.1018136926	 0.8297465649	-1.3702529807	-0.39243
C	 0.010633302	 0.0180938225	-0.0743185704	-0.021414
O	-1.3382332042	-0.339314289	 0.120148854	-0.282499
C	-1.8498094925	-0.4716711004	 1.4709644505	 0.353391
C	-1.8995370036	 0.9058783257	 2.1486042493	-0.410295
C	-3.2672376964	-1.0055561966	 1.2491723464	-0.400446
C	-1.0266706856	-1.4670637501	 2.2983862053	-0.416841
C	 0.8773910462	-1.182937818	-0.1663057933	 0.279223
N	 1.5564650637	-2.1140117715	-0.2533362475	-0.332896
H	 1.1395537224	 1.0907669204	-1.592863977	 0.13463
H	-0.3035061943	 0.2482249513	-2.2013607099	 0.148002
H	-0.4860688835	 1.743651918	-1.2599270624	 0.130211
H	 0.3924564507	 0.6259217628	 0.7564304947	 0.114857
H	-2.4571733183	 1.6142856659	 1.5294409027	 0.122348
H	-2.3967998746	 0.8312073513	 3.1203947501	 0.12156
H	-0.9005609795	 1.3150413589	 2.3302121192	 0.113698
H	-3.2325754187	-1.9743834527	 0.74407944	 0.126411
H	-3.7866133412	-1.1266793703	 2.2039884837	 0.114025
H	-3.840392071	-0.3143208509	 0.6252472507	 0.12125
H	-0.0107746088	-1.107509325	 2.4878723261	 0.119765
H	-1.5041932145	-1.6221975817	 3.2707142661	 0.116973
H	-0.9572552009	-2.4318846555	 1.7898577023	 0.140477
41.954	85.5934	165.4118	190.2181	204.1742	220.9971	256.246	269.7173	280.2381	316.7046	340.1401	349.0774	418.0988	458.1694	492.6979	569.7447	607.865	745.5981	816.7567	856.7052	911.8028	923.3157	959.2158	982.0597	1042.2961	1045.7346	1078.9637	1119.3278	1142.1728	1218.2901	1255.8783	1277.0603	1328.8122	1363.3478	1399.8528	1401.3813	1405.8869	1428.1943	1472.087	1480.6315	1481.6294	1484.5331	1494.4613	1499.4043	1501.8154	1516.4952	2351.7983	3022.8965	3038.006	3042.3602	3048.8511	3054.9698	3102.9227	3109.6337	3116.9374	3123.4166	3124.2103	3128.9222	3136.7712	3141.8605
CC(OC(C)(C)C)C#N	C[C@@H](OC(C)(C)C)C#N	
InChI=1S/C7H13NO/c1-6(5-8)9-7(2,3)4/h6H,1-4H3	InChI=1S/C7H13NO/c1-6(5-8)9-7(2,3)4/h6H,1-4H3/t6-/m1/s1
