16
gdb 81906	2.32058	1.94172	1.15576	5.9528	71.07	-0.2363	-0.0632	0.1731	1032.1485	0.124737	-437.921522	-437.913575	-437.912631	-437.954151	29.403	
C	-0.0878793278	 1.4085998122	-0.0668150268	-0.35041
N	-0.0157875138	-0.0275298438	 0.0979753809	-0.071394
C	-1.1867470897	-0.8648773212	 0.0648266782	-0.011158
C	-1.4220405189	-1.6120722391	-1.2131176166	-0.306563
C	-0.7151947343	-2.2917331298	-0.0324525444	-0.175523
C	 0.77764482	-2.2284106388	 0.0077004192	 0.331961
O	 1.5631378457	-3.1331049668	 0.0795686449	-0.29194
C	 1.1642695259	-0.7225295216	 0.0042809166	 0.277721
O	 2.2782053584	-0.2601701045	-0.0851310342	-0.362099
H	 0.9355475453	 1.7873387223	-0.0800305435	 0.171633
H	-0.5863340135	 1.6768243795	-1.0065634659	 0.131617
H	-0.6355753852	 1.8694755252	 0.7622814414	 0.132387
H	-2.0056038658	-0.5725937646	 0.7130025879	 0.117521
H	-2.4191841295	-1.9804830586	-1.4279180205	 0.137051
H	-0.835557349	-1.3339544602	-2.0823221218	 0.140632
H	-1.2156145778	-3.11072232	 0.4662746248	 0.128565
103.6872	138.5421	148.1082	205.2794	284.7154	327.1661	444.1031	494.7902	518.1469	564.8958	650.0111	722.2495	802.1848	834.0973	841.4133	938.3497	965.5474	991.2676	1050.0521	1055.3882	1094.9327	1105.6929	1154.8754	1160.1862	1193.7546	1281.2512	1318.2215	1343.2824	1416.1127	1450.6097	1479.1571	1491.8113	1514.3735	1821.2718	1857.3901	3021.1282	3078.3304	3134.6045	3145.4795	3171.3432	3210.4869	3228.9348
CN1C2CC2C(=O)C1=O	CN1[C@H]2C[C@H]2C(=O)C1=O	
InChI=1S/C6H7NO2/c1-7-4-2-3(4)5(8)6(7)9/h3-4H,2H2,1H3	InChI=1S/C6H7NO2/c1-7-4-2-3(4)5(8)6(7)9/h3-4H,2H2,1H3/t3-,4+/m1/s1
