14
gdb 47957	3.83786	0.76115	0.66242	3.1779	77.27	-0.273	-0.0799	0.1931	1606.7204	0.098721	-436.647262	-436.638219	-436.637275	-436.682948	29.876	
O	-0.2329966109	 0.2473219442	-0.6330362432	-0.217959
C	 0.081559145	 1.0976947069	 0.1654018002	 0.022978
C	 1.3179954863	 1.8403976195	 0.1075828473	 0.043063
C	 2.3473613597	 2.4743363829	 0.0868500024	 0.081695
C	 3.5599241707	 3.273386957	-0.0032471418	 0.216137
O	 3.5543871937	 4.3966371437	-0.4562633088	-0.309718
N	 4.6714778517	 2.6510218936	 0.54093876	-0.076505
C	 5.2787085614	 1.4307090619	 0.0345310884	-0.227284
C	 5.9897675186	 2.7507925981	-0.0431149522	-0.221495
H	-0.5697276642	 1.3732736036	 1.018382934	 0.114509
H	 5.5660183321	 0.7011053441	 0.7854420537	 0.139511
H	 4.8789294405	 1.0157968128	-0.8868241414	 0.146688
H	 6.0615654799	 3.2399387563	-1.0104033915	 0.149293
H	 6.7961741656	 2.9678929055	 0.6505573829	 0.139086
45.1064	60.1185	95.9513	119.1664	199.4152	220.9144	296.8529	309.7351	422.9576	560.8181	652.5387	724.7617	769.0006	815.0921	892.247	971.9472	1017.5989	1036.4069	1048.2698	1128.6362	1137.705	1163.8186	1174.3278	1200.4785	1396.5371	1417.5516	1495.7062	1523.3896	1760.9934	1770.664	2307.9527	2933.8475	3117.5235	3123.1728	3204.543	3217.9143
O=CC#CC(=O)N1CC1	O=CC#CC(=O)N1CC1	
InChI=1S/C6H5NO2/c8-5-1-2-6(9)7-3-4-7/h5H,3-4H2	InChI=1S/C6H5NO2/c8-5-1-2-6(9)7-3-4-7/h5H,3-4H2
