18
gdb 80029	3.2673	1.51706	1.31396	1.3139	76.09	-0.2366	-0.001	0.2356	1005.3708	0.149151	-401.878101	-401.870944	-401.87	-401.909206	29.867	
O	 0.1288832861	 1.4747902824	-0.0970840764	-0.443253
C	 0.0465832968	 0.0927665984	-0.0353352208	 0.187232
C	 0.1580362107	-0.6695144176	 1.3498540918	-0.227636
C	-1.0338653824	-0.0527007236	 2.0909841513	-0.115603
C	-2.0099643972	-0.0409595671	 1.1710334965	-0.092624
C	-1.3537318526	-0.6468702641	-0.071908091	-0.207369
C	-0.5659491414	-1.809937743	 0.5858082148	 0.451063
C	-0.0027765879	-3.0480975764	 0.0197084236	-0.342684
N	-1.0826777795	-3.0748911407	 1.0434065628	-0.394639
H	-0.4928924505	 1.8186857365	 0.5599456185	 0.274571
H	 0.7424439947	-0.3013339497	-0.779583993	 0.096288
H	 1.1046114565	-0.8086808495	 1.871540305	 0.063998
H	-1.0531294016	 0.2699707891	 3.1221463722	 0.104457
H	-3.0351506841	 0.2889501578	 1.2586168851	 0.107046
H	-1.9350813212	-0.7654740438	-0.9843509611	 0.069636
H	-0.3041991805	-3.4008317463	-0.9630989544	 0.12267
H	 1.0032011749	-3.3374776463	 0.3153480964	 0.11392
H	-0.7051308909	-3.3152996261	 1.9565518487	 0.232926
163.7717	249.8366	265.4574	272.8203	360.0776	464.9355	490.7004	577.0983	596.8965	608.2063	774.7307	780.5607	798.8944	805.0643	856.9638	891.6401	916.6088	930.8278	931.8357	942.1867	973.3644	995.8625	1043.0905	1088.726	1109.9369	1129.4417	1147.5623	1172.5305	1192.3792	1226.9982	1239.0673	1243.7776	1252.8896	1301.0846	1330.9717	1419.0295	1449.3905	1518.1468	1608.375	3098.0384	3101.1313	3122.5441	3139.349	3185.0345	3221.8608	3247.5697	3500.6098	3732.0114
OC1C2C=CC1C21CN1	O[C@H]1[C@H]2C=C[C@@H]1[C@]12CN1	
InChI=1S/C7H9NO/c9-6-4-1-2-5(6)7(4)3-8-7/h1-2,4-6,8-9H,3H2	InChI=1S/C7H9NO/c9-6-4-1-2-5(6)7(4)3-8-7/h1-2,4-6,8-9H,3H2/t4-,5+,6+,7-
