21
gdb 80450	2.37407	1.40047	1.17127	1.3699	84.52	-0.2178	0.0244	0.2422	1190.9445	0.181286	-387.095442	-387.086116	-387.085171	-387.12883	35.991	
C	-0.0904645271	 1.5263138233	 0.1240707684	-0.417888
C	 0.0877252418	 0.030110667	 0.0058951284	-0.067898
C	 0.7460605805	-0.6680287305	-1.1759951696	-0.120471
C	 1.6755680515	 0.1187500116	-2.096257796	-0.326531
C	 2.8308617352	 0.5392484805	-1.2000132863	 0.329921
C	 3.9466985924	 1.3949715424	-1.7110659569	-0.489741
C	 2.6667598604	 0.0654003603	 0.0402488223	-0.26337
C	 1.4002669462	-0.7122459584	 0.1908357245	 0.359186
O	 1.421122983	-1.9007079487	 0.9296059348	-0.46905
H	 0.8087576093	 2.0674105992	-0.1805373804	 0.121291
H	-0.9215898083	 1.8722119491	-0.5010733644	 0.114538
H	-0.3140069392	 1.8139081029	 1.1576493577	 0.110834
H	-0.7531019239	-0.5470571604	 0.387203363	 0.082886
H	 0.2518915581	-1.5527536291	-1.5591877681	 0.090104
H	 2.0287609613	-0.4942458038	-2.9364439337	 0.106604
H	 1.1825791786	 0.9922541321	-2.5454016436	 0.106225
H	 3.5799799207	 2.369421893	-2.0584909024	 0.124296
H	 4.7023445165	 1.5746471344	-0.9414827126	 0.123268
H	 4.4403895497	 0.9259119881	-2.5721181685	 0.124416
H	 3.3516345325	 0.2236808956	 0.8670247095	 0.081669
H	 1.2242019108	-1.6840522785	 1.8468602737	 0.279711
122.9746	162.6985	170.539	203.919	218.7067	265.8075	273.6375	302.1952	394.2755	420.6297	509.2706	535.9724	564.8143	637.4298	740.505	797.3973	856.7125	859.0323	893.4086	920.6346	977.5925	997.7945	1003.0673	1032.9166	1066.3156	1099.115	1112.7814	1129.9442	1166.9795	1191.5738	1219.1898	1243.9371	1311.7286	1323.7372	1339.9192	1353.7495	1410.2825	1412.8381	1442.7825	1473.4574	1478.4218	1489.3391	1496.0446	1499.5744	1705.9786	3008.9337	3015.8207	3028.9166	3034.6463	3059.0964	3083.0316	3109.1132	3110.1838	3126.7457	3182.263	3183.8724	3803.063
CC1C2CC(C)=CC12O	C[C@H]1[C@H]2CC(=C[C@@]12O)C	
InChI=1S/C8H12O/c1-5-3-7-6(2)8(7,9)4-5/h4,6-7,9H,3H2,1-2H3	InChI=1S/C8H12O/c1-5-3-7-6(2)8(7,9)4-5/h4,6-7,9H,3H2,1-2H3/t6-,7+,8+/m0/s1
