16
gdb 33766	3.79701	1.465	1.26164	1.891	74.49	-0.2515	0.0057	0.2572	990.8984	0.125348	-400.705161	-400.698105	-400.69716	-400.736333	28.585	
C	-0.0373157134	-1.1952810318	-0.0811803038	-0.330844
C	-0.0314812706	 0.005330883	-0.0430111487	 0.153588
C	 0.0190421092	 1.445004906	 0.0512303959	 0.259693
C	-0.2227613736	 2.1789931355	 1.4048718605	-0.267415
C	 0.6296793889	 3.324358463	 0.782947508	-0.015547
C	 1.3714285362	 2.2165173171	-0.0219125497	-0.267421
N	-0.210885093	 4.099597501	-0.1358570416	-0.257088
C	-0.8908126738	 3.3673189461	-0.9148029198	 0.10321
O	-0.8817050763	 2.0099929779	-0.9403497174	-0.265788
H	-0.0489852042	-2.2566825656	-0.1218606985	 0.192818
H	-1.2569840145	 2.3976284864	 1.6753718259	 0.119202
H	 0.292999122	 1.6627845627	 2.2155178534	 0.11986
H	 1.1972346316	 3.9863468813	 1.4344999148	 0.084071
H	 2.1335363689	 1.7061091889	 0.5682609965	 0.119861
H	 1.7484120651	 2.4683783767	-1.0144026493	 0.119202
H	-1.5689407526	 3.7707931118	-1.6619395462	 0.132598
144.292	150.743	315.8964	387.5906	426.6471	436.5308	519.0617	539.1073	590.353	615.7281	632.0929	683.6493	762.527	848.4161	876.6557	893.2045	919.8043	933.0969	958.446	980.5438	1036.9931	1074.8157	1115.8698	1146.9036	1174.6727	1200.7312	1232.8551	1248.8968	1290.0371	1334.4777	1377.012	1465.0753	1493.8413	1700.9738	2247.1638	3078.1297	3083.434	3123.9563	3147.3614	3150.5766	3182.3951	3500.9794
C#CC12CC(C1)N=CO2	C#C[C@@]12C[C@@H](C1)[N][CH]O2	
InChI=1S/C7H7NO/c1-2-7-3-6(4-7)8-5-9-7/h1,5-6H,3-4H2	InChI=1S/C7H7NO/c1-2-7-3-6(4-7)8-5-9-7/h1,5-6H,3-4H2/t6-,7+
