19
gdb 117238	4.02828	0.80156	0.7686	2.945	74.39	-0.269	-0.0041	0.2649	1582.5418	0.156552	-460.181936	-460.17202	-460.171075	-460.2179	34.667	
C	 0.5034811743	 1.5035371745	 0.6727822478	-0.392212
C	-0.0914431187	 0.2309740563	 0.1026481391	-0.044884
O	 0.7617074534	-0.2058785981	-0.9761425031	-0.246652
C	 0.374975138	-1.3286570612	-1.6109197657	 0.44291
O	-0.6036039622	-1.9703636287	-1.3236932632	-0.362199
C	 1.340201955	-1.631069702	-2.7210188637	-0.078648
O	 1.416060608	-2.9859457296	-3.1483822278	-0.233901
C	 0.8729098315	-2.046122727	-4.0679421428	 0.089936
C	-0.5720947628	-2.20146421	-4.4601583147	-0.435794
H	 1.5123047614	 1.3260920009	 1.0557762227	 0.132125
H	 0.5570486777	 2.2860162	-0.0893417866	 0.130425
H	-0.1188540765	 1.8662693524	 1.4961133925	 0.125613
H	-0.1497028396	-0.5673568194	 0.8489102687	 0.127415
H	-1.1017564091	 0.3870874083	-0.2884160576	 0.123779
H	 2.2915926789	-1.1090753012	-2.638739672	 0.107684
H	 1.5536705577	-1.7949781129	-4.8846935514	 0.09776
H	-1.1915596085	-2.4125803808	-3.5883798159	 0.166707
H	-0.9301700635	-1.2896474219	-4.9502544736	 0.119703
H	-0.6718121049	-3.0252009595	-5.1746327327	 0.130235
36.6451	69.7187	125.9461	137.0945	187.9641	219.4752	254.3648	287.8768	347.5377	376.5924	432.9034	456.3568	721.0262	774.5413	802.2189	808.5346	847.9915	887.93	938.1301	1001.1388	1043.9882	1058.6401	1087.1008	1135.8346	1167.2453	1171.0223	1182.6996	1216.8829	1288.4934	1291.984	1382.8352	1399.3872	1414.772	1428.0961	1455.975	1485.7645	1494.5648	1496.5615	1502.2767	1519.5007	1820.0242	3041.1892	3047.1928	3053.4112	3083.1359	3091.5068	3101.1731	3121.8993	3127.2583	3134.6924	3159.1046
CCOC(=O)C1OC1C	CCOC(=O)[C@H]1O[C@H]1C	
InChI=1S/C6H10O3/c1-3-8-6(7)5-4(2)9-5/h4-5H,3H2,1-2H3	InChI=1S/C6H10O3/c1-3-8-6(7)5-4(2)9-5/h4-5H,3H2,1-2H3/t4-,5-/m0/s1
