25
gdb 76333	1.76494	1.67409	1.15893	1.4838	87.63	-0.246	0.0592	0.3052	1249.1103	0.226874	-389.492688	-389.481843	-389.480899	-389.527242	41.747	
C	 0.874328743	 1.6732922746	 0.1081500992	-0.423846
C	 0.1297473105	 0.3430572848	-0.0002235445	-0.056574
C	 0.5091455181	-0.6148921731	-1.17941512	-0.004812
C	 1.1788331524	-0.0616211777	-2.4318218602	-0.414757
C	 1.314132979	-1.5318882122	-0.1857627071	 0.276094
C	 0.9985084375	-3.0243588109	-0.2745970332	-0.453395
C	 2.832052381	-1.3247949392	-0.1959542092	-0.465238
C	 0.5980395552	-0.7733753354	 0.9851300516	 0.112092
O	 1.315574727	-0.4302854481	 2.1475514024	-0.431025
H	 1.9613376941	 1.5734431467	 0.0196274448	 0.108585
H	 0.5549583316	 2.3653991881	-0.6774570741	 0.118796
H	 0.6641982989	 2.1455286621	 1.0733119081	 0.125469
H	-0.9427477179	 0.5537652852	 0.0634127219	 0.065543
H	-0.3916397028	-1.1574297278	-1.4885689431	 0.06574
H	 2.0839211375	 0.5099971694	-2.2075223366	 0.112287
H	 1.4610898861	-0.8710861174	-3.1143532432	 0.113424
H	 0.4977060887	 0.6014601068	-2.976752633	 0.113341
H	 1.3800526242	-3.4596763474	-1.2062035744	 0.10829
H	 1.4528635658	-3.5740816297	 0.558104032	 0.116518
H	-0.0818000536	-3.2024376309	-0.2422685994	 0.107736
H	 3.128966439	-0.2716012912	-0.1755272495	 0.10517
H	 3.2854913719	-1.8134521568	 0.672880737	 0.12307
H	 3.2779026025	-1.763198404	-1.0950421189	 0.116539
H	-0.2555678367	-1.3554042417	 1.3459867168	 0.079695
H	 2.0715395871	 0.1073148858	 1.8914294526	 0.281257
97.042	195.7553	200.9037	211.5638	222.45	226.9913	240.9695	245.8439	267.0058	289.0047	303.5047	348.8261	398.1053	490.2241	520.9509	560.2552	657.293	743.5476	787.1373	791.8632	874.4154	954.6003	973.3062	994.026	1005.9731	1018.4903	1029.5105	1050.9756	1112.9291	1144.0553	1181.4319	1186.7197	1203.1224	1234.6188	1270.628	1279.2729	1286.8928	1321.4373	1370.5598	1374.9817	1398.6495	1408.9358	1410.8637	1423.5085	1445.5585	1484.566	1486.0035	1493.2259	1495.6541	1499.4131	1507.5419	1513.4283	1515.5517	3016.2677	3026.0222	3030.1158	3031.8161	3037.2139	3042.7146	3063.3739	3080.9099	3087.8218	3090.1841	3094.1176	3099.0643	3102.0267	3102.8844	3111.2559	3820.2354
CC1C(C)C(C)(C)C1O	C[C@H]1[C@@H](C)C(C)(C)[C@H]1O	
InChI=1S/C8H16O/c1-5-6(2)8(3,4)7(5)9/h5-7,9H,1-4H3	InChI=1S/C8H16O/c1-5-6(2)8(3,4)7(5)9/h5-7,9H,1-4H3/t5-,6+,7-/m0/s1
