17
gdb 111569	3.55493	1.50638	1.31885	1.0723	66.84	-0.2396	0.0522	0.2919	990.1776	0.136226	-458.882283	-458.875147	-458.874202	-458.914322	27.593	
C	 0.0110536356	 1.2170829635	-0.2740723295	-0.239001
O	-0.0815590556	-0.0600037818	 0.3201376478	-0.247599
C	-1.3352436233	-0.6597505441	 0.1911778812	 0.188073
C	-1.7313341031	-1.1157858702	-1.2446080372	-0.037026
O	-0.5709159418	-1.8998615503	-1.6335289425	-0.278951
C	-1.0260524905	-2.8521898068	-0.674259001	 0.066792
C	-2.4959103231	-2.4561585054	-0.8297682526	 0.062257
O	-2.7457200716	-2.4448239339	 0.5773726483	-0.292416
C	-1.3331933513	-2.1094581052	 0.71006559	-0.036333
H	 0.9966204003	 1.6160394219	-0.0241120181	 0.131095
H	-0.0829944727	 1.1694653803	-1.3677888889	 0.116251
H	-0.7588621145	 1.9012690258	 0.1153750657	 0.104318
H	-2.1281427454	-0.0774624609	 0.6814482021	 0.078317
H	-2.0670058756	-0.4081332221	-1.9992538691	 0.08796
H	-0.5695948693	-3.8387633519	-0.7097069352	 0.101462
H	-3.2658481257	-2.8977607604	-1.4595287778	 0.100672
H	-0.8921458325	-2.3441918785	 1.6754959266	 0.094128
60.3636	169.7146	199.4193	274.2645	387.3795	481.8719	520.5153	613.0287	725.7051	763.958	799.2727	840.1463	845.7072	874.1995	943.2453	953.6818	963.498	986.9702	1024.5985	1033.4668	1080.6692	1108.7602	1147.5885	1162.3447	1175.6436	1183.4408	1197.922	1222.5531	1240.3616	1264.7973	1282.7226	1313.7279	1343.9767	1373.0006	1480.3625	1490.6826	1504.8101	2980.4845	3013.1194	3037.1439	3120.0305	3140.1175	3149.9403	3155.7735	3165.5354
COC1C2OC3C2OC13	CO[C@H]1[C@H]2O[C@@H]3[C@H]2O[C@H]13	
InChI=1S/C6H8O3/c1-7-2-3-5-6(8-3)4(2)9-5/h2-6H,1H3	InChI=1S/C6H8O3/c1-7-2-3-5-6(8-3)4(2)9-5/h2-6H,1H3/t3-,4-,5+,6+/m1/s1
