22
gdb 100896	2.40781	1.00269	0.86996	3.9395	83.53	-0.2292	0.0272	0.2564	1488.8285	0.193025	-400.519438	-400.508322	-400.507377	-400.55589	39.27	
C	 0.0027359763	 1.532936177	-0.0814439193	-0.319653
N	-0.0621072125	 0.0977966242	 0.1652543206	-0.290466
C	-1.373740864	-0.5102184816	-0.0386882594	 0.005885
C	-1.8416935913	-0.6012966625	-1.4982539822	-0.398848
C	-1.3744892935	-1.8940754892	 0.6700355499	-0.098014
N	-2.7056434629	-2.4937074049	 0.6620792404	-0.290862
C	-2.8186826856	-3.7071994059	 1.4673926018	-0.328948
C	-0.4139656835	-2.7984112245	 0.0097615245	 0.313662
N	 0.3635974397	-3.4805125885	-0.5061310481	-0.346541
H	 1.0225396082	 1.880922648	 0.1062537224	 0.125505
H	-0.2788082035	 1.8473632811	-1.0999893557	 0.10247
H	-0.657900998	 2.0529519596	 0.6217650589	 0.120618
H	 0.6252665398	-0.3822256981	-0.4082299109	 0.229123
H	-2.0898550743	 0.1028144469	 0.5272987768	 0.079068
H	-1.9136451701	 0.3941505293	-1.9444769857	 0.116607
H	-1.1345290736	-1.1925277158	-2.0899918418	 0.133283
H	-2.8195841724	-1.0840957007	-1.566006574	 0.132694
H	-0.978769587	-1.7224624344	 1.6867807184	 0.109506
H	-3.3586327051	-1.7964243218	 1.0047703049	 0.225859
H	-2.206155861	-4.4980816411	 1.0241754092	 0.151218
H	-2.499753926	-3.5797077529	 2.5163206841	 0.101626
H	-3.8582962798	-4.0445418343	 1.4599625453	 0.12621
67.7977	84.4264	101.2016	141.4864	160.0034	195.8306	210.9833	231.0846	273.398	301.5366	330.9582	378.9182	435.1393	468.8725	585.1657	669.2718	761.7433	770.772	832.1747	893.9757	950.9599	993.945	1049.9809	1072.065	1105.8747	1132.3288	1151.5717	1163.2751	1173.5985	1207.5214	1238.0385	1293.4643	1323.5111	1359.5325	1375.8483	1404.8577	1458.6888	1461.0291	1482.4179	1484.5427	1491.5272	1495.1735	1499.0783	1508.494	1520.5808	1525.3386	2353.8168	2946.3728	2958.2654	2967.0655	3006.8035	3043.3223	3056.6022	3077.6338	3104.5142	3113.7013	3120.6135	3128.5533	3511.5687	3521.2398
CNC(C)C(NC)C#N	CN[C@@H](C)[C@@H](NC)C#N	
InChI=1S/C6H13N3/c1-5(8-2)6(4-7)9-3/h5-6,8-9H,1-3H3	InChI=1S/C6H13N3/c1-5(8-2)6(4-7)9-3/h5-6,8-9H,1-3H3/t5-,6-/m0/s1
