12
gdb 7244	4.98309	1.26138	1.00658	3.953	55.08	-0.2632	-0.0695	0.1937	1065.1661	0.082591	-451.849406	-451.841298	-451.840353	-451.88288	27.411	
N	-0.0434589139	 1.282223682	 0.0071737986	-0.515191
C	 0.059469935	-0.0669146168	-0.0000362072	 0.2961
O	 1.0808709568	-0.7125972031	-0.0125948948	-0.321813
C	-1.345351405	-0.7128189095	 0.0102023992	 0.398496
O	-2.3691371229	-0.0779796597	 0.0233635232	-0.35367
O	-1.2517834225	-2.0574512748	 0.0024360821	-0.175762
C	-2.424744927	-2.786714171	 0.0102506146	 0.120829
N	-2.3282176347	-4.0376266877	 0.0028972549	-0.403338
H	 0.7933203448	 1.8402602551	 0.0026455726	 0.276087
H	-0.9519472419	 1.715041541	 0.0185025171	 0.283894
H	-3.3153484406	-2.1587686415	 0.0227671053	 0.148303
H	-3.2566598179	-4.4579900539	 0.0103556745	 0.246064
53.6989	96.1871	125.2256	158.2071	312.3122	320.8352	376.5561	476.014	476.9068	590.5938	635.0083	644.3068	834.6815	853.725	908.4437	995.7505	1068.6334	1095.495	1227.0404	1254.686	1365.4826	1391.5241	1595.3633	1749.0838	1813.742	1834.1156	3142.4532	3509.3212	3604.0695	3744.0091
NC(=O)C(=O)OC=N	NC(=O)C(=O)O[CH][NH]	
InChI=1S/C3H4N2O3/c4-1-8-3(7)2(5)6/h1,4H,(H2,5,6)	InChI=1S/C3H4N2O3/c4-1-8-3(7)2(5)6/h1,4H,(H2,5,6)
