18
gdb 126446	2.12668	1.56499	0.96359	1.051	74.76	-0.2241	0.0072	0.2313	1239.7879	0.148384	-435.271996	-435.262812	-435.261868	-435.306624	32.401	
C	-0.2895145755	 1.5056705393	 0.0964635381	-0.379103
C	 0.143968695	 0.0364555353	-0.044606146	-0.294871
C	 0.7745660568	-0.509338525	 1.1958975149	 0.220178
N	 2.0663429093	-0.8264735448	 1.2902728385	-0.263309
N	 2.2065467146	-1.2506602823	 2.5377468279	-0.102151
N	 1.1049142715	-1.2461897871	 3.2962272078	-0.308517
C	 0.1890929787	-0.7764710564	 2.4572757831	 0.343474
O	-1.1028547556	-0.5872020911	 2.7648852669	-0.266216
C	-1.4792328367	-0.9338501349	 4.0955311716	-0.240216
H	 0.5714149183	 2.1482488321	 0.304416579	 0.122345
H	-0.7652838352	 1.8591097486	-0.8234332177	 0.11254
H	-1.0047758698	 1.6216319833	 0.915956696	 0.131569
H	-0.7319182516	-0.5721827199	-0.3005737801	 0.113444
H	 0.8591267024	-0.0709311921	-0.8654807698	 0.120323
H	 3.0902465885	-1.569032684	 2.8960333418	 0.288668
H	-0.9237169455	-0.3374009785	 4.826877599	 0.135293
H	-2.5466680136	-0.7233932275	 4.1709092946	 0.13131
H	-1.2881189116	-1.9941032551	 4.2917456642	 0.13524
51.502	96.1819	145.9276	175.9012	185.9151	242.9482	308.5801	327.5036	358.8377	451.7687	528.8416	634.9531	701.6524	755.6359	773.2625	798.5891	969.6995	986.8218	1056.0446	1071.4063	1090.8409	1181.4371	1186.6033	1209.554	1215.3525	1270.4144	1284.6233	1359.5938	1399.5446	1407.8453	1455.8127	1468.5206	1477.8834	1480.2814	1496.9839	1501.507	1507.9869	1569.1537	1592.0852	3031.4712	3033.5846	3039.6585	3086.6895	3097.9096	3110.8989	3119.5754	3146.9278	3688.4857
CCC1=NNN=C1OC	CCc1n[nH]nc1OC	
InChI=1S/C5H9N3O/c1-3-4-5(9-2)7-8-6-4/h3H2,1-2H3,(H,6,7,8)	InChI=1S/C5H9N3O/c1-3-4-5(9-2)7-8-6-4/h3H2,1-2H3,(H,6,7,8)
