13
gdb 51396	3.18694	1.2462	1.10148	5.9933	59.23	-0.2915	-0.0256	0.2658	1072.586	0.087734	-493.699353	-493.691913	-493.690968	-493.732158	26.521	
O	 0.4437536423	 0.1457553745	 0.099997099	-0.254494
C	 0.6304538481	 1.2955563652	 0.3373420306	 0.185362
O	 0.8074431349	 2.2140028881	-0.6578949863	-0.190958
C	 0.954385735	 3.5536239489	-0.2878070635	 0.096422
C	 1.8901491733	 4.0184450447	 0.7708461722	 0.019076
O	 3.0174584455	 3.1170581006	 0.8554305965	-0.255169
C	 3.4019563075	 3.4584125968	-0.4458852734	 0.488613
O	 4.389265612	 3.1399712171	-1.0115496213	-0.299529
C	 2.1976240496	 4.3380041435	-0.6855137169	-0.319156
H	 0.6790931599	 1.7445486598	 1.3435938931	 0.099742
H	 0.0373118362	 4.1300495667	-0.3910206838	 0.138773
H	 1.6873274185	 4.6471809118	 1.6264748763	 0.146486
H	 2.1636612271	 5.2474645425	-1.2667850826	 0.144832
67.7206	130.9547	151.3432	197.8927	309.4844	423.9202	477.0096	552.934	703.2998	726.4299	774.1569	807.6535	843.4626	908.9259	957.8347	993.8325	1015.656	1033.5522	1054.8625	1073.7261	1106.3082	1121.2312	1206.7789	1269.1022	1314.5412	1401.3814	1432.5917	1882.6541	1968.6396	3002.5265	3139.6965	3222.8397	3237.9999
O=COC1C2OC(=O)C12	O=CO[C@H]1[C@H]2OC(=O)[C@@H]12	
InChI=1S/C5H4O4/c6-1-8-3-2-4(3)9-5(2)7/h1-4H	InChI=1S/C5H4O4/c6-1-8-3-2-4(3)9-5(2)7/h1-4H/t2-,3+,4-/m0/s1
