18
gdb 16401	3.35255	2.16055	1.69263	3.0984	70.73	-0.2323	-0.0049	0.2274	824.7421	0.156582	-347.827566	-347.820951	-347.820006	-347.858362	26.426	
O	 0.0501386395	-0.045872975	-0.1077011209	-0.332058
C	 0.0182622186	 1.15146065	 0.0494957962	 0.411913
C	-1.2915777086	 1.9126306701	 0.288606389	-0.312417
C	-1.1043783472	 3.3140671117	 0.9264563447	-0.218435
C	 0.3409081127	 3.811005771	 0.7804536828	-0.002669
C	 0.9186724521	 3.4150840948	-0.6075879758	-0.240253
C	 1.252587924	 2.0285131035	 0.0226565996	-0.106489
C	 1.3178916014	 2.7746401366	 1.3964560973	-0.227997
H	-1.7516047237	 2.0110655327	-0.703071765	 0.134259
H	-1.9637971667	 1.2708563701	 0.8628570367	 0.126975
H	-1.7939917346	 4.0280451586	 0.463566969	 0.100837
H	-1.3606689126	 3.2792250321	 1.9915100236	 0.105867
H	 0.4357584311	 4.8516476332	 1.0990947544	 0.066043
H	 0.2577314433	 3.4460239387	-1.4786796561	 0.098408
H	 1.8357781446	 3.9634579847	-0.8366711677	 0.106948
H	 2.1191433806	 1.4632899002	-0.3206543734	 0.080252
H	 2.3148566967	 3.1909601912	 1.5611579466	 0.106651
H	 1.0015171187	 2.2329654759	 2.293114769	 0.102166
82.7188	193.784	354.3043	378.818	444.9551	453.8918	533.5882	611.2471	718.9573	796.7468	823.9537	829.0748	905.3983	910.648	917.2317	941.7535	978.0778	1033.4065	1052.8081	1080.3803	1083.9812	1108.7168	1140.3643	1202.7545	1227.2101	1244.2975	1250.8012	1267.4966	1287.7312	1312.9584	1322.319	1348.6795	1373.7774	1454.878	1483.3372	1496.878	1514.9767	1818.6955	3031.0586	3035.9017	3048.7165	3053.2909	3070.0135	3078.4535	3103.7433	3105.8458	3107.4627	3115.3228
O=C1CCC2CC1C2	O=C1CC[C@@H]2C[C@H]1C2	
InChI=1S/C7H10O/c8-7-2-1-5-3-6(7)4-5/h5-6H,1-4H2	InChI=1S/C7H10O/c8-7-2-1-5-3-6(7)4-5/h5-6H,1-4H2/t5-,6+
