18
gdb 29921	2.01518	1.89931	0.98993	1.6599	91.26	-0.194	0.0046	0.1986	1188.3017	0.146386	-364.829402	-364.819808	-364.818864	-364.864571	34.409	
C	-0.0133556889	 1.4382200331	 0.0564725372	-0.337976
N	-0.027522187	-0.0093058504	 0.0147346045	-0.065156
C	-0.0051696215	-0.7780598677	-1.1118907881	-0.1034
C	 0.0421058891	-2.1058834294	-0.7429683185	-0.243979
C	 0.0531732697	-2.1609610475	 0.6726605257	 0.175693
C	 0.0894116219	-3.3826465082	 1.5372602387	-0.517985
C	 0.012918371	-0.8434969233	 1.1237150475	 0.096471
C	 0.0043508057	-0.339068086	 2.4375627094	 0.277613
C	-0.0032380959	 0.0947028561	 3.5639441187	-0.495303
H	 0.9867001467	 1.8245697446	 0.2827842592	 0.141451
H	-0.3299922698	 1.8248103202	-0.9140377318	 0.136544
H	-0.7025462328	 1.7978625674	 0.8238897623	 0.152372
H	-0.0253590666	-0.3170975628	-2.0872445758	 0.11744
H	 0.0567756402	-2.9484861691	-1.4178189312	 0.096501
H	 0.9734812993	-3.9964277546	 1.3293171259	 0.125403
H	 0.1116141749	-3.1095636867	 2.5954056503	 0.132242
H	-0.7880827286	-4.0192081859	 1.3736158352	 0.125796
H	-0.0087845075	 0.4680017401	 4.5575687308	 0.186271
37.7165	76.3397	127.382	137.8128	180.7026	262.0865	275.3623	377.7416	443.3098	486.7824	545.0858	558.5285	612.895	668.3525	680.7652	691.2521	738.0448	759.2289	807.2041	989.3826	1035.5772	1059.7488	1069.5769	1109.1192	1151.5331	1217.8201	1254.2008	1369.1981	1408.9656	1417.285	1444.5616	1453.8373	1481.6674	1485.9487	1494.0996	1513.4969	1532.3826	1585.5123	2213.7293	3025.7392	3037.0478	3073.5851	3105.8705	3115.9708	3140.5501	3239.27	3260.5708	3502.9825
CN1C=CC(C)=C1C#C	Cn1ccc(C)c1C#C	
InChI=1S/C8H9N/c1-4-8-7(2)5-6-9(8)3/h1,5-6H,2-3H3	InChI=1S/C8H9N/c1-4-8-7(2)5-6-9(8)3/h1,5-6H,2-3H3
