21
gdb 42145	2.0009	1.88461	1.10726	0.9704	75.58	-0.2471	0.0934	0.3405	1139.7176	0.184568	-461.34586	-461.337521	-461.336576	-461.378506	32.367	
C	-0.088810876	 1.5671935432	 0.0237036996	-0.213368
C	 1.2945799518	 2.2229796243	 0.0467655777	-0.063549
O	 2.0717910899	 1.6375951199	 1.0817674424	-0.242396
C	 3.3888936445	 1.2524192864	 0.7551085442	-0.065218
C	 3.4972689818	 0.1394040432	-0.2931069051	-0.100501
O	 2.7172239682	-0.9871425264	 0.086580729	-0.229738
C	 1.7357322876	-1.3666234524	-0.8436623277	 0.000426
O	 0.8018410795	-0.362414623	-1.1250813457	-0.243371
C	-0.0008309212	 0.0427922602	-0.0120917701	-0.067171
H	-0.6561851235	 1.855008486	 0.9167389474	 0.105321
H	-0.6405842604	 1.9414879962	-0.8467077561	 0.102211
H	 1.772159899	 2.0921162115	-0.9295094692	 0.102587
H	 1.2022499403	 3.3038435003	 0.2268241122	 0.091751
H	 3.994900934	 2.1091632753	 0.413419785	 0.083456
H	 3.8189456315	 0.8960086093	 1.6966910232	 0.1153
H	 3.1902352552	 0.4994705511	-1.2809298788	 0.110866
H	 4.5529943396	-0.1601427885	-0.3621021486	 0.098748
H	 2.1795704492	-1.6188611388	-1.8170024624	 0.096364
H	 1.2645884973	-2.2564099962	-0.4043861134	 0.099629
H	 0.4513014701	-0.3090754046	 0.9186597137	 0.126825
H	-1.0014888682	-0.3992599869	-0.1117727375	 0.091828
151.5161	161.4676	176.2093	210.132	262.1246	327.6678	362.7358	386.0555	403.9915	543.1827	556.9359	637.1724	760.537	835.8501	841.1341	870.0187	921.8594	963.5106	999.2869	1044.7357	1057.8238	1065.3244	1126.4896	1138.4509	1158.7746	1170.6373	1195.5393	1265.7454	1267.9733	1296.1096	1301.7221	1312.9226	1325.2767	1380.9939	1396.5069	1410.94	1418.8039	1427.2214	1445.1184	1471.2449	1484.546	1487.6123	1503.7699	1510.8174	1519.2444	2962.3365	2995.7008	2999.3027	3008.1085	3012.5511	3038.5486	3045.9881	3059.7635	3066.5262	3081.5421	3085.9757	3103.9582
C1COCCOCOC1	C1COCCOCOC1	
InChI=1S/C6H12O3/c1-2-7-4-5-9-6-8-3-1/h1-6H2	InChI=1S/C6H12O3/c1-2-7-4-5-9-6-8-3-1/h1-6H2
