18
gdb 43045	2.42252	2.23327	1.64333	2.2539	74.25	-0.2175	-0.0114	0.2061	885.0487	0.151479	-401.946727	-401.94032	-401.939375	-401.97732	26.72	
O	 0.0142703824	 0.0380617347	 0.1452159468	-0.347625
C	-0.0320490704	 1.2362235834	 0.0689082741	 0.440431
C	-1.2356993081	 2.1780815437	 0.0130164833	-0.12046
C	-0.8746885595	 3.0941158519	 1.2187338575	-0.250018
C	 0.2402826074	 3.5222931683	 0.2438132346	-0.009672
C	 1.1140013047	 2.2640249656	-0.0389586734	-0.144756
C	 1.3961839321	 2.3797350852	-1.5521946444	-0.235381
C	 0.0170490169	 2.8880941548	-2.0726962251	-0.183979
N	-0.7421509828	 3.308710942	-0.8723654734	-0.098093
H	-2.2255970285	 1.7601602152	-0.1623664766	 0.089415
H	-1.617564765	 3.877948997	 1.3658432922	 0.123784
H	-0.6003765472	 2.619471465	 2.1624408293	 0.112888
H	 0.7463645655	 4.487470181	 0.3045255502	 0.077473
H	 1.9804613333	 2.0600023782	 0.5898392445	 0.086295
H	 2.1961051268	 3.1019765482	-1.7464108538	 0.104646
H	 1.6925174038	 1.42365558	-1.9904003445	 0.123128
H	 0.1227351023	 3.7461727136	-2.7423203853	 0.11248
H	-0.5415093838	 2.1160403721	-2.6101638061	 0.119444
139.4414	224.5335	334.9533	389.0199	453.693	544.8086	662.2142	677.1918	741.792	776.6737	791.7494	817.1651	844.2124	902.0358	906.1335	920.2449	949.5244	986.9305	993.8556	1010.6201	1065.2454	1086.6152	1097.5784	1144.2668	1157.9141	1189.4649	1195.6079	1218.9817	1242.8736	1260.2639	1262.5347	1280.0539	1293.6463	1329.0389	1340.9671	1488.4423	1491.2843	1506.7982	1867.8717	3047.09	3057.4441	3082.3369	3093.2718	3097.3578	3112.1502	3123.9599	3139.3343	3152.5354
O=C1C2CC3C1CCN23	O=C1[C@H]2C[C@H]3[C@@H]1CCN23	
InChI=1S/C7H9NO/c9-7-4-1-2-8-5(4)3-6(7)8/h4-6H,1-3H2	InChI=1S/C7H9NO/c9-7-4-1-2-8-5(4)3-6(7)8/h4-6H,1-3H2/t4-,5-,6+/m0/s1
