20
gdb 82613	2.37209	1.79994	1.42595	2.4405	78.33	-0.2002	0.0655	0.2657	1008.9033	0.171739	-403.083772	-403.075534	-403.07459	-403.116338	32.355	
C	-0.1576168201	 1.5438079767	-0.0192738843	-0.291873
N	 0.0800027621	 0.1175579793	 0.0783109748	-0.083052
C	 1.2657782089	-0.6028358745	-0.3113755886	-0.041045
C	 2.664711865	 0.0335848056	-0.2084092076	-0.26437
C	 3.0727910972	 0.0254617522	 1.2747458619	-0.111945
C	 2.4858452706	 1.0150057668	 2.2467377672	 0.08061
O	 1.8772034711	 2.2129929931	 1.8746094149	-0.407466
C	 1.8141081249	-0.3185869123	 2.0808873631	-0.083818
C	 0.7146791563	-0.6958218798	 1.0908754162	-0.043511
H	 0.7434299483	 2.1538809262	-0.1231992643	 0.104743
H	-0.8034394598	 1.716841528	-0.8888928373	 0.103297
H	-0.6859802704	 1.889475405	 0.8723572944	 0.12592
H	 1.1286538061	-1.3744034634	-1.0691336848	 0.07979
H	 3.375727316	-0.5657107189	-0.7837130418	 0.105413
H	 2.6882582465	 1.0420470498	-0.6398556171	 0.100903
H	 4.0420461498	-0.397965246	 1.5206105039	 0.082089
H	 3.0401540995	 1.0930835204	 3.1846626066	 0.086313
H	 2.573575739	 2.8261377726	 1.6150107393	 0.287023
H	 1.8632125248	-0.9787164105	 2.9409052031	 0.084676
H	 0.1057666444	-1.5345459802	 1.4246564605	 0.086304
104.8203	120.0938	185.075	226.3096	296.7799	299.9735	422.363	458.1173	531.0774	612.3496	667.1639	703.5566	717.9083	743.3258	766.0261	834.0144	863.1859	935.8998	960.5745	1002.7951	1021.138	1063.4349	1079.0752	1093.5565	1101.0809	1119.9012	1127.1759	1152.0401	1184.8016	1206.0088	1262.185	1285.0801	1303.22	1321.682	1341.8131	1355.1174	1379.7733	1415.112	1455.1014	1473.9174	1478.8598	1483.1567	1507.0321	3021.2886	3032.8691	3068.3046	3082.2038	3085.6534	3097.6481	3109.9523	3122.2767	3144.3069	3160.0412	3798.6792
CN1C2CC3C(O)C3C12	CN1[C@H]2C[C@H]3[C@@H](O)[C@H]3[C@@H]12	
InChI=1S/C7H11NO/c1-8-4-2-3-5(6(4)8)7(3)9/h3-7,9H,2H2,1H3	InChI=1S/C7H11NO/c1-8-4-2-3-5(6(4)8)7(3)9/h3-7,9H,2H2,1H3/t3-,4+,5-,6+,7-,8?/m1/s1
