20
gdb 36874	4.81706	0.91029	0.82025	0.9166	81.52	-0.2392	0.0374	0.2766	1456.8701	0.172026	-403.153822	-403.145308	-403.144364	-403.188007	31.727	
C	-0.2701971607	 1.1463910379	-0.1274196388	-0.278232
C	 1.1953200165	 1.008702011	 0.2447266252	-0.300456
C	 0.3623834262	-0.2050720916	 0.0021589402	 0.162921
O	 0.0681190107	-0.9713961798	 1.1539456523	-0.270445
C	-0.8829850446	-1.9083893862	 1.015326424	 0.422319
N	-1.5076747397	-2.1703778344	-0.0603008775	-0.30633
C	-2.4656160967	-3.2444758844	 0.2264613691	-0.152105
C	-2.1028644568	-3.8204415946	 1.6262316899	-0.219315
C	-1.2421775119	-2.7039104531	 2.2497135794	-0.32221
H	-0.951877523	 1.4466416584	 0.6599837548	 0.12089
H	-0.5354877613	 1.4951519003	-1.1189314628	 0.120373
H	 1.9534027039	 1.266550206	-0.4859766417	 0.117971
H	 1.4652828818	 1.217540137	 1.2737059941	 0.124958
H	 0.5074416626	-0.8094201963	-0.8854395544	 0.118016
H	-3.4825276773	-2.8298044649	 0.2072724806	 0.103092
H	-2.4243489379	-4.0042947018	-0.560892364	 0.104709
H	-2.9818582169	-4.0717740717	 2.2237981491	 0.102468
H	-1.5104089981	-4.7333333038	 1.5147136906	 0.109391
H	-0.3570057081	-3.0591636567	 2.7839010173	 0.120882
H	-1.8030013385	-2.0693057714	 2.9469850424	 0.121104
47.6468	79.8302	127.2664	153.4307	252.9682	343.7749	380.4133	459.0437	555.4053	658.872	719.7133	755.7955	813.2783	821.7038	839.0145	890.2407	901.3216	925.0355	974.855	987.3389	1015.2573	1055.6853	1073.0338	1075.3883	1083.0664	1115.9056	1170.559	1175.8097	1190.8755	1218.6921	1236.2036	1238.393	1281.6524	1322.105	1337.7229	1364.9967	1406.9193	1455.062	1477.7248	1495.5904	1499.5561	1513.0241	1719.7267	3015.2286	3037.8078	3054.3458	3067.327	3092.3321	3111.5443	3139.1134	3142.2331	3182.5985	3222.0785	3236.3163
C1CC1OC1=NCCC1	C1CC1O[C]1[N]CCC1	
InChI=1S/C7H11NO/c1-2-7(8-5-1)9-6-3-4-6/h6H,1-5H2	InChI=1S/C7H11NO/c1-2-7(8-5-1)9-6-3-4-6/h6H,1-5H2
