20
gdb 82498	2.67905	1.71142	1.40963	2.3311	77.71	-0.2249	0.0607	0.2856	1008.4187	0.172462	-403.096355	-403.088721	-403.087777	-403.12794	31.395	
C	-0.2668472692	 1.6209077415	-0.0414515099	-0.437078
C	 0.0192521628	 0.1276543557	-0.0188910012	 0.044163
C	 1.1264424538	-0.548820542	-0.8747875883	-0.020254
C	 2.4115335859	 0.2049825359	-0.495000644	-0.300173
C	 2.3732712576	-0.2750237991	 0.974334829	 0.381071
O	 3.1614872758	 0.3422539924	 1.9384397265	-0.486931
C	 2.4868924059	-1.7862592533	 0.7562329917	-0.197077
N	 1.1100031264	-1.7155552226	 0.1567958622	-0.158367
C	 0.8022681942	-0.5569020655	 1.1023206906	-0.090829
H	 0.6087477773	 2.230800211	 0.1982350499	 0.106728
H	-0.6333744336	 1.9371875389	-1.0243702676	 0.121298
H	-1.0420225544	 1.8676050307	 0.691968555	 0.122084
H	-0.9094066616	-0.4343734435	-0.1634999844	 0.090563
H	 0.9640118994	-0.8231737009	-1.9168553567	 0.071579
H	 3.3081929221	-0.140587288	-1.0163299646	 0.102089
H	 2.3357218377	 1.2879679843	-0.624946228	 0.090546
H	 3.0943672479	 1.2967189386	 1.8323563965	 0.279882
H	 3.2879607419	-2.1691672521	 0.1158057798	 0.096237
H	 2.4292861253	-2.3706891001	 1.6786608067	 0.111221
H	 0.4097470048	-0.788741602	 2.0942321265	 0.073249
151.5744	177.2071	242.982	278.4044	339.1633	365.2205	459.2478	504.5306	534.7156	613.9711	674.8722	699.4633	748.2239	807.7871	873.9323	888.3624	898.1421	944.9053	955.0494	992.6416	1003.5078	1025.7389	1046.8223	1078.2896	1108.2257	1131.4663	1138.3756	1150.9751	1169.1575	1208.9132	1218.3384	1254.5207	1261.5742	1279.3842	1296.0482	1349.3812	1380.9243	1392.9626	1412.1148	1487.3586	1495.5726	1504.5317	1524.0758	3033.5449	3045.0503	3054.4591	3060.0481	3094.5511	3098.781	3100.2046	3107.8837	3109.8855	3116.841	3812.0294
CC1C2CC3(O)CN2C13	C[C@H]1[C@H]2C[C@]3(O)CN2[C@H]13	
InChI=1S/C7H11NO/c1-4-5-2-7(9)3-8(5)6(4)7/h4-6,9H,2-3H2,1H3	InChI=1S/C7H11NO/c1-4-5-2-7(9)3-8(5)6(4)7/h4-6,9H,2-3H2,1H3/t4-,5+,6+,7-/m0/s1
