23
gdb 115390	2.8717	1.11666	1.00451	1.3	82.71	-0.2348	0.0794	0.3142	1341.8698	0.205819	-425.433288	-425.423746	-425.422802	-425.467812	35.905	
C	-0.0063193992	 1.3835364386	 0.1499105164	-0.235901
O	-0.0441668482	 0.0248831013	-0.2154115794	-0.242185
C	-1.3051348418	-0.6071494397	-0.061375787	 0.132435
C	-1.2042254104	-1.9638443247	-0.7644266472	-0.244973
C	-0.3015694376	-2.9157033309	 0.0329115021	-0.191032
C	-0.7624232474	-3.0037178056	 1.4920995725	 0.153144
C	 0.1573651165	-3.8449345583	 2.3639385128	-0.401931
O	-0.8139036755	-1.7044681997	 2.0784561391	-0.255173
C	-1.693299688	-0.8267341804	 1.4094036864	-0.09742
H	 0.9710695254	 1.7689251321	-0.1516771667	 0.126678
H	-0.7886517007	 1.9646221071	-0.3646281755	 0.09936
H	-0.1177856839	 1.5390713431	 1.2325510219	 0.111474
H	-2.088167648	 0.0109419701	-0.5348860603	 0.053702
H	-2.21282406	-2.3877029073	-0.8503573346	 0.09219
H	-0.823033954	-1.8162203728	-1.7791253694	 0.103689
H	-0.3040957808	-3.915036061	-0.4167741703	 0.087916
H	 0.7284220602	-2.5438045274	 0.013752961	 0.116754
H	-1.7806721739	-3.4368662741	 1.5129815355	 0.054063
H	 1.1688239766	-3.4269810566	 2.3619882784	 0.124535
H	-0.2038073367	-3.8624049082	 3.3957972084	 0.119944
H	 0.2052735715	-4.8732775211	 1.9929456341	 0.110782
H	-1.6776044974	 0.111105324	 1.9720895411	 0.102801
H	-2.7292858368	-1.2106530583	 1.4362629807	 0.079146
53.889	97.2424	172.9641	194.0685	224.0427	248.3666	303.6797	316.2335	371.5021	423.8097	476.753	506.4816	530.6243	720.5901	798.5757	829.2536	869.1212	888.5278	922.5919	960.7116	988.6064	1020.7407	1079.9807	1088.8906	1131.3943	1147.5693	1157.2853	1165.0463	1180.9063	1215.2778	1242.2907	1246.6706	1295.9214	1332.5653	1348.5484	1368.9748	1378.6426	1387.0173	1398.6558	1411.3644	1415.223	1470.8073	1477.116	1478.7247	1483.6276	1485.6489	1500.1874	1502.9139	1510.2278	2919.0083	2939.3267	2953.3578	2973.2858	3025.7	3030.9259	3037.6407	3042.9119	3082.5043	3084.0738	3091.6803	3108.9688	3115.4726	3119.4757
COC1CCC(C)OC1	CO[C@H]1CC[C@@H](C)OC1	
InChI=1S/C7H14O2/c1-6-3-4-7(8-2)5-9-6/h6-7H,3-5H2,1-2H3	InChI=1S/C7H14O2/c1-6-3-4-7(8-2)5-9-6/h6-7H,3-5H2,1-2H3/t6-,7+/m1/s1
