21
gdb 90238	3.63115	1.37176	1.31764	1.8718	82.94	-0.233	0.0605	0.2935	1081.6535	0.183784	-386.989511	-386.982009	-386.981065	-387.020893	31.59	
C	 0.0530885481	 1.6389247581	 0.0532404773	-0.412507
C	 0.0040453186	 0.1129915914	 0.0265740794	 0.050763
C	 0.9195380653	-0.5568417087	-1.0416119676	-0.270294
C	 1.7881295099	-1.4242217449	-0.0999404214	 0.406904
C	 2.1936383116	-2.8176614152	-0.6455365033	-0.334448
C	 0.7229538062	-3.2432456752	-0.1486342392	-0.299318
C	 0.8844647121	-2.0646516437	 0.8850044198	 0.002436
C	 0.6734759819	-0.5469670123	 1.2412653844	-0.015045
O	 2.1326284313	-0.3826887752	 0.9264131106	-0.376247
H	 1.0805670545	 1.9773672525	 0.2157622659	 0.132352
H	-0.3018336496	 2.0609207873	-0.892899681	 0.11053
H	-0.5735150983	 2.0464292295	 0.854341885	 0.107751
H	-1.0338288813	-0.2258191727	-0.0679345723	 0.068485
H	 0.3715272595	-1.1233632588	-1.7981331925	 0.09504
H	 1.5565305197	 0.1674808165	-1.5569502273	 0.105133
H	 2.4314609072	-2.9126327494	-1.7085744726	 0.104203
H	 2.9548332894	-3.3204510143	-0.0460863936	 0.122913
H	-0.0282071506	-3.1013853894	-0.925924931	 0.119781
H	 0.6232509998	-4.2443445969	 0.2743001085	 0.109716
H	 1.5071073479	-2.4584237161	 1.6925853686	 0.094644
H	 0.4249746265	-0.2054804526	 2.2477810822	 0.07721
138.9161	240.7367	244.2678	301.9944	314.682	417.6422	477.5284	516.8094	580.6214	639.1877	653.3388	741.1151	760.1416	819.3125	840.0037	853.4039	869.6744	906.2662	916.9042	921.7795	1001.2869	1037.3228	1051.915	1060.5553	1078.6819	1116.7071	1131.2187	1159.5206	1185.0563	1198.3679	1207.6685	1227.7185	1230.6364	1251.6993	1265.5884	1305.3021	1330.1494	1369.4048	1397.5189	1406.2065	1473.9269	1484.0876	1495.9929	1501.6371	1507.1652	3030.1865	3039.8496	3060.1328	3062.1687	3066.7909	3082.2494	3093.109	3106.0471	3108.7522	3115.9397	3128.3033	3148.7794
CC1CC23CCC2C1O3	C[C@H]1C[C@]23CC[C@@H]2[C@H]1O3	
InChI=1S/C8H12O/c1-5-4-8-3-2-6(8)7(5)9-8/h5-7H,2-4H2,1H3	InChI=1S/C8H12O/c1-5-4-8-3-2-6(8)7(5)9-8/h5-7H,2-4H2,1H3/t5-,6+,7-,8+/m0/s1
