20
gdb 14987	4.22475	1.44793	1.16097	1.042	77.51	-0.242	0.0231	0.265	1088.3737	0.178016	-349.019068	-349.011014	-349.01007	-349.051514	30.571	
C	-0.0754366333	 1.5488288478	 0.0193660052	-0.384114
C	 0.0052139158	 0.0206429689	 0.0235273734	-0.182155
C	 0.7712519026	-0.5378523886	 1.227806489	 0.103253
O	 0.0909859034	-0.0999773935	 2.3965393381	-0.264547
C	 0.5216904558	-0.7551093183	 3.5762765288	-0.073292
C	 0.1747807778	-2.2451432144	 3.5351325465	-0.254474
C	 0.5978269605	-2.8221175317	 2.2100013281	-0.075543
C	 0.8952986801	-2.0400848265	 1.1751161123	-0.065972
H	 0.9244003061	 1.9961285019	-0.0195888671	 0.10879
H	-0.6367137952	 1.9096064138	-0.8478979108	 0.10739
H	-0.5688863538	 1.9111756288	 0.9242005091	 0.135883
H	-1.0012630469	-0.4139595134	 0.0303781679	 0.10497
H	 0.4993774884	-0.334242245	-0.8891949834	 0.09157
H	 1.7892183714	-0.0984598556	 1.2191788244	 0.066327
H	 1.6097866999	-0.6319162715	 3.7060047989	 0.088347
H	 0.0240585358	-0.2479818312	 4.4079094183	 0.102939
H	 0.6760334467	-2.7673787322	 4.3602998877	 0.101277
H	-0.9034624061	-2.3885370803	 3.6895106621	 0.11428
H	 0.6690572881	-3.9031509286	 2.1218944124	 0.08773
H	 1.2394177929	-2.4610306604	 0.2335487092	 0.08734
85.7878	115.0061	190.1841	223.3136	285.9929	332.4185	396.4139	462.8194	502.2045	584.1424	675.2553	764.0877	782.5406	864.9564	886.6019	913.2466	972.7936	990.3865	999.7736	1029.151	1062.0937	1085.2011	1106.4106	1130.1615	1153.5534	1212.4049	1235.9841	1278.6318	1300.0137	1315.3366	1357.0466	1364.9865	1383.8232	1400.2161	1407.3079	1427.8129	1470.0433	1476.3951	1494.4614	1500.4749	1508.1768	1723.5002	2894.9253	2969.5358	3013.2218	3030.2306	3035.7465	3047.1149	3069.2299	3083.7307	3100.3089	3127.7416	3146.8654	3170.086
CCC1OCCC=C1	CC[C@H]1OCCC=C1	
InChI=1S/C7H12O/c1-2-7-5-3-4-6-8-7/h3,5,7H,2,4,6H2,1H3	InChI=1S/C7H12O/c1-2-7-5-3-4-6-8-7/h3,5,7H,2,4,6H2,1H3/t7-/m1/s1
