15
gdb 132970	3.05038	1.37138	0.95194	7.4726	73.89	-0.215	-0.0203	0.1948	1154.826	0.112964	-461.957632	-461.949706	-461.948762	-461.990763	28.942	
C	 0.0032419795	 1.4950927118	 0.0233498218	-0.3476
N	-0.0399125869	 0.0388912749	-0.0022148117	-0.076555
C	-0.0251801724	-0.6561884892	-1.1785151425	 0.036299
C	 0.0125330316	-2.0120772311	-1.2211855219	-0.283769
C	 0.0499308065	-2.8371481229	-0.0196078624	 0.288793
O	 0.0848617316	-4.0615747911	-0.0015570255	-0.396651
C	 0.0359413961	-2.0148088465	 1.1960568742	 0.094379
F	 0.0593518514	-2.6443258802	 2.3671438997	-0.060272
C	-0.0033153641	-0.6622959745	 1.1803564329	-0.097035
H	 1.0062154772	 1.8613990359	 0.2699386954	 0.15083
H	-0.2800981796	 1.8804248925	-0.9568375646	 0.150738
H	-0.7041809713	 1.8786005977	 0.7634087027	 0.15172
H	-0.0495872417	-0.0469860112	-2.0742960014	 0.131376
H	 0.0113120542	-2.520355337	-2.1774901467	 0.118571
H	-0.011856552	-0.0831237191	 2.0949199599	 0.139176
53.6797	112.5427	185.1841	289.7307	319.5993	332.76	425.6433	444.4889	523.4605	532.899	603.3466	713.6454	743.0178	813.7842	839.551	877.8296	952.3902	978.3758	1096.7699	1148.9067	1165.2894	1188.0351	1214.7511	1318.0258	1372.8526	1421.0622	1468.8763	1480.1392	1484.9978	1526.5209	1612.4769	1694.5486	1735.9758	3034.8789	3102.3283	3146.1177	3197.75	3214.3821	3218.8473
CN1C=CC(=O)C(F)=C1	Cn1ccc(=O)c(F)c1	
InChI=1S/C6H6FNO/c1-8-3-2-6(9)5(7)4-8/h2-4H,1H3	InChI=1S/C6H6FNO/c1-8-3-2-6(9)5(7)4-8/h2-4H,1H3
