25
gdb 38367	1.93827	1.89051	1.20376	0.0548	90.76	-0.2679	0.0734	0.3412	1171.3752	0.233404	-352.35746	-352.349307	-352.348363	-352.389525	34.083	
C	-0.067001793	 1.5626812436	 0.0944947772	-0.239944
C	 1.4851973487	 1.6561322075	 0.0386717371	 0.038847
C	 1.5604433959	 0.1084998997	 0.2378039628	-0.258123
C	 0.0134085757	 0.0095539669	 0.0444792951	 0.038847
C	-0.5218972152	-0.6481970284	-1.2345120664	-0.212389
C	 0.2881585574	-0.5228643911	-2.5391012699	-0.184059
C	 0.6876918062	 0.8769831661	-3.0575957367	-0.185951
C	 2.0359271807	 1.4324701236	-2.5459985932	-0.184059
C	 2.0745181463	 2.2565650935	-1.2447564322	-0.212389
H	-0.4866388925	 1.9410753031	 1.0307755017	 0.087639
H	-0.6045896996	 2.0402959072	-0.729471602	 0.089722
H	 1.9018541609	 2.2137649641	 0.8830027139	 0.062608
H	 2.1784417669	-0.4463995769	-0.472120163	 0.093837
H	 1.8794856453	-0.1731247617	 1.2444832455	 0.089584
H	-0.4912031352	-0.4634919059	 0.8924453963	 0.062608
H	-0.6511379558	-1.7229658702	-1.0494872058	 0.089212
H	-1.5342950986	-0.2550896441	-1.4062220503	 0.091291
H	 1.1996149856	-1.1300026164	-2.4604628624	 0.093494
H	-0.3128863402	-1.0120167081	-3.3156468885	 0.09006
H	 0.7771058793	 0.7932175606	-4.1471910416	 0.092009
H	-0.1201079715	 1.5996305095	-2.8878155378	 0.093095
H	 2.7413976651	 0.5948824509	-2.4665499731	 0.093494
H	 2.4521168825	 2.0813630636	-3.3265574071	 0.09006
H	 1.5701338393	 3.2180157179	-1.4184703056	 0.091291
H	 3.1287529759	 2.505816435	-1.064400974	 0.089212
152.3797	176.1282	238.7466	279.519	285.6193	332.1665	354.7521	421.2569	504.2095	535.9273	663.3182	749.9843	751.0962	787.2074	803.585	834.6563	851.2699	901.3827	927.7056	944.0558	963.0185	990.5173	1026.3194	1060.1154	1070.606	1094.1575	1096.125	1133.4552	1165.7211	1169.4208	1191.3503	1223.8629	1248.6478	1258.5221	1266.5271	1286.1557	1289.0455	1315.0581	1318.0049	1356.7819	1359.7132	1377.4877	1390.5061	1400.3502	1401.1065	1405.8041	1470.342	1479.1535	1479.3307	1487.6705	1489.5409	1501.5846	1507.0094	2998.0665	2998.406	3011.2865	3011.9677	3020.5325	3032.462	3032.6515	3042.1991	3046.3749	3048.9467	3050.492	3054.9476	3061.1254	3066.8862	3098.6945	3109.6223
C1C2CC1CCCCC2	C1[C@H]2C[C@@H]1CCCCC2	
InChI=1S/C9H16/c1-2-4-8-6-9(7-8)5-3-1/h8-9H,1-7H2	InChI=1S/C9H16/c1-2-4-8-6-9(7-8)5-3-1/h8-9H,1-7H2/t8-,9+
