14
gdb 15128	9.42512	0.71009	0.6806	4.3063	69.68	-0.2663	-0.0615	0.2048	1553.7685	0.104774	-382.489301	-382.480897	-382.479953	-382.524333	27.656	
O	-0.0682111103	-0.0016518874	-0.2852788566	-0.228172
C	 0.0287666196	 1.2033365794	-0.2426295349	 0.021679
C	 1.2684504038	 1.9175541917	-0.0767527634	 0.031135
C	 2.2928033399	 2.5431238113	 0.0558429531	 0.104551
C	 3.5251294651	 3.3003419338	 0.2251367258	-0.388494
C	 3.3035748547	 4.8036795267	 0.2620940564	 0.104737
C	 4.3296109312	 5.7348817839	-0.2186396372	-0.179517
O	 3.1625961252	 5.4533676326	-0.9955542485	-0.22102
H	-0.8616852555	 1.8584912785	-0.3313247334	 0.100857
H	 4.0163255876	 2.9827256175	 1.1550852918	 0.149878
H	 4.2155011067	 3.0615716872	-0.5929680551	 0.15317
H	 2.6062140258	 5.145656977	 1.027170674	 0.108434
H	 4.3870455564	 6.7389988747	 0.1977168574	 0.123769
H	 5.2635519097	 5.3444407732	-0.6213069894	 0.118991
25.9554	56.9152	87.0792	168.6824	191.4954	328.046	372.2415	400.823	501.2757	607.9203	789.5396	829.5662	863.2806	931.9819	959.0972	1022.1555	1095.5538	1104.6712	1154.4897	1162.4375	1169.2698	1241.6551	1293.517	1317.7923	1422.3523	1437.0643	1442.5925	1531.1856	1768.4991	2333.9971	2919.4159	3021.6175	3063.9075	3086.1921	3113.8259	3174.2551
O=CC#CCC1CO1	O=CC#CC[C@H]1CO1	
InChI=1S/C6H6O2/c7-4-2-1-3-6-5-8-6/h4,6H,3,5H2	InChI=1S/C6H6O2/c7-4-2-1-3-6-5-8-6/h4,6H,3,5H2/t6-/m0/s1
