18
gdb 38615	2.67019	2.2302	1.63408	1.8788	73.77	-0.2349	0.0805	0.3154	867.0729	0.151396	-401.890724	-401.88448	-401.883536	-401.920946	26.73	
C	-0.0396023486	 1.5688316869	 0.0798571039	-0.267366
C	 1.4307084594	 1.9814077331	 0.0126408448	-0.030517
N	 2.2953931997	 2.032420431	-1.191312566	-0.427857
C	 2.2417645525	 0.808398102	-0.408332173	 0.282825
C	 3.1295532867	 0.2163171997	 0.6649884327	-0.145639
O	 2.1080261232	-0.4187350212	 1.4726383236	-0.27447
C	 1.080832276	-0.8541504578	 0.5941337166	 0.105193
C	 0.0122417537	 0.052316227	-0.0690315221	-0.073797
C	 1.2951869849	-0.3278781856	-0.7778102144	-0.199349
H	-0.4692967459	 1.8983205963	 1.0320232619	 0.113118
H	-0.6579837594	 2.0060871329	-0.7153421408	 0.101414
H	 1.8008287786	 2.6244042955	 0.8049183001	 0.099771
H	 1.7676458655	 1.9055543186	-2.0530855757	 0.234264
H	 3.8465346873	-0.5347679968	 0.3063383067	 0.094383
H	 3.6471549058	 0.9542983276	 1.2807684327	 0.119226
H	 0.7703476201	-1.8748165038	 0.7931858128	 0.100455
H	-0.9077866972	-0.4773427667	-0.3070408171	 0.081093
H	 1.4016888376	-0.9019321287	-1.6918039267	 0.087253
213.7711	243.6713	360.9549	398.7383	463.1862	548.712	615.8683	704.3535	726.0963	749.2071	784.5009	813.309	835.8137	878.7798	921.2634	957.2555	984.3121	995.8365	1016.6351	1025.4977	1046.958	1067.8636	1085.0872	1107.1507	1124.3425	1141.0845	1169.3405	1190.1012	1233.2877	1263.9076	1289.5388	1307.7001	1326.2655	1353.1259	1363.0268	1399.8214	1438.2524	1488.5341	1513.1129	3010.2154	3017.5553	3067.5487	3115.2712	3133.1955	3157.1508	3158.5813	3168.4071	3480.9538
C1C2NC22COC3C1C23	C1[C@@H]2N[C@]32CO[C@H]2[C@@H]1[C@@H]32	
InChI=1S/C7H9NO/c1-3-5-6(3)9-2-7(5)4(1)8-7/h3-6,8H,1-2H2	InChI=1S/C7H9NO/c1-3-5-6(3)9-2-7(5)4(1)8-7/h3-6,8H,1-2H2/t3-,4-,5+,6-,7-/m0/s1
