25
gdb 117831	2.27668	0.92721	0.81745	2.3526	84.49	-0.2565	0.0543	0.3107	1577.6427	0.226597	-426.620374	-426.608637	-426.607693	-426.657171	42.989	
C	 0.2098187127	 1.4625145449	-0.1122142792	-0.409929
C	-0.068460929	-0.0419893628	 0.0040641539	-0.200786
C	-1.554966987	-0.4923622562	 0.0081914038	 0.224485
C	-2.2738857643	 0.04561252	 1.2586066822	-0.42678
C	-2.2882768492	 0.0502458447	-1.2398223404	-0.084493
O	-1.7322741614	-0.3856706681	-2.4728601512	-0.429088
C	-1.5520586373	-2.0419353845	-0.0108675853	-0.211605
C	-2.8958513717	-2.7493367347	 0.1894905658	-0.082729
O	-2.7594984268	-4.1627261471	 0.1236723961	-0.418843
H	 1.2876658985	 1.6493101251	-0.0767783361	 0.118405
H	-0.1591883065	 1.88682755	-1.0526136638	 0.10904
H	-0.2454704725	 2.0323362295	 0.7032139653	 0.123745
H	 0.4477498467	-0.5624965111	-0.8133852987	 0.091256
H	 0.397078867	-0.4161997423	 0.9242199973	 0.098697
H	-2.2114076967	 1.1362147978	 1.3225937581	 0.112615
H	-3.3370722252	-0.2148122081	 1.2567429094	 0.118413
H	-1.8322632003	-0.3677455232	 2.171870802	 0.115579
H	-3.3235792298	-0.3046139392	-1.2458032935	 0.108174
H	-2.3346205631	 1.1481352197	-1.1938573735	 0.088254
H	-0.8866057526	 0.0565169106	-2.5924675743	 0.286514
H	-1.1429119371	-2.3584084927	-0.9792197457	 0.09556
H	-0.8650515464	-2.4124940361	 0.7599181752	 0.094679
H	-3.2996107956	-2.5475022557	 1.1861764751	 0.109136
H	-3.6401746277	-2.3949838774	-0.5400149837	 0.089784
H	-2.4243412847	-4.3798974532	-0.7522878487	 0.27992
71.3447	82.3738	88.5761	148.2402	159.0625	227.5398	250.7366	266.602	288.7172	310.4893	322.9176	337.277	346.0108	361.7519	412.8097	523.4477	558.2702	744.8092	773.996	792.068	874.2328	920.0572	965.8342	983.2103	1015.3584	1026.8974	1065.0685	1068.9707	1083.3149	1093.544	1134.461	1170.3848	1219.3167	1246.443	1252.7155	1309.5478	1332.8808	1355.7004	1374.13	1391.8154	1398.588	1414.3339	1417.4987	1426.0209	1429.1034	1477.1919	1490.1367	1492.4382	1499.5429	1508.614	1513.1241	1515.4249	1519.4333	2985.176	2997.6832	3015.476	3022.2436	3033.0741	3036.8823	3048.2324	3058.5383	3077.7426	3086.1835	3097.0431	3099.7666	3102.516	3109.8724	3812.6019	3829.2227
CCC(C)(CO)CCO	CC[C@@](C)(CO)CCO	
InChI=1S/C7H16O2/c1-3-7(2,6-9)4-5-8/h8-9H,3-6H2,1-2H3	InChI=1S/C7H16O2/c1-3-7(2,6-9)4-5-8/h8-9H,3-6H2,1-2H3/t7-/m1/s1
