18
gdb 37459	2.84095	2.10489	1.83253	1.7776	72.49	-0.2159	0.0764	0.2922	837.3048	0.151584	-401.895694	-401.889691	-401.888747	-401.92569	26.021	
C	 0.0046878484	 1.4497926947	-0.2017618885	-0.254497
C	 1.2759644767	 0.6848121101	-0.0201331768	-0.034387
C	 1.9163036811	 0.535350863	 1.3732899775	-0.080319
C	 1.6231422871	 1.7269950032	 2.2978239085	-0.094824
O	 0.252639007	 1.5625175873	 2.6905935043	-0.26031
C	-0.0469875382	 0.1884578528	 2.6253303506	 0.080639
C	 1.0922131395	-0.5946293649	 2.0551395997	-0.129975
C	-0.213574743	-0.5602939408	 1.2932972798	-0.051126
N	-0.0146801811	-0.0176459261	-0.0445183222	-0.102789
H	-0.3676127701	 2.0617516102	 0.6088458618	 0.151335
H	-0.2632563264	 1.7875268764	-1.2001770167	 0.108442
H	 1.9217617681	 0.5234576602	-0.8805996768	 0.087965
H	 2.982241094	 0.3137047616	 1.3050329598	 0.078541
H	 2.2693615583	 1.7119736633	 3.1873134686	 0.099018
H	 1.7206859158	 2.6979706433	 1.8044014978	 0.113949
H	-0.6404449201	-0.1558623949	 3.4664996135	 0.101504
H	 1.5570344615	-1.4653263788	 2.5007856921	 0.091015
H	-0.8974826586	-1.4024767606	 1.323483697	 0.095821
225.7823	267.7646	326.2953	469.485	597.879	611.1135	662.7359	710.6446	750.8088	764.8688	786.6836	804.5899	857.338	877.8685	916.0293	948.1483	962.9176	1006.7262	1037.7872	1049.9029	1064.8741	1070.1857	1097.2633	1103.593	1114.3088	1140.4542	1165.3895	1173.2278	1212.5607	1239.7101	1273.2435	1284.233	1308.1135	1323.827	1363.8695	1377.4537	1405.0451	1496.5327	1512.959	3000.776	3092.0702	3103.479	3114.5533	3126.4584	3154.432	3163.122	3184.7924	3235.5691
C1C2C3COC4C3C4N12	C1[C@H]2[C@H]3CO[C@@H]4[C@H]3[C@@H]4N12	
InChI=1S/C7H9NO/c1-4-3-2-9-7-5(3)6(7)8(1)4/h3-7H,1-2H2	InChI=1S/C7H9NO/c1-4-3-2-9-7-5(3)6(7)8(1)4/h3-7H,1-2H2/t3-,4+,5-,6+,7-,8?/m1/s1
