15
gdb 125523	4.28589	1.15429	0.91454	3.6797	70.68	-0.2677	-0.036	0.2317	1221.4525	0.113279	-450.176165	-450.167587	-450.166643	-450.210318	30.048	
C	-0.0311325237	 1.4686784248	-0.0193343164	-0.496483
C	 0.0057941881	-0.0233458692	 0.0307547524	 0.314686
N	-0.02698744	-0.76803597	-1.0682736017	-0.248238
N	 0.0223972376	-2.0224487428	-0.6152945228	 0.025323
N	 0.0859238945	-2.1462804212	 0.7181564703	-0.223722
C	 0.0768914445	-0.8943532495	 1.1461481926	-0.121811
C	 0.0090501523	-3.1653866283	-1.5015442936	 0.527417
N	 0.0608191367	-4.3247268859	-0.8073543753	-0.563408
O	-0.0434208732	-3.0322583851	-2.6945612539	-0.342611
H	 0.8618106756	 1.9037205436	 0.4415233214	 0.138906
H	-0.0833677945	 1.8028246932	-1.0568795346	 0.155397
H	-0.9007730913	 1.8626620507	 0.5168961089	 0.138992
H	 0.1198455912	-0.6664538454	 2.2002296752	 0.133278
H	 0.1128280585	-4.3205293103	 0.1972839619	 0.285772
H	 0.0678703939	-5.1812621346	-1.3311011844	 0.276502
52.1401	77.2696	130.1637	194.1591	196.924	298.1812	350.939	419.1614	532.8846	579.2428	640.0885	672.2531	693.1058	727.5374	763.5544	882.2542	987.5525	994.7617	1056.6975	1068.4374	1101.2639	1197.5631	1271.7744	1287.5415	1358.285	1403.511	1413.5166	1444.3209	1483.6396	1493.118	1577.0493	1590.0301	1873.6325	3042.1893	3095.9583	3142.6275	3258.6111	3612.8206	3758.9064
CC1=NN(N=C1)C(N)=O	Cc1nn(nc1)C(=O)N	
InChI=1S/C4H6N4O/c1-3-2-6-8(7-3)4(5)9/h2H,1H3,(H2,5,9)	InChI=1S/C4H6N4O/c1-3-2-6-8(7-3)4(5)9/h2H,1H3,(H2,5,9)
