17
gdb 18062	4.86044	1.26849	1.22597	4.2544	71.89	-0.27	0.041	0.3109	1026.8178	0.143589	-326.711563	-326.704268	-326.703324	-326.743718	27.425	
N	-0.0238076064	-0.9740050098	-0.4930312283	-0.309575
C	-0.0121177527	 0.1204256886	-0.1221228359	 0.264024
C	 0.0258743709	 1.5057415473	 0.3480314118	-0.374399
C	 1.4001529713	 2.1387100098	 0.1598504035	 0.005842
C	 1.9149702987	 2.7265363499	-1.1232291992	-0.049993
C	 0.8140526754	 3.4555922281	-1.9046668126	-0.234455
C	 0.5513977685	 4.3656511704	-0.6610300277	-0.233433
C	 1.6534524727	 3.6199511396	 0.1033404697	-0.087533
H	-0.7490236047	 2.0680345762	-0.1810778541	 0.152208
H	-0.2512327419	 1.5180454962	 1.4089141122	 0.151127
H	 2.1760830204	 1.6074761681	 0.7056634393	 0.106396
H	 2.8599344678	 2.4016760404	-1.5415577465	 0.093546
H	 1.2085125437	 4.0238148587	-2.7489111412	 0.11218
H	-0.0161394069	 2.8413131767	-2.2685096534	 0.104573
H	 0.8155223938	 5.4067211129	-0.8561022766	 0.111307
H	-0.4521242692	 4.3489159312	-0.2222642743	 0.097264
H	 2.3663933683	 4.0861016056	 0.7733438533	 0.090922
47.3853	132.4819	237.16	246.2142	378.9069	391.7798	497.4331	554.3571	709.7313	765.0276	787.2759	802.9327	890.7994	922.1659	940.8691	967.3056	974.0179	1003.0032	1025.0007	1029.9808	1081.9753	1123.5619	1139.9126	1188.9727	1222.7736	1239.3319	1255.9811	1265.3582	1307.2755	1314.07	1357.465	1447.7114	1460.8075	1488.479	1507.73	2361.0164	3042.7929	3045.4586	3052.1873	3093.8235	3101.2861	3118.8719	3143.7013	3175.461	3188.5276
N#CCC1C2CCC12	N#CC[C@H]1[C@H]2CC[C@@H]12	
InChI=1S/C7H9N/c8-4-3-7-5-1-2-6(5)7/h5-7H,1-3H2	InChI=1S/C7H9N/c8-4-3-7-5-1-2-6(5)7/h5-7H,1-3H2/t5-,6+,7-
