22
gdb 85817	1.9598	1.42588	1.33426	3.9447	85.7	-0.2923	0.038	0.3303	1182.6022	0.193057	-367.234818	-367.224826	-367.223882	-367.269071	37.617	
C	-0.4283245633	 1.4626491974	-0.103805486	-0.408816
C	-0.0777310756	-0.0213203067	-0.0117875075	 0.002271
C	 1.1148663936	-0.4514371511	-0.9118342134	-0.266405
C	 2.0514631481	-0.5126542785	 0.3458466881	 0.130349
C	 2.9447581729	-1.7493725946	 0.4901941962	-0.455163
C	 2.8589756635	 0.6980852474	 0.4745817097	 0.270772
N	 3.501964315	 1.6544274907	 0.5800604141	-0.366543
C	 0.7499923261	-0.4671138447	 1.2387666734	 0.002284
C	 0.7299043171	 0.3495968288	 2.5209111804	-0.4256
H	 0.4546653636	 2.1011061771	-0.0021582026	 0.141337
H	-0.8837552887	 1.682203689	-1.0754316565	 0.116239
H	-1.1439223688	 1.7532617906	 0.6723563313	 0.117026
H	-0.9859467918	-0.6125693358	-0.1611751341	 0.071308
H	 0.9914436067	-1.4474322231	-1.3444798883	 0.104987
H	 1.4104342654	 0.2426845213	-1.701280798	 0.117312
H	 3.728034531	-1.7617343721	-0.2737382653	 0.135981
H	 3.429400495	-1.7751245126	 1.4710128731	 0.135166
H	 2.3411249689	-2.6550464042	 0.3792482501	 0.119852
H	 0.5010248364	-1.5082337626	 1.4722069966	 0.078334
H	 1.0102635352	 1.3918981341	 2.3487075166	 0.141162
H	-0.2696576846	 0.3354180112	 2.9684756193	 0.117514
H	 1.4273257844	-0.0629155717	 3.2580550227	 0.120632
76.3902	140.9859	181.9742	197.9572	226.6614	236.8965	253.1622	259.7447	305.3134	343.8471	405.1027	488.3537	543.8431	604.3755	639.2586	718.5877	788.3249	818.5306	884.0775	918.9857	923.0644	988.7906	1018.0437	1040.2084	1055.3815	1112.2055	1128.8731	1142.1204	1188.3803	1205.4846	1229.7108	1264.6719	1279.8767	1311.141	1364.3913	1373.7857	1409.1807	1414.5933	1419.7631	1480.7428	1489.5697	1489.9058	1493.0624	1496.1145	1503.4306	1507.2551	2341.0733	3032.7186	3034.7904	3036.5692	3039.3558	3054.1788	3066.745	3095.3542	3098.6787	3110.4355	3112.1693	3113.9459	3121.0138	3123.1828
CC1CC(C)(C#N)C1C	C[C@H]1C[C@@](C)(C#N)[C@H]1C	
InChI=1S/C8H13N/c1-6-4-8(3,5-9)7(6)2/h6-7H,4H2,1-3H3	InChI=1S/C8H13N/c1-6-4-8(3,5-9)7(6)2/h6-7H,4H2,1-3H3/t6-,7-,8-/m0/s1
