18
gdb 112219	2.02925	1.38556	0.93005	5.1704	77.3	-0.2667	-0.0445	0.2222	1281.6876	0.146204	-401.975842	-401.96667	-401.965726	-402.010488	33.065	
C	 0.1561370495	 1.5027029667	 0.2106768935	-0.392126
C	 0.2078895327	-0.0239023616	 0.1055707605	-0.185891
C	 0.5666423769	-0.5063980053	-1.2985486658	-0.012625
C	 2.0691778269	-0.3209858229	-1.6873931322	-0.356653
C	 2.2748783331	-1.8258081012	-1.5006885365	 0.402864
O	 3.2160274297	-2.5417802793	-1.3712972733	-0.263226
C	 0.7302072887	-2.0692089773	-1.445665701	-0.293505
C	 0.1932597314	-2.9532792749	-0.4330812747	 0.295715
N	-0.2270225489	-3.6416990662	 0.3956261075	-0.328765
H	 1.1189065339	 1.9595310387	-0.0428012955	 0.119715
H	-0.5967089513	 1.9205209764	-0.4666537534	 0.120374
H	-0.0998629161	 1.8143959287	 1.2271365435	 0.126608
H	 0.9339688417	-0.4234498314	 0.8259495882	 0.113352
H	-0.761385997	-0.4483331307	 0.3907339106	 0.124276
H	-0.1343331693	-0.0948976898	-2.0280516108	 0.091051
H	 2.2333146899	-0.0169117147	-2.7260830921	 0.141965
H	 2.6787830122	 0.3147485774	-1.0402349429	 0.144216
H	 0.4023354361	-2.4049787423	-2.4363574355	 0.152655
51.6592	110.7943	114.9494	141.1773	220.592	257.2129	353.1059	382.9293	408.0129	425.2782	544.6783	595.6899	706.9625	738.6038	775.3451	797.2266	901.2149	927.5089	972.7863	1030.4833	1032.6847	1061.5304	1090.668	1107.3913	1127.8241	1213.4341	1223.0948	1260.5331	1282.6089	1313.8538	1346.2366	1394.3273	1416.2278	1438.1922	1485.1163	1500.4163	1506.1509	1911.6418	2352.8302	3024.7602	3034.5265	3052.7951	3060.8241	3064.1061	3086.9354	3101.1269	3112.3884	3117.6579
CCC1CC(=O)C1C#N	CC[C@H]1CC(=O)[C@H]1C#N	
InChI=1S/C7H9NO/c1-2-5-3-7(9)6(5)4-8/h5-6H,2-3H2,1H3	InChI=1S/C7H9NO/c1-2-5-3-7(9)6(5)4-8/h5-6H,2-3H2,1H3/t5-,6-/m0/s1
