18
gdb 50316	3.89309	1.09715	0.92742	3.2589	78.3	-0.2459	-0.0244	0.2215	1241.9572	0.14894	-401.937713	-401.929787	-401.928843	-401.971101	29.916	
O	-0.3727510024	 0.1513252676	-0.094495655	-0.247076
C	-0.09699083	 1.3166191099	 0.0206054189	 0.150131
C	 1.3120310021	 1.8826622921	 0.0505017237	-0.116466
C	 1.5387409802	 2.6834035271	-1.2596855462	-0.229187
C	 2.7343832679	 3.6257362728	-1.1871417629	-0.056506
N	 2.4201966904	 5.0407142431	-0.8987956996	-0.334753
C	 3.1032773884	 4.2098862091	 0.1249926758	-0.0676
C	 2.3114651899	 3.8042250331	 1.3123500815	-0.059259
C	 1.5062212717	 2.7428083877	 1.2835222182	-0.069636
H	-0.8938699813	 2.0940819797	 0.0991263963	 0.079888
H	 1.9911478722	 1.0212086202	 0.0877013358	 0.103908
H	 1.653642771	 1.9815180496	-2.0910586933	 0.112967
H	 0.6477188582	 3.2878234495	-1.4638285175	 0.121745
H	 3.5398903703	 3.4275367668	-1.8891992427	 0.090303
H	 3.1048243092	 5.6433282282	-1.3510515667	 0.230099
H	 4.1531352932	 4.4266503802	 0.3116333747	 0.091782
H	 2.4255065111	 4.3836468676	 2.2246052315	 0.098215
H	 0.9669256879	 2.4478274257	 2.1806008277	 0.101445
48.4432	70.7034	196.0481	286.6286	333.9594	359.8919	417.938	519.2548	526.246	586.3675	732.2114	768.0345	814.0546	825.8049	898.5404	923.9437	936.0546	964.9333	998.6096	1007.0683	1025.5895	1084.2548	1113.7619	1119.863	1165.0864	1189.0795	1221.9155	1241.5613	1257.5884	1275.6642	1324.8615	1348.5162	1389.3769	1422.2068	1424.3673	1456.5535	1478.0645	1709.2456	1835.6038	2852.727	3027.9365	3040.1844	3088.868	3123.2276	3140.7131	3147.7078	3172.0793	3485.7736
O=CC1CC2NC2C=C1	O=C[C@H]1C[C@H]2N[C@H]2C=C1	
InChI=1S/C7H9NO/c9-4-5-1-2-6-7(3-5)8-6/h1-2,4-8H,3H2	InChI=1S/C7H9NO/c9-4-5-1-2-6-7(3-5)8-6/h1-2,4-8H,3H2/t5-,6+,7-/m1/s1
