21
gdb 118723	2.4114	1.3874	1.05509	1.4102	78.92	-0.2247	0.0735	0.2981	1241.2531	0.180551	-424.174629	-424.165219	-424.164275	-424.208954	35.059	
C	-0.3322069075	 1.4822528719	-0.0371431466	-0.386813
C	-0.2959971127	 0.0023553692	-0.3769225762	-0.051279
O	-1.304572014	-0.6482931293	 0.3923203304	-0.294806
C	-1.4153202705	-2.0204349704	 0.1689478589	 0.428627
C	-0.4464039677	-2.8805344248	 0.953991499	-0.463029
C	-2.8066696661	-2.5824418154	-0.0001902565	-0.21116
C	-3.6324397902	-1.6131377368	-0.8394583273	-0.095022
O	-2.6226481003	-1.5851978593	-1.8877642785	-0.286801
C	-1.8391197287	-2.5410489118	-1.1795355624	 0.007998
H	 0.4306484128	 2.0218252276	-0.6065685666	 0.113334
H	-1.3105596815	 1.9067068259	-0.2797964094	 0.127012
H	-0.1452558909	 1.6388042665	 1.0292198896	 0.122656
H	-0.4904352807	-0.1588740371	-1.4448198909	 0.11363
H	 0.6949378985	-0.4166297303	-0.143858896	 0.083647
H	-0.5904335134	-2.729793243	 2.0285057056	 0.129083
H	-0.5928922346	-3.942658153	 0.734416336	 0.118999
H	 0.590950065	-2.6296218508	 0.7105158879	 0.123403
H	-3.1905471647	-3.4066447966	 0.5869536014	 0.096553
H	-4.5618028599	-2.0471381884	-1.2228901914	 0.106762
H	-3.8144141024	-0.6217711169	-0.414990523	 0.118177
H	-1.3292859306	-3.3079106371	-1.7543664341	 0.099028
61.2047	108.0082	158.2749	204.5048	220.7656	245.0188	254.0512	319.4425	346.7149	415.9644	513.1187	577.0296	712.4516	790.9502	821.9012	828.3232	870.4625	905.9423	953.8878	971.963	977.8943	1018.6274	1039.8676	1067.1614	1075.5418	1099.8996	1131.0802	1160.1887	1172.0645	1183.5995	1191.203	1248.0197	1276.1855	1301.1874	1329.5666	1399.0192	1407.6535	1413.0759	1432.6914	1483.1822	1484.2047	1499.9314	1500.5322	1504.2043	1523.3501	2984.6669	3035.3782	3040.6462	3043.6455	3045.2904	3099.3551	3102.6481	3109.0728	3117.6163	3120.882	3159.0843	3194.7127
CCOC1(C)C2COC12	CCO[C@@]1(C)[C@H]2CO[C@@H]12	
InChI=1S/C7H12O2/c1-3-9-7(2)5-4-8-6(5)7/h5-6H,3-4H2,1-2H3	InChI=1S/C7H12O2/c1-3-9-7(2)5-4-8-6(5)7/h5-6H,3-4H2,1-2H3/t5-,6+,7-/m0/s1
