16
gdb 91851	3.71718	1.19816	1.09622	5.3716	69.58	-0.2721	0.0048	0.2768	1109.4198	0.124316	-437.885567	-437.877631	-437.876687	-437.91802	30.01	
O	-0.6675867848	 1.2153249848	 0.811593817	-0.424004
C	 0.0106064296	 0.1893457147	 0.1076998046	 0.104288
C	 0.8768486535	-0.7127938022	 1.0329524498	-0.276776
C	-0.0111692919	-1.8834532074	 1.3951795879	-0.000474
O	-1.3145079058	-1.5119529647	 1.8442991083	-0.266537
C	-1.1687704255	-1.905276278	 0.4746373882	 0.287784
C	-1.0691942981	-0.7395462218	-0.4961619781	-0.292188
C	-1.8391992394	-3.1218347199	 0.0817124889	 0.216096
N	-2.3742893512	-4.0844222235	-0.2691208602	-0.331661
H	-0.010263952	 1.7999160496	 1.202183208	 0.284515
H	 0.6295527099	 0.6232751949	-0.6893458991	 0.077747
H	 1.7631767652	-1.084152108	 0.5053262015	 0.115633
H	 1.2196775987	-0.1636620325	 1.9157420613	 0.116493
H	 0.3941600892	-2.7905551733	 1.8361567641	 0.118891
H	-2.0139851061	-0.2021747046	-0.6010636406	 0.146124
H	-0.7708036114	-1.1131485381	-1.4805990514	 0.124068
107.8481	137.1884	169.6062	259.3254	302.7175	384.5298	399.7477	423.5517	521.0598	560.0767	585.6884	693.1467	767.7257	819.8237	869.854	915.2454	928.6292	961.2084	977.5206	1023.956	1055.0542	1131.3016	1175.1685	1195.3506	1220.8036	1253.5842	1275.9454	1306.4218	1330.415	1361.7856	1423.5669	1433.9968	1460.3366	1475.5985	2360.235	3001.0101	3043.9582	3066.9789	3090.7281	3125.1241	3154.0173	3818.7078
OC1CC2OC2(C1)C#N	O[C@H]1C[C@H]2O[C@]2(C1)C#N	
InChI=1S/C6H7NO2/c7-3-6-2-4(8)1-5(6)9-6/h4-5,8H,1-2H2	InChI=1S/C6H7NO2/c7-3-6-2-4(8)1-5(6)9-6/h4-5,8H,1-2H2/t4-,5+,6+/m0/s1
