16
gdb 44764	2.76286	1.66378	1.22882	1.8609	75.64	-0.2226	-0.0195	0.203	1009.5175	0.124728	-400.691559	-400.684169	-400.683225	-400.723295	29.261	
O	 0.0272890664	 0.0528692359	-0.0530848696	-0.310438
C	 0.0186704557	 1.2480235697	-0.0093206385	 0.391575
C	-1.1711183247	 2.2355665111	 0.042716912	-0.290034
N	-0.4664471169	 3.543642912	 0.0806551717	-0.137298
C	 0.5947824394	 3.3114831616	-0.9714612161	-0.222996
C	 1.1981785405	 2.2437077898	 0.0107073953	 0.102414
C	 0.6228405978	 3.236809179	 1.0838375947	-0.222998
C	 2.5404684455	 1.7477112397	-0.0256378924	 0.037468
C	 3.6721247393	 1.3426190061	-0.0558063649	-0.315684
H	-1.810297546	 2.1523922728	-0.8405601346	 0.137571
H	-1.7861763613	 2.0879027164	 0.9346491377	 0.137559
H	 0.2290891742	 2.9796301054	-1.9464510842	 0.121521
H	 1.2334900481	 4.1899689524	-1.0773392029	 0.130888
H	 1.2650716836	 4.1059264213	 1.2357235707	 0.130887
H	 0.283532491	 2.8347296299	 2.0417861163	 0.121518
H	 4.6682044775	 0.9758632868	-0.0827399152	 0.188048
128.5526	130.72	187.0967	382.472	444.2692	479.8809	485.0297	505.2898	601.9978	624.6236	626.1615	629.6269	657.1704	749.2137	843.759	868.1428	922.5881	958.0855	993.0843	1010.6345	1011.4589	1044.494	1087.6382	1156.1659	1209.6257	1217.4546	1230.4265	1237.699	1292.7539	1323.7045	1469.8392	1498.796	1532.1565	1882.3403	2238.597	3063.3489	3064.3555	3070.0347	3116.3888	3134.5697	3135.7567	3503.1605
O=C1CN2CC1(C2)C#C	O=C1CN2C[C@]1(C2)C#C	
InChI=1S/C7H7NO/c1-2-7-4-8(5-7)3-6(7)9/h1H,3-5H2	InChI=1S/C7H7NO/c1-2-7-4-8(5-7)3-6(7)9/h1H,3-5H2
