15
gdb 45394	2.19207	1.74075	1.27961	4.6995	71.	-0.2555	-0.0492	0.2063	1007.2976	0.112955	-416.793336	-416.785595	-416.78465	-416.82599	28.674	
O	 0.0063919835	 0.0044329476	-0.288384175	-0.26666
C	-0.0553747495	 1.1659553192	-0.0400049592	 0.366238
C	-1.1638785523	 2.1354557551	 0.3971690146	-0.323923
C	-0.084173265	 3.2227611804	 0.6139155368	-0.06006
N	 0.5795947977	 3.0770296716	 1.9297672506	-0.315646
C	 1.7701724639	 2.4221918032	 1.3332028366	-0.211985
C	 1.0280481076	 2.3042296791	-0.0340814807	 0.05479
C	 1.7399022143	 2.5691059244	-1.251927852	 0.195393
N	 2.2993007652	 2.7916210367	-2.2403666465	-0.334815
H	-1.8204211099	 2.3509425915	-0.4548257237	 0.14645
H	-1.763770053	 1.8475698906	 1.2620772194	 0.146605
H	-0.2862541256	 4.2337911557	 0.2611601194	 0.100804
H	 0.7813084541	 3.9530965977	 2.3945811749	 0.236117
H	 2.6501650711	 3.0677475957	 1.2434118534	 0.130622
H	 2.061052558	 1.4792473516	 1.8050731313	 0.13607
75.7369	122.8884	166.0754	212.2793	354.1232	388.862	486.1967	507.2902	552.6405	599.6157	648.2449	694.8476	754.0999	850.7209	906.2828	948.9983	1012.7582	1017.705	1032.2691	1050.6589	1067.2627	1111.848	1158.8584	1165.4013	1229.5212	1243.1821	1296.7583	1353.0682	1386.3082	1419.9466	1516.0928	1910.1238	2344.5891	3039.949	3047.2939	3094.0514	3120.1358	3132.262	3562.7702
O=C1CC2NCC12C#N	O=C1C[C@H]2NC[C@@]12C#N	
InChI=1S/C6H6N2O/c7-2-6-3-8-4(6)1-5(6)9/h4,8H,1,3H2	InChI=1S/C6H6N2O/c7-2-6-3-8-4(6)1-5(6)9/h4,8H,1,3H2/t4-,6-/m1/s1
