20
gdb 30337	2.85286	1.67277	1.10788	2.2479	85.96	-0.1906	0.0534	0.244	1116.3607	0.174291	-366.07046	-366.062757	-366.061812	-366.102491	30.751	
C	-0.0732716027	 1.5604489962	 0.0236136462	-0.402752
C	 0.0292964378	 0.0385671298	 0.0282830891	 0.040415
C	 0.7689215028	-0.5582941971	-1.1974808976	-0.214839
C	 1.4781246494	-1.8394364868	-0.6805383147	-0.356722
C	 1.6402671765	-1.5398494238	 0.7798396507	 0.354673
C	 2.2671873218	-1.9919909346	 1.9191359515	-0.331115
C	 1.8091343614	-1.1696616927	 2.9908684387	-0.141458
C	 0.9177147188	-0.2508234545	 2.4741185437	-0.146431
N	 0.8373210478	-0.4833598905	 1.1263925252	 0.011146
H	 0.921577794	 2.0145502547	-0.017388453	 0.128177
H	-0.6446701518	 1.8949845564	-0.8478425251	 0.121391
H	-0.5842467118	 1.9301935076	 0.9178381442	 0.123645
H	-0.9835672637	-0.3856817207	 0.0955550555	 0.087795
H	 0.0878705909	-0.7494168489	-2.0301223132	 0.103499
H	 1.5185288588	 0.1633915565	-1.5394918749	 0.110295
H	 0.8509692939	-2.726775494	-0.8407716922	 0.11248
H	 2.4240829997	-2.0229629453	-1.1981814615	 0.115017
H	 2.9733132333	-2.8054487763	 1.9852470645	 0.087642
H	 2.1120381361	-1.2355895888	 4.02531151	 0.087727
H	 0.3646310969	 0.5437201328	 2.9482049028	 0.109414
115.0399	138.1342	231.4714	243.3249	278.4292	434.4277	483.2413	565.0352	616.3314	636.1511	685.3835	695.0628	722.7902	762.5139	823.3854	830.4003	910.0404	918.7059	962.0035	978.8026	1018.7904	1042.4508	1092.1563	1099.1899	1128.103	1143.9284	1201.9689	1215.5469	1251.2238	1304.4116	1311.8915	1322.9759	1344.7843	1385.152	1410.2611	1421.9398	1448.7951	1486.7304	1491.1142	1498.7184	1502.1776	1506.813	1592.0996	2986.7484	3012.9361	3037.9008	3050.3664	3077.8213	3107.1678	3109.558	3116.6788	3235.2962	3250.5629	3267.8075
CC1CCC2=CC=CN12	C[C@H]1CCc2cccn12	
InChI=1S/C8H11N/c1-7-4-5-8-3-2-6-9(7)8/h2-3,6-7H,4-5H2,1H3	InChI=1S/C8H11N/c1-7-4-5-8-3-2-6-9(7)8/h2-3,6-7H,4-5H2,1H3/t7-/m0/s1
