22
gdb 103096	1.79786	1.47846	1.12375	4.1904	87.14	-0.2747	0.0337	0.3084	1260.5839	0.192458	-367.23405	-367.223537	-367.222593	-367.269181	38.507	
C	 0.072345364	 1.4788364455	 0.3691958012	-0.388622
C	-0.0298448677	 0.0545203971	-0.1929223642	-0.24947
C	-1.4194338895	-0.5623441515	-0.0897858529	 0.321058
C	-2.5099010552	 0.1823434281	-0.8412023634	-0.459863
C	-1.5752929823	-2.0581910218	 0.0137087279	-0.066186
C	-0.4312279632	-3.047832962	-0.0142850687	-0.42558
C	-1.857392216	-1.1885482651	 1.2431573513	-0.239266
C	-0.9626549085	-1.2201257479	 2.3631441374	 0.297889
N	-0.2376023106	-1.2430812989	 3.2659125203	-0.359124
H	 1.1002535744	 1.8446980439	 0.2905527487	 0.118526
H	-0.5686424106	 2.1816965127	-0.1713111383	 0.116033
H	-0.2092596949	 1.5044040272	 1.4262635933	 0.135764
H	 0.2634155575	 0.054265002	-1.2511571745	 0.097556
H	 0.6974380325	-0.5753922598	 0.3254151021	 0.117425
H	-2.2615468074	 0.2508181711	-1.9066809486	 0.122551
H	-3.4732388733	-0.3298196618	-0.7565863552	 0.116203
H	-2.6417417974	 1.2004047466	-0.4626152344	 0.12953
H	-2.4855919273	-2.4426233391	-0.4407713253	 0.094666
H	 0.4229218702	-2.7212041903	 0.5822162236	 0.144726
H	-0.7570458855	-4.0124484348	 0.3878459639	 0.128889
H	-0.0874235463	-3.2125690499	-1.0409149291	 0.123313
H	-2.8967494731	-1.0563292114	 1.5264930551	 0.123982
81.0434	121.1604	130.1264	152.6163	188.2516	209.279	231.3388	247.2178	287.3153	357.0377	388.4903	421.0216	498.8386	569.7461	615.259	692.7451	762.3746	794.7081	822.0761	914.5696	960.6067	1002.4728	1016.7023	1030.4585	1039.4711	1080.4599	1123.3949	1129.6332	1146.0281	1164.172	1241.1999	1311.0131	1314.5028	1359.8821	1380.78	1410.1041	1417.189	1422.1911	1442.8431	1477.834	1488.7931	1495.2664	1497.7033	1503.9099	1506.3384	1508.9496	2342.337	3024.1361	3029.8418	3040.9792	3041.6035	3090.106	3095.4433	3100.0889	3104.2888	3112.5322	3117.1417	3123.4421	3139.708	3160.3891
CCC1(C)C(C)C1C#N	CC[C@@]1(C)[C@@H](C)[C@H]1C#N	
InChI=1S/C8H13N/c1-4-8(3)6(2)7(8)5-9/h6-7H,4H2,1-3H3	InChI=1S/C8H13N/c1-4-8(3)6(2)7(8)5-9/h6-7H,4H2,1-3H3/t6-,7+,8-/m0/s1
