20
gdb 55911	3.93205	1.0261	0.90896	1.0109	80.43	-0.2519	0.0349	0.2867	1346.0135	0.170814	-403.13276	-403.123918	-403.122974	-403.167041	33.019	
C	 0.1515957761	 1.4277851685	-0.1095329799	-0.460725
C	 0.0102361776	-0.0680940459	 0.0187784027	 0.394535
N	-0.3467900235	-0.7455779233	 1.0333438535	-0.524357
O	 0.3283013874	-0.6651321374	-1.1479573814	-0.254386
C	 0.2619703329	-2.0946772388	-1.1821047027	 0.159004
C	-1.1401877119	-2.7613169255	-1.3339849431	-0.253045
C	-0.6485979256	-3.4017007039	-2.6385402549	-0.046663
C	-0.2599733472	-2.3262765519	-3.6071387825	-0.270706
C	 0.7049955428	-2.684633285	-2.5085605325	-0.085685
H	-0.1070167006	 1.9284543991	 0.8248524835	 0.124369
H	 1.1788233179	 1.6865080197	-0.3840067052	 0.145723
H	-0.4980947444	 1.7999056914	-0.9076450297	 0.14463
H	-0.5378261945	-0.1310525586	 1.8213782939	 0.216909
H	 0.800751736	-2.4922650721	-0.3208723482	 0.102805
H	-1.3468897157	-3.46225467	-0.5244113866	 0.11384
H	-1.9849156786	-2.0735002629	-1.4330809114	 0.099347
H	-0.833440207	-4.4221401507	-2.9487888373	 0.08758
H	 0.0358930194	-2.6642856575	-4.5949675429	 0.110234
H	-0.7687230494	-1.3660169557	-3.5953821468	 0.112285
H	 1.7015223583	-3.0510816693	-2.7220327584	 0.084306
64.5234	84.657	114.8324	123.2768	224.8723	339.2672	348.4796	437.4924	538.1181	576.5889	597.5766	691.3567	783.4612	806.4355	846.9113	855.377	915.4954	928.0198	960.9951	972.3681	1011.7991	1024.1182	1043.8152	1062.8595	1067.2024	1076.9504	1084.0245	1112.8532	1119.3409	1147.7743	1209.1073	1238.0062	1259.7624	1315.5856	1353.8022	1367.8413	1392.0332	1425.9788	1471.1828	1477.2713	1482.0309	1495.8862	1720.9504	3047.9597	3061.7199	3100.3555	3111.1603	3116.844	3129.3026	3142.9372	3183.248	3193.4837	3208.0529	3513.2749
CC(=N)OC1CC2CC12	C[C]([NH])O[C@H]1C[C@H]2C[C@@H]12	
InChI=1S/C7H11NO/c1-4(8)9-7-3-5-2-6(5)7/h5-8H,2-3H2,1H3	InChI=1S/C7H11NO/c1-4(8)9-7-3-5-2-6(5)7/h5-8H,2-3H2,1H3/t5-,6-,7+/m1/s1
