14
gdb 47392	2.77331	1.41394	1.16508	5.4616	62.37	-0.2999	-0.0101	0.2898	1041.5645	0.101821	-473.870347	-473.862714	-473.86177	-473.903394	27.286	
O	-0.0622684132	 0.1243357465	 0.7356309364	-0.340345
C	-0.0789594434	 1.141341754	 0.1181105374	 0.489747
O	-1.2296184214	 1.7769918093	-0.1643736558	-0.251992
C	-1.2813808652	 2.953659541	-0.987191585	-0.078841
C	-0.0433899442	 3.8036384512	-0.7816533539	-0.261833
C	 1.1702644148	 2.9148304653	-1.0469106464	-0.01277
O	 1.1006055522	 1.7047256978	-0.2845656673	-0.259235
C	 1.3037522293	 2.5926886278	-2.4807983347	 0.282578
N	 1.3958193337	 2.3657303012	-3.6094925607	-0.305577
H	-1.378939855	 2.6470559419	-2.0351761826	 0.150333
H	-2.1935796473	 3.4746803677	-0.6917822523	 0.142601
H	-0.0428007209	 4.6634553341	-1.4560776514	 0.147465
H	 0.0067291154	 4.1674872517	 0.2488674358	 0.142178
H	 2.0952941151	 3.4024144905	-0.7257699496	 0.155691
56.4294	99.9054	171.1604	222.8605	329.0786	416.2402	460.4418	486.2087	597.3272	614.9601	723.5374	756.6921	782.2906	868.5046	929.6703	965.6729	999.4234	1084.8844	1104.4117	1130.2616	1176.0704	1238.497	1278.1743	1328.8747	1373.503	1381.9449	1431.3009	1470.5398	1517.7273	1897.1069	2362.3473	3047.8483	3065.7863	3079.0145	3119.9544	3125.4419
O=C1OCCC(O1)C#N	O=C1OCC[C@@H](O1)C#N	
InChI=1S/C5H5NO3/c6-3-4-1-2-8-5(7)9-4/h4H,1-2H2	InChI=1S/C5H5NO3/c6-3-4-1-2-8-5(7)9-4/h4H,1-2H2/t4-/m1/s1
