23
gdb 95303	2.53168	1.64016	1.43004	1.4837	83.3	-0.2364	0.0731	0.3096	1063.2288	0.209783	-388.319847	-388.312018	-388.311074	-388.351636	32.37	
C	-0.2813534302	 1.5632495465	 0.0890839381	-0.409651
C	 0.0088395754	 0.0602966955	-0.0267943902	 0.030889
C	 0.6230114015	-0.3420075387	-1.3904083808	-0.208782
C	 2.1575530308	-0.1823166839	-1.4552209861	-0.212146
C	 2.8417343003	-0.7028207377	-0.1738410254	-0.021655
C	 2.331995171	-2.0965356886	 0.2317845518	-0.080191
O	 1.1132785433	-1.8753653167	 0.9563063571	-0.283943
C	 0.9146375614	-0.4597257421	 1.1101657865	 0.10889
C	 2.3317866155	 0.1156938755	 1.0243821576	-0.230293
H	 0.6014704922	 2.1757709314	-0.1202772759	 0.115085
H	-1.0586213005	 1.8591631251	-0.6227908429	 0.114029
H	-0.6348317529	 1.8257239803	 1.0927306845	 0.111421
H	-0.9472210263	-0.468124523	 0.0731714759	 0.074376
H	 0.3766146364	-1.3925299328	-1.5746127816	 0.108989
H	 0.152451342	 0.2288203397	-2.198797318	 0.086133
H	 2.5385611305	-0.7149512305	-2.334494453	 0.092068
H	 2.4320985713	 0.8712774957	-1.5920115743	 0.093092
H	 3.9298893374	-0.6845803386	-0.2795335669	 0.063529
H	 2.1303281177	-2.746592636	-0.6286569373	 0.095688
H	 3.052095297	-2.6102194962	 0.8838417238	 0.091059
H	 0.4367892232	-0.3022477036	 2.0826952077	 0.067061
H	 2.8915312257	-0.1133360301	 1.9369545709	 0.096676
H	 2.3660317174	 1.1946630286	 0.8611036586	 0.097676
139.5866	197.392	219.2905	260.1626	343.144	356.2142	424.449	446.3526	479.0758	589.6516	736.8774	746.5743	779.0125	806.8191	878.5818	895.4753	912.2315	933.3618	950.6603	963.3788	988.9539	1000.6201	1032.9209	1057.4161	1082.6476	1103.4448	1125.4588	1137.5855	1149.4823	1192.3309	1213.8284	1246.8499	1286.7843	1316.2919	1318.6449	1328.1208	1334.4588	1355.3257	1371.7353	1384.1432	1388.1905	1398.3391	1412.3877	1485.4431	1489.2513	1497.4845	1502.6308	1510.3644	1531.2919	3000.3873	3020.5387	3022.2792	3029.3853	3041.1685	3042.3585	3047.6588	3055.8514	3059.371	3074.4234	3080.5043	3093.7184	3099.9482	3115.7758
CC1CCC2COC1C2	C[C@H]1CC[C@@H]2CO[C@H]1C2	
InChI=1S/C8H14O/c1-6-2-3-7-4-8(6)9-5-7/h6-8H,2-5H2,1H3	InChI=1S/C8H14O/c1-6-2-3-7-4-8(6)9-5-7/h6-8H,2-5H2,1H3/t6-,7-,8-/m0/s1
