18
gdb 55112	3.58001	1.19463	1.06308	5.4288	72.39	-0.2524	0.017	0.2693	1152.2877	0.148612	-439.079233	-439.071234	-439.07029	-439.111947	30.869	
O	 0.5497491784	 0.4596764234	 0.2583433201	-0.326042
C	-0.1773956932	 1.3463716396	 0.6177027692	 0.409406
O	 0.0330729016	 1.9567289119	 1.8064205264	-0.391148
C	-1.3662868617	 1.8145280186	-0.2117601969	-0.134933
C	-2.7565277905	 1.5649919607	 0.4807674499	-0.311298
C	-2.7223069398	 3.0298289146	 0.9223642084	 0.335985
C	-3.6676454907	 3.9020690765	 1.6312536233	-0.329818
N	-2.4473769454	 3.406682101	 2.3239060729	-0.364502
H	-2.7150600323	 2.6401682942	 2.9391380889	 0.24151
H	-0.6071241428	 2.6671287983	 1.9904877926	 0.322195
C	-1.6676978962	 3.3465319524	-0.1402793485	-0.304045
H	-1.2499432029	 1.3803816225	-1.2028266326	 0.106207
H	-3.5317387884	 1.3613236336	-0.2627953396	 0.122252
H	-2.8051491514	 0.8034716791	 1.2639591358	 0.120563
H	-3.6749844381	 4.9689162017	 1.4261680905	 0.132339
H	-4.6231144455	 3.4937943207	 1.9490637045	 0.126373
H	-0.8558668687	 4.0191969115	 0.1453289808	 0.126349
H	-2.1183237524	 3.7019131098	-1.0707528858	 0.118608
80.4168	121.0597	194.5992	261.7277	305.7324	369.4129	395.9424	408.1019	582.051	612.9941	682.734	753.4471	786.3834	812.7975	823.3098	881.805	892.9746	936.4643	961.1223	991.3611	1009.6673	1039.3785	1069.5069	1095.5838	1129.3971	1167.0638	1193.1893	1240.1276	1251.1353	1268.4274	1285.4862	1307.5074	1327.9803	1356.7246	1418.4639	1469.4809	1493.1404	1513.7337	1853.2381	3055.5625	3064.9894	3110.0057	3112.1907	3120.024	3135.0055	3198.6403	3480.6264	3612.4485
[O-]C(=O)C1CC2(C[NH2+]2)C1	O=C(O)[C@H]1C[C@]2(CN2)C1	
InChI=1S/C6H9NO2/c8-5(9)4-1-6(2-4)3-7-6/h4,7H,1-3H2,(H,8,9)	InChI=1S/C6H9NO2/c8-5(9)4-1-6(2-4)3-7-6/h4,7H,1-3H2,(H,8,9)/t4-,6+
