17
gdb 49525	4.28753	1.06745	0.95828	1.36	74.6	-0.251	-0.0295	0.2216	1211.9016	0.135319	-421.748614	-421.741008	-421.740063	-421.781031	29.148	
O	 0.1216287829	-0.1146415152	-0.5068787405	-0.25467
C	 0.058274851	 1.044257798	-0.1740693894	 0.123849
C	 1.2670337965	 1.9282908592	-0.0956948404	-0.055251
C	 1.2176175148	 3.3920954348	-0.6783486591	-0.174805
C	 0.363459134	 3.8187120645	 0.5599541211	-0.250597
C	 1.4715986199	 2.8819417568	 1.1427735001	-0.174767
C	 2.4374602864	 3.6457449907	 0.2222829085	 0.566337
C	 3.8763889813	 3.7352236265	 0.0468186863	-0.319926
O	 3.0677482679	 4.8666427999	 0.4764609098	-0.303525
H	-0.9199024605	 1.4974777602	 0.0893125396	 0.078119
H	 2.1429353989	 1.3407543753	-0.3823151889	 0.090249
H	 1.0765610302	 3.6703344331	-1.7221040633	 0.094782
H	 0.4337343545	 4.8695702402	 0.8445001953	 0.124877
H	-0.666750249	 3.4695558888	 0.605819331	 0.10727
H	 1.6204656818	 2.5776304064	 2.178124567	 0.094807
H	 4.5489750972	 3.3408478538	 0.8063836919	 0.126625
H	 4.3043611823	 3.8327586771	-0.949259869	 0.126626
75.4252	138.2854	215.2781	287.0963	306.8921	392.0198	416.0854	465.1971	618.2038	646.6163	722.3293	801.4387	861.1904	879.3769	899.9722	938.0661	990.2256	1005.206	1029.4971	1064.0346	1074.0787	1107.8979	1113.7512	1122.4799	1127.4728	1156.0294	1167.9111	1197.3738	1206.4048	1229.2198	1235.2374	1335.0983	1441.6735	1461.791	1527.3312	1564.3063	1811.7823	2907.3324	3086.3257	3089.9149	3091.147	3126.3003	3129.5988	3156.702	3178.7874
O=CC1C2CC1C21CO1	O=C[C@H]1[C@H]2C[C@@H]1[C@]12CO1	
InChI=1S/C7H8O2/c8-2-4-5-1-6(4)7(5)3-9-7/h2,4-6H,1,3H2	InChI=1S/C7H8O2/c8-2-4-5-1-6(4)7(5)3-9-7/h2,4-6H,1,3H2/t4-,5+,6-,7+
