21
gdb 73724	2.5603	1.89454	1.39263	1.307	81.36	-0.2217	0.0864	0.3081	1015.8361	0.184782	-387.067922	-387.060351	-387.059407	-387.0994	31.354	
C	 0.0265161346	 1.4211738148	 0.0034610974	-0.441339
C	-0.0269222193	-0.0899969193	 0.0321460393	 0.43742
O	 1.0316649415	-0.5644822881	-0.7657721305	-0.313107
C	 1.1154301906	-1.9577590953	-1.0327207743	-0.067756
C	-0.2441035147	-2.6436532276	-1.1951555667	-0.229316
C	-1.1749828422	-2.2510312831	-0.0464971203	-0.040465
C	-0.5222717522	-2.2166588542	 1.3775895821	-0.26391
C	-0.5203677437	-0.6880692874	 1.3332818583	-0.121104
C	-1.3749518576	-0.7225484692	 0.03514422	-0.133268
H	 0.9779498162	 1.7765451717	 0.4109337556	 0.123594
H	-0.0565159606	 1.7813634942	-1.0263019547	 0.121605
H	-0.7876190297	 1.8535920868	 0.5910502829	 0.113872
H	 1.7051621177	-2.0462575852	-1.9507794346	 0.100506
H	 1.6875598041	-2.4532500198	-0.2347917746	 0.094925
H	-0.7033666198	-2.3544211795	-2.1484772897	 0.101965
H	-0.0832850567	-3.7279901682	-1.2251784657	 0.095083
H	-2.1060571783	-2.8193926289	-0.0749781915	 0.071029
H	-1.2297366758	-2.5790617957	 2.128083534	 0.100517
H	 0.4303165864	-2.7322158844	 1.5299161831	 0.095134
H	-0.6446843269	-0.0543394211	 2.2053567119	 0.077772
H	-2.2867149936	-0.1919484104	-0.2175151721	 0.076841
141.7628	208.9968	238.0511	305.5858	333.8127	358.0428	461.0324	500.94	523.7106	609.8363	682.6179	743.5663	815.9275	826.9419	836.9945	872.7465	916.5456	942.5274	964.9374	975.9883	1024.8938	1033.5513	1049.4099	1066.6123	1093.5352	1117.1623	1127.373	1142.1025	1188.0749	1216.1539	1248.6444	1254.246	1271.8343	1276.8224	1301.3495	1338.3406	1375.9647	1406.0291	1413.4587	1436.1635	1477.8754	1480.2681	1494.2598	1507.4627	1525.3141	2994.3364	3023.9615	3041.1349	3051.2799	3063.8713	3071.9173	3084.6696	3099.2153	3108.6051	3121.7782	3155.1718	3166.527
CC12OCCC3CC1C23	C[C@@]12OCC[C@H]3C[C@@H]1[C@@H]23	
InChI=1S/C8H12O/c1-8-6-4-5(7(6)8)2-3-9-8/h5-7H,2-4H2,1H3	InChI=1S/C8H12O/c1-8-6-4-5(7(6)8)2-3-9-8/h5-7H,2-4H2,1H3/t5-,6+,7-,8+/m0/s1
