15
gdb 129327	3.29284	1.38371	1.05667	2.2576	69.71	-0.2383	-0.0429	0.1954	1099.7398	0.112615	-450.061183	-450.053537	-450.052593	-450.095002	28.037	
N	-0.1488963602	 1.298847334	-0.2934184148	-0.595877
C	-0.0136748376	 0.0591584503	-0.0899192565	 0.518369
O	 1.1111497682	-0.7152362317	-0.0622963183	-0.244364
N	 0.7083719943	-2.0624117758	 0.2114362494	-0.001631
N	-0.5342967184	-2.0736353682	 0.3322375763	-0.049693
N	-1.0367641425	-0.8430894354	 0.1654285013	-0.078727
C	-2.4361454797	-0.533399542	 0.2452423426	 0.069091
C	-3.4603754189	-1.5099217761	-0.2576273067	-0.280627
C	-3.3183891453	-1.2507278557	 1.2263692728	-0.280625
H	 0.7455154569	 1.7516621648	-0.4580041172	 0.241669
H	-2.5670556611	 0.527022154	 0.0725710682	 0.154206
H	-4.3196150509	-1.1121380238	-0.7850585879	 0.131464
H	-3.0936213932	-2.4599609496	-0.6290386282	 0.142643
H	-2.8592515371	-2.0320160724	 1.8211885448	 0.142641
H	-4.0781947845	-0.6714050425	 1.7380276742	 0.131463
17.7612	121.1	171.7188	226.4558	314.236	421.5214	516.1916	616.6709	647.6037	713.8403	749.5558	749.6478	765.9741	795.8366	817.3154	906.2738	954.7286	1000.5257	1039.5322	1067.4879	1085.5002	1105.5518	1130.6784	1176.032	1198.0491	1230.2907	1264.3826	1399.4294	1443.7192	1457.1527	1496.7346	1526.8249	1783.6555	3143.2296	3144.9056	3210.9711	3228.3226	3241.791	3551.2799
N=C1ON=NN1C1CC1	[NH][C@@H]1ON=NN1C1CC1	
InChI=1S/C4H6N4O/c5-4-8(3-1-2-3)6-7-9-4/h3,5H,1-2H2	InChI=1S/C4H7N4O/c5-4-8(3-1-2-3)6-7-9-4/h3-5H,1-2H2/t4-/m0/s1
