19
gdb 62122	3.9611	0.66966	0.60218	2.5493	73.46	-0.2509	-0.0226	0.2284	1790.7648	0.155916	-460.14059	-460.130484	-460.12954	-460.177433	34.825	
O	-0.1047503273	 1.5743010287	-0.1322853978	-0.425648
C	 0.040231742	 0.1701225271	 0.040619902	 0.093207
C	 0.6672717179	-0.5116361602	-1.1813090065	-0.224411
C	-0.135074417	-0.2754168171	-2.4722232441	-0.272206
C	 0.4782802688	-1.0064297781	-3.643693044	 0.154941
O	 0.8952032302	-0.4823978886	-4.6441210452	-0.235579
C	 0.8265105408	-0.1367889868	 1.3008534929	 0.065611
C	 0.1675949762	-0.3924247102	 2.5838433292	-0.177186
O	 0.7072655307	-1.4668348918	 1.8054553776	-0.236232
H	 0.7658722295	 1.9461745675	-0.3149723205	 0.283621
H	-0.9798552017	-0.2089440242	 0.1754817357	 0.096426
H	 1.6940425938	-0.1394327827	-1.3112941522	 0.100792
H	 0.7491189303	-1.5843237716	-0.9687606273	 0.12833
H	-1.1554214907	-0.660658664	-2.3317818175	 0.118637
H	-0.2011436266	 0.7891298105	-2.7060447341	 0.129682
H	 0.5351710841	-2.1135258217	-3.5126909265	 0.071309
H	 1.8461674603	 0.2591281807	 1.3142272815	 0.087141
H	 0.6921503081	-0.1830196416	 3.5144445808	 0.120526
H	-0.9191848193	-0.357722926	 2.6422330759	 0.121038
46.6669	49.275	81.7791	110.187	140.4965	217.2131	279.878	294.7982	316.4666	392.1059	483.3424	521.5432	540.7188	778.9947	835.7871	871.6427	876.1535	913.5057	977.496	1010.4105	1056.512	1080.7341	1092.5464	1119.9371	1140.3818	1158.8149	1171.426	1181.8569	1254.2172	1266.5152	1290.4536	1308.2062	1346.0583	1384.4993	1407.9901	1429.7539	1453.9864	1466.2613	1489.0444	1529.4925	1836.3293	2848.4297	3003.888	3018.1954	3045.8365	3065.6343	3073.0146	3088.7737	3120.4654	3176.9539	3794.5321
OC(CCC=O)C1CO1	O[C@@H](CCC=O)[C@H]1CO1	
InChI=1S/C6H10O3/c7-3-1-2-5(8)6-4-9-6/h3,5-6,8H,1-2,4H2	InChI=1S/C6H10O3/c7-3-1-2-5(8)6-4-9-6/h3,5-6,8H,1-2,4H2/t5-,6+/m0/s1
