16
gdb 30048	2.46189	1.85727	1.06561	0.9107	76.44	-0.2014	-0.0232	0.1782	1069.8729	0.126675	-434.107729	-434.099839	-434.098895	-434.13993	30.054	
C	-0.4450802151	 1.3432750127	 0.0352481118	-0.326507
N	 0.0231345483	-0.0370807341	 0.0025733574	-0.111045
C	 0.2487276603	-0.6795648293	-1.1802358185	 0.098345
N	 0.6623472607	-1.8959893981	-1.3073008474	-0.304279
C	 0.8879402404	-2.5828973338	-0.1345144041	-0.131731
C	 0.6970209476	-2.0426593622	 1.0939678322	 0.250461
O	 0.9048639526	-2.6775833825	 2.2787696175	-0.436593
C	 0.230276712	-0.6690194012	 1.2398928073	 0.346804
N	 0.0034427418	-0.0181634614	 2.3212905424	-0.58529
H	 0.2717144046	 1.9676383396	 0.5739234447	 0.157961
H	-0.5635005557	 1.7016531476	-0.9882358674	 0.127398
H	-1.3966871184	 1.4014223652	 0.5688590619	 0.158181
H	 0.0523125717	-0.0845487997	-2.0677791002	 0.124823
H	 1.2364570317	-3.6081428056	-0.2443578194	 0.095872
H	 1.2135377143	-3.5743862292	 2.1092023511	 0.304199
H	 0.2014966131	-0.6160036381	 3.1210287408	 0.2314
112.753	165.457	215.4245	274.4051	320.8203	354.9362	362.2642	467.8688	490.8655	528.28	595.9607	603.1721	697.873	764.0779	831.2848	878.8034	894.4731	935.0401	981.5861	1078.7975	1156.7463	1160.2996	1187.4971	1215.1034	1314.8226	1353.5022	1390.2056	1427.7877	1462.7804	1464.2157	1467.3937	1513.8494	1612.075	1645.0296	1697.0038	3056.6576	3124.7598	3141.1318	3150.7566	3173.028	3518.1997	3816.767
CN1C=NC=C(O)C1=N	CN1C=NCC(=C1[NH])O	
InChI=1S/C5H7N3O/c1-8-3-7-2-4(9)5(8)6/h2-3,6,9H,1H3	InChI=1S/C5H8N3O/c1-8-3-7-2-4(9)5(8)6/h3,6,9H,2H2,1H3
