19
gdb 112343	2.10549	1.50107	0.9238	5.291	82.67	-0.2114	0.0018	0.2132	1278.6892	0.160018	-419.246257	-419.237254	-419.23631	-419.279912	34.191	
C	 0.0443913477	 1.5482605289	 0.0419826847	-0.385976
C	-0.0438797445	 0.022647377	-0.0419054015	-0.186372
C	 0.6913086836	-0.5439130095	-1.2622310389	 0.037749
O	 2.0779723167	-0.2048339637	-1.1987178186	-0.263563
C	 2.8514084806	-1.3563052562	-1.246938609	 0.415367
N	 4.118388037	-1.3567045698	-1.2085155891	-0.568203
C	 1.9560814408	-2.4980774782	-1.3423295549	-0.321349
C	 0.6858401957	-2.0550948817	-1.3604941243	 0.34856
N	-0.4920415179	-2.737568262	-1.5204660234	-0.593027
H	 1.0882651614	 1.8677561936	 0.0876492406	 0.143817
H	-0.4146170984	 2.0197968152	-0.8339165741	 0.115993
H	-0.4697608536	 1.9214359331	 0.9322436192	 0.115243
H	 0.3824149162	-0.4363380725	 0.8575524912	 0.113372
H	-1.0976473551	-0.2844628191	-0.0899899248	 0.086534
H	 0.2700191871	-0.1009763532	-2.1780211968	 0.101001
H	 4.469746123	-0.4010040217	-1.1402433139	 0.213164
H	 2.3111791437	-3.5158702602	-1.3946523794	 0.108349
H	-0.4629727155	-3.7346573087	-1.3719035126	 0.262227
H	-1.3261712285	-2.3044450113	-1.1560229144	 0.257113
93.4855	114.0124	174.0615	177.1317	239.9458	281.6672	364.5374	377.4342	415.8568	508.4561	527.6782	597.4344	623.6533	684.5122	694.5741	786.0867	824.0981	856.3552	870.7852	912.601	975.8883	993.7021	1060.3033	1084.3526	1089.1441	1129.0286	1140.9395	1249.5344	1265.2633	1287.4191	1318.0249	1376.2353	1381.4793	1411.8458	1413.9502	1472.5697	1496.8342	1508.813	1645.4515	1708.3832	1759.7621	2988.1593	3013.9029	3040.2044	3067.4247	3107.3645	3129.6599	3252.5662	3483.5033	3580.2713	3683.3385
CCC1OC(=N)C=C1N	CC[C@H]1OC(=C[C]1N)[NH]	
InChI=1S/C6H10N2O/c1-2-5-4(7)3-6(8)9-5/h3,5,8H,2,7H2,1H3	InChI=1S/C6H10N2O/c1-2-5-4(7)3-6(8)9-5/h3,5,8H,2,7H2,1H3/t5-/m1/s1
