23
gdb 71906	2.99239	1.61898	1.57357	0.1356	87.58	-0.2681	0.081	0.349	1013.0939	0.209806	-351.180363	-351.17321	-351.172266	-351.211165	31.414	
C	 0.0344526977	 1.4797308219	 0.0248943507	-0.479736
C	 0.0013175151	-0.0397174508	 0.0032124276	 0.319972
C	 0.6162635	-0.6908790806	-1.2635142953	-0.239624
C	 0.2681800608	-2.1915686134	-1.1018185764	-0.024491
C	 1.1873902968	-2.8677382838	-0.0575004283	-0.223959
C	 0.3031178745	-2.2228047658	 1.035603839	-0.024493
C	 0.6570217365	-0.7273146701	 1.2296036596	-0.239621
C	-0.8699007879	-2.1461400717	-0.0133267753	-0.016944
C	-1.3929108819	-0.7140027676	 0.016152221	-0.250097
H	 1.0635595509	 1.8567163139	 0.0139510481	 0.110017
H	-0.4804379975	 1.9012077438	-0.8460871339	 0.108241
H	-0.4521343937	 1.8753217957	 0.9238408251	 0.108243
H	 0.143636194	-0.2727541294	-2.1601877354	 0.08684
H	 1.6946680636	-0.5164477438	-1.350661804	 0.085911
H	 0.0951413272	-2.7062168258	-2.0488733561	 0.054262
H	 1.0838392922	-3.9570585582	-0.071727364	 0.08922
H	 2.2530606332	-2.6120647913	-0.0711831653	 0.081927
H	 0.1608715551	-2.7649817228	 1.9723683264	 0.054262
H	 1.7377823919	-0.554988349	 1.2865020127	 0.085911
H	 0.2141652715	-0.3357838149	 2.1530807906	 0.086839
H	-1.5832479578	-2.9695561892	-0.0137018731	 0.055919
H	-1.9684711718	-0.4787981793	 0.9187391453	 0.0857
H	-1.9975645303	-0.4528122278	-0.8598770291	 0.085701
219.7343	236.4568	283.2326	348.0609	365.7975	451.0582	453.4786	555.0876	556.0083	634.8004	773.0377	805.4074	824.3901	846.991	852.4825	874.9706	908.1457	924.3188	935.2776	939.4631	979.8913	986.3512	1001.1282	1051.0524	1068.0551	1078.441	1094.555	1113.0864	1129.1533	1159.5109	1190.5853	1235.5044	1244.1646	1253.6586	1260.3195	1281.6315	1283.3277	1285.2273	1308.5495	1323.3132	1340.228	1369.6809	1412.8382	1478.8297	1485.4118	1491.7893	1494.0416	1497.7873	1512.2956	3019.4856	3025.1912	3026.4111	3030.4771	3035.5639	3065.8608	3070.4236	3077.7884	3079.1276	3082.9609	3085.3997	3087.0202	3089.6642	3120.1823
CC12CC3CC(C1)C3C2	C[C@@]12C[C@H]3C[C@@H](C1)[C@H]3C2	
InChI=1S/C9H14/c1-9-3-6-2-7(4-9)8(6)5-9/h6-8H,2-5H2,1H3	InChI=1S/C9H14/c1-9-3-6-2-7(4-9)8(6)5-9/h6-8H,2-5H2,1H3/t6-,7+,8+,9-
