17
gdb 18759	2.80693	2.46528	1.64367	2.0549	62.91	-0.22	0.0395	0.2595	814.3735	0.143576	-400.938995	-400.931975	-400.93103	-400.970195	27.648	
O	 0.3495370609	 1.0548847256	-0.8278127491	-0.440033
C	 0.0591708578	-0.1389649207	-0.1571426922	 0.135554
C	 0.16647893	-0.2014911171	 1.3956584861	-0.221554
N	-1.210900626	-0.7869217131	 1.5132858562	-0.129372
C	-2.244915044	 0.2606586003	 1.7881978357	-0.187789
C	-2.5043326555	 0.4872829114	 0.283750026	 0.090494
O	-2.2404981823	 1.8277122021	-0.120551988	-0.430607
C	-1.4179194313	-0.593794702	 0.0156970454	-0.072981
H	-0.2901112669	 1.7081599881	-0.5114967086	 0.283274
H	 0.6576307283	-0.9162501036	-0.6403136835	 0.094547
H	 0.9401244347	-0.8643212603	 1.7942196048	 0.10559
H	 0.2726340543	 0.7832370227	 1.8660603537	 0.100887
H	-3.0988107554	-0.1372076039	 2.3440266193	 0.109628
H	-1.8669804884	 1.1479508677	 2.3067558366	 0.113679
H	-3.5043613441	 0.1871336892	-0.0499961829	 0.084612
H	-2.4800561481	 1.9142385029	-1.0500096369	 0.294989
H	-1.7444219038	-1.4597982493	-0.5674661624	 0.069083
74.0145	226.5496	289.013	340.2735	372.5079	414.4821	424.0627	611.9968	638.4354	662.0396	739.3521	766.6981	859.7398	866.3645	939.6101	969.9371	985.4902	1009.3215	1018.2026	1058.9033	1134.0663	1157.1934	1162.106	1197.6507	1211.1017	1232.5732	1241.3957	1285.0094	1297.9318	1312.1442	1336.8008	1349.1721	1426.7597	1477.6788	1483.4945	1503.0136	3027.3179	3028.9679	3042.8213	3058.2784	3071.0497	3089.2593	3096.2932	3729.1758	3804.1943
OC1CN2CC(O)C12	O[C@H]1CN2C[C@@H](O)[C@@H]12	
InChI=1S/C5H9NO2/c7-3-1-6-2-4(8)5(3)6/h3-5,7-8H,1-2H2	InChI=1S/C5H9NO2/c7-3-1-6-2-4(8)5(3)6/h3-5,7-8H,1-2H2/t3-,4+,5+
