27
gdb 117980	2.64897	0.84468	0.7706	1.3516	92.39	-0.258	0.0678	0.3258	1711.4309	0.248724	-390.708436	-390.696335	-390.695391	-390.745424	45.11	
C	-0.1117158717	 1.5603986072	 0.1541178168	-0.383359
C	-0.0235554067	 0.0356967765	 0.0526585944	-0.157656
C	 0.6920448812	-0.4404740466	-1.2180206734	-0.212043
C	 0.726454034	-1.9701251872	-1.3477435333	 0.123377
O	-0.6031945838	-2.4965195649	-1.364832752	-0.441617
C	 1.5745837089	-2.5348254207	-2.5291263553	 0.255286
C	 3.0326471422	-2.0515836104	-2.4179451761	-0.414292
C	 1.5554987032	-4.0728363469	-2.4325669558	-0.405431
C	 0.9938983167	-2.1083403471	-3.8906607558	-0.425359
H	 0.883807961	 2.0189613954	 0.1543299381	 0.111082
H	-0.6671324126	 1.9835604588	-0.6907976394	 0.110095
H	-0.619955524	 1.8701064082	 1.0727229611	 0.11163
H	 0.5050687032	-0.3608043108	 0.9296846898	 0.09326
H	-1.0263284553	-0.4030799849	 0.0816775076	 0.107119
H	 0.1911092309	-0.011245887	-2.0984621265	 0.083716
H	 1.7131561331	-0.0433206956	-1.2266544854	 0.098334
H	 1.1596267104	-2.379757036	-0.4247717659	 0.078089
H	-1.0762868989	-2.066926608	-2.0855282801	 0.276915
H	 3.4411648527	-2.2479704858	-1.4198696663	 0.109177
H	 3.6631517369	-2.5807660933	-3.1404724941	 0.109656
H	 3.134076396	-0.9811043281	-2.6192057984	 0.112178
H	 0.5311785417	-4.4513504977	-2.4423987434	 0.125259
H	 2.1030692126	-4.5205385137	-3.2688854889	 0.10044
H	 2.028567602	-4.4126411286	-1.504139221	 0.104529
H	 1.0061948989	-1.0216514004	-4.0225633212	 0.111862
H	 1.5806004383	-2.5426027492	-4.7069915264	 0.114428
H	-0.0366505208	-2.4586352233	-4.0184903491	 0.103326
53.7955	88.2573	95.4016	141.1374	213.9052	237.7099	249.879	256.319	284.57	289.6141	299.324	307.2005	355.0963	367.4025	380.4021	459.9243	524.3525	552.663	748.9554	761.9867	849.4078	891.185	902.8753	936.3651	938.8799	957.2209	990.5587	1025.4743	1035.6201	1052.4776	1087.4104	1110.7398	1127.8274	1210.3043	1236.3038	1252.5267	1268.7584	1297.4603	1308.983	1342.0298	1363.613	1391.5559	1396.4195	1398.0713	1413.3009	1417.7484	1430.1522	1480.0978	1481.3955	1487.5525	1491.2738	1494.616	1500.0393	1505.7053	1511.3795	1512.3469	1520.6779	2999.456	3014.3139	3024.4253	3025.1273	3026.3365	3027.9951	3033.8297	3059.514	3074.7112	3087.896	3090.0247	3093.5565	3095.6174	3099.7691	3100.1575	3105.3132	3127.1981	3805.8694
CCCC(O)C(C)(C)C	CCC[C@@H](O)C(C)(C)C	
InChI=1S/C8H18O/c1-5-6-7(9)8(2,3)4/h7,9H,5-6H2,1-4H3	InChI=1S/C8H18O/c1-5-6-7(9)8(2,3)4/h7,9H,5-6H2,1-4H3/t7-/m1/s1
