13
gdb 9990	2.9534	1.35886	0.96434	3.1243	64.82	-0.2697	-0.0471	0.2226	1116.7293	0.092399	-361.439367	-361.430836	-361.429892	-361.473459	28.833	
O	-0.4967178733	 0.6183871458	 0.8468291478	-0.2275
C	 0.0966184951	 0.928685003	-0.1520275986	 0.142732
C	 1.3519443858	 1.7836732057	-0.1467502955	-0.279924
C	 1.3152664827	 2.9369437501	-1.194058279	-0.33916
C	 2.4998642527	 3.7873681665	-1.0838449015	 0.321336
C	 3.474594361	 4.4760775538	-0.9614422564	-0.401723
C	 1.1774014519	 2.4057762249	-2.561866015	 0.296256
N	 1.0559368493	 1.9689253312	-3.6240771509	-0.315757
H	-0.239237917	 0.5879679647	-1.1556439436	 0.111287
H	 1.4914078931	 2.204576061	 0.8505897605	 0.149326
H	 2.2105205757	 1.1397911351	-0.3734983857	 0.155985
H	 0.4243849738	 3.5498846662	-0.9981867909	 0.170779
H	 4.3357953992	 5.0910071019	-0.8647038913	 0.216363
54.2973	77.8408	130.2249	143.1769	204.4985	302.6243	359.0905	438.4658	496.3291	574.6866	582.0349	656.5325	674.9934	807.1163	822.1422	993.3813	1011.5364	1071.6078	1093.3231	1201.3603	1267.657	1316.9436	1336.2268	1429.5826	1458.1887	1836.6935	2251.1141	2364.4774	2903.6963	3017.7363	3049.3195	3130.9445	3500.7228
O=CCC(C#C)C#N	O=CC[C@@H](C#C)C#N	
InChI=1S/C6H5NO/c1-2-6(5-7)3-4-8/h1,4,6H,3H2	InChI=1S/C6H5NO/c1-2-6(5-7)3-4-8/h1,4,6H,3H2/t6-/m1/s1
