18
gdb 67964	2.27503	1.87759	1.32941	3.4004	72.55	-0.257	0.0147	0.2717	1014.6109	0.148511	-439.096828	-439.089026	-439.088082	-439.128972	30.376	
C	-0.11368241	 1.642431403	-0.0541907847	-0.467494
C	-0.005761449	 0.1435205671	 0.0914943325	 0.396369
C	-1.2926579258	-0.6724056318	-0.0245239686	-0.273496
C	-0.9812154009	-1.9300426939	 0.8070326645	-0.10064
O	-0.125958196	-1.4796881662	 1.8616345271	-0.250471
C	 0.7157723952	-0.4969916166	 1.3159048514	-0.055126
C	 1.7301583706	-0.9645211135	 0.270726904	 0.398558
N	 2.7972651013	-1.6206138842	 0.3032310359	-0.551092
O	 1.0505516655	-0.4026078864	-0.7916003834	-0.30018
H	 0.8619491644	 2.1171184848	 0.0830277329	 0.132258
H	-0.4849973853	 1.9100717323	-1.0485193995	 0.13487
H	-0.8065939189	 2.047464009	 0.6896999913	 0.129327
H	-2.118995098	-0.1120124596	 0.4238037405	 0.114008
H	-1.5431953039	-0.8937590915	-1.0645262951	 0.12132
H	-1.859061244	-2.3880836776	 1.2664227913	 0.117866
H	-0.4695836689	-2.6866063734	 0.1960143735	 0.116841
H	 1.1012499946	 0.1348077885	 2.116444552	 0.110078
H	 3.1890796391	-1.7418121501	-0.6333206454	 0.227004
99.3799	183.1768	220.157	256.9355	297.0491	334.0781	381.155	455.0348	594.5155	618.9222	641.4088	711.0794	807.0886	839.9133	878.426	882.7785	926.615	953.8089	973.6091	987.6171	1017.8117	1029.6751	1117.1436	1141.0839	1158.4837	1205.1232	1234.679	1237.437	1267.1939	1294.7154	1329.9467	1360.1323	1391.6607	1414.4503	1467.9012	1483.8216	1495.6637	1516.8669	1821.1169	3013.7805	3040.0387	3060.8585	3110.4655	3112.2462	3118.0015	3120.4347	3122.5122	3462.9342
CC12CCOC1C(=N)O2	C[C@]12CCO[C@H]1[C]([NH])O2	
InChI=1S/C6H9NO2/c1-6-2-3-8-4(6)5(7)9-6/h4,7H,2-3H2,1H3	InChI=1S/C6H9NO2/c1-6-2-3-8-4(6)5(7)9-6/h4,7H,2-3H2,1H3/t4-,6-/m0/s1
