20
gdb 40457	3.94219	1.27501	1.19387	1.9731	81.63	-0.2311	0.0801	0.3111	1111.7783	0.172699	-365.928607	-365.92125	-365.920306	-365.960558	29.985	
C	-0.1853166616	 1.3817147199	-0.2969341033	-0.275491
C	 1.2164593959	 1.0502516475	 0.1436849325	-0.267491
C	 0.1801533977	-0.0465950592	 0.0310687326	-0.133568
C	-0.3300908632	-0.73247536	 1.2516972769	 0.332608
C	 0.3090893714	-2.0707244904	 1.7379635814	-0.287101
C	-1.0396343033	-2.3596685881	 2.3864725455	-0.032879
C	-1.7482269248	-1.415088156	 1.4945694163	-0.111864
N	-1.6182758203	-1.0827314402	 2.9399126059	-0.149065
C	-0.6043280048	-0.0324149804	 2.5991217701	-0.200745
H	-0.8197663057	 1.9227557104	 0.3963466778	 0.114729
H	-0.3522975979	 1.6341337254	-1.3381560365	 0.112972
H	 2.0141944138	 1.0804823758	-0.5898243273	 0.113205
H	 1.5178622216	 1.3592326569	 1.1389965657	 0.116246
H	 0.2913393701	-0.7044823941	-0.8277777336	 0.080793
H	 0.493131933	-2.7539933299	 0.9040309554	 0.102269
H	 1.2044746567	-2.0032403515	 2.3663816631	 0.093357
H	-1.397392259	-3.2750929808	 2.8388611479	 0.096873
H	-2.6858897736	-1.4502698137	 0.9551231471	 0.09361
H	 0.226069803	 0.0692614837	 3.3089019259	 0.093704
H	-1.128797119	 0.9219070945	 2.5043936768	 0.107838
69.5846	165.7519	195.3544	345.0151	394.6906	444.2465	476.7881	594.8643	722.0867	748.5462	789.633	796.2724	824.3503	844.0955	882.8018	909.7155	929.8288	955.9828	962.2326	976.7118	994.5524	1014.5951	1051.5288	1061.3867	1079.1155	1083.5421	1127.2147	1138.6967	1139.5391	1164.3639	1178.0507	1200.0878	1211.0417	1219.6945	1250.6782	1274.694	1326.2386	1348.9544	1428.8376	1471.41	1491.7448	1506.1525	1515.2848	3024.178	3036.7053	3096.9749	3101.3047	3127.5874	3133.5383	3139.0934	3193.6035	3209.4154	3211.349	3226.4825
C1CC1C12CC3C1N3C2	C1CC1[C@]12C[C@@H]3[C@H]1N3C2	
InChI=1S/C8H11N/c1-2-5(1)8-3-6-7(8)9(6)4-8/h5-7H,1-4H2	InChI=1S/C8H11N/c1-2-5(1)8-3-6-7(8)9(6)4-8/h5-7H,1-4H2/t6-,7-,8-,9?/m1/s1
