14
gdb 10677	2.54306	2.31701	1.33114	1.6486	59.32	-0.2591	-0.0551	0.204	887.6272	0.103397	-419.674608	-419.666407	-419.665463	-419.708499	28.364	
C	 0.1080637741	 1.3716498424	-0.3791765767	-0.482771
C	-0.1022340148	 0.1138597969	 0.4237269422	 0.324688
O	 0.6501194769	-0.238954619	 1.2997802325	-0.288476
C	-1.3223021151	-0.7630983287	 0.1217159923	 0.177508
C	-1.1708538559	-2.2204696604	 0.4111780613	-0.185502
O	-1.8906479079	-1.3926531446	 1.2854695177	-0.235234
C	-2.3682024573	-0.427917005	-0.8979013389	 0.102103
O	-2.2444453025	 0.3517563451	-1.8071920653	-0.259349
H	 1.02521857	 1.8549770212	-0.0413032456	 0.140305
H	 0.1560670262	 1.1442846796	-1.4474114282	 0.161786
H	-0.744448834	 2.0482711653	-0.257936895	 0.153972
H	-1.7563318278	-2.9408031391	-0.1598645126	 0.13031
H	-0.1915174626	-2.538372117	 0.7617466834	 0.156266
H	-3.3067463694	-1.0000132567	-0.7283885272	 0.104395
18.9384	122.6951	162.2122	219.5694	287.0375	294.5852	344.9691	373.2815	487.6007	595.3816	619.1267	678.7118	843.4785	897.6852	923.3174	985.4587	1028.4256	1062.0751	1141.6711	1148.8484	1185.2572	1283.3582	1325.8779	1390.5455	1418.5584	1445.6389	1466.0503	1494.8694	1809.0947	1825.5368	2900.4866	3050.5307	3084.9936	3115.8547	3161.4096	3192.9116
CC(=O)C1(CO1)C=O	CC(=O)[C@]1(CO1)C=O	
InChI=1S/C5H6O3/c1-4(7)5(2-6)3-8-5/h2H,3H2,1H3	InChI=1S/C5H6O3/c1-4(7)5(2-6)3-8-5/h2H,3H2,1H3/t5-/m1/s1
