15
gdb 62754	2.60395	1.56554	1.27036	2.9959	61.73	-0.2596	-0.0128	0.2468	1002.2309	0.109611	-494.882537	-494.874018	-494.873074	-494.915184	32.06	
C	 0.0449708426	 1.5643088008	-0.069386928	-0.460273
C	 0.1088738802	 0.0606414278	 0.0068023081	 0.372676
O	-1.0251542277	-0.5692017015	-0.5075421493	-0.471209
C	 1.3608310471	-0.7433124765	-0.1787153848	-0.068144
O	 2.4899263143	-0.0287121077	 0.3867154936	-0.256073
C	 1.9621952798	-0.1248162007	 1.6764407276	 0.409004
O	 2.4811366437	 0.1804267345	 2.6979017098	-0.324193
C	 0.6825750938	-0.756073801	 1.1914833527	 0.073849
O	-0.1728086735	-1.6028905726	 1.848408843	-0.447123
H	 0.993351906	 2.0218997975	 0.2167754737	 0.147659
H	-0.1861277043	 1.8579902208	-1.097810359	 0.13841
H	-0.748814672	 1.9443763084	 0.5798247675	 0.132698
H	-1.3726833524	-1.1590022747	 0.1757030803	 0.301862
H	 1.5531553689	-1.5139456447	-0.9116283652	 0.139715
H	 0.2858357134	-2.4199224004	 2.0767716501	 0.311142
122.8754	168.6488	208.909	264.8714	268.6815	286.2442	301.3164	382.5227	408.2857	423.3051	542.0387	599.1762	634.2805	710.0007	761.2564	788.185	892.4617	907.5805	969.6663	989.2899	1018.921	1080.5375	1092.7197	1205.9219	1242.9688	1280.5043	1312.4424	1376.5393	1416.4868	1453.0412	1483.1631	1496.6279	1944.1743	3049.8677	3116.584	3144.5886	3227.7021	3748.8174	3792.4369
CC1(O)C2OC(=O)C12O	C[C@@]1(O)[C@H]2OC(=O)[C@@]12O	
InChI=1S/C5H6O4/c1-4(7)2-5(4,8)3(6)9-2/h2,7-8H,1H3	InChI=1S/C5H6O4/c1-4(7)2-5(4,8)3(6)9-2/h2,7-8H,1H3/t2-,4-,5-/m1/s1
